paritaprevir
  CDK     0628171802

 98105  0  0  0  0  0  0  0  0999 V2000
    0.2992    7.0997   -0.1608 C   0  0  0  0  0  0  0  0  0  0  0  0
   -1.4877    5.5115    1.8972 C   0  0  0  0  0  0  0  0  0  0  0  0
   -1.5620    6.7771    1.3833 N   0  0  0  0  0  0  0  0  0  0  0  0
   -1.1780    7.1938   -0.0071 C   0  0  1  0  0  0  0  0  0  0  0  0
   -2.1418    8.0442    2.0075 C   0  0  2  0  0  0  0  0  0  0  0  0
   -1.8195    9.3035    1.0898 C   0  0  1  0  0  0  0  0  0  0  0  0
   -1.7017    8.6711   -0.3187 C   0  0  1  0  0  0  0  0  0  0  0  0
   -2.8408   10.3284    1.1339 O   0  0  0  0  0  0  0  0  0  0  0  0
   -2.4459   11.4870    1.7530 C   0  0  0  0  0  0  0  0  0  0  0  0
   -0.8176    9.6642    1.3580 H   0  0  0  0  0  0  0  0  0  0  0  0
   -2.4814   13.1283    3.5788 C   0  0  0  0  0  0  0  0  0  0  0  0
   -2.9607   11.9074    3.0006 C   0  0  0  0  0  0  0  0  0  0  0  0
   -1.5355   12.2575    1.1148 N   0  0  0  0  0  0  0  0  0  0  0  0
   -1.0482   13.4140    1.6172 C   0  0  0  0  0  0  0  0  0  0  0  0
   -1.4974   13.8961    2.8806 C   0  0  0  0  0  0  0  0  0  0  0  0
   -0.9276   15.1134    3.3465 C   0  0  0  0  0  0  0  0  0  0  0  0
   -0.0891   14.1128    0.8593 C   0  0  0  0  0  0  0  0  0  0  0  0
    0.4459   15.3162    1.3437 C   0  0  0  0  0  0  0  0  0  0  0  0
    0.0264   15.8156    2.5865 C   0  0  0  0  0  0  0  0  0  0  0  0
   -4.0019   12.7442    5.4842 C   0  0  0  0  0  0  0  0  0  0  0  0
   -4.4605   11.5544    4.9026 C   0  0  0  0  0  0  0  0  0  0  0  0
   -3.9405   11.1354    3.6683 C   0  0  0  0  0  0  0  0  0  0  0  0
   -3.0237   13.5155    4.8347 C   0  0  0  0  0  0  0  0  0  0  0  0
   -1.6256    6.5753   -0.8193 H   0  0  0  0  0  0  0  0  0  0  0  0
    1.0259    7.8238    0.5587 O   0  0  0  0  0  0  0  0  0  0  0  0
    0.9672    6.2705   -1.0095 N   0  0  0  0  0  0  0  0  0  0  0  0
   -2.2405    5.0337    3.0885 C   0  0  2  0  0  0  0  0  0  0  0  0
   -0.7815    4.6664    1.2985 O   0  0  0  0  0  0  0  0  0  0  0  0
   -3.7480    4.7688    2.7573 C   0  0  1  0  0  0  0  0  0  0  0  0
   -2.1045    5.9357    4.1959 N   0  0  0  0  0  0  0  0  0  0  0  0
   -0.9423    6.1993    4.8664 C   0  0  0  0  0  0  0  0  0  0  0  0
   -0.8517    7.2492    5.8146 C   0  0  0  0  0  0  0  0  0  0  0  0
    0.0838    5.5226    4.6106 O   0  0  0  0  0  0  0  0  0  0  0  0
   -1.9201    8.1227    6.1284 C   0  0  0  0  0  0  0  0  0  0  0  0
   -1.7220    9.1225    7.0253 N   0  0  0  0  0  0  0  0  0  0  0  0
   -0.5340    9.3363    7.6508 C   0  0  0  0  0  0  0  0  0  0  0  0
    0.5317    8.4658    7.3507 C   0  0  0  0  0  0  0  0  0  0  0  0
    0.3316    7.4687    6.4535 N   0  0  0  0  0  0  0  0  0  0  0  0
   -0.3697   10.4535    8.5984 C   0  0  0  0  0  0  0  0  0  0  0  0
   -4.0277    3.9094    1.4758 C   0  0  2  0  0  0  0  0  0  0  0  0
   -4.1737    4.7179    0.1384 C   0  0  1  0  0  0  0  0  0  0  0  0
   -3.3692    4.1321   -1.0595 C   0  0  2  0  0  0  0  0  0  0  0  0
   -3.4911    4.9515   -2.3794 C   0  0  1  0  0  0  0  0  0  0  0  0
   -2.6569    4.4252   -3.4543 C   0  0  0  0  0  0  0  0  0  0  0  0
   -1.3844    4.7484   -3.7566 C   0  0  0  0  0  0  0  0  0  0  0  0
   -0.5253    5.6992   -3.0583 C   0  0  1  0  0  0  0  0  0  0  0  0
    0.4319    5.2791   -1.8986 C   0  0  1  0  0  0  0  0  0  0  0  0
    0.9846    5.5273   -3.3171 C   0  0  2  0  0  0  0  0  0  0  0  0
    0.6091    3.8653   -1.4748 C   0  0  0  0  0  0  0  0  0  0  0  0
   -0.2388    2.9966   -1.7846 O   0  0  0  0  0  0  0  0  0  0  0  0
    1.6913    3.5214   -0.7303 N   0  0  0  0  0  0  0  0  0  0  0  0
    1.9544    1.9473   -0.1066 S   0  0  2  0  0  0  0  0  0  0  0  0
    0.6470    1.5818    1.1245 C   0  0  2  0  0  0  0  0  0  0  0  0
    0.8957    1.9808    2.5841 C   0  0  1  0  0  0  0  0  0  0  0  0
    0.9461    0.5022    2.1727 C   0  0  2  0  0  0  0  0  0  0  0  0
    3.4098    1.8752    0.5618 O   0  0  0  0  0  0  0  0  0  0  0  0
    1.8699    0.8708   -1.2921 O   0  0  0  0  0  0  0  0  0  0  0  0
   -0.8205    6.7515   -3.0951 H   0  0  0  0  0  0  0  0  0  0  0  0
   -1.8252    4.0710    3.4077 H   0  0  0  0  0  0  0  0  0  0  0  0
   -1.7366    8.3147    3.0160 H   0  0  0  0  0  0  0  0  0  0  0  0
   -3.2547    8.0272    2.1513 H   0  0  0  0  0  0  0  0  0  0  0  0
   -1.0394    9.2420   -0.9760 H   0  0  0  0  0  0  0  0  0  0  0  0
   -2.6964    8.6199   -0.7750 H   0  0  0  0  0  0  0  0  0  0  0  0
   -1.1884   15.5174    4.2448 H   0  0  0  0  0  0  0  0  0  0  0  0
    0.2236   13.7500   -0.0450 H   0  0  0  0  0  0  0  0  0  0  0  0
    1.1410   15.8250    0.7939 H   0  0  0  0  0  0  0  0  0  0  0  0
    0.4186   16.6912    2.9407 H   0  0  0  0  0  0  0  0  0  0  0  0
   -4.3843   13.0518    6.3815 H   0  0  0  0  0  0  0  0  0  0  0  0
   -5.1743   10.9953    5.3760 H   0  0  0  0  0  0  0  0  0  0  0  0
   -4.2895   10.2624    3.2647 H   0  0  0  0  0  0  0  0  0  0  0  0
   -2.7261   14.3673    5.3079 H   0  0  0  0  0  0  0  0  0  0  0  0
    1.9341    6.3478   -0.9997 H   0  0  0  0  0  0  0  0  0  0  0  0
   -4.1676    4.2298    3.6134 H   0  0  0  0  0  0  0  0  0  0  0  0
   -4.3011    5.7106    2.6906 H   0  0  0  0  0  0  0  0  0  0  0  0
   -2.8960    6.4321    4.4559 H   0  0  0  0  0  0  0  0  0  0  0  0
   -2.8406    8.0305    5.6952 H   0  0  0  0  0  0  0  0  0  0  0  0
    1.4460    8.5720    7.7923 H   0  0  0  0  0  0  0  0  0  0  0  0
    0.3534   11.1658    8.2000 H   0  0  0  0  0  0  0  0  0  0  0  0
   -1.3141   10.9735    8.7639 H   0  0  0  0  0  0  0  0  0  0  0  0
   -0.0082   10.0820    9.5578 H   0  0  0  0  0  0  0  0  0  0  0  0
   -4.9648    3.3659    1.6288 H   0  0  0  0  0  0  0  0  0  0  0  0
   -3.2506    3.1443    1.3886 H   0  0  0  0  0  0  0  0  0  0  0  0
   -5.2319    4.7506   -0.1401 H   0  0  0  0  0  0  0  0  0  0  0  0
   -3.8545    5.7510    0.2884 H   0  0  0  0  0  0  0  0  0  0  0  0
   -3.7053    3.1073   -1.2460 H   0  0  0  0  0  0  0  0  0  0  0  0
   -2.3211    4.0942   -0.7705 H   0  0  0  0  0  0  0  0  0  0  0  0
   -4.5337    4.9083   -2.7099 H   0  0  0  0  0  0  0  0  0  0  0  0
   -3.2727    6.0064   -2.2169 H   0  0  0  0  0  0  0  0  0  0  0  0
   -3.0823    3.7363   -4.0343 H   0  0  0  0  0  0  0  0  0  0  0  0
   -0.9916    4.2922   -4.5500 H   0  0  0  0  0  0  0  0  0  0  0  0
    1.5452    6.4528   -3.4724 H   0  0  0  0  0  0  0  0  0  0  0  0
    1.3004    4.6452   -3.8803 H   0  0  0  0  0  0  0  0  0  0  0  0
    2.3420    4.2071   -0.5134 H   0  0  0  0  0  0  0  0  0  0  0  0
   -0.3937    1.6384    0.8016 H   0  0  0  0  0  0  0  0  0  0  0  0
    1.8581    2.4382    2.8204 H   0  0  0  0  0  0  0  0  0  0  0  0
    0.0138    2.2737    3.1549 H   0  0  0  0  0  0  0  0  0  0  0  0
    1.9416    0.0536    2.1535 H   0  0  0  0  0  0  0  0  0  0  0  0
    0.0953   -0.1023    2.4944 H   0  0  0  0  0  0  0  0  0  0  0  0
  1  4  1  0  0  0  0 
  2  3  1  0  0  0  0 
  3  4  1  0  0  0  0 
  5  6  1  0  0  0  0 
  6  7  1  0  0  0  0 
  3  5  1  0  0  0  0 
  4  7  1  0  0  0  0 
  6  8  1  0  0  0  0 
  8  9  1  0  0  0  0 
  6 10  1  0  0  0  0 
 11 12  1  0  0  0  0 
 13 14  1  0  0  0  0 
 14 15  1  0  0  0  0 
 11 15  1  0  0  0  0 
 12  9  1  0  0  0  0 
  9 13  2  0  0  0  0 
 17 18  1  0  0  0  0 
 18 19  2  0  0  0  0 
 16 19  1  0  0  0  0 
 14 17  2  0  0  0  0 
 16 15  2  0  0  0  0 
 20 21  2  0  0  0  0 
 21 22  1  0  0  0  0 
 20 23  1  0  0  0  0 
 22 12  2  0  0  0  0 
 11 23  2  0  0  0  0 
  4 24  1  0  0  0  0 
  1 25  2  0  0  0  0 
  1 26  1  0  0  0  0 
  2 27  1  0  0  0  0 
  2 28  2  0  0  0  0 
 27 29  1  0  0  0  0 
 27 30  1  0  0  0  0 
 30 31  1  0  0  0  0 
 31 32  1  0  0  0  0 
 31 33  2  0  0  0  0 
 34 35  1  0  0  0  0 
 35 36  2  0  0  0  0 
 36 37  1  0  0  0  0 
 37 38  2  0  0  0  0 
 32 34  2  0  0  0  0 
 32 38  1  0  0  0  0 
 36 39  1  0  0  0  0 
 29 40  1  0  0  0  0 
 40 41  1  0  0  0  0 
 41 42  1  0  0  0  0 
 42 43  1  0  0  0  0 
 43 44  1  0  0  0  0 
 44 45  2  0  0  0  0 
 46 45  1  0  0  0  0 
 47 26  1  0  0  0  0 
 46 47  1  0  0  0  0 
 46 48  1  0  0  0  0 
 48 47  1  0  0  0  0 
 47 49  1  0  0  0  0 
 49 50  2  0  0  0  0 
 49 51  1  0  0  0  0 
 51 52  1  0  0  0  0 
 52 53  1  0  0  0  0 
 54 55  1  0  0  0  0 
 53 54  1  0  0  0  0 
 55 53  1  0  0  0  0 
 52 56  2  0  0  0  0 
 52 57  2  0  0  0  0 
 46 58  1  0  0  0  0 
 27 59  1  0  0  0  0 
  5 60  1  0  0  0  0 
  5 61  1  0  0  0  0 
  7 62  1  0  0  0  0 
  7 63  1  0  0  0  0 
 16 64  1  0  0  0  0 
 17 65  1  0  0  0  0 
 18 66  1  0  0  0  0 
 19 67  1  0  0  0  0 
 20 68  1  0  0  0  0 
 21 69  1  0  0  0  0 
 22 70  1  0  0  0  0 
 23 71  1  0  0  0  0 
 26 72  1  0  0  0  0 
 29 73  1  0  0  0  0 
 29 74  1  0  0  0  0 
 30 75  1  0  0  0  0 
 34 76  1  0  0  0  0 
 37 77  1  0  0  0  0 
 39 78  1  0  0  0  0 
 39 79  1  0  0  0  0 
 39 80  1  0  0  0  0 
 40 81  1  0  0  0  0 
 40 82  1  0  0  0  0 
 41 83  1  0  0  0  0 
 41 84  1  0  0  0  0 
 42 85  1  0  0  0  0 
 42 86  1  0  0  0  0 
 43 87  1  0  0  0  0 
 43 88  1  0  0  0  0 
 44 89  1  0  0  0  0 
 45 90  1  0  0  0  0 
 48 91  1  0  0  0  0 
 48 92  1  0  0  0  0 
 51 93  1  0  0  0  0 
 53 94  1  0  0  0  0 
 54 95  1  0  0  0  0 
 54 96  1  0  0  0  0 
 55 97  1  0  0  0  0 
 55 98  1  0  0  0  0 
M  END
> <cdk:Title>
paritaprevir

> <Conformer>
1

> <SuperDrugID>
SD003846

$$$$
