dimantine
  CDK     0628171801

 64 63  0  0  0  0  0  0  0  0999 V2000
    3.2258   -5.6869   -4.1512 C   0  0  1  0  0  0  0  0  0  0  0  0
    4.3171   -6.7865   -4.1358 C   0  0  2  0  0  0  0  0  0  0  0  0
    3.2331   -4.8179   -2.8685 C   0  0  1  0  0  0  0  0  0  0  0  0
    4.3139   -7.6199   -5.4426 C   0  0  2  0  0  0  0  0  0  0  0  0
    2.1370   -3.7226   -2.9179 C   0  0  2  0  0  0  0  0  0  0  0  0
    5.4296   -8.6961   -5.4538 C   0  0  2  0  0  0  0  0  0  0  0  0
    2.1093   -2.8462   -1.6390 C   0  0  2  0  0  0  0  0  0  0  0  0
    5.4369   -9.5465   -6.7500 C   0  0  2  0  0  0  0  0  0  0  0  0
    0.9272   -1.8390   -1.6474 C   0  0  1  0  0  0  0  0  0  0  0  0
    6.5451  -10.6761   -6.6596 C   0  0  1  0  0  0  0  0  0  0  0  0
    0.8137   -1.0460   -0.3189 C   0  0  1  0  0  0  0  0  0  0  0  0
    6.5897  -11.5228   -7.9535 C   0  0  2  0  0  0  0  0  0  0  0  0
   -0.2486    0.0149   -0.3216 N   0  0  2  0  0  0  0  0  0  0  0  0
    7.6946  -12.6083   -7.9135 C   0  0  2  0  0  0  0  0  0  0  0  0
   -0.1276    0.9194    0.8600 C   0  0  0  0  0  0  0  0  0  0  0  0
   -1.6372   -0.5120   -0.4899 C   0  0  0  0  0  0  0  0  0  0  0  0
    7.7095  -13.4527   -9.2113 C   0  0  2  0  0  0  0  0  0  0  0  0
    8.8150  -14.5389   -9.1914 C   0  0  1  0  0  0  0  0  0  0  0  0
    8.8219  -15.3828  -10.4915 C   0  0  1  0  0  0  0  0  0  0  0  0
    9.9249  -16.4740  -10.4794 C   0  0  2  0  0  0  0  0  0  0  0  0
    9.9341  -17.3174  -11.7716 C   0  0  0  0  0  0  0  0  0  0  0  0
    3.3854   -5.0384   -5.0169 H   0  0  0  0  0  0  0  0  0  0  0  0
    2.2452   -6.1607   -4.2544 H   0  0  0  0  0  0  0  0  0  0  0  0
    4.1449   -7.4499   -3.2830 H   0  0  0  0  0  0  0  0  0  0  0  0
    5.2961   -6.3157   -4.0095 H   0  0  0  0  0  0  0  0  0  0  0  0
    3.0611   -5.4600   -1.9995 H   0  0  0  0  0  0  0  0  0  0  0  0
    4.2114   -4.3420   -2.7548 H   0  0  0  0  0  0  0  0  0  0  0  0
    4.4549   -6.9495   -6.2958 H   0  0  0  0  0  0  0  0  0  0  0  0
    3.3428   -8.1115   -5.5514 H   0  0  0  0  0  0  0  0  0  0  0  0
    1.1641   -4.2072   -3.0416 H   0  0  0  0  0  0  0  0  0  0  0  0
    2.3060   -3.0775   -3.7854 H   0  0  0  0  0  0  0  0  0  0  0  0
    5.2921   -9.3559   -4.5923 H   0  0  0  0  0  0  0  0  0  0  0  0
    6.3988   -8.2003   -5.3535 H   0  0  0  0  0  0  0  0  0  0  0  0
    3.0538   -2.2991   -1.5572 H   0  0  0  0  0  0  0  0  0  0  0  0
    2.0149   -3.4964   -0.7643 H   0  0  0  0  0  0  0  0  0  0  0  0
    5.5003   -8.8377   -7.6227 H   0  0  0  0  0  0  0  0  0  0  0  0
    4.4683  -10.0480   -6.8330 H   0  0  0  0  0  0  0  0  0  0  0  0
    1.0555   -1.1378   -2.4776 H   0  0  0  0  0  0  0  0  0  0  0  0
    0.0053   -2.4014   -1.8148 H   0  0  0  0  0  0  0  0  0  0  0  0
    7.5214  -10.2080   -6.5042 H   0  0  0  0  0  0  0  0  0  0  0  0
    6.3349  -11.3280   -5.8066 H   0  0  0  0  0  0  0  0  0  0  0  0
    0.6405   -1.7473    0.5044 H   0  0  0  0  0  0  0  0  0  0  0  0
    1.7863   -0.5747   -0.1488 H   0  0  0  0  0  0  0  0  0  0  0  0
    6.7683  -10.8607   -8.8066 H   0  0  0  0  0  0  0  0  0  0  0  0
    5.6193  -12.0078   -8.0940 H   0  0  0  0  0  0  0  0  0  0  0  0
    7.5223  -13.2670   -7.0564 H   0  0  0  0  0  0  0  0  0  0  0  0
    8.6678  -12.1249   -7.7855 H   0  0  0  0  0  0  0  0  0  0  0  0
    0.8637    1.3789    0.8889 H   0  0  0  0  0  0  0  0  0  0  0  0
   -0.8546    1.7328    0.7999 H   0  0  0  0  0  0  0  0  0  0  0  0
   -0.2886    0.3729    1.7940 H   0  0  0  0  0  0  0  0  0  0  0  0
   -1.7797   -0.8529   -1.5150 H   0  0  0  0  0  0  0  0  0  0  0  0
   -2.3874    0.2617   -0.3141 H   0  0  0  0  0  0  0  0  0  0  0  0
   -1.8340   -1.3428    0.1923 H   0  0  0  0  0  0  0  0  0  0  0  0
    7.8753  -12.7926  -10.0677 H   0  0  0  0  0  0  0  0  0  0  0  0
    6.7360  -13.9364   -9.3352 H   0  0  0  0  0  0  0  0  0  0  0  0
    9.7887  -14.0548   -9.0712 H   0  0  0  0  0  0  0  0  0  0  0  0
    8.6522  -15.1987   -8.3338 H   0  0  0  0  0  0  0  0  0  0  0  0
    7.8451  -15.8620  -10.6113 H   0  0  0  0  0  0  0  0  0  0  0  0
    8.9832  -14.7195  -11.3471 H   0  0  0  0  0  0  0  0  0  0  0  0
    9.7653  -17.1389   -9.6259 H   0  0  0  0  0  0  0  0  0  0  0  0
   10.9027  -15.9981  -10.3622 H   0  0  0  0  0  0  0  0  0  0  0  0
   10.7243  -18.0668  -11.7123 H   0  0  0  0  0  0  0  0  0  0  0  0
    8.9774  -17.8266  -11.9000 H   0  0  0  0  0  0  0  0  0  0  0  0
   10.1188  -16.6817  -12.6393 H   0  0  0  0  0  0  0  0  0  0  0  0
  1  2  1  0  0  0  0 
  1  3  1  0  0  0  0 
  2  4  1  0  0  0  0 
  3  5  1  0  0  0  0 
  4  6  1  0  0  0  0 
  5  7  1  0  0  0  0 
  6  8  1  0  0  0  0 
  7  9  1  0  0  0  0 
  8 10  1  0  0  0  0 
  9 11  1  0  0  0  0 
 10 12  1  0  0  0  0 
 11 13  1  0  0  0  0 
 12 14  1  0  0  0  0 
 13 15  1  0  0  0  0 
 13 16  1  0  0  0  0 
 14 17  1  0  0  0  0 
 17 18  1  0  0  0  0 
 18 19  1  0  0  0  0 
 19 20  1  0  0  0  0 
 20 21  1  0  0  0  0 
  1 22  1  0  0  0  0 
  1 23  1  0  0  0  0 
  2 24  1  0  0  0  0 
  2 25  1  0  0  0  0 
  3 26  1  0  0  0  0 
  3 27  1  0  0  0  0 
  4 28  1  0  0  0  0 
  4 29  1  0  0  0  0 
  5 30  1  0  0  0  0 
  5 31  1  0  0  0  0 
  6 32  1  0  0  0  0 
  6 33  1  0  0  0  0 
  7 34  1  0  0  0  0 
  7 35  1  0  0  0  0 
  8 36  1  0  0  0  0 
  8 37  1  0  0  0  0 
  9 38  1  0  0  0  0 
  9 39  1  0  0  0  0 
 10 40  1  0  0  0  0 
 10 41  1  0  0  0  0 
 11 42  1  0  0  0  0 
 11 43  1  0  0  0  0 
 12 44  1  0  0  0  0 
 12 45  1  0  0  0  0 
 14 46  1  0  0  0  0 
 14 47  1  0  0  0  0 
 15 48  1  0  0  0  0 
 15 49  1  0  0  0  0 
 15 50  1  0  0  0  0 
 16 51  1  0  0  0  0 
 16 52  1  0  0  0  0 
 16 53  1  0  0  0  0 
 17 54  1  0  0  0  0 
 17 55  1  0  0  0  0 
 18 56  1  0  0  0  0 
 18 57  1  0  0  0  0 
 19 58  1  0  0  0  0 
 19 59  1  0  0  0  0 
 20 60  1  0  0  0  0 
 20 61  1  0  0  0  0 
 21 62  1  0  0  0  0 
 21 63  1  0  0  0  0 
 21 64  1  0  0  0  0 
M  END
> <cdk:Title>
dimantine

> <Conformer>
1

> <SuperDrugID>
SD002744

$$$$
