ethoxzolamide
  CDK     0628171801

 26 27  0  0  0  0  0  0  0  0999 V2000
    0.9942    4.2373    7.3965 S   0  0  1  0  0  0  0  0  0  0  0  0
    0.0065    5.6878    7.4535 N   0  0  1  0  0  0  0  0  0  0  0  0
    2.4405    4.5949    7.9921 O   0  0  0  0  0  0  0  0  0  0  0  0
    0.3059    3.1062    8.3027 O   0  0  0  0  0  0  0  0  0  0  0  0
    1.1485    3.6836    5.7304 C   0  0  0  0  0  0  0  0  0  0  0  0
    2.5204    2.8063    5.0687 S   0  0  0  0  0  0  0  0  0  0  0  0
    0.2462    3.8499    4.7334 N   0  0  0  0  0  0  0  0  0  0  0  0
    1.8447    2.6929    3.4570 C   0  0  0  0  0  0  0  0  0  0  0  0
    0.5942    3.3298    3.5222 C   0  0  0  0  0  0  0  0  0  0  0  0
    2.3432    2.1099    2.2849 C   0  0  0  0  0  0  0  0  0  0  0  0
   -0.1947    3.3862    2.3579 C   0  0  0  0  0  0  0  0  0  0  0  0
    1.5315    2.1429    1.1300 C   0  0  0  0  0  0  0  0  0  0  0  0
    0.2794    2.8026    1.1626 C   0  0  0  0  0  0  0  0  0  0  0  0
    1.9637    1.5385   -0.0184 O   0  0  0  0  0  0  0  0  0  0  0  0
    1.5745    0.1510   -0.0878 C   0  0  1  0  0  0  0  0  0  0  0  0
    2.1222   -0.4688   -1.3862 C   0  0  0  0  0  0  0  0  0  0  0  0
    0.0141    6.0032    8.4262 H   0  0  0  0  0  0  0  0  0  0  0  0
    0.5033    6.3984    6.9110 H   0  0  0  0  0  0  0  0  0  0  0  0
    3.2639    1.6667    2.2748 H   0  0  0  0  0  0  0  0  0  0  0  0
   -1.1075    3.8449    2.3771 H   0  0  0  0  0  0  0  0  0  0  0  0
   -0.2897    2.8542    0.3141 H   0  0  0  0  0  0  0  0  0  0  0  0
    1.9784   -0.4113    0.7612 H   0  0  0  0  0  0  0  0  0  0  0  0
    0.4833    0.0571   -0.0892 H   0  0  0  0  0  0  0  0  0  0  0  0
    1.7323    0.0689   -2.2520 H   0  0  0  0  0  0  0  0  0  0  0  0
    1.8208   -1.5161   -1.4569 H   0  0  0  0  0  0  0  0  0  0  0  0
    3.2123   -0.4153   -1.3960 H   0  0  0  0  0  0  0  0  0  0  0  0
  1  2  1  0  0  0  0 
  1  3  2  0  0  0  0 
  1  4  2  0  0  0  0 
  1  5  1  0  0  0  0 
  5  6  1  0  0  0  0 
  5  7  2  0  0  0  0 
  6  8  1  0  0  0  0 
  7  9  1  0  0  0  0 
  8  9  1  0  0  0  0 
  8 10  2  0  0  0  0 
  9 11  2  0  0  0  0 
 10 12  1  0  0  0  0 
 11 13  1  0  0  0  0 
 12 13  2  0  0  0  0 
 12 14  1  0  0  0  0 
 14 15  1  0  0  0  0 
 15 16  1  0  0  0  0 
  2 17  1  0  0  0  0 
  2 18  1  0  0  0  0 
 10 19  1  0  0  0  0 
 11 20  1  0  0  0  0 
 13 21  1  0  0  0  0 
 15 22  1  0  0  0  0 
 15 23  1  0  0  0  0 
 16 24  1  0  0  0  0 
 16 25  1  0  0  0  0 
 16 26  1  0  0  0  0 
M  END
> <cdk:Title>
ethoxzolamide

> <Conformer>
1

> <SuperDrugID>
SD000973

$$$$
