nalidixic acid
  CDK     0628171801

 29 30  0  0  0  0  0  0  0  0999 V2000
    0.0690   -0.0635   -0.5611 C   0  0  2  0  0  0  0  0  0  0  0  0
   -0.8545   -0.7910    0.4402 C   0  0  0  0  0  0  0  0  0  0  0  0
    1.4118    0.0744   -0.0165 N   0  0  0  0  0  0  0  0  0  0  0  0
    1.7697    1.1546    0.7558 C   0  0  0  0  0  0  0  0  0  0  0  0
    2.3242   -0.9227   -0.2543 C   0  0  0  0  0  0  0  0  0  0  0  0
    3.0786    1.2546    1.3051 C   0  0  0  0  0  0  0  0  0  0  0  0
    0.8796    2.1535    1.0280 N   0  0  0  0  0  0  0  0  0  0  0  0
    3.6447   -0.8998    0.2544 C   0  0  0  0  0  0  0  0  0  0  0  0
    4.0082    0.2187    1.0459 C   0  0  0  0  0  0  0  0  0  0  0  0
    3.3933    2.3888    2.0939 C   0  0  0  0  0  0  0  0  0  0  0  0
    1.1462    3.2510    1.7839 C   0  0  0  0  0  0  0  0  0  0  0  0
    4.5429   -1.9741   -0.0335 C   0  0  0  0  0  0  0  0  0  0  0  0
    5.1622    0.3049    1.5331 O   0  0  0  0  0  0  0  0  0  0  0  0
    2.4363    3.3888    2.3305 C   0  0  0  0  0  0  0  0  0  0  0  0
    0.0987    4.2702    1.9940 C   0  0  0  0  0  0  0  0  0  0  0  0
    4.1788   -3.0387   -0.7884 O   0  0  0  0  0  0  0  0  0  0  0  0
    5.7220   -2.0055    0.3875 O   0  0  0  0  0  0  0  0  0  0  0  0
   -0.3701    0.9069   -0.8080 H   0  0  0  0  0  0  0  0  0  0  0  0
    0.0750   -0.6253   -1.5004 H   0  0  0  0  0  0  0  0  0  0  0  0
   -1.8673   -0.8650    0.0400 H   0  0  0  0  0  0  0  0  0  0  0  0
   -0.4800   -1.7991    0.6289 H   0  0  0  0  0  0  0  0  0  0  0  0
   -0.8911   -0.2459    1.3843 H   0  0  0  0  0  0  0  0  0  0  0  0
    2.0354   -1.7279   -0.8181 H   0  0  0  0  0  0  0  0  0  0  0  0
    4.3231    2.4993    2.5047 H   0  0  0  0  0  0  0  0  0  0  0  0
    2.6824    4.2068    2.8955 H   0  0  0  0  0  0  0  0  0  0  0  0
   -0.8918    3.8147    1.9727 H   0  0  0  0  0  0  0  0  0  0  0  0
    0.2239    4.7674    2.9565 H   0  0  0  0  0  0  0  0  0  0  0  0
    0.1616    5.0145    1.2012 H   0  0  0  0  0  0  0  0  0  0  0  0
    4.8240   -3.7566   -0.9707 H   0  0  0  0  0  0  0  0  0  0  0  0
  1  2  1  0  0  0  0 
  1  3  1  0  0  0  0 
  3  4  1  0  0  0  0 
  3  5  1  0  0  0  0 
  4  6  1  0  0  0  0 
  4  7  2  0  0  0  0 
  5  8  2  0  0  0  0 
  6  9  1  0  0  0  0 
  6 10  2  0  0  0  0 
  7 11  1  0  0  0  0 
  8  9  1  0  0  0  0 
  8 12  1  0  0  0  0 
  9 13  2  0  0  0  0 
 10 14  1  0  0  0  0 
 11 14  2  0  0  0  0 
 11 15  1  0  0  0  0 
 12 16  1  0  0  0  0 
 12 17  2  0  0  0  0 
  1 18  1  0  0  0  0 
  1 19  1  0  0  0  0 
  2 20  1  0  0  0  0 
  2 21  1  0  0  0  0 
  2 22  1  0  0  0  0 
  5 23  1  0  0  0  0 
 10 24  1  0  0  0  0 
 14 25  1  0  0  0  0 
 15 26  1  0  0  0  0 
 15 27  1  0  0  0  0 
 15 28  1  0  0  0  0 
 16 29  1  0  0  0  0 
M  END
> <cdk:Title>
nalidixic acid

> <Conformer>
1

> <SuperDrugID>
SD001671

$$$$
