mizoribine
  CDK     0628171801

 31 32  0  0  0  0  0  0  0  0999 V2000
    5.1307   -1.5192   -2.8266 O   0  0  0  0  0  0  0  0  0  0  0  0
    4.8934   -2.5700   -1.8867 C   0  0  1  0  0  0  0  0  0  0  0  0
    4.6431   -1.9906   -0.4694 C   0  0  1  0  0  0  0  0  0  0  0  0
    3.5688   -3.2874   -2.1764 C   0  0  2  0  0  0  0  0  0  0  0  0
    3.2150   -1.8599   -0.3126 O   0  0  0  0  0  0  0  0  0  0  0  0
    5.2267   -2.8050    0.5690 N   0  0  0  0  0  0  0  0  0  0  0  0
    3.3077   -3.4569   -3.5678 O   0  0  0  0  0  0  0  0  0  0  0  0
    2.5561   -2.3529   -1.4889 C   0  0  2  0  0  0  0  0  0  0  0  0
    6.5446   -2.9615    0.8073 C   0  0  0  0  0  0  0  0  0  0  0  0
    4.5822   -3.5512    1.4876 C   0  0  0  0  0  0  0  0  0  0  0  0
    1.2157   -3.0325   -1.1268 C   0  0  2  0  0  0  0  0  0  0  0  0
    7.5452   -2.3816    0.0955 O   0  0  0  0  0  0  0  0  0  0  0  0
    6.6903   -3.8161    1.9032 C   0  0  0  0  0  0  0  0  0  0  0  0
    5.4561   -4.1677    2.2999 N   0  0  0  0  0  0  0  0  0  0  0  0
    0.3163   -2.0725   -0.5843 O   0  0  0  0  0  0  0  0  0  0  0  0
    7.8835   -4.2475    2.5198 C   0  0  0  0  0  0  0  0  0  0  0  0
    7.8672   -5.0343    3.6135 N   0  0  0  0  0  0  0  0  0  0  0  0
    9.0040   -3.9098    2.0756 O   0  0  0  0  0  0  0  0  0  0  0  0
    5.9632   -1.0938   -2.5280 H   0  0  0  0  0  0  0  0  0  0  0  0
    5.7352   -3.2689   -1.9223 H   0  0  0  0  0  0  0  0  0  0  0  0
    5.0625   -0.9822   -0.3848 H   0  0  0  0  0  0  0  0  0  0  0  0
    3.5777   -4.2706   -1.6958 H   0  0  0  0  0  0  0  0  0  0  0  0
    2.4375   -3.9085   -3.6053 H   0  0  0  0  0  0  0  0  0  0  0  0
    2.3464   -1.5027   -2.1460 H   0  0  0  0  0  0  0  0  0  0  0  0
    3.5690   -3.6486    1.5696 H   0  0  0  0  0  0  0  0  0  0  0  0
    1.3760   -3.8222   -0.3888 H   0  0  0  0  0  0  0  0  0  0  0  0
    0.7602   -3.4692   -2.0184 H   0  0  0  0  0  0  0  0  0  0  0  0
    8.2827   -3.0293    0.0995 H   0  0  0  0  0  0  0  0  0  0  0  0
   -0.5185   -2.5650   -0.4471 H   0  0  0  0  0  0  0  0  0  0  0  0
    8.7020   -5.3164    4.0214 H   0  0  0  0  0  0  0  0  0  0  0  0
    7.0235   -5.3164    3.9994 H   0  0  0  0  0  0  0  0  0  0  0  0
  2  1  1  0  0  0  0 
  2  3  1  0  0  0  0 
  4  2  1  0  0  0  0 
  3  5  1  0  0  0  0 
  3  6  1  0  0  0  0 
  4  7  1  0  0  0  0 
  8  4  1  0  0  0  0 
  8  5  1  0  0  0  0 
  6  9  1  0  0  0  0 
  6 10  1  0  0  0  0 
  8 11  1  0  0  0  0 
  9 12  1  0  0  0  0 
  9 13  2  0  0  0  0 
 10 14  2  0  0  0  0 
 11 15  1  0  0  0  0 
 13 14  1  0  0  0  0 
 13 16  1  0  0  0  0 
 16 17  1  0  0  0  0 
 16 18  2  0  0  0  0 
  1 19  1  0  0  0  0 
  2 20  1  0  0  0  0 
  3 21  1  0  0  0  0 
  4 22  1  0  0  0  0 
  7 23  1  0  0  0  0 
  8 24  1  0  0  0  0 
 10 25  1  0  0  0  0 
 11 26  1  0  0  0  0 
 11 27  1  0  0  0  0 
 12 28  1  0  0  0  0 
 15 29  1  0  0  0  0 
 17 30  1  0  0  0  0 
 17 31  1  0  0  0  0 
M  END
> <cdk:Title>
mizoribine

> <Conformer>
1

> <SuperDrugID>
SD002901

$$$$
