ethylnorepinephrine
  CDK     0628171801

 29 29  0  0  0  0  0  0  0  0999 V2000
    1.9339   -1.5531   -1.4744 C   0  0  1  0  0  0  0  0  0  0  0  0
    0.7487   -2.2270   -0.7101 C   0  0  1  0  0  0  0  0  0  0  0  0
    2.9466   -2.5197   -1.7616 O   0  0  0  0  0  0  0  0  0  0  0  0
    1.5554   -0.8606   -2.7441 C   0  0  0  0  0  0  0  0  0  0  0  0
   -0.3429   -1.2491   -0.1791 C   0  0  1  0  0  0  0  0  0  0  0  0
    0.1007   -3.2514   -1.5452 N   0  0  2  0  0  0  0  0  0  0  0  0
    1.2718   -1.5963   -3.9221 C   0  0  0  0  0  0  0  0  0  0  0  0
    1.4949    0.5515   -2.8086 C   0  0  0  0  0  0  0  0  0  0  0  0
    0.1241   -0.2869    0.9395 C   0  0  0  0  0  0  0  0  0  0  0  0
    0.9387   -0.9461   -5.1258 C   0  0  0  0  0  0  0  0  0  0  0  0
    1.1486    1.2058   -4.0059 C   0  0  0  0  0  0  0  0  0  0  0  0
    0.6807   -1.6654   -6.2492 O   0  0  0  0  0  0  0  0  0  0  0  0
    0.8739    0.4598   -5.1676 C   0  0  0  0  0  0  0  0  0  0  0  0
    0.5520    1.0883   -6.3278 O   0  0  0  0  0  0  0  0  0  0  0  0
    2.4070   -0.8435   -0.7918 H   0  0  0  0  0  0  0  0  0  0  0  0
    1.1647   -2.7566    0.1515 H   0  0  0  0  0  0  0  0  0  0  0  0
    3.2019   -2.8949   -0.8932 H   0  0  0  0  0  0  0  0  0  0  0  0
   -0.7490   -0.6618   -1.0068 H   0  0  0  0  0  0  0  0  0  0  0  0
   -1.1640   -1.8410    0.2353 H   0  0  0  0  0  0  0  0  0  0  0  0
   -0.5705   -3.7434   -0.9525 H   0  0  0  0  0  0  0  0  0  0  0  0
    0.8228   -3.9285   -1.8004 H   0  0  0  0  0  0  0  0  0  0  0  0
    1.3214   -2.6177   -3.9150 H   0  0  0  0  0  0  0  0  0  0  0  0
    1.7083    1.1201   -1.9854 H   0  0  0  0  0  0  0  0  0  0  0  0
   -0.7390    0.2368    1.3554 H   0  0  0  0  0  0  0  0  0  0  0  0
    0.8148    0.4589    0.5476 H   0  0  0  0  0  0  0  0  0  0  0  0
    0.6150   -0.8373    1.7462 H   0  0  0  0  0  0  0  0  0  0  0  0
    1.1071    2.2276   -4.0293 H   0  0  0  0  0  0  0  0  0  0  0  0
    0.8678   -2.6000   -6.0181 H   0  0  0  0  0  0  0  0  0  0  0  0
    0.4093    2.0267   -6.0891 H   0  0  0  0  0  0  0  0  0  0  0  0
  1  2  1  0  0  0  0 
  1  3  1  0  0  0  0 
  1  4  1  0  0  0  0 
  2  5  1  0  0  0  0 
  2  6  1  0  0  0  0 
  4  7  2  0  0  0  0 
  4  8  1  0  0  0  0 
  5  9  1  0  0  0  0 
  7 10  1  0  0  0  0 
  8 11  2  0  0  0  0 
 10 12  1  0  0  0  0 
 10 13  2  0  0  0  0 
 11 13  1  0  0  0  0 
 13 14  1  0  0  0  0 
  1 15  1  0  0  0  0 
  2 16  1  0  0  0  0 
  3 17  1  0  0  0  0 
  5 18  1  0  0  0  0 
  5 19  1  0  0  0  0 
  6 20  1  0  0  0  0 
  6 21  1  0  0  0  0 
  7 22  1  0  0  0  0 
  8 23  1  0  0  0  0 
  9 24  1  0  0  0  0 
  9 25  1  0  0  0  0 
  9 26  1  0  0  0  0 
 11 27  1  0  0  0  0 
 12 28  1  0  0  0  0 
 14 29  1  0  0  0  0 
M  END
> <cdk:Title>
ethylnorepinephrine

> <Conformer>
1

> <SuperDrugID>
SD002776

$$$$
