metacycline
  CDK     0628171801

 54 57  0  0  0  0  0  0  0  0999 V2000
   -4.0505   -4.4768    3.7619 C   0  0  0  0  0  0  0  0  0  0  0  0
   -5.0098   -3.7038    4.4422 C   0  0  0  0  0  0  0  0  0  0  0  0
   -5.9526   -2.9545    3.7255 C   0  0  0  0  0  0  0  0  0  0  0  0
   -5.9744   -3.0086    2.3237 C   0  0  0  0  0  0  0  0  0  0  0  0
   -5.0543   -3.8161    1.6041 C   0  0  0  0  0  0  0  0  0  0  0  0
   -4.0470   -4.5138    2.3414 C   0  0  0  0  0  0  0  0  0  0  0  0
   -3.0232   -5.1782    1.6072 C   0  0  0  0  0  0  0  0  0  0  0  0
   -5.0931   -3.9892    0.1931 C   0  0  0  0  0  0  0  0  0  0  0  0
   -3.8549   -4.4099   -0.5326 C   0  0  2  0  0  0  0  0  0  0  0  0
   -2.6986   -4.6110    0.3766 C   0  0  0  0  0  0  0  0  0  0  0  0
   -1.4333   -4.1919    0.1270 C   0  0  0  0  0  0  0  0  0  0  0  0
   -3.5231   -3.5553   -1.8183 C   0  0  1  0  0  0  0  0  0  0  0  0
   -2.2792   -2.6248   -1.6556 C   0  0  2  0  0  0  0  0  0  0  0  0
   -1.0639   -3.4224   -1.0710 C   0  0  1  0  0  0  0  0  0  0  0  0
    0.0669   -2.5065   -0.8129 C   0  0  0  0  0  0  0  0  0  0  0  0
   -2.5947   -1.3519   -0.7913 C   0  0  1  0  0  0  0  0  0  0  0  0
   -1.3452   -0.5970   -0.4724 C   0  0  0  0  0  0  0  0  0  0  0  0
   -0.0687   -1.1935   -0.4962 C   0  0  0  0  0  0  0  0  0  0  0  0
   -3.1391   -5.1336    4.5288 O   0  0  0  0  0  0  0  0  0  0  0  0
   -2.4121   -6.1862    2.0354 O   0  0  0  0  0  0  0  0  0  0  0  0
   -6.2623   -3.9212   -0.4794 C   0  0  0  0  0  0  0  0  0  0  0  0
   -0.4718   -4.4578    1.0189 O   0  0  0  0  0  0  0  0  0  0  0  0
   -0.6296   -4.3801   -2.0455 O   0  0  0  0  0  0  0  0  0  0  0  0
    1.2893   -3.0448   -0.8767 O   0  0  0  0  0  0  0  0  0  0  0  0
    1.0608   -0.4307   -0.1686 C   0  0  0  0  0  0  0  0  0  0  0  0
    1.9229   -0.8627    0.6330 O   0  0  0  0  0  0  0  0  0  0  0  0
    1.2797    0.7932   -0.6851 N   0  0  0  0  0  0  0  0  0  0  0  0
   -1.4795    0.5865   -0.0773 O   0  0  0  0  0  0  0  0  0  0  0  0
   -3.7309   -0.5363   -1.3684 N   0  0  2  0  0  0  0  0  0  0  0  0
   -3.4983    0.1384   -2.6796 C   0  0  0  0  0  0  0  0  0  0  0  0
   -4.5016    0.3078   -0.4056 C   0  0  0  0  0  0  0  0  0  0  0  0
   -3.3262   -4.4237   -2.9387 O   0  0  0  0  0  0  0  0  0  0  0  0
   -5.0135   -3.6701    5.4640 H   0  0  0  0  0  0  0  0  0  0  0  0
   -6.6234   -2.3672    4.2264 H   0  0  0  0  0  0  0  0  0  0  0  0
   -6.6762   -2.4421    1.8405 H   0  0  0  0  0  0  0  0  0  0  0  0
   -4.0831   -5.4226   -0.8886 H   0  0  0  0  0  0  0  0  0  0  0  0
   -4.3757   -2.9419   -2.1150 H   0  0  0  0  0  0  0  0  0  0  0  0
   -1.9787   -2.2869   -2.6516 H   0  0  0  0  0  0  0  0  0  0  0  0
   -2.9351   -1.7244    0.1790 H   0  0  0  0  0  0  0  0  0  0  0  0
   -2.3335   -5.2242    3.9801 H   0  0  0  0  0  0  0  0  0  0  0  0
   -6.3111   -4.1200   -1.4490 H   0  0  0  0  0  0  0  0  0  0  0  0
   -7.1191   -3.6937   -0.0368 H   0  0  0  0  0  0  0  0  0  0  0  0
    0.2774   -4.8029    0.4893 H   0  0  0  0  0  0  0  0  0  0  0  0
   -1.3496   -5.0406   -2.1112 H   0  0  0  0  0  0  0  0  0  0  0  0
    1.4034   -3.3164   -1.8111 H   0  0  0  0  0  0  0  0  0  0  0  0
    2.0698    1.2929   -0.4272 H   0  0  0  0  0  0  0  0  0  0  0  0
    0.6526    1.1766   -1.3157 H   0  0  0  0  0  0  0  0  0  0  0  0
   -3.2342   -0.5822   -3.4526 H   0  0  0  0  0  0  0  0  0  0  0  0
   -4.4025    0.6448   -3.0249 H   0  0  0  0  0  0  0  0  0  0  0  0
   -2.6989    0.8748   -2.5944 H   0  0  0  0  0  0  0  0  0  0  0  0
   -4.6876   -0.2233    0.5295 H   0  0  0  0  0  0  0  0  0  0  0  0
   -5.4741    0.5655   -0.8302 H   0  0  0  0  0  0  0  0  0  0  0  0
   -3.9672    1.2318   -0.1841 H   0  0  0  0  0  0  0  0  0  0  0  0
   -3.2747   -3.8319   -3.7211 H   0  0  0  0  0  0  0  0  0  0  0  0
  1  2  2  0  0  0  0 
  1  6  1  0  0  0  0 
  2  3  1  0  0  0  0 
  3  4  2  0  0  0  0 
  4  5  1  0  0  0  0 
  5  6  2  0  0  0  0 
  9  8  1  0  0  0  0 
  9 10  1  0  0  0  0 
  7 10  1  0  0  0  0 
  5  8  1  0  0  0  0 
  7  6  1  0  0  0  0 
 13 12  1  0  0  0  0 
 13 14  1  0  0  0  0 
 14 11  1  0  0  0  0 
 12  9  1  0  0  0  0 
 11 10  2  0  0  0  0 
 16 17  1  0  0  0  0 
 17 18  1  0  0  0  0 
 15 18  2  0  0  0  0 
 13 16  1  0  0  0  0 
 14 15  1  0  0  0  0 
  1 19  1  0  0  0  0 
  7 20  2  0  0  0  0 
  8 21  2  0  0  0  0 
 11 22  1  0  0  0  0 
 14 23  1  0  0  0  0 
 15 24  1  0  0  0  0 
 18 25  1  0  0  0  0 
 25 26  2  0  0  0  0 
 25 27  1  0  0  0  0 
 17 28  2  0  0  0  0 
 16 29  1  0  0  0  0 
 29 30  1  0  0  0  0 
 29 31  1  0  0  0  0 
 12 32  1  0  0  0  0 
 33  2  1  0  0  0  0 
 34  3  1  0  0  0  0 
 35  4  1  0  0  0  0 
  9 36  1  0  0  0  0 
 12 37  1  0  0  0  0 
 13 38  1  0  0  0  0 
 16 39  1  0  0  0  0 
 40 19  1  0  0  0  0 
 41 21  1  0  0  0  0 
 42 21  1  0  0  0  0 
 43 22  1  0  0  0  0 
 44 23  1  0  0  0  0 
 45 24  1  0  0  0  0 
 46 27  1  0  0  0  0 
 47 27  1  0  0  0  0 
 48 30  1  0  0  0  0 
 49 30  1  0  0  0  0 
 50 30  1  0  0  0  0 
 51 31  1  0  0  0  0 
 52 31  1  0  0  0  0 
 53 31  1  0  0  0  0 
 54 32  1  0  0  0  0 
M  END
> <cdk:Title>
metacycline

> <Conformer>
1

> <SuperDrugID>
SD001528

$$$$
