thiamine
  CDK     0628171801

 35 36  0  0  0  0  0  0  0  0999 V2000
   -3.1573    1.6912    0.8464 C   0  0  0  0  0  0  0  0  0  0  0  0
   -3.0995    1.7337   -0.6394 C   0  0  0  0  0  0  0  0  0  0  0  0
   -2.0686    1.0778   -1.3554 C   0  0  0  0  0  0  0  0  0  0  0  0
   -0.9330    0.2587   -0.8765 C   0  0  1  0  0  0  0  0  0  0  0  0
    0.2621    1.1340   -0.4330 C   0  0  2  0  0  0  0  0  0  0  0  0
    1.3004    0.3111    0.0873 O   0  0  0  0  0  0  0  0  0  0  0  0
   -2.3478    1.4526   -3.0429 S   0  0  0  0  0  0  0  0  0  0  0  0
   -3.7849    2.4049   -2.7500 C   0  0  0  0  0  0  0  0  0  0  0  0
   -4.0346    2.4082   -1.4118 N   0  0  0  0  0  0  0  0  0  0  0  0
   -5.2099    3.0946   -0.9045 C   0  0  1  0  0  0  0  0  0  0  0  0
   -6.2247    2.1532   -0.3471 C   0  0  0  0  0  0  0  0  0  0  0  0
   -6.5439    2.1598    1.0296 C   0  0  0  0  0  0  0  0  0  0  0  0
   -7.4114    1.2540    1.5440 N   0  0  0  0  0  0  0  0  0  0  0  0
   -8.0238    0.3255    0.7655 C   0  0  0  0  0  0  0  0  0  0  0  0
   -8.9517   -0.6583    1.3471 C   0  0  0  0  0  0  0  0  0  0  0  0
   -7.7747    0.3252   -0.5686 N   0  0  0  0  0  0  0  0  0  0  0  0
   -6.9126    1.2023   -1.1436 C   0  0  0  0  0  0  0  0  0  0  0  0
   -6.7644    1.1181   -2.4786 N   0  0  0  0  0  0  0  0  0  0  0  0
   -2.2750    1.2406    1.2980 H   0  0  0  0  0  0  0  0  0  0  0  0
   -3.2448    2.7016    1.2493 H   0  0  0  0  0  0  0  0  0  0  0  0
   -4.0163    1.1020    1.1599 H   0  0  0  0  0  0  0  0  0  0  0  0
   -1.2594   -0.3889   -0.0583 H   0  0  0  0  0  0  0  0  0  0  0  0
   -0.5999   -0.3985   -1.6838 H   0  0  0  0  0  0  0  0  0  0  0  0
   -0.0423    1.8467    0.3366 H   0  0  0  0  0  0  0  0  0  0  0  0
    0.6579    1.6893   -1.2861 H   0  0  0  0  0  0  0  0  0  0  0  0
    2.0148    0.9353    0.3366 H   0  0  0  0  0  0  0  0  0  0  0  0
   -4.3341    2.8630   -3.4804 H   0  0  0  0  0  0  0  0  0  0  0  0
   -4.8909    3.8262   -0.1574 H   0  0  0  0  0  0  0  0  0  0  0  0
   -5.7118    3.6809   -1.6822 H   0  0  0  0  0  0  0  0  0  0  0  0
   -6.1116    2.8355    1.6625 H   0  0  0  0  0  0  0  0  0  0  0  0
   -8.9653   -0.5857    2.4360 H   0  0  0  0  0  0  0  0  0  0  0  0
   -9.9592   -0.4738    0.9706 H   0  0  0  0  0  0  0  0  0  0  0  0
   -8.6501   -1.6717    1.0737 H   0  0  0  0  0  0  0  0  0  0  0  0
   -6.1940    1.7436   -2.9503 H   0  0  0  0  0  0  0  0  0  0  0  0
   -7.2391    0.4328   -2.9747 H   0  0  0  0  0  0  0  0  0  0  0  0
  1  2  1  0  0  0  0 
  2  3  2  0  0  0  0 
  3  4  1  0  0  0  0 
  4  5  1  0  0  0  0 
  5  6  1  0  0  0  0 
  3  7  1  0  0  0  0 
  7  8  1  0  0  0  0 
  8  9  2  0  0  0  0 
  2  9  1  0  0  0  0 
  9 10  1  0  0  0  0 
 10 11  1  0  0  0  0 
 11 12  2  0  0  0  0 
 12 13  1  0  0  0  0 
 13 14  2  0  0  0  0 
 14 15  1  0  0  0  0 
 14 16  1  0  0  0  0 
 16 17  2  0  0  0  0 
 11 17  1  0  0  0  0 
 17 18  1  0  0  0  0 
  1 19  1  0  0  0  0 
  1 20  1  0  0  0  0 
  1 21  1  0  0  0  0 
  4 22  1  0  0  0  0 
  4 23  1  0  0  0  0 
  5 24  1  0  0  0  0 
  5 25  1  0  0  0  0 
  6 26  1  0  0  0  0 
  8 27  1  0  0  0  0 
 10 28  1  0  0  0  0 
 10 29  1  0  0  0  0 
 12 30  1  0  0  0  0 
 15 31  1  0  0  0  0 
 15 32  1  0  0  0  0 
 15 33  1  0  0  0  0 
 18 34  1  0  0  0  0 
 18 35  1  0  0  0  0 
M  CHG  1   9   1
M  END
> <cdk:Title>
thiamine

> <Conformer>
1

> <SuperDrugID>
SD002555

$$$$
