chlorproguanil
  CDK     0628171802

 33 33  0  0  0  0  0  0  0  0999 V2000
    0.3559    2.2082    0.5645 N   0  0  0  0  0  0  0  0  0  0  0  0
    0.8842    3.3830    0.5058 C   0  0  0  0  0  0  0  0  0  0  0  0
   -0.7701    1.6288    0.1486 C   0  0  0  0  0  0  0  0  0  0  0  0
    2.0863    3.6225    1.0404 N   0  0  0  0  0  0  0  0  0  0  0  0
    0.3472    4.4038   -0.1279 N   0  0  0  0  0  0  0  0  0  0  0  0
   -1.9672    2.2882   -0.2222 C   0  0  0  0  0  0  0  0  0  0  0  0
   -0.7382    0.2189    0.1041 C   0  0  0  0  0  0  0  0  0  0  0  0
    2.7399    2.9084    1.9556 C   0  0  0  0  0  0  0  0  0  0  0  0
   -3.0983    1.5586   -0.6484 C   0  0  0  0  0  0  0  0  0  0  0  0
   -1.8611   -0.5156   -0.3150 C   0  0  0  0  0  0  0  0  0  0  0  0
    2.0993    2.2189    2.8346 N   0  0  0  0  0  0  0  0  0  0  0  0
    4.0564    2.9662    1.9155 N   0  0  0  0  0  0  0  0  0  0  0  0
   -4.5019    2.4148   -1.0724 Cl  0  0  0  0  0  0  0  0  0  0  0  0
   -3.0400    0.1463   -0.7055 C   0  0  0  0  0  0  0  0  0  0  0  0
    2.5310    1.4030    3.8829 C   0  0  2  0  0  0  0  0  0  0  0  0
   -4.3471   -0.7962   -1.2375 Cl  0  0  0  0  0  0  0  0  0  0  0  0
    1.2673    0.7496    4.4992 C   0  0  0  0  0  0  0  0  0  0  0  0
    3.3496    2.1638    4.9638 C   0  0  0  0  0  0  0  0  0  0  0  0
    2.5523    4.4044    0.7055 H   0  0  0  0  0  0  0  0  0  0  0  0
   -0.4649    4.3002   -0.6417 H   0  0  0  0  0  0  0  0  0  0  0  0
    0.7796    5.2707   -0.0927 H   0  0  0  0  0  0  0  0  0  0  0  0
   -2.0344    3.3036   -0.1707 H   0  0  0  0  0  0  0  0  0  0  0  0
    0.1107   -0.2913    0.3700 H   0  0  0  0  0  0  0  0  0  0  0  0
   -1.8078   -1.5368   -0.3357 H   0  0  0  0  0  0  0  0  0  0  0  0
    4.5914    2.4242    2.5155 H   0  0  0  0  0  0  0  0  0  0  0  0
    4.4985    3.5423    1.2737 H   0  0  0  0  0  0  0  0  0  0  0  0
    3.1520    0.6047    3.4705 H   0  0  0  0  0  0  0  0  0  0  0  0
    1.5500    0.0327    5.2723 H   0  0  0  0  0  0  0  0  0  0  0  0
    0.6190    1.5088    4.9441 H   0  0  0  0  0  0  0  0  0  0  0  0
    0.6993    0.2170    3.7314 H   0  0  0  0  0  0  0  0  0  0  0  0
    3.5656    1.5075    5.8089 H   0  0  0  0  0  0  0  0  0  0  0  0
    2.8001    3.0357    5.3254 H   0  0  0  0  0  0  0  0  0  0  0  0
    4.3044    2.5025    4.5596 H   0  0  0  0  0  0  0  0  0  0  0  0
  1  2  2  0  0  0  0 
  1  3  1  0  0  0  0 
  2  4  1  0  0  0  0 
  2  5  1  0  0  0  0 
  3  6  2  0  0  0  0 
  3  7  1  0  0  0  0 
  4  8  1  0  0  0  0 
  6  9  1  0  0  0  0 
  7 10  2  0  0  0  0 
  8 11  2  0  0  0  0 
  8 12  1  0  0  0  0 
  9 13  1  0  0  0  0 
  9 14  2  0  0  0  0 
 10 14  1  0  0  0  0 
 11 15  1  0  0  0  0 
 14 16  1  0  0  0  0 
 15 17  1  0  0  0  0 
 15 18  1  0  0  0  0 
 19  4  1  0  0  0  0 
 20  5  1  0  0  0  0 
 21  5  1  0  0  0  0 
 22  6  1  0  0  0  0 
 23  7  1  0  0  0  0 
 24 10  1  0  0  0  0 
 25 12  1  0  0  0  0 
 26 12  1  0  0  0  0 
 27 15  1  0  0  0  0 
 28 17  1  0  0  0  0 
 29 17  1  0  0  0  0 
 30 17  1  0  0  0  0 
 31 18  1  0  0  0  0 
 32 18  1  0  0  0  0 
 33 18  1  0  0  0  0 
M  END
> <cdk:Title>
chlorproguanil

> <Conformer>
1

> <SuperDrugID>
SD000541

$$$$
