deferasirox
  CDK     0628171801

 43 46  0  0  0  0  0  0  0  0999 V2000
    3.4365   10.9155   -3.9785 O   0  0  0  0  0  0  0  0  0  0  0  0
    3.1047   10.7881   -2.6713 C   0  0  0  0  0  0  0  0  0  0  0  0
    2.9681   11.8560   -2.0302 O   0  0  0  0  0  0  0  0  0  0  0  0
    2.9348    9.5106   -2.0685 C   0  0  0  0  0  0  0  0  0  0  0  0
    2.7403    9.3741   -0.6724 C   0  0  0  0  0  0  0  0  0  0  0  0
    2.6047    8.1049   -0.0805 C   0  0  0  0  0  0  0  0  0  0  0  0
    2.6608    6.9318   -0.8631 C   0  0  0  0  0  0  0  0  0  0  0  0
    2.8171    7.0616   -2.2593 C   0  0  0  0  0  0  0  0  0  0  0  0
    2.9609    8.3302   -2.8507 C   0  0  0  0  0  0  0  0  0  0  0  0
    2.5785    5.6902   -0.2930 N   0  0  0  0  0  0  0  0  0  0  0  0
    1.7688    4.7710   -0.7137 N   0  0  0  0  0  0  0  0  0  0  0  0
    1.9312    3.6788    0.0514 C   0  0  0  0  0  0  0  0  0  0  0  0
    2.8720    3.9264    0.9711 N   0  0  0  0  0  0  0  0  0  0  0  0
    3.2706    5.1893    0.7588 C   0  0  0  0  0  0  0  0  0  0  0  0
    4.2803    5.8062    1.5308 C   0  0  0  0  0  0  0  0  0  0  0  0
    5.4007    6.3785    0.8847 C   0  0  0  0  0  0  0  0  0  0  0  0
    6.4369    6.9616    1.6349 C   0  0  0  0  0  0  0  0  0  0  0  0
    6.3558    6.9970    3.0380 C   0  0  0  0  0  0  0  0  0  0  0  0
    5.2361    6.4517    3.6914 C   0  0  0  0  0  0  0  0  0  0  0  0
    4.2044    5.8465    2.9477 C   0  0  0  0  0  0  0  0  0  0  0  0
    3.1573    5.3331    3.6471 O   0  0  0  0  0  0  0  0  0  0  0  0
    1.2243    2.4666   -0.0944 C   0  0  0  0  0  0  0  0  0  0  0  0
    1.9207    1.2334   -0.0586 C   0  0  0  0  0  0  0  0  0  0  0  0
    1.2429    0.0207   -0.2843 C   0  0  0  0  0  0  0  0  0  0  0  0
   -0.1420    0.0224   -0.5175 C   0  0  0  0  0  0  0  0  0  0  0  0
   -0.8525    1.2345   -0.5042 C   0  0  0  0  0  0  0  0  0  0  0  0
   -0.1808    2.4545   -0.2968 C   0  0  0  0  0  0  0  0  0  0  0  0
   -0.9440    3.5808   -0.2850 O   0  0  0  0  0  0  0  0  0  0  0  0
    3.5544   11.8034   -4.3768 H   0  0  0  0  0  0  0  0  0  0  0  0
    2.7032   10.1991   -0.0688 H   0  0  0  0  0  0  0  0  0  0  0  0
    2.4651    8.0409    0.9301 H   0  0  0  0  0  0  0  0  0  0  0  0
    2.8474    6.2275   -2.8535 H   0  0  0  0  0  0  0  0  0  0  0  0
    3.0902    8.3775   -3.8638 H   0  0  0  0  0  0  0  0  0  0  0  0
    5.4815    6.3618   -0.1357 H   0  0  0  0  0  0  0  0  0  0  0  0
    7.2483    7.3596    1.1560 H   0  0  0  0  0  0  0  0  0  0  0  0
    7.1102    7.4243    3.5808 H   0  0  0  0  0  0  0  0  0  0  0  0
    5.1755    6.4985    4.7121 H   0  0  0  0  0  0  0  0  0  0  0  0
    2.4275    5.2284    3.0049 H   0  0  0  0  0  0  0  0  0  0  0  0
    2.9303    1.2050    0.1076 H   0  0  0  0  0  0  0  0  0  0  0  0
    1.7559   -0.8639   -0.2832 H   0  0  0  0  0  0  0  0  0  0  0  0
   -0.6324   -0.8578   -0.6937 H   0  0  0  0  0  0  0  0  0  0  0  0
   -1.8643    1.2251   -0.6481 H   0  0  0  0  0  0  0  0  0  0  0  0
   -0.3880    4.2879    0.0999 H   0  0  0  0  0  0  0  0  0  0  0  0
  1  2  1  0  0  0  0 
  2  3  2  0  0  0  0 
  2  4  1  0  0  0  0 
  4  5  2  0  0  0  0 
  5  6  1  0  0  0  0 
  6  7  2  0  0  0  0 
  7  8  1  0  0  0  0 
  8  9  2  0  0  0  0 
  4  9  1  0  0  0  0 
  7 10  1  0  0  0  0 
 10 11  1  0  0  0  0 
 11 12  2  0  0  0  0 
 12 13  1  0  0  0  0 
 13 14  2  0  0  0  0 
 10 14  1  0  0  0  0 
 14 15  1  0  0  0  0 
 15 16  2  0  0  0  0 
 16 17  1  0  0  0  0 
 17 18  2  0  0  0  0 
 18 19  1  0  0  0  0 
 19 20  2  0  0  0  0 
 15 20  1  0  0  0  0 
 20 21  1  0  0  0  0 
 12 22  1  0  0  0  0 
 22 23  2  0  0  0  0 
 23 24  1  0  0  0  0 
 24 25  2  0  0  0  0 
 25 26  1  0  0  0  0 
 26 27  2  0  0  0  0 
 22 27  1  0  0  0  0 
 27 28  1  0  0  0  0 
  1 29  1  0  0  0  0 
  5 30  1  0  0  0  0 
  6 31  1  0  0  0  0 
  8 32  1  0  0  0  0 
  9 33  1  0  0  0  0 
 16 34  1  0  0  0  0 
 17 35  1  0  0  0  0 
 18 36  1  0  0  0  0 
 19 37  1  0  0  0  0 
 21 38  1  0  0  0  0 
 23 39  1  0  0  0  0 
 24 40  1  0  0  0  0 
 25 41  1  0  0  0  0 
 26 42  1  0  0  0  0 
 28 43  1  0  0  0  0 
M  END
> <cdk:Title>
deferasirox

> <Conformer>
1

> <SuperDrugID>
SD002712

$$$$
