fenbenicillin
  CDK     0628171801

 52 55  0  0  0  0  0  0  0  0999 V2000
   -1.7819   -3.1805   -0.7877 N   0  0  0  0  0  0  0  0  0  0  0  0
   -1.6623   -2.1167   -1.6285 C   0  0  0  0  0  0  0  0  0  0  0  0
   -3.0262   -3.6697   -0.2918 C   0  0  1  0  0  0  0  0  0  0  0  0
   -0.3302   -1.5442   -1.9408 C   0  0  1  0  0  0  0  0  0  0  0  0
   -2.6847   -1.5746   -2.1140 O   0  0  0  0  0  0  0  0  0  0  0  0
   -4.0108   -4.3297   -1.3111 C   0  0  2  0  0  0  0  0  0  0  0  0
   -2.9565   -4.9988    0.3114 C   0  0  0  0  0  0  0  0  0  0  0  0
    0.3554   -1.3692   -0.6786 O   0  0  0  0  0  0  0  0  0  0  0  0
    0.4310   -2.3905   -2.9139 C   0  0  0  0  0  0  0  0  0  0  0  0
   -3.7828   -5.5193   -0.5903 N   0  0  0  0  0  0  0  0  0  0  0  0
   -3.5194   -4.9886   -2.9382 S   0  0  0  0  0  0  0  0  0  0  0  0
   -2.2709   -5.4922    1.2348 O   0  0  0  0  0  0  0  0  0  0  0  0
    1.4083   -0.4962   -0.6955 C   0  0  0  0  0  0  0  0  0  0  0  0
    0.6743   -1.9247   -4.2317 C   0  0  0  0  0  0  0  0  0  0  0  0
    0.9328   -3.6660   -2.5540 C   0  0  0  0  0  0  0  0  0  0  0  0
   -4.0865   -6.8330   -1.0353 C   0  0  2  0  0  0  0  0  0  0  0  0
   -3.5609   -6.7842   -2.5228 C   0  0  1  0  0  0  0  0  0  0  0  0
    2.7267   -0.9919   -0.7488 C   0  0  0  0  0  0  0  0  0  0  0  0
    1.1879    0.8949   -0.6055 C   0  0  0  0  0  0  0  0  0  0  0  0
    1.3440   -2.7262   -5.1746 C   0  0  0  0  0  0  0  0  0  0  0  0
    1.5995   -4.4724   -3.4968 C   0  0  0  0  0  0  0  0  0  0  0  0
   -5.5231   -7.1170   -0.7889 C   0  0  0  0  0  0  0  0  0  0  0  0
    3.8175   -0.1039   -0.7274 C   0  0  0  0  0  0  0  0  0  0  0  0
    2.2790    1.7827   -0.5918 C   0  0  0  0  0  0  0  0  0  0  0  0
    1.7975   -4.0049   -4.8083 C   0  0  0  0  0  0  0  0  0  0  0  0
   -5.8879   -8.1282    0.0346 O   0  0  0  0  0  0  0  0  0  0  0  0
   -6.4333   -6.4226   -1.2956 O   0  0  0  0  0  0  0  0  0  0  0  0
    3.5938    1.2837   -0.6481 C   0  0  0  0  0  0  0  0  0  0  0  0
   -5.0500   -3.9922   -1.2505 H   0  0  0  0  0  0  0  0  0  0  0  0
   -4.4375   -7.5482   -3.5595 C   0  0  0  0  0  0  0  0  0  0  0  0
   -2.0865   -7.2945   -2.5917 C   0  0  0  0  0  0  0  0  0  0  0  0
   -0.9696   -3.5931   -0.4552 H   0  0  0  0  0  0  0  0  0  0  0  0
   -3.5154   -2.9598    0.3796 H   0  0  0  0  0  0  0  0  0  0  0  0
   -0.5160   -0.5564   -2.3857 H   0  0  0  0  0  0  0  0  0  0  0  0
    0.3569   -0.9961   -4.5208 H   0  0  0  0  0  0  0  0  0  0  0  0
    0.8188   -4.0178   -1.6011 H   0  0  0  0  0  0  0  0  0  0  0  0
   -3.5085   -7.5571   -0.4517 H   0  0  0  0  0  0  0  0  0  0  0  0
    2.8952   -2.0000   -0.7925 H   0  0  0  0  0  0  0  0  0  0  0  0
    0.2354    1.2614   -0.5433 H   0  0  0  0  0  0  0  0  0  0  0  0
    1.4981   -2.3813   -6.1262 H   0  0  0  0  0  0  0  0  0  0  0  0
    1.9384   -5.4006   -3.2296 H   0  0  0  0  0  0  0  0  0  0  0  0
    4.7708   -0.4712   -0.7621 H   0  0  0  0  0  0  0  0  0  0  0  0
    2.1178    2.7900   -0.5325 H   0  0  0  0  0  0  0  0  0  0  0  0
    2.2696   -4.5934   -5.4984 H   0  0  0  0  0  0  0  0  0  0  0  0
   -6.8383   -8.2935    0.2156 H   0  0  0  0  0  0  0  0  0  0  0  0
    4.3859    1.9292   -0.6244 H   0  0  0  0  0  0  0  0  0  0  0  0
   -5.4404   -7.1219   -3.6171 H   0  0  0  0  0  0  0  0  0  0  0  0
   -4.5217   -8.5990   -3.2736 H   0  0  0  0  0  0  0  0  0  0  0  0
   -4.0000   -7.4933   -4.5593 H   0  0  0  0  0  0  0  0  0  0  0  0
   -1.4477   -6.7382   -1.8999 H   0  0  0  0  0  0  0  0  0  0  0  0
   -2.0372   -8.3514   -2.3194 H   0  0  0  0  0  0  0  0  0  0  0  0
   -1.6753   -7.1804   -3.5972 H   0  0  0  0  0  0  0  0  0  0  0  0
  1  2  1  0  0  0  0 
  4  2  1  0  0  0  0 
  2  5  2  0  0  0  0 
  3  1  1  0  0  0  0 
  6  3  1  0  0  0  0 
  3  7  1  0  0  0  0 
  4  8  1  0  0  0  0 
  4  9  1  0  0  0  0 
  6 10  1  0  0  0  0 
  6 11  1  0  0  0  0 
  6 29  1  0  0  0  0 
  7 10  1  0  0  0  0 
  7 12  2  0  0  0  0 
  8 13  1  0  0  0  0 
  9 14  2  0  0  0  0 
  9 15  1  0  0  0  0 
 16 10  1  0  0  0  0 
 11 17  1  0  0  0  0 
 13 18  2  0  0  0  0 
 13 19  1  0  0  0  0 
 14 20  1  0  0  0  0 
 15 21  2  0  0  0  0 
 16 17  1  0  0  0  0 
 16 22  1  0  0  0  0 
 18 23  1  0  0  0  0 
 19 24  2  0  0  0  0 
 20 25  2  0  0  0  0 
 21 25  1  0  0  0  0 
 22 26  1  0  0  0  0 
 22 27  2  0  0  0  0 
 23 28  2  0  0  0  0 
 24 28  1  0  0  0  0 
 17 30  1  0  0  0  0 
 17 31  1  0  0  0  0 
  1 32  1  0  0  0  0 
  3 33  1  0  0  0  0 
  4 34  1  0  0  0  0 
 14 35  1  0  0  0  0 
 15 36  1  0  0  0  0 
 16 37  1  0  0  0  0 
 18 38  1  0  0  0  0 
 19 39  1  0  0  0  0 
 20 40  1  0  0  0  0 
 21 41  1  0  0  0  0 
 23 42  1  0  0  0  0 
 24 43  1  0  0  0  0 
 25 44  1  0  0  0  0 
 26 45  1  0  0  0  0 
 28 46  1  0  0  0  0 
 30 47  1  0  0  0  0 
 30 48  1  0  0  0  0 
 30 49  1  0  0  0  0 
 31 50  1  0  0  0  0 
 31 51  1  0  0  0  0 
 31 52  1  0  0  0  0 
M  END
> <cdk:Title>
fenbenicillin

> <Conformer>
1

> <SuperDrugID>
SD002788

$$$$
