levomepromazine
  CDK     0628171801

 47 49  0  0  0  0  0  0  0  0999 V2000
   -0.0711    0.2128   -0.9495 C   0  0  0  0  0  0  0  0  0  0  0  0
   -1.1036    0.7353   -0.0958 O   0  0  0  0  0  0  0  0  0  0  0  0
   -0.6311    1.1688    1.1133 C   0  0  0  0  0  0  0  0  0  0  0  0
   -0.6405    0.2956    2.2206 C   0  0  0  0  0  0  0  0  0  0  0  0
   -0.1763    0.7143    3.4911 C   0  0  0  0  0  0  0  0  0  0  0  0
    0.2539    2.0599    3.6302 C   0  0  0  0  0  0  0  0  0  0  0  0
    0.7330    2.6415    5.2240 S   0  0  0  0  0  0  0  0  0  0  0  0
   -0.1951    1.5928    6.2900 C   0  0  0  0  0  0  0  0  0  0  0  0
   -0.5941    2.0502    7.5609 C   0  0  0  0  0  0  0  0  0  0  0  0
   -1.4040    1.2386    8.3746 C   0  0  0  0  0  0  0  0  0  0  0  0
   -1.8163   -0.0245    7.9166 C   0  0  0  0  0  0  0  0  0  0  0  0
   -1.3999   -0.4852    6.6526 C   0  0  0  0  0  0  0  0  0  0  0  0
   -0.5652    0.3057    5.8224 C   0  0  0  0  0  0  0  0  0  0  0  0
   -0.1344   -0.1521    4.5796 N   0  0  0  0  0  0  0  0  0  0  0  0
    0.3785   -1.5121    4.4445 C   0  0  1  0  0  0  0  0  0  0  0  0
    1.6986   -1.7019    3.6203 C   0  0  2  0  0  0  0  0  0  0  0  0
    2.1482   -3.1918    3.6280 C   0  0  0  0  0  0  0  0  0  0  0  0
    2.8717   -0.7806    4.0928 C   0  0  2  0  0  0  0  0  0  0  0  0
    4.1139   -0.8850    3.2527 N   0  0  2  0  0  0  0  0  0  0  0  0
    5.3234   -0.3084    3.9094 C   0  0  0  0  0  0  0  0  0  0  0  0
    3.9473   -0.3863    1.8497 C   0  0  0  0  0  0  0  0  0  0  0  0
    0.2749    2.9373    2.5302 C   0  0  0  0  0  0  0  0  0  0  0  0
   -0.1693    2.4914    1.2740 C   0  0  0  0  0  0  0  0  0  0  0  0
    0.4796   -0.5996   -0.4692 H   0  0  0  0  0  0  0  0  0  0  0  0
   -0.5395   -0.1855   -1.8504 H   0  0  0  0  0  0  0  0  0  0  0  0
    0.6236    1.0007   -1.2475 H   0  0  0  0  0  0  0  0  0  0  0  0
   -0.9943   -0.6536    2.0901 H   0  0  0  0  0  0  0  0  0  0  0  0
   -0.3144    2.9754    7.8901 H   0  0  0  0  0  0  0  0  0  0  0  0
   -1.6989    1.5687    9.2975 H   0  0  0  0  0  0  0  0  0  0  0  0
   -2.4221   -0.6057    8.5028 H   0  0  0  0  0  0  0  0  0  0  0  0
   -1.7205   -1.4035    6.3362 H   0  0  0  0  0  0  0  0  0  0  0  0
    0.5647   -1.9468    5.4327 H   0  0  0  0  0  0  0  0  0  0  0  0
   -0.4130   -2.1121    3.9863 H   0  0  0  0  0  0  0  0  0  0  0  0
    1.4626   -1.4612    2.5833 H   0  0  0  0  0  0  0  0  0  0  0  0
    2.9734   -3.3470    2.9296 H   0  0  0  0  0  0  0  0  0  0  0  0
    2.4795   -3.4887    4.6254 H   0  0  0  0  0  0  0  0  0  0  0  0
    1.3285   -3.8463    3.3258 H   0  0  0  0  0  0  0  0  0  0  0  0
    3.1036   -1.0525    5.1282 H   0  0  0  0  0  0  0  0  0  0  0  0
    2.5466    0.2618    4.1064 H   0  0  0  0  0  0  0  0  0  0  0  0
    5.4803   -0.7415    4.8999 H   0  0  0  0  0  0  0  0  0  0  0  0
    5.2349    0.7748    4.0101 H   0  0  0  0  0  0  0  0  0  0  0  0
    6.2116   -0.5401    3.3165 H   0  0  0  0  0  0  0  0  0  0  0  0
    4.9004   -0.3514    1.3200 H   0  0  0  0  0  0  0  0  0  0  0  0
    3.5079    0.6144    1.8295 H   0  0  0  0  0  0  0  0  0  0  0  0
    3.3091   -1.0578    1.2777 H   0  0  0  0  0  0  0  0  0  0  0  0
    0.5964    3.9030    2.6395 H   0  0  0  0  0  0  0  0  0  0  0  0
   -0.1639    3.1326    0.4776 H   0  0  0  0  0  0  0  0  0  0  0  0
  1  2  1  0  0  0  0 
  2  3  1  0  0  0  0 
  3  4  2  0  0  0  0 
  4  5  1  0  0  0  0 
  5  6  2  0  0  0  0 
  6  7  1  0  0  0  0 
  7  8  1  0  0  0  0 
  8  9  2  0  0  0  0 
  9 10  1  0  0  0  0 
 10 11  2  0  0  0  0 
 11 12  1  0  0  0  0 
 12 13  2  0  0  0  0 
  8 13  1  0  0  0  0 
 13 14  1  0  0  0  0 
  5 14  1  0  0  0  0 
 14 15  1  0  0  0  0 
 15 16  1  0  0  0  0 
 16 17  1  0  0  0  0 
 16 18  1  0  0  0  0 
 18 19  1  0  0  0  0 
 19 20  1  0  0  0  0 
 19 21  1  0  0  0  0 
  6 22  1  0  0  0  0 
 22 23  2  0  0  0  0 
  3 23  1  0  0  0  0 
  1 24  1  0  0  0  0 
  1 25  1  0  0  0  0 
  1 26  1  0  0  0  0 
  4 27  1  0  0  0  0 
  9 28  1  0  0  0  0 
 10 29  1  0  0  0  0 
 11 30  1  0  0  0  0 
 12 31  1  0  0  0  0 
 15 32  1  0  0  0  0 
 15 33  1  0  0  0  0 
 16 34  1  0  0  0  0 
 17 35  1  0  0  0  0 
 17 36  1  0  0  0  0 
 17 37  1  0  0  0  0 
 18 38  1  0  0  0  0 
 18 39  1  0  0  0  0 
 20 40  1  0  0  0  0 
 20 41  1  0  0  0  0 
 20 42  1  0  0  0  0 
 21 43  1  0  0  0  0 
 21 44  1  0  0  0  0 
 21 45  1  0  0  0  0 
 22 46  1  0  0  0  0 
 23 47  1  0  0  0  0 
M  END
> <cdk:Title>
levomepromazine

> <Conformer>
1

> <SuperDrugID>
SD001552

$$$$
