eptazocine
  CDK     0628171801

 38 40  0  0  0  0  0  0  0  0999 V2000
   -4.7216    1.0614   -2.0689 C   0  0  0  0  0  0  0  0  0  0  0  0
   -3.4665    0.4648   -1.3326 C   0  0  2  0  0  0  0  0  0  0  0  0
   -2.2203    1.2629   -1.6764 C   0  0  0  0  0  0  0  0  0  0  0  0
   -3.3593   -1.0304   -1.8162 C   0  0  2  0  0  0  0  0  0  0  0  0
   -3.7388    0.4930    0.2185 C   0  0  1  0  0  0  0  0  0  0  0  0
   -1.0300    0.6357   -2.1591 C   0  0  0  0  0  0  0  0  0  0  0  0
   -2.1959    2.6724   -1.4915 C   0  0  0  0  0  0  0  0  0  0  0  0
   -1.9804   -1.6618   -1.5188 C   0  0  1  0  0  0  0  0  0  0  0  0
   -2.5417    0.2470    1.1865 C   0  0  1  0  0  0  0  0  0  0  0  0
   -0.8941   -0.8447   -2.2777 C   0  0  2  0  0  0  0  0  0  0  0  0
    0.0831    1.4226   -2.5394 C   0  0  0  0  0  0  0  0  0  0  0  0
   -1.0672    3.4412   -1.8240 C   0  0  0  0  0  0  0  0  0  0  0  0
   -1.6804   -1.8322    0.0016 C   0  0  1  0  0  0  0  0  0  0  0  0
   -1.3701   -0.5330    0.6783 N   0  0  2  0  0  0  0  0  0  0  0  0
    0.0647    2.8156   -2.3712 C   0  0  0  0  0  0  0  0  0  0  0  0
   -1.0780    4.7829   -1.6145 O   0  0  0  0  0  0  0  0  0  0  0  0
   -0.2683   -0.6212    1.6823 C   0  0  0  0  0  0  0  0  0  0  0  0
   -1.9909   -2.6704   -1.9486 H   0  0  0  0  0  0  0  0  0  0  0  0
   -4.9885    2.0473   -1.6836 H   0  0  0  0  0  0  0  0  0  0  0  0
   -5.5949    0.4151   -1.9385 H   0  0  0  0  0  0  0  0  0  0  0  0
   -4.5320    1.1621   -3.1409 H   0  0  0  0  0  0  0  0  0  0  0  0
   -3.5106   -1.0824   -2.9010 H   0  0  0  0  0  0  0  0  0  0  0  0
   -4.1458   -1.6500   -1.3742 H   0  0  0  0  0  0  0  0  0  0  0  0
   -4.1618    1.4646    0.4927 H   0  0  0  0  0  0  0  0  0  0  0  0
   -4.5191   -0.2357    0.4559 H   0  0  0  0  0  0  0  0  0  0  0  0
   -3.0068    3.1590   -1.1058 H   0  0  0  0  0  0  0  0  0  0  0  0
   -2.1715    1.2339    1.4830 H   0  0  0  0  0  0  0  0  0  0  0  0
   -2.9271   -0.2328    2.0921 H   0  0  0  0  0  0  0  0  0  0  0  0
    0.0876   -1.1574   -1.9081 H   0  0  0  0  0  0  0  0  0  0  0  0
   -0.9347   -1.0936   -3.3420 H   0  0  0  0  0  0  0  0  0  0  0  0
    0.9239    0.9846   -2.9293 H   0  0  0  0  0  0  0  0  0  0  0  0
   -2.5113   -2.3392    0.5005 H   0  0  0  0  0  0  0  0  0  0  0  0
   -0.8254   -2.5130    0.0684 H   0  0  0  0  0  0  0  0  0  0  0  0
    0.8794    3.3718   -2.6407 H   0  0  0  0  0  0  0  0  0  0  0  0
   -0.1356    5.0552   -1.6144 H   0  0  0  0  0  0  0  0  0  0  0  0
    0.6383   -1.0139    1.2178 H   0  0  0  0  0  0  0  0  0  0  0  0
   -0.0216    0.3653    2.0813 H   0  0  0  0  0  0  0  0  0  0  0  0
   -0.5520   -1.2757    2.5099 H   0  0  0  0  0  0  0  0  0  0  0  0
  2  1  1  0  0  0  0 
  2  3  1  0  0  0  0 
  2  4  1  0  0  0  0 
  2  5  1  0  0  0  0 
  3  6  2  0  0  0  0 
  3  7  1  0  0  0  0 
  8  4  1  0  0  0  0 
  5  9  1  0  0  0  0 
  6 10  1  0  0  0  0 
  6 11  1  0  0  0  0 
  7 12  2  0  0  0  0 
  8 10  1  0  0  0  0 
  8 13  1  0  0  0  0 
  8 18  1  0  0  0  0 
  9 14  1  0  0  0  0 
 11 15  2  0  0  0  0 
 12 15  1  0  0  0  0 
 12 16  1  0  0  0  0 
 13 14  1  0  0  0  0 
 14 17  1  0  0  0  0 
  1 19  1  0  0  0  0 
  1 20  1  0  0  0  0 
  1 21  1  0  0  0  0 
  4 22  1  0  0  0  0 
  4 23  1  0  0  0  0 
  5 24  1  0  0  0  0 
  5 25  1  0  0  0  0 
  7 26  1  0  0  0  0 
  9 27  1  0  0  0  0 
  9 28  1  0  0  0  0 
 10 29  1  0  0  0  0 
 10 30  1  0  0  0  0 
 11 31  1  0  0  0  0 
 13 32  1  0  0  0  0 
 13 33  1  0  0  0  0 
 15 34  1  0  0  0  0 
 16 35  1  0  0  0  0 
 17 36  1  0  0  0  0 
 17 37  1  0  0  0  0 
 17 38  1  0  0  0  0 
M  END
> <cdk:Title>
eptazocine

> <Conformer>
1

> <SuperDrugID>
SD000925

$$$$
