propyphenazone
  CDK     0628171801

 35 36  0  0  0  0  0  0  0  0999 V2000
    1.3747    0.5657    1.7252 O   0  0  0  0  0  0  0  0  0  0  0  0
    2.0193    0.2120    0.7080 C   0  0  0  0  0  0  0  0  0  0  0  0
    2.9680   -0.7468    0.6670 N   0  0  0  0  0  0  0  0  0  0  0  0
    1.8438    0.7300   -0.5725 C   0  0  0  0  0  0  0  0  0  0  0  0
    3.4332   -0.8397   -0.5574 N   0  0  0  0  0  0  0  0  0  0  0  0
    3.3057   -1.5158    1.7522 C   0  0  0  0  0  0  0  0  0  0  0  0
    0.8694    1.8114   -0.9202 C   0  0  1  0  0  0  0  0  0  0  0  0
    2.7675    0.0308   -1.3642 C   0  0  0  0  0  0  0  0  0  0  0  0
    4.5163   -1.6806   -1.0080 C   0  0  0  0  0  0  0  0  0  0  0  0
    3.1241   -2.9168    1.7134 C   0  0  0  0  0  0  0  0  0  0  0  0
    3.8249   -0.9233    2.9276 C   0  0  0  0  0  0  0  0  0  0  0  0
    1.5848    3.1433   -1.2691 C   0  0  0  0  0  0  0  0  0  0  0  0
   -0.1818    1.3917   -1.9847 C   0  0  0  0  0  0  0  0  0  0  0  0
    3.0274    0.1905   -2.8158 C   0  0  0  0  0  0  0  0  0  0  0  0
    3.4541   -3.7113    2.8264 C   0  0  0  0  0  0  0  0  0  0  0  0
    4.1476   -1.7182    4.0432 C   0  0  0  0  0  0  0  0  0  0  0  0
    3.9631   -3.1117    3.9930 C   0  0  0  0  0  0  0  0  0  0  0  0
    0.2822    2.0254   -0.0220 H   0  0  0  0  0  0  0  0  0  0  0  0
    4.9864   -2.2325   -0.1947 H   0  0  0  0  0  0  0  0  0  0  0  0
    5.2945   -1.0747   -1.4758 H   0  0  0  0  0  0  0  0  0  0  0  0
    4.1446   -2.4023   -1.7383 H   0  0  0  0  0  0  0  0  0  0  0  0
    2.7447   -3.3644    0.8758 H   0  0  0  0  0  0  0  0  0  0  0  0
    3.9685    0.0893    2.9774 H   0  0  0  0  0  0  0  0  0  0  0  0
    0.8528    3.9464   -1.3771 H   0  0  0  0  0  0  0  0  0  0  0  0
    2.1443    3.0645   -2.2014 H   0  0  0  0  0  0  0  0  0  0  0  0
    2.2773    3.4187   -0.4690 H   0  0  0  0  0  0  0  0  0  0  0  0
   -0.9988    2.1158   -2.0074 H   0  0  0  0  0  0  0  0  0  0  0  0
    0.2385    1.3484   -2.9868 H   0  0  0  0  0  0  0  0  0  0  0  0
   -0.6028    0.4141   -1.7430 H   0  0  0  0  0  0  0  0  0  0  0  0
    2.8380   -0.7566   -3.3257 H   0  0  0  0  0  0  0  0  0  0  0  0
    4.0673    0.4818   -2.9741 H   0  0  0  0  0  0  0  0  0  0  0  0
    2.4052    0.9502   -3.2738 H   0  0  0  0  0  0  0  0  0  0  0  0
    3.3195   -4.7232    2.7872 H   0  0  0  0  0  0  0  0  0  0  0  0
    4.5142   -1.2812    4.8915 H   0  0  0  0  0  0  0  0  0  0  0  0
    4.1934   -3.6891    4.8052 H   0  0  0  0  0  0  0  0  0  0  0  0
  1  2  2  0  0  0  0 
  2  3  1  0  0  0  0 
  2  4  1  0  0  0  0 
  3  5  1  0  0  0  0 
  3  6  1  0  0  0  0 
  4  7  1  0  0  0  0 
  4  8  2  0  0  0  0 
  5  8  1  0  0  0  0 
  5  9  1  0  0  0  0 
  6 10  2  0  0  0  0 
  6 11  1  0  0  0  0 
  7 12  1  0  0  0  0 
  7 13  1  0  0  0  0 
  8 14  1  0  0  0  0 
 10 15  1  0  0  0  0 
 11 16  2  0  0  0  0 
 15 17  2  0  0  0  0 
 16 17  1  0  0  0  0 
  7 18  1  0  0  0  0 
  9 19  1  0  0  0  0 
  9 20  1  0  0  0  0 
  9 21  1  0  0  0  0 
 10 22  1  0  0  0  0 
 11 23  1  0  0  0  0 
 12 24  1  0  0  0  0 
 12 25  1  0  0  0  0 
 12 26  1  0  0  0  0 
 13 27  1  0  0  0  0 
 13 28  1  0  0  0  0 
 13 29  1  0  0  0  0 
 14 30  1  0  0  0  0 
 14 31  1  0  0  0  0 
 14 32  1  0  0  0  0 
 15 33  1  0  0  0  0 
 16 34  1  0  0  0  0 
 17 35  1  0  0  0  0 
M  END
> <cdk:Title>
propyphenazone

> <Conformer>
1

> <SuperDrugID>
SD002073

$$$$
