niraparib
  CDK     0628171802

 44 47  0  0  0  0  0  0  0  0999 V2000
    7.9257   -0.0516    9.3512 C   0  0  0  0  0  0  0  0  0  0  0  0
    7.0892   -0.2218    8.2396 C   0  0  0  0  0  0  0  0  0  0  0  0
    6.0890   -1.1845    8.2071 C   0  0  0  0  0  0  0  0  0  0  0  0
    5.8436   -2.0438    9.3056 C   0  0  0  0  0  0  0  0  0  0  0  0
    6.6908   -1.8727   10.4380 C   0  0  0  0  0  0  0  0  0  0  0  0
    7.7143   -0.8956   10.4583 C   0  0  0  0  0  0  0  0  0  0  0  0
    5.4892   -1.0938    7.0046 N   0  0  0  0  0  0  0  0  0  0  0  0
    6.0395   -0.1366    6.3063 N   0  0  0  0  0  0  0  0  0  0  0  0
    7.0362    0.4318    7.0242 C   0  0  0  0  0  0  0  0  0  0  0  0
    5.6595    0.2108    5.0323 C   0  0  0  0  0  0  0  0  0  0  0  0
    5.1946   -0.7663    4.1222 C   0  0  0  0  0  0  0  0  0  0  0  0
    4.8592   -0.4228    2.7992 C   0  0  0  0  0  0  0  0  0  0  0  0
    4.9539    0.9141    2.3422 C   0  0  0  0  0  0  0  0  0  0  0  0
    5.3725    1.8977    3.2683 C   0  0  0  0  0  0  0  0  0  0  0  0
    5.7244    1.5512    4.5849 C   0  0  0  0  0  0  0  0  0  0  0  0
    4.6285    1.2607    0.9197 C   0  0  1  0  0  0  0  0  0  0  0  0
    3.3981    2.2074    0.7814 C   0  0  1  0  0  0  0  0  0  0  0  0
    3.0757    2.4589   -0.6455 N   0  0  1  0  0  0  0  0  0  0  0  0
    4.2021    3.0295   -1.4250 C   0  0  2  0  0  0  0  0  0  0  0  0
    5.4771    2.1542   -1.3262 C   0  0  1  0  0  0  0  0  0  0  0  0
    5.8447    1.8661    0.1526 C   0  0  1  0  0  0  0  0  0  0  0  0
    4.3624    0.3372    0.3905 H   0  0  0  0  0  0  0  0  0  0  0  0
    4.8087   -3.0222    9.2703 C   0  0  0  0  0  0  0  0  0  0  0  0
    4.4690   -3.7703   10.3381 N   0  0  0  0  0  0  0  0  0  0  0  0
    4.1463   -3.2459    8.2301 O   0  0  0  0  0  0  0  0  0  0  0  0
    8.6662    0.6543    9.3567 H   0  0  0  0  0  0  0  0  0  0  0  0
    6.5797   -2.4615   11.2671 H   0  0  0  0  0  0  0  0  0  0  0  0
    8.3105   -0.7995   11.2832 H   0  0  0  0  0  0  0  0  0  0  0  0
    7.6522    1.1950    6.7333 H   0  0  0  0  0  0  0  0  0  0  0  0
    5.1085   -1.7434    4.4121 H   0  0  0  0  0  0  0  0  0  0  0  0
    4.5460   -1.1659    2.1684 H   0  0  0  0  0  0  0  0  0  0  0  0
    5.4290    2.8795    2.9927 H   0  0  0  0  0  0  0  0  0  0  0  0
    6.0217    2.2938    5.2211 H   0  0  0  0  0  0  0  0  0  0  0  0
    2.5274    1.7421    1.2494 H   0  0  0  0  0  0  0  0  0  0  0  0
    3.5765    3.1656    1.2783 H   0  0  0  0  0  0  0  0  0  0  0  0
    2.8475    1.5536   -1.0639 H   0  0  0  0  0  0  0  0  0  0  0  0
    4.4173    4.0394   -1.0688 H   0  0  0  0  0  0  0  0  0  0  0  0
    3.8966    3.0992   -2.4715 H   0  0  0  0  0  0  0  0  0  0  0  0
    5.3068    1.2091   -1.8493 H   0  0  0  0  0  0  0  0  0  0  0  0
    6.3108    2.6614   -1.8153 H   0  0  0  0  0  0  0  0  0  0  0  0
    6.1665    2.8011    0.6214 H   0  0  0  0  0  0  0  0  0  0  0  0
    6.6900    1.1719    0.1813 H   0  0  0  0  0  0  0  0  0  0  0  0
    3.7588   -4.4284   10.2624 H   0  0  0  0  0  0  0  0  0  0  0  0
    4.9258   -3.6534   11.1848 H   0  0  0  0  0  0  0  0  0  0  0  0
  1  2  1  0  0  0  0 
  1  6  2  0  0  0  0 
  2  3  1  0  0  0  0 
  3  4  1  0  0  0  0 
  4  5  2  0  0  0  0 
  5  6  1  0  0  0  0 
  7  8  1  0  0  0  0 
  8  9  1  0  0  0  0 
  2  9  2  0  0  0  0 
  3  7  2  0  0  0  0 
  8 10  1  0  0  0  0 
 11 12  1  0  0  0  0 
 12 13  2  0  0  0  0 
 13 14  1  0  0  0  0 
 14 15  2  0  0  0  0 
 10 11  2  0  0  0  0 
 10 15  1  0  0  0  0 
 16 13  1  0  0  0  0 
 17 18  1  0  0  0  0 
 18 19  1  0  0  0  0 
 19 20  1  0  0  0  0 
 20 21  1  0  0  0  0 
 16 17  1  0  0  0  0 
 16 21  1  0  0  0  0 
 16 22  1  0  0  0  0 
  4 23  1  0  0  0  0 
 23 24  1  0  0  0  0 
 23 25  2  0  0  0  0 
  1 26  1  0  0  0  0 
  5 27  1  0  0  0  0 
  6 28  1  0  0  0  0 
  9 29  1  0  0  0  0 
 11 30  1  0  0  0  0 
 12 31  1  0  0  0  0 
 14 32  1  0  0  0  0 
 15 33  1  0  0  0  0 
 17 34  1  0  0  0  0 
 17 35  1  0  0  0  0 
 18 36  1  0  0  0  0 
 19 37  1  0  0  0  0 
 19 38  1  0  0  0  0 
 20 39  1  0  0  0  0 
 20 40  1  0  0  0  0 
 21 41  1  0  0  0  0 
 21 42  1  0  0  0  0 
 24 43  1  0  0  0  0 
 24 44  1  0  0  0  0 
M  END
> <cdk:Title>
niraparib

> <Conformer>
1

> <SuperDrugID>
SD003947

$$$$
