diflucortolone
  CDK     0628171801

 56 59  0  0  0  0  0  0  0  0999 V2000
    4.2898   -1.4411   -4.7550 F   0  0  0  0  0  0  0  0  0  0  0  0
    4.4036   -0.1747   -4.1933 C   0  0  2  0  0  0  0  0  0  0  0  0
    3.1774    0.6780   -4.7309 C   0  0  2  0  0  0  0  0  0  0  0  0
    5.8138    0.3914   -4.7094 C   0  0  2  0  0  0  0  0  0  0  0  0
    4.2621   -0.4346   -2.6373 C   0  0  1  0  0  0  0  0  0  0  0  0
    1.8196    0.0409   -4.2717 C   0  0  1  0  0  0  0  0  0  0  0  0
    3.2525    0.8412   -6.2786 C   0  0  1  0  0  0  0  0  0  0  0  0
    6.2363    1.7719   -4.0815 C   0  0  0  0  0  0  0  0  0  0  0  0
    5.7225    0.5778   -6.2022 C   0  0  0  0  0  0  0  0  0  0  0  0
    6.9095   -0.5388   -4.3242 C   0  0  0  0  0  0  0  0  0  0  0  0
    4.6158    0.7079   -1.8637 O   0  0  0  0  0  0  0  0  0  0  0  0
    2.8437   -0.9326   -2.1909 C   0  0  1  0  0  0  0  0  0  0  0  0
    1.6625   -0.0424   -2.7180 C   0  0  1  0  0  0  0  0  0  0  0  0
    0.4720    0.6255   -4.7495 C   0  0  2  0  0  0  0  0  0  0  0  0
    4.6229    1.4038   -6.7357 C   0  0  1  0  0  0  0  0  0  0  0  0
    6.6058   -0.0255   -7.0349 C   0  0  0  0  0  0  0  0  0  0  0  0
    7.7430   -1.1046   -5.2113 C   0  0  0  0  0  0  0  0  0  0  0  0
    1.6504    1.3548   -1.9813 C   0  0  0  0  0  0  0  0  0  0  0  0
    0.2396   -0.7083   -2.6444 C   0  0  2  0  0  0  0  0  0  0  0  0
   -0.5824    0.0190   -3.7680 C   0  0  2  0  0  0  0  0  0  0  0  0
    4.5841    1.5361   -8.1097 F   0  0  0  0  0  0  0  0  0  0  0  0
    7.6145   -0.8463   -6.5613 C   0  0  0  0  0  0  0  0  0  0  0  0
   -0.4226   -0.7565   -1.3037 C   0  0  0  0  0  0  0  0  0  0  0  0
   -1.6088   -0.9074   -4.4731 C   0  0  0  0  0  0  0  0  0  0  0  0
    8.4188   -1.3714   -7.3667 O   0  0  0  0  0  0  0  0  0  0  0  0
   -0.4002   -1.9886   -0.4816 C   0  0  2  0  0  0  0  0  0  0  0  0
   -1.0038    0.2602   -0.8542 O   0  0  0  0  0  0  0  0  0  0  0  0
   -1.1204   -1.8725    0.7429 O   0  0  0  0  0  0  0  0  0  0  0  0
    3.2351    1.6862   -4.3202 H   0  0  0  0  0  0  0  0  0  0  0  0
    1.8297   -0.9784   -4.6847 H   0  0  0  0  0  0  0  0  0  0  0  0
    4.9719   -1.2118   -2.3410 H   0  0  0  0  0  0  0  0  0  0  0  0
    3.0794   -0.1255   -6.7609 H   0  0  0  0  0  0  0  0  0  0  0  0
    2.4654    1.5245   -6.6122 H   0  0  0  0  0  0  0  0  0  0  0  0
    5.4239    2.4964   -4.1046 H   0  0  0  0  0  0  0  0  0  0  0  0
    6.5513    1.6780   -3.0403 H   0  0  0  0  0  0  0  0  0  0  0  0
    7.0821    2.2034   -4.6247 H   0  0  0  0  0  0  0  0  0  0  0  0
    7.0532   -0.7517   -3.3630 H   0  0  0  0  0  0  0  0  0  0  0  0
    4.5473    0.4236   -0.9282 H   0  0  0  0  0  0  0  0  0  0  0  0
    2.7199   -1.9570   -2.5550 H   0  0  0  0  0  0  0  0  0  0  0  0
    2.8058   -0.9891   -1.1000 H   0  0  0  0  0  0  0  0  0  0  0  0
    0.2809    0.3552   -5.7922 H   0  0  0  0  0  0  0  0  0  0  0  0
    0.4865    1.7168   -4.6824 H   0  0  0  0  0  0  0  0  0  0  0  0
    4.7300    2.4224   -6.3585 H   0  0  0  0  0  0  0  0  0  0  0  0
    6.5454    0.1014   -8.0187 H   0  0  0  0  0  0  0  0  0  0  0  0
    8.4625   -1.7133   -4.8929 H   0  0  0  0  0  0  0  0  0  0  0  0
    1.6084    1.2141   -0.9003 H   0  0  0  0  0  0  0  0  0  0  0  0
    0.7916    1.9624   -2.2656 H   0  0  0  0  0  0  0  0  0  0  0  0
    2.5316    1.9519   -2.1939 H   0  0  0  0  0  0  0  0  0  0  0  0
    0.3521   -1.7529   -2.9583 H   0  0  0  0  0  0  0  0  0  0  0  0
   -1.1527    0.8483   -3.3375 H   0  0  0  0  0  0  0  0  0  0  0  0
   -1.1015   -1.7287   -4.9827 H   0  0  0  0  0  0  0  0  0  0  0  0
   -2.3067   -1.3241   -3.7454 H   0  0  0  0  0  0  0  0  0  0  0  0
   -2.1801   -0.3410   -5.2112 H   0  0  0  0  0  0  0  0  0  0  0  0
    0.6321   -2.2571   -0.2517 H   0  0  0  0  0  0  0  0  0  0  0  0
   -0.8520   -2.8044   -1.0478 H   0  0  0  0  0  0  0  0  0  0  0  0
   -0.6178   -1.2214    1.2745 H   0  0  0  0  0  0  0  0  0  0  0  0
  2  1  1  0  0  0  0 
  3  2  1  0  0  0  0 
  2  4  1  0  0  0  0 
  2  5  1  0  0  0  0 
  6  3  1  0  0  0  0 
  3  7  1  0  0  0  0 
  3 29  1  0  0  0  0 
  4  8  1  0  0  0  0 
  4  9  1  0  0  0  0 
  4 10  1  0  0  0  0 
  5 11  1  0  0  0  0 
  5 12  1  0  0  0  0 
 13  6  1  0  0  0  0 
  6 14  1  0  0  0  0 
  6 30  1  0  0  0  0 
 15  7  1  0  0  0  0 
 15  9  1  0  0  0  0 
  9 16  2  0  0  0  0 
 10 17  2  0  0  0  0 
 13 12  1  0  0  0  0 
 13 18  1  0  0  0  0 
 13 19  1  0  0  0  0 
 20 14  1  0  0  0  0 
 15 21  1  0  0  0  0 
 16 22  1  0  0  0  0 
 17 22  1  0  0  0  0 
 19 20  1  0  0  0  0 
 19 23  1  0  0  0  0 
 20 24  1  0  0  0  0 
 22 25  2  0  0  0  0 
 23 26  1  0  0  0  0 
 23 27  2  0  0  0  0 
 26 28  1  0  0  0  0 
  5 31  1  0  0  0  0 
  7 32  1  0  0  0  0 
  7 33  1  0  0  0  0 
  8 34  1  0  0  0  0 
  8 35  1  0  0  0  0 
  8 36  1  0  0  0  0 
 10 37  1  0  0  0  0 
 11 38  1  0  0  0  0 
 12 39  1  0  0  0  0 
 12 40  1  0  0  0  0 
 14 41  1  0  0  0  0 
 14 42  1  0  0  0  0 
 15 43  1  0  0  0  0 
 16 44  1  0  0  0  0 
 17 45  1  0  0  0  0 
 18 46  1  0  0  0  0 
 18 47  1  0  0  0  0 
 18 48  1  0  0  0  0 
 19 49  1  0  0  0  0 
 20 50  1  0  0  0  0 
 24 51  1  0  0  0  0 
 24 52  1  0  0  0  0 
 24 53  1  0  0  0  0 
 26 54  1  0  0  0  0 
 26 55  1  0  0  0  0 
 28 56  1  0  0  0  0 
M  END
> <cdk:Title>
diflucortolone

> <Conformer>
1

> <SuperDrugID>
SD002723

$$$$
