etofamide
  CDK     0628171801

 48 49  0  0  0  0  0  0  0  0999 V2000
    4.4106   -0.8231   -8.1417 C   0  0  2  0  0  0  0  0  0  0  0  0
    4.1816   -0.3730   -6.7623 N   0  0  0  0  0  0  0  0  0  0  0  0
    5.3849   -1.9201   -8.4265 C   0  0  0  0  0  0  0  0  0  0  0  0
    2.9374    0.3694   -6.5642 C   0  0  1  0  0  0  0  0  0  0  0  0
    5.1220   -0.5523   -5.7290 C   0  0  0  0  0  0  0  0  0  0  0  0
    5.1715   -3.2235   -7.9189 C   0  0  0  0  0  0  0  0  0  0  0  0
    6.5372   -1.6838   -9.2139 C   0  0  0  0  0  0  0  0  0  0  0  0
    1.6681   -0.5213   -6.4932 C   0  0  1  0  0  0  0  0  0  0  0  0
    4.9903   -0.1615   -4.2918 C   0  0  2  0  0  0  0  0  0  0  0  0
    6.2397   -1.0643   -5.9829 O   0  0  0  0  0  0  0  0  0  0  0  0
    6.0917   -4.2581   -8.1855 C   0  0  0  0  0  0  0  0  0  0  0  0
    7.4532   -2.7176   -9.4814 C   0  0  0  0  0  0  0  0  0  0  0  0
    0.5847    0.2451   -5.9287 O   0  0  0  0  0  0  0  0  0  0  0  0
    3.5464   -0.8033   -3.5123 Cl  0  0  0  0  0  0  0  0  0  0  0  0
    5.0947    1.5836   -4.0784 Cl  0  0  0  0  0  0  0  0  0  0  0  0
    7.2493   -4.0081   -8.9558 C   0  0  0  0  0  0  0  0  0  0  0  0
   -0.6851   -0.4317   -5.8880 C   0  0  2  0  0  0  0  0  0  0  0  0
    8.1619   -4.9935   -9.2413 O   0  0  0  0  0  0  0  0  0  0  0  0
   -1.6850    0.4108   -5.0736 C   0  0  0  0  0  0  0  0  0  0  0  0
    8.9830   -5.2712   -8.1786 C   0  0  0  0  0  0  0  0  0  0  0  0
    8.7194   -6.4044   -7.3878 C   0  0  0  0  0  0  0  0  0  0  0  0
   10.1063   -4.4724   -7.8790 C   0  0  0  0  0  0  0  0  0  0  0  0
    9.5386   -6.7122   -6.2872 C   0  0  0  0  0  0  0  0  0  0  0  0
   10.9272   -4.7853   -6.7769 C   0  0  0  0  0  0  0  0  0  0  0  0
   10.6619   -5.9104   -5.9531 C   0  0  0  0  0  0  0  0  0  0  0  0
   11.4505   -6.2085   -4.9037 N   0  0  0  0  0  0  0  0  0  0  0  0
   11.4246   -7.2491   -4.3702 O   0  0  0  0  0  0  0  0  0  0  0  0
   12.2866   -5.3806   -4.4183 O   0  0  0  0  0  0  0  0  0  0  0  0
    4.6866    0.0684   -8.7135 H   0  0  0  0  0  0  0  0  0  0  0  0
    3.4731   -1.1741   -8.5809 H   0  0  0  0  0  0  0  0  0  0  0  0
    2.9661    0.9828   -5.6656 H   0  0  0  0  0  0  0  0  0  0  0  0
    2.8004    1.0894   -7.3791 H   0  0  0  0  0  0  0  0  0  0  0  0
    4.3444   -3.4276   -7.3515 H   0  0  0  0  0  0  0  0  0  0  0  0
    6.7216   -0.7559   -9.6003 H   0  0  0  0  0  0  0  0  0  0  0  0
    1.4036   -0.8644   -7.4966 H   0  0  0  0  0  0  0  0  0  0  0  0
    1.8705   -1.3940   -5.8684 H   0  0  0  0  0  0  0  0  0  0  0  0
    5.8242   -0.5708   -3.7118 H   0  0  0  0  0  0  0  0  0  0  0  0
    5.9140   -5.1959   -7.8187 H   0  0  0  0  0  0  0  0  0  0  0  0
    8.2754   -2.5274  -10.0587 H   0  0  0  0  0  0  0  0  0  0  0  0
   -0.5911   -1.4127   -5.4132 H   0  0  0  0  0  0  0  0  0  0  0  0
   -1.0711   -0.5623   -6.9032 H   0  0  0  0  0  0  0  0  0  0  0  0
   -1.8099    1.3952   -5.5300 H   0  0  0  0  0  0  0  0  0  0  0  0
   -2.6567   -0.0889   -5.0400 H   0  0  0  0  0  0  0  0  0  0  0  0
   -1.3194    0.5348   -4.0528 H   0  0  0  0  0  0  0  0  0  0  0  0
    7.9274   -7.0090   -7.6151 H   0  0  0  0  0  0  0  0  0  0  0  0
   10.3309   -3.6642   -8.4653 H   0  0  0  0  0  0  0  0  0  0  0  0
    9.3017   -7.5321   -5.7251 H   0  0  0  0  0  0  0  0  0  0  0  0
   11.7309   -4.1807   -6.5863 H   0  0  0  0  0  0  0  0  0  0  0  0
  1  2  1  0  0  0  0 
  1  3  1  0  0  0  0 
  2  4  1  0  0  0  0 
  2  5  1  0  0  0  0 
  3  6  2  0  0  0  0 
  3  7  1  0  0  0  0 
  4  8  1  0  0  0  0 
  5  9  1  0  0  0  0 
  5 10  2  0  0  0  0 
  6 11  1  0  0  0  0 
  7 12  2  0  0  0  0 
  8 13  1  0  0  0  0 
  9 14  1  0  0  0  0 
  9 15  1  0  0  0  0 
 11 16  2  0  0  0  0 
 12 16  1  0  0  0  0 
 13 17  1  0  0  0  0 
 16 18  1  0  0  0  0 
 17 19  1  0  0  0  0 
 18 20  1  0  0  0  0 
 20 21  2  0  0  0  0 
 20 22  1  0  0  0  0 
 21 23  1  0  0  0  0 
 22 24  2  0  0  0  0 
 23 25  2  0  0  0  0 
 24 25  1  0  0  0  0 
 25 26  1  0  0  0  0 
 26 27  2  0  0  0  0 
 26 28  1  0  0  0  0 
  1 29  1  0  0  0  0 
  1 30  1  0  0  0  0 
  4 31  1  0  0  0  0 
  4 32  1  0  0  0  0 
  6 33  1  0  0  0  0 
  7 34  1  0  0  0  0 
  8 35  1  0  0  0  0 
  8 36  1  0  0  0  0 
  9 37  1  0  0  0  0 
 11 38  1  0  0  0  0 
 12 39  1  0  0  0  0 
 17 40  1  0  0  0  0 
 17 41  1  0  0  0  0 
 19 42  1  0  0  0  0 
 19 43  1  0  0  0  0 
 19 44  1  0  0  0  0 
 21 45  1  0  0  0  0 
 22 46  1  0  0  0  0 
 23 47  1  0  0  0  0 
 24 48  1  0  0  0  0 
M  CHG  1  26   1
M  CHG  1  28  -1
M  END
> <cdk:Title>
etofamide

> <Conformer>
1

> <SuperDrugID>
SD000986

$$$$
