nimustine
  CDK     0628171801

 31 31  0  0  0  0  0  0  0  0999 V2000
    1.8136    3.1803    3.0170 C   0  0  1  0  0  0  0  0  0  0  0  0
    0.7625    2.2182    3.1537 N   0  0  0  0  0  0  0  0  0  0  0  0
    1.7877    3.8935    1.7072 C   0  0  0  0  0  0  0  0  0  0  0  0
    0.6202    1.0697    2.4219 C   0  0  0  0  0  0  0  0  0  0  0  0
    0.7082    4.7176    1.3015 C   0  0  0  0  0  0  0  0  0  0  0  0
    2.8601    3.7728    0.7932 C   0  0  0  0  0  0  0  0  0  0  0  0
   -0.4163    0.1731    2.6211 N   0  0  0  0  0  0  0  0  0  0  0  0
    1.4732    0.8349    1.5293 O   0  0  0  0  0  0  0  0  0  0  0  0
   -0.3648    4.9573    2.0779 N   0  0  0  0  0  0  0  0  0  0  0  0
    0.7278    5.3145    0.0826 N   0  0  0  0  0  0  0  0  0  0  0  0
    2.8207    4.3963   -0.4117 N   0  0  0  0  0  0  0  0  0  0  0  0
   -1.4298    0.2958    3.6508 C   0  0  1  0  0  0  0  0  0  0  0  0
   -0.4995   -0.8449    1.8521 N   0  0  0  0  0  0  0  0  0  0  0  0
    1.7619    5.1611   -0.7842 C   0  0  0  0  0  0  0  0  0  0  0  0
   -1.5597   -0.9596    4.5497 C   0  0  1  0  0  0  0  0  0  0  0  0
   -1.1366   -0.8472    0.8737 O   0  0  0  0  0  0  0  0  0  0  0  0
    1.7238    5.8167   -2.1011 C   0  0  0  0  0  0  0  0  0  0  0  0
   -2.7975   -0.7250    5.7804 Cl  0  0  0  0  0  0  0  0  0  0  0  0
    1.7045    3.9135    3.8189 H   0  0  0  0  0  0  0  0  0  0  0  0
    2.7691    2.6740    3.1843 H   0  0  0  0  0  0  0  0  0  0  0  0
    0.0952    2.4116    3.8266 H   0  0  0  0  0  0  0  0  0  0  0  0
    3.6795    3.2073    1.0234 H   0  0  0  0  0  0  0  0  0  0  0  0
   -0.4260    4.5667    2.9631 H   0  0  0  0  0  0  0  0  0  0  0  0
   -1.0791    5.5299    1.7532 H   0  0  0  0  0  0  0  0  0  0  0  0
   -1.2450    1.1459    4.3098 H   0  0  0  0  0  0  0  0  0  0  0  0
   -2.3935    0.4762    3.1665 H   0  0  0  0  0  0  0  0  0  0  0  0
   -1.8487   -1.8243    3.9497 H   0  0  0  0  0  0  0  0  0  0  0  0
   -0.6073   -1.1727    5.0403 H   0  0  0  0  0  0  0  0  0  0  0  0
    0.8539    5.4671   -2.6606 H   0  0  0  0  0  0  0  0  0  0  0  0
    2.6226    5.5922   -2.6789 H   0  0  0  0  0  0  0  0  0  0  0  0
    1.6563    6.8983   -1.9718 H   0  0  0  0  0  0  0  0  0  0  0  0
  1  2  1  0  0  0  0 
  1  3  1  0  0  0  0 
  2  4  1  0  0  0  0 
  3  5  2  0  0  0  0 
  3  6  1  0  0  0  0 
  4  7  1  0  0  0  0 
  4  8  2  0  0  0  0 
  5  9  1  0  0  0  0 
  5 10  1  0  0  0  0 
  6 11  2  0  0  0  0 
  7 12  1  0  0  0  0 
  7 13  1  0  0  0  0 
 10 14  2  0  0  0  0 
 11 14  1  0  0  0  0 
 12 15  1  0  0  0  0 
 13 16  2  0  0  0  0 
 14 17  1  0  0  0  0 
 15 18  1  0  0  0  0 
 19  1  1  0  0  0  0 
 20  1  1  0  0  0  0 
 21  2  1  0  0  0  0 
 22  6  1  0  0  0  0 
 23  9  1  0  0  0  0 
 24  9  1  0  0  0  0 
 25 12  1  0  0  0  0 
 26 12  1  0  0  0  0 
 27 15  1  0  0  0  0 
 28 15  1  0  0  0  0 
 29 17  1  0  0  0  0 
 30 17  1  0  0  0  0 
 31 17  1  0  0  0  0 
M  END
> <cdk:Title>
nimustine

> <Conformer>
1

> <SuperDrugID>
SD002914

$$$$
