mitopodozide
  CDK     0628171801

 64 67  0  0  0  0  0  0  0  0999 V2000
    2.9224   -4.7154    0.6700 C   0  0  0  0  0  0  0  0  0  0  0  0
    2.9793   -5.3926    1.8510 N   0  0  0  0  0  0  0  0  0  0  0  0
    3.8119   -4.9123   -0.1902 O   0  0  0  0  0  0  0  0  0  0  0  0
    1.7534   -3.8209    0.3810 C   0  0  2  0  0  0  0  0  0  0  0  0
    3.9558   -6.2834    2.1518 N   0  0  2  0  0  0  0  0  0  0  0  0
    0.6865   -4.4223   -0.6113 C   0  0  1  0  0  0  0  0  0  0  0  0
    2.1680   -2.3535    0.0030 C   0  0  2  0  0  0  0  0  0  0  0  0
    3.4670   -7.6692    2.3111 C   0  0  1  0  0  0  0  0  0  0  0  0
    0.7378   -3.9283   -2.0305 C   0  0  0  0  0  0  0  0  0  0  0  0
    0.6000   -5.9227   -0.4800 C   0  0  0  0  0  0  0  0  0  0  0  0
    1.0700   -1.3076    0.3901 C   0  0  1  0  0  0  0  0  0  0  0  0
    2.5482   -2.2037   -1.5117 C   0  0  2  0  0  0  0  0  0  0  0  0
    4.7751   -8.5953    2.4818 C   0  0  0  0  0  0  0  0  0  0  0  0
    1.6290   -2.8972   -2.4593 C   0  0  0  0  0  0  0  0  0  0  0  0
   -0.1705   -4.4838   -2.9721 C   0  0  0  0  0  0  0  0  0  0  0  0
   -0.2704   -6.5046    0.4721 C   0  0  0  0  0  0  0  0  0  0  0  0
    1.4034   -6.7878   -1.2668 C   0  0  0  0  0  0  0  0  0  0  0  0
    0.7549   -1.3381    1.7796 O   0  0  0  0  0  0  0  0  0  0  0  0
    3.8860   -2.6149   -1.7874 O   0  0  0  0  0  0  0  0  0  0  0  0
    1.6398   -2.5052   -3.8257 C   0  0  0  0  0  0  0  0  0  0  0  0
   -0.1250   -4.0885   -4.3141 C   0  0  0  0  0  0  0  0  0  0  0  0
   -0.3431   -7.9013    0.6380 C   0  0  0  0  0  0  0  0  0  0  0  0
    1.3253   -8.1881   -1.1261 C   0  0  0  0  0  0  0  0  0  0  0  0
    0.7604   -3.1152   -4.7352 C   0  0  0  0  0  0  0  0  0  0  0  0
   -0.8794   -4.5597   -5.3223 O   0  0  0  0  0  0  0  0  0  0  0  0
   -1.1921   -8.4359    1.5692 O   0  0  0  0  0  0  0  0  0  0  0  0
    0.4351   -8.7452   -0.1829 C   0  0  0  0  0  0  0  0  0  0  0  0
    2.0819   -9.0022   -1.9288 O   0  0  0  0  0  0  0  0  0  0  0  0
    0.6215   -2.8672   -6.0537 O   0  0  0  0  0  0  0  0  0  0  0  0
   -0.2463   -3.9464   -6.4573 C   0  0  2  0  0  0  0  0  0  0  0  0
   -0.5876   -8.5893    2.8653 C   0  0  0  0  0  0  0  0  0  0  0  0
    0.3418  -10.1045   -0.0464 O   0  0  0  0  0  0  0  0  0  0  0  0
    3.3911   -9.2712   -1.3979 C   0  0  0  0  0  0  0  0  0  0  0  0
   -0.6913  -10.6704   -0.8743 C   0  0  0  0  0  0  0  0  0  0  0  0
    2.2742   -5.2470    2.5019 H   0  0  0  0  0  0  0  0  0  0  0  0
    1.2337   -3.7564    1.3415 H   0  0  0  0  0  0  0  0  0  0  0  0
    4.4057   -5.9845    3.0217 H   0  0  0  0  0  0  0  0  0  0  0  0
   -0.2778   -4.0241   -0.2748 H   0  0  0  0  0  0  0  0  0  0  0  0
    3.0469   -2.0782    0.5970 H   0  0  0  0  0  0  0  0  0  0  0  0
    2.7567   -7.6622    3.1822 H   0  0  0  0  0  0  0  0  0  0  0  0
    2.8215   -7.9104    1.4249 H   0  0  0  0  0  0  0  0  0  0  0  0
    1.4204   -0.2960    0.1708 H   0  0  0  0  0  0  0  0  0  0  0  0
    0.1533   -1.4797   -0.1793 H   0  0  0  0  0  0  0  0  0  0  0  0
    2.5453   -1.1349   -1.7463 H   0  0  0  0  0  0  0  0  0  0  0  0
    4.4709   -9.6242    2.6746 H   0  0  0  0  0  0  0  0  0  0  0  0
    5.3732   -8.5722    1.5668 H   0  0  0  0  0  0  0  0  0  0  0  0
    5.3812   -8.2459    3.3194 H   0  0  0  0  0  0  0  0  0  0  0  0
   -0.8622   -5.1822   -2.6918 H   0  0  0  0  0  0  0  0  0  0  0  0
   -0.8555   -5.9083    1.0615 H   0  0  0  0  0  0  0  0  0  0  0  0
    2.0522   -6.4020   -1.9584 H   0  0  0  0  0  0  0  0  0  0  0  0
    0.0830   -0.6334    1.9010 H   0  0  0  0  0  0  0  0  0  0  0  0
    3.8560   -3.5899   -1.8590 H   0  0  0  0  0  0  0  0  0  0  0  0
    2.2754   -1.7780   -4.1623 H   0  0  0  0  0  0  0  0  0  0  0  0
   -1.0161   -3.5770   -7.1369 H   0  0  0  0  0  0  0  0  0  0  0  0
    0.3440   -4.6981   -6.9896 H   0  0  0  0  0  0  0  0  0  0  0  0
   -1.3298   -9.0262    3.5338 H   0  0  0  0  0  0  0  0  0  0  0  0
    0.2750   -9.2596    2.8332 H   0  0  0  0  0  0  0  0  0  0  0  0
   -0.2866   -7.6237    3.2777 H   0  0  0  0  0  0  0  0  0  0  0  0
    3.8897   -9.9633   -2.0762 H   0  0  0  0  0  0  0  0  0  0  0  0
    3.9896   -8.3591   -1.3443 H   0  0  0  0  0  0  0  0  0  0  0  0
    3.3423   -9.7400   -0.4110 H   0  0  0  0  0  0  0  0  0  0  0  0
   -0.7377  -11.7410   -0.6744 H   0  0  0  0  0  0  0  0  0  0  0  0
   -1.6720  -10.2411   -0.6477 H   0  0  0  0  0  0  0  0  0  0  0  0
   -0.4702  -10.5322   -1.9363 H   0  0  0  0  0  0  0  0  0  0  0  0
  1  2  1  0  0  0  0 
  1  3  2  0  0  0  0 
  2  5  1  0  0  0  0 
  4  1  1  0  0  0  0 
  4  6  1  0  0  0  0 
  7  4  1  0  0  0  0 
  5  8  1  0  0  0  0 
  6  9  1  0  0  0  0 
  6 10  1  0  0  0  0 
  7 11  1  0  0  0  0 
 12  7  1  0  0  0  0 
  8 13  1  0  0  0  0 
  9 14  2  0  0  0  0 
  9 15  1  0  0  0  0 
 10 16  2  0  0  0  0 
 10 17  1  0  0  0  0 
 11 18  1  0  0  0  0 
 12 14  1  0  0  0  0 
 12 19  1  0  0  0  0 
 14 20  1  0  0  0  0 
 15 21  2  0  0  0  0 
 16 22  1  0  0  0  0 
 17 23  2  0  0  0  0 
 20 24  2  0  0  0  0 
 21 24  1  0  0  0  0 
 21 25  1  0  0  0  0 
 22 26  1  0  0  0  0 
 22 27  2  0  0  0  0 
 23 27  1  0  0  0  0 
 23 28  1  0  0  0  0 
 24 29  1  0  0  0  0 
 25 30  1  0  0  0  0 
 26 31  1  0  0  0  0 
 27 32  1  0  0  0  0 
 28 33  1  0  0  0  0 
 29 30  1  0  0  0  0 
 32 34  1  0  0  0  0 
  2 35  1  0  0  0  0 
  4 36  1  0  0  0  0 
  5 37  1  0  0  0  0 
  6 38  1  0  0  0  0 
  7 39  1  0  0  0  0 
  8 40  1  0  0  0  0 
  8 41  1  0  0  0  0 
 11 42  1  0  0  0  0 
 11 43  1  0  0  0  0 
 12 44  1  0  0  0  0 
 13 45  1  0  0  0  0 
 13 46  1  0  0  0  0 
 13 47  1  0  0  0  0 
 15 48  1  0  0  0  0 
 16 49  1  0  0  0  0 
 17 50  1  0  0  0  0 
 18 51  1  0  0  0  0 
 19 52  1  0  0  0  0 
 20 53  1  0  0  0  0 
 30 54  1  0  0  0  0 
 30 55  1  0  0  0  0 
 31 56  1  0  0  0  0 
 31 57  1  0  0  0  0 
 31 58  1  0  0  0  0 
 33 59  1  0  0  0  0 
 33 60  1  0  0  0  0 
 33 61  1  0  0  0  0 
 34 62  1  0  0  0  0 
 34 63  1  0  0  0  0 
 34 64  1  0  0  0  0 
M  END
> <cdk:Title>
mitopodozide

> <Conformer>
1

> <SuperDrugID>
SD002076

$$$$
