cortisone acetate
  CDK     0628171802

 59 62  0  0  0  0  0  0  0  0999 V2000
   -2.8476   -4.4770    0.1140 C   0  0  0  0  0  0  0  0  0  0  0  0
   -3.4041   -3.0077   -0.0545 C   0  0  2  0  0  0  0  0  0  0  0  0
   -4.7570   -2.9065   -0.8411 C   0  0  2  0  0  0  0  0  0  0  0  0
   -2.4739   -2.1640   -1.0114 C   0  0  2  0  0  0  0  0  0  0  0  0
   -3.6799   -2.4198    1.3740 C   0  0  2  0  0  0  0  0  0  0  0  0
   -5.9235   -3.7145   -0.1842 C   0  0  1  0  0  0  0  0  0  0  0  0
   -4.3724   -3.1888   -2.3060 C   0  0  1  0  0  0  0  0  0  0  0  0
   -0.9937   -2.3089   -0.7861 C   0  0  0  0  0  0  0  0  0  0  0  0
   -2.8014   -0.7654   -0.9241 O   0  0  0  0  0  0  0  0  0  0  0  0
   -2.9433   -2.6032   -2.4426 C   0  0  1  0  0  0  0  0  0  0  0  0
   -4.8382   -3.1108    2.0193 C   0  0  0  0  0  0  0  0  0  0  0  0
   -6.1584   -3.2210    1.2972 C   0  0  2  0  0  0  0  0  0  0  0  0
   -7.2521   -3.5836   -0.9832 C   0  0  1  0  0  0  0  0  0  0  0  0
   -0.2168   -1.4203    0.1061 C   0  0  2  0  0  0  0  0  0  0  0  0
   -0.3576   -3.2383   -1.3364 O   0  0  0  0  0  0  0  0  0  0  0  0
   -4.6426   -3.6159    3.1490 O   0  0  0  0  0  0  0  0  0  0  0  0
   -7.3707   -3.9744    2.0208 C   0  0  2  0  0  0  0  0  0  0  0  0
   -8.3842   -4.3824   -0.2987 C   0  0  2  0  0  0  0  0  0  0  0  0
   -0.1524   -0.1187   -0.4898 O   0  0  0  0  0  0  0  0  0  0  0  0
   -7.0092   -5.4612    2.3770 C   0  0  0  0  0  0  0  0  0  0  0  0
   -8.5692   -4.0150    1.1165 C   0  0  0  0  0  0  0  0  0  0  0  0
   -7.7270   -3.2026    3.3573 C   0  0  1  0  0  0  0  0  0  0  0  0
   -9.8277   -3.7836    1.5653 C   0  0  0  0  0  0  0  0  0  0  0  0
   -9.1103   -3.5722    3.9494 C   0  0  1  0  0  0  0  0  0  0  0  0
  -10.1391   -3.5335    2.8920 C   0  0  0  0  0  0  0  0  0  0  0  0
  -11.3292   -3.3054    3.2169 O   0  0  0  0  0  0  0  0  0  0  0  0
    0.9222    0.4883   -1.0694 C   0  0  0  0  0  0  0  0  0  0  0  0
    0.7354    1.8252   -1.6467 C   0  0  0  0  0  0  0  0  0  0  0  0
    2.0392   -0.0744   -1.1359 O   0  0  0  0  0  0  0  0  0  0  0  0
   -3.5227   -5.1153    0.6825 H   0  0  0  0  0  0  0  0  0  0  0  0
   -2.6721   -4.9581   -0.8474 H   0  0  0  0  0  0  0  0  0  0  0  0
   -1.8991   -4.4641    0.6549 H   0  0  0  0  0  0  0  0  0  0  0  0
   -5.0951   -1.8604   -0.8280 H   0  0  0  0  0  0  0  0  0  0  0  0
   -3.9214   -1.3559    1.3164 H   0  0  0  0  0  0  0  0  0  0  0  0
   -2.7793   -2.5069    1.9895 H   0  0  0  0  0  0  0  0  0  0  0  0
   -5.6454   -4.7703   -0.1917 H   0  0  0  0  0  0  0  0  0  0  0  0
   -4.3783   -4.2644   -2.5067 H   0  0  0  0  0  0  0  0  0  0  0  0
   -5.0661   -2.7012   -2.9964 H   0  0  0  0  0  0  0  0  0  0  0  0
   -2.5734   -0.4909   -0.0117 H   0  0  0  0  0  0  0  0  0  0  0  0
   -2.9453   -1.7552   -3.1335 H   0  0  0  0  0  0  0  0  0  0  0  0
   -2.2976   -3.3698   -2.8777 H   0  0  0  0  0  0  0  0  0  0  0  0
   -6.4793   -2.1772    1.2009 H   0  0  0  0  0  0  0  0  0  0  0  0
   -7.5473   -2.5325   -1.0630 H   0  0  0  0  0  0  0  0  0  0  0  0
   -7.1176   -3.9706   -1.9970 H   0  0  0  0  0  0  0  0  0  0  0  0
    0.7869   -1.8214    0.2762 H   0  0  0  0  0  0  0  0  0  0  0  0
   -0.7056   -1.3473    1.0784 H   0  0  0  0  0  0  0  0  0  0  0  0
   -8.1435   -5.4476   -0.3507 H   0  0  0  0  0  0  0  0  0  0  0  0
   -9.2906   -4.2445   -0.8975 H   0  0  0  0  0  0  0  0  0  0  0  0
   -6.2778   -5.5163    3.1821 H   0  0  0  0  0  0  0  0  0  0  0  0
   -6.5925   -5.9930    1.5229 H   0  0  0  0  0  0  0  0  0  0  0  0
   -7.8907   -6.0152    2.7067 H   0  0  0  0  0  0  0  0  0  0  0  0
   -6.9728   -3.3707    4.1276 H   0  0  0  0  0  0  0  0  0  0  0  0
   -7.7473   -2.1257    3.1650 H   0  0  0  0  0  0  0  0  0  0  0  0
  -10.5913   -3.8096    0.9263 H   0  0  0  0  0  0  0  0  0  0  0  0
   -9.0873   -4.5739    4.3862 H   0  0  0  0  0  0  0  0  0  0  0  0
   -9.3602   -2.8652    4.7468 H   0  0  0  0  0  0  0  0  0  0  0  0
    0.4392    2.5210   -0.8630 H   0  0  0  0  0  0  0  0  0  0  0  0
    1.6533    2.1909   -2.1098 H   0  0  0  0  0  0  0  0  0  0  0  0
   -0.0469    1.7891   -2.4046 H   0  0  0  0  0  0  0  0  0  0  0  0
  2  1  1  0  0  0  0 
  2  3  1  0  0  0  0 
  2  4  1  0  0  0  0 
  2  5  1  0  0  0  0 
  3  6  1  0  0  0  0 
  3  7  1  0  0  0  0 
  4  8  1  0  0  0  0 
  4  9  1  0  0  0  0 
  4 10  1  0  0  0  0 
  5 11  1  0  0  0  0 
  6 12  1  0  0  0  0 
  6 13  1  0  0  0  0 
  7 10  1  0  0  0  0 
  8 14  1  0  0  0  0 
  8 15  2  0  0  0  0 
 12 11  1  0  0  0  0 
 11 16  2  0  0  0  0 
 12 17  1  0  0  0  0 
 13 18  1  0  0  0  0 
 14 19  1  0  0  0  0 
 17 20  1  0  0  0  0 
 17 21  1  0  0  0  0 
 17 22  1  0  0  0  0 
 18 21  1  0  0  0  0 
 21 23  2  0  0  0  0 
 22 24  1  0  0  0  0 
 23 25  1  0  0  0  0 
 24 25  1  0  0  0  0 
 25 26  2  0  0  0  0 
 19 27  1  0  0  0  0 
 27 28  1  0  0  0  0 
 27 29  2  0  0  0  0 
 30  1  1  0  0  0  0 
 31  1  1  0  0  0  0 
 32  1  1  0  0  0  0 
  3 33  1  0  0  0  0 
 34  5  1  0  0  0  0 
 35  5  1  0  0  0  0 
  6 36  1  0  0  0  0 
 37  7  1  0  0  0  0 
 38  7  1  0  0  0  0 
 39  9  1  0  0  0  0 
 40 10  1  0  0  0  0 
 41 10  1  0  0  0  0 
 12 42  1  0  0  0  0 
 43 13  1  0  0  0  0 
 44 13  1  0  0  0  0 
 45 14  1  0  0  0  0 
 46 14  1  0  0  0  0 
 47 18  1  0  0  0  0 
 48 18  1  0  0  0  0 
 49 20  1  0  0  0  0 
 50 20  1  0  0  0  0 
 51 20  1  0  0  0  0 
 52 22  1  0  0  0  0 
 53 22  1  0  0  0  0 
 54 23  1  0  0  0  0 
 55 24  1  0  0  0  0 
 56 24  1  0  0  0  0 
 57 28  1  0  0  0  0 
 58 28  1  0  0  0  0 
 59 28  1  0  0  0  0 
M  END
> <cdk:Title>
cortisone acetate

> <Conformer>
1

> <SuperDrugID>
SD000646

$$$$
