cefoxitin
  CDK     0628171802

 45 47  0  0  0  0  0  0  0  0999 V2000
   -5.1247   -5.4524    0.1956 N   0  0  0  0  0  0  0  0  0  0  0  0
   -5.5144   -6.5833   -0.4585 C   0  0  0  0  0  0  0  0  0  0  0  0
   -3.9510   -5.3660    1.0124 C   0  0  1  0  0  0  0  0  0  0  0  0
   -6.7816   -6.6191   -1.2197 C   0  0  1  0  0  0  0  0  0  0  0  0
   -4.8186   -7.6258   -0.3976 O   0  0  0  0  0  0  0  0  0  0  0  0
   -3.9153   -6.2752    2.1378 O   0  0  0  0  0  0  0  0  0  0  0  0
   -2.5934   -5.3992    0.2345 C   0  0  2  0  0  0  0  0  0  0  0  0
   -3.5214   -4.0077    1.3664 C   0  0  0  0  0  0  0  0  0  0  0  0
   -6.8161   -5.6558   -2.3408 C   0  0  0  0  0  0  0  0  0  0  0  0
   -5.0001   -6.1648    3.0773 C   0  0  0  0  0  0  0  0  0  0  0  0
   -2.3372   -4.1019    0.7436 N   0  0  0  0  0  0  0  0  0  0  0  0
   -2.5285   -5.1530   -1.5696 S   0  0  0  0  0  0  0  0  0  0  0  0
   -4.0727   -3.0875    2.0129 O   0  0  0  0  0  0  0  0  0  0  0  0
   -6.8211   -5.9395   -3.7148 C   0  0  0  0  0  0  0  0  0  0  0  0
   -6.9304   -3.9079   -2.2032 S   0  0  0  0  0  0  0  0  0  0  0  0
   -1.2825   -3.2812    0.5643 C   0  0  0  0  0  0  0  0  0  0  0  0
   -0.9218   -4.2838   -1.6959 C   0  0  1  0  0  0  0  0  0  0  0  0
   -6.9184   -4.8252   -4.5692 C   0  0  0  0  0  0  0  0  0  0  0  0
   -6.9980   -3.5892   -3.9253 C   0  0  0  0  0  0  0  0  0  0  0  0
   -0.9903   -2.4207    1.6277 C   0  0  0  0  0  0  0  0  0  0  0  0
   -0.5610   -3.3666   -0.5927 C   0  0  0  0  0  0  0  0  0  0  0  0
   -1.2023   -2.8122    2.9079 O   0  0  0  0  0  0  0  0  0  0  0  0
   -0.5417   -1.2622    1.4772 O   0  0  0  0  0  0  0  0  0  0  0  0
    0.6576   -2.5759   -0.8253 C   0  0  2  0  0  0  0  0  0  0  0  0
    0.3351   -1.2051   -1.0978 O   0  0  0  0  0  0  0  0  0  0  0  0
    1.2367   -0.2072   -1.3181 C   0  0  0  0  0  0  0  0  0  0  0  0
    0.7886    1.0422   -1.5000 N   0  0  0  0  0  0  0  0  0  0  0  0
    2.4708   -0.4165   -1.3505 O   0  0  0  0  0  0  0  0  0  0  0  0
   -5.6860   -4.6671    0.1213 H   0  0  0  0  0  0  0  0  0  0  0  0
   -6.9535   -7.6297   -1.6033 H   0  0  0  0  0  0  0  0  0  0  0  0
   -7.6038   -6.3986   -0.5366 H   0  0  0  0  0  0  0  0  0  0  0  0
   -1.8810   -6.1496    0.5936 H   0  0  0  0  0  0  0  0  0  0  0  0
   -4.8262   -6.8843    3.8776 H   0  0  0  0  0  0  0  0  0  0  0  0
   -5.9551   -6.4058    2.6080 H   0  0  0  0  0  0  0  0  0  0  0  0
   -5.0505   -5.1694    3.5216 H   0  0  0  0  0  0  0  0  0  0  0  0
   -6.7647   -6.8933   -4.0792 H   0  0  0  0  0  0  0  0  0  0  0  0
   -0.1530   -5.0588   -1.7570 H   0  0  0  0  0  0  0  0  0  0  0  0
   -0.9316   -3.7449   -2.6459 H   0  0  0  0  0  0  0  0  0  0  0  0
   -6.9323   -4.9118   -5.5865 H   0  0  0  0  0  0  0  0  0  0  0  0
   -7.0775   -2.6725   -4.3701 H   0  0  0  0  0  0  0  0  0  0  0  0
   -0.9971   -2.2040    3.6462 H   0  0  0  0  0  0  0  0  0  0  0  0
    1.2360   -2.9569   -1.6740 H   0  0  0  0  0  0  0  0  0  0  0  0
    1.3119   -2.6385    0.0493 H   0  0  0  0  0  0  0  0  0  0  0  0
    1.4165    1.7660   -1.6522 H   0  0  0  0  0  0  0  0  0  0  0  0
   -0.1632    1.2263   -1.4733 H   0  0  0  0  0  0  0  0  0  0  0  0
  1  2  1  0  0  0  0 
  3  1  1  0  0  0  0 
  2  4  1  0  0  0  0 
  2  5  2  0  0  0  0 
  3  6  1  0  0  0  0 
  3  7  1  0  0  0  0 
  3  8  1  0  0  0  0 
  4  9  1  0  0  0  0 
  6 10  1  0  0  0  0 
  7 11  1  0  0  0  0 
  7 12  1  0  0  0  0 
  8 11  1  0  0  0  0 
  8 13  2  0  0  0  0 
  9 14  2  0  0  0  0 
  9 15  1  0  0  0  0 
 11 16  1  0  0  0  0 
 12 17  1  0  0  0  0 
 14 18  1  0  0  0  0 
 15 19  1  0  0  0  0 
 16 20  1  0  0  0  0 
 16 21  2  0  0  0  0 
 17 21  1  0  0  0  0 
 18 19  2  0  0  0  0 
 20 22  1  0  0  0  0 
 20 23  2  0  0  0  0 
 21 24  1  0  0  0  0 
 24 25  1  0  0  0  0 
 25 26  1  0  0  0  0 
 26 27  1  0  0  0  0 
 26 28  2  0  0  0  0 
 29  1  1  0  0  0  0 
 30  4  1  0  0  0  0 
 31  4  1  0  0  0  0 
  7 32  1  0  0  0  0 
 33 10  1  0  0  0  0 
 34 10  1  0  0  0  0 
 35 10  1  0  0  0  0 
 36 14  1  0  0  0  0 
 37 17  1  0  0  0  0 
 38 17  1  0  0  0  0 
 39 18  1  0  0  0  0 
 40 19  1  0  0  0  0 
 41 22  1  0  0  0  0 
 42 24  1  0  0  0  0 
 43 24  1  0  0  0  0 
 44 27  1  0  0  0  0 
 45 27  1  0  0  0  0 
M  END
> <cdk:Title>
cefoxitin

> <Conformer>
1

> <SuperDrugID>
SD000478

$$$$
