phenazopyridine
  CDK     0628171801

 27 28  0  0  0  0  0  0  0  0999 V2000
   -0.0952   -2.2383   -0.0273 N   0  0  0  0  0  0  0  0  0  0  0  0
   -0.5287   -1.0896   -0.0230 N   0  0  0  0  0  0  0  0  0  0  0  0
   -0.8041   -3.3643   -0.0638 C   0  0  0  0  0  0  0  0  0  0  0  0
    0.1582    0.0453    0.0037 C   0  0  0  0  0  0  0  0  0  0  0  0
   -2.2192   -3.4513   -0.1814 C   0  0  0  0  0  0  0  0  0  0  0  0
   -0.0812   -4.5764    0.0239 C   0  0  0  0  0  0  0  0  0  0  0  0
   -0.5801    1.2503    0.0325 C   0  0  0  0  0  0  0  0  0  0  0  0
    1.5730    0.1115    0.0006 C   0  0  0  0  0  0  0  0  0  0  0  0
   -3.0454   -2.3893   -0.2542 N   0  0  0  0  0  0  0  0  0  0  0  0
   -2.8208   -4.6681   -0.2244 N   0  0  0  0  0  0  0  0  0  0  0  0
   -0.7418   -5.8180   -0.0199 C   0  0  0  0  0  0  0  0  0  0  0  0
    0.0776    2.4960    0.0304 C   0  0  0  0  0  0  0  0  0  0  0  0
    2.2291    1.3577   -0.0032 C   0  0  0  0  0  0  0  0  0  0  0  0
   -2.1413   -5.8390   -0.1535 C   0  0  0  0  0  0  0  0  0  0  0  0
    1.4829    2.5502    0.0051 C   0  0  0  0  0  0  0  0  0  0  0  0
   -2.8160   -7.0006   -0.2100 N   0  0  0  0  0  0  0  0  0  0  0  0
    0.9374   -4.5678    0.1257 H   0  0  0  0  0  0  0  0  0  0  0  0
   -1.6040    1.2310    0.0544 H   0  0  0  0  0  0  0  0  0  0  0  0
    2.1333   -0.7435   -0.0016 H   0  0  0  0  0  0  0  0  0  0  0  0
   -2.6979   -1.4869   -0.2595 H   0  0  0  0  0  0  0  0  0  0  0  0
   -4.0034   -2.5286   -0.2991 H   0  0  0  0  0  0  0  0  0  0  0  0
   -0.2070   -6.6899    0.0435 H   0  0  0  0  0  0  0  0  0  0  0  0
   -0.4655    3.3623    0.0500 H   0  0  0  0  0  0  0  0  0  0  0  0
    3.2505    1.3972   -0.0096 H   0  0  0  0  0  0  0  0  0  0  0  0
    1.9610    3.4549   -0.0060 H   0  0  0  0  0  0  0  0  0  0  0  0
   -3.7750   -6.9967   -0.3470 H   0  0  0  0  0  0  0  0  0  0  0  0
   -2.3443   -7.8428   -0.1154 H   0  0  0  0  0  0  0  0  0  0  0  0
  1  2  2  0  0  0  0 
  1  3  1  0  0  0  0 
  2  4  1  0  0  0  0 
  3  5  2  0  0  0  0 
  3  6  1  0  0  0  0 
  4  7  2  0  0  0  0 
  4  8  1  0  0  0  0 
  5  9  1  0  0  0  0 
  5 10  1  0  0  0  0 
  6 11  2  0  0  0  0 
  7 12  1  0  0  0  0 
  8 13  2  0  0  0  0 
 10 14  2  0  0  0  0 
 11 14  1  0  0  0  0 
 12 15  2  0  0  0  0 
 13 15  1  0  0  0  0 
 14 16  1  0  0  0  0 
  6 17  1  0  0  0  0 
  7 18  1  0  0  0  0 
  8 19  1  0  0  0  0 
  9 20  1  0  0  0  0 
  9 21  1  0  0  0  0 
 11 22  1  0  0  0  0 
 12 23  1  0  0  0  0 
 13 24  1  0  0  0  0 
 15 25  1  0  0  0  0 
 16 26  1  0  0  0  0 
 16 27  1  0  0  0  0 
M  END
> <cdk:Title>
phenazopyridine

> <Conformer>
1

> <SuperDrugID>
SD001900

$$$$
