chlorzoxazone
  CDK     0628171802

 15 16  0  0  0  0  0  0  0  0999 V2000
   -5.2640   -2.2405    0.0000 O   0  0  0  0  0  0  0  0  0  0  0  0
   -4.1859   -1.6064    0.0000 C   0  0  0  0  0  0  0  0  0  0  0  0
   -4.0877   -0.2523    0.0000 O   0  0  0  0  0  0  0  0  0  0  0  0
   -2.9662   -2.1718    0.0000 N   0  0  0  0  0  0  0  0  0  0  0  0
   -2.7635    0.0161    0.0000 C   0  0  0  0  0  0  0  0  0  0  0  0
   -2.0641   -1.1864    0.0000 C   0  0  0  0  0  0  0  0  0  0  0  0
   -2.0858    1.2466    0.0000 C   0  0  0  0  0  0  0  0  0  0  0  0
   -0.6618   -1.2223    0.0000 C   0  0  0  0  0  0  0  0  0  0  0  0
   -0.6737    1.2330    0.0000 C   0  0  0  0  0  0  0  0  0  0  0  0
    0.0373    0.0064    0.0000 C   0  0  0  0  0  0  0  0  0  0  0  0
    1.7289    0.0050    0.0000 Cl  0  0  0  0  0  0  0  0  0  0  0  0
   -2.7729   -3.1211    0.0000 H   0  0  0  0  0  0  0  0  0  0  0  0
   -2.6065    2.1265    0.0000 H   0  0  0  0  0  0  0  0  0  0  0  0
   -0.1702   -2.1191    0.0000 H   0  0  0  0  0  0  0  0  0  0  0  0
   -0.1681    2.1204    0.0000 H   0  0  0  0  0  0  0  0  0  0  0  0
  1  2  2  0  0  0  0 
  2  3  1  0  0  0  0 
  2  4  1  0  0  0  0 
  3  5  1  0  0  0  0 
  4  6  1  0  0  0  0 
  5  6  1  0  0  0  0 
  5  7  2  0  0  0  0 
  6  8  2  0  0  0  0 
  7  9  1  0  0  0  0 
  8 10  1  0  0  0  0 
  9 10  2  0  0  0  0 
 10 11  1  0  0  0  0 
 12  4  1  0  0  0  0 
 13  7  1  0  0  0  0 
 14  8  1  0  0  0  0 
 15  9  1  0  0  0  0 
M  END
> <cdk:Title>
chlorzoxazone

> <Conformer>
1

> <SuperDrugID>
SD000547

$$$$
