dioxybenzone
  CDK     0628171801

 30 31  0  0  0  0  0  0  0  0999 V2000
    1.9603   -1.1943   -0.1674 C   0  0  0  0  0  0  0  0  0  0  0  0
    2.6467   -1.5665    0.8157 O   0  0  0  0  0  0  0  0  0  0  0  0
    1.9829   -1.9985   -1.3500 C   0  0  0  0  0  0  0  0  0  0  0  0
    1.2456    0.0328   -0.0353 C   0  0  0  0  0  0  0  0  0  0  0  0
    2.0847   -3.4158   -1.2985 C   0  0  0  0  0  0  0  0  0  0  0  0
    1.9249   -1.3819   -2.6256 C   0  0  0  0  0  0  0  0  0  0  0  0
   -0.0783    0.2039   -0.5299 C   0  0  0  0  0  0  0  0  0  0  0  0
    1.8697    1.1333    0.6054 C   0  0  0  0  0  0  0  0  0  0  0  0
    2.1259   -4.1102   -0.1294 O   0  0  0  0  0  0  0  0  0  0  0  0
    2.1304   -4.1729   -2.4875 C   0  0  0  0  0  0  0  0  0  0  0  0
    1.9458   -2.1431   -3.8072 C   0  0  0  0  0  0  0  0  0  0  0  0
   -0.7856   -0.7938   -1.1242 O   0  0  0  0  0  0  0  0  0  0  0  0
   -0.7266    1.4503   -0.4126 C   0  0  0  0  0  0  0  0  0  0  0  0
    1.2166    2.3730    0.7218 C   0  0  0  0  0  0  0  0  0  0  0  0
    2.0615   -3.5439   -3.7440 C   0  0  0  0  0  0  0  0  0  0  0  0
   -0.0803    2.5334    0.2065 C   0  0  0  0  0  0  0  0  0  0  0  0
    2.0748   -4.3052   -4.8831 O   0  0  0  0  0  0  0  0  0  0  0  0
    3.3461   -4.3097   -5.5549 C   0  0  0  0  0  0  0  0  0  0  0  0
    1.8760   -0.3642   -2.7088 H   0  0  0  0  0  0  0  0  0  0  0  0
    2.8164    1.0487    0.9861 H   0  0  0  0  0  0  0  0  0  0  0  0
    1.6478   -3.5613    0.5261 H   0  0  0  0  0  0  0  0  0  0  0  0
    2.2090   -5.1915   -2.4445 H   0  0  0  0  0  0  0  0  0  0  0  0
    1.8813   -1.6730   -4.7132 H   0  0  0  0  0  0  0  0  0  0  0  0
   -0.3411   -1.6329   -0.8875 H   0  0  0  0  0  0  0  0  0  0  0  0
   -1.6749    1.5728   -0.7763 H   0  0  0  0  0  0  0  0  0  0  0  0
    1.6879    3.1587    1.1744 H   0  0  0  0  0  0  0  0  0  0  0  0
   -0.5527    3.4367    0.2865 H   0  0  0  0  0  0  0  0  0  0  0  0
    3.2853   -5.0144   -6.3841 H   0  0  0  0  0  0  0  0  0  0  0  0
    3.5798   -3.3234   -5.9636 H   0  0  0  0  0  0  0  0  0  0  0  0
    4.1547   -4.6314   -4.8932 H   0  0  0  0  0  0  0  0  0  0  0  0
  1  2  2  0  0  0  0 
  1  3  1  0  0  0  0 
  1  4  1  0  0  0  0 
  3  5  2  0  0  0  0 
  3  6  1  0  0  0  0 
  4  7  2  0  0  0  0 
  4  8  1  0  0  0  0 
  5  9  1  0  0  0  0 
  5 10  1  0  0  0  0 
  6 11  2  0  0  0  0 
  7 12  1  0  0  0  0 
  7 13  1  0  0  0  0 
  8 14  2  0  0  0  0 
 10 15  2  0  0  0  0 
 11 15  1  0  0  0  0 
 13 16  2  0  0  0  0 
 14 16  1  0  0  0  0 
 15 17  1  0  0  0  0 
 17 18  1  0  0  0  0 
  6 19  1  0  0  0  0 
  8 20  1  0  0  0  0 
  9 21  1  0  0  0  0 
 10 22  1  0  0  0  0 
 11 23  1  0  0  0  0 
 12 24  1  0  0  0  0 
 13 25  1  0  0  0  0 
 14 26  1  0  0  0  0 
 16 27  1  0  0  0  0 
 18 28  1  0  0  0  0 
 18 29  1  0  0  0  0 
 18 30  1  0  0  0  0 
M  END
> <cdk:Title>
dioxybenzone

> <Conformer>
1

> <SuperDrugID>
SD002735

$$$$
