nomegestrol
  CDK     0628171801

 52 55  0  0  0  0  0  0  0  0999 V2000
   -5.6303    2.3017    0.5382 C   0  0  0  0  0  0  0  0  0  0  0  0
   -5.9056    1.1683   -0.5309 C   0  0  2  0  0  0  0  0  0  0  0  0
   -4.9053    1.1351   -1.7403 C   0  0  2  0  0  0  0  0  0  0  0  0
   -7.2478    1.4827   -1.3008 C   0  0  2  0  0  0  0  0  0  0  0  0
   -5.8089   -0.2243    0.1937 C   0  0  2  0  0  0  0  0  0  0  0  0
   -3.4251    0.8829   -1.2946 C   0  0  1  0  0  0  0  0  0  0  0  0
   -5.2750    2.3814   -2.5729 C   0  0  1  0  0  0  0  0  0  0  0  0
   -8.4180    1.8188   -0.4266 C   0  0  0  0  0  0  0  0  0  0  0  0
   -7.6937    0.3463   -2.0575 O   0  0  0  0  0  0  0  0  0  0  0  0
   -6.8013    2.5564   -2.3552 C   0  0  1  0  0  0  0  0  0  0  0  0
   -4.3501   -0.6103    0.5984 C   0  0  2  0  0  0  0  0  0  0  0  0
   -3.3583   -0.5304   -0.6113 C   0  0  2  0  0  0  0  0  0  0  0  0
   -2.4189    1.0313   -2.3409 C   0  0  0  0  0  0  0  0  0  0  0  0
   -9.1288    3.1147   -0.4396 C   0  0  0  0  0  0  0  0  0  0  0  0
   -8.8353    0.9397    0.3662 O   0  0  0  0  0  0  0  0  0  0  0  0
   -1.8601   -0.8857   -0.3032 C   0  0  2  0  0  0  0  0  0  0  0  0
   -1.2905    0.2861   -2.4307 C   0  0  0  0  0  0  0  0  0  0  0  0
   -1.0693   -0.7986   -1.5676 C   0  0  0  0  0  0  0  0  0  0  0  0
   -1.7390   -2.2610    0.4436 C   0  0  1  0  0  0  0  0  0  0  0  0
   -0.3027    0.6814   -3.4510 C   0  0  0  0  0  0  0  0  0  0  0  0
   -0.1579   -1.7631   -1.8610 C   0  0  0  0  0  0  0  0  0  0  0  0
   -0.3082   -2.8367    0.3782 C   0  0  1  0  0  0  0  0  0  0  0  0
    0.1612   -2.8178   -1.0197 C   0  0  0  0  0  0  0  0  0  0  0  0
    0.8866   -3.7543   -1.4326 O   0  0  0  0  0  0  0  0  0  0  0  0
   -4.6575    2.2104    1.0142 H   0  0  0  0  0  0  0  0  0  0  0  0
   -6.3709    2.2560    1.3395 H   0  0  0  0  0  0  0  0  0  0  0  0
   -5.6825    3.2994    0.1025 H   0  0  0  0  0  0  0  0  0  0  0  0
   -5.1563    0.2837   -2.3904 H   0  0  0  0  0  0  0  0  0  0  0  0
   -6.1815   -1.0118   -0.4642 H   0  0  0  0  0  0  0  0  0  0  0  0
   -6.4378   -0.2376    1.0873 H   0  0  0  0  0  0  0  0  0  0  0  0
   -3.1471    1.6442   -0.5624 H   0  0  0  0  0  0  0  0  0  0  0  0
   -4.7263    3.2577   -2.2182 H   0  0  0  0  0  0  0  0  0  0  0  0
   -5.0453    2.2335   -3.6317 H   0  0  0  0  0  0  0  0  0  0  0  0
   -7.9292   -0.3382   -1.3964 H   0  0  0  0  0  0  0  0  0  0  0  0
   -7.3447    2.4410   -3.2979 H   0  0  0  0  0  0  0  0  0  0  0  0
   -6.9826    3.5729   -2.0018 H   0  0  0  0  0  0  0  0  0  0  0  0
   -4.3790   -1.6324    0.9847 H   0  0  0  0  0  0  0  0  0  0  0  0
   -3.9979    0.0300    1.4113 H   0  0  0  0  0  0  0  0  0  0  0  0
   -3.7092   -1.2770   -1.3369 H   0  0  0  0  0  0  0  0  0  0  0  0
   -2.5575    1.7778   -2.9824 H   0  0  0  0  0  0  0  0  0  0  0  0
   -9.9929    3.0999    0.2278 H   0  0  0  0  0  0  0  0  0  0  0  0
   -9.4809    3.3380   -1.4481 H   0  0  0  0  0  0  0  0  0  0  0  0
   -8.4585    3.9084   -0.1077 H   0  0  0  0  0  0  0  0  0  0  0  0
   -1.4563   -0.1212    0.3698 H   0  0  0  0  0  0  0  0  0  0  0  0
   -2.0141   -2.1373    1.4949 H   0  0  0  0  0  0  0  0  0  0  0  0
   -2.4182   -2.9949   -0.0045 H   0  0  0  0  0  0  0  0  0  0  0  0
   -0.4354    1.7044   -3.8170 H   0  0  0  0  0  0  0  0  0  0  0  0
    0.7098    0.6321   -3.0421 H   0  0  0  0  0  0  0  0  0  0  0  0
   -0.3752    0.0097   -4.3082 H   0  0  0  0  0  0  0  0  0  0  0  0
    0.3340   -1.7409   -2.7244 H   0  0  0  0  0  0  0  0  0  0  0  0
    0.3641   -2.2270    0.9875 H   0  0  0  0  0  0  0  0  0  0  0  0
   -0.3027   -3.8559    0.7766 H   0  0  0  0  0  0  0  0  0  0  0  0
  2  1  1  0  0  0  0 
  2  3  1  0  0  0  0 
  2  4  1  0  0  0  0 
  2  5  1  0  0  0  0 
  3  6  1  0  0  0  0 
  3  7  1  0  0  0  0 
  4  8  1  0  0  0  0 
  4  9  1  0  0  0  0 
  4 10  1  0  0  0  0 
  5 11  1  0  0  0  0 
  6 12  1  0  0  0  0 
  6 13  1  0  0  0  0 
  7 10  1  0  0  0  0 
  8 14  1  0  0  0  0 
  8 15  2  0  0  0  0 
 12 11  1  0  0  0  0 
 12 16  1  0  0  0  0 
 13 17  2  0  0  0  0 
 16 18  1  0  0  0  0 
 16 19  1  0  0  0  0 
 17 18  1  0  0  0  0 
 17 20  1  0  0  0  0 
 18 21  2  0  0  0  0 
 19 22  1  0  0  0  0 
 21 23  1  0  0  0  0 
 22 23  1  0  0  0  0 
 23 24  2  0  0  0  0 
 25  1  1  0  0  0  0 
 26  1  1  0  0  0  0 
 27  1  1  0  0  0  0 
  3 28  1  0  0  0  0 
 29  5  1  0  0  0  0 
 30  5  1  0  0  0  0 
  6 31  1  0  0  0  0 
 32  7  1  0  0  0  0 
 33  7  1  0  0  0  0 
 34  9  1  0  0  0  0 
 35 10  1  0  0  0  0 
 36 10  1  0  0  0  0 
 37 11  1  0  0  0  0 
 38 11  1  0  0  0  0 
 12 39  1  0  0  0  0 
 40 13  1  0  0  0  0 
 41 14  1  0  0  0  0 
 42 14  1  0  0  0  0 
 43 14  1  0  0  0  0 
 16 44  1  0  0  0  0 
 45 19  1  0  0  0  0 
 46 19  1  0  0  0  0 
 47 20  1  0  0  0  0 
 48 20  1  0  0  0  0 
 49 20  1  0  0  0  0 
 50 21  1  0  0  0  0 
 51 22  1  0  0  0  0 
 52 22  1  0  0  0  0 
M  END
> <cdk:Title>
nomegestrol

> <Conformer>
1

> <SuperDrugID>
SD003624

$$$$
