gluconic acid
  CDK     0628171801

 25 24  0  0  0  0  0  0  0  0999 V2000
    5.7353    7.0124   -3.4198 O   0  0  0  0  0  0  0  0  0  0  0  0
    5.1687    5.8333   -2.8555 C   0  0  2  0  0  0  0  0  0  0  0  0
    5.0308    5.9929   -1.3195 C   0  0  1  0  0  0  0  0  0  0  0  0
    4.1453    7.0699   -1.0175 O   0  0  0  0  0  0  0  0  0  0  0  0
    4.6000    4.6933   -0.5701 C   0  0  1  0  0  0  0  0  0  0  0  0
    4.5995    4.9556    0.8332 O   0  0  0  0  0  0  0  0  0  0  0  0
    3.2180    4.0881   -0.9791 C   0  0  2  0  0  0  0  0  0  0  0  0
    2.1636    5.0057   -0.6812 O   0  0  0  0  0  0  0  0  0  0  0  0
    2.8856    2.7411   -0.2667 C   0  0  1  0  0  0  0  0  0  0  0  0
    1.6090    2.2607   -0.6891 O   0  0  0  0  0  0  0  0  0  0  0  0
    3.8656    1.6683   -0.5327 C   0  0  0  0  0  0  0  0  0  0  0  0
    4.5882    1.1351    0.4791 O   0  0  0  0  0  0  0  0  0  0  0  0
    4.0490    1.2322   -1.6908 O   0  0  0  0  0  0  0  0  0  0  0  0
    5.7502    6.8503   -4.3865 H   0  0  0  0  0  0  0  0  0  0  0  0
    5.8224    4.9904   -3.0922 H   0  0  0  0  0  0  0  0  0  0  0  0
    4.1947    5.6638   -3.3196 H   0  0  0  0  0  0  0  0  0  0  0  0
    6.0145    6.2773   -0.9340 H   0  0  0  0  0  0  0  0  0  0  0  0
    4.5594    7.8630   -1.4162 H   0  0  0  0  0  0  0  0  0  0  0  0
    5.3767    3.9462   -0.7516 H   0  0  0  0  0  0  0  0  0  0  0  0
    5.5124    5.2420    1.0451 H   0  0  0  0  0  0  0  0  0  0  0  0
    3.2010    3.9081   -2.0567 H   0  0  0  0  0  0  0  0  0  0  0  0
    2.3146    5.7776   -1.2634 H   0  0  0  0  0  0  0  0  0  0  0  0
    2.8257    2.9147    0.8104 H   0  0  0  0  0  0  0  0  0  0  0  0
    0.9733    2.9667   -0.4503 H   0  0  0  0  0  0  0  0  0  0  0  0
    5.2333    0.4183    0.3043 H   0  0  0  0  0  0  0  0  0  0  0  0
  1  2  1  0  0  0  0 
  2  3  1  0  0  0  0 
  3  4  1  0  0  0  0 
  3  5  1  0  0  0  0 
  5  6  1  0  0  0  0 
  5  7  1  0  0  0  0 
  7  8  1  0  0  0  0 
  7  9  1  0  0  0  0 
  9 10  1  0  0  0  0 
  9 11  1  0  0  0  0 
 11 12  1  0  0  0  0 
 11 13  2  0  0  0  0 
  1 14  1  0  0  0  0 
  2 15  1  0  0  0  0 
  2 16  1  0  0  0  0 
  3 17  1  0  0  0  0 
  4 18  1  0  0  0  0 
  5 19  1  0  0  0  0 
  6 20  1  0  0  0  0 
  7 21  1  0  0  0  0 
  8 22  1  0  0  0  0 
  9 23  1  0  0  0  0 
 10 24  1  0  0  0  0 
 12 25  1  0  0  0  0 
M  END
> <cdk:Title>
gluconic acid

> <Conformer>
1

> <SuperDrugID>
SD002819

$$$$
