etilevodopa
  CDK     0628171801

 31 31  0  0  0  0  0  0  0  0999 V2000
   -1.6909    4.3444    0.3035 C   0  0  2  0  0  0  0  0  0  0  0  0
   -2.3962    2.9725    0.0795 C   0  0  1  0  0  0  0  0  0  0  0  0
   -1.1678    4.9465   -0.9597 C   0  0  0  0  0  0  0  0  0  0  0  0
   -1.4998    1.8661   -0.3347 C   0  0  0  0  0  0  0  0  0  0  0  0
   -3.1020    2.5615    1.3036 N   0  0  1  0  0  0  0  0  0  0  0  0
    0.2222    5.0788   -1.1926 C   0  0  0  0  0  0  0  0  0  0  0  0
   -2.0630    5.3991   -1.9592 C   0  0  0  0  0  0  0  0  0  0  0  0
   -0.1423    2.0283   -0.3620 O   0  0  0  0  0  0  0  0  0  0  0  0
   -2.0061    0.7652   -0.6601 O   0  0  0  0  0  0  0  0  0  0  0  0
    0.7062    5.6040   -2.4070 C   0  0  0  0  0  0  0  0  0  0  0  0
   -1.5853    5.9341   -3.1697 C   0  0  0  0  0  0  0  0  0  0  0  0
    0.8335    1.0341   -0.6887 C   0  0  1  0  0  0  0  0  0  0  0  0
    2.0446    5.6983   -2.6039 O   0  0  0  0  0  0  0  0  0  0  0  0
   -0.2002    6.0216   -3.4018 C   0  0  0  0  0  0  0  0  0  0  0  0
    2.2453    1.6414   -0.6223 C   0  0  0  0  0  0  0  0  0  0  0  0
    0.2410    6.5076   -4.5876 O   0  0  0  0  0  0  0  0  0  0  0  0
   -0.8884    4.2140    1.0379 H   0  0  0  0  0  0  0  0  0  0  0  0
   -2.4089    5.0404    0.7457 H   0  0  0  0  0  0  0  0  0  0  0  0
   -3.1624    3.0970   -0.6894 H   0  0  0  0  0  0  0  0  0  0  0  0
   -2.4211    2.5184    2.0633 H   0  0  0  0  0  0  0  0  0  0  0  0
   -3.7640    3.3036    1.5385 H   0  0  0  0  0  0  0  0  0  0  0  0
    0.8960    4.7844   -0.4817 H   0  0  0  0  0  0  0  0  0  0  0  0
   -3.0738    5.3393   -1.8145 H   0  0  0  0  0  0  0  0  0  0  0  0
   -2.2466    6.2507   -3.8839 H   0  0  0  0  0  0  0  0  0  0  0  0
    0.7621    0.2089    0.0229 H   0  0  0  0  0  0  0  0  0  0  0  0
    0.6518    0.6532   -1.6954 H   0  0  0  0  0  0  0  0  0  0  0  0
    2.2763    4.9123   -3.1429 H   0  0  0  0  0  0  0  0  0  0  0  0
    2.9902    0.8723   -0.8379 H   0  0  0  0  0  0  0  0  0  0  0  0
    2.3439    2.4445   -1.3553 H   0  0  0  0  0  0  0  0  0  0  0  0
    2.4316    2.0436    0.3756 H   0  0  0  0  0  0  0  0  0  0  0  0
    0.7829    5.7846   -4.9708 H   0  0  0  0  0  0  0  0  0  0  0  0
  2  1  1  0  0  0  0 
  1  3  1  0  0  0  0 
  2  4  1  0  0  0  0 
  2  5  1  0  0  0  0 
  3  6  2  0  0  0  0 
  3  7  1  0  0  0  0 
  4  8  1  0  0  0  0 
  4  9  2  0  0  0  0 
  6 10  1  0  0  0  0 
  7 11  2  0  0  0  0 
  8 12  1  0  0  0  0 
 10 13  1  0  0  0  0 
 10 14  2  0  0  0  0 
 11 14  1  0  0  0  0 
 12 15  1  0  0  0  0 
 14 16  1  0  0  0  0 
  1 17  1  0  0  0  0 
  1 18  1  0  0  0  0 
  2 19  1  0  0  0  0 
  5 20  1  0  0  0  0 
  5 21  1  0  0  0  0 
  6 22  1  0  0  0  0 
  7 23  1  0  0  0  0 
 11 24  1  0  0  0  0 
 12 25  1  0  0  0  0 
 12 26  1  0  0  0  0 
 13 27  1  0  0  0  0 
 15 28  1  0  0  0  0 
 15 29  1  0  0  0  0 
 15 30  1  0  0  0  0 
 16 31  1  0  0  0  0 
M  END
> <cdk:Title>
etilevodopa

> <Conformer>
1

> <SuperDrugID>
SD003561

$$$$
