tilisolol
  CDK     0628171801

 46 47  0  0  0  0  0  0  0  0999 V2000
    0.2786   -0.7582   -0.5381 O   0  0  0  0  0  0  0  0  0  0  0  0
    0.9459    0.2022   -1.3826 C   0  0  2  0  0  0  0  0  0  0  0  0
    0.6226   -0.6669    0.7856 C   0  0  0  0  0  0  0  0  0  0  0  0
    0.3031    0.1948   -2.7922 C   0  0  2  0  0  0  0  0  0  0  0  0
   -0.1217    0.1123    1.7027 C   0  0  0  0  0  0  0  0  0  0  0  0
    1.7251   -1.4059    1.2509 C   0  0  0  0  0  0  0  0  0  0  0  0
   -1.2155    0.4901   -2.7502 C   0  0  2  0  0  0  0  0  0  0  0  0
    0.5180   -1.0705   -3.4139 O   0  0  0  0  0  0  0  0  0  0  0  0
    0.2734    0.1369    3.0709 C   0  0  0  0  0  0  0  0  0  0  0  0
   -1.2535    0.8612    1.2934 C   0  0  0  0  0  0  0  0  0  0  0  0
    2.0956   -1.3979    2.5685 N   0  0  0  0  0  0  0  0  0  0  0  0
   -1.7983    0.4542   -4.1132 N   0  0  1  0  0  0  0  0  0  0  0  0
    1.3846   -0.6471    3.4757 C   0  0  0  0  0  0  0  0  0  0  0  0
   -0.4607    0.9320    3.9866 C   0  0  0  0  0  0  0  0  0  0  0  0
   -1.9777    1.6309    2.2203 C   0  0  0  0  0  0  0  0  0  0  0  0
    3.2132   -2.2158    2.9901 C   0  0  0  0  0  0  0  0  0  0  0  0
   -3.2686    0.6641   -4.2798 C   0  0  2  0  0  0  0  0  0  0  0  0
    1.7119   -0.6521    4.6882 O   0  0  0  0  0  0  0  0  0  0  0  0
   -1.5785    1.6698    3.5649 C   0  0  0  0  0  0  0  0  0  0  0  0
   -3.7093    2.0682   -3.7634 C   0  0  0  0  0  0  0  0  0  0  0  0
   -4.0881   -0.4553   -3.5655 C   0  0  0  0  0  0  0  0  0  0  0  0
   -3.5222    0.5747   -5.8163 C   0  0  0  0  0  0  0  0  0  0  0  0
    2.0068   -0.0522   -1.4730 H   0  0  0  0  0  0  0  0  0  0  0  0
    0.8700    1.2149   -0.9744 H   0  0  0  0  0  0  0  0  0  0  0  0
    0.7940    0.9596   -3.4016 H   0  0  0  0  0  0  0  0  0  0  0  0
    2.2416   -1.9662    0.5681 H   0  0  0  0  0  0  0  0  0  0  0  0
   -1.3626    1.4737   -2.3011 H   0  0  0  0  0  0  0  0  0  0  0  0
   -1.6989   -0.2631   -2.1260 H   0  0  0  0  0  0  0  0  0  0  0  0
    1.4900   -1.1985   -3.4271 H   0  0  0  0  0  0  0  0  0  0  0  0
   -1.5673    0.8566    0.3200 H   0  0  0  0  0  0  0  0  0  0  0  0
   -1.3224    1.1738   -4.6611 H   0  0  0  0  0  0  0  0  0  0  0  0
   -0.1934    0.9795    4.9732 H   0  0  0  0  0  0  0  0  0  0  0  0
   -2.7964    2.1633    1.9158 H   0  0  0  0  0  0  0  0  0  0  0  0
    2.8322   -3.1550    3.3948 H   0  0  0  0  0  0  0  0  0  0  0  0
    3.8982   -2.4506    2.1714 H   0  0  0  0  0  0  0  0  0  0  0  0
    3.8059   -1.7207    3.7610 H   0  0  0  0  0  0  0  0  0  0  0  0
   -2.1023    2.2304    4.2401 H   0  0  0  0  0  0  0  0  0  0  0  0
   -4.7483    2.2707   -4.0319 H   0  0  0  0  0  0  0  0  0  0  0  0
   -3.6294    2.1276   -2.6756 H   0  0  0  0  0  0  0  0  0  0  0  0
   -3.0789    2.8474   -4.1972 H   0  0  0  0  0  0  0  0  0  0  0  0
   -3.7159   -1.4420   -3.8494 H   0  0  0  0  0  0  0  0  0  0  0  0
   -5.1444   -0.3938   -3.8329 H   0  0  0  0  0  0  0  0  0  0  0  0
   -4.0187   -0.3640   -2.4801 H   0  0  0  0  0  0  0  0  0  0  0  0
   -3.2143   -0.4016   -6.2028 H   0  0  0  0  0  0  0  0  0  0  0  0
   -2.9544    1.3445   -6.3466 H   0  0  0  0  0  0  0  0  0  0  0  0
   -4.5817    0.7142   -6.0454 H   0  0  0  0  0  0  0  0  0  0  0  0
  1  2  1  0  0  0  0 
  1  3  1  0  0  0  0 
  4  2  1  0  0  0  0 
  3  5  1  0  0  0  0 
  3  6  2  0  0  0  0 
  4  7  1  0  0  0  0 
  4  8  1  0  0  0  0 
  5  9  1  0  0  0  0 
  5 10  2  0  0  0  0 
  6 11  1  0  0  0  0 
  7 12  1  0  0  0  0 
  9 13  1  0  0  0  0 
  9 14  2  0  0  0  0 
 10 15  1  0  0  0  0 
 11 13  1  0  0  0  0 
 11 16  1  0  0  0  0 
 12 17  1  0  0  0  0 
 13 18  2  0  0  0  0 
 14 19  1  0  0  0  0 
 15 19  2  0  0  0  0 
 17 20  1  0  0  0  0 
 17 21  1  0  0  0  0 
 17 22  1  0  0  0  0 
  2 23  1  0  0  0  0 
  2 24  1  0  0  0  0 
  4 25  1  0  0  0  0 
  6 26  1  0  0  0  0 
  7 27  1  0  0  0  0 
  7 28  1  0  0  0  0 
  8 29  1  0  0  0  0 
 10 30  1  0  0  0  0 
 12 31  1  0  0  0  0 
 14 32  1  0  0  0  0 
 15 33  1  0  0  0  0 
 16 34  1  0  0  0  0 
 16 35  1  0  0  0  0 
 16 36  1  0  0  0  0 
 19 37  1  0  0  0  0 
 20 38  1  0  0  0  0 
 20 39  1  0  0  0  0 
 20 40  1  0  0  0  0 
 21 41  1  0  0  0  0 
 21 42  1  0  0  0  0 
 21 43  1  0  0  0  0 
 22 44  1  0  0  0  0 
 22 45  1  0  0  0  0 
 22 46  1  0  0  0  0 
M  END
> <cdk:Title>
tilisolol

> <Conformer>
1

> <SuperDrugID>
SD002398

$$$$
