ozagrel
  CDK     0628171801

 29 30  0  0  0  0  0  0  0  0999 V2000
   -3.3156   -6.8496    0.7458 C   0  0  2  0  0  0  0  0  0  0  0  0
   -2.7887   -5.4665    0.5995 C   0  0  0  0  0  0  0  0  0  0  0  0
   -2.6640   -7.5444    1.8177 N   0  0  0  0  0  0  0  0  0  0  0  0
   -3.6045   -4.3365    0.8186 C   0  0  0  0  0  0  0  0  0  0  0  0
   -1.4414   -5.2589    0.2271 C   0  0  0  0  0  0  0  0  0  0  0  0
   -1.6091   -8.3707    1.7161 C   0  0  0  0  0  0  0  0  0  0  0  0
   -2.9929   -7.4901    3.1249 C   0  0  0  0  0  0  0  0  0  0  0  0
   -3.0833   -3.0383    0.6737 C   0  0  0  0  0  0  0  0  0  0  0  0
   -0.9238   -3.9594    0.0803 C   0  0  0  0  0  0  0  0  0  0  0  0
   -1.3040   -8.8144    2.9928 C   0  0  0  0  0  0  0  0  0  0  0  0
   -2.1697   -8.2624    3.8547 N   0  0  0  0  0  0  0  0  0  0  0  0
   -1.7326   -2.8168    0.3060 C   0  0  0  0  0  0  0  0  0  0  0  0
   -1.2778   -1.4999    0.1555 C   0  0  0  0  0  0  0  0  0  0  0  0
    0.0043   -1.0858    0.1391 C   0  0  0  0  0  0  0  0  0  0  0  0
    0.3843    0.2310   -0.0550 C   0  0  0  0  0  0  0  0  0  0  0  0
   -0.5120    1.2400   -0.1953 O   0  0  0  0  0  0  0  0  0  0  0  0
    1.5994    0.5279   -0.1180 O   0  0  0  0  0  0  0  0  0  0  0  0
   -3.1625   -7.3836   -0.1961 H   0  0  0  0  0  0  0  0  0  0  0  0
   -4.3950   -6.8512    0.9297 H   0  0  0  0  0  0  0  0  0  0  0  0
   -4.5857   -4.4529    1.0853 H   0  0  0  0  0  0  0  0  0  0  0  0
   -0.8256   -6.0576    0.0535 H   0  0  0  0  0  0  0  0  0  0  0  0
   -1.1132   -8.6233    0.8588 H   0  0  0  0  0  0  0  0  0  0  0  0
   -3.7654   -6.9442    3.5176 H   0  0  0  0  0  0  0  0  0  0  0  0
   -3.7097   -2.2466    0.8425 H   0  0  0  0  0  0  0  0  0  0  0  0
    0.0510   -3.8671   -0.2109 H   0  0  0  0  0  0  0  0  0  0  0  0
   -0.5482   -9.4551    3.2362 H   0  0  0  0  0  0  0  0  0  0  0  0
   -1.9786   -0.8009    0.0520 H   0  0  0  0  0  0  0  0  0  0  0  0
    0.7325   -1.7473    0.2728 H   0  0  0  0  0  0  0  0  0  0  0  0
   -0.2008    2.1566   -0.3437 H   0  0  0  0  0  0  0  0  0  0  0  0
  1  2  1  0  0  0  0 
  1  3  1  0  0  0  0 
  2  4  2  0  0  0  0 
  2  5  1  0  0  0  0 
  3  6  1  0  0  0  0 
  3  7  1  0  0  0  0 
  4  8  1  0  0  0  0 
  5  9  2  0  0  0  0 
  6 10  2  0  0  0  0 
  7 11  2  0  0  0  0 
  8 12  2  0  0  0  0 
  9 12  1  0  0  0  0 
 10 11  1  0  0  0  0 
 12 13  1  0  0  0  0 
 13 14  2  0  0  0  0 
 14 15  1  0  0  0  0 
 15 16  1  0  0  0  0 
 15 17  2  0  0  0  0 
  1 18  1  0  0  0  0 
  1 19  1  0  0  0  0 
  4 20  1  0  0  0  0 
  5 21  1  0  0  0  0 
  6 22  1  0  0  0  0 
  7 23  1  0  0  0  0 
  8 24  1  0  0  0  0 
  9 25  1  0  0  0  0 
 10 26  1  0  0  0  0 
 13 27  1  0  0  0  0 
 14 28  1  0  0  0  0 
 16 29  1  0  0  0  0 
M  END
> <cdk:Title>
ozagrel

> <Conformer>
1

> <SuperDrugID>
SD001830

$$$$
