trapidil
  CDK     0628171801

 30 31  0  0  0  0  0  0  0  0999 V2000
    2.0135   -0.9450   -0.4188 N   0  0  0  0  0  0  0  0  0  0  0  0
    3.2617   -0.4823   -1.0239 C   0  0  1  0  0  0  0  0  0  0  0  0
    1.3537    0.0276    0.4490 C   0  0  2  0  0  0  0  0  0  0  0  0
    1.4791   -2.2326   -0.6861 C   0  0  0  0  0  0  0  0  0  0  0  0
    3.0581   -0.0793   -2.5021 C   0  0  0  0  0  0  0  0  0  0  0  0
    1.5998   -0.2552    1.9474 C   0  0  0  0  0  0  0  0  0  0  0  0
    0.2452   -2.6737   -0.2494 N   0  0  0  0  0  0  0  0  0  0  0  0
    2.1937   -3.2005   -1.4609 C   0  0  0  0  0  0  0  0  0  0  0  0
   -0.2679   -3.8911   -0.5441 C   0  0  0  0  0  0  0  0  0  0  0  0
   -0.6469   -2.0873    0.4834 N   0  0  0  0  0  0  0  0  0  0  0  0
    1.6361   -4.4650   -1.7682 C   0  0  0  0  0  0  0  0  0  0  0  0
    0.4061   -4.7820   -1.2968 N   0  0  0  0  0  0  0  0  0  0  0  0
   -1.4769   -4.0627   -0.0003 N   0  0  0  0  0  0  0  0  0  0  0  0
   -1.6917   -2.9111    0.6431 C   0  0  0  0  0  0  0  0  0  0  0  0
    2.3336   -5.4714   -2.5971 C   0  0  0  0  0  0  0  0  0  0  0  0
    3.6733    0.3903   -0.5076 H   0  0  0  0  0  0  0  0  0  0  0  0
    4.0522   -1.2282   -0.9352 H   0  0  0  0  0  0  0  0  0  0  0  0
    0.2890    0.1051    0.2391 H   0  0  0  0  0  0  0  0  0  0  0  0
    1.7110    1.0452    0.2683 H   0  0  0  0  0  0  0  0  0  0  0  0
    2.8886   -0.9569   -3.1257 H   0  0  0  0  0  0  0  0  0  0  0  0
    2.1966    0.5846   -2.5923 H   0  0  0  0  0  0  0  0  0  0  0  0
    3.9434    0.4402   -2.8723 H   0  0  0  0  0  0  0  0  0  0  0  0
    1.0494    0.4661    2.5547 H   0  0  0  0  0  0  0  0  0  0  0  0
    2.6633   -0.1581    2.1746 H   0  0  0  0  0  0  0  0  0  0  0  0
    1.2737   -1.2589    2.2183 H   0  0  0  0  0  0  0  0  0  0  0  0
    3.1254   -3.0116   -1.8202 H   0  0  0  0  0  0  0  0  0  0  0  0
   -2.5296   -2.6896    1.1795 H   0  0  0  0  0  0  0  0  0  0  0  0
    3.3198   -5.1298   -2.9185 H   0  0  0  0  0  0  0  0  0  0  0  0
    2.4595   -6.3955   -2.0295 H   0  0  0  0  0  0  0  0  0  0  0  0
    1.7396   -5.6821   -3.4885 H   0  0  0  0  0  0  0  0  0  0  0  0
  1  2  1  0  0  0  0 
  1  3  1  0  0  0  0 
  1  4  1  0  0  0  0 
  2  5  1  0  0  0  0 
  3  6  1  0  0  0  0 
  4  7  1  0  0  0  0 
  4  8  2  0  0  0  0 
  7  9  1  0  0  0  0 
  7 10  1  0  0  0  0 
  8 11  1  0  0  0  0 
  9 12  1  0  0  0  0 
  9 13  2  0  0  0  0 
 10 14  2  0  0  0  0 
 11 12  2  0  0  0  0 
 11 15  1  0  0  0  0 
 13 14  1  0  0  0  0 
  2 16  1  0  0  0  0 
  2 17  1  0  0  0  0 
  3 18  1  0  0  0  0 
  3 19  1  0  0  0  0 
  5 20  1  0  0  0  0 
  5 21  1  0  0  0  0 
  5 22  1  0  0  0  0 
  6 23  1  0  0  0  0 
  6 24  1  0  0  0  0 
  6 25  1  0  0  0  0 
  8 26  1  0  0  0  0 
 14 27  1  0  0  0  0 
 15 28  1  0  0  0  0 
 15 29  1  0  0  0  0 
 15 30  1  0  0  0  0 
M  END
> <cdk:Title>
trapidil

> <Conformer>
1

> <SuperDrugID>
SD003102

$$$$
