sulfabenzamide
  CDK     0628171801

 31 32  0  0  0  0  0  0  0  0999 V2000
   -2.9568   -2.7718    0.1243 S   0  0  1  0  0  0  0  0  0  0  0  0
   -2.1518   -1.2559    0.0629 N   0  0  0  0  0  0  0  0  0  0  0  0
   -2.9148   -3.3247    1.6295 O   0  0  0  0  0  0  0  0  0  0  0  0
   -4.4861   -2.5268   -0.2969 O   0  0  0  0  0  0  0  0  0  0  0  0
   -2.2015   -3.9038   -1.0104 C   0  0  0  0  0  0  0  0  0  0  0  0
   -0.8051   -1.0802    0.1739 C   0  0  0  0  0  0  0  0  0  0  0  0
   -2.0115   -5.2605   -0.6718 C   0  0  0  0  0  0  0  0  0  0  0  0
   -1.7617   -3.4358   -2.2674 C   0  0  0  0  0  0  0  0  0  0  0  0
   -0.0782   -2.0805    0.3931 O   0  0  0  0  0  0  0  0  0  0  0  0
   -0.2106    0.2098    0.0352 C   0  0  0  0  0  0  0  0  0  0  0  0
   -1.3551   -6.1284   -1.5657 C   0  0  0  0  0  0  0  0  0  0  0  0
   -1.1053   -4.3026   -3.1581 C   0  0  0  0  0  0  0  0  0  0  0  0
    1.1166    0.4576    0.4770 C   0  0  0  0  0  0  0  0  0  0  0  0
   -0.9176    1.2885   -0.5599 C   0  0  0  0  0  0  0  0  0  0  0  0
   -0.8785   -5.6459   -2.8017 C   0  0  0  0  0  0  0  0  0  0  0  0
    1.7050    1.7300    0.3416 C   0  0  0  0  0  0  0  0  0  0  0  0
   -0.3305    2.5597   -0.6968 C   0  0  0  0  0  0  0  0  0  0  0  0
   -0.1914   -6.4503   -3.6366 N   0  0  0  0  0  0  0  0  0  0  0  0
    0.9813    2.7815   -0.2447 C   0  0  0  0  0  0  0  0  0  0  0  0
   -2.7059   -0.4720   -0.0736 H   0  0  0  0  0  0  0  0  0  0  0  0
   -2.3327   -5.6238    0.2275 H   0  0  0  0  0  0  0  0  0  0  0  0
   -1.8971   -2.4596   -2.5378 H   0  0  0  0  0  0  0  0  0  0  0  0
   -1.2183   -7.1094   -1.3083 H   0  0  0  0  0  0  0  0  0  0  0  0
   -0.7864   -3.9472   -4.0632 H   0  0  0  0  0  0  0  0  0  0  0  0
    1.6725   -0.2837    0.9113 H   0  0  0  0  0  0  0  0  0  0  0  0
   -1.8697    1.1658   -0.9108 H   0  0  0  0  0  0  0  0  0  0  0  0
    2.6586    1.8913    0.6745 H   0  0  0  0  0  0  0  0  0  0  0  0
   -0.8595    3.3232   -1.1239 H   0  0  0  0  0  0  0  0  0  0  0  0
   -0.0225   -7.3757   -3.3990 H   0  0  0  0  0  0  0  0  0  0  0  0
    0.1515   -6.0999   -4.4747 H   0  0  0  0  0  0  0  0  0  0  0  0
    1.4057    3.7060   -0.3424 H   0  0  0  0  0  0  0  0  0  0  0  0
  1  2  1  0  0  0  0 
  1  3  2  0  0  0  0 
  1  4  2  0  0  0  0 
  1  5  1  0  0  0  0 
  2  6  1  0  0  0  0 
  5  7  2  0  0  0  0 
  5  8  1  0  0  0  0 
  6  9  2  0  0  0  0 
  6 10  1  0  0  0  0 
  7 11  1  0  0  0  0 
  8 12  2  0  0  0  0 
 10 13  2  0  0  0  0 
 10 14  1  0  0  0  0 
 11 15  2  0  0  0  0 
 12 15  1  0  0  0  0 
 13 16  1  0  0  0  0 
 14 17  2  0  0  0  0 
 15 18  1  0  0  0  0 
 16 19  2  0  0  0  0 
 17 19  1  0  0  0  0 
  2 20  1  0  0  0  0 
  7 21  1  0  0  0  0 
  8 22  1  0  0  0  0 
 11 23  1  0  0  0  0 
 12 24  1  0  0  0  0 
 13 25  1  0  0  0  0 
 14 26  1  0  0  0  0 
 16 27  1  0  0  0  0 
 17 28  1  0  0  0  0 
 18 29  1  0  0  0  0 
 18 30  1  0  0  0  0 
 19 31  1  0  0  0  0 
M  END
> <cdk:Title>
sulfabenzamide

> <Conformer>
1

> <SuperDrugID>
SD003059

$$$$
