oxymetazoline
  CDK     0628171801

 43 44  0  0  0  0  0  0  0  0999 V2000
    5.0098    0.2274   -2.1562 C   0  0  1  0  0  0  0  0  0  0  0  0
    3.8163    0.3581   -1.2401 C   0  0  0  0  0  0  0  0  0  0  0  0
    5.6303   -1.0845   -2.0793 C   0  0  0  0  0  0  0  0  0  0  0  0
    2.6276   -0.4033   -1.4821 C   0  0  0  0  0  0  0  0  0  0  0  0
    3.8528    1.2229   -0.1034 C   0  0  0  0  0  0  0  0  0  0  0  0
    6.2331   -1.5474   -1.0494 N   0  0  0  0  0  0  0  0  0  0  0  0
    5.6604   -1.9566   -3.0600 N   0  0  0  0  0  0  0  0  0  0  0  0
    2.4512   -1.2598   -2.7014 C   0  0  0  0  0  0  0  0  0  0  0  0
    1.5686   -0.3716   -0.5309 C   0  0  0  0  0  0  0  0  0  0  0  0
    5.0185    2.1009    0.2259 C   0  0  0  0  0  0  0  0  0  0  0  0
    2.7402    1.2720    0.7675 C   0  0  0  0  0  0  0  0  0  0  0  0
    6.7361   -2.8222   -1.2506 C   0  0  2  0  0  0  0  0  0  0  0  0
    6.3436   -3.1376   -2.7083 C   0  0  1  0  0  0  0  0  0  0  0  0
    0.5226   -1.2171   -0.7236 O   0  0  0  0  0  0  0  0  0  0  0  0
    1.5727    0.4877    0.6041 C   0  0  0  0  0  0  0  0  0  0  0  0
    0.3962    0.5699    1.5888 C   0  0  1  0  0  0  0  0  0  0  0  0
   -0.9002    1.0290    0.8330 C   0  0  0  0  0  0  0  0  0  0  0  0
    0.1665   -0.8200    2.2795 C   0  0  0  0  0  0  0  0  0  0  0  0
    0.5774    1.6012    2.7676 C   0  0  0  0  0  0  0  0  0  0  0  0
    4.7099    0.4463   -3.1826 H   0  0  0  0  0  0  0  0  0  0  0  0
    5.7938    0.9573   -1.9544 H   0  0  0  0  0  0  0  0  0  0  0  0
    5.2542   -1.8068   -3.9296 H   0  0  0  0  0  0  0  0  0  0  0  0
    2.8030   -2.2693   -2.4887 H   0  0  0  0  0  0  0  0  0  0  0  0
    2.9817   -0.8786   -3.5700 H   0  0  0  0  0  0  0  0  0  0  0  0
    1.4075   -1.3168   -3.0156 H   0  0  0  0  0  0  0  0  0  0  0  0
    5.1433    2.8540   -0.5551 H   0  0  0  0  0  0  0  0  0  0  0  0
    4.9055    2.6307    1.1758 H   0  0  0  0  0  0  0  0  0  0  0  0
    5.9313    1.5079    0.3047 H   0  0  0  0  0  0  0  0  0  0  0  0
    2.7986    1.9098    1.5574 H   0  0  0  0  0  0  0  0  0  0  0  0
    6.2786   -3.5248   -0.5501 H   0  0  0  0  0  0  0  0  0  0  0  0
    7.8209   -2.8286   -1.1181 H   0  0  0  0  0  0  0  0  0  0  0  0
    5.6769   -4.0001   -2.7770 H   0  0  0  0  0  0  0  0  0  0  0  0
    7.2164   -3.2853   -3.3495 H   0  0  0  0  0  0  0  0  0  0  0  0
    0.9289   -2.0974   -0.8630 H   0  0  0  0  0  0  0  0  0  0  0  0
   -1.7394    1.1617    1.5221 H   0  0  0  0  0  0  0  0  0  0  0  0
   -1.2216    0.3052    0.0858 H   0  0  0  0  0  0  0  0  0  0  0  0
   -0.7256    1.9817    0.3251 H   0  0  0  0  0  0  0  0  0  0  0  0
   -0.5979   -0.7596    3.0588 H   0  0  0  0  0  0  0  0  0  0  0  0
    1.0926   -1.1716    2.7407 H   0  0  0  0  0  0  0  0  0  0  0  0
   -0.1695   -1.5811    1.5785 H   0  0  0  0  0  0  0  0  0  0  0  0
   -0.2908    1.6123    3.4336 H   0  0  0  0  0  0  0  0  0  0  0  0
    1.4480    1.3513    3.3793 H   0  0  0  0  0  0  0  0  0  0  0  0
    0.7012    2.6177    2.3851 H   0  0  0  0  0  0  0  0  0  0  0  0
  1  2  1  0  0  0  0 
  1  3  1  0  0  0  0 
  2  4  2  0  0  0  0 
  2  5  1  0  0  0  0 
  3  6  2  0  0  0  0 
  3  7  1  0  0  0  0 
  4  8  1  0  0  0  0 
  4  9  1  0  0  0  0 
  5 10  1  0  0  0  0 
  5 11  2  0  0  0  0 
  6 12  1  0  0  0  0 
  7 13  1  0  0  0  0 
  9 14  1  0  0  0  0 
  9 15  2  0  0  0  0 
 11 15  1  0  0  0  0 
 12 13  1  0  0  0  0 
 15 16  1  0  0  0  0 
 16 17  1  0  0  0  0 
 16 18  1  0  0  0  0 
 16 19  1  0  0  0  0 
 20  1  1  0  0  0  0 
 21  1  1  0  0  0  0 
 22  7  1  0  0  0  0 
 23  8  1  0  0  0  0 
 24  8  1  0  0  0  0 
 25  8  1  0  0  0  0 
 26 10  1  0  0  0  0 
 27 10  1  0  0  0  0 
 28 10  1  0  0  0  0 
 29 11  1  0  0  0  0 
 30 12  1  0  0  0  0 
 31 12  1  0  0  0  0 
 32 13  1  0  0  0  0 
 33 13  1  0  0  0  0 
 34 14  1  0  0  0  0 
 35 17  1  0  0  0  0 
 36 17  1  0  0  0  0 
 37 17  1  0  0  0  0 
 38 18  1  0  0  0  0 
 39 18  1  0  0  0  0 
 40 18  1  0  0  0  0 
 41 19  1  0  0  0  0 
 42 19  1  0  0  0  0 
 43 19  1  0  0  0  0 
M  END
> <cdk:Title>
oxymetazoline

> <Conformer>
1

> <SuperDrugID>
SD001819

$$$$
