iobenzamic acid
  CDK     0628171801

 37 38  0  0  0  0  0  0  0  0999 V2000
    0.8207    1.4376   -0.6592 C   0  0  0  0  0  0  0  0  0  0  0  0
    1.7296    2.1796    0.0885 N   0  0  0  0  0  0  0  0  0  0  0  0
    1.1327    0.3204   -1.1390 O   0  0  0  0  0  0  0  0  0  0  0  0
   -0.4921    1.8693   -0.9612 C   0  0  0  0  0  0  0  0  0  0  0  0
    3.1047    1.7385    0.2498 C   0  0  1  0  0  0  0  0  0  0  0  0
    1.3596    3.3694    0.6817 C   0  0  0  0  0  0  0  0  0  0  0  0
   -1.5455    1.7319   -0.0223 C   0  0  0  0  0  0  0  0  0  0  0  0
   -0.7503    2.4705   -2.2173 C   0  0  0  0  0  0  0  0  0  0  0  0
    3.9257    1.9451   -1.0547 C   0  0  1  0  0  0  0  0  0  0  0  0
    1.2301    3.4564    2.0869 C   0  0  0  0  0  0  0  0  0  0  0  0
    1.1053    4.5241   -0.0935 C   0  0  0  0  0  0  0  0  0  0  0  0
   -1.2322    0.8166    1.7987 I   0  0  0  0  0  0  0  0  0  0  0  0
   -2.8383    2.2126   -0.3360 C   0  0  0  0  0  0  0  0  0  0  0  0
    0.7178    2.7238   -3.6396 I   0  0  0  0  0  0  0  0  0  0  0  0
   -2.0402    2.9370   -2.5219 C   0  0  0  0  0  0  0  0  0  0  0  0
    5.3667    1.6832   -0.8617 C   0  0  0  0  0  0  0  0  0  0  0  0
    0.8293    4.6596    2.6978 C   0  0  0  0  0  0  0  0  0  0  0  0
    0.6887    5.7231    0.5133 C   0  0  0  0  0  0  0  0  0  0  0  0
   -3.8451    2.1133    0.5581 N   0  0  0  0  0  0  0  0  0  0  0  0
   -3.0851    2.8031   -1.5938 C   0  0  0  0  0  0  0  0  0  0  0  0
    5.8016    0.4378   -0.5580 O   0  0  0  0  0  0  0  0  0  0  0  0
    6.2109    2.6012   -0.9770 O   0  0  0  0  0  0  0  0  0  0  0  0
    0.5447    5.7890    1.9101 C   0  0  0  0  0  0  0  0  0  0  0  0
   -4.9468    3.4966   -2.1280 I   0  0  0  0  0  0  0  0  0  0  0  0
    3.6074    2.2883    1.0554 H   0  0  0  0  0  0  0  0  0  0  0  0
    3.1269    0.6837    0.5397 H   0  0  0  0  0  0  0  0  0  0  0  0
    3.5613    1.2752   -1.8383 H   0  0  0  0  0  0  0  0  0  0  0  0
    3.7843    2.9740   -1.4025 H   0  0  0  0  0  0  0  0  0  0  0  0
    1.4212    2.6402    2.6727 H   0  0  0  0  0  0  0  0  0  0  0  0
    1.2215    4.4968   -1.1062 H   0  0  0  0  0  0  0  0  0  0  0  0
   -2.2198    3.3794   -3.4249 H   0  0  0  0  0  0  0  0  0  0  0  0
    0.7429    4.7128    3.7148 H   0  0  0  0  0  0  0  0  0  0  0  0
    0.4919    6.5454   -0.0612 H   0  0  0  0  0  0  0  0  0  0  0  0
   -4.7396    2.3977    0.3168 H   0  0  0  0  0  0  0  0  0  0  0  0
   -3.6840    1.7635    1.4483 H   0  0  0  0  0  0  0  0  0  0  0  0
    6.7581    0.2650   -0.4283 H   0  0  0  0  0  0  0  0  0  0  0  0
    0.2367    6.6573    2.3535 H   0  0  0  0  0  0  0  0  0  0  0  0
  1  2  1  0  0  0  0 
  1  3  2  0  0  0  0 
  1  4  1  0  0  0  0 
  2  5  1  0  0  0  0 
  2  6  1  0  0  0  0 
  4  7  2  0  0  0  0 
  4  8  1  0  0  0  0 
  5  9  1  0  0  0  0 
  6 10  2  0  0  0  0 
  6 11  1  0  0  0  0 
  7 12  1  0  0  0  0 
  7 13  1  0  0  0  0 
  8 14  1  0  0  0  0 
  8 15  2  0  0  0  0 
  9 16  1  0  0  0  0 
 10 17  1  0  0  0  0 
 11 18  2  0  0  0  0 
 13 19  1  0  0  0  0 
 13 20  2  0  0  0  0 
 15 20  1  0  0  0  0 
 16 21  1  0  0  0  0 
 16 22  2  0  0  0  0 
 17 23  2  0  0  0  0 
 18 23  1  0  0  0  0 
 20 24  1  0  0  0  0 
  5 25  1  0  0  0  0 
  5 26  1  0  0  0  0 
  9 27  1  0  0  0  0 
  9 28  1  0  0  0  0 
 10 29  1  0  0  0  0 
 11 30  1  0  0  0  0 
 15 31  1  0  0  0  0 
 17 32  1  0  0  0  0 
 18 33  1  0  0  0  0 
 19 34  1  0  0  0  0 
 19 35  1  0  0  0  0 
 21 36  1  0  0  0  0 
 23 37  1  0  0  0  0 
M  END
> <cdk:Title>
iobenzamic acid

> <Conformer>
1

> <SuperDrugID>
SD003211

$$$$
