aminoglutethimide
  CDK     0628171801

 33 34  0  0  0  0  0  0  0  0999 V2000
    1.4162    5.5165    0.3919 C   0  0  2  0  0  0  0  0  0  0  0  0
    2.3128    6.7671    0.1992 C   0  0  0  0  0  0  0  0  0  0  0  0
    2.0072    4.0791    0.0823 C   0  0  2  0  0  0  0  0  0  0  0  0
    3.3107    3.9708    0.8277 C   0  0  0  0  0  0  0  0  0  0  0  0
    2.2256    3.8616   -1.4710 C   0  0  1  0  0  0  0  0  0  0  0  0
    1.0898    2.9455    0.5463 C   0  0  0  0  0  0  0  0  0  0  0  0
    3.3244    3.9386    2.0806 O   0  0  0  0  0  0  0  0  0  0  0  0
    4.5208    3.8888    0.2191 N   0  0  0  0  0  0  0  0  0  0  0  0
    3.5975    4.3122   -2.0406 C   0  0  1  0  0  0  0  0  0  0  0  0
    1.6050    1.6242    0.6828 C   0  0  0  0  0  0  0  0  0  0  0  0
   -0.2982    3.1091    0.8135 C   0  0  0  0  0  0  0  0  0  0  0  0
    4.7063    4.0043   -1.1161 C   0  0  0  0  0  0  0  0  0  0  0  0
    0.8061    0.5469    1.1038 C   0  0  0  0  0  0  0  0  0  0  0  0
   -1.1085    2.0322    1.2205 C   0  0  0  0  0  0  0  0  0  0  0  0
    5.8721    3.8918   -1.5576 O   0  0  0  0  0  0  0  0  0  0  0  0
   -0.5578    0.7477    1.3753 C   0  0  0  0  0  0  0  0  0  0  0  0
   -1.3288   -0.2845    1.7707 N   0  0  0  0  0  0  0  0  0  0  0  0
    0.5299    5.6832   -0.2255 H   0  0  0  0  0  0  0  0  0  0  0  0
    1.0877    5.5409    1.4353 H   0  0  0  0  0  0  0  0  0  0  0  0
    1.7499    7.6603    0.4778 H   0  0  0  0  0  0  0  0  0  0  0  0
    2.6100    6.8791   -0.8390 H   0  0  0  0  0  0  0  0  0  0  0  0
    3.2028    6.7227    0.8277 H   0  0  0  0  0  0  0  0  0  0  0  0
    2.1547    2.7976   -1.7210 H   0  0  0  0  0  0  0  0  0  0  0  0
    1.4262    4.3488   -2.0366 H   0  0  0  0  0  0  0  0  0  0  0  0
    5.3052    3.7491    0.7743 H   0  0  0  0  0  0  0  0  0  0  0  0
    3.7673    3.8069   -2.9969 H   0  0  0  0  0  0  0  0  0  0  0  0
    3.5989    5.3836   -2.2367 H   0  0  0  0  0  0  0  0  0  0  0  0
    2.5871    1.4287    0.4715 H   0  0  0  0  0  0  0  0  0  0  0  0
   -0.7551    4.0145    0.7083 H   0  0  0  0  0  0  0  0  0  0  0  0
    1.2221   -0.3816    1.2095 H   0  0  0  0  0  0  0  0  0  0  0  0
   -2.1037    2.1913    1.4018 H   0  0  0  0  0  0  0  0  0  0  0  0
   -2.2707   -0.1462    1.9604 H   0  0  0  0  0  0  0  0  0  0  0  0
   -0.9446   -1.1710    1.8621 H   0  0  0  0  0  0  0  0  0  0  0  0
  1  2  1  0  0  0  0 
  3  1  1  0  0  0  0 
  3  4  1  0  0  0  0 
  3  5  1  0  0  0  0 
  3  6  1  0  0  0  0 
  4  7  2  0  0  0  0 
  4  8  1  0  0  0  0 
  5  9  1  0  0  0  0 
  6 10  2  0  0  0  0 
  6 11  1  0  0  0  0 
  8 12  1  0  0  0  0 
  9 12  1  0  0  0  0 
 10 13  1  0  0  0  0 
 11 14  2  0  0  0  0 
 12 15  2  0  0  0  0 
 13 16  2  0  0  0  0 
 14 16  1  0  0  0  0 
 16 17  1  0  0  0  0 
  1 18  1  0  0  0  0 
  1 19  1  0  0  0  0 
  2 20  1  0  0  0  0 
  2 21  1  0  0  0  0 
  2 22  1  0  0  0  0 
  5 23  1  0  0  0  0 
  5 24  1  0  0  0  0 
  8 25  1  0  0  0  0 
  9 26  1  0  0  0  0 
  9 27  1  0  0  0  0 
 10 28  1  0  0  0  0 
 11 29  1  0  0  0  0 
 13 30  1  0  0  0  0 
 14 31  1  0  0  0  0 
 17 32  1  0  0  0  0 
 17 33  1  0  0  0  0 
M  END
> <cdk:Title>
aminoglutethimide

> <Conformer>
1

> <SuperDrugID>
SD000130

$$$$
