sulfur hexafluoride
  CDK     0628171801

  7  6  0  0  0  0  0  0  0  0999 V2000
   10.6744   -8.1666  -15.7231 F   0  0  0  0  0  0  0  0  0  0  0  0
   10.4606   -7.0556  -17.0280 S   0  0  0  0  0  0  0  0  0  0  0  0
   11.9570   -6.2936  -16.6244 F   0  0  0  0  0  0  0  0  0  0  0  0
    8.9641   -7.8176  -17.4316 F   0  0  0  0  0  0  0  0  0  0  0  0
   11.2959   -8.1363  -18.0850 F   0  0  0  0  0  0  0  0  0  0  0  0
   10.2467   -5.9446  -18.3329 F   0  0  0  0  0  0  0  0  0  0  0  0
    9.6253   -5.9749  -15.9710 F   0  0  0  0  0  0  0  0  0  0  0  0
  1  2  1  0  0  0  0 
  2  3  1  0  0  0  0 
  2  4  1  0  0  0  0 
  2  5  1  0  0  0  0 
  2  6  1  0  0  0  0 
  2  7  1  0  0  0  0 
M  END
> <cdk:Title>
sulfur hexafluoride

> <Conformer>
1

> <SuperDrugID>
SD003335

$$$$
