bermoprofen
  CDK     0628171801

 38 40  0  0  0  0  0  0  0  0999 V2000
   -2.5546   -0.1960   -5.6884 O   0  0  0  0  0  0  0  0  0  0  0  0
   -1.3949    0.2510   -5.8540 C   0  0  0  0  0  0  0  0  0  0  0  0
   -1.2174    1.6319   -6.0497 C   0  0  0  0  0  0  0  0  0  0  0  0
   -0.2402   -0.6753   -5.9058 C   0  0  1  0  0  0  0  0  0  0  0  0
   -0.3796    2.3510   -5.1724 C   0  0  0  0  0  0  0  0  0  0  0  0
   -1.8639    2.3005   -7.1101 C   0  0  0  0  0  0  0  0  0  0  0  0
    0.9591   -0.3638   -5.0683 C   0  0  0  0  0  0  0  0  0  0  0  0
    0.1458    1.7574   -4.0568 O   0  0  0  0  0  0  0  0  0  0  0  0
   -0.1772    3.7275   -5.3809 C   0  0  0  0  0  0  0  0  0  0  0  0
   -1.6770    3.6873   -7.3308 C   0  0  0  0  0  0  0  0  0  0  0  0
    1.1080    0.8006   -4.2588 C   0  0  0  0  0  0  0  0  0  0  0  0
    2.0207   -1.3036   -5.0955 C   0  0  0  0  0  0  0  0  0  0  0  0
   -0.8142    4.3857   -6.4509 C   0  0  0  0  0  0  0  0  0  0  0  0
   -2.3683    4.3923   -8.4606 C   0  0  2  0  0  0  0  0  0  0  0  0
    2.2943    0.9959   -3.5253 C   0  0  0  0  0  0  0  0  0  0  0  0
    3.1943   -1.1278   -4.3285 C   0  0  0  0  0  0  0  0  0  0  0  0
   -3.8442    4.3710   -8.2891 C   0  0  0  0  0  0  0  0  0  0  0  0
   -1.9303    3.8513   -9.8491 C   0  0  0  0  0  0  0  0  0  0  0  0
    3.3249    0.0442   -3.5548 C   0  0  0  0  0  0  0  0  0  0  0  0
    4.2703   -2.1486   -4.3399 C   0  0  0  0  0  0  0  0  0  0  0  0
   -4.5184    5.5039   -7.9697 O   0  0  0  0  0  0  0  0  0  0  0  0
   -4.5074    3.3163   -8.4160 O   0  0  0  0  0  0  0  0  0  0  0  0
   -0.5916   -1.6786   -5.6437 H   0  0  0  0  0  0  0  0  0  0  0  0
    0.0864   -0.7086   -6.9497 H   0  0  0  0  0  0  0  0  0  0  0  0
   -2.4769    1.7646   -7.7290 H   0  0  0  0  0  0  0  0  0  0  0  0
    0.4253    4.2563   -4.7444 H   0  0  0  0  0  0  0  0  0  0  0  0
    1.9361   -2.1422   -5.6792 H   0  0  0  0  0  0  0  0  0  0  0  0
   -0.6475    5.3878   -6.5740 H   0  0  0  0  0  0  0  0  0  0  0  0
   -2.0775    5.4467   -8.4540 H   0  0  0  0  0  0  0  0  0  0  0  0
    2.4084    1.8344   -2.9498 H   0  0  0  0  0  0  0  0  0  0  0  0
   -2.3912    4.4336  -10.6493 H   0  0  0  0  0  0  0  0  0  0  0  0
   -0.8468    3.9279   -9.9592 H   0  0  0  0  0  0  0  0  0  0  0  0
   -2.2182    2.8066   -9.9749 H   0  0  0  0  0  0  0  0  0  0  0  0
    4.1700    0.2097   -3.0012 H   0  0  0  0  0  0  0  0  0  0  0  0
    4.9689   -1.9323   -5.1502 H   0  0  0  0  0  0  0  0  0  0  0  0
    3.8597   -3.1506   -4.4862 H   0  0  0  0  0  0  0  0  0  0  0  0
    4.8180   -2.1526   -3.3943 H   0  0  0  0  0  0  0  0  0  0  0  0
   -5.4893    5.4857   -7.8275 H   0  0  0  0  0  0  0  0  0  0  0  0
  1  2  2  0  0  0  0 
  2  3  1  0  0  0  0 
  2  4  1  0  0  0  0 
  3  5  2  0  0  0  0 
  3  6  1  0  0  0  0 
  4  7  1  0  0  0  0 
  5  8  1  0  0  0  0 
  5  9  1  0  0  0  0 
  6 10  2  0  0  0  0 
  7 11  2  0  0  0  0 
  7 12  1  0  0  0  0 
  8 11  1  0  0  0  0 
  9 13  2  0  0  0  0 
 10 13  1  0  0  0  0 
 14 10  1  0  0  0  0 
 11 15  1  0  0  0  0 
 12 16  2  0  0  0  0 
 14 17  1  0  0  0  0 
 14 18  1  0  0  0  0 
 15 19  2  0  0  0  0 
 16 19  1  0  0  0  0 
 16 20  1  0  0  0  0 
 17 21  1  0  0  0  0 
 17 22  2  0  0  0  0 
  4 23  1  0  0  0  0 
  4 24  1  0  0  0  0 
  6 25  1  0  0  0  0 
  9 26  1  0  0  0  0 
 12 27  1  0  0  0  0 
 13 28  1  0  0  0  0 
 14 29  1  0  0  0  0 
 15 30  1  0  0  0  0 
 18 31  1  0  0  0  0 
 18 32  1  0  0  0  0 
 18 33  1  0  0  0  0 
 19 34  1  0  0  0  0 
 20 35  1  0  0  0  0 
 20 36  1  0  0  0  0 
 20 37  1  0  0  0  0 
 21 38  1  0  0  0  0 
M  END
> <cdk:Title>
bermoprofen

> <Conformer>
1

> <SuperDrugID>
SD002626

$$$$
