miltefosine
  CDK     0628171801

 73 72  0  0  0  0  0  0  0  0999 V2000
    6.6371  -11.6847   -6.2510 O   0  0  0  0  0  0  0  0  0  0  0  0
    5.9662  -10.1952   -6.0676 P   0  0  2  0  0  0  0  0  0  0  0  0
    6.6412  -12.5211   -7.4776 C   0  0  2  0  0  0  0  0  0  0  0  0
    6.5097   -9.5844   -4.7027 O   0  0  0  0  0  0  0  0  0  0  0  0
    4.5059  -10.3087   -6.0411 O   0  0  0  0  0  0  0  0  0  0  0  0
    6.4385   -9.2775   -7.2640 O   0  0  0  0  0  0  0  0  0  0  0  0
    7.3472  -13.8694   -7.2004 C   0  0  2  0  0  0  0  0  0  0  0  0
    7.9468   -9.6128   -4.5724 C   0  0  1  0  0  0  0  0  0  0  0  0
    7.3436  -14.7675   -8.4630 C   0  0  1  0  0  0  0  0  0  0  0  0
    8.3116   -8.8873   -3.2528 C   0  0  1  0  0  0  0  0  0  0  0  0
    8.0197  -16.1477   -8.2523 C   0  0  1  0  0  0  0  0  0  0  0  0
    9.7767   -8.7456   -2.8639 N   0  0  2  0  0  0  0  0  0  0  0  0
    7.9093  -17.0079   -9.5382 C   0  0  1  0  0  0  0  0  0  0  0  0
    9.8337   -8.0057   -1.5424 C   0  0  0  0  0  0  0  0  0  0  0  0
   10.5448   -7.9447   -3.8908 C   0  0  0  0  0  0  0  0  0  0  0  0
   10.4366  -10.0934   -2.6832 C   0  0  0  0  0  0  0  0  0  0  0  0
    8.5411  -18.4187   -9.4240 C   0  0  1  0  0  0  0  0  0  0  0  0
    8.3701  -19.2094  -10.7526 C   0  0  1  0  0  0  0  0  0  0  0  0
    8.9795  -20.6339  -10.7152 C   0  0  2  0  0  0  0  0  0  0  0  0
    8.8012  -21.4070  -12.0536 C   0  0  1  0  0  0  0  0  0  0  0  0
    9.4219  -22.8286  -11.9907 C   0  0  2  0  0  0  0  0  0  0  0  0
    9.2688  -23.6381  -13.3067 C   0  0  1  0  0  0  0  0  0  0  0  0
    9.9017  -25.0532  -13.2053 C   0  0  2  0  0  0  0  0  0  0  0  0
    9.7536  -25.8702  -14.5165 C   0  0  2  0  0  0  0  0  0  0  0  0
   10.3861  -27.2836  -14.4139 C   0  0  1  0  0  0  0  0  0  0  0  0
   10.2370  -28.0985  -15.7254 C   0  0  1  0  0  0  0  0  0  0  0  0
   10.8667  -29.5048  -15.6223 C   0  0  0  0  0  0  0  0  0  0  0  0
    7.1730  -11.9861   -8.2685 H   0  0  0  0  0  0  0  0  0  0  0  0
    5.6085  -12.6911   -7.7927 H   0  0  0  0  0  0  0  0  0  0  0  0
    6.8314  -14.3796   -6.3819 H   0  0  0  0  0  0  0  0  0  0  0  0
    8.3782  -13.6765   -6.8901 H   0  0  0  0  0  0  0  0  0  0  0  0
    8.2963  -10.6462   -4.5225 H   0  0  0  0  0  0  0  0  0  0  0  0
    8.4272   -9.1048   -5.4118 H   0  0  0  0  0  0  0  0  0  0  0  0
    6.3059  -14.9266   -8.7720 H   0  0  0  0  0  0  0  0  0  0  0  0
    7.8612  -14.2421   -9.2721 H   0  0  0  0  0  0  0  0  0  0  0  0
    7.8618   -7.8905   -3.3254 H   0  0  0  0  0  0  0  0  0  0  0  0
    7.7738   -9.4208   -2.4608 H   0  0  0  0  0  0  0  0  0  0  0  0
    9.0736  -16.0018   -7.9985 H   0  0  0  0  0  0  0  0  0  0  0  0
    7.5309  -16.6697   -7.4251 H   0  0  0  0  0  0  0  0  0  0  0  0
    6.8498  -17.1221   -9.7862 H   0  0  0  0  0  0  0  0  0  0  0  0
    8.3957  -16.4708  -10.3581 H   0  0  0  0  0  0  0  0  0  0  0  0
   10.8636   -7.8644   -1.1981 H   0  0  0  0  0  0  0  0  0  0  0  0
    9.3783   -7.0130   -1.6212 H   0  0  0  0  0  0  0  0  0  0  0  0
    9.3000   -8.5501   -0.7561 H   0  0  0  0  0  0  0  0  0  0  0  0
   10.6369   -8.4801   -4.8382 H   0  0  0  0  0  0  0  0  0  0  0  0
   11.5626   -7.7277   -3.5529 H   0  0  0  0  0  0  0  0  0  0  0  0
   10.0592   -6.9873   -4.0999 H   0  0  0  0  0  0  0  0  0  0  0  0
   10.4897  -10.6484   -3.6220 H   0  0  0  0  0  0  0  0  0  0  0  0
    9.8951  -10.7145   -1.9642 H   0  0  0  0  0  0  0  0  0  0  0  0
   11.4634   -9.9912   -2.3191 H   0  0  0  0  0  0  0  0  0  0  0  0
    9.6053  -18.3203   -9.1899 H   0  0  0  0  0  0  0  0  0  0  0  0
    8.0590  -18.9656   -8.6082 H   0  0  0  0  0  0  0  0  0  0  0  0
    7.3026  -19.2904  -10.9775 H   0  0  0  0  0  0  0  0  0  0  0  0
    8.8463  -18.6448  -11.5594 H   0  0  0  0  0  0  0  0  0  0  0  0
    8.5010  -21.2004   -9.9115 H   0  0  0  0  0  0  0  0  0  0  0  0
   10.0466  -20.5540  -10.4906 H   0  0  0  0  0  0  0  0  0  0  0  0
    7.7345  -21.4910  -12.2812 H   0  0  0  0  0  0  0  0  0  0  0  0
    9.2777  -20.8429  -12.8609 H   0  0  0  0  0  0  0  0  0  0  0  0
    8.9425  -23.3847  -11.1804 H   0  0  0  0  0  0  0  0  0  0  0  0
   10.4866  -22.7362  -11.7590 H   0  0  0  0  0  0  0  0  0  0  0  0
    8.2059  -23.7400  -13.5430 H   0  0  0  0  0  0  0  0  0  0  0  0
    9.7504  -23.0909  -14.1219 H   0  0  0  0  0  0  0  0  0  0  0  0
    9.4215  -25.6023  -12.3898 H   0  0  0  0  0  0  0  0  0  0  0  0
   10.9652  -24.9533  -12.9685 H   0  0  0  0  0  0  0  0  0  0  0  0
   10.2356  -25.3236  -15.3322 H   0  0  0  0  0  0  0  0  0  0  0  0
    8.6906  -25.9730  -14.7531 H   0  0  0  0  0  0  0  0  0  0  0  0
   11.4493  -27.1815  -14.1771 H   0  0  0  0  0  0  0  0  0  0  0  0
    9.9047  -27.8308  -13.5981 H   0  0  0  0  0  0  0  0  0  0  0  0
    9.1761  -28.2077  -15.9667 H   0  0  0  0  0  0  0  0  0  0  0  0
   10.7194  -27.5590  -16.5452 H   0  0  0  0  0  0  0  0  0  0  0  0
   10.7373  -30.0380  -16.5656 H   0  0  0  0  0  0  0  0  0  0  0  0
   11.9346  -29.4276  -15.4089 H   0  0  0  0  0  0  0  0  0  0  0  0
   10.3853  -30.0787  -14.8282 H   0  0  0  0  0  0  0  0  0  0  0  0
  1  2  1  0  0  0  0 
  1  3  1  0  0  0  0 
  2  4  1  0  0  0  0 
  2  5  2  0  0  0  0 
  2  6  1  0  0  0  0 
  3  7  1  0  0  0  0 
  4  8  1  0  0  0  0 
  7  9  1  0  0  0  0 
  8 10  1  0  0  0  0 
  9 11  1  0  0  0  0 
 10 12  1  0  0  0  0 
 11 13  1  0  0  0  0 
 12 14  1  0  0  0  0 
 12 15  1  0  0  0  0 
 12 16  1  0  0  0  0 
 13 17  1  0  0  0  0 
 17 18  1  0  0  0  0 
 18 19  1  0  0  0  0 
 19 20  1  0  0  0  0 
 20 21  1  0  0  0  0 
 21 22  1  0  0  0  0 
 22 23  1  0  0  0  0 
 23 24  1  0  0  0  0 
 24 25  1  0  0  0  0 
 25 26  1  0  0  0  0 
 26 27  1  0  0  0  0 
  3 28  1  0  0  0  0 
  3 29  1  0  0  0  0 
  7 30  1  0  0  0  0 
  7 31  1  0  0  0  0 
  8 32  1  0  0  0  0 
  8 33  1  0  0  0  0 
  9 34  1  0  0  0  0 
  9 35  1  0  0  0  0 
 10 36  1  0  0  0  0 
 10 37  1  0  0  0  0 
 11 38  1  0  0  0  0 
 11 39  1  0  0  0  0 
 13 40  1  0  0  0  0 
 13 41  1  0  0  0  0 
 14 42  1  0  0  0  0 
 14 43  1  0  0  0  0 
 14 44  1  0  0  0  0 
 15 45  1  0  0  0  0 
 15 46  1  0  0  0  0 
 15 47  1  0  0  0  0 
 16 48  1  0  0  0  0 
 16 49  1  0  0  0  0 
 16 50  1  0  0  0  0 
 17 51  1  0  0  0  0 
 17 52  1  0  0  0  0 
 18 53  1  0  0  0  0 
 18 54  1  0  0  0  0 
 19 55  1  0  0  0  0 
 19 56  1  0  0  0  0 
 20 57  1  0  0  0  0 
 20 58  1  0  0  0  0 
 21 59  1  0  0  0  0 
 21 60  1  0  0  0  0 
 22 61  1  0  0  0  0 
 22 62  1  0  0  0  0 
 23 63  1  0  0  0  0 
 23 64  1  0  0  0  0 
 24 65  1  0  0  0  0 
 24 66  1  0  0  0  0 
 25 67  1  0  0  0  0 
 25 68  1  0  0  0  0 
 26 69  1  0  0  0  0 
 26 70  1  0  0  0  0 
 27 71  1  0  0  0  0 
 27 72  1  0  0  0  0 
 27 73  1  0  0  0  0 
M  CHG  1   6  -1
M  CHG  1  12   1
M  END
> <cdk:Title>
miltefosine

> <Conformer>
1

> <SuperDrugID>
SD001609

$$$$
