difetarsone
  CDK     0628171801

 42 43  0  0  0  0  0  0  0  0999 V2000
   -1.4296   -1.3729   -0.4282 As  0  0  1  0  0  0  0  0  0  0  0  0
   -0.2209   -1.8827   -1.6062 O   0  0  0  0  0  0  0  0  0  0  0  0
   -2.9964   -0.9032   -1.3251 O   0  0  0  0  0  0  0  0  0  0  0  0
   -1.7854   -2.7986    0.7208 O   0  0  0  0  0  0  0  0  0  0  0  0
   -0.8002    0.1241    0.5835 C   0  0  0  0  0  0  0  0  0  0  0  0
   -1.6982    0.8755    1.3642 C   0  0  0  0  0  0  0  0  0  0  0  0
    0.5616    0.4763    0.5493 C   0  0  0  0  0  0  0  0  0  0  0  0
   -1.2367    1.9827    2.0995 C   0  0  0  0  0  0  0  0  0  0  0  0
    1.0251    1.5734    1.2981 C   0  0  0  0  0  0  0  0  0  0  0  0
    0.1336    2.3421    2.0768 C   0  0  0  0  0  0  0  0  0  0  0  0
    0.6613    3.3920    2.7698 N   0  0  0  0  0  0  0  0  0  0  0  0
   -0.0582    4.2812    3.6211 C   0  0  2  0  0  0  0  0  0  0  0  0
    0.9012    5.2519    4.3357 C   0  0  2  0  0  0  0  0  0  0  0  0
    0.1866    6.0028    5.3145 N   0  0  0  0  0  0  0  0  0  0  0  0
    0.6689    7.0424    6.0542 C   0  0  0  0  0  0  0  0  0  0  0  0
   -0.1723    7.5585    7.0641 C   0  0  0  0  0  0  0  0  0  0  0  0
    1.9410    7.6339    5.8596 C   0  0  0  0  0  0  0  0  0  0  0  0
    0.2303    8.6595    7.8411 C   0  0  0  0  0  0  0  0  0  0  0  0
    2.3472    8.7313    6.6401 C   0  0  0  0  0  0  0  0  0  0  0  0
    1.4901    9.2489    7.6296 C   0  0  0  0  0  0  0  0  0  0  0  0
    2.0255   10.7607    8.6704 As  0  0  2  0  0  0  0  0  0  0  0  0
    0.6327   11.4618    9.4936 O   0  0  0  0  0  0  0  0  0  0  0  0
    2.7790   12.0393    7.5416 O   0  0  0  0  0  0  0  0  0  0  0  0
    3.2875   10.2337    9.9380 O   0  0  0  0  0  0  0  0  0  0  0  0
   -3.2535   -1.7100   -1.8186 H   0  0  0  0  0  0  0  0  0  0  0  0
   -2.0108   -3.5454    0.1262 H   0  0  0  0  0  0  0  0  0  0  0  0
   -2.6899    0.6268    1.3939 H   0  0  0  0  0  0  0  0  0  0  0  0
    1.2205   -0.0619   -0.0187 H   0  0  0  0  0  0  0  0  0  0  0  0
   -1.9124    2.5196    2.6469 H   0  0  0  0  0  0  0  0  0  0  0  0
    2.0211    1.8070    1.2654 H   0  0  0  0  0  0  0  0  0  0  0  0
    1.6138    3.5510    2.6715 H   0  0  0  0  0  0  0  0  0  0  0  0
   -0.6037    3.7049    4.3714 H   0  0  0  0  0  0  0  0  0  0  0  0
   -0.7668    4.8641    3.0249 H   0  0  0  0  0  0  0  0  0  0  0  0
    1.3407    5.9165    3.5912 H   0  0  0  0  0  0  0  0  0  0  0  0
    1.6990    4.6923    4.8312 H   0  0  0  0  0  0  0  0  0  0  0  0
   -0.7275    5.7260    5.4901 H   0  0  0  0  0  0  0  0  0  0  0  0
   -1.0890    7.1399    7.2424 H   0  0  0  0  0  0  0  0  0  0  0  0
    2.5818    7.2753    5.1494 H   0  0  0  0  0  0  0  0  0  0  0  0
   -0.3965    9.0277    8.5600 H   0  0  0  0  0  0  0  0  0  0  0  0
    3.2662    9.1511    6.4777 H   0  0  0  0  0  0  0  0  0  0  0  0
    3.0425   12.7721    8.1361 H   0  0  0  0  0  0  0  0  0  0  0  0
    3.4898   11.0471   10.4460 H   0  0  0  0  0  0  0  0  0  0  0  0
  1  2  2  0  0  0  0 
  1  3  1  0  0  0  0 
  1  4  1  0  0  0  0 
  1  5  1  0  0  0  0 
  5  6  2  0  0  0  0 
  5  7  1  0  0  0  0 
  6  8  1  0  0  0  0 
  7  9  2  0  0  0  0 
  8 10  2  0  0  0  0 
  9 10  1  0  0  0  0 
 10 11  1  0  0  0  0 
 11 12  1  0  0  0  0 
 12 13  1  0  0  0  0 
 13 14  1  0  0  0  0 
 14 15  1  0  0  0  0 
 15 16  2  0  0  0  0 
 15 17  1  0  0  0  0 
 16 18  1  0  0  0  0 
 17 19  2  0  0  0  0 
 18 20  2  0  0  0  0 
 19 20  1  0  0  0  0 
 20 21  1  0  0  0  0 
 21 22  2  0  0  0  0 
 21 23  1  0  0  0  0 
 21 24  1  0  0  0  0 
  3 25  1  0  0  0  0 
  4 26  1  0  0  0  0 
  6 27  1  0  0  0  0 
  7 28  1  0  0  0  0 
  8 29  1  0  0  0  0 
  9 30  1  0  0  0  0 
 11 31  1  0  0  0  0 
 12 32  1  0  0  0  0 
 12 33  1  0  0  0  0 
 13 34  1  0  0  0  0 
 13 35  1  0  0  0  0 
 14 36  1  0  0  0  0 
 16 37  1  0  0  0  0 
 17 38  1  0  0  0  0 
 18 39  1  0  0  0  0 
 19 40  1  0  0  0  0 
 23 41  1  0  0  0  0 
 24 42  1  0  0  0  0 
M  END
> <cdk:Title>
difetarsone

> <Conformer>
1

> <SuperDrugID>
SD003558

$$$$
