masoprocol
  CDK     0628171801

 44 45  0  0  0  0  0  0  0  0999 V2000
    4.8559   -0.0261   -3.2310 C   0  0  1  0  0  0  0  0  0  0  0  0
    5.4602    0.4995   -1.8826 C   0  0  1  0  0  0  0  0  0  0  0  0
    5.0746   -1.4841   -3.4649 C   0  0  0  0  0  0  0  0  0  0  0  0
    5.4775    2.0723   -1.7426 C   0  0  1  0  0  0  0  0  0  0  0  0
    4.8079   -0.1980   -0.6509 C   0  0  0  0  0  0  0  0  0  0  0  0
    6.3754   -1.9754   -3.7295 C   0  0  0  0  0  0  0  0  0  0  0  0
    4.0018   -2.4063   -3.4219 C   0  0  0  0  0  0  0  0  0  0  0  0
    6.4185    2.8001   -2.7656 C   0  0  1  0  0  0  0  0  0  0  0  0
    4.0631    2.7257   -1.7685 C   0  0  0  0  0  0  0  0  0  0  0  0
    6.6078   -3.3523   -3.9219 C   0  0  0  0  0  0  0  0  0  0  0  0
    4.2303   -3.7831   -3.6084 C   0  0  0  0  0  0  0  0  0  0  0  0
    7.8156    2.2799   -2.8266 C   0  0  0  0  0  0  0  0  0  0  0  0
    7.8617   -3.8092   -4.1697 O   0  0  0  0  0  0  0  0  0  0  0  0
    5.5338   -4.2601   -3.8471 C   0  0  0  0  0  0  0  0  0  0  0  0
    8.3317    1.6871   -4.0042 C   0  0  0  0  0  0  0  0  0  0  0  0
    8.6573    2.3674   -1.6940 C   0  0  0  0  0  0  0  0  0  0  0  0
    5.7592   -5.5887   -3.9980 O   0  0  0  0  0  0  0  0  0  0  0  0
    9.6449    1.1763   -4.0460 C   0  0  0  0  0  0  0  0  0  0  0  0
    9.9705    1.8656   -1.7313 C   0  0  0  0  0  0  0  0  0  0  0  0
   10.0915    0.6005   -5.1923 O   0  0  0  0  0  0  0  0  0  0  0  0
   10.4686    1.2644   -2.9043 C   0  0  0  0  0  0  0  0  0  0  0  0
   11.7348    0.7733   -2.9403 O   0  0  0  0  0  0  0  0  0  0  0  0
    3.7876    0.2027   -3.2505 H   0  0  0  0  0  0  0  0  0  0  0  0
    5.3000    0.5088   -4.0729 H   0  0  0  0  0  0  0  0  0  0  0  0
    6.5054    0.1811   -1.8470 H   0  0  0  0  0  0  0  0  0  0  0  0
    5.8817    2.2999   -0.7512 H   0  0  0  0  0  0  0  0  0  0  0  0
    3.7240   -0.0712   -0.6524 H   0  0  0  0  0  0  0  0  0  0  0  0
    5.2095    0.2114    0.2786 H   0  0  0  0  0  0  0  0  0  0  0  0
    5.0303   -1.2673   -0.6631 H   0  0  0  0  0  0  0  0  0  0  0  0
    7.1663   -1.3266   -3.7807 H   0  0  0  0  0  0  0  0  0  0  0  0
    3.0466   -2.0844   -3.2463 H   0  0  0  0  0  0  0  0  0  0  0  0
    5.9558    2.7711   -3.7550 H   0  0  0  0  0  0  0  0  0  0  0  0
    6.4875    3.8564   -2.4940 H   0  0  0  0  0  0  0  0  0  0  0  0
    3.4175    2.3019   -0.9994 H   0  0  0  0  0  0  0  0  0  0  0  0
    3.5866    2.5857   -2.7385 H   0  0  0  0  0  0  0  0  0  0  0  0
    4.1350    3.7984   -1.5792 H   0  0  0  0  0  0  0  0  0  0  0  0
    3.4434   -4.4367   -3.5691 H   0  0  0  0  0  0  0  0  0  0  0  0
    8.4517   -3.0307   -4.0928 H   0  0  0  0  0  0  0  0  0  0  0  0
    7.7503    1.6179   -4.8432 H   0  0  0  0  0  0  0  0  0  0  0  0
    8.3170    2.7984   -0.8307 H   0  0  0  0  0  0  0  0  0  0  0  0
    5.2542   -6.0180   -3.2750 H   0  0  0  0  0  0  0  0  0  0  0  0
   10.5596    1.9378   -0.8985 H   0  0  0  0  0  0  0  0  0  0  0  0
   11.0668    0.5453   -5.1018 H   0  0  0  0  0  0  0  0  0  0  0  0
   12.1730    1.0880   -2.1208 H   0  0  0  0  0  0  0  0  0  0  0  0
  2  1  1  0  0  0  0 
  1  3  1  0  0  0  0 
  4  2  1  0  0  0  0 
  2  5  1  0  0  0  0 
  3  6  2  0  0  0  0 
  3  7  1  0  0  0  0 
  4  8  1  0  0  0  0 
  4  9  1  0  0  0  0 
  6 10  1  0  0  0  0 
  7 11  2  0  0  0  0 
  8 12  1  0  0  0  0 
 10 13  1  0  0  0  0 
 10 14  2  0  0  0  0 
 11 14  1  0  0  0  0 
 12 15  2  0  0  0  0 
 12 16  1  0  0  0  0 
 14 17  1  0  0  0  0 
 15 18  1  0  0  0  0 
 16 19  2  0  0  0  0 
 18 20  1  0  0  0  0 
 18 21  2  0  0  0  0 
 19 21  1  0  0  0  0 
 21 22  1  0  0  0  0 
  1 23  1  0  0  0  0 
  1 24  1  0  0  0  0 
  2 25  1  0  0  0  0 
  4 26  1  0  0  0  0 
  5 27  1  0  0  0  0 
  5 28  1  0  0  0  0 
  5 29  1  0  0  0  0 
  6 30  1  0  0  0  0 
  7 31  1  0  0  0  0 
  8 32  1  0  0  0  0 
  8 33  1  0  0  0  0 
  9 34  1  0  0  0  0 
  9 35  1  0  0  0  0 
  9 36  1  0  0  0  0 
 11 37  1  0  0  0  0 
 13 38  1  0  0  0  0 
 15 39  1  0  0  0  0 
 16 40  1  0  0  0  0 
 17 41  1  0  0  0  0 
 19 42  1  0  0  0  0 
 20 43  1  0  0  0  0 
 22 44  1  0  0  0  0 
M  END
> <cdk:Title>
masoprocol

> <Conformer>
1

> <SuperDrugID>
SD001447

$$$$
