ranitidine
  CDK     0628171801

 43 43  0  0  0  0  0  0  0  0999 V2000
    1.2431    2.5393   -3.5387 C   0  0  2  0  0  0  0  0  0  0  0  0
    0.9459    2.2239   -4.9732 N   0  0  1  0  0  0  0  0  0  0  0  0
    1.1443    1.3359   -2.6937 C   0  0  0  0  0  0  0  0  0  0  0  0
   -0.4837    1.8746   -5.2254 C   0  0  0  0  0  0  0  0  0  0  0  0
    1.4320    3.2796   -5.9070 C   0  0  0  0  0  0  0  0  0  0  0  0
    0.2416    1.1535   -1.6980 O   0  0  0  0  0  0  0  0  0  0  0  0
    1.9286    0.1936   -2.8089 C   0  0  0  0  0  0  0  0  0  0  0  0
    0.4186   -0.0926   -1.1913 C   0  0  0  0  0  0  0  0  0  0  0  0
    1.4676   -0.7086   -1.8658 C   0  0  0  0  0  0  0  0  0  0  0  0
   -0.4027   -0.6777   -0.1227 C   0  0  1  0  0  0  0  0  0  0  0  0
   -0.0140    0.1044    1.4715 S   0  0  0  0  0  0  0  0  0  0  0  0
   -1.2384   -0.6276    2.6069 C   0  0  1  0  0  0  0  0  0  0  0  0
   -0.8959   -0.2712    4.0692 C   0  0  2  0  0  0  0  0  0  0  0  0
   -1.8716   -0.7828    4.9191 N   0  0  0  0  0  0  0  0  0  0  0  0
   -2.0196   -0.7833    6.2020 C   0  0  0  0  0  0  0  0  0  0  0  0
   -3.2357   -1.3750    6.7507 C   0  0  1  0  0  0  0  0  0  0  0  0
   -1.1877   -0.2728    7.1235 N   0  0  0  0  0  0  0  0  0  0  0  0
   -4.0357   -2.0936    5.8516 N   0  0  0  0  0  0  0  0  0  0  0  0
    0.1777    0.1018    6.9795 C   0  0  0  0  0  0  0  0  0  0  0  0
   -5.0900   -1.7150    5.5227 O   0  0  0  0  0  0  0  0  0  0  0  0
   -3.6391   -3.2078    5.3863 O   0  0  0  0  0  0  0  0  0  0  0  0
    0.5566    3.3054   -3.1688 H   0  0  0  0  0  0  0  0  0  0  0  0
    2.2609    2.9229   -3.4269 H   0  0  0  0  0  0  0  0  0  0  0  0
   -1.1317    2.7345   -5.0374 H   0  0  0  0  0  0  0  0  0  0  0  0
   -0.7993    1.0509   -4.5814 H   0  0  0  0  0  0  0  0  0  0  0  0
   -0.6218    1.5499   -6.2601 H   0  0  0  0  0  0  0  0  0  0  0  0
    0.9296    4.2312   -5.7192 H   0  0  0  0  0  0  0  0  0  0  0  0
    1.2515    2.9885   -6.9438 H   0  0  0  0  0  0  0  0  0  0  0  0
    2.5082    3.4245   -5.7960 H   0  0  0  0  0  0  0  0  0  0  0  0
    2.6923    0.0407   -3.4709 H   0  0  0  0  0  0  0  0  0  0  0  0
    1.8298   -1.6513   -1.7051 H   0  0  0  0  0  0  0  0  0  0  0  0
   -1.4569   -0.5267   -0.3568 H   0  0  0  0  0  0  0  0  0  0  0  0
   -0.2117   -1.7482   -0.0359 H   0  0  0  0  0  0  0  0  0  0  0  0
   -2.2269   -0.2438    2.3446 H   0  0  0  0  0  0  0  0  0  0  0  0
   -1.2389   -1.7136    2.4833 H   0  0  0  0  0  0  0  0  0  0  0  0
   -0.8587    0.8176    4.1744 H   0  0  0  0  0  0  0  0  0  0  0  0
    0.0811   -0.6976    4.3080 H   0  0  0  0  0  0  0  0  0  0  0  0
   -2.9632   -2.0606    7.5587 H   0  0  0  0  0  0  0  0  0  0  0  0
   -3.8176   -0.5644    7.2028 H   0  0  0  0  0  0  0  0  0  0  0  0
   -1.5545   -0.1818    8.0186 H   0  0  0  0  0  0  0  0  0  0  0  0
    0.5717    0.3574    7.9626 H   0  0  0  0  0  0  0  0  0  0  0  0
    0.7676   -0.7281    6.5856 H   0  0  0  0  0  0  0  0  0  0  0  0
    0.2787    0.9741    6.3332 H   0  0  0  0  0  0  0  0  0  0  0  0
  1  2  1  0  0  0  0 
  1  3  1  0  0  0  0 
  2  4  1  0  0  0  0 
  2  5  1  0  0  0  0 
  3  6  1  0  0  0  0 
  3  7  2  0  0  0  0 
  6  8  1  0  0  0  0 
  7  9  1  0  0  0  0 
  8  9  2  0  0  0  0 
  8 10  1  0  0  0  0 
 10 11  1  0  0  0  0 
 11 12  1  0  0  0  0 
 12 13  1  0  0  0  0 
 14 13  1  0  0  0  0 
 14 15  2  0  0  0  0 
 15 16  1  0  0  0  0 
 15 17  1  0  0  0  0 
 16 18  1  0  0  0  0 
 17 19  1  0  0  0  0 
 18 20  2  0  0  0  0 
 18 21  1  0  0  0  0 
 22  1  1  0  0  0  0 
 23  1  1  0  0  0  0 
 24  4  1  0  0  0  0 
 25  4  1  0  0  0  0 
 26  4  1  0  0  0  0 
 27  5  1  0  0  0  0 
 28  5  1  0  0  0  0 
 29  5  1  0  0  0  0 
 30  7  1  0  0  0  0 
 31  9  1  0  0  0  0 
 32 10  1  0  0  0  0 
 33 10  1  0  0  0  0 
 34 12  1  0  0  0  0 
 35 12  1  0  0  0  0 
 36 13  1  0  0  0  0 
 37 13  1  0  0  0  0 
 38 16  1  0  0  0  0 
 39 16  1  0  0  0  0 
 40 17  1  0  0  0  0 
 41 19  1  0  0  0  0 
 42 19  1  0  0  0  0 
 43 19  1  0  0  0  0 
M  CHG  1  18   1
M  CHG  1  21  -1
M  END
> <cdk:Title>
ranitidine

> <Conformer>
1

> <SuperDrugID>
SD002121

$$$$
