trolnitrate
  CDK     0628171801

 31 30  0  0  0  0  0  0  0  0999 V2000
   -3.6188    2.0391    0.8574 N   0  0  2  0  0  0  0  0  0  0  0  0
   -4.9134    1.2980    0.6293 C   0  0  2  0  0  0  0  0  0  0  0  0
   -2.4133    1.1367    0.7697 C   0  0  2  0  0  0  0  0  0  0  0  0
   -3.6393    2.9007    2.0972 C   0  0  1  0  0  0  0  0  0  0  0  0
   -5.0991    0.6382   -0.7623 C   0  0  2  0  0  0  0  0  0  0  0  0
   -1.0209    1.8158    0.8741 C   0  0  1  0  0  0  0  0  0  0  0  0
   -4.7489    3.9869    2.1402 C   0  0  1  0  0  0  0  0  0  0  0  0
   -6.4978    0.3349   -0.9461 O   0  0  0  0  0  0  0  0  0  0  0  0
    0.0034    0.8951    0.4432 O   0  0  0  0  0  0  0  0  0  0  0  0
   -4.3845    5.0566    3.0381 O   0  0  0  0  0  0  0  0  0  0  0  0
   -6.7565   -0.2285   -2.0643 N   0  0  0  0  0  0  0  0  0  0  0  0
    1.1894    1.3625    0.5726 N   0  0  0  0  0  0  0  0  0  0  0  0
   -5.2567    5.9952    3.0748 N   0  0  0  0  0  0  0  0  0  0  0  0
   -6.7685   -1.4920   -2.1591 O   0  0  0  0  0  0  0  0  0  0  0  0
   -7.0494    0.4130   -2.9944 O   0  0  0  0  0  0  0  0  0  0  0  0
    1.8023    1.2775    1.6795 O   0  0  0  0  0  0  0  0  0  0  0  0
    1.7433    1.8237   -0.3448 O   0  0  0  0  0  0  0  0  0  0  0  0
   -6.2807    5.9031    3.8168 O   0  0  0  0  0  0  0  0  0  0  0  0
   -5.0923    6.9723    2.4579 O   0  0  0  0  0  0  0  0  0  0  0  0
   -5.7472    1.9941    0.7202 H   0  0  0  0  0  0  0  0  0  0  0  0
   -5.0474    0.5338    1.4000 H   0  0  0  0  0  0  0  0  0  0  0  0
   -2.4251    0.6413   -0.2029 H   0  0  0  0  0  0  0  0  0  0  0  0
   -2.4768    0.3604    1.5385 H   0  0  0  0  0  0  0  0  0  0  0  0
   -3.7159    2.2728    2.9905 H   0  0  0  0  0  0  0  0  0  0  0  0
   -2.6995    3.4493    2.1629 H   0  0  0  0  0  0  0  0  0  0  0  0
   -4.5109   -0.2815   -0.8173 H   0  0  0  0  0  0  0  0  0  0  0  0
   -4.7598    1.3294   -1.5389 H   0  0  0  0  0  0  0  0  0  0  0  0
   -1.0085    2.7112    0.2449 H   0  0  0  0  0  0  0  0  0  0  0  0
   -0.8382    2.1034    1.9138 H   0  0  0  0  0  0  0  0  0  0  0  0
   -4.8900    4.3821    1.1295 H   0  0  0  0  0  0  0  0  0  0  0  0
   -5.6831    3.5299    2.4809 H   0  0  0  0  0  0  0  0  0  0  0  0
  1  2  1  0  0  0  0 
  1  3  1  0  0  0  0 
  1  4  1  0  0  0  0 
  2  5  1  0  0  0  0 
  3  6  1  0  0  0  0 
  4  7  1  0  0  0  0 
  5  8  1  0  0  0  0 
  6  9  1  0  0  0  0 
  7 10  1  0  0  0  0 
  8 11  1  0  0  0  0 
  9 12  1  0  0  0  0 
 10 13  1  0  0  0  0 
 11 14  1  0  0  0  0 
 11 15  2  0  0  0  0 
 12 16  1  0  0  0  0 
 12 17  2  0  0  0  0 
 13 18  1  0  0  0  0 
 13 19  2  0  0  0  0 
  2 20  1  0  0  0  0 
  2 21  1  0  0  0  0 
  3 22  1  0  0  0  0 
  3 23  1  0  0  0  0 
  4 24  1  0  0  0  0 
  4 25  1  0  0  0  0 
  5 26  1  0  0  0  0 
  5 27  1  0  0  0  0 
  6 28  1  0  0  0  0 
  6 29  1  0  0  0  0 
  7 30  1  0  0  0  0 
  7 31  1  0  0  0  0 
M  CHG  1  11   1
M  CHG  1  12   1
M  CHG  1  13   1
M  CHG  1  14  -1
M  CHG  1  16  -1
M  CHG  1  18  -1
M  END
> <cdk:Title>
trolnitrate

> <Conformer>
1

> <SuperDrugID>
SD002499

$$$$
