posatirelin
  CDK     0628171801

 53 54  0  0  0  0  0  0  0  0999 V2000
   -1.7706    2.2241    0.2568 C   0  0  0  0  0  0  0  0  0  0  0  0
   -2.2443    3.6421    0.2661 C   0  0  1  0  0  0  0  0  0  0  0  0
   -1.5989    1.4144   -0.8622 N   0  0  0  0  0  0  0  0  0  0  0  0
   -1.4365    4.4183   -0.6238 N   0  0  0  0  0  0  0  0  0  0  0  0
   -0.1191    4.7123   -0.4573 C   0  0  0  0  0  0  0  0  0  0  0  0
    0.4712    4.4624    0.6213 O   0  0  0  0  0  0  0  0  0  0  0  0
    0.6250    5.3159   -1.5823 C   0  0  1  0  0  0  0  0  0  0  0  0
   -1.9016    1.7829   -2.2187 C   0  0  1  0  0  0  0  0  0  0  0  0
    0.9740    6.6576   -1.2328 N   0  0  0  0  0  0  0  0  0  0  0  0
    1.8536    4.4459   -1.9906 C   0  0  2  0  0  0  0  0  0  0  0  0
    2.1590    7.2508   -1.5387 C   0  0  0  0  0  0  0  0  0  0  0  0
    2.7493    5.2417   -2.9687 C   0  0  1  0  0  0  0  0  0  0  0  0
    2.3484    8.4143   -1.1207 O   0  0  0  0  0  0  0  0  0  0  0  0
    3.2204    6.5742   -2.3247 C   0  0  1  0  0  0  0  0  0  0  0  0
   -0.0358    5.3890   -2.4526 H   0  0  0  0  0  0  0  0  0  0  0  0
   -1.4619    1.7644    1.3844 O   0  0  0  0  0  0  0  0  0  0  0  0
   -1.1527    0.7674   -3.0930 C   0  0  1  0  0  0  0  0  0  0  0  0
   -1.1538   -0.4928   -2.2225 C   0  0  2  0  0  0  0  0  0  0  0  0
   -1.1018    0.0598   -0.7747 C   0  0  1  0  0  0  0  0  0  0  0  0
    0.2677   -0.0298   -0.2006 C   0  0  0  0  0  0  0  0  0  0  0  0
    0.5584   -0.9518    0.5956 O   0  0  0  0  0  0  0  0  0  0  0  0
    1.2275    0.8611   -0.5052 N   0  0  0  0  0  0  0  0  0  0  0  0
   -2.1118    4.0679    1.2687 H   0  0  0  0  0  0  0  0  0  0  0  0
   -3.7495    3.8412   -0.0918 C   0  0  2  0  0  0  0  0  0  0  0  0
   -4.7996    3.3158    0.9458 C   0  0  1  0  0  0  0  0  0  0  0  0
   -6.1875    3.9641    0.6710 C   0  0  0  0  0  0  0  0  0  0  0  0
   -4.9351    1.7653    0.9749 C   0  0  0  0  0  0  0  0  0  0  0  0
   -1.8509    4.7145   -1.4511 H   0  0  0  0  0  0  0  0  0  0  0  0
   -2.9767    1.6988   -2.3980 H   0  0  0  0  0  0  0  0  0  0  0  0
   -1.5647    2.7814   -2.4925 H   0  0  0  0  0  0  0  0  0  0  0  0
    0.3144    7.1812   -0.7487 H   0  0  0  0  0  0  0  0  0  0  0  0
    1.5194    3.5193   -2.4639 H   0  0  0  0  0  0  0  0  0  0  0  0
    2.4534    4.1866   -1.1119 H   0  0  0  0  0  0  0  0  0  0  0  0
    3.6181    4.6389   -3.2487 H   0  0  0  0  0  0  0  0  0  0  0  0
    2.1846    5.4551   -3.8819 H   0  0  0  0  0  0  0  0  0  0  0  0
    3.5525    7.2464   -3.1194 H   0  0  0  0  0  0  0  0  0  0  0  0
    4.0699    6.3749   -1.6656 H   0  0  0  0  0  0  0  0  0  0  0  0
   -1.6451    0.6084   -4.0572 H   0  0  0  0  0  0  0  0  0  0  0  0
   -0.1244    1.1044   -3.2623 H   0  0  0  0  0  0  0  0  0  0  0  0
   -0.3150   -1.1483   -2.4745 H   0  0  0  0  0  0  0  0  0  0  0  0
   -2.0848   -1.0463   -2.3806 H   0  0  0  0  0  0  0  0  0  0  0  0
   -1.7876   -0.5292   -0.1534 H   0  0  0  0  0  0  0  0  0  0  0  0
    2.1144    0.7680   -0.1239 H   0  0  0  0  0  0  0  0  0  0  0  0
    1.0297    1.6061   -1.0928 H   0  0  0  0  0  0  0  0  0  0  0  0
   -3.9699    3.4218   -1.0745 H   0  0  0  0  0  0  0  0  0  0  0  0
   -3.8922    4.9231   -0.1800 H   0  0  0  0  0  0  0  0  0  0  0  0
   -4.4914    3.6395    1.9455 H   0  0  0  0  0  0  0  0  0  0  0  0
   -6.5574    3.6782   -0.3164 H   0  0  0  0  0  0  0  0  0  0  0  0
   -6.9155    3.6519    1.4224 H   0  0  0  0  0  0  0  0  0  0  0  0
   -6.1151    5.0532    0.7132 H   0  0  0  0  0  0  0  0  0  0  0  0
   -5.0982    1.3700   -0.0301 H   0  0  0  0  0  0  0  0  0  0  0  0
   -5.7740    1.4639    1.6066 H   0  0  0  0  0  0  0  0  0  0  0  0
   -4.0433    1.3031    1.3937 H   0  0  0  0  0  0  0  0  0  0  0  0
  2  1  1  0  0  0  0 
  1  3  1  0  0  0  0 
  2  4  1  0  0  0  0 
  4  5  1  0  0  0  0 
  5  6  2  0  0  0  0 
  7  5  1  0  0  0  0 
  7  9  1  0  0  0  0 
  7 10  1  0  0  0  0 
  9 11  1  0  0  0  0 
 10 12  1  0  0  0  0 
 11 13  2  0  0  0  0 
 11 14  1  0  0  0  0 
 12 14  1  0  0  0  0 
  7 15  1  0  0  0  0 
  1 16  2  0  0  0  0 
 17 18  1  0  0  0  0 
 18 19  1  0  0  0  0 
  3 19  1  0  0  0  0 
  8 17  1  0  0  0  0 
  3  8  1  0  0  0  0 
 19 20  1  0  0  0  0 
 20 21  2  0  0  0  0 
 20 22  1  0  0  0  0 
  2 23  1  0  0  0  0 
  2 24  1  0  0  0  0 
 24 25  1  0  0  0  0 
 25 26  1  0  0  0  0 
 25 27  1  0  0  0  0 
  4 28  1  0  0  0  0 
  8 29  1  0  0  0  0 
  8 30  1  0  0  0  0 
  9 31  1  0  0  0  0 
 10 32  1  0  0  0  0 
 10 33  1  0  0  0  0 
 12 34  1  0  0  0  0 
 12 35  1  0  0  0  0 
 14 36  1  0  0  0  0 
 14 37  1  0  0  0  0 
 17 38  1  0  0  0  0 
 17 39  1  0  0  0  0 
 18 40  1  0  0  0  0 
 18 41  1  0  0  0  0 
 19 42  1  0  0  0  0 
 22 43  1  0  0  0  0 
 22 44  1  0  0  0  0 
 24 45  1  0  0  0  0 
 24 46  1  0  0  0  0 
 25 47  1  0  0  0  0 
 26 48  1  0  0  0  0 
 26 49  1  0  0  0  0 
 26 50  1  0  0  0  0 
 27 51  1  0  0  0  0 
 27 52  1  0  0  0  0 
 27 53  1  0  0  0  0 
M  END
> <cdk:Title>
posatirelin

> <Conformer>
1

> <SuperDrugID>
SD003004

$$$$
