fluocortolone
  CDK     0628171801

 56 59  0  0  0  0  0  0  0  0999 V2000
    3.2400   -0.8171    1.5433 C   0  0  0  0  0  0  0  0  0  0  0  0
    4.0311   -1.3853    0.3027 C   0  0  2  0  0  0  0  0  0  0  0  0
    5.1459   -2.4217    0.6564 C   0  0  2  0  0  0  0  0  0  0  0  0
    4.9184   -0.2517   -0.3344 C   0  0  1  0  0  0  0  0  0  0  0  0
    3.0560   -2.1215   -0.6802 C   0  0  2  0  0  0  0  0  0  0  0  0
    4.6075   -3.6772    1.4157 C   0  0  1  0  0  0  0  0  0  0  0  0
    6.2648   -1.5853    1.3089 C   0  0  1  0  0  0  0  0  0  0  0  0
    4.2589    1.0799   -0.5415 C   0  0  0  0  0  0  0  0  0  0  0  0
    6.2173   -0.2236    0.5564 C   0  0  1  0  0  0  0  0  0  0  0  0
    2.4820   -3.4685   -0.1243 C   0  0  1  0  0  0  0  0  0  0  0  0
    3.5504   -4.4378    0.5245 C   0  0  2  0  0  0  0  0  0  0  0  0
    5.7574   -4.6450    1.8236 C   0  0  1  0  0  0  0  0  0  0  0  0
    3.2909    1.3313   -1.6282 C   0  0  1  0  0  0  0  0  0  0  0  0
    4.5015    2.0448    0.2225 O   0  0  0  0  0  0  0  0  0  0  0  0
    7.5017    0.0657   -0.2665 C   0  0  0  0  0  0  0  0  0  0  0  0
    1.4026   -3.1853    0.7577 O   0  0  0  0  0  0  0  0  0  0  0  0
    3.0081   -5.7627    1.2356 C   0  0  2  0  0  0  0  0  0  0  0  0
    5.2266   -5.9309    2.5057 C   0  0  1  0  0  0  0  0  0  0  0  0
    1.9711    1.2970   -1.1021 O   0  0  0  0  0  0  0  0  0  0  0  0
    2.1197   -5.5079    2.5100 C   0  0  0  0  0  0  0  0  0  0  0  0
    4.1985   -6.5792    1.6686 C   0  0  0  0  0  0  0  0  0  0  0  0
    2.1322   -6.5041    0.2941 C   0  0  0  0  0  0  0  0  0  0  0  0
    6.3253   -6.7089    2.8180 F   0  0  0  0  0  0  0  0  0  0  0  0
    4.3309   -7.8729    1.2890 C   0  0  0  0  0  0  0  0  0  0  0  0
    2.3405   -7.7838   -0.0546 C   0  0  0  0  0  0  0  0  0  0  0  0
    3.4047   -8.4899    0.4670 C   0  0  0  0  0  0  0  0  0  0  0  0
    3.5339   -9.7045    0.1856 O   0  0  0  0  0  0  0  0  0  0  0  0
    4.1405   -3.3516    2.3438 H   0  0  0  0  0  0  0  0  0  0  0  0
    4.1192   -4.7960   -0.3447 H   0  0  0  0  0  0  0  0  0  0  0  0
    5.5901   -2.8073   -0.2755 H   0  0  0  0  0  0  0  0  0  0  0  0
    2.7772   -1.5982    2.1415 H   0  0  0  0  0  0  0  0  0  0  0  0
    3.8887   -0.2417    2.2070 H   0  0  0  0  0  0  0  0  0  0  0  0
    2.4395   -0.1541    1.2123 H   0  0  0  0  0  0  0  0  0  0  0  0
    5.2191   -0.5899   -1.3341 H   0  0  0  0  0  0  0  0  0  0  0  0
    3.5798   -2.3410   -1.6144 H   0  0  0  0  0  0  0  0  0  0  0  0
    2.2321   -1.4573   -0.9465 H   0  0  0  0  0  0  0  0  0  0  0  0
    6.0648   -1.4462    2.3759 H   0  0  0  0  0  0  0  0  0  0  0  0
    7.2329   -2.0854    1.2099 H   0  0  0  0  0  0  0  0  0  0  0  0
    6.1426    0.5588    1.3195 H   0  0  0  0  0  0  0  0  0  0  0  0
    2.0334   -3.9799   -0.9822 H   0  0  0  0  0  0  0  0  0  0  0  0
    6.3386   -4.9184    0.9377 H   0  0  0  0  0  0  0  0  0  0  0  0
    6.4306   -4.1376    2.5200 H   0  0  0  0  0  0  0  0  0  0  0  0
    3.4671    2.3191   -2.0613 H   0  0  0  0  0  0  0  0  0  0  0  0
    3.3821    0.5876   -2.4225 H   0  0  0  0  0  0  0  0  0  0  0  0
    7.6741   -0.7256   -0.9991 H   0  0  0  0  0  0  0  0  0  0  0  0
    7.4028    1.0165   -0.7932 H   0  0  0  0  0  0  0  0  0  0  0  0
    8.3661    0.1241    0.3969 H   0  0  0  0  0  0  0  0  0  0  0  0
    0.6778   -2.8614    0.1803 H   0  0  0  0  0  0  0  0  0  0  0  0
    4.7823   -5.6629    3.4674 H   0  0  0  0  0  0  0  0  0  0  0  0
    1.3955    1.5410   -1.8561 H   0  0  0  0  0  0  0  0  0  0  0  0
    1.1397   -5.0954    2.2634 H   0  0  0  0  0  0  0  0  0  0  0  0
    2.5930   -4.8150    3.2037 H   0  0  0  0  0  0  0  0  0  0  0  0
    1.9395   -6.4429    3.0474 H   0  0  0  0  0  0  0  0  0  0  0  0
    1.3342   -6.0504   -0.0907 H   0  0  0  0  0  0  0  0  0  0  0  0
    5.1063   -8.4182    1.5914 H   0  0  0  0  0  0  0  0  0  0  0  0
    1.7156   -8.2295   -0.6871 H   0  0  0  0  0  0  0  0  0  0  0  0
  2  1  1  0  0  0  0 
  3  2  1  0  0  0  0 
  2  4  1  0  0  0  0 
  2  5  1  0  0  0  0 
  6  3  1  0  0  0  0 
  3  7  1  0  0  0  0 
  3 30  1  0  0  0  0 
  4  8  1  0  0  0  0 
  4  9  1  0  0  0  0 
 10  5  1  0  0  0  0 
 11  6  1  0  0  0  0 
  6 12  1  0  0  0  0 
  6 28  1  0  0  0  0 
  9  7  1  0  0  0  0 
  8 13  1  0  0  0  0 
  8 14  2  0  0  0  0 
  9 15  1  0  0  0  0 
 11 10  1  0  0  0  0 
 10 16  1  0  0  0  0 
 11 17  1  0  0  0  0 
 11 29  1  0  0  0  0 
 18 12  1  0  0  0  0 
 13 19  1  0  0  0  0 
 17 20  1  0  0  0  0 
 17 21  1  0  0  0  0 
 17 22  1  0  0  0  0 
 18 21  1  0  0  0  0 
 18 23  1  0  0  0  0 
 21 24  2  0  0  0  0 
 22 25  2  0  0  0  0 
 24 26  1  0  0  0  0 
 25 26  1  0  0  0  0 
 26 27  2  0  0  0  0 
  1 31  1  0  0  0  0 
  1 32  1  0  0  0  0 
  1 33  1  0  0  0  0 
  4 34  1  0  0  0  0 
  5 35  1  0  0  0  0 
  5 36  1  0  0  0  0 
  7 37  1  0  0  0  0 
  7 38  1  0  0  0  0 
  9 39  1  0  0  0  0 
 10 40  1  0  0  0  0 
 12 41  1  0  0  0  0 
 12 42  1  0  0  0  0 
 13 43  1  0  0  0  0 
 13 44  1  0  0  0  0 
 15 45  1  0  0  0  0 
 15 46  1  0  0  0  0 
 15 47  1  0  0  0  0 
 16 48  1  0  0  0  0 
 18 49  1  0  0  0  0 
 19 50  1  0  0  0  0 
 20 51  1  0  0  0  0 
 20 52  1  0  0  0  0 
 20 53  1  0  0  0  0 
 22 54  1  0  0  0  0 
 24 55  1  0  0  0  0 
 25 56  1  0  0  0  0 
M  END
> <cdk:Title>
fluocortolone

> <Conformer>
1

> <SuperDrugID>
SD001080

$$$$
