perimetazine
  CDK     0628171801

 55 58  0  0  0  0  0  0  0  0999 V2000
    0.2386   -0.1018   -0.8061 C   0  0  0  0  0  0  0  0  0  0  0  0
   -0.9493    0.0733   -0.0098 O   0  0  0  0  0  0  0  0  0  0  0  0
   -0.6947    0.6953    1.1808 C   0  0  0  0  0  0  0  0  0  0  0  0
   -0.3069   -0.0493    2.3154 C   0  0  0  0  0  0  0  0  0  0  0  0
    0.0484    0.5869    3.5313 C   0  0  0  0  0  0  0  0  0  0  0  0
   -0.0856    2.0005    3.5847 C   0  0  0  0  0  0  0  0  0  0  0  0
    0.3229    2.8541    5.0646 S   0  0  0  0  0  0  0  0  0  0  0  0
    0.1246    1.6180    6.2937 C   0  0  0  0  0  0  0  0  0  0  0  0
   -0.1641    2.0028    7.6169 C   0  0  0  0  0  0  0  0  0  0  0  0
   -0.3913    1.0224    8.5956 C   0  0  0  0  0  0  0  0  0  0  0  0
   -0.3328   -0.3361    8.2506 C   0  0  0  0  0  0  0  0  0  0  0  0
   -0.0352   -0.7141    6.9305 C   0  0  0  0  0  0  0  0  0  0  0  0
    0.2232    0.2527    5.9231 C   0  0  0  0  0  0  0  0  0  0  0  0
    0.5570   -0.1280    4.6213 N   0  0  0  0  0  0  0  0  0  0  0  0
    1.4695   -1.2605    4.4308 C   0  0  2  0  0  0  0  0  0  0  0  0
    2.6229   -1.1155    3.3775 C   0  0  2  0  0  0  0  0  0  0  0  0
    3.5798   -2.3413    3.4507 C   0  0  0  0  0  0  0  0  0  0  0  0
    3.3988    0.2330    3.5290 C   0  0  2  0  0  0  0  0  0  0  0  0
    4.4501    0.5467    2.5022 N   0  0  2  0  0  0  0  0  0  0  0  0
    5.2034    1.7870    2.8906 C   0  0  2  0  0  0  0  0  0  0  0  0
    6.3456    2.1372    1.9042 C   0  0  1  0  0  0  0  0  0  0  0  0
    5.8173    2.2191    0.4514 C   0  0  1  0  0  0  0  0  0  0  0  0
    6.8919    2.4585   -0.4538 O   0  0  0  0  0  0  0  0  0  0  0  0
    5.0751    0.9123    0.0828 C   0  0  1  0  0  0  0  0  0  0  0  0
    3.9363    0.6260    1.0947 C   0  0  2  0  0  0  0  0  0  0  0  0
   -0.5334    2.7457    2.4778 C   0  0  0  0  0  0  0  0  0  0  0  0
   -0.8308    2.0933    1.2729 C   0  0  0  0  0  0  0  0  0  0  0  0
    0.7691    0.8401   -0.9686 H   0  0  0  0  0  0  0  0  0  0  0  0
   -0.0539   -0.5024   -1.7763 H   0  0  0  0  0  0  0  0  0  0  0  0
    0.9195   -0.8156   -0.3414 H   0  0  0  0  0  0  0  0  0  0  0  0
   -0.2642   -1.0678    2.2360 H   0  0  0  0  0  0  0  0  0  0  0  0
   -0.2195    2.9905    7.8706 H   0  0  0  0  0  0  0  0  0  0  0  0
   -0.6058    1.2988    9.5555 H   0  0  0  0  0  0  0  0  0  0  0  0
   -0.5059   -1.0528    8.9580 H   0  0  0  0  0  0  0  0  0  0  0  0
   -0.0129   -1.7127    6.7126 H   0  0  0  0  0  0  0  0  0  0  0  0
    0.8654   -2.1357    4.1759 H   0  0  0  0  0  0  0  0  0  0  0  0
    1.9739   -1.4959    5.3745 H   0  0  0  0  0  0  0  0  0  0  0  0
    2.1660   -1.1488    2.3912 H   0  0  0  0  0  0  0  0  0  0  0  0
    3.0218   -3.2704    3.3048 H   0  0  0  0  0  0  0  0  0  0  0  0
    4.0712   -2.3859    4.4250 H   0  0  0  0  0  0  0  0  0  0  0  0
    4.3490   -2.2818    2.6784 H   0  0  0  0  0  0  0  0  0  0  0  0
    3.8620    0.2162    4.5206 H   0  0  0  0  0  0  0  0  0  0  0  0
    2.6856    1.0580    3.5240 H   0  0  0  0  0  0  0  0  0  0  0  0
    5.6537    1.6457    3.8767 H   0  0  0  0  0  0  0  0  0  0  0  0
    4.5184    2.6421    2.9497 H   0  0  0  0  0  0  0  0  0  0  0  0
    6.7826    3.0985    2.1855 H   0  0  0  0  0  0  0  0  0  0  0  0
    7.1279    1.3757    1.9721 H   0  0  0  0  0  0  0  0  0  0  0  0
    5.1236    3.0604    0.3663 H   0  0  0  0  0  0  0  0  0  0  0  0
    7.5329    1.7377   -0.2808 H   0  0  0  0  0  0  0  0  0  0  0  0
    4.6596    0.9954   -0.9254 H   0  0  0  0  0  0  0  0  0  0  0  0
    5.7799    0.0730    0.0925 H   0  0  0  0  0  0  0  0  0  0  0  0
    3.1612    1.3940    1.0097 H   0  0  0  0  0  0  0  0  0  0  0  0
    3.4985   -0.3252    0.7972 H   0  0  0  0  0  0  0  0  0  0  0  0
   -0.6458    3.7601    2.5415 H   0  0  0  0  0  0  0  0  0  0  0  0
   -1.1455    2.6376    0.4644 H   0  0  0  0  0  0  0  0  0  0  0  0
  1  2  1  0  0  0  0 
  2  3  1  0  0  0  0 
  3  4  2  0  0  0  0 
  4  5  1  0  0  0  0 
  5  6  2  0  0  0  0 
  6  7  1  0  0  0  0 
  7  8  1  0  0  0  0 
  8  9  2  0  0  0  0 
  9 10  1  0  0  0  0 
 10 11  2  0  0  0  0 
 11 12  1  0  0  0  0 
 12 13  2  0  0  0  0 
  8 13  1  0  0  0  0 
 13 14  1  0  0  0  0 
  5 14  1  0  0  0  0 
 14 15  1  0  0  0  0 
 16 15  1  0  0  0  0 
 16 17  1  0  0  0  0 
 16 18  1  0  0  0  0 
 18 19  1  0  0  0  0 
 19 20  1  0  0  0  0 
 20 21  1  0  0  0  0 
 21 22  1  0  0  0  0 
 22 23  1  0  0  0  0 
 22 24  1  0  0  0  0 
 24 25  1  0  0  0  0 
 19 25  1  0  0  0  0 
  6 26  1  0  0  0  0 
 26 27  2  0  0  0  0 
  3 27  1  0  0  0  0 
  1 28  1  0  0  0  0 
  1 29  1  0  0  0  0 
  1 30  1  0  0  0  0 
  4 31  1  0  0  0  0 
  9 32  1  0  0  0  0 
 10 33  1  0  0  0  0 
 11 34  1  0  0  0  0 
 12 35  1  0  0  0  0 
 15 36  1  0  0  0  0 
 15 37  1  0  0  0  0 
 16 38  1  0  0  0  0 
 17 39  1  0  0  0  0 
 17 40  1  0  0  0  0 
 17 41  1  0  0  0  0 
 18 42  1  0  0  0  0 
 18 43  1  0  0  0  0 
 20 44  1  0  0  0  0 
 20 45  1  0  0  0  0 
 21 46  1  0  0  0  0 
 21 47  1  0  0  0  0 
 22 48  1  0  0  0  0 
 23 49  1  0  0  0  0 
 24 50  1  0  0  0  0 
 24 51  1  0  0  0  0 
 25 52  1  0  0  0  0 
 25 53  1  0  0  0  0 
 26 54  1  0  0  0  0 
 27 55  1  0  0  0  0 
M  END
> <cdk:Title>
perimetazine

> <Conformer>
1

> <SuperDrugID>
SD002956

$$$$
