demeclocycline
  CDK     0628171802

 53 56  0  0  0  0  0  0  0  0999 V2000
   -8.3016   -4.0758  -13.9358 C   0  0  0  0  0  0  0  0  0  0  0  0
   -9.2599   -4.7398  -12.9924 N   0  0  1  0  0  0  0  0  0  0  0  0
  -10.1682   -5.6589  -13.7544 C   0  0  0  0  0  0  0  0  0  0  0  0
   -8.5989   -5.3738  -11.7827 C   0  0  1  0  0  0  0  0  0  0  0  0
   -7.8760   -4.3642  -10.8179 C   0  0  2  0  0  0  0  0  0  0  0  0
   -6.9582   -5.0865   -9.7896 C   0  0  1  0  0  0  0  0  0  0  0  0
   -6.2359   -4.0665   -8.8580 C   0  0  2  0  0  0  0  0  0  0  0  0
   -5.5550   -4.7996   -7.6555 C   0  0  2  0  0  0  0  0  0  0  0  0
   -6.4623   -5.6725   -6.9847 O   0  0  0  0  0  0  0  0  0  0  0  0
   -5.0049   -3.8897   -6.6089 C   0  0  0  0  0  0  0  0  0  0  0  0
   -4.0476   -4.3694   -5.6718 C   0  0  0  0  0  0  0  0  0  0  0  0
   -3.4471   -5.9595   -5.6836 Cl  0  0  0  0  0  0  0  0  0  0  0  0
   -3.5583   -3.5196   -4.6659 C   0  0  0  0  0  0  0  0  0  0  0  0
   -4.0164   -2.1989   -4.5754 C   0  0  0  0  0  0  0  0  0  0  0  0
   -4.9816   -1.7180   -5.4772 C   0  0  0  0  0  0  0  0  0  0  0  0
   -5.3924   -0.4368   -5.2778 O   0  0  0  0  0  0  0  0  0  0  0  0
   -5.4868   -2.5494   -6.5181 C   0  0  0  0  0  0  0  0  0  0  0  0
   -6.4676   -2.0861   -7.4612 C   0  0  0  0  0  0  0  0  0  0  0  0
   -6.7541   -0.8641   -7.4915 O   0  0  0  0  0  0  0  0  0  0  0  0
   -7.0663   -2.9362   -8.4147 C   0  0  0  0  0  0  0  0  0  0  0  0
   -8.2968   -2.6977   -8.9431 C   0  0  0  0  0  0  0  0  0  0  0  0
   -9.0327   -1.7000   -8.4402 O   0  0  0  0  0  0  0  0  0  0  0  0
   -8.9101   -3.4463  -10.0645 C   0  0  1  0  0  0  0  0  0  0  0  0
   -9.3236   -2.4497  -11.0071 O   0  0  0  0  0  0  0  0  0  0  0  0
  -10.1513   -4.1637   -9.6753 C   0  0  0  0  0  0  0  0  0  0  0  0
  -11.0286   -3.4823   -8.9341 O   0  0  0  0  0  0  0  0  0  0  0  0
  -10.4615   -5.4263  -10.0697 C   0  0  0  0  0  0  0  0  0  0  0  0
  -11.6494   -6.0758   -9.6802 C   0  0  0  0  0  0  0  0  0  0  0  0
  -12.2782   -5.8709   -8.5030 N   0  0  0  0  0  0  0  0  0  0  0  0
  -12.2057   -6.9120  -10.4310 O   0  0  0  0  0  0  0  0  0  0  0  0
   -9.5719   -6.1084  -10.9178 C   0  0  0  0  0  0  0  0  0  0  0  0
   -9.5328   -7.3636  -10.9388 O   0  0  0  0  0  0  0  0  0  0  0  0
   -7.5512   -4.7843  -14.2964 H   0  0  0  0  0  0  0  0  0  0  0  0
   -7.7926   -3.2377  -13.4648 H   0  0  0  0  0  0  0  0  0  0  0  0
   -8.8213   -3.6537  -14.7982 H   0  0  0  0  0  0  0  0  0  0  0  0
   -9.6271   -6.5374  -14.1167 H   0  0  0  0  0  0  0  0  0  0  0  0
  -10.6206   -5.1512  -14.6090 H   0  0  0  0  0  0  0  0  0  0  0  0
  -10.9956   -5.9909  -13.1271 H   0  0  0  0  0  0  0  0  0  0  0  0
   -7.8542   -6.0863  -12.1593 H   0  0  0  0  0  0  0  0  0  0  0  0
   -7.1976   -3.7323  -11.3952 H   0  0  0  0  0  0  0  0  0  0  0  0
   -7.5665   -5.7668   -9.1915 H   0  0  0  0  0  0  0  0  0  0  0  0
   -6.2100   -5.6874  -10.3150 H   0  0  0  0  0  0  0  0  0  0  0  0
   -5.4281   -3.6274   -9.4559 H   0  0  0  0  0  0  0  0  0  0  0  0
   -4.7496   -5.4108   -8.0733 H   0  0  0  0  0  0  0  0  0  0  0  0
   -7.1620   -5.0864   -6.6275 H   0  0  0  0  0  0  0  0  0  0  0  0
   -2.8709   -3.8581   -3.9865 H   0  0  0  0  0  0  0  0  0  0  0  0
   -3.6516   -1.5909   -3.8375 H   0  0  0  0  0  0  0  0  0  0  0  0
   -6.3719   -0.4763   -5.2556 H   0  0  0  0  0  0  0  0  0  0  0  0
   -9.2124   -1.0964   -9.1915 H   0  0  0  0  0  0  0  0  0  0  0  0
   -9.8056   -2.9323  -11.7093 H   0  0  0  0  0  0  0  0  0  0  0  0
  -11.0961   -2.6030   -9.3606 H   0  0  0  0  0  0  0  0  0  0  0  0
  -13.1004   -6.3488   -8.3026 H   0  0  0  0  0  0  0  0  0  0  0  0
  -11.9177   -5.2511   -7.8512 H   0  0  0  0  0  0  0  0  0  0  0  0
  1  2  1  0  0  0  0 
  2  3  1  0  0  0  0 
  4  2  1  0  0  0  0 
  5  4  1  0  0  0  0 
  5  6  1  0  0  0  0 
  7  6  1  0  0  0  0 
  7  8  1  0  0  0  0 
  8  9  1  0  0  0  0 
  8 10  1  0  0  0  0 
 10 11  2  0  0  0  0 
 11 12  1  0  0  0  0 
 11 13  1  0  0  0  0 
 13 14  2  0  0  0  0 
 14 15  1  0  0  0  0 
 15 16  1  0  0  0  0 
 15 17  2  0  0  0  0 
 10 17  1  0  0  0  0 
 17 18  1  0  0  0  0 
 18 19  2  0  0  0  0 
 18 20  1  0  0  0  0 
  7 20  1  0  0  0  0 
 20 21  2  0  0  0  0 
 21 22  1  0  0  0  0 
 23 21  1  0  0  0  0 
  5 23  1  0  0  0  0 
 23 24  1  0  0  0  0 
 23 25  1  0  0  0  0 
 25 26  1  0  0  0  0 
 25 27  2  0  0  0  0 
 27 28  1  0  0  0  0 
 28 29  1  0  0  0  0 
 28 30  2  0  0  0  0 
 27 31  1  0  0  0  0 
  4 31  1  0  0  0  0 
 31 32  2  0  0  0  0 
 33  1  1  0  0  0  0 
 34  1  1  0  0  0  0 
 35  1  1  0  0  0  0 
 36  3  1  0  0  0  0 
 37  3  1  0  0  0  0 
 38  3  1  0  0  0  0 
  4 39  1  0  0  0  0 
  5 40  1  0  0  0  0 
 41  6  1  0  0  0  0 
 42  6  1  0  0  0  0 
  7 43  1  0  0  0  0 
  8 44  1  0  0  0  0 
 45  9  1  0  0  0  0 
 46 13  1  0  0  0  0 
 47 14  1  0  0  0  0 
 48 16  1  0  0  0  0 
 49 22  1  0  0  0  0 
 50 24  1  0  0  0  0 
 51 26  1  0  0  0  0 
 52 29  1  0  0  0  0 
 53 29  1  0  0  0  0 
M  END
> <cdk:Title>
demeclocycline

> <Conformer>
1

> <SuperDrugID>
SD000708

$$$$
