thyropropic acid
  CDK     0628171801

 33 34  0  0  0  0  0  0  0  0999 V2000
   -2.4421    1.1214    8.2074 O   0  0  0  0  0  0  0  0  0  0  0  0
   -2.6224   -0.1614    7.7485 C   0  0  0  0  0  0  0  0  0  0  0  0
   -3.3357    2.0459    7.7120 C   0  0  0  0  0  0  0  0  0  0  0  0
   -3.5982   -1.0222    8.3018 C   0  0  0  0  0  0  0  0  0  0  0  0
   -1.7836   -0.6521    6.7240 C   0  0  0  0  0  0  0  0  0  0  0  0
   -3.4958    2.3053    6.3301 C   0  0  0  0  0  0  0  0  0  0  0  0
   -4.0890    2.8056    8.6321 C   0  0  0  0  0  0  0  0  0  0  0  0
   -4.7979   -0.4441    9.8650 I   0  0  0  0  0  0  0  0  0  0  0  0
   -3.7659   -2.3254    7.7968 C   0  0  0  0  0  0  0  0  0  0  0  0
   -0.2410    0.4863    5.9788 I   0  0  0  0  0  0  0  0  0  0  0  0
   -1.9814   -1.9440    6.2005 C   0  0  0  0  0  0  0  0  0  0  0  0
   -4.4259    3.2559    5.8764 C   0  0  0  0  0  0  0  0  0  0  0  0
   -5.0181    3.7634    8.1841 C   0  0  0  0  0  0  0  0  0  0  0  0
   -2.9747   -2.8024    6.7261 C   0  0  0  0  0  0  0  0  0  0  0  0
   -4.6483    3.5582    3.8569 I   0  0  0  0  0  0  0  0  0  0  0  0
   -5.1993    3.9768    6.8037 C   0  0  0  0  0  0  0  0  0  0  0  0
   -3.2123   -4.1550    6.1347 C   0  0  1  0  0  0  0  0  0  0  0  0
   -6.1097    4.8717    6.3551 O   0  0  0  0  0  0  0  0  0  0  0  0
   -2.0007   -5.1314    6.1405 C   0  0  1  0  0  0  0  0  0  0  0  0
   -1.5528   -5.6050    7.4671 C   0  0  0  0  0  0  0  0  0  0  0  0
   -2.1340   -5.2127    8.6258 O   0  0  0  0  0  0  0  0  0  0  0  0
   -0.5988   -6.4121    7.5400 O   0  0  0  0  0  0  0  0  0  0  0  0
   -2.9401    1.7987    5.6437 H   0  0  0  0  0  0  0  0  0  0  0  0
   -3.9657    2.6571    9.6360 H   0  0  0  0  0  0  0  0  0  0  0  0
   -4.4798   -2.9262    8.2145 H   0  0  0  0  0  0  0  0  0  0  0  0
   -1.3942   -2.2548    5.4245 H   0  0  0  0  0  0  0  0  0  0  0  0
   -5.5617    4.3004    8.8628 H   0  0  0  0  0  0  0  0  0  0  0  0
   -4.0516   -4.6573    6.6274 H   0  0  0  0  0  0  0  0  0  0  0  0
   -3.5143   -4.0049    5.0943 H   0  0  0  0  0  0  0  0  0  0  0  0
   -6.8674    4.7983    6.9714 H   0  0  0  0  0  0  0  0  0  0  0  0
   -2.2798   -6.0123    5.5546 H   0  0  0  0  0  0  0  0  0  0  0  0
   -1.1510   -4.6699    5.6341 H   0  0  0  0  0  0  0  0  0  0  0  0
   -1.8088   -5.5641    9.4829 H   0  0  0  0  0  0  0  0  0  0  0  0
  1  2  1  0  0  0  0 
  1  3  1  0  0  0  0 
  2  4  2  0  0  0  0 
  2  5  1  0  0  0  0 
  3  6  2  0  0  0  0 
  3  7  1  0  0  0  0 
  4  8  1  0  0  0  0 
  4  9  1  0  0  0  0 
  5 10  1  0  0  0  0 
  5 11  2  0  0  0  0 
  6 12  1  0  0  0  0 
  7 13  2  0  0  0  0 
  9 14  2  0  0  0  0 
 11 14  1  0  0  0  0 
 12 15  1  0  0  0  0 
 12 16  2  0  0  0  0 
 13 16  1  0  0  0  0 
 14 17  1  0  0  0  0 
 16 18  1  0  0  0  0 
 17 19  1  0  0  0  0 
 19 20  1  0  0  0  0 
 20 21  1  0  0  0  0 
 20 22  2  0  0  0  0 
  6 23  1  0  0  0  0 
  7 24  1  0  0  0  0 
  9 25  1  0  0  0  0 
 11 26  1  0  0  0  0 
 13 27  1  0  0  0  0 
 17 28  1  0  0  0  0 
 17 29  1  0  0  0  0 
 18 30  1  0  0  0  0 
 19 31  1  0  0  0  0 
 19 32  1  0  0  0  0 
 21 33  1  0  0  0  0 
M  END
> <cdk:Title>
thyropropic acid

> <Conformer>
1

> <SuperDrugID>
SD003089

$$$$
