ketoxal
  CDK     0628171801

 22 21  0  0  0  0  0  0  0  0999 V2000
    1.0130   -3.0230   -0.7851 C   0  0  0  0  0  0  0  0  0  0  0  0
    1.6464   -1.6282   -0.6366 C   0  0  1  0  0  0  0  0  0  0  0  0
    1.5671   -0.9265   -1.8947 O   0  0  0  0  0  0  0  0  0  0  0  0
    2.1823    0.3811   -1.9305 C   0  0  2  0  0  0  0  0  0  0  0  0
    1.6888    1.0962   -3.2094 C   0  0  0  0  0  0  0  0  0  0  0  0
    3.6725    0.3258   -1.8634 C   0  0  0  0  0  0  0  0  0  0  0  0
    4.2479    0.9749   -0.9583 O   0  0  0  0  0  0  0  0  0  0  0  0
    4.5169   -0.4546   -2.8007 C   0  0  1  0  0  0  0  0  0  0  0  0
    4.0671   -1.7979   -2.9352 O   0  0  0  0  0  0  0  0  0  0  0  0
    4.5260    0.1651   -4.0792 O   0  0  0  0  0  0  0  0  0  0  0  0
   -0.0589   -2.9344   -0.9712 H   0  0  0  0  0  0  0  0  0  0  0  0
    1.4767   -3.5558   -1.6171 H   0  0  0  0  0  0  0  0  0  0  0  0
    1.1691   -3.5923    0.1333 H   0  0  0  0  0  0  0  0  0  0  0  0
    1.1110   -1.0758    0.1398 H   0  0  0  0  0  0  0  0  0  0  0  0
    2.6867   -1.7556   -0.3246 H   0  0  0  0  0  0  0  0  0  0  0  0
    1.7998    0.9719   -1.0903 H   0  0  0  0  0  0  0  0  0  0  0  0
    0.6086    1.2468   -3.1588 H   0  0  0  0  0  0  0  0  0  0  0  0
    2.1687    2.0734   -3.3109 H   0  0  0  0  0  0  0  0  0  0  0  0
    1.9032    0.4948   -4.0937 H   0  0  0  0  0  0  0  0  0  0  0  0
    5.5502   -0.4912   -2.4472 H   0  0  0  0  0  0  0  0  0  0  0  0
    4.1519   -2.1850   -2.0372 H   0  0  0  0  0  0  0  0  0  0  0  0
    4.8562    1.0720   -3.9046 H   0  0  0  0  0  0  0  0  0  0  0  0
  1  2  1  0  0  0  0 
  2  3  1  0  0  0  0 
  3  4  1  0  0  0  0 
  4  5  1  0  0  0  0 
  4  6  1  0  0  0  0 
  6  7  2  0  0  0  0 
  6  8  1  0  0  0  0 
  8  9  1  0  0  0  0 
  8 10  1  0  0  0  0 
  1 11  1  0  0  0  0 
  1 12  1  0  0  0  0 
  1 13  1  0  0  0  0 
  2 14  1  0  0  0  0 
  2 15  1  0  0  0  0 
  4 16  1  0  0  0  0 
  5 17  1  0  0  0  0 
  5 18  1  0  0  0  0 
  5 19  1  0  0  0  0 
  8 20  1  0  0  0  0 
  9 21  1  0  0  0  0 
 10 22  1  0  0  0  0 
M  END
> <cdk:Title>
ketoxal

> <Conformer>
1

> <SuperDrugID>
SD002770

$$$$
