improsulfan
  CDK     0628171801

 36 35  0  0  0  0  0  0  0  0999 V2000
    5.4648    4.2721    2.7251 O   0  0  0  0  0  0  0  0  0  0  0  0
    7.0517    3.6231    2.9004 S   0  0  2  0  0  0  0  0  0  0  0  0
    4.4647    3.2440    2.8200 C   0  0  2  0  0  0  0  0  0  0  0  0
    8.2702    4.9758    2.7654 C   0  0  0  0  0  0  0  0  0  0  0  0
    7.3256    2.5518    1.7405 O   0  0  0  0  0  0  0  0  0  0  0  0
    7.1927    2.9296    4.3383 O   0  0  0  0  0  0  0  0  0  0  0  0
    3.0441    3.8361    2.6517 C   0  0  1  0  0  0  0  0  0  0  0  0
    1.9526    2.7392    2.7377 C   0  0  1  0  0  0  0  0  0  0  0  0
    0.6008    3.3132    2.5594 N   0  0  2  0  0  0  0  0  0  0  0  0
   -0.4913    2.3132    2.6407 C   0  0  1  0  0  0  0  0  0  0  0  0
   -1.8863    2.9798    2.5391 C   0  0  2  0  0  0  0  0  0  0  0  0
   -2.1618    4.0451    3.6286 C   0  0  2  0  0  0  0  0  0  0  0  0
   -2.0468    3.4562    4.9330 O   0  0  0  0  0  0  0  0  0  0  0  0
   -2.2351    4.6052    6.1996 S   0  0  2  0  0  0  0  0  0  0  0  0
   -2.0731    3.7155    7.7853 C   0  0  0  0  0  0  0  0  0  0  0  0
   -3.6832    5.2806    6.1096 O   0  0  0  0  0  0  0  0  0  0  0  0
   -1.0852    5.7179    6.0999 O   0  0  0  0  0  0  0  0  0  0  0  0
    4.5251    2.7560    3.7980 H   0  0  0  0  0  0  0  0  0  0  0  0
    4.6230    2.4981    2.0351 H   0  0  0  0  0  0  0  0  0  0  0  0
    8.0887    5.7098    3.5491 H   0  0  0  0  0  0  0  0  0  0  0  0
    9.2752    4.5691    2.8761 H   0  0  0  0  0  0  0  0  0  0  0  0
    8.1788    5.4532    1.7909 H   0  0  0  0  0  0  0  0  0  0  0  0
    2.8685    4.5794    3.4340 H   0  0  0  0  0  0  0  0  0  0  0  0
    2.9753    4.3383    1.6829 H   0  0  0  0  0  0  0  0  0  0  0  0
    2.1296    1.9881    1.9626 H   0  0  0  0  0  0  0  0  0  0  0  0
    2.0115    2.2538    3.7164 H   0  0  0  0  0  0  0  0  0  0  0  0
    0.5658    3.7239    1.6233 H   0  0  0  0  0  0  0  0  0  0  0  0
   -0.3880    1.5930    1.8233 H   0  0  0  0  0  0  0  0  0  0  0  0
   -0.4276    1.7662    3.5853 H   0  0  0  0  0  0  0  0  0  0  0  0
   -2.6463    2.1960    2.6055 H   0  0  0  0  0  0  0  0  0  0  0  0
   -1.9821    3.4536    1.5598 H   0  0  0  0  0  0  0  0  0  0  0  0
   -3.1739    4.4352    3.4818 H   0  0  0  0  0  0  0  0  0  0  0  0
   -1.4494    4.8668    3.5123 H   0  0  0  0  0  0  0  0  0  0  0  0
   -1.0808    3.2704    7.8498 H   0  0  0  0  0  0  0  0  0  0  0  0
   -2.2142    4.4117    8.6115 H   0  0  0  0  0  0  0  0  0  0  0  0
   -2.8268    2.9307    7.8371 H   0  0  0  0  0  0  0  0  0  0  0  0
  1  2  1  0  0  0  0 
  1  3  1  0  0  0  0 
  2  4  1  0  0  0  0 
  2  5  2  0  0  0  0 
  2  6  2  0  0  0  0 
  3  7  1  0  0  0  0 
  7  8  1  0  0  0  0 
  8  9  1  0  0  0  0 
  9 10  1  0  0  0  0 
 10 11  1  0  0  0  0 
 11 12  1  0  0  0  0 
 12 13  1  0  0  0  0 
 13 14  1  0  0  0  0 
 14 15  1  0  0  0  0 
 14 16  2  0  0  0  0 
 14 17  2  0  0  0  0 
  3 18  1  0  0  0  0 
  3 19  1  0  0  0  0 
  4 20  1  0  0  0  0 
  4 21  1  0  0  0  0 
  4 22  1  0  0  0  0 
  7 23  1  0  0  0  0 
  7 24  1  0  0  0  0 
  8 25  1  0  0  0  0 
  8 26  1  0  0  0  0 
  9 27  1  0  0  0  0 
 10 28  1  0  0  0  0 
 10 29  1  0  0  0  0 
 11 30  1  0  0  0  0 
 11 31  1  0  0  0  0 
 12 32  1  0  0  0  0 
 12 33  1  0  0  0  0 
 15 34  1  0  0  0  0 
 15 35  1  0  0  0  0 
 15 36  1  0  0  0  0 
M  END
> <cdk:Title>
improsulfan

> <Conformer>
1

> <SuperDrugID>
SD002847

$$$$
