tiagabine
  CDK     0628171801

 50 52  0  0  0  0  0  0  0  0999 V2000
   -1.6683    4.1030   -0.4027 C   0  0  0  0  0  0  0  0  0  0  0  0
   -2.9898    3.8267   -0.3515 C   0  0  0  0  0  0  0  0  0  0  0  0
   -1.1678    5.2363    0.2155 C   0  0  0  0  0  0  0  0  0  0  0  0
   -0.7270    3.3219   -1.0503 C   0  0  0  0  0  0  0  0  0  0  0  0
   -3.6708    2.6779   -0.9429 C   0  0  2  0  0  0  0  0  0  0  0  0
   -1.3928    6.5940   -0.0954 C   0  0  0  0  0  0  0  0  0  0  0  0
   -0.0471    5.1916    1.5685 S   0  0  0  0  0  0  0  0  0  0  0  0
   -0.2697    2.0211   -0.7539 C   0  0  0  0  0  0  0  0  0  0  0  0
    0.1878    3.8836   -2.4422 S   0  0  0  0  0  0  0  0  0  0  0  0
   -3.7950    2.6946   -2.4933 C   0  0  2  0  0  0  0  0  0  0  0  0
   -2.2556    7.0472   -1.2115 C   0  0  0  0  0  0  0  0  0  0  0  0
   -0.6867    7.4963    0.7339 C   0  0  0  0  0  0  0  0  0  0  0  0
    0.1136    6.9258    1.7257 C   0  0  0  0  0  0  0  0  0  0  0  0
   -0.6990    1.2095    0.4056 C   0  0  0  0  0  0  0  0  0  0  0  0
    0.7048    1.5322   -1.6525 C   0  0  0  0  0  0  0  0  0  0  0  0
    1.1053    2.4105   -2.6599 C   0  0  0  0  0  0  0  0  0  0  0  0
   -4.2306    1.3661   -3.0460 N   0  0  2  0  0  0  0  0  0  0  0  0
   -3.9019    1.1978   -4.5000 C   0  0  2  0  0  0  0  0  0  0  0  0
   -5.6562    1.0135   -2.7390 C   0  0  1  0  0  0  0  0  0  0  0  0
   -4.2187   -0.2399   -5.0116 C   0  0  2  0  0  0  0  0  0  0  0  0
   -6.0305   -0.4128   -3.2087 C   0  0  1  0  0  0  0  0  0  0  0  0
   -3.9279   -0.3820   -6.4594 C   0  0  0  0  0  0  0  0  0  0  0  0
   -5.6946   -0.6227   -4.7026 C   0  0  1  0  0  0  0  0  0  0  0  0
   -2.9813   -1.2440   -6.8981 O   0  0  0  0  0  0  0  0  0  0  0  0
   -4.5494    0.2884   -7.3156 O   0  0  0  0  0  0  0  0  0  0  0  0
   -3.5764    4.4629    0.1427 H   0  0  0  0  0  0  0  0  0  0  0  0
   -4.6792    2.6528   -0.5257 H   0  0  0  0  0  0  0  0  0  0  0  0
   -3.1898    1.7532   -0.6346 H   0  0  0  0  0  0  0  0  0  0  0  0
   -2.8196    2.9530   -2.9091 H   0  0  0  0  0  0  0  0  0  0  0  0
   -4.4946    3.4809   -2.7970 H   0  0  0  0  0  0  0  0  0  0  0  0
   -2.2289    8.1335   -1.3229 H   0  0  0  0  0  0  0  0  0  0  0  0
   -1.9080    6.6056   -2.1473 H   0  0  0  0  0  0  0  0  0  0  0  0
   -3.2892    6.7429   -1.0354 H   0  0  0  0  0  0  0  0  0  0  0  0
   -0.7446    8.5099    0.6194 H   0  0  0  0  0  0  0  0  0  0  0  0
    0.6882    7.4174    2.4102 H   0  0  0  0  0  0  0  0  0  0  0  0
   -1.1574    0.2822    0.0596 H   0  0  0  0  0  0  0  0  0  0  0  0
   -1.4159    1.7336    1.0370 H   0  0  0  0  0  0  0  0  0  0  0  0
    0.1677    0.9648    1.0198 H   0  0  0  0  0  0  0  0  0  0  0  0
    1.1108    0.5976   -1.5716 H   0  0  0  0  0  0  0  0  0  0  0  0
    1.7984    2.2323   -3.3868 H   0  0  0  0  0  0  0  0  0  0  0  0
   -2.8324    1.3731   -4.6541 H   0  0  0  0  0  0  0  0  0  0  0  0
   -4.4517    1.9376   -5.0911 H   0  0  0  0  0  0  0  0  0  0  0  0
   -5.8332    1.0374   -1.6630 H   0  0  0  0  0  0  0  0  0  0  0  0
   -6.3333    1.7364   -3.2037 H   0  0  0  0  0  0  0  0  0  0  0  0
   -3.5682   -0.9320   -4.4660 H   0  0  0  0  0  0  0  0  0  0  0  0
   -5.4884   -1.1468   -2.6072 H   0  0  0  0  0  0  0  0  0  0  0  0
   -7.1008   -0.5770   -3.0552 H   0  0  0  0  0  0  0  0  0  0  0  0
   -6.3746   -0.0105   -5.3039 H   0  0  0  0  0  0  0  0  0  0  0  0
   -5.8652   -1.6714   -4.9641 H   0  0  0  0  0  0  0  0  0  0  0  0
   -2.8063   -1.3291   -7.8605 H   0  0  0  0  0  0  0  0  0  0  0  0
  1  2  2  0  0  0  0 
  1  3  1  0  0  0  0 
  1  4  1  0  0  0  0 
  2  5  1  0  0  0  0 
  3  6  2  0  0  0  0 
  3  7  1  0  0  0  0 
  4  8  2  0  0  0  0 
  4  9  1  0  0  0  0 
  5 10  1  0  0  0  0 
  6 11  1  0  0  0  0 
  6 12  1  0  0  0  0 
  7 13  1  0  0  0  0 
  8 14  1  0  0  0  0 
  8 15  1  0  0  0  0 
  9 16  1  0  0  0  0 
 10 17  1  0  0  0  0 
 12 13  2  0  0  0  0 
 15 16  2  0  0  0  0 
 17 18  1  0  0  0  0 
 17 19  1  0  0  0  0 
 20 18  1  0  0  0  0 
 19 21  1  0  0  0  0 
 20 22  1  0  0  0  0 
 20 23  1  0  0  0  0 
 21 23  1  0  0  0  0 
 22 24  1  0  0  0  0 
 22 25  2  0  0  0  0 
  2 26  1  0  0  0  0 
  5 27  1  0  0  0  0 
  5 28  1  0  0  0  0 
 10 29  1  0  0  0  0 
 10 30  1  0  0  0  0 
 11 31  1  0  0  0  0 
 11 32  1  0  0  0  0 
 11 33  1  0  0  0  0 
 12 34  1  0  0  0  0 
 13 35  1  0  0  0  0 
 14 36  1  0  0  0  0 
 14 37  1  0  0  0  0 
 14 38  1  0  0  0  0 
 15 39  1  0  0  0  0 
 16 40  1  0  0  0  0 
 18 41  1  0  0  0  0 
 18 42  1  0  0  0  0 
 19 43  1  0  0  0  0 
 19 44  1  0  0  0  0 
 20 45  1  0  0  0  0 
 21 46  1  0  0  0  0 
 21 47  1  0  0  0  0 
 23 48  1  0  0  0  0 
 23 49  1  0  0  0  0 
 24 50  1  0  0  0  0 
M  END
> <cdk:Title>
tiagabine

> <Conformer>
1

> <SuperDrugID>
SD002381

$$$$
