sultopride
  CDK     0628171801

 50 51  0  0  0  0  0  0  0  0999 V2000
    1.8906    2.8265   -1.7468 C   0  0  0  0  0  0  0  0  0  0  0  0
    2.0407    3.6397   -0.6527 N   0  0  0  0  0  0  0  0  0  0  0  0
    0.8426    2.9626   -2.4248 O   0  0  0  0  0  0  0  0  0  0  0  0
    2.8727    1.8494   -2.1378 C   0  0  0  0  0  0  0  0  0  0  0  0
    1.0853    4.6017   -0.1807 C   0  0  2  0  0  0  0  0  0  0  0  0
    2.5813    0.8294   -3.0937 C   0  0  0  0  0  0  0  0  0  0  0  0
    4.1849    1.8667   -1.5921 C   0  0  0  0  0  0  0  0  0  0  0  0
    1.7344    5.6867    0.7276 C   0  0  1  0  0  0  0  0  0  0  0  0
    1.3390    0.6687   -3.6556 O   0  0  0  0  0  0  0  0  0  0  0  0
    3.5813   -0.0721   -3.5159 C   0  0  0  0  0  0  0  0  0  0  0  0
    5.1804    0.9518   -1.9979 C   0  0  0  0  0  0  0  0  0  0  0  0
    2.5737    6.6343   -0.0824 N   0  0  2  0  0  0  0  0  0  0  0  0
    0.6814    6.5490    1.4837 C   0  0  2  0  0  0  0  0  0  0  0  0
    0.5104   -0.2532   -2.9196 C   0  0  0  0  0  0  0  0  0  0  0  0
    4.8723   -0.0116   -2.9746 C   0  0  0  0  0  0  0  0  0  0  0  0
    6.8030    1.0262   -1.2816 S   0  0  1  0  0  0  0  0  0  0  0  0
    4.0337    6.6991    0.2613 C   0  0  1  0  0  0  0  0  0  0  0  0
    1.8951    7.9560    0.0038 C   0  0  2  0  0  0  0  0  0  0  0  0
    1.2191    7.9801    1.3806 C   0  0  2  0  0  0  0  0  0  0  0  0
    7.6242    2.6090   -1.7186 C   0  0  2  0  0  0  0  0  0  0  0  0
    6.6917    0.9469    0.3178 O   0  0  0  0  0  0  0  0  0  0  0  0
    7.7214   -0.1916   -1.7824 O   0  0  0  0  0  0  0  0  0  0  0  0
    4.8175    5.4199   -0.0983 C   0  0  0  0  0  0  0  0  0  0  0  0
    7.9454    2.7048   -3.2236 C   0  0  0  0  0  0  0  0  0  0  0  0
    2.8418    3.5325   -0.1214 H   0  0  0  0  0  0  0  0  0  0  0  0
    0.3297    4.0581    0.3934 H   0  0  0  0  0  0  0  0  0  0  0  0
    0.5844    5.0956   -1.0178 H   0  0  0  0  0  0  0  0  0  0  0  0
    4.4397    2.5593   -0.8888 H   0  0  0  0  0  0  0  0  0  0  0  0
    2.3333    5.1724    1.4856 H   0  0  0  0  0  0  0  0  0  0  0  0
    3.3660   -0.7839   -4.2192 H   0  0  0  0  0  0  0  0  0  0  0  0
    0.5745    6.2403    2.5273 H   0  0  0  0  0  0  0  0  0  0  0  0
   -0.3038    6.5048    1.0077 H   0  0  0  0  0  0  0  0  0  0  0  0
   -0.4534   -0.3241   -3.4249 H   0  0  0  0  0  0  0  0  0  0  0  0
    0.9506   -1.2538   -2.8924 H   0  0  0  0  0  0  0  0  0  0  0  0
    0.3360    0.0936   -1.8966 H   0  0  0  0  0  0  0  0  0  0  0  0
    5.5789   -0.6783   -3.2925 H   0  0  0  0  0  0  0  0  0  0  0  0
    4.5004    7.5109   -0.3038 H   0  0  0  0  0  0  0  0  0  0  0  0
    4.1727    6.9156    1.3239 H   0  0  0  0  0  0  0  0  0  0  0  0
    1.1375    8.0110   -0.7844 H   0  0  0  0  0  0  0  0  0  0  0  0
    2.5617    8.8140   -0.1181 H   0  0  0  0  0  0  0  0  0  0  0  0
    1.9547    8.1710    2.1684 H   0  0  0  0  0  0  0  0  0  0  0  0
    0.4269    8.7315    1.4324 H   0  0  0  0  0  0  0  0  0  0  0  0
    8.5494    2.6832   -1.1434 H   0  0  0  0  0  0  0  0  0  0  0  0
    6.9715    3.4344   -1.4287 H   0  0  0  0  0  0  0  0  0  0  0  0
    5.8880    5.5925    0.0195 H   0  0  0  0  0  0  0  0  0  0  0  0
    4.5377    4.5986    0.5598 H   0  0  0  0  0  0  0  0  0  0  0  0
    4.6223    5.1366   -1.1338 H   0  0  0  0  0  0  0  0  0  0  0  0
    7.0316    2.6033   -3.8148 H   0  0  0  0  0  0  0  0  0  0  0  0
    8.3979    3.6765   -3.4380 H   0  0  0  0  0  0  0  0  0  0  0  0
    8.6491    1.9178   -3.5075 H   0  0  0  0  0  0  0  0  0  0  0  0
  1  2  1  0  0  0  0 
  1  3  2  0  0  0  0 
  1  4  1  0  0  0  0 
  2  5  1  0  0  0  0 
  4  6  2  0  0  0  0 
  4  7  1  0  0  0  0 
  8  5  1  0  0  0  0 
  6  9  1  0  0  0  0 
  6 10  1  0  0  0  0 
  7 11  2  0  0  0  0 
  8 12  1  0  0  0  0 
  8 13  1  0  0  0  0 
  9 14  1  0  0  0  0 
 10 15  2  0  0  0  0 
 11 15  1  0  0  0  0 
 11 16  1  0  0  0  0 
 12 17  1  0  0  0  0 
 12 18  1  0  0  0  0 
 13 19  1  0  0  0  0 
 16 20  1  0  0  0  0 
 16 21  2  0  0  0  0 
 16 22  2  0  0  0  0 
 17 23  1  0  0  0  0 
 18 19  1  0  0  0  0 
 20 24  1  0  0  0  0 
  2 25  1  0  0  0  0 
  5 26  1  0  0  0  0 
  5 27  1  0  0  0  0 
  7 28  1  0  0  0  0 
  8 29  1  0  0  0  0 
 10 30  1  0  0  0  0 
 13 31  1  0  0  0  0 
 13 32  1  0  0  0  0 
 14 33  1  0  0  0  0 
 14 34  1  0  0  0  0 
 14 35  1  0  0  0  0 
 15 36  1  0  0  0  0 
 17 37  1  0  0  0  0 
 17 38  1  0  0  0  0 
 18 39  1  0  0  0  0 
 18 40  1  0  0  0  0 
 19 41  1  0  0  0  0 
 19 42  1  0  0  0  0 
 20 43  1  0  0  0  0 
 20 44  1  0  0  0  0 
 23 45  1  0  0  0  0 
 23 46  1  0  0  0  0 
 23 47  1  0  0  0  0 
 24 48  1  0  0  0  0 
 24 49  1  0  0  0  0 
 24 50  1  0  0  0  0 
M  END
> <cdk:Title>
sultopride

> <Conformer>
1

> <SuperDrugID>
SD002286

$$$$
