azimilide
  CDK     0628171801

 60 63  0  0  0  0  0  0  0  0999 V2000
   -1.2985    0.6856   -0.4347 C   0  0  0  0  0  0  0  0  0  0  0  0
   -0.4304   -0.4135   -0.5731 C   0  0  0  0  0  0  0  0  0  0  0  0
    0.9616   -0.2050   -0.5454 C   0  0  0  0  0  0  0  0  0  0  0  0
    1.4812    1.0963   -0.3947 C   0  0  0  0  0  0  0  0  0  0  0  0
    0.6222    2.2168   -0.2696 C   0  0  0  0  0  0  0  0  0  0  0  0
   -0.7781    1.9849   -0.2878 C   0  0  0  0  0  0  0  0  0  0  0  0
   -1.0611   -1.9729   -0.7703 Cl  0  0  0  0  0  0  0  0  0  0  0  0
    1.1727    3.5215   -0.1052 C   0  0  0  0  0  0  0  0  0  0  0  0
    2.5041    3.8069   -0.0550 O   0  0  0  0  0  0  0  0  0  0  0  0
    0.4835    4.7245    0.0656 C   0  0  0  0  0  0  0  0  0  0  0  0
    1.4174    5.7290    0.2390 C   0  0  0  0  0  0  0  0  0  0  0  0
    2.6733    5.1345    0.1766 C   0  0  0  0  0  0  0  0  0  0  0  0
    3.8756    5.7787    0.3548 C   0  0  0  0  0  0  0  0  0  0  0  0
    3.9429    6.7105    1.2370 N   0  0  0  0  0  0  0  0  0  0  0  0
    4.9182    7.4624    1.5435 N   0  0  0  0  0  0  0  0  0  0  0  0
    5.9833    7.1509    2.3005 C   0  0  0  0  0  0  0  0  0  0  0  0
    6.7337    8.3110    2.4544 C   0  0  0  0  0  0  0  0  0  0  0  0
    6.1008    9.3070    1.7997 N   0  0  0  0  0  0  0  0  0  0  0  0
    5.0036    8.7670    1.2257 C   0  0  0  0  0  0  0  0  0  0  0  0
    4.1675    9.3874    0.5262 O   0  0  0  0  0  0  0  0  0  0  0  0
    7.8822    8.4150    3.1679 O   0  0  0  0  0  0  0  0  0  0  0  0
    6.4968   10.6886    1.7542 C   0  0  2  0  0  0  0  0  0  0  0  0
    7.5847   10.9327    0.6785 C   0  0  1  0  0  0  0  0  0  0  0  0
    8.0420   12.4161    0.6098 C   0  0  2  0  0  0  0  0  0  0  0  0
    9.0231   12.6943   -0.5626 C   0  0  2  0  0  0  0  0  0  0  0  0
    9.6458   14.0607   -0.5515 N   0  0  1  0  0  0  0  0  0  0  0  0
   10.7661   14.1675   -1.5415 C   0  0  2  0  0  0  0  0  0  0  0  0
   11.4551   15.5508   -1.4734 C   0  0  2  0  0  0  0  0  0  0  0  0
   10.4486   16.6338   -1.6756 N   0  0  1  0  0  0  0  0  0  0  0  0
    9.3658   16.5726   -0.6522 C   0  0  1  0  0  0  0  0  0  0  0  0
    8.6689   15.1901   -0.6889 C   0  0  2  0  0  0  0  0  0  0  0  0
   11.0628   17.9833   -1.8023 C   0  0  0  0  0  0  0  0  0  0  0  0
   -2.3127    0.5478   -0.4371 H   0  0  0  0  0  0  0  0  0  0  0  0
    1.6043   -0.9970   -0.6336 H   0  0  0  0  0  0  0  0  0  0  0  0
    2.4992    1.2123   -0.3730 H   0  0  0  0  0  0  0  0  0  0  0  0
   -1.4431    2.7558   -0.1879 H   0  0  0  0  0  0  0  0  0  0  0  0
   -0.5270    4.8625    0.0748 H   0  0  0  0  0  0  0  0  0  0  0  0
    1.2141    6.7209    0.3826 H   0  0  0  0  0  0  0  0  0  0  0  0
    4.6704    5.5059   -0.1745 H   0  0  0  0  0  0  0  0  0  0  0  0
    6.1991    6.2337    2.6999 H   0  0  0  0  0  0  0  0  0  0  0  0
    8.0465    7.5202    3.5349 H   0  0  0  0  0  0  0  0  0  0  0  0
    6.8692   10.9942    2.7361 H   0  0  0  0  0  0  0  0  0  0  0  0
    5.6301   11.3198    1.5340 H   0  0  0  0  0  0  0  0  0  0  0  0
    8.4495   10.2999    0.8979 H   0  0  0  0  0  0  0  0  0  0  0  0
    7.1816   10.6358   -0.2938 H   0  0  0  0  0  0  0  0  0  0  0  0
    8.5339   12.6807    1.5492 H   0  0  0  0  0  0  0  0  0  0  0  0
    7.1584   13.0488    0.4944 H   0  0  0  0  0  0  0  0  0  0  0  0
    8.5011   12.5337   -1.5106 H   0  0  0  0  0  0  0  0  0  0  0  0
    9.8215   11.9494   -0.4956 H   0  0  0  0  0  0  0  0  0  0  0  0
   10.3919   14.0031   -2.5581 H   0  0  0  0  0  0  0  0  0  0  0  0
   11.5248   13.4075   -1.3320 H   0  0  0  0  0  0  0  0  0  0  0  0
   12.2200   15.5914   -2.2533 H   0  0  0  0  0  0  0  0  0  0  0  0
   11.9533   15.6623   -0.5049 H   0  0  0  0  0  0  0  0  0  0  0  0
    9.7726   16.7534    0.3487 H   0  0  0  0  0  0  0  0  0  0  0  0
    8.6151   17.3418   -0.8543 H   0  0  0  0  0  0  0  0  0  0  0  0
    7.9541   15.1786    0.1352 H   0  0  0  0  0  0  0  0  0  0  0  0
    8.1114   15.0962   -1.6260 H   0  0  0  0  0  0  0  0  0  0  0  0
   11.7791   17.9949   -2.6252 H   0  0  0  0  0  0  0  0  0  0  0  0
   10.2986   18.7288   -2.0280 H   0  0  0  0  0  0  0  0  0  0  0  0
   11.5772   18.2727   -0.8833 H   0  0  0  0  0  0  0  0  0  0  0  0
  1  2  2  0  0  0  0 
  2  3  1  0  0  0  0 
  3  4  2  0  0  0  0 
  4  5  1  0  0  0  0 
  5  6  2  0  0  0  0 
  1  6  1  0  0  0  0 
  2  7  1  0  0  0  0 
  5  8  1  0  0  0  0 
 10 11  1  0  0  0  0 
 11 12  2  0  0  0  0 
  9 12  1  0  0  0  0 
  9  8  1  0  0  0  0 
  8 10  2  0  0  0  0 
 13 12  1  0  0  0  0 
 13 14  2  0  0  0  0 
 14 15  1  0  0  0  0 
 16 17  2  0  0  0  0 
 17 18  1  0  0  0  0 
 18 19  1  0  0  0  0 
 15 16  1  0  0  0  0 
 15 19  1  0  0  0  0 
 19 20  2  0  0  0  0 
 17 21  1  0  0  0  0 
 18 22  1  0  0  0  0 
 22 23  1  0  0  0  0 
 23 24  1  0  0  0  0 
 24 25  1  0  0  0  0 
 25 26  1  0  0  0  0 
 27 28  1  0  0  0  0 
 28 29  1  0  0  0  0 
 29 30  1  0  0  0  0 
 30 31  1  0  0  0  0 
 26 27  1  0  0  0  0 
 26 31  1  0  0  0  0 
 29 32  1  0  0  0  0 
 33  1  1  0  0  0  0 
 34  3  1  0  0  0  0 
 35  4  1  0  0  0  0 
 36  6  1  0  0  0  0 
 37 10  1  0  0  0  0 
 38 11  1  0  0  0  0 
 39 13  1  0  0  0  0 
 40 16  1  0  0  0  0 
 41 21  1  0  0  0  0 
 42 22  1  0  0  0  0 
 43 22  1  0  0  0  0 
 44 23  1  0  0  0  0 
 45 23  1  0  0  0  0 
 46 24  1  0  0  0  0 
 47 24  1  0  0  0  0 
 48 25  1  0  0  0  0 
 49 25  1  0  0  0  0 
 50 27  1  0  0  0  0 
 51 27  1  0  0  0  0 
 52 28  1  0  0  0  0 
 53 28  1  0  0  0  0 
 54 30  1  0  0  0  0 
 55 30  1  0  0  0  0 
 56 31  1  0  0  0  0 
 57 31  1  0  0  0  0 
 58 32  1  0  0  0  0 
 59 32  1  0  0  0  0 
 60 32  1  0  0  0  0 
M  END
> <cdk:Title>
azimilide

> <Conformer>
1

> <SuperDrugID>
SD000228

$$$$
