octinoxate
  CDK     0628171801

 47 47  0  0  0  0  0  0  0  0999 V2000
   -4.3580   -0.5192   -7.1418 C   0  0  0  0  0  0  0  0  0  0  0  0
   -5.2615   -1.1433   -8.0225 C   0  0  0  0  0  0  0  0  0  0  0  0
   -5.0781   -1.0398   -9.4138 C   0  0  0  0  0  0  0  0  0  0  0  0
   -3.9802   -0.3152   -9.9128 C   0  0  0  0  0  0  0  0  0  0  0  0
   -3.0778    0.3059   -9.0297 C   0  0  0  0  0  0  0  0  0  0  0  0
   -3.2450    0.2215   -7.6212 C   0  0  0  0  0  0  0  0  0  0  0  0
   -5.9387   -1.6701  -10.2735 O   0  0  0  0  0  0  0  0  0  0  0  0
   -6.9903   -0.8095  -10.7469 C   0  0  0  0  0  0  0  0  0  0  0  0
   -2.3595    0.8037   -6.6984 C   0  0  0  0  0  0  0  0  0  0  0  0
   -1.4789    1.7913   -6.9554 C   0  0  0  0  0  0  0  0  0  0  0  0
   -0.6025    2.3356   -6.0289 C   0  0  0  0  0  0  0  0  0  0  0  0
   -0.4888    1.8526   -4.7501 O   0  0  0  0  0  0  0  0  0  0  0  0
    0.1147    3.3022   -6.3860 O   0  0  0  0  0  0  0  0  0  0  0  0
    0.4256    2.3525   -3.7616 C   0  0  2  0  0  0  0  0  0  0  0  0
    0.3235    1.6026   -2.4008 C   0  0  2  0  0  0  0  0  0  0  0  0
   -1.1439    1.5113   -1.8674 C   0  0  2  0  0  0  0  0  0  0  0  0
    1.3461    2.2069   -1.3824 C   0  0  1  0  0  0  0  0  0  0  0  0
    1.4450    1.4732   -0.0248 C   0  0  0  0  0  0  0  0  0  0  0  0
   -1.8481    2.8615   -1.5532 C   0  0  1  0  0  0  0  0  0  0  0  0
   -3.2747    2.6517   -0.9829 C   0  0  1  0  0  0  0  0  0  0  0  0
   -3.9863    3.9860   -0.6729 C   0  0  0  0  0  0  0  0  0  0  0  0
   -4.5246   -0.6148   -6.1370 H   0  0  0  0  0  0  0  0  0  0  0  0
   -6.0518   -1.6758   -7.6493 H   0  0  0  0  0  0  0  0  0  0  0  0
   -3.8347   -0.2439  -10.9229 H   0  0  0  0  0  0  0  0  0  0  0  0
   -2.2880    0.8054   -9.4397 H   0  0  0  0  0  0  0  0  0  0  0  0
   -7.6078   -1.3738  -11.4456 H   0  0  0  0  0  0  0  0  0  0  0  0
   -7.6258   -0.4750   -9.9233 H   0  0  0  0  0  0  0  0  0  0  0  0
   -6.5896    0.0594  -11.2759 H   0  0  0  0  0  0  0  0  0  0  0  0
   -2.3923    0.4573   -5.7655 H   0  0  0  0  0  0  0  0  0  0  0  0
   -1.4434    2.1787   -7.8696 H   0  0  0  0  0  0  0  0  0  0  0  0
    0.2349    3.4171   -3.6139 H   0  0  0  0  0  0  0  0  0  0  0  0
    1.4386    2.2400   -4.1577 H   0  0  0  0  0  0  0  0  0  0  0  0
    0.6434    0.5734   -2.5975 H   0  0  0  0  0  0  0  0  0  0  0  0
   -1.1523    0.8946   -0.9660 H   0  0  0  0  0  0  0  0  0  0  0  0
   -1.7459    0.9737   -2.6046 H   0  0  0  0  0  0  0  0  0  0  0  0
    2.3423    2.1753   -1.8319 H   0  0  0  0  0  0  0  0  0  0  0  0
    1.1130    3.2585   -1.1955 H   0  0  0  0  0  0  0  0  0  0  0  0
    2.2565    1.9025    0.5651 H   0  0  0  0  0  0  0  0  0  0  0  0
    0.5219    1.5845    0.5441 H   0  0  0  0  0  0  0  0  0  0  0  0
    1.6496    0.4122   -0.1761 H   0  0  0  0  0  0  0  0  0  0  0  0
   -1.2606    3.4270   -0.8254 H   0  0  0  0  0  0  0  0  0  0  0  0
   -1.9200    3.4563   -2.4678 H   0  0  0  0  0  0  0  0  0  0  0  0
   -3.8748    2.0899   -1.7040 H   0  0  0  0  0  0  0  0  0  0  0  0
   -3.2135    2.0656   -0.0621 H   0  0  0  0  0  0  0  0  0  0  0  0
   -4.9741    3.7820   -0.2576 H   0  0  0  0  0  0  0  0  0  0  0  0
   -3.4123    4.5632    0.0554 H   0  0  0  0  0  0  0  0  0  0  0  0
   -4.1033    4.5771   -1.5841 H   0  0  0  0  0  0  0  0  0  0  0  0
  1  2  2  0  0  0  0 
  1  6  1  0  0  0  0 
  2  3  1  0  0  0  0 
  3  4  2  0  0  0  0 
  4  5  1  0  0  0  0 
  5  6  2  0  0  0  0 
  3  7  1  0  0  0  0 
  7  8  1  0  0  0  0 
  6  9  1  0  0  0  0 
  9 10  2  0  0  0  0 
 10 11  1  0  0  0  0 
 11 12  1  0  0  0  0 
 11 13  2  0  0  0  0 
 12 14  1  0  0  0  0 
 15 14  1  0  0  0  0 
 15 16  1  0  0  0  0 
 15 17  1  0  0  0  0 
 17 18  1  0  0  0  0 
 16 19  1  0  0  0  0 
 19 20  1  0  0  0  0 
 20 21  1  0  0  0  0 
  1 22  1  0  0  0  0 
  2 23  1  0  0  0  0 
  4 24  1  0  0  0  0 
  5 25  1  0  0  0  0 
  8 26  1  0  0  0  0 
  8 27  1  0  0  0  0 
  8 28  1  0  0  0  0 
  9 29  1  0  0  0  0 
 10 30  1  0  0  0  0 
 14 31  1  0  0  0  0 
 14 32  1  0  0  0  0 
 15 33  1  0  0  0  0 
 16 34  1  0  0  0  0 
 16 35  1  0  0  0  0 
 17 36  1  0  0  0  0 
 17 37  1  0  0  0  0 
 18 38  1  0  0  0  0 
 18 39  1  0  0  0  0 
 18 40  1  0  0  0  0 
 19 41  1  0  0  0  0 
 19 42  1  0  0  0  0 
 20 43  1  0  0  0  0 
 20 44  1  0  0  0  0 
 21 45  1  0  0  0  0 
 21 46  1  0  0  0  0 
 21 47  1  0  0  0  0 
M  END
> <cdk:Title>
octinoxate

> <Conformer>
1

> <SuperDrugID>
SD003444

$$$$
