undecylenic acid
  CDK     0628171801

 33 32  0  0  0  0  0  0  0  0999 V2000
    4.5236   -4.8660   -2.5752 C   0  0  1  0  0  0  0  0  0  0  0  0
    4.4532   -3.3717   -2.1610 C   0  0  1  0  0  0  0  0  0  0  0  0
    5.4312   -5.1074   -3.8112 C   0  0  2  0  0  0  0  0  0  0  0  0
    3.5436   -3.1433   -0.9231 C   0  0  1  0  0  0  0  0  0  0  0  0
    5.4935   -6.6054   -4.2161 C   0  0  2  0  0  0  0  0  0  0  0  0
    3.4681   -1.6488   -0.5115 C   0  0  2  0  0  0  0  0  0  0  0  0
    6.3880   -6.8533   -5.4593 C   0  0  2  0  0  0  0  0  0  0  0  0
    2.5633   -1.4054    0.7277 C   0  0  1  0  0  0  0  0  0  0  0  0
    6.4510   -8.2821   -5.8209 C   0  0  0  0  0  0  0  0  0  0  0  0
    2.4698    0.0083    1.0547 C   0  0  0  0  0  0  0  0  0  0  0  0
    7.6192   -8.9598   -5.7479 O   0  0  0  0  0  0  0  0  0  0  0  0
    5.4248   -8.8890   -6.2070 O   0  0  0  0  0  0  0  0  0  0  0  0
    1.5861    0.8400    0.4867 C   0  0  0  0  0  0  0  0  0  0  0  0
    4.9075   -5.4505   -1.7338 H   0  0  0  0  0  0  0  0  0  0  0  0
    3.5131   -5.2180   -2.8028 H   0  0  0  0  0  0  0  0  0  0  0  0
    5.4629   -3.0149   -1.9355 H   0  0  0  0  0  0  0  0  0  0  0  0
    4.0655   -2.7876   -3.0008 H   0  0  0  0  0  0  0  0  0  0  0  0
    6.4429   -4.7590   -3.5841 H   0  0  0  0  0  0  0  0  0  0  0  0
    5.0498   -4.5225   -4.6538 H   0  0  0  0  0  0  0  0  0  0  0  0
    2.5354   -3.5022   -1.1516 H   0  0  0  0  0  0  0  0  0  0  0  0
    3.9300   -3.7271   -0.0826 H   0  0  0  0  0  0  0  0  0  0  0  0
    4.4791   -6.9567   -4.4293 H   0  0  0  0  0  0  0  0  0  0  0  0
    5.8853   -7.1855   -3.3744 H   0  0  0  0  0  0  0  0  0  0  0  0
    3.0888   -1.0698   -1.3602 H   0  0  0  0  0  0  0  0  0  0  0  0
    4.4773   -1.2945   -0.2820 H   0  0  0  0  0  0  0  0  0  0  0  0
    7.3975   -6.4855   -5.2534 H   0  0  0  0  0  0  0  0  0  0  0  0
    5.9955   -6.2956   -6.3134 H   0  0  0  0  0  0  0  0  0  0  0  0
    1.5662   -1.8229    0.5525 H   0  0  0  0  0  0  0  0  0  0  0  0
    2.9876   -1.9349    1.5859 H   0  0  0  0  0  0  0  0  0  0  0  0
    3.1120    0.3806    1.7185 H   0  0  0  0  0  0  0  0  0  0  0  0
    7.6574   -9.9085   -5.9892 H   0  0  0  0  0  0  0  0  0  0  0  0
    0.9328    0.5134   -0.1858 H   0  0  0  0  0  0  0  0  0  0  0  0
    1.5742    1.8017    0.7306 H   0  0  0  0  0  0  0  0  0  0  0  0
  1  2  1  0  0  0  0 
  1  3  1  0  0  0  0 
  2  4  1  0  0  0  0 
  3  5  1  0  0  0  0 
  4  6  1  0  0  0  0 
  5  7  1  0  0  0  0 
  6  8  1  0  0  0  0 
  7  9  1  0  0  0  0 
  8 10  1  0  0  0  0 
  9 11  1  0  0  0  0 
  9 12  2  0  0  0  0 
 10 13  2  0  0  0  0 
  1 14  1  0  0  0  0 
  1 15  1  0  0  0  0 
  2 16  1  0  0  0  0 
  2 17  1  0  0  0  0 
  3 18  1  0  0  0  0 
  3 19  1  0  0  0  0 
  4 20  1  0  0  0  0 
  4 21  1  0  0  0  0 
  5 22  1  0  0  0  0 
  5 23  1  0  0  0  0 
  6 24  1  0  0  0  0 
  6 25  1  0  0  0  0 
  7 26  1  0  0  0  0 
  7 27  1  0  0  0  0 
  8 28  1  0  0  0  0 
  8 29  1  0  0  0  0 
 10 30  1  0  0  0  0 
 11 31  1  0  0  0  0 
 13 32  1  0  0  0  0 
 13 33  1  0  0  0  0 
M  END
> <cdk:Title>
undecylenic acid

> <Conformer>
1

> <SuperDrugID>
SD002968

$$$$
