fenproporex
  CDK     0628171801

 30 30  0  0  0  0  0  0  0  0999 V2000
   -3.2411    3.6377    1.7936 C   0  0  1  0  0  0  0  0  0  0  0  0
   -3.8854    2.2431    1.5130 C   0  0  2  0  0  0  0  0  0  0  0  0
   -3.9072    4.4074    2.8874 C   0  0  0  0  0  0  0  0  0  0  0  0
   -3.1277    1.4647    0.4944 N   0  0  2  0  0  0  0  0  0  0  0  0
   -5.3406    2.3769    0.9807 C   0  0  0  0  0  0  0  0  0  0  0  0
   -3.6308    4.1238    4.2477 C   0  0  0  0  0  0  0  0  0  0  0  0
   -4.8222    5.4461    2.5900 C   0  0  0  0  0  0  0  0  0  0  0  0
   -1.8109    0.9049    0.8831 C   0  0  1  0  0  0  0  0  0  0  0  0
   -4.2301    4.8748    5.2781 C   0  0  0  0  0  0  0  0  0  0  0  0
   -5.4228    6.1972    3.6176 C   0  0  0  0  0  0  0  0  0  0  0  0
   -1.2802   -0.0025   -0.2555 C   0  0  2  0  0  0  0  0  0  0  0  0
   -5.1242    5.9135    4.9621 C   0  0  0  0  0  0  0  0  0  0  0  0
   -0.0105   -0.4515   -0.0021 C   0  0  0  0  0  0  0  0  0  0  0  0
    1.0582   -0.8153    0.2103 N   0  0  0  0  0  0  0  0  0  0  0  0
   -2.1906    3.5158    2.0666 H   0  0  0  0  0  0  0  0  0  0  0  0
   -3.2439    4.2190    0.8654 H   0  0  0  0  0  0  0  0  0  0  0  0
   -3.9206    1.6668    2.4427 H   0  0  0  0  0  0  0  0  0  0  0  0
   -2.9820    2.0747   -0.3119 H   0  0  0  0  0  0  0  0  0  0  0  0
   -5.3713    3.0038    0.0848 H   0  0  0  0  0  0  0  0  0  0  0  0
   -5.7450    1.3949    0.7256 H   0  0  0  0  0  0  0  0  0  0  0  0
   -5.9928    2.8206    1.7365 H   0  0  0  0  0  0  0  0  0  0  0  0
   -2.9871    3.3683    4.4973 H   0  0  0  0  0  0  0  0  0  0  0  0
   -5.0644    5.6575    1.6186 H   0  0  0  0  0  0  0  0  0  0  0  0
   -1.1033    1.7193    1.0563 H   0  0  0  0  0  0  0  0  0  0  0  0
   -1.9087    0.3169    1.8028 H   0  0  0  0  0  0  0  0  0  0  0  0
   -4.0177    4.6681    6.2565 H   0  0  0  0  0  0  0  0  0  0  0  0
   -6.0788    6.9490    3.3880 H   0  0  0  0  0  0  0  0  0  0  0  0
   -1.2595    0.5504   -1.1979 H   0  0  0  0  0  0  0  0  0  0  0  0
   -1.9366   -0.8685   -0.3783 H   0  0  0  0  0  0  0  0  0  0  0  0
   -5.5570    6.4628    5.7076 H   0  0  0  0  0  0  0  0  0  0  0  0
  2  1  1  0  0  0  0 
  1  3  1  0  0  0  0 
  2  4  1  0  0  0  0 
  2  5  1  0  0  0  0 
  3  6  2  0  0  0  0 
  3  7  1  0  0  0  0 
  4  8  1  0  0  0  0 
  6  9  1  0  0  0  0 
  7 10  2  0  0  0  0 
  8 11  1  0  0  0  0 
  9 12  2  0  0  0  0 
 10 12  1  0  0  0  0 
 11 13  1  0  0  0  0 
 13 14  3  0  0  0  0 
  1 15  1  0  0  0  0 
  1 16  1  0  0  0  0 
  2 17  1  0  0  0  0 
  4 18  1  0  0  0  0 
  5 19  1  0  0  0  0 
  5 20  1  0  0  0  0 
  5 21  1  0  0  0  0 
  6 22  1  0  0  0  0 
  7 23  1  0  0  0  0 
  8 24  1  0  0  0  0 
  8 25  1  0  0  0  0 
  9 26  1  0  0  0  0 
 10 27  1  0  0  0  0 
 11 28  1  0  0  0  0 
 11 29  1  0  0  0  0 
 12 30  1  0  0  0  0 
M  END
> <cdk:Title>
fenproporex

> <Conformer>
1

> <SuperDrugID>
SD001038

$$$$
