cefalexin
  CDK     0628171802

 41 43  0  0  0  0  0  0  0  0999 V2000
   -0.9014   -3.1753    0.6758 O   0  0  0  0  0  0  0  0  0  0  0  0
   -1.4971   -2.1014    0.4332 C   0  0  0  0  0  0  0  0  0  0  0  0
   -1.3222   -1.1450   -0.4904 N   0  0  0  0  0  0  0  0  0  0  0  0
   -2.5819   -1.4071    1.1284 C   0  0  2  0  0  0  0  0  0  0  0  0
   -2.3967   -0.3506   -0.0030 C   0  0  1  0  0  0  0  0  0  0  0  0
   -0.4008   -0.9119   -1.4512 C   0  0  0  0  0  0  0  0  0  0  0  0
   -2.2044   -1.0007    2.4428 N   0  0  0  0  0  0  0  0  0  0  0  0
   -1.6664    1.2747    0.3497 S   0  0  0  0  0  0  0  0  0  0  0  0
    0.2423   -2.0307   -1.9803 C   0  0  0  0  0  0  0  0  0  0  0  0
   -0.1381    0.3687   -1.8455 C   0  0  0  0  0  0  0  0  0  0  0  0
   -2.0852   -1.8410    3.5056 C   0  0  0  0  0  0  0  0  0  0  0  0
   -0.7704    1.5489   -1.2202 C   0  0  1  0  0  0  0  0  0  0  0  0
   -0.4560   -3.1518   -2.2748 O   0  0  0  0  0  0  0  0  0  0  0  0
    1.4792   -2.0630   -2.1725 O   0  0  0  0  0  0  0  0  0  0  0  0
    0.7992    0.6682   -2.9375 C   0  0  0  0  0  0  0  0  0  0  0  0
   -1.4659   -1.3667    4.7630 C   0  0  2  0  0  0  0  0  0  0  0  0
   -2.4490   -3.0386    3.4187 O   0  0  0  0  0  0  0  0  0  0  0  0
   -2.1794   -0.1961    5.2933 N   0  0  1  0  0  0  0  0  0  0  0  0
   -0.0107   -1.1073    4.5424 C   0  0  0  0  0  0  0  0  0  0  0  0
    0.4404    0.0352    3.8329 C   0  0  0  0  0  0  0  0  0  0  0  0
    0.9583   -2.0319    5.0055 C   0  0  0  0  0  0  0  0  0  0  0  0
    1.8082    0.2312    3.5701 C   0  0  0  0  0  0  0  0  0  0  0  0
    2.3267   -1.8357    4.7443 C   0  0  0  0  0  0  0  0  0  0  0  0
    2.7505   -0.7104    4.0173 C   0  0  0  0  0  0  0  0  0  0  0  0
   -3.2357   -0.2958   -0.7038 H   0  0  0  0  0  0  0  0  0  0  0  0
   -3.5335   -1.9439    1.0768 H   0  0  0  0  0  0  0  0  0  0  0  0
   -1.9713   -0.0690    2.5790 H   0  0  0  0  0  0  0  0  0  0  0  0
   -1.4826    1.9727   -1.9297 H   0  0  0  0  0  0  0  0  0  0  0  0
   -0.0148    2.3052   -0.9998 H   0  0  0  0  0  0  0  0  0  0  0  0
    0.0075   -3.9376   -2.6302 H   0  0  0  0  0  0  0  0  0  0  0  0
    0.5651    0.0676   -3.8196 H   0  0  0  0  0  0  0  0  0  0  0  0
    0.7665    1.7155   -3.2501 H   0  0  0  0  0  0  0  0  0  0  0  0
    1.8218    0.4555   -2.6202 H   0  0  0  0  0  0  0  0  0  0  0  0
   -1.5910   -2.1448    5.5222 H   0  0  0  0  0  0  0  0  0  0  0  0
   -1.7242    0.0629    6.1698 H   0  0  0  0  0  0  0  0  0  0  0  0
   -2.0329    0.5790    4.6440 H   0  0  0  0  0  0  0  0  0  0  0  0
   -0.2243    0.7351    3.4973 H   0  0  0  0  0  0  0  0  0  0  0  0
    0.6750   -2.8650    5.5263 H   0  0  0  0  0  0  0  0  0  0  0  0
    2.1166    1.0574    3.0532 H   0  0  0  0  0  0  0  0  0  0  0  0
    3.0148   -2.5146    5.0777 H   0  0  0  0  0  0  0  0  0  0  0  0
    3.7436   -0.5757    3.8146 H   0  0  0  0  0  0  0  0  0  0  0  0
  1  2  2  0  0  0  0 
  2  3  1  0  0  0  0 
  4  2  1  0  0  0  0 
  5  3  1  0  0  0  0 
  3  6  1  0  0  0  0 
  5  4  1  0  0  0  0 
  4  7  1  0  0  0  0 
  5  8  1  0  0  0  0 
  5 25  1  0  0  0  0 
  6  9  1  0  0  0  0 
  6 10  2  0  0  0  0 
  7 11  1  0  0  0  0 
  8 12  1  0  0  0  0 
  9 13  1  0  0  0  0 
  9 14  2  0  0  0  0 
 10 12  1  0  0  0  0 
 10 15  1  0  0  0  0 
 16 11  1  0  0  0  0 
 11 17  2  0  0  0  0 
 16 18  1  0  0  0  0 
 16 19  1  0  0  0  0 
 19 20  2  0  0  0  0 
 19 21  1  0  0  0  0 
 20 22  1  0  0  0  0 
 21 23  2  0  0  0  0 
 22 24  2  0  0  0  0 
 23 24  1  0  0  0  0 
  4 26  1  0  0  0  0 
  7 27  1  0  0  0  0 
 12 28  1  0  0  0  0 
 12 29  1  0  0  0  0 
 13 30  1  0  0  0  0 
 15 31  1  0  0  0  0 
 15 32  1  0  0  0  0 
 15 33  1  0  0  0  0 
 16 34  1  0  0  0  0 
 18 35  1  0  0  0  0 
 18 36  1  0  0  0  0 
 20 37  1  0  0  0  0 
 21 38  1  0  0  0  0 
 22 39  1  0  0  0  0 
 23 40  1  0  0  0  0 
 24 41  1  0  0  0  0 
M  END
> <cdk:Title>
cefalexin

> <Conformer>
1

> <SuperDrugID>
SD000498

$$$$
