lisdexamfetamine
  CDK     0628171801

 44 44  0  0  0  0  0  0  0  0999 V2000
    3.4669    3.3605   -0.7993 C   0  0  2  0  0  0  0  0  0  0  0  0
    1.9075    3.3416   -0.8060 C   0  0  1  0  0  0  0  0  0  0  0  0
    4.0327    3.9621   -2.0386 C   0  0  0  0  0  0  0  0  0  0  0  0
    1.4260    2.7118   -2.0076 N   0  0  0  0  0  0  0  0  0  0  0  0
    1.3402    2.5747    0.4141 C   0  0  0  0  0  0  0  0  0  0  0  0
    4.0527    5.3657   -2.2105 C   0  0  0  0  0  0  0  0  0  0  0  0
    4.5126    3.1429   -3.0889 C   0  0  0  0  0  0  0  0  0  0  0  0
    0.7617    3.3229   -3.0343 C   0  0  0  0  0  0  0  0  0  0  0  0
    4.5336    5.9361   -3.4024 C   0  0  0  0  0  0  0  0  0  0  0  0
    4.9818    3.7126   -4.2860 C   0  0  0  0  0  0  0  0  0  0  0  0
    0.4107    2.6002   -4.2858 C   0  0  2  0  0  0  0  0  0  0  0  0
    0.4547    4.5369   -2.9604 O   0  0  0  0  0  0  0  0  0  0  0  0
    5.0024    5.1097   -4.4377 C   0  0  0  0  0  0  0  0  0  0  0  0
   -1.1294    2.4311   -4.4638 C   0  0  1  0  0  0  0  0  0  0  0  0
    1.0666    1.2832   -4.3574 N   0  0  1  0  0  0  0  0  0  0  0  0
   -1.5404    2.0158   -5.9055 C   0  0  2  0  0  0  0  0  0  0  0  0
   -3.0533    1.7058   -6.0626 C   0  0  1  0  0  0  0  0  0  0  0  0
   -3.4300    1.3614   -7.5258 C   0  0  2  0  0  0  0  0  0  0  0  0
   -4.8159    0.8948   -7.6217 N   0  0  1  0  0  0  0  0  0  0  0  0
    3.8412    2.3410   -0.6725 H   0  0  0  0  0  0  0  0  0  0  0  0
    3.8207    3.9279    0.0658 H   0  0  0  0  0  0  0  0  0  0  0  0
    1.5574    4.3763   -0.7272 H   0  0  0  0  0  0  0  0  0  0  0  0
    1.6138    1.7645   -2.1040 H   0  0  0  0  0  0  0  0  0  0  0  0
    1.6511    1.5288    0.3895 H   0  0  0  0  0  0  0  0  0  0  0  0
    0.2503    2.6115    0.4077 H   0  0  0  0  0  0  0  0  0  0  0  0
    1.6894    3.0212    1.3466 H   0  0  0  0  0  0  0  0  0  0  0  0
    3.7114    5.9809   -1.4690 H   0  0  0  0  0  0  0  0  0  0  0  0
    4.5090    2.1249   -2.9968 H   0  0  0  0  0  0  0  0  0  0  0  0
    4.5373    6.9514   -3.5167 H   0  0  0  0  0  0  0  0  0  0  0  0
    5.3039    3.1111   -5.0464 H   0  0  0  0  0  0  0  0  0  0  0  0
    0.8076    3.1885   -5.1187 H   0  0  0  0  0  0  0  0  0  0  0  0
    5.3571    5.5232   -5.3014 H   0  0  0  0  0  0  0  0  0  0  0  0
   -1.4830    1.6813   -3.7492 H   0  0  0  0  0  0  0  0  0  0  0  0
   -1.6312    3.3769   -4.2354 H   0  0  0  0  0  0  0  0  0  0  0  0
    0.9619    0.9505   -5.3175 H   0  0  0  0  0  0  0  0  0  0  0  0
    2.0677    1.4325   -4.2081 H   0  0  0  0  0  0  0  0  0  0  0  0
   -0.9826    1.1238   -6.1985 H   0  0  0  0  0  0  0  0  0  0  0  0
   -1.2746    2.8258   -6.5893 H   0  0  0  0  0  0  0  0  0  0  0  0
   -3.3112    0.8608   -5.4198 H   0  0  0  0  0  0  0  0  0  0  0  0
   -3.6425    2.5674   -5.7373 H   0  0  0  0  0  0  0  0  0  0  0  0
   -2.7793    0.5728   -7.9100 H   0  0  0  0  0  0  0  0  0  0  0  0
   -3.3133    2.2441   -8.1582 H   0  0  0  0  0  0  0  0  0  0  0  0
   -4.9936    0.6922   -8.6078 H   0  0  0  0  0  0  0  0  0  0  0  0
   -4.8569    0.0009   -7.1274 H   0  0  0  0  0  0  0  0  0  0  0  0
  2  1  1  0  0  0  0 
  1  3  1  0  0  0  0 
  2  4  1  0  0  0  0 
  2  5  1  0  0  0  0 
  3  6  2  0  0  0  0 
  3  7  1  0  0  0  0 
  4  8  1  0  0  0  0 
  6  9  1  0  0  0  0 
  7 10  2  0  0  0  0 
 11  8  1  0  0  0  0 
  8 12  2  0  0  0  0 
  9 13  2  0  0  0  0 
 10 13  1  0  0  0  0 
 11 14  1  0  0  0  0 
 11 15  1  0  0  0  0 
 14 16  1  0  0  0  0 
 16 17  1  0  0  0  0 
 17 18  1  0  0  0  0 
 18 19  1  0  0  0  0 
  1 20  1  0  0  0  0 
  1 21  1  0  0  0  0 
  2 22  1  0  0  0  0 
  4 23  1  0  0  0  0 
  5 24  1  0  0  0  0 
  5 25  1  0  0  0  0 
  5 26  1  0  0  0  0 
  6 27  1  0  0  0  0 
  7 28  1  0  0  0  0 
  9 29  1  0  0  0  0 
 10 30  1  0  0  0  0 
 11 31  1  0  0  0  0 
 13 32  1  0  0  0  0 
 14 33  1  0  0  0  0 
 14 34  1  0  0  0  0 
 15 35  1  0  0  0  0 
 15 36  1  0  0  0  0 
 16 37  1  0  0  0  0 
 16 38  1  0  0  0  0 
 17 39  1  0  0  0  0 
 17 40  1  0  0  0  0 
 18 41  1  0  0  0  0 
 18 42  1  0  0  0  0 
 19 43  1  0  0  0  0 
 19 44  1  0  0  0  0 
M  END
> <cdk:Title>
lisdexamfetamine

> <Conformer>
1

> <SuperDrugID>
SD003375

$$$$
