almecillin
  CDK     0628171801

 39 40  0  0  0  0  0  0  0  0999 V2000
   -2.2622    2.9278   -0.5636 C   0  0  0  0  0  0  0  0  0  0  0  0
   -2.4494    4.1753   -1.0550 O   0  0  0  0  0  0  0  0  0  0  0  0
   -1.2599    2.2905   -0.9591 O   0  0  0  0  0  0  0  0  0  0  0  0
   -3.2040    2.3709    0.4418 C   0  0  2  0  0  0  0  0  0  0  0  0
   -2.4998    2.1146    1.6488 N   0  0  0  0  0  0  0  0  0  0  0  0
   -3.8827    0.9751    0.1442 C   0  0  2  0  0  0  0  0  0  0  0  0
   -1.7808    0.9428    1.9527 C   0  0  2  0  0  0  0  0  0  0  0  0
   -2.5239    2.6039    2.8835 C   0  0  0  0  0  0  0  0  0  0  0  0
   -3.8312    0.5120   -1.3433 C   0  0  0  0  0  0  0  0  0  0  0  0
   -5.3696    0.9541    0.6207 C   0  0  0  0  0  0  0  0  0  0  0  0
   -2.9631   -0.2220    1.2031 S   0  0  0  0  0  0  0  0  0  0  0  0
   -1.8310    1.4369    3.4341 C   0  0  1  0  0  0  0  0  0  0  0  0
   -3.0408    3.6235    3.3926 O   0  0  0  0  0  0  0  0  0  0  0  0
   -2.5987    0.6354    4.3333 N   0  0  0  0  0  0  0  0  0  0  0  0
   -2.8667    0.9812    5.6222 C   0  0  0  0  0  0  0  0  0  0  0  0
   -3.6117    0.0657    6.5067 C   0  0  2  0  0  0  0  0  0  0  0  0
   -2.4809    2.0764    6.0940 O   0  0  0  0  0  0  0  0  0  0  0  0
   -5.2391    0.7707    6.9211 S   0  0  0  0  0  0  0  0  0  0  0  0
   -6.2851    0.2514    5.5259 C   0  0  2  0  0  0  0  0  0  0  0  0
   -7.5865    0.8809    5.6117 C   0  0  0  0  0  0  0  0  0  0  0  0
   -8.1403    1.5601    4.6008 C   0  0  0  0  0  0  0  0  0  0  0  0
   -0.7889    0.9418    1.4928 H   0  0  0  0  0  0  0  0  0  0  0  0
   -1.8143    4.5555   -1.6989 H   0  0  0  0  0  0  0  0  0  0  0  0
   -3.9697    3.1301    0.6288 H   0  0  0  0  0  0  0  0  0  0  0  0
   -2.8041    0.3737   -1.6847 H   0  0  0  0  0  0  0  0  0  0  0  0
   -4.3130    1.2554   -1.9839 H   0  0  0  0  0  0  0  0  0  0  0  0
   -4.3492   -0.4418   -1.4719 H   0  0  0  0  0  0  0  0  0  0  0  0
   -5.4545    1.2289    1.6740 H   0  0  0  0  0  0  0  0  0  0  0  0
   -5.9607    1.6616    0.0358 H   0  0  0  0  0  0  0  0  0  0  0  0
   -5.8087   -0.0393    0.4940 H   0  0  0  0  0  0  0  0  0  0  0  0
   -0.8408    1.6860    3.8251 H   0  0  0  0  0  0  0  0  0  0  0  0
   -2.9357   -0.2163    4.0143 H   0  0  0  0  0  0  0  0  0  0  0  0
   -3.0494   -0.0834    7.4306 H   0  0  0  0  0  0  0  0  0  0  0  0
   -3.7566   -0.9117    6.0409 H   0  0  0  0  0  0  0  0  0  0  0  0
   -6.4083   -0.8307    5.5691 H   0  0  0  0  0  0  0  0  0  0  0  0
   -5.7677    0.4976    4.5960 H   0  0  0  0  0  0  0  0  0  0  0  0
   -8.0957    0.8033    6.4622 H   0  0  0  0  0  0  0  0  0  0  0  0
   -9.0348    1.9730    4.7038 H   0  0  0  0  0  0  0  0  0  0  0  0
   -7.6700    1.6603    3.7339 H   0  0  0  0  0  0  0  0  0  0  0  0
  1  2  1  0  0  0  0 
  1  3  2  0  0  0  0 
  4  1  1  0  0  0  0 
  4  5  1  0  0  0  0 
  4  6  1  0  0  0  0 
  7  5  1  0  0  0  0 
  5  8  1  0  0  0  0 
  6  9  1  0  0  0  0 
  6 10  1  0  0  0  0 
  6 11  1  0  0  0  0 
  7 11  1  0  0  0  0 
 12  7  1  0  0  0  0 
  7 22  1  0  0  0  0 
 12  8  1  0  0  0  0 
  8 13  2  0  0  0  0 
 12 14  1  0  0  0  0 
 14 15  1  0  0  0  0 
 15 16  1  0  0  0  0 
 15 17  2  0  0  0  0 
 16 18  1  0  0  0  0 
 18 19  1  0  0  0  0 
 19 20  1  0  0  0  0 
 20 21  2  0  0  0  0 
  2 23  1  0  0  0  0 
  4 24  1  0  0  0  0 
  9 25  1  0  0  0  0 
  9 26  1  0  0  0  0 
  9 27  1  0  0  0  0 
 10 28  1  0  0  0  0 
 10 29  1  0  0  0  0 
 10 30  1  0  0  0  0 
 12 31  1  0  0  0  0 
 14 32  1  0  0  0  0 
 16 33  1  0  0  0  0 
 16 34  1  0  0  0  0 
 19 35  1  0  0  0  0 
 19 36  1  0  0  0  0 
 20 37  1  0  0  0  0 
 21 38  1  0  0  0  0 
 21 39  1  0  0  0  0 
M  END
> <cdk:Title>
almecillin

> <Conformer>
1

> <SuperDrugID>
SD002947

$$$$
