gluconolactone
  CDK     0628171802

 22 22  0  0  0  0  0  0  0  0999 V2000
   -0.0894    0.1605    0.2863 C   0  0  0  0  0  0  0  0  0  0  0  0
   -0.9146    1.3735    0.0985 C   0  0  1  0  0  0  0  0  0  0  0  0
   -1.8218    1.2888   -1.1628 C   0  0  2  0  0  0  0  0  0  0  0  0
   -2.4759   -0.1114   -1.3360 C   0  0  1  0  0  0  0  0  0  0  0  0
   -1.4243   -1.2680   -1.2910 C   0  0  2  0  0  0  0  0  0  0  0  0
   -0.3472   -1.0081   -0.3723 O   0  0  0  0  0  0  0  0  0  0  0  0
    0.8692    0.1824    1.0898 O   0  0  0  0  0  0  0  0  0  0  0  0
   -1.7076    1.5597    1.2704 O   0  0  0  0  0  0  0  0  0  0  0  0
   -1.0628    1.6129   -2.3276 O   0  0  0  0  0  0  0  0  0  0  0  0
   -3.4396   -0.3102   -0.3000 O   0  0  0  0  0  0  0  0  0  0  0  0
   -0.8122   -1.6005   -2.6740 C   0  0  2  0  0  0  0  0  0  0  0  0
    0.0428   -2.7355   -2.5893 O   0  0  0  0  0  0  0  0  0  0  0  0
   -0.2553    2.2419    0.0002 H   0  0  0  0  0  0  0  0  0  0  0  0
   -2.6115    2.0419   -1.0859 H   0  0  0  0  0  0  0  0  0  0  0  0
   -3.0243   -0.1379   -2.2816 H   0  0  0  0  0  0  0  0  0  0  0  0
   -1.9282   -2.1742   -0.9413 H   0  0  0  0  0  0  0  0  0  0  0  0
   -1.0622    1.6449    2.0050 H   0  0  0  0  0  0  0  0  0  0  0  0
   -0.7416    2.5274   -2.1782 H   0  0  0  0  0  0  0  0  0  0  0  0
   -4.1012    0.4030   -0.4250 H   0  0  0  0  0  0  0  0  0  0  0  0
   -0.2268   -0.7578   -3.0439 H   0  0  0  0  0  0  0  0  0  0  0  0
   -1.6042   -1.8243   -3.3910 H   0  0  0  0  0  0  0  0  0  0  0  0
    0.3694   -2.8691   -3.5041 H   0  0  0  0  0  0  0  0  0  0  0  0
  1  2  1  0  0  0  0 
  1  6  1  0  0  0  0 
  2  3  1  0  0  0  0 
  3  4  1  0  0  0  0 
  4  5  1  0  0  0  0 
  5  6  1  0  0  0  0 
  1  7  2  0  0  0  0 
  2  8  1  0  0  0  0 
  3  9  1  0  0  0  0 
  4 10  1  0  0  0  0 
  5 11  1  0  0  0  0 
 11 12  1  0  0  0  0 
  2 13  1  0  0  0  0 
  3 14  1  0  0  0  0 
  4 15  1  0  0  0  0 
  5 16  1  0  0  0  0 
  8 17  1  0  0  0  0 
  9 18  1  0  0  0  0 
 10 19  1  0  0  0  0 
 11 20  1  0  0  0  0 
 11 21  1  0  0  0  0 
 12 22  1  0  0  0  0 
M  END
> <cdk:Title>
gluconolactone

> <Conformer>
1

> <SuperDrugID>
SD003918

$$$$
