zidovudine
  CDK     0628171801

 32 33  0  0  0  0  0  0  0  0999 V2000
   -0.9866   -3.6135    3.1778 O   0  0  0  0  0  0  0  0  0  0  0  0
   -1.8972   -4.2785    2.6294 C   0  0  0  0  0  0  0  0  0  0  0  0
   -2.6653   -3.7857    1.6004 N   0  0  0  0  0  0  0  0  0  0  0  0
   -2.0889   -5.5315    3.1079 N   0  0  0  0  0  0  0  0  0  0  0  0
   -2.4141   -2.4523    1.0685 C   0  0  1  0  0  0  0  0  0  0  0  0
   -3.6467   -4.5941    1.0782 C   0  0  0  0  0  0  0  0  0  0  0  0
   -3.0382   -6.3502    2.6000 C   0  0  0  0  0  0  0  0  0  0  0  0
   -1.1245   -2.4030    0.2208 C   0  0  2  0  0  0  0  0  0  0  0  0
   -3.4671   -1.9196    0.2448 O   0  0  0  0  0  0  0  0  0  0  0  0
   -3.8742   -5.9046    1.5550 C   0  0  0  0  0  0  0  0  0  0  0  0
   -3.1426   -7.4960    3.0910 O   0  0  0  0  0  0  0  0  0  0  0  0
   -1.3735   -1.2545   -0.7700 C   0  0  1  0  0  0  0  0  0  0  0  0
   -2.9142   -1.2865   -0.9200 C   0  0  1  0  0  0  0  0  0  0  0  0
   -4.9310   -6.7755    0.9862 C   0  0  0  0  0  0  0  0  0  0  0  0
   -0.9326    0.0607   -0.2415 N   0  0  0  0  0  0  0  0  0  0  0  0
   -3.3926   -2.0374   -2.1897 C   0  0  1  0  0  0  0  0  0  0  0  0
    0.3122    0.2219   -0.3210 N   0  0  0  0  0  0  0  0  0  0  0  0
   -3.0078   -3.4094   -2.1619 O   0  0  0  0  0  0  0  0  0  0  0  0
    1.4030    0.3662   -0.3917 N   0  0  0  0  0  0  0  0  0  0  0  0
   -1.5293   -5.8530    3.8330 H   0  0  0  0  0  0  0  0  0  0  0  0
   -2.3225   -1.7447    1.9011 H   0  0  0  0  0  0  0  0  0  0  0  0
   -4.2345   -4.2587    0.3117 H   0  0  0  0  0  0  0  0  0  0  0  0
   -0.9902   -3.3418   -0.3247 H   0  0  0  0  0  0  0  0  0  0  0  0
   -0.2396   -2.2340    0.8379 H   0  0  0  0  0  0  0  0  0  0  0  0
   -0.8797   -1.4550   -1.7285 H   0  0  0  0  0  0  0  0  0  0  0  0
   -3.3116   -0.2683   -0.9742 H   0  0  0  0  0  0  0  0  0  0  0  0
   -4.4744   -7.6345    0.4906 H   0  0  0  0  0  0  0  0  0  0  0  0
   -5.5467   -6.2494    0.2552 H   0  0  0  0  0  0  0  0  0  0  0  0
   -5.5888   -7.1323    1.7807 H   0  0  0  0  0  0  0  0  0  0  0  0
   -4.4789   -1.9803   -2.2684 H   0  0  0  0  0  0  0  0  0  0  0  0
   -2.9683   -1.5646   -3.0784 H   0  0  0  0  0  0  0  0  0  0  0  0
   -3.3396   -3.7816   -3.0058 H   0  0  0  0  0  0  0  0  0  0  0  0
  1  2  2  0  0  0  0 
  2  3  1  0  0  0  0 
  2  4  1  0  0  0  0 
  3  6  1  0  0  0  0 
  4  7  1  0  0  0  0 
  5  3  1  0  0  0  0 
  5  8  1  0  0  0  0 
  5  9  1  0  0  0  0 
  6 10  2  0  0  0  0 
  7 10  1  0  0  0  0 
  7 11  2  0  0  0  0 
 12  8  1  0  0  0  0 
 13  9  1  0  0  0  0 
 10 14  1  0  0  0  0 
 12 13  1  0  0  0  0 
 12 15  1  0  0  0  0 
 13 16  1  0  0  0  0 
 15 17  1  0  0  0  0 
 16 18  1  0  0  0  0 
 17 19  3  0  0  0  0 
 20  4  1  0  0  0  0 
  5 21  1  0  0  0  0 
 22  6  1  0  0  0  0 
 23  8  1  0  0  0  0 
 24  8  1  0  0  0  0 
 12 25  1  0  0  0  0 
 13 26  1  0  0  0  0 
 27 14  1  0  0  0  0 
 28 14  1  0  0  0  0 
 29 14  1  0  0  0  0 
 30 16  1  0  0  0  0 
 31 16  1  0  0  0  0 
 32 18  1  0  0  0  0 
M  CHG  1  15  -1
M  CHG  1  17   1
M  END
> <cdk:Title>
zidovudine

> <Conformer>
1

> <SuperDrugID>
SD002578

$$$$
