travoprost
  CDK     0628171801

 70 71  0  0  0  0  0  0  0  0999 V2000
   -8.9949   -8.2306    0.7206 C   0  0  1  0  0  0  0  0  0  0  0  0
   -8.0779   -8.7767    1.7161 C   0  0  0  0  0  0  0  0  0  0  0  0
   -8.4867   -8.3944   -0.7538 C   0  0  2  0  0  0  0  0  0  0  0  0
   -8.0239  -10.0555    2.1326 C   0  0  0  0  0  0  0  0  0  0  0  0
   -7.2790   -7.4540   -1.1098 C   0  0  1  0  0  0  0  0  0  0  0  0
   -9.5480   -8.0498   -1.8309 C   0  0  1  0  0  0  0  0  0  0  0  0
   -8.8807  -11.1345    1.6575 C   0  0  1  0  0  0  0  0  0  0  0  0
   -6.1644   -8.1455   -1.7627 C   0  0  0  0  0  0  0  0  0  0  0  0
   -7.8665   -6.3108   -1.9956 C   0  0  1  0  0  0  0  0  0  0  0  0
  -10.8792   -8.4172   -1.4751 O   0  0  0  0  0  0  0  0  0  0  0  0
   -9.3895   -6.5396   -2.0608 C   0  0  1  0  0  0  0  0  0  0  0  0
   -8.5936  -12.5128    2.3125 C   0  0  1  0  0  0  0  0  0  0  0  0
   -4.9800   -7.5587   -2.0025 C   0  0  0  0  0  0  0  0  0  0  0  0
   -7.5607   -5.0220   -1.4641 O   0  0  0  0  0  0  0  0  0  0  0  0
   -9.5242  -13.6268    1.7615 C   0  0  2  0  0  0  0  0  0  0  0  0
   -3.8558   -8.2494   -2.6185 C   0  0  2  0  0  0  0  0  0  0  0  0
   -9.3451  -14.8925    2.4977 C   0  0  0  0  0  0  0  0  0  0  0  0
   -2.9001   -8.8288   -1.5475 C   0  0  2  0  0  0  0  0  0  0  0  0
   -3.1414   -7.3345   -3.4500 O   0  0  0  0  0  0  0  0  0  0  0  0
   -8.7159  -15.9359    1.8795 O   0  0  0  0  0  0  0  0  0  0  0  0
   -9.7762  -14.9925    3.6716 O   0  0  0  0  0  0  0  0  0  0  0  0
   -3.5881   -9.7902   -0.7184 O   0  0  0  0  0  0  0  0  0  0  0  0
   -8.3612  -17.2056    2.4536 C   0  0  2  0  0  0  0  0  0  0  0  0
   -2.7867  -10.3343    0.2505 C   0  0  0  0  0  0  0  0  0  0  0  0
   -7.1569  -17.0479    3.4190 C   0  0  0  0  0  0  0  0  0  0  0  0
   -8.0436  -18.1857    1.2987 C   0  0  0  0  0  0  0  0  0  0  0  0
   -2.0409  -11.5002   -0.0163 C   0  0  0  0  0  0  0  0  0  0  0  0
   -2.7207   -9.7434    1.5263 C   0  0  0  0  0  0  0  0  0  0  0  0
   -1.1966  -12.0741    0.9660 C   0  0  0  0  0  0  0  0  0  0  0  0
   -1.9013  -10.3061    2.5195 C   0  0  0  0  0  0  0  0  0  0  0  0
   -0.4057  -13.3043    0.6737 C   0  0  1  0  0  0  0  0  0  0  0  0
   -1.1507  -11.4632    2.2434 C   0  0  0  0  0  0  0  0  0  0  0  0
   -0.0480  -13.4092   -0.6503 F   0  0  0  0  0  0  0  0  0  0  0  0
    0.7745  -13.3594    1.3773 F   0  0  0  0  0  0  0  0  0  0  0  0
   -1.1543  -14.4063    1.0045 F   0  0  0  0  0  0  0  0  0  0  0  0
   -9.9710   -8.7038    0.8437 H   0  0  0  0  0  0  0  0  0  0  0  0
   -9.1423   -7.1679    0.9340 H   0  0  0  0  0  0  0  0  0  0  0  0
   -7.4299   -8.1417    2.1246 H   0  0  0  0  0  0  0  0  0  0  0  0
   -8.2328   -9.4503   -0.8873 H   0  0  0  0  0  0  0  0  0  0  0  0
   -7.3438  -10.2755    2.8279 H   0  0  0  0  0  0  0  0  0  0  0  0
   -6.8825   -7.0176   -0.1867 H   0  0  0  0  0  0  0  0  0  0  0  0
   -9.3024   -8.5755   -2.7602 H   0  0  0  0  0  0  0  0  0  0  0  0
   -9.9217  -10.8721    1.8577 H   0  0  0  0  0  0  0  0  0  0  0  0
   -8.7508  -11.2400    0.5796 H   0  0  0  0  0  0  0  0  0  0  0  0
   -6.2852   -9.0925   -2.0430 H   0  0  0  0  0  0  0  0  0  0  0  0
   -7.4700   -6.3503   -3.0160 H   0  0  0  0  0  0  0  0  0  0  0  0
  -11.4295   -8.1900   -2.2556 H   0  0  0  0  0  0  0  0  0  0  0  0
   -9.7997   -6.2375   -3.0278 H   0  0  0  0  0  0  0  0  0  0  0  0
   -9.8988   -5.9830   -1.2692 H   0  0  0  0  0  0  0  0  0  0  0  0
   -7.5541  -12.7948    2.1171 H   0  0  0  0  0  0  0  0  0  0  0  0
   -8.7233  -12.4243    3.3944 H   0  0  0  0  0  0  0  0  0  0  0  0
   -4.8477   -6.6116   -1.7244 H   0  0  0  0  0  0  0  0  0  0  0  0
   -7.9921   -4.3836   -2.0691 H   0  0  0  0  0  0  0  0  0  0  0  0
   -9.2967  -13.7808    0.7032 H   0  0  0  0  0  0  0  0  0  0  0  0
  -10.5726  -13.3250    1.8285 H   0  0  0  0  0  0  0  0  0  0  0  0
   -4.2020   -9.0624   -3.2651 H   0  0  0  0  0  0  0  0  0  0  0  0
   -2.5081   -8.0060   -0.9406 H   0  0  0  0  0  0  0  0  0  0  0  0
   -2.0649   -9.3110   -2.0640 H   0  0  0  0  0  0  0  0  0  0  0  0
   -2.3896   -7.8472   -3.8170 H   0  0  0  0  0  0  0  0  0  0  0  0
   -9.2165  -17.6084    3.0085 H   0  0  0  0  0  0  0  0  0  0  0  0
   -6.8949  -18.0168    3.8499 H   0  0  0  0  0  0  0  0  0  0  0  0
   -7.4113  -16.3696    4.2361 H   0  0  0  0  0  0  0  0  0  0  0  0
   -6.2899  -16.6413    2.8908 H   0  0  0  0  0  0  0  0  0  0  0  0
   -7.7963  -19.1725    1.6962 H   0  0  0  0  0  0  0  0  0  0  0  0
   -8.9168  -18.2849    0.6485 H   0  0  0  0  0  0  0  0  0  0  0  0
   -7.2038  -17.8242    0.7000 H   0  0  0  0  0  0  0  0  0  0  0  0
   -2.1191  -11.9259   -0.9434 H   0  0  0  0  0  0  0  0  0  0  0  0
   -3.2654   -8.9037    1.7309 H   0  0  0  0  0  0  0  0  0  0  0  0
   -1.8511   -9.8731    3.4441 H   0  0  0  0  0  0  0  0  0  0  0  0
   -0.5702  -11.8567    2.9892 H   0  0  0  0  0  0  0  0  0  0  0  0
  1  2  1  0  0  0  0 
  2  4  2  0  0  0  0 
  3  1  1  0  0  0  0 
  5  3  1  0  0  0  0 
  3  6  1  0  0  0  0 
  4  7  1  0  0  0  0 
  5  8  1  0  0  0  0 
  9  5  1  0  0  0  0 
  6 10  1  0  0  0  0 
  6 11  1  0  0  0  0 
  7 12  1  0  0  0  0 
  8 13  2  0  0  0  0 
  9 11  1  0  0  0  0 
  9 14  1  0  0  0  0 
 12 15  1  0  0  0  0 
 16 13  1  0  0  0  0 
 15 17  1  0  0  0  0 
 16 18  1  0  0  0  0 
 16 19  1  0  0  0  0 
 17 20  1  0  0  0  0 
 17 21  2  0  0  0  0 
 18 22  1  0  0  0  0 
 20 23  1  0  0  0  0 
 22 24  1  0  0  0  0 
 23 25  1  0  0  0  0 
 23 26  1  0  0  0  0 
 24 27  2  0  0  0  0 
 24 28  1  0  0  0  0 
 27 29  1  0  0  0  0 
 28 30  2  0  0  0  0 
 29 31  1  0  0  0  0 
 29 32  2  0  0  0  0 
 30 32  1  0  0  0  0 
 31 33  1  0  0  0  0 
 31 34  1  0  0  0  0 
 31 35  1  0  0  0  0 
  1 36  1  0  0  0  0 
  1 37  1  0  0  0  0 
  2 38  1  0  0  0  0 
  3 39  1  0  0  0  0 
  4 40  1  0  0  0  0 
  5 41  1  0  0  0  0 
  6 42  1  0  0  0  0 
  7 43  1  0  0  0  0 
  7 44  1  0  0  0  0 
  8 45  1  0  0  0  0 
  9 46  1  0  0  0  0 
 10 47  1  0  0  0  0 
 11 48  1  0  0  0  0 
 11 49  1  0  0  0  0 
 12 50  1  0  0  0  0 
 12 51  1  0  0  0  0 
 13 52  1  0  0  0  0 
 14 53  1  0  0  0  0 
 15 54  1  0  0  0  0 
 15 55  1  0  0  0  0 
 16 56  1  0  0  0  0 
 18 57  1  0  0  0  0 
 18 58  1  0  0  0  0 
 19 59  1  0  0  0  0 
 23 60  1  0  0  0  0 
 25 61  1  0  0  0  0 
 25 62  1  0  0  0  0 
 25 63  1  0  0  0  0 
 26 64  1  0  0  0  0 
 26 65  1  0  0  0  0 
 26 66  1  0  0  0  0 
 27 67  1  0  0  0  0 
 28 68  1  0  0  0  0 
 30 69  1  0  0  0  0 
 32 70  1  0  0  0  0 
M  END
> <cdk:Title>
travoprost

> <Conformer>
1

> <SuperDrugID>
SD002447

$$$$
