cangrelor
  CDK     0628171802

 69 71  0  0  0  0  0  0  0  0999 V2000
    4.3424    1.8777   -3.5451 N   0  0  0  0  0  0  0  0  0  0  0  0
    5.1397    2.9293   -3.2122 C   0  0  0  0  0  0  0  0  0  0  0  0
    6.0984    2.7873   -2.2499 N   0  0  0  0  0  0  0  0  0  0  0  0
    6.2952    1.6064   -1.5923 C   0  0  0  0  0  0  0  0  0  0  0  0
    5.4585    0.5293   -1.9322 C   0  0  0  0  0  0  0  0  0  0  0  0
    4.4886    0.6863   -2.9145 C   0  0  0  0  0  0  0  0  0  0  0  0
    5.4048   -0.7262   -1.4720 N   0  0  0  0  0  0  0  0  0  0  0  0
    3.8389   -0.4876   -3.0515 N   0  0  0  0  0  0  0  0  0  0  0  0
    4.4185   -1.3275   -2.1633 C   0  0  0  0  0  0  0  0  0  0  0  0
    2.7780   -0.8275   -3.9665 C   0  0  1  0  0  0  0  0  0  0  0  0
    1.5230   -1.4550   -3.3104 C   0  0  1  0  0  0  0  0  0  0  0  0
    0.4137   -1.0146   -4.2828 C   0  0  1  0  0  0  0  0  0  0  0  0
    0.8959    0.3905   -4.7007 C   0  0  2  0  0  0  0  0  0  0  0  0
    2.3285    0.3028   -4.7342 O   0  0  0  0  0  0  0  0  0  0  0  0
    0.4140    1.5281   -3.7548 C   0  0  2  0  0  0  0  0  0  0  0  0
    1.3587    2.6127   -3.7931 O   0  0  0  0  0  0  0  0  0  0  0  0
    1.6111   -2.9098   -3.2694 O   0  0  0  0  0  0  0  0  0  0  0  0
    0.3331   -1.8743   -5.4242 O   0  0  0  0  0  0  0  0  0  0  0  0
    4.9398    4.4347   -4.0811 S   0  0  0  0  0  0  0  0  0  0  0  0
    7.2461    1.4159   -0.6423 N   0  0  0  0  0  0  0  0  0  0  0  0
    8.1323    2.4129   -0.1419 C   0  0  2  0  0  0  0  0  0  0  0  0
    9.1006    1.7699    0.8751 C   0  0  2  0  0  0  0  0  0  0  0  0
   10.0287    3.0242    1.8135 S   0  0  0  0  0  0  0  0  0  0  0  0
   11.0414    2.0355    2.9568 C   0  0  0  0  0  0  0  0  0  0  0  0
    4.9247    5.7493   -2.8159 C   0  0  2  0  0  0  0  0  0  0  0  0
    4.8023    7.1476   -3.4710 C   0  0  2  0  0  0  0  0  0  0  0  0
    4.8109    8.3289   -2.4650 C   0  0  2  0  0  0  0  0  0  0  0  0
    4.6015    9.5128   -3.1322 F   0  0  0  0  0  0  0  0  0  0  0  0
    6.0180    8.4278   -1.8160 F   0  0  0  0  0  0  0  0  0  0  0  0
    3.8186    8.1986   -1.5234 F   0  0  0  0  0  0  0  0  0  0  0  0
    1.0659    3.8770   -2.8591 P   0  0  2  0  0  0  0  0  0  0  0  0
    1.9201    3.8227   -1.5067 O   0  0  0  0  0  0  0  0  0  0  0  0
   -0.4821    4.0324   -2.5408 O   0  0  0  0  0  0  0  0  0  0  0  0
    1.4981    5.0758   -3.5935 O   0  0  0  0  0  0  0  0  0  0  0  0
    1.6450    2.6736   -0.4239 P   0  0  1  0  0  0  0  0  0  0  0  0
    2.2490    3.2148    1.0973 C   0  0  2  0  0  0  0  0  0  0  0  0
    0.2129    2.3586   -0.3249 O   0  0  0  0  0  0  0  0  0  0  0  0
    2.4354    1.3686   -0.8578 O   0  0  0  0  0  0  0  0  0  0  0  0
    3.9628    3.3009    1.1845 P   0  0  1  0  0  0  0  0  0  0  0  0
    4.5414    4.2285    0.0345 O   0  0  0  0  0  0  0  0  0  0  0  0
    4.3858    3.9837    2.5584 O   0  0  0  0  0  0  0  0  0  0  0  0
    4.5916    1.9752    1.1032 O   0  0  0  0  0  0  0  0  0  0  0  0
    1.6766    2.1420    2.3728 Cl  0  0  0  0  0  0  0  0  0  0  0  0
    1.5794    4.8110    1.4243 Cl  0  0  0  0  0  0  0  0  0  0  0  0
    4.1595   -2.3070   -2.0235 H   0  0  0  0  0  0  0  0  0  0  0  0
    3.1891   -1.5403   -4.6878 H   0  0  0  0  0  0  0  0  0  0  0  0
    1.3455   -0.9537   -2.3204 H   0  0  0  0  0  0  0  0  0  0  0  0
   -0.5633   -0.9917   -3.7926 H   0  0  0  0  0  0  0  0  0  0  0  0
    0.5535    0.6263   -5.7131 H   0  0  0  0  0  0  0  0  0  0  0  0
    0.3077    1.1498   -2.7378 H   0  0  0  0  0  0  0  0  0  0  0  0
   -0.5691    1.8644   -4.0983 H   0  0  0  0  0  0  0  0  0  0  0  0
    2.2949   -3.0996   -2.5957 H   0  0  0  0  0  0  0  0  0  0  0  0
   -0.3712   -1.4861   -5.9865 H   0  0  0  0  0  0  0  0  0  0  0  0
    7.3162    0.5263   -0.2568 H   0  0  0  0  0  0  0  0  0  0  0  0
    7.5497    3.2021    0.3436 H   0  0  0  0  0  0  0  0  0  0  0  0
    8.7059    2.8483   -0.9647 H   0  0  0  0  0  0  0  0  0  0  0  0
    9.8078    1.1213    0.3525 H   0  0  0  0  0  0  0  0  0  0  0  0
    8.5389    1.1667    1.5910 H   0  0  0  0  0  0  0  0  0  0  0  0
   10.4191    1.3034    3.4737 H   0  0  0  0  0  0  0  0  0  0  0  0
   11.8275    1.5203    2.4027 H   0  0  0  0  0  0  0  0  0  0  0  0
   11.4924    2.7025    3.6911 H   0  0  0  0  0  0  0  0  0  0  0  0
    5.8413    5.6919   -2.2283 H   0  0  0  0  0  0  0  0  0  0  0  0
    4.0711    5.5857   -2.1599 H   0  0  0  0  0  0  0  0  0  0  0  0
    3.8698    7.1858   -4.0410 H   0  0  0  0  0  0  0  0  0  0  0  0
    5.6309    7.2841   -4.1715 H   0  0  0  0  0  0  0  0  0  0  0  0
   -0.7557    3.1822   -2.1404 H   0  0  0  0  0  0  0  0  0  0  0  0
    2.1465    1.1943   -1.7747 H   0  0  0  0  0  0  0  0  0  0  0  0
    4.3261    3.7639   -0.7993 H   0  0  0  0  0  0  0  0  0  0  0  0
    5.3560    4.1049    2.4839 H   0  0  0  0  0  0  0  0  0  0  0  0
  1  2  1  0  0  0  0 
  1  6  2  0  0  0  0 
  2  3  2  0  0  0  0 
  3  4  1  0  0  0  0 
  4  5  2  0  0  0  0 
  5  6  1  0  0  0  0 
  8  9  1  0  0  0  0 
  7  9  2  0  0  0  0 
  7  5  1  0  0  0  0 
  6  8  1  0  0  0  0 
 10  8  1  0  0  0  0 
 11 12  1  0  0  0  0 
 12 13  1  0  0  0  0 
 13 14  1  0  0  0  0 
 10 11  1  0  0  0  0 
 10 14  1  0  0  0  0 
 13 15  1  0  0  0  0 
 15 16  1  0  0  0  0 
 11 17  1  0  0  0  0 
 12 18  1  0  0  0  0 
  2 19  1  0  0  0  0 
  4 20  1  0  0  0  0 
 20 21  1  0  0  0  0 
 21 22  1  0  0  0  0 
 22 23  1  0  0  0  0 
 23 24  1  0  0  0  0 
 19 25  1  0  0  0  0 
 25 26  1  0  0  0  0 
 26 27  1  0  0  0  0 
 27 28  1  0  0  0  0 
 27 29  1  0  0  0  0 
 27 30  1  0  0  0  0 
 16 31  1  0  0  0  0 
 31 32  1  0  0  0  0 
 31 33  1  0  0  0  0 
 31 34  2  0  0  0  0 
 32 35  1  0  0  0  0 
 35 36  1  0  0  0  0 
 35 37  2  0  0  0  0 
 35 38  1  0  0  0  0 
 36 39  1  0  0  0  0 
 39 40  1  0  0  0  0 
 39 41  1  0  0  0  0 
 39 42  2  0  0  0  0 
 36 43  1  0  0  0  0 
 36 44  1  0  0  0  0 
  9 45  1  0  0  0  0 
 10 46  1  0  0  0  0 
 11 47  1  0  0  0  0 
 12 48  1  0  0  0  0 
 13 49  1  0  0  0  0 
 15 50  1  0  0  0  0 
 15 51  1  0  0  0  0 
 17 52  1  0  0  0  0 
 18 53  1  0  0  0  0 
 20 54  1  0  0  0  0 
 21 55  1  0  0  0  0 
 21 56  1  0  0  0  0 
 22 57  1  0  0  0  0 
 22 58  1  0  0  0  0 
 24 59  1  0  0  0  0 
 24 60  1  0  0  0  0 
 24 61  1  0  0  0  0 
 25 62  1  0  0  0  0 
 25 63  1  0  0  0  0 
 26 64  1  0  0  0  0 
 26 65  1  0  0  0  0 
 33 66  1  0  0  0  0 
 38 67  1  0  0  0  0 
 40 68  1  0  0  0  0 
 41 69  1  0  0  0  0 
M  END
> <cdk:Title>
cangrelor

> <Conformer>
1

> <SuperDrugID>
SD003871

$$$$
