ethisterone
  CDK     0628171801

 51 54  0  0  0  0  0  0  0  0999 V2000
   -6.4270   -1.2761    4.4539 C   0  0  0  0  0  0  0  0  0  0  0  0
   -5.0197   -0.9421    5.0971 C   0  0  2  0  0  0  0  0  0  0  0  0
   -3.8517   -1.8878    4.6588 C   0  0  2  0  0  0  0  0  0  0  0  0
   -5.0799   -1.2658    6.6453 C   0  0  1  0  0  0  0  0  0  0  0  0
   -4.6134    0.5137    4.6610 C   0  0  2  0  0  0  0  0  0  0  0  0
   -3.5749   -1.8735    3.1174 C   0  0  1  0  0  0  0  0  0  0  0  0
   -4.1742   -3.2258    5.3568 C   0  0  1  0  0  0  0  0  0  0  0  0
   -4.1758   -0.5636    7.4241 C   0  0  0  0  0  0  0  0  0  0  0  0
   -6.3499   -0.9837    7.2425 O   0  0  0  0  0  0  0  0  0  0  0  0
   -4.7928   -2.8056    6.7158 C   0  0  1  0  0  0  0  0  0  0  0  0
   -4.2556    0.6252    3.1447 C   0  0  2  0  0  0  0  0  0  0  0  0
   -3.1820   -0.4175    2.6602 C   0  0  2  0  0  0  0  0  0  0  0  0
   -2.4453   -2.8643    2.7246 C   0  0  1  0  0  0  0  0  0  0  0  0
   -3.3962    0.0401    8.1004 C   0  0  0  0  0  0  0  0  0  0  0  0
   -2.7643   -0.3149    1.1207 C   0  0  2  0  0  0  0  0  0  0  0  0
   -2.1483   -2.7964    1.2103 C   0  0  2  0  0  0  0  0  0  0  0  0
   -4.0041   -0.4177    0.1624 C   0  0  0  0  0  0  0  0  0  0  0  0
   -1.8379   -1.4327    0.7515 C   0  0  0  0  0  0  0  0  0  0  0  0
   -2.0635    1.0857    0.8842 C   0  0  1  0  0  0  0  0  0  0  0  0
   -0.7568   -1.2426   -0.0424 C   0  0  0  0  0  0  0  0  0  0  0  0
   -1.2864    1.1635   -0.4520 C   0  0  1  0  0  0  0  0  0  0  0  0
   -0.4216   -0.0224   -0.6097 C   0  0  0  0  0  0  0  0  0  0  0  0
    0.6144    0.0770   -1.3077 O   0  0  0  0  0  0  0  0  0  0  0  0
   -7.1704   -0.5434    4.7769 H   0  0  0  0  0  0  0  0  0  0  0  0
   -6.7923   -2.2591    4.7539 H   0  0  0  0  0  0  0  0  0  0  0  0
   -6.4154   -1.2560    3.3668 H   0  0  0  0  0  0  0  0  0  0  0  0
   -2.9197   -1.5389    5.1261 H   0  0  0  0  0  0  0  0  0  0  0  0
   -3.7398    0.8510    5.2225 H   0  0  0  0  0  0  0  0  0  0  0  0
   -5.4245    1.2089    4.8894 H   0  0  0  0  0  0  0  0  0  0  0  0
   -4.4793   -2.1924    2.5969 H   0  0  0  0  0  0  0  0  0  0  0  0
   -4.8901   -3.8009    4.7630 H   0  0  0  0  0  0  0  0  0  0  0  0
   -3.2780   -3.8355    5.5061 H   0  0  0  0  0  0  0  0  0  0  0  0
   -6.4997   -0.0244    7.1080 H   0  0  0  0  0  0  0  0  0  0  0  0
   -4.1154   -3.0771    7.5344 H   0  0  0  0  0  0  0  0  0  0  0  0
   -5.7200   -3.3647    6.8704 H   0  0  0  0  0  0  0  0  0  0  0  0
   -3.8856    1.6379    2.9749 H   0  0  0  0  0  0  0  0  0  0  0  0
   -5.1686    0.5185    2.5587 H   0  0  0  0  0  0  0  0  0  0  0  0
   -2.2763   -0.1764    3.2297 H   0  0  0  0  0  0  0  0  0  0  0  0
   -1.5305   -2.6396    3.2836 H   0  0  0  0  0  0  0  0  0  0  0  0
   -2.7455   -3.8873    2.9716 H   0  0  0  0  0  0  0  0  0  0  0  0
   -2.7944    0.5062    8.6225 H   0  0  0  0  0  0  0  0  0  0  0  0
   -3.0234   -3.1548    0.6637 H   0  0  0  0  0  0  0  0  0  0  0  0
   -1.3439   -3.5098    1.0061 H   0  0  0  0  0  0  0  0  0  0  0  0
   -3.6927   -0.5172   -0.8804 H   0  0  0  0  0  0  0  0  0  0  0  0
   -4.6235   -1.2812    0.4021 H   0  0  0  0  0  0  0  0  0  0  0  0
   -4.6335    0.4703    0.2260 H   0  0  0  0  0  0  0  0  0  0  0  0
   -2.7901    1.9021    0.9004 H   0  0  0  0  0  0  0  0  0  0  0  0
   -1.3440    1.2854    1.6836 H   0  0  0  0  0  0  0  0  0  0  0  0
   -0.1649   -2.0145   -0.2595 H   0  0  0  0  0  0  0  0  0  0  0  0
   -1.9869    1.2068   -1.2911 H   0  0  0  0  0  0  0  0  0  0  0  0
   -0.6888    2.0802   -0.4699 H   0  0  0  0  0  0  0  0  0  0  0  0
  2  1  1  0  0  0  0 
  2  3  1  0  0  0  0 
  2  4  1  0  0  0  0 
  2  5  1  0  0  0  0 
  3  6  1  0  0  0  0 
  3  7  1  0  0  0  0 
  4  8  1  0  0  0  0 
  4  9  1  0  0  0  0 
  4 10  1  0  0  0  0 
  5 11  1  0  0  0  0 
  6 12  1  0  0  0  0 
  6 13  1  0  0  0  0 
  7 10  1  0  0  0  0 
  8 14  3  0  0  0  0 
 12 11  1  0  0  0  0 
 12 15  1  0  0  0  0 
 13 16  1  0  0  0  0 
 15 17  1  0  0  0  0 
 15 18  1  0  0  0  0 
 15 19  1  0  0  0  0 
 16 18  1  0  0  0  0 
 18 20  2  0  0  0  0 
 19 21  1  0  0  0  0 
 20 22  1  0  0  0  0 
 21 22  1  0  0  0  0 
 22 23  2  0  0  0  0 
 24  1  1  0  0  0  0 
 25  1  1  0  0  0  0 
 26  1  1  0  0  0  0 
  3 27  1  0  0  0  0 
 28  5  1  0  0  0  0 
 29  5  1  0  0  0  0 
  6 30  1  0  0  0  0 
 31  7  1  0  0  0  0 
 32  7  1  0  0  0  0 
 33  9  1  0  0  0  0 
 34 10  1  0  0  0  0 
 35 10  1  0  0  0  0 
 36 11  1  0  0  0  0 
 37 11  1  0  0  0  0 
 12 38  1  0  0  0  0 
 39 13  1  0  0  0  0 
 40 13  1  0  0  0  0 
 41 14  1  0  0  0  0 
 42 16  1  0  0  0  0 
 43 16  1  0  0  0  0 
 44 17  1  0  0  0  0 
 45 17  1  0  0  0  0 
 46 17  1  0  0  0  0 
 47 19  1  0  0  0  0 
 48 19  1  0  0  0  0 
 49 20  1  0  0  0  0 
 50 21  1  0  0  0  0 
 51 21  1  0  0  0  0 
M  END
> <cdk:Title>
ethisterone

> <Conformer>
1

> <SuperDrugID>
SD000968

$$$$
