methyl nicotinate
  CDK     0628171801

 17 17  0  0  0  0  0  0  0  0999 V2000
   -0.2952   -0.2975   -1.1761 C   0  0  0  0  0  0  0  0  0  0  0  0
    0.1766   -0.1224    0.1653 O   0  0  0  0  0  0  0  0  0  0  0  0
   -0.4092    0.6316    1.1480 C   0  0  0  0  0  0  0  0  0  0  0  0
   -1.4539    1.2716    0.8759 O   0  0  0  0  0  0  0  0  0  0  0  0
    0.1524    0.6803    2.4541 C   0  0  0  0  0  0  0  0  0  0  0  0
   -0.4580    1.4032    3.5095 C   0  0  0  0  0  0  0  0  0  0  0  0
    0.1084    1.4213    4.7971 C   0  0  0  0  0  0  0  0  0  0  0  0
    1.2986    0.7143    5.0269 C   0  0  0  0  0  0  0  0  0  0  0  0
    1.8780    0.0301    4.0114 N   0  0  0  0  0  0  0  0  0  0  0  0
    1.3523   -0.0088    2.7601 C   0  0  0  0  0  0  0  0  0  0  0  0
   -0.3310    0.6620   -1.6950 H   0  0  0  0  0  0  0  0  0  0  0  0
    0.3845   -0.9633   -1.7102 H   0  0  0  0  0  0  0  0  0  0  0  0
   -1.2922   -0.7424   -1.1670 H   0  0  0  0  0  0  0  0  0  0  0  0
   -1.3275    1.9197    3.3567 H   0  0  0  0  0  0  0  0  0  0  0  0
   -0.3413    1.9337    5.5585 H   0  0  0  0  0  0  0  0  0  0  0  0
    1.7311    0.7093    5.9515 H   0  0  0  0  0  0  0  0  0  0  0  0
    1.8454   -0.5523    2.0501 H   0  0  0  0  0  0  0  0  0  0  0  0
  1  2  1  0  0  0  0 
  2  3  1  0  0  0  0 
  3  4  2  0  0  0  0 
  3  5  1  0  0  0  0 
  5  6  2  0  0  0  0 
  6  7  1  0  0  0  0 
  7  8  2  0  0  0  0 
  8  9  1  0  0  0  0 
  9 10  2  0  0  0  0 
  5 10  1  0  0  0  0 
  1 11  1  0  0  0  0 
  1 12  1  0  0  0  0 
  1 13  1  0  0  0  0 
  6 14  1  0  0  0  0 
  7 15  1  0  0  0  0 
  8 16  1  0  0  0  0 
 10 17  1  0  0  0  0 
M  END
> <cdk:Title>
methyl nicotinate

> <Conformer>
1

> <SuperDrugID>
SD002894

$$$$
