sincalide
  CDK     0628171802

140143  0  0  0  0  0  0  0  0999 V2000
   -3.9906    4.7206    1.7773 N   0  0  0  0  0  0  0  0  0  0  0  0
    0.9490   -2.1428    1.0004 S   0  0  2  0  0  0  0  0  0  0  0  0
   -2.1456    5.2023   -0.4336 N   0  0  0  0  0  0  0  0  0  0  0  0
    2.3692    2.1250    4.4830 N   0  0  0  0  0  0  0  0  0  0  0  0
    2.4401    3.0814    0.8982 N   0  0  0  0  0  0  0  0  0  0  0  0
    2.8989    4.2845   -1.5796 N   0  0  0  0  0  0  0  0  0  0  0  0
    1.3620    2.7853    9.0708 N   0  0  0  0  0  0  0  0  0  0  0  0
   -5.0054    7.2857    2.9061 N   0  0  2  0  0  0  0  0  0  0  0  0
   -5.7590    7.9006    3.2190 H   0  0  0  0  0  0  0  0  0  0  0  0
    0.2464    5.8685   -1.9235 N   0  0  0  0  0  0  0  0  0  0  0  0
    2.9142    0.4221    7.0521 N   0  0  0  0  0  0  0  0  0  0  0  0
    2.0226   -2.9664    1.8545 O   0  0  0  0  0  0  0  0  0  0  0  0
    0.8731   -2.7052   -0.4955 O   0  0  0  0  0  0  0  0  0  0  0  0
    1.4201   -0.5015    0.9940 O   0  0  0  0  0  0  0  0  0  0  0  0
   -2.8695    4.0758   -0.1588 C   0  0  0  0  0  0  0  0  0  0  0  0
   -0.5733   -2.3361    1.7670 O   0  0  0  0  0  0  0  0  0  0  0  0
   -2.8857    1.1455    1.5041 C   0  0  0  0  0  0  0  0  0  0  0  0
   -2.9678    0.1496    0.5034 C   0  0  0  0  0  0  0  0  0  0  0  0
   -2.1838   -1.0143    0.5869 C   0  0  0  0  0  0  0  0  0  0  0  0
   -1.2994   -1.1935    1.6677 C   0  0  0  0  0  0  0  0  0  0  0  0
   -3.7956    2.3198    1.5003 C   0  0  2  0  0  0  0  0  0  0  0  0
   -1.1932   -0.1976    2.6590 C   0  0  0  0  0  0  0  0  0  0  0  0
   -1.9726    0.9680    2.5705 C   0  0  0  0  0  0  0  0  0  0  0  0
   -3.1082    3.7075    1.2611 C   0  0  2  0  0  0  0  0  0  0  0  0
   -3.4243    3.4310   -1.0792 O   0  0  0  0  0  0  0  0  0  0  0  0
   -0.9864    6.2067   -2.3913 C   0  0  0  0  0  0  0  0  0  0  0  0
   -2.1763    8.1962   -0.1841 C   0  0  1  0  0  0  0  0  0  0  0  0
   -2.9231    7.3422   -1.2451 C   0  0  2  0  0  0  0  0  0  0  0  0
   -2.2443    5.9931   -1.6327 C   0  0  2  0  0  0  0  0  0  0  0  0
   -2.3060   10.3301    1.7347 C   0  0  0  0  0  0  0  0  0  0  0  0
   -3.1544    9.6651    0.2694 S   0  0  0  0  0  0  0  0  0  0  0  0
   -1.0959    6.7235   -3.5310 O   0  0  0  0  0  0  0  0  0  0  0  0
    3.7233    0.8630    6.0449 C   0  0  0  0  0  0  0  0  0  0  0  0
    3.7056    3.4051    6.0754 C   0  0  2  0  0  0  0  0  0  0  0  0
    4.9770    3.5631    6.8120 C   0  0  0  0  0  0  0  0  0  0  0  0
    5.2902    2.7257    7.8268 O   0  0  0  0  0  0  0  0  0  0  0  0
    5.7711    4.4936    6.5436 O   0  0  0  0  0  0  0  0  0  0  0  0
    3.5944    2.1019    5.2222 C   0  0  2  0  0  0  0  0  0  0  0  0
    4.7196    0.1298    5.8436 O   0  0  0  0  0  0  0  0  0  0  0  0
    2.1426    2.4781    3.1847 C   0  0  0  0  0  0  0  0  0  0  0  0
    5.4926    3.9665    2.7186 C   0  0  2  0  0  0  0  0  0  0  0  0
    3.9576    4.1768    2.3779 C   0  0  2  0  0  0  0  0  0  0  0  0
    3.1413    2.8499    2.1285 C   0  0  2  0  0  0  0  0  0  0  0  0
    8.1327    5.0463    2.8309 C   0  0  0  0  0  0  0  0  0  0  0  0
    6.4169    5.5145    2.4447 S   0  0  0  0  0  0  0  0  0  0  0  0
    0.9218    2.4448    2.9009 O   0  0  0  0  0  0  0  0  0  0  0  0
    2.5637    2.4467   -0.2982 C   0  0  0  0  0  0  0  0  0  0  0  0
    1.8512    2.3788   -2.7951 C   0  0  1  0  0  0  0  0  0  0  0  0
    0.7434    1.3958   -2.7560 C   0  0  0  0  0  0  0  0  0  0  0  0
    0.8394    0.0691   -2.3321 C   0  0  0  0  0  0  0  0  0  0  0  0
   -0.3666   -0.5181   -2.4182 N   0  0  0  0  0  0  0  0  0  0  0  0
   -1.2493    0.3698   -2.8916 C   0  0  0  0  0  0  0  0  0  0  0  0
   -0.5945    1.5800   -3.1239 C   0  0  0  0  0  0  0  0  0  0  0  0
   -1.3007    2.6848   -3.6425 C   0  0  0  0  0  0  0  0  0  0  0  0
   -2.6799    2.5381   -3.9153 C   0  0  0  0  0  0  0  0  0  0  0  0
   -3.3391    1.3132   -3.6597 C   0  0  0  0  0  0  0  0  0  0  0  0
   -2.6207    0.2130   -3.1489 C   0  0  0  0  0  0  0  0  0  0  0  0
    1.9970    3.1721   -1.4618 C   0  0  2  0  0  0  0  0  0  0  0  0
    3.2254    1.3907   -0.4289 O   0  0  0  0  0  0  0  0  0  0  0  0
   -4.1431    5.0531    3.0923 C   0  0  0  0  0  0  0  0  0  0  0  0
   -6.6483    5.4104    3.1938 C   0  0  2  0  0  0  0  0  0  0  0  0
   -7.7472    6.0840    3.9151 C   0  0  0  0  0  0  0  0  0  0  0  0
   -8.5448    5.4026    4.7706 O   0  0  0  0  0  0  0  0  0  0  0  0
   -7.9843    7.2994    3.7400 O   0  0  0  0  0  0  0  0  0  0  0  0
   -5.2284    5.9697    3.5225 C   0  0  2  0  0  0  0  0  0  0  0  0
   -3.3951    4.5572    3.9688 O   0  0  0  0  0  0  0  0  0  0  0  0
    2.6599    5.5435   -2.0283 C   0  0  0  0  0  0  0  0  0  0  0  0
    1.4338    6.0060   -2.7060 C   0  0  2  0  0  0  0  0  0  0  0  0
    3.6007    6.3555   -1.8717 O   0  0  0  0  0  0  0  0  0  0  0  0
    1.7609    1.5192    8.8348 C   0  0  0  0  0  0  0  0  0  0  0  0
    0.6568   -0.3044    7.4746 C   0  0  1  0  0  0  0  0  0  0  0  0
   -0.7697    0.0717    7.6760 C   0  0  0  0  0  0  0  0  0  0  0  0
   -1.4732    0.7570    6.6567 C   0  0  0  0  0  0  0  0  0  0  0  0
   -2.8252    1.1060    6.8259 C   0  0  0  0  0  0  0  0  0  0  0  0
   -3.4918    0.7751    8.0186 C   0  0  0  0  0  0  0  0  0  0  0  0
   -2.8069    0.0932    9.0400 C   0  0  0  0  0  0  0  0  0  0  0  0
   -1.4543   -0.2565    8.8704 C   0  0  0  0  0  0  0  0  0  0  0  0
    1.6373    0.9072    7.4882 C   0  0  2  0  0  0  0  0  0  0  0  0
    2.2354    0.8714    9.7957 O   0  0  0  0  0  0  0  0  0  0  0  0
   -4.5733    5.1692    1.1434 H   0  0  0  0  0  0  0  0  0  0  0  0
   -1.6064    5.5652    0.2855 H   0  0  0  0  0  0  0  0  0  0  0  0
    1.5741    1.8774    4.9745 H   0  0  0  0  0  0  0  0  0  0  0  0
    1.8496    3.8507    0.9063 H   0  0  0  0  0  0  0  0  0  0  0  0
    3.8029    4.1310   -1.2569 H   0  0  0  0  0  0  0  0  0  0  0  0
    0.9840    3.3217    8.3551 H   0  0  0  0  0  0  0  0  0  0  0  0
    1.4519    3.1654    9.9592 H   0  0  0  0  0  0  0  0  0  0  0  0
   -5.1162    7.1804    1.8952 H   0  0  0  0  0  0  0  0  0  0  0  0
    0.3193    5.5077   -1.0270 H   0  0  0  0  0  0  0  0  0  0  0  0
    3.2388   -0.3591    7.5280 H   0  0  0  0  0  0  0  0  0  0  0  0
    2.3613   -0.5158    0.7283 H   0  0  0  0  0  0  0  0  0  0  0  0
   -3.6142    0.2568   -0.2821 H   0  0  0  0  0  0  0  0  0  0  0  0
   -2.2646   -1.7346   -0.1341 H   0  0  0  0  0  0  0  0  0  0  0  0
   -4.2885    2.3163    2.4766 H   0  0  0  0  0  0  0  0  0  0  0  0
   -4.6020    2.1881    0.7743 H   0  0  0  0  0  0  0  0  0  0  0  0
   -0.5521   -0.3203    3.4470 H   0  0  0  0  0  0  0  0  0  0  0  0
   -1.8869    1.6781    3.3031 H   0  0  0  0  0  0  0  0  0  0  0  0
   -2.1494    3.7507    1.7866 H   0  0  0  0  0  0  0  0  0  0  0  0
   -2.0135    7.6150    0.7232 H   0  0  0  0  0  0  0  0  0  0  0  0
   -1.2089    8.5216   -0.5680 H   0  0  0  0  0  0  0  0  0  0  0  0
   -3.0638    7.9449   -2.1469 H   0  0  0  0  0  0  0  0  0  0  0  0
   -3.9198    7.1115   -0.8562 H   0  0  0  0  0  0  0  0  0  0  0  0
   -2.9277    5.5075   -2.3383 H   0  0  0  0  0  0  0  0  0  0  0  0
   -2.2315    9.5628    2.5065 H   0  0  0  0  0  0  0  0  0  0  0  0
   -1.3075   10.6742    1.4634 H   0  0  0  0  0  0  0  0  0  0  0  0
   -2.8828   11.1696    2.1236 H   0  0  0  0  0  0  0  0  0  0  0  0
    3.5772    4.2678    5.4204 H   0  0  0  0  0  0  0  0  0  0  0  0
    2.8936    3.4515    6.7993 H   0  0  0  0  0  0  0  0  0  0  0  0
    6.1256    2.8482    8.3236 H   0  0  0  0  0  0  0  0  0  0  0  0
    4.4149    2.0867    4.5074 H   0  0  0  0  0  0  0  0  0  0  0  0
    5.8907    3.2557    1.9323 H   0  0  0  0  0  0  0  0  0  0  0  0
    5.7425    3.7101    3.8192 H   0  0  0  0  0  0  0  0  0  0  0  0
    3.9300    4.8125    1.4847 H   0  0  0  0  0  0  0  0  0  0  0  0
    3.4921    4.7719    3.1645 H   0  0  0  0  0  0  0  0  0  0  0  0
    3.8232    2.0037    2.0111 H   0  0  0  0  0  0  0  0  0  0  0  0
    8.7966    5.8676    2.5629 H   0  0  0  0  0  0  0  0  0  0  0  0
    8.4156    4.1579    2.2652 H   0  0  0  0  0  0  0  0  0  0  0  0
    8.2258    4.8403    3.8975 H   0  0  0  0  0  0  0  0  0  0  0  0
    2.7910    1.8820   -3.0474 H   0  0  0  0  0  0  0  0  0  0  0  0
    1.6395    3.0749   -3.6058 H   0  0  0  0  0  0  0  0  0  0  0  0
    1.6909   -0.3911   -2.0063 H   0  0  0  0  0  0  0  0  0  0  0  0
   -0.5699   -1.4353   -2.1774 H   0  0  0  0  0  0  0  0  0  0  0  0
   -0.8329    3.5754   -3.8203 H   0  0  0  0  0  0  0  0  0  0  0  0
   -3.2104    3.3279   -4.2906 H   0  0  0  0  0  0  0  0  0  0  0  0
   -4.3416    1.2207   -3.8442 H   0  0  0  0  0  0  0  0  0  0  0  0
   -3.0845   -0.6793   -2.9670 H   0  0  0  0  0  0  0  0  0  0  0  0
    1.0011    3.5136   -1.1689 H   0  0  0  0  0  0  0  0  0  0  0  0
   -6.8488    5.4972    2.1228 H   0  0  0  0  0  0  0  0  0  0  0  0
   -6.6840    4.3493    3.4531 H   0  0  0  0  0  0  0  0  0  0  0  0
   -8.4447    4.4353    4.8847 H   0  0  0  0  0  0  0  0  0  0  0  0
   -5.1601    6.1147    4.6052 H   0  0  0  0  0  0  0  0  0  0  0  0
    1.5447    7.0595   -2.9780 H   0  0  0  0  0  0  0  0  0  0  0  0
    1.3301    5.4346   -3.6298 H   0  0  0  0  0  0  0  0  0  0  0  0
    0.9764   -1.0279    8.2317 H   0  0  0  0  0  0  0  0  0  0  0  0
    0.7324   -0.8193    6.5115 H   0  0  0  0  0  0  0  0  0  0  0  0
   -1.0051    1.0015    5.7809 H   0  0  0  0  0  0  0  0  0  0  0  0
   -3.3229    1.5978    6.0807 H   0  0  0  0  0  0  0  0  0  0  0  0
   -4.4741    1.0289    8.1427 H   0  0  0  0  0  0  0  0  0  0  0  0
   -3.2927   -0.1504    9.9058 H   0  0  0  0  0  0  0  0  0  0  0  0
   -0.9734   -0.7521    9.6253 H   0  0  0  0  0  0  0  0  0  0  0  0
    1.2523    1.6628    6.8070 H   0  0  0  0  0  0  0  0  0  0  0  0
  9  8  1  0  0  0  0 
 60  1  1  0  0  0  0 
 15  3  1  0  0  0  0 
 26 10  1  0  0  0  0 
 67  6  1  0  0  0  0 
 33 11  1  0  0  0  0 
 70  7  1  0  0  0  0 
 47  5  1  0  0  0  0 
 40  4  1  0  0  0  0 
 16  2  1  0  0  0  0 
  2 12  2  0  0  0  0 
  2 13  2  0  0  0  0 
  2 14  1  0  0  0  0 
 24  1  1  0  0  0  0 
 24 21  1  0  0  0  0 
 21 17  1  0  0  0  0 
 17 18  2  0  0  0  0 
 18 19  1  0  0  0  0 
 19 20  2  0  0  0  0 
 20 16  1  0  0  0  0 
 20 22  1  0  0  0  0 
 22 23  2  0  0  0  0 
 17 23  1  0  0  0  0 
 24 15  1  0  0  0  0 
 15 25  2  0  0  0  0 
 30 31  1  0  0  0  0 
 31 27  1  0  0  0  0 
 27 28  1  0  0  0  0 
 28 29  1  0  0  0  0 
 29  3  1  0  0  0  0 
 29 26  1  0  0  0  0 
 26 32  2  0  0  0  0 
 38  4  1  0  0  0  0 
 38 34  1  0  0  0  0 
 34 35  1  0  0  0  0 
 35 36  1  0  0  0  0 
 35 37  2  0  0  0  0 
 38 33  1  0  0  0  0 
 33 39  2  0  0  0  0 
 44 45  1  0  0  0  0 
 45 41  1  0  0  0  0 
 41 42  1  0  0  0  0 
 42 43  1  0  0  0  0 
 43  5  1  0  0  0  0 
 43 40  1  0  0  0  0 
 40 46  2  0  0  0  0 
 58  6  1  0  0  0  0 
 58 48  1  0  0  0  0 
 48 49  1  0  0  0  0 
 49 50  2  0  0  0  0 
 50 51  1  0  0  0  0 
 51 52  1  0  0  0  0 
 52 53  1  0  0  0  0 
 49 53  1  0  0  0  0 
 53 54  2  0  0  0  0 
 54 55  1  0  0  0  0 
 55 56  2  0  0  0  0 
 56 57  1  0  0  0  0 
 52 57  2  0  0  0  0 
 58 47  1  0  0  0  0 
 47 59  2  0  0  0  0 
 65  8  1  0  0  0  0 
 65 61  1  0  0  0  0 
 61 62  1  0  0  0  0 
 62 63  1  0  0  0  0 
 62 64  2  0  0  0  0 
 65 60  1  0  0  0  0 
 60 66  2  0  0  0  0 
 10 68  1  0  0  0  0 
 68 67  1  0  0  0  0 
 67 69  2  0  0  0  0 
 78 11  1  0  0  0  0 
 78 71  1  0  0  0  0 
 71 72  1  0  0  0  0 
 72 73  2  0  0  0  0 
 73 74  1  0  0  0  0 
 74 75  2  0  0  0  0 
 75 76  1  0  0  0  0 
 76 77  2  0  0  0  0 
 72 77  1  0  0  0  0 
 78 70  1  0  0  0  0 
 70 79  2  0  0  0  0 
  1 80  1  0  0  0  0 
  3 81  1  0  0  0  0 
  4 82  1  0  0  0  0 
  5 83  1  0  0  0  0 
  6 84  1  0  0  0  0 
  7 85  1  0  0  0  0 
  7 86  1  0  0  0  0 
  8 87  1  0  0  0  0 
 10 88  1  0  0  0  0 
 11 89  1  0  0  0  0 
 14 90  1  0  0  0  0 
 18 91  1  0  0  0  0 
 19 92  1  0  0  0  0 
 21 93  1  0  0  0  0 
 21 94  1  0  0  0  0 
 22 95  1  0  0  0  0 
 23 96  1  0  0  0  0 
 24 97  1  0  0  0  0 
 27 98  1  0  0  0  0 
 27 99  1  0  0  0  0 
 28100  1  0  0  0  0 
 28101  1  0  0  0  0 
 29102  1  0  0  0  0 
 30103  1  0  0  0  0 
 30104  1  0  0  0  0 
 30105  1  0  0  0  0 
 34106  1  0  0  0  0 
 34107  1  0  0  0  0 
 36108  1  0  0  0  0 
 38109  1  0  0  0  0 
 41110  1  0  0  0  0 
 41111  1  0  0  0  0 
 42112  1  0  0  0  0 
 42113  1  0  0  0  0 
 43114  1  0  0  0  0 
 44115  1  0  0  0  0 
 44116  1  0  0  0  0 
 44117  1  0  0  0  0 
 48118  1  0  0  0  0 
 48119  1  0  0  0  0 
 50120  1  0  0  0  0 
 51121  1  0  0  0  0 
 54122  1  0  0  0  0 
 55123  1  0  0  0  0 
 56124  1  0  0  0  0 
 57125  1  0  0  0  0 
 58126  1  0  0  0  0 
 61127  1  0  0  0  0 
 61128  1  0  0  0  0 
 63129  1  0  0  0  0 
 65130  1  0  0  0  0 
 68131  1  0  0  0  0 
 68132  1  0  0  0  0 
 71133  1  0  0  0  0 
 71134  1  0  0  0  0 
 73135  1  0  0  0  0 
 74136  1  0  0  0  0 
 75137  1  0  0  0  0 
 76138  1  0  0  0  0 
 77139  1  0  0  0  0 
 78140  1  0  0  0  0 
M  END
> <cdk:Title>
sincalide

> <Conformer>
1

> <SuperDrugID>
SD003670

$$$$
