eldecalcitol
  CDK     0628171802

 85 87  0  0  0  0  0  0  0  0999 V2000
   -0.3752   -5.5742   -3.8276 C   0  0  2  0  0  0  0  0  0  0  0  0
    1.0816   -5.5824   -3.2681 C   0  0  1  0  0  0  0  0  0  0  0  0
    1.8446   -4.2560   -3.5467 C   0  0  1  0  0  0  0  0  0  0  0  0
    1.0329   -3.0748   -3.1805 C   0  0  0  0  0  0  0  0  0  0  0  0
   -0.2655   -3.0530   -3.8975 C   0  0  1  0  0  0  0  0  0  0  0  0
   -1.1675   -4.2621   -3.4505 C   0  0  1  0  0  0  0  0  0  0  0  0
   -1.2285   -1.8428   -3.8833 C   0  0  1  0  0  0  0  0  0  0  0  0
   -2.5772   -2.4379   -4.3460 C   0  0  2  0  0  0  0  0  0  0  0  0
   -2.4671   -3.9995   -4.3076 C   0  0  2  0  0  0  0  0  0  0  0  0
   -1.4835   -4.2360   -1.9046 C   0  0  0  0  0  0  0  0  0  0  0  0
   -0.0181   -3.1626   -4.9651 H   0  0  0  0  0  0  0  0  0  0  0  0
   -3.8264   -4.7055   -3.9169 C   0  0  2  0  0  0  0  0  0  0  0  0
   -3.7495   -6.2612   -3.8166 C   0  0  0  0  0  0  0  0  0  0  0  0
   -5.0213   -4.2900   -4.8461 C   0  0  2  0  0  0  0  0  0  0  0  0
   -4.9207   -4.7423   -6.3342 C   0  0  1  0  0  0  0  0  0  0  0  0
   -6.2111   -4.4018   -7.1326 C   0  0  1  0  0  0  0  0  0  0  0  0
   -6.3130   -4.9914   -8.5799 C   0  0  2  0  0  0  0  0  0  0  0  0
   -7.6647   -4.5717   -9.2309 C   0  0  0  0  0  0  0  0  0  0  0  0
   -6.3142   -6.4183   -8.4944 O   0  0  0  0  0  0  0  0  0  0  0  0
   -5.1280   -4.5710   -9.4960 C   0  0  0  0  0  0  0  0  0  0  0  0
    1.3589   -2.1487   -2.2434 C   0  0  0  0  0  0  0  0  0  0  0  0
    2.3923   -2.1901   -1.3442 C   0  0  0  0  0  0  0  0  0  0  0  0
    2.5918   -1.3685   -0.2824 C   0  0  0  0  0  0  0  0  0  0  0  0
    3.7309   -1.5832    0.6260 C   0  0  2  0  0  0  0  0  0  0  0  0
    4.6329   -0.3211    0.7000 C   0  0  2  0  0  0  0  0  0  0  0  0
    3.7899    0.9643    0.9896 C   0  0  2  0  0  0  0  0  0  0  0  0
    2.5294    1.0212    0.0662 C   0  0  1  0  0  0  0  0  0  0  0  0
    1.8192   -0.2731    0.0483 C   0  0  0  0  0  0  0  0  0  0  0  0
    0.5249   -0.4084    0.3919 C   0  0  0  0  0  0  0  0  0  0  0  0
    1.7316    2.1355    0.4781 O   0  0  0  0  0  0  0  0  0  0  0  0
    5.3549   -0.1893   -0.5248 O   0  0  0  0  0  0  0  0  0  0  0  0
    3.4364    0.9268    2.0271 H   0  0  0  0  0  0  0  0  0  0  0  0
    4.5444    2.1815    0.7792 O   0  0  0  0  0  0  0  0  0  0  0  0
    5.5905    2.4681    1.7306 C   0  0  1  0  0  0  0  0  0  0  0  0
    6.2655    3.8206    1.4040 C   0  0  1  0  0  0  0  0  0  0  0  0
    6.8845    3.8758   -0.0125 C   0  0  2  0  0  0  0  0  0  0  0  0
    7.5924    5.0978   -0.1889 O   0  0  0  0  0  0  0  0  0  0  0  0
   -2.2395   -4.3240   -5.3284 H   0  0  0  0  0  0  0  0  0  0  0  0
   -0.8908   -6.4648   -3.4644 H   0  0  0  0  0  0  0  0  0  0  0  0
   -0.3104   -5.6644   -4.9166 H   0  0  0  0  0  0  0  0  0  0  0  0
    1.0587   -5.7565   -2.1894 H   0  0  0  0  0  0  0  0  0  0  0  0
    1.6322   -6.4145   -3.7174 H   0  0  0  0  0  0  0  0  0  0  0  0
    2.8097   -4.3122   -3.0498 H   0  0  0  0  0  0  0  0  0  0  0  0
    2.0807   -4.2018   -4.6149 H   0  0  0  0  0  0  0  0  0  0  0  0
   -1.3510   -1.4188   -2.8843 H   0  0  0  0  0  0  0  0  0  0  0  0
   -0.8845   -1.0551   -4.5587 H   0  0  0  0  0  0  0  0  0  0  0  0
   -2.8119   -2.1036   -5.3602 H   0  0  0  0  0  0  0  0  0  0  0  0
   -3.3666   -2.0716   -3.6837 H   0  0  0  0  0  0  0  0  0  0  0  0
   -2.0941   -3.3740   -1.6329 H   0  0  0  0  0  0  0  0  0  0  0  0
   -0.5765   -4.1924   -1.3026 H   0  0  0  0  0  0  0  0  0  0  0  0
   -2.0227   -5.1295   -1.5965 H   0  0  0  0  0  0  0  0  0  0  0  0
   -4.0954   -4.3540   -2.9163 H   0  0  0  0  0  0  0  0  0  0  0  0
   -3.1889   -6.5768   -2.9392 H   0  0  0  0  0  0  0  0  0  0  0  0
   -3.2798   -6.6895   -4.7036 H   0  0  0  0  0  0  0  0  0  0  0  0
   -4.7472   -6.6942   -3.7145 H   0  0  0  0  0  0  0  0  0  0  0  0
   -5.1390   -3.2048   -4.8328 H   0  0  0  0  0  0  0  0  0  0  0  0
   -5.9438   -4.6895   -4.4145 H   0  0  0  0  0  0  0  0  0  0  0  0
   -4.0736   -4.2362   -6.8026 H   0  0  0  0  0  0  0  0  0  0  0  0
   -4.7484   -5.8194   -6.3859 H   0  0  0  0  0  0  0  0  0  0  0  0
   -7.0643   -4.7791   -6.5603 H   0  0  0  0  0  0  0  0  0  0  0  0
   -6.3017   -3.3122   -7.1812 H   0  0  0  0  0  0  0  0  0  0  0  0
   -8.5066   -4.8772   -8.6055 H   0  0  0  0  0  0  0  0  0  0  0  0
   -7.7836   -5.0446  -10.2084 H   0  0  0  0  0  0  0  0  0  0  0  0
   -7.7099   -3.4888   -9.3650 H   0  0  0  0  0  0  0  0  0  0  0  0
   -6.4528   -6.7283   -9.4147 H   0  0  0  0  0  0  0  0  0  0  0  0
   -5.2625   -4.9727  -10.5031 H   0  0  0  0  0  0  0  0  0  0  0  0
   -4.1824   -4.9558   -9.1109 H   0  0  0  0  0  0  0  0  0  0  0  0
   -5.0619   -3.4836   -9.5620 H   0  0  0  0  0  0  0  0  0  0  0  0
    0.7569   -1.3718   -2.1628 H   0  0  0  0  0  0  0  0  0  0  0  0
    3.0595   -2.9101   -1.4556 H   0  0  0  0  0  0  0  0  0  0  0  0
    4.3554   -2.4343    0.3349 H   0  0  0  0  0  0  0  0  0  0  0  0
    3.3476   -1.8099    1.6272 H   0  0  0  0  0  0  0  0  0  0  0  0
    5.3599   -0.4742    1.5011 H   0  0  0  0  0  0  0  0  0  0  0  0
    2.8524    1.2389   -0.9565 H   0  0  0  0  0  0  0  0  0  0  0  0
   -0.0259    0.3736    0.6521 H   0  0  0  0  0  0  0  0  0  0  0  0
    0.0793   -1.2966    0.3944 H   0  0  0  0  0  0  0  0  0  0  0  0
    0.9985    2.1830   -0.1707 H   0  0  0  0  0  0  0  0  0  0  0  0
    5.9735    0.5559   -0.3784 H   0  0  0  0  0  0  0  0  0  0  0  0
    5.1712    2.5273    2.7387 H   0  0  0  0  0  0  0  0  0  0  0  0
    6.3556    1.6885    1.7173 H   0  0  0  0  0  0  0  0  0  0  0  0
    5.5279    4.6209    1.5036 H   0  0  0  0  0  0  0  0  0  0  0  0
    7.0541    3.9988    2.1405 H   0  0  0  0  0  0  0  0  0  0  0  0
    6.1020    3.8157   -0.7711 H   0  0  0  0  0  0  0  0  0  0  0  0
    7.5793    3.0465   -0.1567 H   0  0  0  0  0  0  0  0  0  0  0  0
    7.9523    5.0536   -1.0998 H   0  0  0  0  0  0  0  0  0  0  0  0
  1  2  1  0  0  0  0 
  1  6  1  0  0  0  0 
  2  3  1  0  0  0  0 
  3  4  1  0  0  0  0 
  4  5  1  0  0  0  0 
  5  6  1  0  0  0  0 
  7  8  1  0  0  0  0 
  8  9  1  0  0  0  0 
  5  7  1  0  0  0  0 
  6  9  1  0  0  0  0 
  6 10  1  0  0  0  0 
  5 11  1  0  0  0  0 
  9 12  1  0  0  0  0 
 12 13  1  0  0  0  0 
 12 14  1  0  0  0  0 
 14 15  1  0  0  0  0 
 15 16  1  0  0  0  0 
 16 17  1  0  0  0  0 
 17 18  1  0  0  0  0 
 17 19  1  0  0  0  0 
 17 20  1  0  0  0  0 
  4 21  2  0  0  0  0 
 21 22  1  0  0  0  0 
 22 23  2  0  0  0  0 
 24 25  1  0  0  0  0 
 25 26  1  0  0  0  0 
 26 27  1  0  0  0  0 
 27 28  1  0  0  0  0 
 23 24  1  0  0  0  0 
 23 28  1  0  0  0  0 
 28 29  2  0  0  0  0 
 27 30  1  0  0  0  0 
 25 31  1  0  0  0  0 
 26 32  1  0  0  0  0 
 26 33  1  0  0  0  0 
 33 34  1  0  0  0  0 
 34 35  1  0  0  0  0 
 35 36  1  0  0  0  0 
 36 37  1  0  0  0  0 
  9 38  1  0  0  0  0 
  1 39  1  0  0  0  0 
  1 40  1  0  0  0  0 
  2 41  1  0  0  0  0 
  2 42  1  0  0  0  0 
  3 43  1  0  0  0  0 
  3 44  1  0  0  0  0 
  7 45  1  0  0  0  0 
  7 46  1  0  0  0  0 
  8 47  1  0  0  0  0 
  8 48  1  0  0  0  0 
 10 49  1  0  0  0  0 
 10 50  1  0  0  0  0 
 10 51  1  0  0  0  0 
 12 52  1  0  0  0  0 
 13 53  1  0  0  0  0 
 13 54  1  0  0  0  0 
 13 55  1  0  0  0  0 
 14 56  1  0  0  0  0 
 14 57  1  0  0  0  0 
 15 58  1  0  0  0  0 
 15 59  1  0  0  0  0 
 16 60  1  0  0  0  0 
 16 61  1  0  0  0  0 
 18 62  1  0  0  0  0 
 18 63  1  0  0  0  0 
 18 64  1  0  0  0  0 
 19 65  1  0  0  0  0 
 20 66  1  0  0  0  0 
 20 67  1  0  0  0  0 
 20 68  1  0  0  0  0 
 21 69  1  0  0  0  0 
 22 70  1  0  0  0  0 
 24 71  1  0  0  0  0 
 24 72  1  0  0  0  0 
 25 73  1  0  0  0  0 
 27 74  1  0  0  0  0 
 29 75  1  0  0  0  0 
 29 76  1  0  0  0  0 
 30 77  1  0  0  0  0 
 31 78  1  0  0  0  0 
 34 79  1  0  0  0  0 
 34 80  1  0  0  0  0 
 35 81  1  0  0  0  0 
 35 82  1  0  0  0  0 
 36 83  1  0  0  0  0 
 36 84  1  0  0  0  0 
 37 85  1  0  0  0  0 
M  END
> <cdk:Title>
eldecalcitol

> <Conformer>
1

> <SuperDrugID>
SD003926

$$$$
