bifonazole
  CDK     0628171801

 42 45  0  0  0  0  0  0  0  0999 V2000
    2.3566    3.7301   -0.0636 C   0  0  1  0  0  0  0  0  0  0  0  0
    1.4345    2.6399   -0.5378 C   0  0  0  0  0  0  0  0  0  0  0  0
    2.4638    3.8330    1.4326 C   0  0  0  0  0  0  0  0  0  0  0  0
    0.0343    2.8522   -0.5777 C   0  0  0  0  0  0  0  0  0  0  0  0
    1.9164    1.3667   -0.9303 C   0  0  0  0  0  0  0  0  0  0  0  0
    2.6524    5.0956    2.0533 C   0  0  0  0  0  0  0  0  0  0  0  0
    2.4223    2.6885    2.2694 C   0  0  0  0  0  0  0  0  0  0  0  0
   -0.8504    1.8259   -0.9639 C   0  0  0  0  0  0  0  0  0  0  0  0
    1.0382    0.3449   -1.3317 C   0  0  0  0  0  0  0  0  0  0  0  0
    2.7701    5.2116    3.4518 C   0  0  0  0  0  0  0  0  0  0  0  0
    2.5331    2.7989    3.6666 C   0  0  0  0  0  0  0  0  0  0  0  0
   -0.3604    0.5518   -1.3346 C   0  0  0  0  0  0  0  0  0  0  0  0
    2.7041    4.0616    4.2575 C   0  0  0  0  0  0  0  0  0  0  0  0
   -1.2367   -0.5164   -1.6777 C   0  0  0  0  0  0  0  0  0  0  0  0
   -2.2468   -0.9402   -0.7792 C   0  0  0  0  0  0  0  0  0  0  0  0
   -1.0828   -1.2114   -2.9025 C   0  0  0  0  0  0  0  0  0  0  0  0
   -3.0567   -2.0515   -1.0833 C   0  0  0  0  0  0  0  0  0  0  0  0
   -1.8994   -2.3158   -3.2094 C   0  0  0  0  0  0  0  0  0  0  0  0
   -2.8796   -2.7426   -2.2957 C   0  0  0  0  0  0  0  0  0  0  0  0
    3.6509    3.6986   -0.7115 N   0  0  0  0  0  0  0  0  0  0  0  0
    3.9249    4.1907   -1.9388 C   0  0  0  0  0  0  0  0  0  0  0  0
    5.2102    3.9890   -2.2763 N   0  0  0  0  0  0  0  0  0  0  0  0
    5.7678    3.3468   -1.2414 C   0  0  0  0  0  0  0  0  0  0  0  0
    4.8046    3.1655   -0.2612 C   0  0  0  0  0  0  0  0  0  0  0  0
    1.8949    4.6672   -0.3959 H   0  0  0  0  0  0  0  0  0  0  0  0
   -0.3556    3.7641   -0.3245 H   0  0  0  0  0  0  0  0  0  0  0  0
    2.9166    1.1589   -0.9147 H   0  0  0  0  0  0  0  0  0  0  0  0
    2.7098    5.9463    1.4866 H   0  0  0  0  0  0  0  0  0  0  0  0
    2.3147    1.7543    1.8707 H   0  0  0  0  0  0  0  0  0  0  0  0
   -1.8559    2.0197   -0.9818 H   0  0  0  0  0  0  0  0  0  0  0  0
    1.4346   -0.5592   -1.6051 H   0  0  0  0  0  0  0  0  0  0  0  0
    2.8998    6.1306    3.8831 H   0  0  0  0  0  0  0  0  0  0  0  0
    2.4845    1.9605    4.2497 H   0  0  0  0  0  0  0  0  0  0  0  0
    2.7796    4.1428    5.2730 H   0  0  0  0  0  0  0  0  0  0  0  0
   -2.3878   -0.4577    0.1136 H   0  0  0  0  0  0  0  0  0  0  0  0
   -0.3714   -0.9196   -3.5793 H   0  0  0  0  0  0  0  0  0  0  0  0
   -3.7702   -2.3620   -0.4208 H   0  0  0  0  0  0  0  0  0  0  0  0
   -1.7777   -2.8103   -4.0957 H   0  0  0  0  0  0  0  0  0  0  0  0
   -3.4618   -3.5550   -2.5131 H   0  0  0  0  0  0  0  0  0  0  0  0
    3.2468    4.6599   -2.5427 H   0  0  0  0  0  0  0  0  0  0  0  0
    6.7401    3.0408   -1.1892 H   0  0  0  0  0  0  0  0  0  0  0  0
    4.9569    2.6982    0.6360 H   0  0  0  0  0  0  0  0  0  0  0  0
  1  2  1  0  0  0  0 
  1  3  1  0  0  0  0 
  2  4  2  0  0  0  0 
  2  5  1  0  0  0  0 
  3  6  2  0  0  0  0 
  3  7  1  0  0  0  0 
  4  8  1  0  0  0  0 
  5  9  2  0  0  0  0 
  6 10  1  0  0  0  0 
  7 11  2  0  0  0  0 
  8 12  2  0  0  0  0 
  9 12  1  0  0  0  0 
 10 13  2  0  0  0  0 
 11 13  1  0  0  0  0 
 12 14  1  0  0  0  0 
 14 15  2  0  0  0  0 
 14 16  1  0  0  0  0 
 15 17  1  0  0  0  0 
 16 18  2  0  0  0  0 
 17 19  2  0  0  0  0 
 18 19  1  0  0  0  0 
  1 20  1  0  0  0  0 
 21 22  2  0  0  0  0 
 22 23  1  0  0  0  0 
 23 24  2  0  0  0  0 
 20 21  1  0  0  0  0 
 20 24  1  0  0  0  0 
  1 25  1  0  0  0  0 
  4 26  1  0  0  0  0 
  5 27  1  0  0  0  0 
  6 28  1  0  0  0  0 
  7 29  1  0  0  0  0 
  8 30  1  0  0  0  0 
  9 31  1  0  0  0  0 
 10 32  1  0  0  0  0 
 11 33  1  0  0  0  0 
 13 34  1  0  0  0  0 
 15 35  1  0  0  0  0 
 16 36  1  0  0  0  0 
 17 37  1  0  0  0  0 
 18 38  1  0  0  0  0 
 19 39  1  0  0  0  0 
 21 40  1  0  0  0  0 
 23 41  1  0  0  0  0 
 24 42  1  0  0  0  0 
M  END
> <cdk:Title>
bifonazole

> <Conformer>
1

> <SuperDrugID>
SD000315

$$$$
