pildralazine
  CDK     0628171801

 29 29  0  0  0  0  0  0  0  0999 V2000
   -0.0263   -1.3328    1.7441 N   0  0  0  0  0  0  0  0  0  0  0  0
   -0.7895   -0.9319    0.5690 C   0  0  1  0  0  0  0  0  0  0  0  0
   -0.3601   -0.7496    3.0280 C   0  0  0  0  0  0  0  0  0  0  0  0
    1.0323   -2.2321    1.6326 C   0  0  0  0  0  0  0  0  0  0  0  0
   -0.1221    0.2297   -0.2226 C   0  0  2  0  0  0  0  0  0  0  0  0
    2.0184   -2.4510    2.6291 C   0  0  0  0  0  0  0  0  0  0  0  0
    1.1755   -2.9671    0.4930 N   0  0  0  0  0  0  0  0  0  0  0  0
   -0.9461    0.6452   -1.4650 C   0  0  0  0  0  0  0  0  0  0  0  0
    1.1859   -0.1319   -0.6620 O   0  0  0  0  0  0  0  0  0  0  0  0
    3.0623   -3.3680    2.4042 C   0  0  0  0  0  0  0  0  0  0  0  0
    2.1394   -3.8204    0.2742 N   0  0  0  0  0  0  0  0  0  0  0  0
    3.1175   -4.0633    1.1835 C   0  0  0  0  0  0  0  0  0  0  0  0
    4.1234   -4.9337    0.9319 N   0  0  0  0  0  0  0  0  0  0  0  0
    4.1616   -5.6733   -0.1924 N   0  0  2  0  0  0  0  0  0  0  0  0
   -0.9421   -1.7802   -0.1035 H   0  0  0  0  0  0  0  0  0  0  0  0
   -1.7975   -0.6206    0.8538 H   0  0  0  0  0  0  0  0  0  0  0  0
   -0.4867   -1.5356    3.7767 H   0  0  0  0  0  0  0  0  0  0  0  0
   -1.2862   -0.1742    3.0142 H   0  0  0  0  0  0  0  0  0  0  0  0
    0.4344   -0.0758    3.3535 H   0  0  0  0  0  0  0  0  0  0  0  0
   -0.0297    1.1006    0.4314 H   0  0  0  0  0  0  0  0  0  0  0  0
    1.9948   -1.9452    3.5179 H   0  0  0  0  0  0  0  0  0  0  0  0
   -0.4223    1.4203   -2.0283 H   0  0  0  0  0  0  0  0  0  0  0  0
   -1.9156    1.0410   -1.1587 H   0  0  0  0  0  0  0  0  0  0  0  0
   -1.1064   -0.2090   -2.1254 H   0  0  0  0  0  0  0  0  0  0  0  0
    1.7027   -0.2716    0.1578 H   0  0  0  0  0  0  0  0  0  0  0  0
    3.7712   -3.5218    3.1261 H   0  0  0  0  0  0  0  0  0  0  0  0
    4.8431   -5.0283    1.5780 H   0  0  0  0  0  0  0  0  0  0  0  0
    5.0250   -6.2185   -0.1642 H   0  0  0  0  0  0  0  0  0  0  0  0
    4.2474   -5.0202   -0.9743 H   0  0  0  0  0  0  0  0  0  0  0  0
  1  2  1  0  0  0  0 
  1  3  1  0  0  0  0 
  1  4  1  0  0  0  0 
  5  2  1  0  0  0  0 
  4  6  2  0  0  0  0 
  4  7  1  0  0  0  0 
  5  8  1  0  0  0  0 
  5  9  1  0  0  0  0 
  6 10  1  0  0  0  0 
  7 11  2  0  0  0  0 
 10 12  2  0  0  0  0 
 11 12  1  0  0  0  0 
 12 13  1  0  0  0  0 
 13 14  1  0  0  0  0 
 15  2  1  0  0  0  0 
 16  2  1  0  0  0  0 
 17  3  1  0  0  0  0 
 18  3  1  0  0  0  0 
 19  3  1  0  0  0  0 
 20  5  1  0  0  0  0 
 21  6  1  0  0  0  0 
 22  8  1  0  0  0  0 
 23  8  1  0  0  0  0 
 24  8  1  0  0  0  0 
 25  9  1  0  0  0  0 
 26 10  1  0  0  0  0 
 27 13  1  0  0  0  0 
 28 14  1  0  0  0  0 
 29 14  1  0  0  0  0 
M  END
> <cdk:Title>
pildralazine

> <Conformer>
1

> <SuperDrugID>
SD002992

$$$$
