efonidipine
  CDK     0628171802

 83 87  0  0  0  0  0  0  0  0999 V2000
    4.3813    2.5086   -5.5371 C   0  0  0  0  0  0  0  0  0  0  0  0
    5.1517    3.3157   -6.3281 O   0  0  0  0  0  0  0  0  0  0  0  0
    3.1314    2.6031   -5.5471 O   0  0  0  0  0  0  0  0  0  0  0  0
    5.0229    1.5355   -4.7168 C   0  0  0  0  0  0  0  0  0  0  0  0
    4.7628    4.2801   -7.3183 C   0  0  1  0  0  0  0  0  0  0  0  0
    4.7668    1.4038   -3.3143 C   0  0  0  0  0  0  0  0  0  0  0  0
    5.9547    0.6454   -5.3143 C   0  0  0  0  0  0  0  0  0  0  0  0
    5.2273    3.7370   -8.6947 C   0  0  1  0  0  0  0  0  0  0  0  0
    5.4460    0.4048   -2.5416 C   0  0  0  0  0  0  0  0  0  0  0  0
    3.8632    2.3135   -2.6928 C   0  0  0  0  0  0  0  0  0  0  0  0
    6.3440    0.6399   -6.7449 C   0  0  0  0  0  0  0  0  0  0  0  0
    6.5428   -0.2965   -4.5482 N   0  0  0  0  0  0  0  0  0  0  0  0
    5.1751    4.6714   -9.8075 N   0  0  0  0  0  0  0  0  0  0  0  0
    6.3437   -0.4653   -3.2224 C   0  0  0  0  0  0  0  0  0  0  0  0
    5.2358    0.2518   -0.8166 P   0  0  0  0  0  0  0  0  0  0  0  0
    2.5484    1.9182   -2.3558 C   0  0  0  0  0  0  0  0  0  0  0  0
    4.2729    3.6372   -2.4256 C   0  0  0  0  0  0  0  0  0  0  0  0
    3.9690    5.4320  -10.0775 C   0  0  2  0  0  0  0  0  0  0  0  0
    6.2632    4.7782  -10.6559 C   0  0  0  0  0  0  0  0  0  0  0  0
    7.1292   -1.5664   -2.6116 C   0  0  0  0  0  0  0  0  0  0  0  0
    6.1029    1.6622   -0.5414 O   0  0  0  0  0  0  0  0  0  0  0  0
    4.0007    0.8817    0.0899 O   0  0  0  0  0  0  0  0  0  0  0  0
    6.2969   -0.5466    0.1682 O   0  0  0  0  0  0  0  0  0  0  0  0
    1.6356    2.8122   -1.7343 C   0  0  0  0  0  0  0  0  0  0  0  0
    3.3867    4.5431   -1.8227 C   0  0  0  0  0  0  0  0  0  0  0  0
    2.8135    4.5453  -10.3887 C   0  0  0  0  0  0  0  0  0  0  0  0
    6.7535    3.6318  -11.3281 C   0  0  0  0  0  0  0  0  0  0  0  0
    6.9124    6.0161  -10.8809 C   0  0  0  0  0  0  0  0  0  0  0  0
    3.5709    0.0914    1.2213 C   0  0  1  0  0  0  0  0  0  0  0  0
    5.7318   -1.2329    1.3041 C   0  0  2  0  0  0  0  0  0  0  0  0
    0.3864    2.4289   -1.4031 N   0  0  0  0  0  0  0  0  0  0  0  0
    2.0877    4.1326   -1.4765 C   0  0  0  0  0  0  0  0  0  0  0  0
    1.6980    4.4562   -9.5218 C   0  0  0  0  0  0  0  0  0  0  0  0
    2.8198    3.7604  -11.5673 C   0  0  0  0  0  0  0  0  0  0  0  0
    7.8509    3.7151  -12.2048 C   0  0  0  0  0  0  0  0  0  0  0  0
    8.0075    6.1062  -11.7633 C   0  0  0  0  0  0  0  0  0  0  0  0
    4.7159   -0.4086    2.1670 C   0  0  2  0  0  0  0  0  0  0  0  0
    0.0101    1.3263   -1.5016 O   0  0  0  0  0  0  0  0  0  0  0  0
   -0.4860    3.2413   -0.9571 O   0  0  0  0  0  0  0  0  0  0  0  0
    0.6338    3.5808   -9.8079 C   0  0  0  0  0  0  0  0  0  0  0  0
    1.7527    2.8906  -11.8571 C   0  0  0  0  0  0  0  0  0  0  0  0
    8.4710    4.9573  -12.4292 C   0  0  0  0  0  0  0  0  0  0  0  0
    0.6645    2.7934  -10.9720 C   0  0  0  0  0  0  0  0  0  0  0  0
    4.1126   -1.3343    3.2763 C   0  0  0  0  0  0  0  0  0  0  0  0
    5.4242    0.8033    2.8528 C   0  0  0  0  0  0  0  0  0  0  0  0
    3.6819    4.4380   -7.3170 H   0  0  0  0  0  0  0  0  0  0  0  0
    5.2557    5.2304   -7.1010 H   0  0  0  0  0  0  0  0  0  0  0  0
    6.2487    3.3650   -8.5656 H   0  0  0  0  0  0  0  0  0  0  0  0
    4.6130    2.8668   -8.9399 H   0  0  0  0  0  0  0  0  0  0  0  0
    7.0052   -0.1946   -6.9842 H   0  0  0  0  0  0  0  0  0  0  0  0
    5.4580    0.5605   -7.3748 H   0  0  0  0  0  0  0  0  0  0  0  0
    6.8818    1.5543   -6.9858 H   0  0  0  0  0  0  0  0  0  0  0  0
    4.5305   -0.8656   -0.9935 H   0  0  0  0  0  0  0  0  0  0  0  0
    2.2554    0.9613   -2.5690 H   0  0  0  0  0  0  0  0  0  0  0  0
    5.2179    3.9502   -2.6688 H   0  0  0  0  0  0  0  0  0  0  0  0
    4.0910    6.1130  -10.9257 H   0  0  0  0  0  0  0  0  0  0  0  0
    3.7595    6.0707   -9.2158 H   0  0  0  0  0  0  0  0  0  0  0  0
    7.8120   -1.1649   -1.8643 H   0  0  0  0  0  0  0  0  0  0  0  0
    7.7337   -2.0965   -3.3540 H   0  0  0  0  0  0  0  0  0  0  0  0
    6.4635   -2.2904   -2.1404 H   0  0  0  0  0  0  0  0  0  0  0  0
    7.0382    1.4219   -0.7086 H   0  0  0  0  0  0  0  0  0  0  0  0
    3.6867    5.5032   -1.6362 H   0  0  0  0  0  0  0  0  0  0  0  0
    6.3051    2.7240  -11.1847 H   0  0  0  0  0  0  0  0  0  0  0  0
    6.5927    6.8588  -10.3981 H   0  0  0  0  0  0  0  0  0  0  0  0
    2.8783    0.7137    1.7933 H   0  0  0  0  0  0  0  0  0  0  0  0
    2.9907   -0.7599    0.8505 H   0  0  0  0  0  0  0  0  0  0  0  0
    6.5721   -1.5433    1.9294 H   0  0  0  0  0  0  0  0  0  0  0  0
    5.2613   -2.1522    0.9448 H   0  0  0  0  0  0  0  0  0  0  0  0
    1.4731    4.8168   -1.0290 H   0  0  0  0  0  0  0  0  0  0  0  0
    1.6517    5.0252   -8.6732 H   0  0  0  0  0  0  0  0  0  0  0  0
    3.6017    3.8147  -12.2251 H   0  0  0  0  0  0  0  0  0  0  0  0
    8.1963    2.8742  -12.6774 H   0  0  0  0  0  0  0  0  0  0  0  0
    8.4687    7.0067  -11.9188 H   0  0  0  0  0  0  0  0  0  0  0  0
   -0.1613    3.5172   -9.1686 H   0  0  0  0  0  0  0  0  0  0  0  0
    1.7690    2.3264  -12.7094 H   0  0  0  0  0  0  0  0  0  0  0  0
    9.2613    5.0233  -13.0740 H   0  0  0  0  0  0  0  0  0  0  0  0
   -0.1035    2.1506  -11.1745 H   0  0  0  0  0  0  0  0  0  0  0  0
    3.6090   -2.1967    2.8321 H   0  0  0  0  0  0  0  0  0  0  0  0
    3.3813   -0.7926    3.8815 H   0  0  0  0  0  0  0  0  0  0  0  0
    4.8958   -1.7087    3.9410 H   0  0  0  0  0  0  0  0  0  0  0  0
    5.8576    1.4771    2.1136 H   0  0  0  0  0  0  0  0  0  0  0  0
    4.7109    1.3754    3.4521 H   0  0  0  0  0  0  0  0  0  0  0  0
    6.2288    0.4617    3.5093 H   0  0  0  0  0  0  0  0  0  0  0  0
  1  2  1  0  0  0  0 
  1  3  2  0  0  0  0 
  1  4  1  0  0  0  0 
  2  5  1  0  0  0  0 
  6  4  2  0  0  0  0 
  4  7  1  0  0  0  0 
  5  8  1  0  0  0  0 
  6  9  1  0  0  0  0 
  6 10  1  0  0  0  0 
  7 11  1  0  0  0  0 
  7 12  2  0  0  0  0 
  8 13  1  0  0  0  0 
  9 14  2  0  0  0  0 
  9 15  1  0  0  0  0 
 10 16  2  0  0  0  0 
 10 17  1  0  0  0  0 
 12 14  1  0  0  0  0 
 13 18  1  0  0  0  0 
 13 19  1  0  0  0  0 
 14 20  1  0  0  0  0 
 15 21  1  0  0  0  0 
 15 22  1  0  0  0  0 
 15 23  1  0  0  0  0 
 16 24  1  0  0  0  0 
 17 25  2  0  0  0  0 
 18 26  1  0  0  0  0 
 19 27  2  0  0  0  0 
 19 28  1  0  0  0  0 
 22 29  1  0  0  0  0 
 23 30  1  0  0  0  0 
 24 31  1  0  0  0  0 
 24 32  2  0  0  0  0 
 25 32  1  0  0  0  0 
 26 33  2  0  0  0  0 
 26 34  1  0  0  0  0 
 27 35  1  0  0  0  0 
 28 36  2  0  0  0  0 
 29 37  1  0  0  0  0 
 30 37  1  0  0  0  0 
 31 38  2  0  0  0  0 
 31 39  1  0  0  0  0 
 33 40  1  0  0  0  0 
 34 41  2  0  0  0  0 
 35 42  2  0  0  0  0 
 36 42  1  0  0  0  0 
 40 43  2  0  0  0  0 
 41 43  1  0  0  0  0 
 37 44  1  0  0  0  0 
 37 45  1  0  0  0  0 
 46  5  1  0  0  0  0 
 47  5  1  0  0  0  0 
 48  8  1  0  0  0  0 
 49  8  1  0  0  0  0 
 50 11  1  0  0  0  0 
 51 11  1  0  0  0  0 
 52 11  1  0  0  0  0 
 53 15  1  0  0  0  0 
 54 16  1  0  0  0  0 
 55 17  1  0  0  0  0 
 56 18  1  0  0  0  0 
 57 18  1  0  0  0  0 
 58 20  1  0  0  0  0 
 59 20  1  0  0  0  0 
 60 20  1  0  0  0  0 
 61 21  1  0  0  0  0 
 62 25  1  0  0  0  0 
 63 27  1  0  0  0  0 
 64 28  1  0  0  0  0 
 65 29  1  0  0  0  0 
 66 29  1  0  0  0  0 
 67 30  1  0  0  0  0 
 68 30  1  0  0  0  0 
 69 32  1  0  0  0  0 
 70 33  1  0  0  0  0 
 71 34  1  0  0  0  0 
 72 35  1  0  0  0  0 
 73 36  1  0  0  0  0 
 74 40  1  0  0  0  0 
 75 41  1  0  0  0  0 
 76 42  1  0  0  0  0 
 77 43  1  0  0  0  0 
 78 44  1  0  0  0  0 
 79 44  1  0  0  0  0 
 80 44  1  0  0  0  0 
 81 45  1  0  0  0  0 
 82 45  1  0  0  0  0 
 83 45  1  0  0  0  0 
M  CHG  1  31   1
M  CHG  1  39  -1
M  END
> <cdk:Title>
efonidipine

> <Conformer>
1

> <SuperDrugID>
SD000880

$$$$
