clobetasol propionate
  CDK     0628171801

 64 67  0  0  0  0  0  0  0  0999 V2000
   -1.6229    2.5620    0.1111 O   0  0  0  0  0  0  0  0  0  0  0  0
   -1.0096    3.5478    0.8425 C   0  0  0  0  0  0  0  0  0  0  0  0
   -1.1584    1.7990   -1.0364 C   0  0  1  0  0  0  0  0  0  0  0  0
   -1.7566    4.1945    1.9410 C   0  0  1  0  0  0  0  0  0  0  0  0
    0.1775    3.8796    0.6133 O   0  0  0  0  0  0  0  0  0  0  0  0
    0.1057    1.0926   -0.6034 C   0  0  0  0  0  0  0  0  0  0  0  0
   -2.3096    0.7875   -1.4607 C   0  0  2  0  0  0  0  0  0  0  0  0
   -1.1194    2.8254   -2.2563 C   0  0  1  0  0  0  0  0  0  0  0  0
   -1.8391    5.7569    1.7193 C   0  0  0  0  0  0  0  0  0  0  0  0
    0.2398    0.4057    0.7058 C   0  0  2  0  0  0  0  0  0  0  0  0
    1.0873    0.9793   -1.3728 O   0  0  0  0  0  0  0  0  0  0  0  0
   -1.7287   -0.2911   -2.4600 C   0  0  0  0  0  0  0  0  0  0  0  0
   -3.3392    1.7753   -2.1041 C   0  0  1  0  0  0  0  0  0  0  0  0
   -3.0663    0.0305   -0.3060 C   0  0  2  0  0  0  0  0  0  0  0  0
    0.0986    2.8705   -3.2280 C   0  0  0  0  0  0  0  0  0  0  0  0
   -2.4567    2.6282   -3.0399 C   0  0  2  0  0  0  0  0  0  0  0  0
    1.6994    0.8952    1.5623 Cl  0  0  0  0  0  0  0  0  0  0  0  0
   -4.6247    1.0862   -2.6799 C   0  0  1  0  0  0  0  0  0  0  0  0
   -4.3884   -0.6824   -0.7556 C   0  0  1  0  0  0  0  0  0  0  0  0
   -5.3796    0.2489   -1.5624 C   0  0  1  0  0  0  0  0  0  0  0  0
   -5.5971    2.1214   -3.3326 C   0  0  1  0  0  0  0  0  0  0  0  0
   -4.0715   -1.8910   -1.4367 O   0  0  0  0  0  0  0  0  0  0  0  0
   -5.8069    1.1577   -0.6005 F   0  0  0  0  0  0  0  0  0  0  0  0
   -6.7108   -0.4364   -2.1362 C   0  0  2  0  0  0  0  0  0  0  0  0
   -6.9005    1.4612   -3.8451 C   0  0  2  0  0  0  0  0  0  0  0  0
   -6.4712   -1.5709   -3.2016 C   0  0  0  0  0  0  0  0  0  0  0  0
   -7.5256    0.6408   -2.7982 C   0  0  0  0  0  0  0  0  0  0  0  0
   -7.4600   -1.1084   -1.0432 C   0  0  0  0  0  0  0  0  0  0  0  0
   -8.7991    0.8959   -2.4200 C   0  0  0  0  0  0  0  0  0  0  0  0
   -8.7268   -0.8065   -0.7206 C   0  0  0  0  0  0  0  0  0  0  0  0
   -9.4124    0.1794   -1.4050 C   0  0  0  0  0  0  0  0  0  0  0  0
  -10.6010    0.4310   -1.0988 O   0  0  0  0  0  0  0  0  0  0  0  0
   -2.8336    3.8471    1.8523 H   0  0  0  0  0  0  0  0  0  0  0  0
   -1.2036    3.8565    2.9092 H   0  0  0  0  0  0  0  0  0  0  0  0
   -1.1564    3.8431   -1.8517 H   0  0  0  0  0  0  0  0  0  0  0  0
   -2.4912    6.1931    2.4759 H   0  0  0  0  0  0  0  0  0  0  0  0
   -0.8476    6.2065    1.8208 H   0  0  0  0  0  0  0  0  0  0  0  0
   -2.2464    5.9948    0.7345 H   0  0  0  0  0  0  0  0  0  0  0  0
    0.2735   -0.6714    0.5431 H   0  0  0  0  0  0  0  0  0  0  0  0
   -0.6033    0.6188    1.3615 H   0  0  0  0  0  0  0  0  0  0  0  0
   -1.1043   -1.0040   -1.9213 H   0  0  0  0  0  0  0  0  0  0  0  0
   -1.1130    0.1533   -3.2343 H   0  0  0  0  0  0  0  0  0  0  0  0
   -2.4977   -0.8559   -2.9758 H   0  0  0  0  0  0  0  0  0  0  0  0
   -3.7056    2.4715   -1.3356 H   0  0  0  0  0  0  0  0  0  0  0  0
   -3.3252    0.7295    0.4922 H   0  0  0  0  0  0  0  0  0  0  0  0
   -2.4046   -0.7113    0.1463 H   0  0  0  0  0  0  0  0  0  0  0  0
    1.0061    3.1649   -2.6963 H   0  0  0  0  0  0  0  0  0  0  0  0
    0.2668    1.9114   -3.7149 H   0  0  0  0  0  0  0  0  0  0  0  0
   -0.0771    3.6163   -4.0084 H   0  0  0  0  0  0  0  0  0  0  0  0
   -2.3069    2.1023   -3.9881 H   0  0  0  0  0  0  0  0  0  0  0  0
   -2.9247    3.5919   -3.2610 H   0  0  0  0  0  0  0  0  0  0  0  0
   -4.3061    0.4173   -3.4795 H   0  0  0  0  0  0  0  0  0  0  0  0
   -4.8884   -1.0154    0.1575 H   0  0  0  0  0  0  0  0  0  0  0  0
   -5.8570    2.9010   -2.6084 H   0  0  0  0  0  0  0  0  0  0  0  0
   -5.1073    2.6107   -4.1781 H   0  0  0  0  0  0  0  0  0  0  0  0
   -3.5646   -2.4211   -0.7854 H   0  0  0  0  0  0  0  0  0  0  0  0
   -6.6762    0.8374   -4.7132 H   0  0  0  0  0  0  0  0  0  0  0  0
   -7.5562    2.2630   -4.2030 H   0  0  0  0  0  0  0  0  0  0  0  0
   -5.7704   -1.2666   -3.9777 H   0  0  0  0  0  0  0  0  0  0  0  0
   -6.0771   -2.4853   -2.7540 H   0  0  0  0  0  0  0  0  0  0  0  0
   -7.4097   -1.8435   -3.6950 H   0  0  0  0  0  0  0  0  0  0  0  0
   -7.0166   -1.8317   -0.5255 H   0  0  0  0  0  0  0  0  0  0  0  0
   -9.3223    1.6178   -2.8652 H   0  0  0  0  0  0  0  0  0  0  0  0
   -9.1766   -1.2999    0.0165 H   0  0  0  0  0  0  0  0  0  0  0  0
  1  2  1  0  0  0  0 
  2  4  1  0  0  0  0 
  2  5  2  0  0  0  0 
  3  1  1  0  0  0  0 
  3  6  1  0  0  0  0 
  7  3  1  0  0  0  0 
  3  8  1  0  0  0  0 
  4  9  1  0  0  0  0 
  6 10  1  0  0  0  0 
  6 11  2  0  0  0  0 
  7 12  1  0  0  0  0 
 13  7  1  0  0  0  0 
  7 14  1  0  0  0  0 
  8 15  1  0  0  0  0 
  8 16  1  0  0  0  0 
 10 17  1  0  0  0  0 
 13 16  1  0  0  0  0 
 18 13  1  0  0  0  0 
 19 14  1  0  0  0  0 
 20 18  1  0  0  0  0 
 18 21  1  0  0  0  0 
 20 19  1  0  0  0  0 
 19 22  1  0  0  0  0 
 20 23  1  0  0  0  0 
 20 24  1  0  0  0  0 
 21 25  1  0  0  0  0 
 24 26  1  0  0  0  0 
 24 27  1  0  0  0  0 
 24 28  1  0  0  0  0 
 25 27  1  0  0  0  0 
 27 29  2  0  0  0  0 
 28 30  2  0  0  0  0 
 29 31  1  0  0  0  0 
 30 31  1  0  0  0  0 
 31 32  2  0  0  0  0 
 33  4  1  0  0  0  0 
 34  4  1  0  0  0  0 
  8 35  1  0  0  0  0 
 36  9  1  0  0  0  0 
 37  9  1  0  0  0  0 
 38  9  1  0  0  0  0 
 39 10  1  0  0  0  0 
 40 10  1  0  0  0  0 
 41 12  1  0  0  0  0 
 42 12  1  0  0  0  0 
 43 12  1  0  0  0  0 
 13 44  1  0  0  0  0 
 45 14  1  0  0  0  0 
 46 14  1  0  0  0  0 
 47 15  1  0  0  0  0 
 48 15  1  0  0  0  0 
 49 15  1  0  0  0  0 
 50 16  1  0  0  0  0 
 51 16  1  0  0  0  0 
 18 52  1  0  0  0  0 
 19 53  1  0  0  0  0 
 54 21  1  0  0  0  0 
 55 21  1  0  0  0  0 
 56 22  1  0  0  0  0 
 57 25  1  0  0  0  0 
 58 25  1  0  0  0  0 
 59 26  1  0  0  0  0 
 60 26  1  0  0  0  0 
 61 26  1  0  0  0  0 
 62 28  1  0  0  0  0 
 63 29  1  0  0  0  0 
 64 30  1  0  0  0  0 
M  END
> <cdk:Title>
clobetasol propionate

> <Conformer>
1

> <SuperDrugID>
SD003572

$$$$
