clopenthixol
  CDK     0628171801

 52 55  0  0  0  0  0  0  0  0999 V2000
    0.2224    2.5458   -1.4014 C   0  0  0  0  0  0  0  0  0  0  0  0
    1.3568    2.4708   -2.2281 C   0  0  0  0  0  0  0  0  0  0  0  0
    2.4404    1.6545   -1.8631 C   0  0  0  0  0  0  0  0  0  0  0  0
    2.3822    0.9095   -0.6699 C   0  0  0  0  0  0  0  0  0  0  0  0
    1.2677    1.0103    0.2070 C   0  0  0  0  0  0  0  0  0  0  0  0
    0.1741    1.8129   -0.1992 C   0  0  0  0  0  0  0  0  0  0  0  0
    3.6456   -0.2687   -0.3072 S   0  0  0  0  0  0  0  0  0  0  0  0
    2.7179   -1.5022    0.5559 C   0  0  0  0  0  0  0  0  0  0  0  0
    1.5701   -1.1086    1.2945 C   0  0  0  0  0  0  0  0  0  0  0  0
    1.2442    0.2605    1.3981 C   0  0  0  0  0  0  0  0  0  0  0  0
    3.0973   -2.8548    0.4761 C   0  0  0  0  0  0  0  0  0  0  0  0
    2.3198   -3.8404    1.1086 C   0  0  0  0  0  0  0  0  0  0  0  0
    1.1623   -3.4776    1.8228 C   0  0  0  0  0  0  0  0  0  0  0  0
    0.7943   -2.1201    1.9168 C   0  0  0  0  0  0  0  0  0  0  0  0
    1.0330    0.7858    2.6292 C   0  0  0  0  0  0  0  0  0  0  0  0
    0.8646    2.1847    3.0122 C   0  0  2  0  0  0  0  0  0  0  0  0
    2.2128    2.9452    3.1885 C   0  0  2  0  0  0  0  0  0  0  0  0
    2.8363    3.4925    1.9349 N   0  0  2  0  0  0  0  0  0  0  0  0
    4.9563    4.4211    0.8872 C   0  0  2  0  0  0  0  0  0  0  0  0
    4.2751    3.8599    2.1620 C   0  0  1  0  0  0  0  0  0  0  0  0
    2.0716    4.6320    1.3239 C   0  0  1  0  0  0  0  0  0  0  0  0
    2.7547    5.1396    0.0293 C   0  0  2  0  0  0  0  0  0  0  0  0
    4.1749    5.5358    0.2634 N   0  0  1  0  0  0  0  0  0  0  0  0
    4.3735    6.8965    0.8612 C   0  0  2  0  0  0  0  0  0  0  0  0
    5.6785    7.5539    0.3561 C   0  0  1  0  0  0  0  0  0  0  0  0
    5.7396    8.9139    0.7700 O   0  0  0  0  0  0  0  0  0  0  0  0
    0.2208   -4.6743    2.5683 Cl  0  0  0  0  0  0  0  0  0  0  0  0
   -0.5689    3.1317   -1.6793 H   0  0  0  0  0  0  0  0  0  0  0  0
    1.3895    3.0042   -3.0998 H   0  0  0  0  0  0  0  0  0  0  0  0
    3.2532    1.5919   -2.4797 H   0  0  0  0  0  0  0  0  0  0  0  0
   -0.6768    1.8575    0.3683 H   0  0  0  0  0  0  0  0  0  0  0  0
    3.9276   -3.1299   -0.0527 H   0  0  0  0  0  0  0  0  0  0  0  0
    2.5942   -4.8235    1.0339 H   0  0  0  0  0  0  0  0  0  0  0  0
   -0.0518   -1.8692    2.4374 H   0  0  0  0  0  0  0  0  0  0  0  0
    1.0600    0.1632    3.4077 H   0  0  0  0  0  0  0  0  0  0  0  0
    0.3730    2.1944    3.9913 H   0  0  0  0  0  0  0  0  0  0  0  0
    0.1847    2.7163    2.3533 H   0  0  0  0  0  0  0  0  0  0  0  0
    2.9085    2.2520    3.6749 H   0  0  0  0  0  0  0  0  0  0  0  0
    2.0571    3.7679    3.8944 H   0  0  0  0  0  0  0  0  0  0  0  0
    5.0501    3.6117    0.1579 H   0  0  0  0  0  0  0  0  0  0  0  0
    5.9714    4.7398    1.1354 H   0  0  0  0  0  0  0  0  0  0  0  0
    4.3546    4.6035    2.9618 H   0  0  0  0  0  0  0  0  0  0  0  0
    4.8406    2.9753    2.4691 H   0  0  0  0  0  0  0  0  0  0  0  0
    1.0627    4.3247    1.0486 H   0  0  0  0  0  0  0  0  0  0  0  0
    1.9806    5.4602    2.0336 H   0  0  0  0  0  0  0  0  0  0  0  0
    2.1746    5.9620   -0.3989 H   0  0  0  0  0  0  0  0  0  0  0  0
    2.7495    4.3385   -0.7091 H   0  0  0  0  0  0  0  0  0  0  0  0
    4.3812    6.8558    1.9543 H   0  0  0  0  0  0  0  0  0  0  0  0
    3.5565    7.5624    0.5680 H   0  0  0  0  0  0  0  0  0  0  0  0
    6.5539    7.0334    0.7475 H   0  0  0  0  0  0  0  0  0  0  0  0
    5.7102    7.5230   -0.7350 H   0  0  0  0  0  0  0  0  0  0  0  0
    6.5663    9.2647    0.3734 H   0  0  0  0  0  0  0  0  0  0  0  0
  1  2  2  0  0  0  0 
  2  3  1  0  0  0  0 
  3  4  2  0  0  0  0 
  4  5  1  0  0  0  0 
  5  6  2  0  0  0  0 
  1  6  1  0  0  0  0 
  7  8  1  0  0  0  0 
  9 10  1  0  0  0  0 
  4  7  1  0  0  0  0 
  5 10  1  0  0  0  0 
 11 12  1  0  0  0  0 
 12 13  2  0  0  0  0 
 13 14  1  0  0  0  0 
  8 11  2  0  0  0  0 
  9 14  2  0  0  0  0 
  9  8  1  0  0  0  0 
 10 15  2  0  0  0  0 
 15 16  1  0  0  0  0 
 16 17  1  0  0  0  0 
 17 18  1  0  0  0  0 
 19 20  1  0  0  0  0 
 21 22  1  0  0  0  0 
 22 23  1  0  0  0  0 
 19 23  1  0  0  0  0 
 20 18  1  0  0  0  0 
 18 21  1  0  0  0  0 
 23 24  1  0  0  0  0 
 24 25  1  0  0  0  0 
 25 26  1  0  0  0  0 
 13 27  1  0  0  0  0 
  1 28  1  0  0  0  0 
  2 29  1  0  0  0  0 
  3 30  1  0  0  0  0 
  6 31  1  0  0  0  0 
 11 32  1  0  0  0  0 
 12 33  1  0  0  0  0 
 14 34  1  0  0  0  0 
 15 35  1  0  0  0  0 
 16 36  1  0  0  0  0 
 16 37  1  0  0  0  0 
 17 38  1  0  0  0  0 
 17 39  1  0  0  0  0 
 19 40  1  0  0  0  0 
 19 41  1  0  0  0  0 
 20 42  1  0  0  0  0 
 20 43  1  0  0  0  0 
 21 44  1  0  0  0  0 
 21 45  1  0  0  0  0 
 22 46  1  0  0  0  0 
 22 47  1  0  0  0  0 
 24 48  1  0  0  0  0 
 24 49  1  0  0  0  0 
 25 50  1  0  0  0  0 
 25 51  1  0  0  0  0 
 26 52  1  0  0  0  0 
M  END
> <cdk:Title>
clopenthixol

> <Conformer>
1

> <SuperDrugID>
SD003541

$$$$
