menatetrenone
  CDK     0628171801

 73 74  0  0  0  0  0  0  0  0999 V2000
    1.3526    2.9377   -0.8880 O   0  0  0  0  0  0  0  0  0  0  0  0
    1.7706    2.3436    0.1371 C   0  0  0  0  0  0  0  0  0  0  0  0
    2.4294    3.1164    1.1411 C   0  0  0  0  0  0  0  0  0  0  0  0
    1.6048    0.9413    0.2724 C   0  0  0  0  0  0  0  0  0  0  0  0
    2.9825    2.4412    2.2609 C   0  0  0  0  0  0  0  0  0  0  0  0
    2.5463    4.5289    1.0605 C   0  0  0  0  0  0  0  0  0  0  0  0
    0.8311    0.2390   -0.7809 C   0  0  1  0  0  0  0  0  0  0  0  0
    2.1722    0.2922    1.3362 C   0  0  0  0  0  0  0  0  0  0  0  0
    2.8726    1.0208    2.3258 C   0  0  0  0  0  0  0  0  0  0  0  0
    3.6224    3.1928    3.2804 C   0  0  0  0  0  0  0  0  0  0  0  0
    3.1878    5.2579    2.0772 C   0  0  0  0  0  0  0  0  0  0  0  0
    1.6982   -0.1172   -1.9002 C   0  0  0  0  0  0  0  0  0  0  0  0
    2.0784   -1.1712    1.4796 C   0  0  0  0  0  0  0  0  0  0  0  0
    3.4087    0.4353    3.3004 O   0  0  0  0  0  0  0  0  0  0  0  0
    3.7235    4.5902    3.1876 C   0  0  0  0  0  0  0  0  0  0  0  0
    1.7013    0.3329   -3.1774 C   0  0  0  0  0  0  0  0  0  0  0  0
    2.7702   -0.1354   -4.0812 C   0  0  2  0  0  0  0  0  0  0  0  0
    0.7378    1.2779   -3.7436 C   0  0  0  0  0  0  0  0  0  0  0  0
    4.1761    0.3976   -3.6685 C   0  0  1  0  0  0  0  0  0  0  0  0
    5.1923    0.1841   -4.6916 C   0  0  0  0  0  0  0  0  0  0  0  0
    5.5227    1.0027   -5.7205 C   0  0  0  0  0  0  0  0  0  0  0  0
    6.6026    0.5919   -6.6340 C   0  0  2  0  0  0  0  0  0  0  0  0
    4.8533    2.2730   -6.0117 C   0  0  0  0  0  0  0  0  0  0  0  0
    8.0261    0.5544   -5.9955 C   0  0  1  0  0  0  0  0  0  0  0  0
    9.0058   -0.0395   -6.8985 C   0  0  0  0  0  0  0  0  0  0  0  0
    9.1305   -1.3496   -7.2254 C   0  0  0  0  0  0  0  0  0  0  0  0
   10.1217   -1.7361   -8.2426 C   0  0  2  0  0  0  0  0  0  0  0  0
    8.3308   -2.4255   -6.6332 C   0  0  0  0  0  0  0  0  0  0  0  0
    9.7476   -1.2707   -9.6814 C   0  0  1  0  0  0  0  0  0  0  0  0
   10.8212   -1.5034  -10.6416 C   0  0  0  0  0  0  0  0  0  0  0  0
   11.8555   -0.6710  -10.9092 C   0  0  0  0  0  0  0  0  0  0  0  0
   12.8468   -1.0277  -11.9262 C   0  0  0  0  0  0  0  0  0  0  0  0
   12.0288    0.6111  -10.2229 C   0  0  0  0  0  0  0  0  0  0  0  0
    2.1610    5.0429    0.2638 H   0  0  0  0  0  0  0  0  0  0  0  0
    0.3765   -0.6866   -0.4252 H   0  0  0  0  0  0  0  0  0  0  0  0
   -0.0331    0.8382   -1.0599 H   0  0  0  0  0  0  0  0  0  0  0  0
    4.0189    2.7306    4.1031 H   0  0  0  0  0  0  0  0  0  0  0  0
    3.2627    6.2745    2.0096 H   0  0  0  0  0  0  0  0  0  0  0  0
    2.3915   -0.7921   -1.6649 H   0  0  0  0  0  0  0  0  0  0  0  0
    2.6727   -1.5866    2.2955 H   0  0  0  0  0  0  0  0  0  0  0  0
    1.0404   -1.4519    1.6675 H   0  0  0  0  0  0  0  0  0  0  0  0
    2.4327   -1.6642    0.5725 H   0  0  0  0  0  0  0  0  0  0  0  0
    4.1835    5.1180    3.9315 H   0  0  0  0  0  0  0  0  0  0  0  0
    2.5678    0.1681   -5.1149 H   0  0  0  0  0  0  0  0  0  0  0  0
    2.7875   -1.2314   -4.0841 H   0  0  0  0  0  0  0  0  0  0  0  0
    1.2662    2.1631   -4.1011 H   0  0  0  0  0  0  0  0  0  0  0  0
   -0.0355    1.6136   -3.0604 H   0  0  0  0  0  0  0  0  0  0  0  0
    0.2336    0.8093   -4.5911 H   0  0  0  0  0  0  0  0  0  0  0  0
    4.1231    1.4508   -3.3863 H   0  0  0  0  0  0  0  0  0  0  0  0
    4.4977   -0.1336   -2.7671 H   0  0  0  0  0  0  0  0  0  0  0  0
    5.6838   -0.6788   -4.6123 H   0  0  0  0  0  0  0  0  0  0  0  0
    6.6603    1.2599   -7.5005 H   0  0  0  0  0  0  0  0  0  0  0  0
    6.3412   -0.3908   -7.0340 H   0  0  0  0  0  0  0  0  0  0  0  0
    5.5701    3.0926   -5.9411 H   0  0  0  0  0  0  0  0  0  0  0  0
    4.0175    2.5042   -5.3560 H   0  0  0  0  0  0  0  0  0  0  0  0
    4.4553    2.2501   -7.0278 H   0  0  0  0  0  0  0  0  0  0  0  0
    8.3263    1.5837   -5.7702 H   0  0  0  0  0  0  0  0  0  0  0  0
    8.0347    0.0194   -5.0443 H   0  0  0  0  0  0  0  0  0  0  0  0
    9.6227    0.6084   -7.3368 H   0  0  0  0  0  0  0  0  0  0  0  0
   10.2484   -2.8231   -8.2727 H   0  0  0  0  0  0  0  0  0  0  0  0
   11.0923   -1.3292   -7.9506 H   0  0  0  0  0  0  0  0  0  0  0  0
    7.7496   -2.9231   -7.4115 H   0  0  0  0  0  0  0  0  0  0  0  0
    7.6367   -2.0999   -5.8614 H   0  0  0  0  0  0  0  0  0  0  0  0
    8.9921   -3.1611   -6.1717 H   0  0  0  0  0  0  0  0  0  0  0  0
    8.8615   -1.8257  -10.0066 H   0  0  0  0  0  0  0  0  0  0  0  0
    9.4630   -0.2170   -9.6893 H   0  0  0  0  0  0  0  0  0  0  0  0
   10.7752   -2.3704  -11.1287 H   0  0  0  0  0  0  0  0  0  0  0  0
   12.8963   -0.2429  -12.6848 H   0  0  0  0  0  0  0  0  0  0  0  0
   12.6215   -1.9648  -12.4410 H   0  0  0  0  0  0  0  0  0  0  0  0
   13.8319   -1.1286  -11.4657 H   0  0  0  0  0  0  0  0  0  0  0  0
   12.9419    1.1254  -10.5312 H   0  0  0  0  0  0  0  0  0  0  0  0
   12.0935    0.4658   -9.1442 H   0  0  0  0  0  0  0  0  0  0  0  0
   11.1901    1.2742  -10.4417 H   0  0  0  0  0  0  0  0  0  0  0  0
  1  2  2  0  0  0  0 
  2  3  1  0  0  0  0 
  2  4  1  0  0  0  0 
  3  5  2  0  0  0  0 
  3  6  1  0  0  0  0 
  4  7  1  0  0  0  0 
  4  8  2  0  0  0  0 
  5  9  1  0  0  0  0 
  5 10  1  0  0  0  0 
  6 11  2  0  0  0  0 
 12  7  1  0  0  0  0 
  8  9  1  0  0  0  0 
  8 13  1  0  0  0  0 
  9 14  2  0  0  0  0 
 10 15  2  0  0  0  0 
 11 15  1  0  0  0  0 
 12 16  2  0  0  0  0 
 16 17  1  0  0  0  0 
 16 18  1  0  0  0  0 
 17 19  1  0  0  0  0 
 19 20  1  0  0  0  0 
 20 21  2  0  0  0  0 
 21 22  1  0  0  0  0 
 21 23  1  0  0  0  0 
 22 24  1  0  0  0  0 
 24 25  1  0  0  0  0 
 25 26  2  0  0  0  0 
 26 27  1  0  0  0  0 
 26 28  1  0  0  0  0 
 27 29  1  0  0  0  0 
 29 30  1  0  0  0  0 
 30 31  2  0  0  0  0 
 31 32  1  0  0  0  0 
 31 33  1  0  0  0  0 
 34  6  1  0  0  0  0 
 35  7  1  0  0  0  0 
 36  7  1  0  0  0  0 
 37 10  1  0  0  0  0 
 38 11  1  0  0  0  0 
 12 39  1  0  0  0  0 
 40 13  1  0  0  0  0 
 41 13  1  0  0  0  0 
 42 13  1  0  0  0  0 
 43 15  1  0  0  0  0 
 44 17  1  0  0  0  0 
 45 17  1  0  0  0  0 
 46 18  1  0  0  0  0 
 47 18  1  0  0  0  0 
 48 18  1  0  0  0  0 
 49 19  1  0  0  0  0 
 50 19  1  0  0  0  0 
 51 20  1  0  0  0  0 
 52 22  1  0  0  0  0 
 53 22  1  0  0  0  0 
 54 23  1  0  0  0  0 
 55 23  1  0  0  0  0 
 56 23  1  0  0  0  0 
 57 24  1  0  0  0  0 
 58 24  1  0  0  0  0 
 59 25  1  0  0  0  0 
 60 27  1  0  0  0  0 
 61 27  1  0  0  0  0 
 62 28  1  0  0  0  0 
 63 28  1  0  0  0  0 
 64 28  1  0  0  0  0 
 65 29  1  0  0  0  0 
 66 29  1  0  0  0  0 
 67 30  1  0  0  0  0 
 68 32  1  0  0  0  0 
 69 32  1  0  0  0  0 
 70 32  1  0  0  0  0 
 71 33  1  0  0  0  0 
 72 33  1  0  0  0  0 
 73 33  1  0  0  0  0 
M  END
> <cdk:Title>
menatetrenone

> <Conformer>
1

> <SuperDrugID>
SD001489

$$$$
