pipradrol
  CDK     0628171801

 41 43  0  0  0  0  0  0  0  0999 V2000
   -0.6547   -1.3316   -0.0573 C   0  0  1  0  0  0  0  0  0  0  0  0
    0.0623   -1.8597   -1.1852 O   0  0  0  0  0  0  0  0  0  0  0  0
   -0.6134   -2.3029    1.0986 C   0  0  0  0  0  0  0  0  0  0  0  0
    0.0290   -0.0375    0.3497 C   0  0  0  0  0  0  0  0  0  0  0  0
   -2.1306   -1.1603   -0.5933 C   0  0  2  0  0  0  0  0  0  0  0  0
    0.0381   -3.5646    1.0191 C   0  0  0  0  0  0  0  0  0  0  0  0
   -1.2728   -1.9893    2.3164 C   0  0  0  0  0  0  0  0  0  0  0  0
    1.4349    0.1237    0.2060 C   0  0  0  0  0  0  0  0  0  0  0  0
   -0.6837    1.0587    0.9082 C   0  0  0  0  0  0  0  0  0  0  0  0
   -2.8286   -2.4782   -1.0651 C   0  0  2  0  0  0  0  0  0  0  0  0
   -2.1456   -0.1619   -1.7010 N   0  0  2  0  0  0  0  0  0  0  0  0
    0.0201   -4.4674    2.0985 C   0  0  0  0  0  0  0  0  0  0  0  0
   -1.2898   -2.8860    3.3978 C   0  0  0  0  0  0  0  0  0  0  0  0
    2.0847    1.3184    0.5721 C   0  0  0  0  0  0  0  0  0  0  0  0
   -0.0401    2.2499    1.2853 C   0  0  0  0  0  0  0  0  0  0  0  0
   -4.2546   -2.1921   -1.6114 C   0  0  1  0  0  0  0  0  0  0  0  0
   -3.4934    0.1627   -2.2213 C   0  0  1  0  0  0  0  0  0  0  0  0
   -0.6443   -4.1275    3.2882 C   0  0  0  0  0  0  0  0  0  0  0  0
    1.3453    2.3823    1.1124 C   0  0  0  0  0  0  0  0  0  0  0  0
   -4.2297   -1.1058   -2.7142 C   0  0  2  0  0  0  0  0  0  0  0  0
   -2.7521   -0.7725    0.2162 H   0  0  0  0  0  0  0  0  0  0  0  0
    0.0181   -1.1671   -1.8755 H   0  0  0  0  0  0  0  0  0  0  0  0
    0.5306   -3.8548    0.1719 H   0  0  0  0  0  0  0  0  0  0  0  0
   -1.7594   -1.0994    2.4303 H   0  0  0  0  0  0  0  0  0  0  0  0
    2.0109   -0.6306   -0.1744 H   0  0  0  0  0  0  0  0  0  0  0  0
   -1.6899    1.0115    1.0558 H   0  0  0  0  0  0  0  0  0  0  0  0
   -2.9177   -3.1777   -0.2306 H   0  0  0  0  0  0  0  0  0  0  0  0
   -2.2366   -2.9633   -1.8460 H   0  0  0  0  0  0  0  0  0  0  0  0
   -1.6130   -0.5600   -2.4777 H   0  0  0  0  0  0  0  0  0  0  0  0
    0.4896   -5.3726    2.0161 H   0  0  0  0  0  0  0  0  0  0  0  0
   -1.7744   -2.6330    4.2618 H   0  0  0  0  0  0  0  0  0  0  0  0
    3.0960    1.4123    0.4460 H   0  0  0  0  0  0  0  0  0  0  0  0
   -0.5810    3.0194    1.6855 H   0  0  0  0  0  0  0  0  0  0  0  0
   -4.6821   -3.1092   -2.0213 H   0  0  0  0  0  0  0  0  0  0  0  0
   -4.9032   -1.8625   -0.7926 H   0  0  0  0  0  0  0  0  0  0  0  0
   -4.0751    0.6588   -1.4404 H   0  0  0  0  0  0  0  0  0  0  0  0
   -3.3841    0.8594   -3.0542 H   0  0  0  0  0  0  0  0  0  0  0  0
   -0.6598   -4.7825    4.0719 H   0  0  0  0  0  0  0  0  0  0  0  0
    1.8123    3.2504    1.3793 H   0  0  0  0  0  0  0  0  0  0  0  0
   -5.2529   -0.8495   -2.9991 H   0  0  0  0  0  0  0  0  0  0  0  0
   -3.7192   -1.4986   -3.5983 H   0  0  0  0  0  0  0  0  0  0  0  0
  1  2  1  0  0  0  0 
  1  3  1  0  0  0  0 
  1  4  1  0  0  0  0 
  5  1  1  0  0  0  0 
  3  6  2  0  0  0  0 
  3  7  1  0  0  0  0 
  4  8  2  0  0  0  0 
  4  9  1  0  0  0  0 
  5 10  1  0  0  0  0 
  5 11  1  0  0  0  0 
  6 12  1  0  0  0  0 
  7 13  2  0  0  0  0 
  8 14  1  0  0  0  0 
  9 15  2  0  0  0  0 
 10 16  1  0  0  0  0 
 11 17  1  0  0  0  0 
 12 18  2  0  0  0  0 
 13 18  1  0  0  0  0 
 14 19  2  0  0  0  0 
 15 19  1  0  0  0  0 
 16 20  1  0  0  0  0 
 17 20  1  0  0  0  0 
  5 21  1  0  0  0  0 
  2 22  1  0  0  0  0 
  6 23  1  0  0  0  0 
  7 24  1  0  0  0  0 
  8 25  1  0  0  0  0 
  9 26  1  0  0  0  0 
 10 27  1  0  0  0  0 
 10 28  1  0  0  0  0 
 11 29  1  0  0  0  0 
 12 30  1  0  0  0  0 
 13 31  1  0  0  0  0 
 14 32  1  0  0  0  0 
 15 33  1  0  0  0  0 
 16 34  1  0  0  0  0 
 16 35  1  0  0  0  0 
 17 36  1  0  0  0  0 
 17 37  1  0  0  0  0 
 18 38  1  0  0  0  0 
 19 39  1  0  0  0  0 
 20 40  1  0  0  0  0 
 20 41  1  0  0  0  0 
M  END
> <cdk:Title>
pipradrol

> <Conformer>
1

> <SuperDrugID>
SD001970

$$$$
