rilpivirine
  CDK     0628171801

 46 48  0  0  0  0  0  0  0  0999 V2000
   -3.6549    1.8778   -0.8134 C   0  0  0  0  0  0  0  0  0  0  0  0
   -2.3404    1.3869   -0.6484 C   0  0  0  0  0  0  0  0  0  0  0  0
   -1.2896    2.1837   -0.1341 C   0  0  0  0  0  0  0  0  0  0  0  0
   -1.5990    3.5274    0.1864 C   0  0  0  0  0  0  0  0  0  0  0  0
   -2.9043    4.0550    0.0536 C   0  0  0  0  0  0  0  0  0  0  0  0
   -3.9488    3.2089   -0.4095 C   0  0  0  0  0  0  0  0  0  0  0  0
    0.0282    1.7276    0.0482 C   0  0  0  0  0  0  0  0  0  0  0  0
   -5.2075    3.7350   -0.4537 N   0  0  0  0  0  0  0  0  0  0  0  0
   -4.6479    0.9572   -1.4297 C   0  0  0  0  0  0  0  0  0  0  0  0
   -3.1554    5.4823    0.4076 C   0  0  0  0  0  0  0  0  0  0  0  0
    0.4488    0.4480    0.0186 C   0  0  0  0  0  0  0  0  0  0  0  0
    1.6669    0.1268    0.1940 C   0  0  0  0  0  0  0  0  0  0  0  0
    2.7674   -0.1602    0.3517 N   0  0  0  0  0  0  0  0  0  0  0  0
   -6.2799    3.3257    0.2816 C   0  0  0  0  0  0  0  0  0  0  0  0
   -6.3136    2.1499    0.9730 N   0  0  0  0  0  0  0  0  0  0  0  0
   -7.4025    4.1742    0.3414 C   0  0  0  0  0  0  0  0  0  0  0  0
   -8.5000    3.7719    1.1168 C   0  0  0  0  0  0  0  0  0  0  0  0
   -8.4598    2.5825    1.7622 N   0  0  0  0  0  0  0  0  0  0  0  0
   -7.3900    1.7472    1.7021 C   0  0  0  0  0  0  0  0  0  0  0  0
   -7.3218    0.5285    2.3129 N   0  0  0  0  0  0  0  0  0  0  0  0
   -8.2454   -0.1524    3.0739 C   0  0  0  0  0  0  0  0  0  0  0  0
   -7.8231   -1.4015    3.5884 C   0  0  0  0  0  0  0  0  0  0  0  0
   -9.5651    0.2716    3.3813 C   0  0  0  0  0  0  0  0  0  0  0  0
  -10.4139   -0.5032    4.1939 C   0  0  0  0  0  0  0  0  0  0  0  0
   -9.9690   -1.7357    4.7132 C   0  0  0  0  0  0  0  0  0  0  0  0
   -8.6697   -2.1863    4.3968 C   0  0  0  0  0  0  0  0  0  0  0  0
  -10.7577   -2.4459    5.4722 C   0  0  0  0  0  0  0  0  0  0  0  0
  -11.4587   -3.0653    6.1387 N   0  0  0  0  0  0  0  0  0  0  0  0
   -2.1548    0.4249   -0.9316 H   0  0  0  0  0  0  0  0  0  0  0  0
   -0.8545    4.1436    0.5278 H   0  0  0  0  0  0  0  0  0  0  0  0
    0.7199    2.4269    0.2285 H   0  0  0  0  0  0  0  0  0  0  0  0
   -5.3230    4.5400   -0.9831 H   0  0  0  0  0  0  0  0  0  0  0  0
   -5.5891    1.4464   -1.6800 H   0  0  0  0  0  0  0  0  0  0  0  0
   -4.2481    0.5466   -2.3592 H   0  0  0  0  0  0  0  0  0  0  0  0
   -4.8533    0.1308   -0.7453 H   0  0  0  0  0  0  0  0  0  0  0  0
   -3.9844    5.5602    1.1127 H   0  0  0  0  0  0  0  0  0  0  0  0
   -3.4111    6.0437   -0.4928 H   0  0  0  0  0  0  0  0  0  0  0  0
   -2.2895    5.9603    0.8709 H   0  0  0  0  0  0  0  0  0  0  0  0
   -0.1798   -0.3004   -0.1326 H   0  0  0  0  0  0  0  0  0  0  0  0
   -7.4262    5.0666   -0.1601 H   0  0  0  0  0  0  0  0  0  0  0  0
   -9.3268    4.3646    1.1971 H   0  0  0  0  0  0  0  0  0  0  0  0
   -6.4783    0.0657    2.1816 H   0  0  0  0  0  0  0  0  0  0  0  0
   -6.8862   -1.7579    3.3764 H   0  0  0  0  0  0  0  0  0  0  0  0
   -9.9440    1.1441    3.0225 H   0  0  0  0  0  0  0  0  0  0  0  0
  -11.3583   -0.1575    4.3972 H   0  0  0  0  0  0  0  0  0  0  0  0
   -8.3272   -3.0865    4.7474 H   0  0  0  0  0  0  0  0  0  0  0  0
  1  2  2  0  0  0  0 
  1  6  1  0  0  0  0 
  2  3  1  0  0  0  0 
  3  4  2  0  0  0  0 
  4  5  1  0  0  0  0 
  5  6  2  0  0  0  0 
  3  7  1  0  0  0  0 
  6  8  1  0  0  0  0 
  1  9  1  0  0  0  0 
  5 10  1  0  0  0  0 
  7 11  2  0  0  0  0 
 11 12  1  0  0  0  0 
 12 13  3  0  0  0  0 
  8 14  1  0  0  0  0 
 15 14  2  0  0  0  0 
 14 16  1  0  0  0  0 
 15 19  1  0  0  0  0 
 16 17  2  0  0  0  0 
 17 18  1  0  0  0  0 
 18 19  2  0  0  0  0 
 19 20  1  0  0  0  0 
 20 21  1  0  0  0  0 
 22 21  2  0  0  0  0 
 21 23  1  0  0  0  0 
 22 26  1  0  0  0  0 
 23 24  2  0  0  0  0 
 24 25  1  0  0  0  0 
 25 26  2  0  0  0  0 
 25 27  1  0  0  0  0 
 27 28  3  0  0  0  0 
  2 29  1  0  0  0  0 
  4 30  1  0  0  0  0 
  7 31  1  0  0  0  0 
  8 32  1  0  0  0  0 
  9 33  1  0  0  0  0 
  9 34  1  0  0  0  0 
  9 35  1  0  0  0  0 
 10 36  1  0  0  0  0 
 10 37  1  0  0  0  0 
 10 38  1  0  0  0  0 
 11 39  1  0  0  0  0 
 16 40  1  0  0  0  0 
 17 41  1  0  0  0  0 
 20 42  1  0  0  0  0 
 22 43  1  0  0  0  0 
 23 44  1  0  0  0  0 
 24 45  1  0  0  0  0 
 26 46  1  0  0  0  0 
M  END
> <cdk:Title>
rilpivirine

> <Conformer>
1

> <SuperDrugID>
SD003405

$$$$
