indacaterol
  CDK     0628171801

 57 60  0  0  0  0  0  0  0  0999 V2000
    1.9498   -0.7733    2.6715 C   0  0  0  0  0  0  0  0  0  0  0  0
    1.4223   -2.0167    2.2981 C   0  0  0  0  0  0  0  0  0  0  0  0
    0.3980   -2.0938    1.3462 C   0  0  0  0  0  0  0  0  0  0  0  0
   -0.1330   -0.9321    0.7295 C   0  0  0  0  0  0  0  0  0  0  0  0
    0.4482    0.3358    1.0575 C   0  0  0  0  0  0  0  0  0  0  0  0
    1.4894    0.3979    2.0352 C   0  0  0  0  0  0  0  0  0  0  0  0
    2.0512    1.5898    2.3804 N   0  0  0  0  0  0  0  0  0  0  0  0
    0.0474    1.5741    0.4888 C   0  0  0  0  0  0  0  0  0  0  0  0
    0.6320    2.7893    0.8856 C   0  0  0  0  0  0  0  0  0  0  0  0
    1.6562    2.7701    1.8445 C   0  0  0  0  0  0  0  0  0  0  0  0
    2.2104    3.8314    2.2109 O   0  0  0  0  0  0  0  0  0  0  0  0
    2.8846   -0.7233    3.6563 O   0  0  0  0  0  0  0  0  0  0  0  0
   -1.2895   -1.1270   -0.2104 C   0  0  1  0  0  0  0  0  0  0  0  0
   -2.3261   -0.1798    0.0392 O   0  0  0  0  0  0  0  0  0  0  0  0
   -0.8758   -1.1195   -1.7107 C   0  0  2  0  0  0  0  0  0  0  0  0
   -0.0012   -2.2544   -2.1120 N   0  0  2  0  0  0  0  0  0  0  0  0
    0.4535   -4.6802   -2.5648 C   0  0  1  0  0  0  0  0  0  0  0  0
   -0.6204   -3.6038   -2.2406 C   0  0  2  0  0  0  0  0  0  0  0  0
   -1.6806   -3.7092   -3.3755 C   0  0  1  0  0  0  0  0  0  0  0  0
   -1.3787   -4.9803   -4.0305 C   0  0  0  0  0  0  0  0  0  0  0  0
   -0.1848   -5.5255   -3.5763 C   0  0  0  0  0  0  0  0  0  0  0  0
    0.2937   -6.7341   -4.1099 C   0  0  0  0  0  0  0  0  0  0  0  0
   -0.4394   -7.4106   -5.1222 C   0  0  0  0  0  0  0  0  0  0  0  0
   -1.6580   -6.8319   -5.6091 C   0  0  0  0  0  0  0  0  0  0  0  0
   -2.1214   -5.6166   -5.0395 C   0  0  0  0  0  0  0  0  0  0  0  0
    0.1178   -8.6988   -5.6380 C   0  0  2  0  0  0  0  0  0  0  0  0
   -0.4733   -9.9422   -4.9319 C   0  0  0  0  0  0  0  0  0  0  0  0
   -2.4685   -7.4171   -6.7229 C   0  0  1  0  0  0  0  0  0  0  0  0
   -2.0989   -6.8118   -8.0976 C   0  0  0  0  0  0  0  0  0  0  0  0
    1.7739   -2.8732    2.7298 H   0  0  0  0  0  0  0  0  0  0  0  0
    0.0358   -3.0223    1.1115 H   0  0  0  0  0  0  0  0  0  0  0  0
    2.7623    1.5994    3.0410 H   0  0  0  0  0  0  0  0  0  0  0  0
   -0.6739    1.6203   -0.2278 H   0  0  0  0  0  0  0  0  0  0  0  0
    0.3113    3.6714    0.4752 H   0  0  0  0  0  0  0  0  0  0  0  0
    2.7614   -1.5504    4.1689 H   0  0  0  0  0  0  0  0  0  0  0  0
   -1.7798   -2.0834   -0.0081 H   0  0  0  0  0  0  0  0  0  0  0  0
   -3.0233   -0.3911   -0.6165 H   0  0  0  0  0  0  0  0  0  0  0  0
   -0.3242   -0.2031   -1.9261 H   0  0  0  0  0  0  0  0  0  0  0  0
   -1.7722   -1.0992   -2.3364 H   0  0  0  0  0  0  0  0  0  0  0  0
    0.7457   -2.3182   -1.4175 H   0  0  0  0  0  0  0  0  0  0  0  0
    1.3605   -4.2378   -2.9854 H   0  0  0  0  0  0  0  0  0  0  0  0
    0.7094   -5.2638   -1.6764 H   0  0  0  0  0  0  0  0  0  0  0  0
   -1.0887   -3.8822   -1.2905 H   0  0  0  0  0  0  0  0  0  0  0  0
   -2.6963   -3.7116   -2.9707 H   0  0  0  0  0  0  0  0  0  0  0  0
   -1.5750   -2.9033   -4.1057 H   0  0  0  0  0  0  0  0  0  0  0  0
    1.1788   -7.1125   -3.7593 H   0  0  0  0  0  0  0  0  0  0  0  0
   -2.9933   -5.1850   -5.3613 H   0  0  0  0  0  0  0  0  0  0  0  0
    1.2031   -8.7262   -5.5044 H   0  0  0  0  0  0  0  0  0  0  0  0
   -0.0453   -8.7787   -6.7134 H   0  0  0  0  0  0  0  0  0  0  0  0
   -0.0382  -10.8444   -5.3670 H   0  0  0  0  0  0  0  0  0  0  0  0
   -1.5578   -9.9933   -5.0494 H   0  0  0  0  0  0  0  0  0  0  0  0
   -0.2339   -9.9217   -3.8664 H   0  0  0  0  0  0  0  0  0  0  0  0
   -2.3513   -8.4984   -6.7798 H   0  0  0  0  0  0  0  0  0  0  0  0
   -3.5332   -7.2465   -6.5414 H   0  0  0  0  0  0  0  0  0  0  0  0
   -2.7367   -7.2443   -8.8720 H   0  0  0  0  0  0  0  0  0  0  0  0
   -1.0572   -7.0279   -8.3467 H   0  0  0  0  0  0  0  0  0  0  0  0
   -2.2453   -5.7290   -8.0934 H   0  0  0  0  0  0  0  0  0  0  0  0
  1  2  1  0  0  0  0 
  1  6  2  0  0  0  0 
  2  3  2  0  0  0  0 
  3  4  1  0  0  0  0 
  4  5  2  0  0  0  0 
  7  6  1  0  0  0  0 
  6  5  1  0  0  0  0 
  5  8  1  0  0  0  0 
  7 10  1  0  0  0  0 
  8  9  2  0  0  0  0 
  9 10  1  0  0  0  0 
 10 11  2  0  0  0  0 
  1 12  1  0  0  0  0 
  4 13  1  0  0  0  0 
 13 14  1  0  0  0  0 
 13 15  1  0  0  0  0 
 15 16  1  0  0  0  0 
 16 18  1  0  0  0  0 
 17 18  1  0  0  0  0 
 17 21  1  0  0  0  0 
 18 19  1  0  0  0  0 
 19 20  1  0  0  0  0 
 22 21  1  0  0  0  0 
 20 21  2  0  0  0  0 
 25 20  1  0  0  0  0 
 22 23  2  0  0  0  0 
 23 24  1  0  0  0  0 
 24 25  2  0  0  0  0 
 23 26  1  0  0  0  0 
 26 27  1  0  0  0  0 
 24 28  1  0  0  0  0 
 28 29  1  0  0  0  0 
  2 30  1  0  0  0  0 
  3 31  1  0  0  0  0 
  7 32  1  0  0  0  0 
  8 33  1  0  0  0  0 
  9 34  1  0  0  0  0 
 12 35  1  0  0  0  0 
 13 36  1  0  0  0  0 
 14 37  1  0  0  0  0 
 15 38  1  0  0  0  0 
 15 39  1  0  0  0  0 
 16 40  1  0  0  0  0 
 17 41  1  0  0  0  0 
 17 42  1  0  0  0  0 
 18 43  1  0  0  0  0 
 19 44  1  0  0  0  0 
 19 45  1  0  0  0  0 
 22 46  1  0  0  0  0 
 25 47  1  0  0  0  0 
 26 48  1  0  0  0  0 
 26 49  1  0  0  0  0 
 27 50  1  0  0  0  0 
 27 51  1  0  0  0  0 
 27 52  1  0  0  0  0 
 28 53  1  0  0  0  0 
 28 54  1  0  0  0  0 
 29 55  1  0  0  0  0 
 29 56  1  0  0  0  0 
 29 57  1  0  0  0  0 
M  END
> <cdk:Title>
indacaterol

> <Conformer>
1

> <SuperDrugID>
SD003413

$$$$
