sapropterin
  CDK     0628171801

 32 33  0  0  0  0  0  0  0  0999 V2000
   -6.4309    4.0390   -2.7926 C   0  0  0  0  0  0  0  0  0  0  0  0
   -5.2135    3.9349   -3.7424 C   0  0  2  0  0  0  0  0  0  0  0  0
   -5.4999    4.6821   -4.9234 O   0  0  0  0  0  0  0  0  0  0  0  0
   -4.8136    2.4788   -4.1422 C   0  0  2  0  0  0  0  0  0  0  0  0
   -5.8938    1.8657   -4.8507 O   0  0  0  0  0  0  0  0  0  0  0  0
   -4.3677    1.5433   -2.9711 C   0  0  1  0  0  0  0  0  0  0  0  0
   -3.9681    0.1046   -3.4663 C   0  0  1  0  0  0  0  0  0  0  0  0
   -2.7913   -0.4520   -2.8699 N   0  0  0  0  0  0  0  0  0  0  0  0
   -1.9509    0.2385   -2.0628 C   0  0  0  0  0  0  0  0  0  0  0  0
   -0.8317   -0.3631   -1.5787 N   0  0  0  0  0  0  0  0  0  0  0  0
    0.0350    0.3034   -0.7723 C   0  0  0  0  0  0  0  0  0  0  0  0
    1.1378   -0.3039   -0.3063 N   0  0  0  0  0  0  0  0  0  0  0  0
   -0.2113    1.5946   -0.4350 N   0  0  0  0  0  0  0  0  0  0  0  0
   -1.3128    2.2469   -0.8871 C   0  0  0  0  0  0  0  0  0  0  0  0
   -1.4907    3.4379   -0.5409 O   0  0  0  0  0  0  0  0  0  0  0  0
   -2.2286    1.5771   -1.7240 C   0  0  0  0  0  0  0  0  0  0  0  0
   -3.3514    2.1839   -2.1850 N   0  0  0  0  0  0  0  0  0  0  0  0
   -7.2980    3.5303   -3.2180 H   0  0  0  0  0  0  0  0  0  0  0  0
   -6.2003    3.5982   -1.8216 H   0  0  0  0  0  0  0  0  0  0  0  0
   -6.6862    5.0891   -2.6352 H   0  0  0  0  0  0  0  0  0  0  0  0
   -4.3647    4.4305   -3.2642 H   0  0  0  0  0  0  0  0  0  0  0  0
   -4.6699    4.6619   -5.4457 H   0  0  0  0  0  0  0  0  0  0  0  0
   -3.9750    2.5531   -4.8406 H   0  0  0  0  0  0  0  0  0  0  0  0
   -6.0231    2.4181   -5.6506 H   0  0  0  0  0  0  0  0  0  0  0  0
   -5.2208    1.4278   -2.2983 H   0  0  0  0  0  0  0  0  0  0  0  0
   -4.7942   -0.5847   -3.2706 H   0  0  0  0  0  0  0  0  0  0  0  0
   -3.7924    0.0979   -4.5442 H   0  0  0  0  0  0  0  0  0  0  0  0
   -2.5683   -1.3727   -3.0794 H   0  0  0  0  0  0  0  0  0  0  0  0
    1.7476    0.1809    0.2738 H   0  0  0  0  0  0  0  0  0  0  0  0
    1.3282   -1.2237   -0.5480 H   0  0  0  0  0  0  0  0  0  0  0  0
    0.4118    2.0602    0.1457 H   0  0  0  0  0  0  0  0  0  0  0  0
   -3.4849    3.1132   -1.9471 H   0  0  0  0  0  0  0  0  0  0  0  0
  2  1  1  0  0  0  0 
  2  3  1  0  0  0  0 
  4  2  1  0  0  0  0 
  4  5  1  0  0  0  0 
  4  6  1  0  0  0  0 
  6  7  1  0  0  0  0 
  7  8  1  0  0  0  0 
  8  9  1  0  0  0  0 
  9 10  1  0  0  0  0 
 10 11  2  0  0  0  0 
 11 12  1  0  0  0  0 
 11 13  1  0  0  0  0 
 13 14  1  0  0  0  0 
 14 15  2  0  0  0  0 
 14 16  1  0  0  0  0 
  9 16  2  0  0  0  0 
 16 17  1  0  0  0  0 
  6 17  1  0  0  0  0 
 18  1  1  0  0  0  0 
 19  1  1  0  0  0  0 
 20  1  1  0  0  0  0 
  2 21  1  0  0  0  0 
 22  3  1  0  0  0  0 
  4 23  1  0  0  0  0 
 24  5  1  0  0  0  0 
  6 25  1  0  0  0  0 
 26  7  1  0  0  0  0 
 27  7  1  0  0  0  0 
 28  8  1  0  0  0  0 
 29 12  1  0  0  0  0 
 30 12  1  0  0  0  0 
 31 13  1  0  0  0  0 
 32 17  1  0  0  0  0 
M  END
> <cdk:Title>
sapropterin

> <Conformer>
1

> <SuperDrugID>
SD002351

$$$$
