ursodiol
  CDK     0628171801

 68 71  0  0  0  0  0  0  0  0999 V2000
   -1.1610    6.2265    8.5629 C   0  0  0  0  0  0  0  0  0  0  0  0
    0.1847    5.9396    9.3348 C   0  0  2  0  0  0  0  0  0  0  0  0
    0.1078    4.7147   10.3144 C   0  0  2  0  0  0  0  0  0  0  0  0
    0.5091    7.1112   10.3486 C   0  0  1  0  0  0  0  0  0  0  0  0
    1.3239    5.5842    8.3159 C   0  0  2  0  0  0  0  0  0  0  0  0
   -0.2994    3.3643    9.6188 C   0  0  1  0  0  0  0  0  0  0  0  0
   -0.7315    5.2452   11.4935 C   0  0  1  0  0  0  0  0  0  0  0  0
    0.3388    8.6186    9.8951 C   0  0  1  0  0  0  0  0  0  0  0  0
   -0.3571    6.7427   11.5963 C   0  0  2  0  0  0  0  0  0  0  0  0
    1.0688    4.2465    7.5605 C   0  0  2  0  0  0  0  0  0  0  0  0
    0.7526    3.0194    8.4893 C   0  0  2  0  0  0  0  0  0  0  0  0
   -0.4510    2.1704   10.6190 C   0  0  1  0  0  0  0  0  0  0  0  0
    0.5833    9.6778   11.0270 C   0  0  2  0  0  0  0  0  0  0  0  0
    1.1878    8.9848    8.6411 C   0  0  0  0  0  0  0  0  0  0  0  0
    0.4116    1.6670    7.7151 C   0  0  2  0  0  0  0  0  0  0  0  0
   -1.5309    2.4026   11.5232 O   0  0  0  0  0  0  0  0  0  0  0  0
   -0.7455    0.8152    9.9133 C   0  0  2  0  0  0  0  0  0  0  0  0
    2.0307    9.7607   11.5879 C   0  0  2  0  0  0  0  0  0  0  0  0
   -0.9130    1.8035    6.8705 C   0  0  0  0  0  0  0  0  0  0  0  0
    0.2731    0.4896    8.7724 C   0  0  2  0  0  0  0  0  0  0  0  0
    1.5211    1.2464    6.6713 C   0  0  2  0  0  0  0  0  0  0  0  0
    2.2313   10.9299   12.4662 C   0  0  0  0  0  0  0  0  0  0  0  0
    1.6440    0.0124    9.3701 C   0  0  1  0  0  0  0  0  0  0  0  0
    2.8835    0.8553    7.2952 C   0  0  1  0  0  0  0  0  0  0  0  0
    2.1527   12.1867   11.9614 O   0  0  0  0  0  0  0  0  0  0  0  0
    2.4997   10.7826   13.6812 O   0  0  0  0  0  0  0  0  0  0  0  0
    2.7078   -0.3139    8.2924 C   0  0  1  0  0  0  0  0  0  0  0  0
    3.9609   -0.5963    8.9125 O   0  0  0  0  0  0  0  0  0  0  0  0
   -1.2827    3.5077    9.1761 H   0  0  0  0  0  0  0  0  0  0  0  0
    1.6929    2.8532    9.0219 H   0  0  0  0  0  0  0  0  0  0  0  0
    1.1075    4.5359   10.7380 H   0  0  0  0  0  0  0  0  0  0  0  0
   -0.1332   -0.3852    8.2509 H   0  0  0  0  0  0  0  0  0  0  0  0
    1.5582    7.0001   10.6470 H   0  0  0  0  0  0  0  0  0  0  0  0
   -1.9707    6.4828    9.2450 H   0  0  0  0  0  0  0  0  0  0  0  0
   -1.0408    7.0547    7.8675 H   0  0  0  0  0  0  0  0  0  0  0  0
   -1.4983    5.3779    7.9727 H   0  0  0  0  0  0  0  0  0  0  0  0
    2.2837    5.5096    8.8367 H   0  0  0  0  0  0  0  0  0  0  0  0
    1.4353    6.3672    7.5671 H   0  0  0  0  0  0  0  0  0  0  0  0
   -1.7991    5.1282   11.2883 H   0  0  0  0  0  0  0  0  0  0  0  0
   -0.4922    4.7183   12.4211 H   0  0  0  0  0  0  0  0  0  0  0  0
   -0.7079    8.7543    9.6082 H   0  0  0  0  0  0  0  0  0  0  0  0
   -1.2757    7.3346   11.6334 H   0  0  0  0  0  0  0  0  0  0  0  0
    0.2040    6.9324   12.5156 H   0  0  0  0  0  0  0  0  0  0  0  0
    1.9705    4.0430    6.9789 H   0  0  0  0  0  0  0  0  0  0  0  0
    0.2599    4.3978    6.8477 H   0  0  0  0  0  0  0  0  0  0  0  0
    0.4594    2.0829   11.2179 H   0  0  0  0  0  0  0  0  0  0  0  0
   -0.0957    9.4894   11.8630 H   0  0  0  0  0  0  0  0  0  0  0  0
    0.3058   10.6588   10.6320 H   0  0  0  0  0  0  0  0  0  0  0  0
    0.7642    8.5462    7.7404 H   0  0  0  0  0  0  0  0  0  0  0  0
    2.2151    8.6332    8.7543 H   0  0  0  0  0  0  0  0  0  0  0  0
    1.2116   10.0642    8.4789 H   0  0  0  0  0  0  0  0  0  0  0  0
   -1.5351    1.6278   12.1239 H   0  0  0  0  0  0  0  0  0  0  0  0
   -1.7721    0.9113    9.4313 H   0  0  0  0  0  0  0  0  0  0  0  0
   -0.6438    0.0077   10.7123 H   0  0  0  0  0  0  0  0  0  0  0  0
    2.7577    9.8456   10.7773 H   0  0  0  0  0  0  0  0  0  0  0  0
    2.2540    8.8448   12.1388 H   0  0  0  0  0  0  0  0  0  0  0  0
   -1.1950    0.8449    6.4308 H   0  0  0  0  0  0  0  0  0  0  0  0
   -0.7891    2.5074    6.0463 H   0  0  0  0  0  0  0  0  0  0  0  0
   -1.7604    2.1418    7.4606 H   0  0  0  0  0  0  0  0  0  0  0  0
    1.6879    2.0364    5.9369 H   0  0  0  0  0  0  0  0  0  0  0  0
    1.1752    0.3783    6.0990 H   0  0  0  0  0  0  0  0  0  0  0  0
    2.0547    0.7693   10.0401 H   0  0  0  0  0  0  0  0  0  0  0  0
    1.4825   -0.8908    9.9662 H   0  0  0  0  0  0  0  0  0  0  0  0
    3.5662    0.5474    6.4988 H   0  0  0  0  0  0  0  0  0  0  0  0
    3.3331    1.7153    7.7961 H   0  0  0  0  0  0  0  0  0  0  0  0
    2.3099   12.9641   12.5357 H   0  0  0  0  0  0  0  0  0  0  0  0
    2.3995   -1.2091    7.7436 H   0  0  0  0  0  0  0  0  0  0  0  0
    3.7860   -1.3554    9.5068 H   0  0  0  0  0  0  0  0  0  0  0  0
  2  1  1  0  0  0  0 
  3  2  1  0  0  0  0 
  2  4  1  0  0  0  0 
  2  5  1  0  0  0  0 
  6  3  1  0  0  0  0 
  3  7  1  0  0  0  0 
  3 31  1  0  0  0  0 
  4  8  1  0  0  0  0 
  4  9  1  0  0  0  0 
  4 33  1  0  0  0  0 
  5 10  1  0  0  0  0 
 11  6  1  0  0  0  0 
  6 12  1  0  0  0  0 
  6 29  1  0  0  0  0 
  7  9  1  0  0  0  0 
  8 13  1  0  0  0  0 
  8 14  1  0  0  0  0 
 11 10  1  0  0  0  0 
 15 11  1  0  0  0  0 
 11 30  1  0  0  0  0 
 12 16  1  0  0  0  0 
 12 17  1  0  0  0  0 
 13 18  1  0  0  0  0 
 15 19  1  0  0  0  0 
 15 20  1  0  0  0  0 
 15 21  1  0  0  0  0 
 20 17  1  0  0  0  0 
 18 22  1  0  0  0  0 
 20 23  1  0  0  0  0 
 20 32  1  0  0  0  0 
 21 24  1  0  0  0  0 
 22 25  1  0  0  0  0 
 22 26  2  0  0  0  0 
 27 23  1  0  0  0  0 
 27 24  1  0  0  0  0 
 27 28  1  0  0  0  0 
  1 34  1  0  0  0  0 
  1 35  1  0  0  0  0 
  1 36  1  0  0  0  0 
  5 37  1  0  0  0  0 
  5 38  1  0  0  0  0 
  7 39  1  0  0  0  0 
  7 40  1  0  0  0  0 
  8 41  1  0  0  0  0 
  9 42  1  0  0  0  0 
  9 43  1  0  0  0  0 
 10 44  1  0  0  0  0 
 10 45  1  0  0  0  0 
 12 46  1  0  0  0  0 
 13 47  1  0  0  0  0 
 13 48  1  0  0  0  0 
 14 49  1  0  0  0  0 
 14 50  1  0  0  0  0 
 14 51  1  0  0  0  0 
 16 52  1  0  0  0  0 
 17 53  1  0  0  0  0 
 17 54  1  0  0  0  0 
 18 55  1  0  0  0  0 
 18 56  1  0  0  0  0 
 19 57  1  0  0  0  0 
 19 58  1  0  0  0  0 
 19 59  1  0  0  0  0 
 21 60  1  0  0  0  0 
 21 61  1  0  0  0  0 
 23 62  1  0  0  0  0 
 23 63  1  0  0  0  0 
 24 64  1  0  0  0  0 
 24 65  1  0  0  0  0 
 25 66  1  0  0  0  0 
 27 67  1  0  0  0  0 
 28 68  1  0  0  0  0 
M  END
> <cdk:Title>
ursodiol

> <Conformer>
1

> <SuperDrugID>
SD002522

$$$$
