nifurpirinol
  CDK     0628171801

 28 29  0  0  0  0  0  0  0  0999 V2000
    0.8379    0.5358   -0.0424 C   0  0  0  0  0  0  0  0  0  0  0  0
    0.3388   -0.7134   -0.0790 C   0  0  0  0  0  0  0  0  0  0  0  0
    0.0819    1.6437    0.2765 C   0  0  0  0  0  0  0  0  0  0  0  0
    1.0849   -1.8426   -0.3971 C   0  0  0  0  0  0  0  0  0  0  0  0
   -1.2370    1.6436    0.5915 O   0  0  0  0  0  0  0  0  0  0  0  0
    0.5438    2.9549    0.3296 C   0  0  0  0  0  0  0  0  0  0  0  0
    2.4074   -1.7316   -0.6977 N   0  0  0  0  0  0  0  0  0  0  0  0
    0.5126   -3.1344   -0.4210 C   0  0  0  0  0  0  0  0  0  0  0  0
   -1.6359    2.9157    0.8453 C   0  0  0  0  0  0  0  0  0  0  0  0
   -0.5308    3.7534    0.6857 C   0  0  0  0  0  0  0  0  0  0  0  0
    3.2240   -2.7648   -1.0181 C   0  0  0  0  0  0  0  0  0  0  0  0
    1.3162   -4.2418   -0.7516 C   0  0  0  0  0  0  0  0  0  0  0  0
   -2.8714    3.2507    1.1820 N   0  0  0  0  0  0  0  0  0  0  0  0
    4.6327   -2.4664   -1.3286 C   0  0  1  0  0  0  0  0  0  0  0  0
    2.6788   -4.0645   -1.0552 C   0  0  0  0  0  0  0  0  0  0  0  0
   -3.2077    4.4523    1.4119 O   0  0  0  0  0  0  0  0  0  0  0  0
   -3.6973    2.4319    1.2772 O   0  0  0  0  0  0  0  0  0  0  0  0
    4.7585   -2.2113   -2.7199 O   0  0  0  0  0  0  0  0  0  0  0  0
    1.7983    0.6865   -0.2529 H   0  0  0  0  0  0  0  0  0  0  0  0
   -0.6252   -0.8414    0.1352 H   0  0  0  0  0  0  0  0  0  0  0  0
    1.4973    3.2717    0.1415 H   0  0  0  0  0  0  0  0  0  0  0  0
   -0.4767   -3.2775   -0.2024 H   0  0  0  0  0  0  0  0  0  0  0  0
   -0.5045    4.7676    0.8057 H   0  0  0  0  0  0  0  0  0  0  0  0
    0.9064   -5.1773   -0.7711 H   0  0  0  0  0  0  0  0  0  0  0  0
    4.9669   -1.5779   -0.7847 H   0  0  0  0  0  0  0  0  0  0  0  0
    5.2771   -3.3043   -1.0589 H   0  0  0  0  0  0  0  0  0  0  0  0
    3.2586   -4.8710   -1.2998 H   0  0  0  0  0  0  0  0  0  0  0  0
    5.7153   -2.0445   -2.8531 H   0  0  0  0  0  0  0  0  0  0  0  0
  1  2  2  0  0  0  0 
  1  3  1  0  0  0  0 
  2  4  1  0  0  0  0 
  3  5  1  0  0  0  0 
  3  6  2  0  0  0  0 
  4  7  2  0  0  0  0 
  4  8  1  0  0  0  0 
  5  9  1  0  0  0  0 
  6 10  1  0  0  0  0 
  7 11  1  0  0  0  0 
  8 12  2  0  0  0  0 
  9 10  2  0  0  0  0 
  9 13  1  0  0  0  0 
 11 14  1  0  0  0  0 
 11 15  2  0  0  0  0 
 12 15  1  0  0  0  0 
 13 16  1  0  0  0  0 
 13 17  2  0  0  0  0 
 14 18  1  0  0  0  0 
  1 19  1  0  0  0  0 
  2 20  1  0  0  0  0 
  6 21  1  0  0  0  0 
  8 22  1  0  0  0  0 
 10 23  1  0  0  0  0 
 12 24  1  0  0  0  0 
 14 25  1  0  0  0  0 
 14 26  1  0  0  0  0 
 15 27  1  0  0  0  0 
 18 28  1  0  0  0  0 
M  CHG  1  13   1
M  CHG  1  16  -1
M  END
> <cdk:Title>
nifurpirinol

> <Conformer>
1

> <SuperDrugID>
SD002912

$$$$
