quinapril
  CDK     0628171801

 62 64  0  0  0  0  0  0  0  0999 V2000
   -1.4171    3.9291   -2.4876 C   0  0  0  0  0  0  0  0  0  0  0  0
   -2.4070    2.8030   -2.4858 C   0  0  1  0  0  0  0  0  0  0  0  0
   -0.2667    3.5561   -2.8182 O   0  0  0  0  0  0  0  0  0  0  0  0
   -1.6584    5.2700   -2.1517 N   0  0  0  0  0  0  0  0  0  0  0  0
   -3.2031    2.7313   -1.2273 N   0  0  2  0  0  0  0  0  0  0  0  0
   -3.3370    2.8016   -3.7279 C   0  0  0  0  0  0  0  0  0  0  0  0
   -0.6135    6.2695   -1.8849 C   0  0  2  0  0  0  0  0  0  0  0  0
   -3.0113    5.8139   -2.0527 C   0  0  1  0  0  0  0  0  0  0  0  0
   -2.4919    2.4188    0.0441 C   0  0  1  0  0  0  0  0  0  0  0  0
    0.8212    5.9373   -2.1130 C   0  0  0  0  0  0  0  0  0  0  0  0
   -0.7770    6.8006   -0.4225 C   0  0  2  0  0  0  0  0  0  0  0  0
   -3.2603    6.6513   -0.8514 C   0  0  0  0  0  0  0  0  0  0  0  0
   -3.4659    2.5719    1.2513 C   0  0  1  0  0  0  0  0  0  0  0  0
   -1.9080    1.0581    0.0120 C   0  0  0  0  0  0  0  0  0  0  0  0
    1.5116    6.5006   -3.1319 O   0  0  0  0  0  0  0  0  0  0  0  0
    1.4404    5.1420   -1.3685 O   0  0  0  0  0  0  0  0  0  0  0  0
   -2.1828    7.0830   -0.0381 C   0  0  0  0  0  0  0  0  0  0  0  0
   -4.5836    7.0027   -0.4978 C   0  0  0  0  0  0  0  0  0  0  0  0
   -3.9924    4.0213    1.4047 C   0  0  2  0  0  0  0  0  0  0  0  0
   -0.5502    0.9249    0.0594 O   0  0  0  0  0  0  0  0  0  0  0  0
   -2.6560    0.0560   -0.0889 O   0  0  0  0  0  0  0  0  0  0  0  0
   -2.4561    7.7743    1.1649 C   0  0  0  0  0  0  0  0  0  0  0  0
   -4.8419    7.7099    0.6878 C   0  0  0  0  0  0  0  0  0  0  0  0
   -4.8243    4.2482    2.6151 C   0  0  0  0  0  0  0  0  0  0  0  0
    0.1887   -0.3003    0.0120 C   0  0  1  0  0  0  0  0  0  0  0  0
   -3.7795    8.0825    1.5283 C   0  0  0  0  0  0  0  0  0  0  0  0
   -6.2084    3.9528    2.6040 C   0  0  0  0  0  0  0  0  0  0  0  0
   -4.2544    4.8016    3.7869 C   0  0  0  0  0  0  0  0  0  0  0  0
    1.6982    0.0019    0.0166 C   0  0  0  0  0  0  0  0  0  0  0  0
   -7.0085    4.2338    3.7282 C   0  0  0  0  0  0  0  0  0  0  0  0
   -5.0545    5.0790    4.9107 C   0  0  0  0  0  0  0  0  0  0  0  0
   -6.4323    4.7998    4.8797 C   0  0  0  0  0  0  0  0  0  0  0  0
   -1.8640    1.8535   -2.5575 H   0  0  0  0  0  0  0  0  0  0  0  0
   -3.9174    2.0107   -1.3517 H   0  0  0  0  0  0  0  0  0  0  0  0
   -2.7477    2.6803   -4.6389 H   0  0  0  0  0  0  0  0  0  0  0  0
   -3.9220    3.7153   -3.8198 H   0  0  0  0  0  0  0  0  0  0  0  0
   -4.0321    1.9617   -3.6609 H   0  0  0  0  0  0  0  0  0  0  0  0
   -0.8153    7.1130   -2.5576 H   0  0  0  0  0  0  0  0  0  0  0  0
   -3.2002    6.4323   -2.9345 H   0  0  0  0  0  0  0  0  0  0  0  0
   -3.7771    5.0448   -2.0487 H   0  0  0  0  0  0  0  0  0  0  0  0
   -1.6840    3.1451    0.1796 H   0  0  0  0  0  0  0  0  0  0  0  0
   -0.1896    7.7204   -0.3215 H   0  0  0  0  0  0  0  0  0  0  0  0
   -0.3845    6.0674    0.2890 H   0  0  0  0  0  0  0  0  0  0  0  0
   -4.3160    1.8936    1.1273 H   0  0  0  0  0  0  0  0  0  0  0  0
   -2.9391    2.2959    2.1698 H   0  0  0  0  0  0  0  0  0  0  0  0
    2.4565    6.2753   -3.2641 H   0  0  0  0  0  0  0  0  0  0  0  0
   -5.3699    6.7314   -1.0918 H   0  0  0  0  0  0  0  0  0  0  0  0
   -4.5808    4.2782    0.5204 H   0  0  0  0  0  0  0  0  0  0  0  0
   -3.1319    4.6946    1.4299 H   0  0  0  0  0  0  0  0  0  0  0  0
   -1.6926    8.0602    1.7815 H   0  0  0  0  0  0  0  0  0  0  0  0
   -5.8031    7.9506    0.9405 H   0  0  0  0  0  0  0  0  0  0  0  0
   -0.0612   -0.9145    0.8793 H   0  0  0  0  0  0  0  0  0  0  0  0
   -0.0666   -0.8510   -0.8963 H   0  0  0  0  0  0  0  0  0  0  0  0
   -3.9691    8.5772    2.4043 H   0  0  0  0  0  0  0  0  0  0  0  0
   -6.6416    3.5407    1.7731 H   0  0  0  0  0  0  0  0  0  0  0  0
   -3.2531    5.0095    3.8269 H   0  0  0  0  0  0  0  0  0  0  0  0
    2.2629   -0.9320   -0.0086 H   0  0  0  0  0  0  0  0  0  0  0  0
    1.9648    0.5993   -0.8581 H   0  0  0  0  0  0  0  0  0  0  0  0
    1.9705    0.5526    0.9193 H   0  0  0  0  0  0  0  0  0  0  0  0
   -8.0102    4.0298    3.7090 H   0  0  0  0  0  0  0  0  0  0  0  0
   -4.6349    5.4862    5.7492 H   0  0  0  0  0  0  0  0  0  0  0  0
   -7.0145    5.0088    5.6941 H   0  0  0  0  0  0  0  0  0  0  0  0
  2  1  1  0  0  0  0 
  1  3  2  0  0  0  0 
  1  4  1  0  0  0  0 
  2  5  1  0  0  0  0 
  2  6  1  0  0  0  0 
  7  4  1  0  0  0  0 
  4  8  1  0  0  0  0 
  9  5  1  0  0  0  0 
  7 10  1  0  0  0  0 
  7 11  1  0  0  0  0 
  8 12  1  0  0  0  0 
  9 13  1  0  0  0  0 
  9 14  1  0  0  0  0 
 10 15  1  0  0  0  0 
 10 16  2  0  0  0  0 
 11 17  1  0  0  0  0 
 12 17  2  0  0  0  0 
 12 18  1  0  0  0  0 
 13 19  1  0  0  0  0 
 14 20  1  0  0  0  0 
 14 21  2  0  0  0  0 
 17 22  1  0  0  0  0 
 18 23  2  0  0  0  0 
 19 24  1  0  0  0  0 
 20 25  1  0  0  0  0 
 22 26  2  0  0  0  0 
 23 26  1  0  0  0  0 
 24 27  2  0  0  0  0 
 24 28  1  0  0  0  0 
 25 29  1  0  0  0  0 
 27 30  1  0  0  0  0 
 28 31  2  0  0  0  0 
 30 32  2  0  0  0  0 
 31 32  1  0  0  0  0 
  2 33  1  0  0  0  0 
  5 34  1  0  0  0  0 
  6 35  1  0  0  0  0 
  6 36  1  0  0  0  0 
  6 37  1  0  0  0  0 
  7 38  1  0  0  0  0 
  8 39  1  0  0  0  0 
  8 40  1  0  0  0  0 
  9 41  1  0  0  0  0 
 11 42  1  0  0  0  0 
 11 43  1  0  0  0  0 
 13 44  1  0  0  0  0 
 13 45  1  0  0  0  0 
 15 46  1  0  0  0  0 
 18 47  1  0  0  0  0 
 19 48  1  0  0  0  0 
 19 49  1  0  0  0  0 
 22 50  1  0  0  0  0 
 23 51  1  0  0  0  0 
 25 52  1  0  0  0  0 
 25 53  1  0  0  0  0 
 26 54  1  0  0  0  0 
 27 55  1  0  0  0  0 
 28 56  1  0  0  0  0 
 29 57  1  0  0  0  0 
 29 58  1  0  0  0  0 
 29 59  1  0  0  0  0 
 30 60  1  0  0  0  0 
 31 61  1  0  0  0  0 
 32 62  1  0  0  0  0 
M  END
> <cdk:Title>
quinapril

> <Conformer>
1

> <SuperDrugID>
SD002104

$$$$
