entacapone
  CDK     0628171801

 37 37  0  0  0  0  0  0  0  0999 V2000
    3.8705    2.8151   -1.2184 C   0  0  0  0  0  0  0  0  0  0  0  0
    4.9696    3.1555   -0.5056 C   0  0  0  0  0  0  0  0  0  0  0  0
    2.5535    3.2208   -0.9817 C   0  0  0  0  0  0  0  0  0  0  0  0
    6.2129    2.6204   -0.8239 C   0  0  0  0  0  0  0  0  0  0  0  0
    4.9388    3.9646    0.4879 C   0  0  0  0  0  0  0  0  0  0  0  0
    1.7475    3.6765   -2.0515 C   0  0  0  0  0  0  0  0  0  0  0  0
    1.9839    3.1652    0.3089 C   0  0  0  0  0  0  0  0  0  0  0  0
    7.2714    3.3143   -1.4146 N   0  0  0  0  0  0  0  0  0  0  0  0
    6.3398    1.4104   -0.5105 O   0  0  0  0  0  0  0  0  0  0  0  0
    4.9050    4.6963    1.3729 N   0  0  0  0  0  0  0  0  0  0  0  0
    0.4068    4.1101   -1.8628 C   0  0  0  0  0  0  0  0  0  0  0  0
    0.6695    3.5982    0.5374 C   0  0  0  0  0  0  0  0  0  0  0  0
    7.1452    4.6974   -1.8511 C   0  0  1  0  0  0  0  0  0  0  0  0
    8.5528    2.6505   -1.6096 C   0  0  1  0  0  0  0  0  0  0  0  0
   -0.3083    4.5645   -2.9165 N   0  0  0  0  0  0  0  0  0  0  0  0
   -0.1213    4.0530   -0.5398 C   0  0  0  0  0  0  0  0  0  0  0  0
    0.1794    3.5722    1.8049 O   0  0  0  0  0  0  0  0  0  0  0  0
    6.3437    4.8372   -3.1659 C   0  0  0  0  0  0  0  0  0  0  0  0
    9.4499    2.7771   -0.3564 C   0  0  0  0  0  0  0  0  0  0  0  0
    0.2239    4.8740   -4.0297 O   0  0  0  0  0  0  0  0  0  0  0  0
   -1.4668    4.7103   -2.8998 O   0  0  0  0  0  0  0  0  0  0  0  0
   -1.3983    4.4423   -0.2776 O   0  0  0  0  0  0  0  0  0  0  0  0
    3.9989    2.2270   -2.0136 H   0  0  0  0  0  0  0  0  0  0  0  0
    2.1521    3.6994   -2.9928 H   0  0  0  0  0  0  0  0  0  0  0  0
    2.5193    2.7955    1.0995 H   0  0  0  0  0  0  0  0  0  0  0  0
    6.6740    5.3061   -1.0782 H   0  0  0  0  0  0  0  0  0  0  0  0
    8.1282    5.1508   -2.0101 H   0  0  0  0  0  0  0  0  0  0  0  0
    8.4210    1.5900   -1.8455 H   0  0  0  0  0  0  0  0  0  0  0  0
    9.0921    3.0709   -2.4648 H   0  0  0  0  0  0  0  0  0  0  0  0
    0.9276    3.3088    2.3828 H   0  0  0  0  0  0  0  0  0  0  0  0
    6.4357    5.8572   -3.5482 H   0  0  0  0  0  0  0  0  0  0  0  0
    6.7159    4.1395   -3.9169 H   0  0  0  0  0  0  0  0  0  0  0  0
    5.2888    4.6237   -2.9978 H   0  0  0  0  0  0  0  0  0  0  0  0
   10.3648    2.1972   -0.4873 H   0  0  0  0  0  0  0  0  0  0  0  0
    9.7209    3.8223   -0.1947 H   0  0  0  0  0  0  0  0  0  0  0  0
    8.9294    2.4022    0.5261 H   0  0  0  0  0  0  0  0  0  0  0  0
   -1.5549    4.2595    0.6701 H   0  0  0  0  0  0  0  0  0  0  0  0
  1  2  2  0  0  0  0 
  1  3  1  0  0  0  0 
  2  4  1  0  0  0  0 
  2  5  1  0  0  0  0 
  3  6  2  0  0  0  0 
  3  7  1  0  0  0  0 
  4  8  1  0  0  0  0 
  4  9  2  0  0  0  0 
  5 10  3  0  0  0  0 
  6 11  1  0  0  0  0 
  7 12  2  0  0  0  0 
  8 13  1  0  0  0  0 
  8 14  1  0  0  0  0 
 11 15  1  0  0  0  0 
 11 16  2  0  0  0  0 
 12 16  1  0  0  0  0 
 12 17  1  0  0  0  0 
 13 18  1  0  0  0  0 
 14 19  1  0  0  0  0 
 15 20  1  0  0  0  0 
 15 21  2  0  0  0  0 
 16 22  1  0  0  0  0 
  1 23  1  0  0  0  0 
  6 24  1  0  0  0  0 
  7 25  1  0  0  0  0 
 13 26  1  0  0  0  0 
 13 27  1  0  0  0  0 
 14 28  1  0  0  0  0 
 14 29  1  0  0  0  0 
 17 30  1  0  0  0  0 
 18 31  1  0  0  0  0 
 18 32  1  0  0  0  0 
 18 33  1  0  0  0  0 
 19 34  1  0  0  0  0 
 19 35  1  0  0  0  0 
 19 36  1  0  0  0  0 
 22 37  1  0  0  0  0 
M  CHG  1  15   1
M  CHG  1  20  -1
M  END
> <cdk:Title>
entacapone

> <Conformer>
1

> <SuperDrugID>
SD000905

$$$$
