vigabatrin
  CDK     0628171801

 20 19  0  0  0  0  0  0  0  0999 V2000
   -3.6401   -1.8389   -0.4411 N   0  0  1  0  0  0  0  0  0  0  0  0
   -2.8447   -2.0437    0.7844 C   0  0  1  0  0  0  0  0  0  0  0  0
   -1.7773   -0.9199    0.9574 C   0  0  1  0  0  0  0  0  0  0  0  0
   -0.7508   -0.8590   -0.2072 C   0  0  2  0  0  0  0  0  0  0  0  0
    0.2970    0.1562    0.0182 C   0  0  0  0  0  0  0  0  0  0  0  0
   -0.0282    1.4659    0.1206 O   0  0  0  0  0  0  0  0  0  0  0  0
    1.5028   -0.1706    0.1105 O   0  0  0  0  0  0  0  0  0  0  0  0
   -3.7597   -2.1132    1.9186 C   0  0  0  0  0  0  0  0  0  0  0  0
   -3.4015   -2.5218    3.1421 C   0  0  0  0  0  0  0  0  0  0  0  0
   -3.0113   -1.9261   -1.2414 H   0  0  0  0  0  0  0  0  0  0  0  0
   -4.2961   -2.6222   -0.4967 H   0  0  0  0  0  0  0  0  0  0  0  0
   -2.3347   -3.0072    0.6847 H   0  0  0  0  0  0  0  0  0  0  0  0
   -2.2795    0.0499    1.0477 H   0  0  0  0  0  0  0  0  0  0  0  0
   -1.2226   -1.0972    1.8846 H   0  0  0  0  0  0  0  0  0  0  0  0
   -1.2635   -0.6125   -1.1389 H   0  0  0  0  0  0  0  0  0  0  0  0
   -0.2851   -1.8414   -0.3260 H   0  0  0  0  0  0  0  0  0  0  0  0
    0.6688    2.1379    0.2743 H   0  0  0  0  0  0  0  0  0  0  0  0
   -4.7073   -1.8384    1.7921 H   0  0  0  0  0  0  0  0  0  0  0  0
   -2.4746   -2.8110    3.3409 H   0  0  0  0  0  0  0  0  0  0  0  0
   -4.0698   -2.5424    3.8760 H   0  0  0  0  0  0  0  0  0  0  0  0
  2  1  1  0  0  0  0 
  2  3  1  0  0  0  0 
  3  4  1  0  0  0  0 
  4  5  1  0  0  0  0 
  5  6  1  0  0  0  0 
  5  7  2  0  0  0  0 
  2  8  1  0  0  0  0 
  8  9  2  0  0  0  0 
  1 10  1  0  0  0  0 
  1 11  1  0  0  0  0 
  2 12  1  0  0  0  0 
  3 13  1  0  0  0  0 
  3 14  1  0  0  0  0 
  4 15  1  0  0  0  0 
  4 16  1  0  0  0  0 
  6 17  1  0  0  0  0 
  8 18  1  0  0  0  0 
  9 19  1  0  0  0  0 
  9 20  1  0  0  0  0 
M  END
> <cdk:Title>
vigabatrin

> <Conformer>
1

> <SuperDrugID>
SD002543

$$$$
