stepronin
  CDK     0628171801

 28 28  0  0  0  0  0  0  0  0999 V2000
    0.1648    2.9542    1.0174 C   0  0  0  0  0  0  0  0  0  0  0  0
    0.7626    4.5581    0.6240 S   0  0  0  0  0  0  0  0  0  0  0  0
    0.9878    2.0326    1.2188 O   0  0  0  0  0  0  0  0  0  0  0  0
   -1.2102    2.6727    1.1093 C   0  0  0  0  0  0  0  0  0  0  0  0
    2.4376    4.3288   -0.0704 C   0  0  2  0  0  0  0  0  0  0  0  0
   -2.2982    3.5590    1.0404 C   0  0  0  0  0  0  0  0  0  0  0  0
   -1.8998    1.0708    1.3220 S   0  0  0  0  0  0  0  0  0  0  0  0
    3.0780    5.6586   -0.1904 C   0  0  0  0  0  0  0  0  0  0  0  0
    2.3981    3.5882   -1.4310 C   0  0  0  0  0  0  0  0  0  0  0  0
   -3.5724    2.9699    1.1371 C   0  0  0  0  0  0  0  0  0  0  0  0
   -3.5740    1.5826    1.2915 C   0  0  0  0  0  0  0  0  0  0  0  0
    4.1441    5.9593    0.5992 N   0  0  0  0  0  0  0  0  0  0  0  0
    2.6263    6.4970   -1.0088 O   0  0  0  0  0  0  0  0  0  0  0  0
    4.8720    7.1847    0.5538 C   0  0  1  0  0  0  0  0  0  0  0  0
    5.8942    7.2048    1.6106 C   0  0  0  0  0  0  0  0  0  0  0  0
    7.2093    7.2687    1.2960 O   0  0  0  0  0  0  0  0  0  0  0  0
    5.5596    7.1692    2.8167 O   0  0  0  0  0  0  0  0  0  0  0  0
    3.0079    3.7155    0.6324 H   0  0  0  0  0  0  0  0  0  0  0  0
   -2.1874    4.5688    0.9274 H   0  0  0  0  0  0  0  0  0  0  0  0
    3.4083    3.4866   -1.8377 H   0  0  0  0  0  0  0  0  0  0  0  0
    1.9804    2.5878   -1.3076 H   0  0  0  0  0  0  0  0  0  0  0  0
    1.7836    4.1355   -2.1504 H   0  0  0  0  0  0  0  0  0  0  0  0
   -4.4367    3.5149    1.0953 H   0  0  0  0  0  0  0  0  0  0  0  0
   -4.3921    0.9772    1.3707 H   0  0  0  0  0  0  0  0  0  0  0  0
    4.4367    5.2835    1.2319 H   0  0  0  0  0  0  0  0  0  0  0  0
    5.3531    7.2742   -0.4234 H   0  0  0  0  0  0  0  0  0  0  0  0
    4.1992    8.0351    0.6930 H   0  0  0  0  0  0  0  0  0  0  0  0
    7.8854    7.2760    2.0058 H   0  0  0  0  0  0  0  0  0  0  0  0
  1  2  1  0  0  0  0 
  1  3  2  0  0  0  0 
  1  4  1  0  0  0  0 
  5  2  1  0  0  0  0 
  4  6  2  0  0  0  0 
  4  7  1  0  0  0  0 
  5  8  1  0  0  0  0 
  5  9  1  0  0  0  0 
  6 10  1  0  0  0  0 
  7 11  1  0  0  0  0 
  8 12  1  0  0  0  0 
  8 13  2  0  0  0  0 
 10 11  2  0  0  0  0 
 12 14  1  0  0  0  0 
 14 15  1  0  0  0  0 
 15 16  1  0  0  0  0 
 15 17  2  0  0  0  0 
  5 18  1  0  0  0  0 
  6 19  1  0  0  0  0 
  9 20  1  0  0  0  0 
  9 21  1  0  0  0  0 
  9 22  1  0  0  0  0 
 10 23  1  0  0  0  0 
 11 24  1  0  0  0  0 
 12 25  1  0  0  0  0 
 14 26  1  0  0  0  0 
 14 27  1  0  0  0  0 
 16 28  1  0  0  0  0 
M  END
> <cdk:Title>
stepronin

> <Conformer>
1

> <SuperDrugID>
SD002227

$$$$
