medetomidine
  CDK     0628171801

 31 32  0  0  0  0  0  0  0  0999 V2000
   -0.9561   -0.8430    0.8149 C   0  0  2  0  0  0  0  0  0  0  0  0
   -0.2508   -2.0870    1.4223 C   0  0  0  0  0  0  0  0  0  0  0  0
   -1.9033   -1.2104   -0.3059 C   0  0  0  0  0  0  0  0  0  0  0  0
    0.0115    0.2012    0.3835 C   0  0  0  0  0  0  0  0  0  0  0  0
   -3.3319   -1.0640   -0.2460 C   0  0  0  0  0  0  0  0  0  0  0  0
   -1.3284   -1.7390   -1.4925 C   0  0  0  0  0  0  0  0  0  0  0  0
   -0.1929    1.5786    0.3577 C   0  0  0  0  0  0  0  0  0  0  0  0
    1.2599    0.0127   -0.0698 N   0  0  0  0  0  0  0  0  0  0  0  0
   -3.9786   -0.6096    1.0247 C   0  0  0  0  0  0  0  0  0  0  0  0
   -4.1255   -1.3628   -1.4035 C   0  0  0  0  0  0  0  0  0  0  0  0
   -2.1103   -2.0747   -2.6023 C   0  0  0  0  0  0  0  0  0  0  0  0
    0.9134    2.1813   -0.1045 N   0  0  0  0  0  0  0  0  0  0  0  0
    1.7961    1.2037   -0.3637 C   0  0  0  0  0  0  0  0  0  0  0  0
   -5.6012   -1.1479   -1.4672 C   0  0  0  0  0  0  0  0  0  0  0  0
   -3.4941   -1.8738   -2.5612 C   0  0  0  0  0  0  0  0  0  0  0  0
   -1.4844   -0.3977    1.6583 H   0  0  0  0  0  0  0  0  0  0  0  0
    0.3747   -1.7876    2.2666 H   0  0  0  0  0  0  0  0  0  0  0  0
    0.3817   -2.5892    0.6888 H   0  0  0  0  0  0  0  0  0  0  0  0
   -0.9923   -2.8015    1.7860 H   0  0  0  0  0  0  0  0  0  0  0  0
   -0.3178   -1.8857   -1.5661 H   0  0  0  0  0  0  0  0  0  0  0  0
   -1.0464    2.0611    0.6468 H   0  0  0  0  0  0  0  0  0  0  0  0
    1.7005   -0.8454   -0.1735 H   0  0  0  0  0  0  0  0  0  0  0  0
   -3.6789    0.4165    1.2389 H   0  0  0  0  0  0  0  0  0  0  0  0
   -3.6731   -1.2614    1.8452 H   0  0  0  0  0  0  0  0  0  0  0  0
   -5.0664   -0.6287    1.0133 H   0  0  0  0  0  0  0  0  0  0  0  0
   -1.6731   -2.4578   -3.4445 H   0  0  0  0  0  0  0  0  0  0  0  0
    2.7377    1.3452   -0.7317 H   0  0  0  0  0  0  0  0  0  0  0  0
   -5.8269   -0.0985   -1.2643 H   0  0  0  0  0  0  0  0  0  0  0  0
   -6.0243   -1.3889   -2.4452 H   0  0  0  0  0  0  0  0  0  0  0  0
   -6.1032   -1.7783   -0.7311 H   0  0  0  0  0  0  0  0  0  0  0  0
   -4.0366   -2.1081   -3.3975 H   0  0  0  0  0  0  0  0  0  0  0  0
  1  2  1  0  0  0  0 
  1  3  1  0  0  0  0 
  1  4  1  0  0  0  0 
  3  5  2  0  0  0  0 
  3  6  1  0  0  0  0 
  4  7  2  0  0  0  0 
  4  8  1  0  0  0  0 
  5  9  1  0  0  0  0 
  5 10  1  0  0  0  0 
  6 11  2  0  0  0  0 
  7 12  1  0  0  0  0 
  8 13  1  0  0  0  0 
 10 14  1  0  0  0  0 
 10 15  2  0  0  0  0 
 11 15  1  0  0  0  0 
 12 13  2  0  0  0  0 
 16  1  1  0  0  0  0 
 17  2  1  0  0  0  0 
 18  2  1  0  0  0  0 
 19  2  1  0  0  0  0 
 20  6  1  0  0  0  0 
 21  7  1  0  0  0  0 
 22  8  1  0  0  0  0 
 23  9  1  0  0  0  0 
 24  9  1  0  0  0  0 
 25  9  1  0  0  0  0 
 26 11  1  0  0  0  0 
 27 13  1  0  0  0  0 
 28 14  1  0  0  0  0 
 29 14  1  0  0  0  0 
 30 14  1  0  0  0  0 
 31 15  1  0  0  0  0 
M  END
> <cdk:Title>
medetomidine

> <Conformer>
1

> <SuperDrugID>
SD001465

$$$$
