benexate
  CDK     0628171801

 57 59  0  0  0  0  0  0  0  0999 V2000
   -3.5282   -1.3101    2.8226 C   0  0  0  0  0  0  0  0  0  0  0  0
   -2.6622   -2.2705    2.3919 O   0  0  0  0  0  0  0  0  0  0  0  0
   -4.2741   -0.6995    2.0194 O   0  0  0  0  0  0  0  0  0  0  0  0
   -3.5350   -0.9467    4.1861 C   0  0  0  0  0  0  0  0  0  0  0  0
   -2.5018   -2.7255    1.0425 C   0  0  1  0  0  0  0  0  0  0  0  0
   -3.2927    0.3945    4.5822 C   0  0  0  0  0  0  0  0  0  0  0  0
   -3.7861   -1.9312    5.1685 C   0  0  0  0  0  0  0  0  0  0  0  0
   -1.2642   -3.5349    0.9819 C   0  0  0  0  0  0  0  0  0  0  0  0
   -2.9264    1.2667    3.5918 O   0  0  0  0  0  0  0  0  0  0  0  0
   -3.3539    0.7380    5.9527 C   0  0  0  0  0  0  0  0  0  0  0  0
   -3.8276   -1.5824    6.5308 C   0  0  0  0  0  0  0  0  0  0  0  0
   -1.3003   -4.9316    0.7621 C   0  0  0  0  0  0  0  0  0  0  0  0
   -0.0101   -2.9044    1.1631 C   0  0  0  0  0  0  0  0  0  0  0  0
   -2.7658    2.6165    3.4793 C   0  0  0  0  0  0  0  0  0  0  0  0
   -3.6201   -0.2477    6.9223 C   0  0  0  0  0  0  0  0  0  0  0  0
   -0.1086   -5.6800    0.7477 C   0  0  0  0  0  0  0  0  0  0  0  0
    1.1780   -3.6579    1.1563 C   0  0  0  0  0  0  0  0  0  0  0  0
   -3.1265    3.4142    4.3769 O   0  0  0  0  0  0  0  0  0  0  0  0
   -2.1772    3.0725    2.1926 C   0  0  1  0  0  0  0  0  0  0  0  0
    1.1310   -5.0472    0.9484 C   0  0  0  0  0  0  0  0  0  0  0  0
   -2.1954    4.6153    1.9695 C   0  0  2  0  0  0  0  0  0  0  0  0
   -0.7182    2.5341    2.0581 C   0  0  1  0  0  0  0  0  0  0  0  0
   -1.5754    5.0044    0.5969 C   0  0  2  0  0  0  0  0  0  0  0  0
   -0.0829    2.9080    0.6959 C   0  0  2  0  0  0  0  0  0  0  0  0
   -0.1298    4.4430    0.4118 C   0  0  1  0  0  0  0  0  0  0  0  0
    0.4526    4.7608   -1.0003 C   0  0  1  0  0  0  0  0  0  0  0  0
    1.8207    4.4764   -1.0384 N   0  0  0  0  0  0  0  0  0  0  0  0
    2.5938    4.2858   -2.0458 C   0  0  0  0  0  0  0  0  0  0  0  0
    2.1911    4.3022   -3.3004 N   0  0  0  0  0  0  0  0  0  0  0  0
    3.8624    4.0439   -1.8096 N   0  0  0  0  0  0  0  0  0  0  0  0
   -3.3864   -3.2989    0.7572 H   0  0  0  0  0  0  0  0  0  0  0  0
   -2.4152   -1.8788    0.3544 H   0  0  0  0  0  0  0  0  0  0  0  0
   -3.9534   -2.9063    4.9002 H   0  0  0  0  0  0  0  0  0  0  0  0
   -3.1859    1.6975    6.2602 H   0  0  0  0  0  0  0  0  0  0  0  0
   -4.0059   -2.3008    7.2375 H   0  0  0  0  0  0  0  0  0  0  0  0
   -2.1900   -5.4151    0.6152 H   0  0  0  0  0  0  0  0  0  0  0  0
    0.0467   -1.8916    1.2999 H   0  0  0  0  0  0  0  0  0  0  0  0
   -3.6521    0.0037    7.9144 H   0  0  0  0  0  0  0  0  0  0  0  0
   -0.1426   -6.6880    0.5937 H   0  0  0  0  0  0  0  0  0  0  0  0
    2.0762   -3.1953    1.3025 H   0  0  0  0  0  0  0  0  0  0  0  0
   -2.7810    2.6205    1.3980 H   0  0  0  0  0  0  0  0  0  0  0  0
    1.9951   -5.5961    0.9435 H   0  0  0  0  0  0  0  0  0  0  0  0
   -1.6386    5.1110    2.7721 H   0  0  0  0  0  0  0  0  0  0  0  0
   -3.2267    4.9793    2.0037 H   0  0  0  0  0  0  0  0  0  0  0  0
   -0.0947    2.9408    2.8616 H   0  0  0  0  0  0  0  0  0  0  0  0
   -0.7076    1.4430    2.1483 H   0  0  0  0  0  0  0  0  0  0  0  0
   -1.5547    6.0959    0.5270 H   0  0  0  0  0  0  0  0  0  0  0  0
   -2.2215    4.6317   -0.2032 H   0  0  0  0  0  0  0  0  0  0  0  0
   -0.6039    2.3648   -0.0986 H   0  0  0  0  0  0  0  0  0  0  0  0
    0.9567    2.5680    0.6994 H   0  0  0  0  0  0  0  0  0  0  0  0
    0.5019    4.9423    1.1539 H   0  0  0  0  0  0  0  0  0  0  0  0
   -0.0856    4.1767   -1.7537 H   0  0  0  0  0  0  0  0  0  0  0  0
    0.3176    5.8196   -1.2351 H   0  0  0  0  0  0  0  0  0  0  0  0
    2.8274    4.1347   -4.0143 H   0  0  0  0  0  0  0  0  0  0  0  0
    1.2603    4.4688   -3.5144 H   0  0  0  0  0  0  0  0  0  0  0  0
    4.4714    3.8829   -2.5466 H   0  0  0  0  0  0  0  0  0  0  0  0
    4.1974    4.0281   -0.8998 H   0  0  0  0  0  0  0  0  0  0  0  0
  1  2  1  0  0  0  0 
  1  3  2  0  0  0  0 
  1  4  1  0  0  0  0 
  2  5  1  0  0  0  0 
  4  6  2  0  0  0  0 
  4  7  1  0  0  0  0 
  5  8  1  0  0  0  0 
  6  9  1  0  0  0  0 
  6 10  1  0  0  0  0 
  7 11  2  0  0  0  0 
  8 12  2  0  0  0  0 
  8 13  1  0  0  0  0 
  9 14  1  0  0  0  0 
 10 15  2  0  0  0  0 
 11 15  1  0  0  0  0 
 12 16  1  0  0  0  0 
 13 17  2  0  0  0  0 
 14 18  2  0  0  0  0 
 16 20  2  0  0  0  0 
 17 20  1  0  0  0  0 
 19 14  1  0  0  0  0 
 19 21  1  0  0  0  0 
 19 22  1  0  0  0  0 
 21 23  1  0  0  0  0 
 22 24  1  0  0  0  0 
 25 23  1  0  0  0  0 
 25 24  1  0  0  0  0 
 25 26  1  0  0  0  0 
 26 27  1  0  0  0  0 
 27 28  2  0  0  0  0 
 28 29  1  0  0  0  0 
 28 30  1  0  0  0  0 
 31  5  1  0  0  0  0 
 32  5  1  0  0  0  0 
 33  7  1  0  0  0  0 
 34 10  1  0  0  0  0 
 35 11  1  0  0  0  0 
 36 12  1  0  0  0  0 
 37 13  1  0  0  0  0 
 38 15  1  0  0  0  0 
 39 16  1  0  0  0  0 
 40 17  1  0  0  0  0 
 19 41  1  0  0  0  0 
 42 20  1  0  0  0  0 
 43 21  1  0  0  0  0 
 44 21  1  0  0  0  0 
 45 22  1  0  0  0  0 
 46 22  1  0  0  0  0 
 47 23  1  0  0  0  0 
 48 23  1  0  0  0  0 
 49 24  1  0  0  0  0 
 50 24  1  0  0  0  0 
 25 51  1  0  0  0  0 
 52 26  1  0  0  0  0 
 53 26  1  0  0  0  0 
 54 29  1  0  0  0  0 
 55 29  1  0  0  0  0 
 56 30  1  0  0  0  0 
 57 30  1  0  0  0  0 
M  END
> <cdk:Title>
benexate

> <Conformer>
1

> <SuperDrugID>
SD002620

$$$$
