pindolol
  CDK     0628171801

 38 39  0  0  0  0  0  0  0  0999 V2000
    0.3292   -0.8027   -0.0857 O   0  0  0  0  0  0  0  0  0  0  0  0
   -0.5150   -1.0014   -1.2393 C   0  0  1  0  0  0  0  0  0  0  0  0
    0.6496    0.5061    0.1475 C   0  0  0  0  0  0  0  0  0  0  0  0
   -0.6910   -2.5166   -1.5105 C   0  0  1  0  0  0  0  0  0  0  0  0
    1.8166    1.0770   -0.3974 C   0  0  0  0  0  0  0  0  0  0  0  0
   -0.1569    1.3200    0.9775 C   0  0  0  0  0  0  0  0  0  0  0  0
    0.6626   -3.2319   -1.7695 C   0  0  2  0  0  0  0  0  0  0  0  0
   -1.3664   -3.1047   -0.3984 O   0  0  0  0  0  0  0  0  0  0  0  0
    2.1550    2.4115   -0.1646 C   0  0  0  0  0  0  0  0  0  0  0  0
    2.8178    0.5407   -1.1997 C   0  0  0  0  0  0  0  0  0  0  0  0
    0.1932    2.6684    1.2236 C   0  0  0  0  0  0  0  0  0  0  0  0
    0.4625   -4.6468   -2.1638 N   0  0  1  0  0  0  0  0  0  0  0  0
    3.3032    2.6828   -0.8071 N   0  0  0  0  0  0  0  0  0  0  0  0
    1.3491    3.2321    0.6433 C   0  0  0  0  0  0  0  0  0  0  0  0
    3.7282    1.5692   -1.4338 C   0  0  0  0  0  0  0  0  0  0  0  0
    1.7017   -5.4580   -2.3215 C   0  0  1  0  0  0  0  0  0  0  0  0
    1.2887   -6.9433   -2.4702 C   0  0  0  0  0  0  0  0  0  0  0  0
    2.5650   -5.0018   -3.5304 C   0  0  0  0  0  0  0  0  0  0  0  0
   -1.4989   -0.5574   -1.0625 H   0  0  0  0  0  0  0  0  0  0  0  0
   -0.0870   -0.5365   -2.1335 H   0  0  0  0  0  0  0  0  0  0  0  0
   -1.3276   -2.6365   -2.3926 H   0  0  0  0  0  0  0  0  0  0  0  0
   -0.9991    0.9297    1.4074 H   0  0  0  0  0  0  0  0  0  0  0  0
    1.2799   -3.1859   -0.8685 H   0  0  0  0  0  0  0  0  0  0  0  0
    1.1855   -2.7110   -2.5732 H   0  0  0  0  0  0  0  0  0  0  0  0
   -1.5981   -4.0139   -0.6822 H   0  0  0  0  0  0  0  0  0  0  0  0
    2.8795   -0.4202   -1.5475 H   0  0  0  0  0  0  0  0  0  0  0  0
   -0.3948    3.2390    1.8352 H   0  0  0  0  0  0  0  0  0  0  0  0
   -0.0795   -5.0849   -1.4133 H   0  0  0  0  0  0  0  0  0  0  0  0
    3.7570    3.5416   -0.8138 H   0  0  0  0  0  0  0  0  0  0  0  0
    1.6015    4.2076    0.8168 H   0  0  0  0  0  0  0  0  0  0  0  0
    4.5817    1.4929   -1.9882 H   0  0  0  0  0  0  0  0  0  0  0  0
    2.3059   -5.3755   -1.4123 H   0  0  0  0  0  0  0  0  0  0  0  0
    0.7295   -7.2662   -1.5900 H   0  0  0  0  0  0  0  0  0  0  0  0
    0.6630   -7.0792   -3.3553 H   0  0  0  0  0  0  0  0  0  0  0  0
    2.1738   -7.5772   -2.5633 H   0  0  0  0  0  0  0  0  0  0  0  0
    1.9489   -4.9204   -4.4294 H   0  0  0  0  0  0  0  0  0  0  0  0
    3.0198   -4.0295   -3.3286 H   0  0  0  0  0  0  0  0  0  0  0  0
    3.3739   -5.7117   -3.7201 H   0  0  0  0  0  0  0  0  0  0  0  0
  1  2  1  0  0  0  0 
  1  3  1  0  0  0  0 
  4  2  1  0  0  0  0 
  3  5  2  0  0  0  0 
  3  6  1  0  0  0  0 
  4  7  1  0  0  0  0 
  4  8  1  0  0  0  0 
  5  9  1  0  0  0  0 
  5 10  1  0  0  0  0 
  6 11  2  0  0  0  0 
  7 12  1  0  0  0  0 
  9 13  1  0  0  0  0 
  9 14  2  0  0  0  0 
 10 15  2  0  0  0  0 
 11 14  1  0  0  0  0 
 12 16  1  0  0  0  0 
 13 15  1  0  0  0  0 
 16 17  1  0  0  0  0 
 16 18  1  0  0  0  0 
  2 19  1  0  0  0  0 
  2 20  1  0  0  0  0 
  4 21  1  0  0  0  0 
  6 22  1  0  0  0  0 
  7 23  1  0  0  0  0 
  7 24  1  0  0  0  0 
  8 25  1  0  0  0  0 
 10 26  1  0  0  0  0 
 11 27  1  0  0  0  0 
 12 28  1  0  0  0  0 
 13 29  1  0  0  0  0 
 14 30  1  0  0  0  0 
 15 31  1  0  0  0  0 
 16 32  1  0  0  0  0 
 17 33  1  0  0  0  0 
 17 34  1  0  0  0  0 
 17 35  1  0  0  0  0 
 18 36  1  0  0  0  0 
 18 37  1  0  0  0  0 
 18 38  1  0  0  0  0 
M  END
> <cdk:Title>
pindolol

> <Conformer>
1

> <SuperDrugID>
SD001953

$$$$
