proquazone
  CDK     0628171801

 39 41  0  0  0  0  0  0  0  0999 V2000
    4.5015    2.4705   -2.2831 C   0  0  2  0  0  0  0  0  0  0  0  0
    5.8801    1.8702   -1.8876 C   0  0  0  0  0  0  0  0  0  0  0  0
    4.3783    3.9784   -1.9240 C   0  0  0  0  0  0  0  0  0  0  0  0
    3.3589    1.6636   -1.8064 N   0  0  0  0  0  0  0  0  0  0  0  0
    2.4511    0.9984   -2.6376 C   0  0  0  0  0  0  0  0  0  0  0  0
    3.1725    1.5646   -0.4404 C   0  0  0  0  0  0  0  0  0  0  0  0
    1.3660    0.2508   -2.0574 C   0  0  0  0  0  0  0  0  0  0  0  0
    2.5130    1.0040   -4.0661 C   0  0  0  0  0  0  0  0  0  0  0  0
    3.9002    2.1036    0.4263 O   0  0  0  0  0  0  0  0  0  0  0  0
    2.1641    0.8512    0.0970 N   0  0  0  0  0  0  0  0  0  0  0  0
    1.2612    0.1811   -0.6434 C   0  0  0  0  0  0  0  0  0  0  0  0
    0.4107   -0.3866   -2.8865 C   0  0  0  0  0  0  0  0  0  0  0  0
    1.5683    0.3519   -4.8887 C   0  0  0  0  0  0  0  0  0  0  0  0
    0.2718   -0.5458    0.0763 C   0  0  0  0  0  0  0  0  0  0  0  0
    0.5169   -0.3471   -4.2787 C   0  0  0  0  0  0  0  0  0  0  0  0
    1.6775    0.3900   -6.3689 C   0  0  0  0  0  0  0  0  0  0  0  0
   -0.6332    0.1248    0.9336 C   0  0  0  0  0  0  0  0  0  0  0  0
    0.1581   -1.9508   -0.0608 C   0  0  0  0  0  0  0  0  0  0  0  0
   -1.6665   -0.5815    1.5800 C   0  0  0  0  0  0  0  0  0  0  0  0
   -0.8806   -2.6552    0.5775 C   0  0  0  0  0  0  0  0  0  0  0  0
   -1.8031   -1.9678    1.3859 C   0  0  0  0  0  0  0  0  0  0  0  0
    4.5651    2.5000   -3.3639 H   0  0  0  0  0  0  0  0  0  0  0  0
    5.9271    0.8211   -2.1868 H   0  0  0  0  0  0  0  0  0  0  0  0
    6.6837    2.4064   -2.3969 H   0  0  0  0  0  0  0  0  0  0  0  0
    6.0610    1.9346   -0.8153 H   0  0  0  0  0  0  0  0  0  0  0  0
    3.4053    4.3563   -2.2446 H   0  0  0  0  0  0  0  0  0  0  0  0
    5.1536    4.5518   -2.4366 H   0  0  0  0  0  0  0  0  0  0  0  0
    4.4844    4.1537   -0.8543 H   0  0  0  0  0  0  0  0  0  0  0  0
    3.2519    1.4851   -4.5681 H   0  0  0  0  0  0  0  0  0  0  0  0
   -0.3869   -0.8887   -2.4980 H   0  0  0  0  0  0  0  0  0  0  0  0
   -0.1820   -0.8348   -4.8448 H   0  0  0  0  0  0  0  0  0  0  0  0
    2.3243   -0.4226   -6.7060 H   0  0  0  0  0  0  0  0  0  0  0  0
    2.0953    1.3406   -6.7091 H   0  0  0  0  0  0  0  0  0  0  0  0
    0.6977    0.2733   -6.8389 H   0  0  0  0  0  0  0  0  0  0  0  0
   -0.5580    1.1332    1.0839 H   0  0  0  0  0  0  0  0  0  0  0  0
    0.8237   -2.4727   -0.6355 H   0  0  0  0  0  0  0  0  0  0  0  0
   -2.3248   -0.0869    2.1867 H   0  0  0  0  0  0  0  0  0  0  0  0
   -0.9686   -3.6670    0.4524 H   0  0  0  0  0  0  0  0  0  0  0  0
   -2.5734   -2.4756    1.8309 H   0  0  0  0  0  0  0  0  0  0  0  0
  1  2  1  0  0  0  0 
  1  3  1  0  0  0  0 
  1  4  1  0  0  0  0 
  4  5  1  0  0  0  0 
  4  6  1  0  0  0  0 
  5  7  1  0  0  0  0 
  5  8  2  0  0  0  0 
  6  9  2  0  0  0  0 
  6 10  1  0  0  0  0 
  7 11  1  0  0  0  0 
  7 12  2  0  0  0  0 
  8 13  1  0  0  0  0 
 10 11  2  0  0  0  0 
 11 14  1  0  0  0  0 
 12 15  1  0  0  0  0 
 13 15  2  0  0  0  0 
 13 16  1  0  0  0  0 
 14 17  2  0  0  0  0 
 14 18  1  0  0  0  0 
 17 19  1  0  0  0  0 
 18 20  2  0  0  0  0 
 19 21  2  0  0  0  0 
 20 21  1  0  0  0  0 
  1 22  1  0  0  0  0 
  2 23  1  0  0  0  0 
  2 24  1  0  0  0  0 
  2 25  1  0  0  0  0 
  3 26  1  0  0  0  0 
  3 27  1  0  0  0  0 
  3 28  1  0  0  0  0 
  8 29  1  0  0  0  0 
 12 30  1  0  0  0  0 
 15 31  1  0  0  0  0 
 16 32  1  0  0  0  0 
 16 33  1  0  0  0  0 
 16 34  1  0  0  0  0 
 17 35  1  0  0  0  0 
 18 36  1  0  0  0  0 
 19 37  1  0  0  0  0 
 20 38  1  0  0  0  0 
 21 39  1  0  0  0  0 
M  END
> <cdk:Title>
proquazone

> <Conformer>
1

> <SuperDrugID>
SD002075

$$$$
