myrophine
  CDK     0628171801

 94 99  0  0  0  0  0  0  0  0999 V2000
   -5.4205   -3.1695    4.8173 O   0  0  0  0  0  0  0  0  0  0  0  0
   -6.1670   -3.5101    3.7215 C   0  0  0  0  0  0  0  0  0  0  0  0
   -4.0481   -2.7247    4.8564 C   0  0  2  0  0  0  0  0  0  0  0  0
   -6.7143   -4.8784    3.6449 C   0  0  2  0  0  0  0  0  0  0  0  0
   -6.3936   -2.6931    2.7999 O   0  0  0  0  0  0  0  0  0  0  0  0
   -3.6493   -2.4622    6.3523 C   0  0  1  0  0  0  0  0  0  0  0  0
   -3.7014   -1.6399    3.9367 C   0  0  0  0  0  0  0  0  0  0  0  0
   -5.5387   -5.8863    3.5599 C   0  0  1  0  0  0  0  0  0  0  0  0
   -2.4762   -1.4343    6.5110 C   0  0  2  0  0  0  0  0  0  0  0  0
   -4.7582   -1.9827    7.1602 O   0  0  0  0  0  0  0  0  0  0  0  0
   -2.5877   -0.9002    4.0701 C   0  0  0  0  0  0  0  0  0  0  0  0
   -5.9734   -7.3707    3.5156 C   0  0  2  0  0  0  0  0  0  0  0  0
   -3.2872   -0.2667    6.8710 C   0  0  0  0  0  0  0  0  0  0  0  0
   -1.6822   -1.0821    5.2049 C   0  0  1  0  0  0  0  0  0  0  0  0
   -1.4773   -1.8315    7.6511 C   0  0  1  0  0  0  0  0  0  0  0  0
   -4.5459   -0.6496    7.3024 C   0  0  0  0  0  0  0  0  0  0  0  0
   -4.7342   -8.3037    3.5018 C   0  0  2  0  0  0  0  0  0  0  0  0
   -2.9286    1.0859    6.6965 C   0  0  0  0  0  0  0  0  0  0  0  0
   -0.7988    0.1716    5.5604 C   0  0  1  0  0  0  0  0  0  0  0  0
   -0.4090   -0.7396    7.9143 C   0  0  1  0  0  0  0  0  0  0  0  0
   -5.4423    0.3182    7.7906 C   0  0  0  0  0  0  0  0  0  0  0  0
   -5.0932   -9.8075    3.5951 C   0  0  1  0  0  0  0  0  0  0  0  0
   -1.6632    1.4190    5.9846 C   0  0  2  0  0  0  0  0  0  0  0  0
   -3.8543    2.0663    7.1221 C   0  0  0  0  0  0  0  0  0  0  0  0
    0.1759   -0.2283    6.6364 N   0  0  2  0  0  0  0  0  0  0  0  0
   -6.6241   -0.0579    8.3593 O   0  0  0  0  0  0  0  0  0  0  0  0
   -5.0915    1.6845    7.6871 C   0  0  0  0  0  0  0  0  0  0  0  0
   -3.8165  -10.6891    3.6377 C   0  0  1  0  0  0  0  0  0  0  0  0
    1.4141    0.5908    6.7804 C   0  0  0  0  0  0  0  0  0  0  0  0
   -6.4909   -0.2530    9.7830 C   0  0  1  0  0  0  0  0  0  0  0  0
   -4.1219  -12.2036    3.7648 C   0  0  2  0  0  0  0  0  0  0  0  0
   -7.8476   -0.4930   10.3180 C   0  0  0  0  0  0  0  0  0  0  0  0
   -2.8287  -13.0602    3.7746 C   0  0  1  0  0  0  0  0  0  0  0  0
   -8.5751    0.5446   10.9474 C   0  0  0  0  0  0  0  0  0  0  0  0
   -8.4508   -1.7647   10.1796 C   0  0  0  0  0  0  0  0  0  0  0  0
   -3.1241  -14.6066    3.8696 C   0  0  2  0  0  0  0  0  0  0  0  0
   -9.8763    0.3140   11.4300 C   0  0  0  0  0  0  0  0  0  0  0  0
   -9.7498   -1.9963   10.6674 C   0  0  0  0  0  0  0  0  0  0  0  0
   -1.9212  -15.6230    3.8606 C   0  0  1  0  0  0  0  0  0  0  0  0
  -10.4615   -0.9578   11.2947 C   0  0  0  0  0  0  0  0  0  0  0  0
   -2.4493  -17.1763    3.9501 C   0  0  2  0  0  0  0  0  0  0  0  0
   -1.3304  -18.2899    3.9447 C   0  0  1  0  0  0  0  0  0  0  0  0
   -1.8902  -19.7283    4.0324 C   0  0  0  0  0  0  0  0  0  0  0  0
   -1.0216   -1.9155    4.9417 H   0  0  0  0  0  0  0  0  0  0  0  0
   -3.3629   -3.4259    6.7872 H   0  0  0  0  0  0  0  0  0  0  0  0
   -0.2266    0.4313    4.6636 H   0  0  0  0  0  0  0  0  0  0  0  0
   -3.4459   -3.5742    4.5177 H   0  0  0  0  0  0  0  0  0  0  0  0
   -7.3525   -4.9900    2.7622 H   0  0  0  0  0  0  0  0  0  0  0  0
   -7.3213   -5.0706    4.5331 H   0  0  0  0  0  0  0  0  0  0  0  0
   -4.2794   -1.4603    3.1552 H   0  0  0  0  0  0  0  0  0  0  0  0
   -4.9464   -5.6660    2.6665 H   0  0  0  0  0  0  0  0  0  0  0  0
   -4.8931   -5.7513    4.4328 H   0  0  0  0  0  0  0  0  0  0  0  0
   -2.3818   -0.2123    3.3807 H   0  0  0  0  0  0  0  0  0  0  0  0
   -6.5767   -7.5495    2.6219 H   0  0  0  0  0  0  0  0  0  0  0  0
   -6.5847   -7.5903    4.3944 H   0  0  0  0  0  0  0  0  0  0  0  0
   -2.0138   -2.0446    8.5816 H   0  0  0  0  0  0  0  0  0  0  0  0
   -0.9562   -2.7480    7.3544 H   0  0  0  0  0  0  0  0  0  0  0  0
   -4.0892   -8.0483    4.3479 H   0  0  0  0  0  0  0  0  0  0  0  0
   -4.1682   -8.1271    2.5825 H   0  0  0  0  0  0  0  0  0  0  0  0
   -0.8528    0.0841    8.4812 H   0  0  0  0  0  0  0  0  0  0  0  0
    0.3774   -1.1776    8.5349 H   0  0  0  0  0  0  0  0  0  0  0  0
   -5.6818   -9.9807    4.5005 H   0  0  0  0  0  0  0  0  0  0  0  0
   -5.7025  -10.0854    2.7303 H   0  0  0  0  0  0  0  0  0  0  0  0
   -1.0701    2.0951    6.6035 H   0  0  0  0  0  0  0  0  0  0  0  0
   -1.9361    1.9670    5.0802 H   0  0  0  0  0  0  0  0  0  0  0  0
   -3.6398    3.0587    7.0103 H   0  0  0  0  0  0  0  0  0  0  0  0
   -5.7386    2.4018    8.0202 H   0  0  0  0  0  0  0  0  0  0  0  0
   -3.2411  -10.5181    2.7229 H   0  0  0  0  0  0  0  0  0  0  0  0
   -3.2019  -10.3839    4.4899 H   0  0  0  0  0  0  0  0  0  0  0  0
    2.2611   -0.0164    6.4611 H   0  0  0  0  0  0  0  0  0  0  0  0
    1.5844    0.9014    7.8131 H   0  0  0  0  0  0  0  0  0  0  0  0
    1.3915    1.4889    6.1624 H   0  0  0  0  0  0  0  0  0  0  0  0
   -5.8505   -1.1139   10.0058 H   0  0  0  0  0  0  0  0  0  0  0  0
   -6.0453    0.6232   10.2698 H   0  0  0  0  0  0  0  0  0  0  0  0
   -4.7499  -12.5138    2.9246 H   0  0  0  0  0  0  0  0  0  0  0  0
   -4.6746  -12.3821    4.6922 H   0  0  0  0  0  0  0  0  0  0  0  0
   -2.2600  -12.8732    2.8595 H   0  0  0  0  0  0  0  0  0  0  0  0
   -2.2053  -12.7720    4.6257 H   0  0  0  0  0  0  0  0  0  0  0  0
   -8.1666    1.4769   11.0528 H   0  0  0  0  0  0  0  0  0  0  0  0
   -7.9477   -2.5304    9.7239 H   0  0  0  0  0  0  0  0  0  0  0  0
   -3.7767  -14.8699    3.0331 H   0  0  0  0  0  0  0  0  0  0  0  0
   -3.6912  -14.7794    4.7881 H   0  0  0  0  0  0  0  0  0  0  0  0
  -10.3968    1.0716   11.8785 H   0  0  0  0  0  0  0  0  0  0  0  0
  -10.1762   -2.9202   10.5657 H   0  0  0  0  0  0  0  0  0  0  0  0
   -1.3468  -15.4904    2.9406 H   0  0  0  0  0  0  0  0  0  0  0  0
   -1.2671  -15.4140    4.7106 H   0  0  0  0  0  0  0  0  0  0  0  0
  -11.4037   -1.1275   11.6533 H   0  0  0  0  0  0  0  0  0  0  0  0
   -3.1375  -17.4635    3.1102 H   0  0  0  0  0  0  0  0  0  0  0  0
   -3.0564  -17.3897    4.8706 H   0  0  0  0  0  0  0  0  0  0  0  0
   -0.7439  -18.1954    3.0275 H   0  0  0  0  0  0  0  0  0  0  0  0
   -0.6606  -18.1201    4.7912 H   0  0  0  0  0  0  0  0  0  0  0  0
   -2.5418  -19.9357    3.1814 H   0  0  0  0  0  0  0  0  0  0  0  0
   -2.4591  -19.8596    4.9549 H   0  0  0  0  0  0  0  0  0  0  0  0
   -1.0689  -20.4473    4.0250 H   0  0  0  0  0  0  0  0  0  0  0  0
  1  2  1  0  0  0  0 
  2  4  1  0  0  0  0 
  2  5  2  0  0  0  0 
  3  1  1  0  0  0  0 
  6  3  1  0  0  0  0 
  3  7  1  0  0  0  0 
  4  8  1  0  0  0  0 
  9  6  1  0  0  0  0 
  6 10  1  0  0  0  0 
  6 45  1  0  0  0  0 
  7 11  2  0  0  0  0 
  8 12  1  0  0  0  0 
  9 13  1  0  0  0  0 
 14  9  1  0  0  0  0 
  9 15  1  0  0  0  0 
 10 16  1  0  0  0  0 
 14 11  1  0  0  0  0 
 12 17  1  0  0  0  0 
 13 16  2  0  0  0  0 
 13 18  1  0  0  0  0 
 14 19  1  0  0  0  0 
 14 44  1  0  0  0  0 
 15 20  1  0  0  0  0 
 16 21  1  0  0  0  0 
 17 22  1  0  0  0  0 
 18 23  1  0  0  0  0 
 18 24  2  0  0  0  0 
 19 23  1  0  0  0  0 
 19 25  1  0  0  0  0 
 19 46  1  0  0  0  0 
 20 25  1  0  0  0  0 
 21 26  1  0  0  0  0 
 21 27  2  0  0  0  0 
 22 28  1  0  0  0  0 
 24 27  1  0  0  0  0 
 25 29  1  0  0  0  0 
 26 30  1  0  0  0  0 
 28 31  1  0  0  0  0 
 30 32  1  0  0  0  0 
 31 33  1  0  0  0  0 
 32 34  2  0  0  0  0 
 32 35  1  0  0  0  0 
 33 36  1  0  0  0  0 
 34 37  1  0  0  0  0 
 35 38  2  0  0  0  0 
 36 39  1  0  0  0  0 
 37 40  2  0  0  0  0 
 38 40  1  0  0  0  0 
 39 41  1  0  0  0  0 
 41 42  1  0  0  0  0 
 42 43  1  0  0  0  0 
  3 47  1  0  0  0  0 
  4 48  1  0  0  0  0 
  4 49  1  0  0  0  0 
  7 50  1  0  0  0  0 
  8 51  1  0  0  0  0 
  8 52  1  0  0  0  0 
 11 53  1  0  0  0  0 
 12 54  1  0  0  0  0 
 12 55  1  0  0  0  0 
 15 56  1  0  0  0  0 
 15 57  1  0  0  0  0 
 17 58  1  0  0  0  0 
 17 59  1  0  0  0  0 
 20 60  1  0  0  0  0 
 20 61  1  0  0  0  0 
 22 62  1  0  0  0  0 
 22 63  1  0  0  0  0 
 23 64  1  0  0  0  0 
 23 65  1  0  0  0  0 
 24 66  1  0  0  0  0 
 27 67  1  0  0  0  0 
 28 68  1  0  0  0  0 
 28 69  1  0  0  0  0 
 29 70  1  0  0  0  0 
 29 71  1  0  0  0  0 
 29 72  1  0  0  0  0 
 30 73  1  0  0  0  0 
 30 74  1  0  0  0  0 
 31 75  1  0  0  0  0 
 31 76  1  0  0  0  0 
 33 77  1  0  0  0  0 
 33 78  1  0  0  0  0 
 34 79  1  0  0  0  0 
 35 80  1  0  0  0  0 
 36 81  1  0  0  0  0 
 36 82  1  0  0  0  0 
 37 83  1  0  0  0  0 
 38 84  1  0  0  0  0 
 39 85  1  0  0  0  0 
 39 86  1  0  0  0  0 
 40 87  1  0  0  0  0 
 41 88  1  0  0  0  0 
 41 89  1  0  0  0  0 
 42 90  1  0  0  0  0 
 42 91  1  0  0  0  0 
 43 92  1  0  0  0  0 
 43 93  1  0  0  0  0 
 43 94  1  0  0  0  0 
M  END
> <cdk:Title>
myrophine

> <Conformer>
1

> <SuperDrugID>
SD002904

$$$$
