mecloralurea
  CDK     0628171801

 18 17  0  0  0  0  0  0  0  0999 V2000
    1.2174    0.8467   -1.1259 C   0  0  2  0  0  0  0  0  0  0  0  0
    2.0499   -0.0259   -0.3524 N   0  0  0  0  0  0  0  0  0  0  0  0
    1.9768    2.1202   -1.5976 C   0  0  2  0  0  0  0  0  0  0  0  0
    0.1143    1.2129   -0.2997 O   0  0  0  0  0  0  0  0  0  0  0  0
    2.5971   -1.2002   -0.7653 C   0  0  0  0  0  0  0  0  0  0  0  0
    0.9224    3.1637   -2.5486 Cl  0  0  0  0  0  0  0  0  0  0  0  0
    3.3429    1.7171   -2.6345 Cl  0  0  0  0  0  0  0  0  0  0  0  0
    2.5953    3.0773   -0.2520 Cl  0  0  0  0  0  0  0  0  0  0  0  0
    3.3578   -1.8775    0.1331 N   0  0  0  0  0  0  0  0  0  0  0  0
    2.4228   -1.6367   -1.9289 O   0  0  0  0  0  0  0  0  0  0  0  0
    4.0530   -3.0901   -0.1407 C   0  0  0  0  0  0  0  0  0  0  0  0
    0.8033    0.3301   -1.9968 H   0  0  0  0  0  0  0  0  0  0  0  0
    2.2401    0.2498    0.5586 H   0  0  0  0  0  0  0  0  0  0  0  0
   -0.3307    0.3682   -0.0769 H   0  0  0  0  0  0  0  0  0  0  0  0
    3.4478   -1.5004    1.0233 H   0  0  0  0  0  0  0  0  0  0  0  0
    3.3582   -3.8659   -0.4678 H   0  0  0  0  0  0  0  0  0  0  0  0
    4.5504   -3.4301    0.7689 H   0  0  0  0  0  0  0  0  0  0  0  0
    4.8088   -2.9258   -0.9129 H   0  0  0  0  0  0  0  0  0  0  0  0
  1  2  1  0  0  0  0 
  1  3  1  0  0  0  0 
  1  4  1  0  0  0  0 
  2  5  1  0  0  0  0 
  3  6  1  0  0  0  0 
  3  7  1  0  0  0  0 
  3  8  1  0  0  0  0 
  5  9  1  0  0  0  0 
  5 10  2  0  0  0  0 
  9 11  1  0  0  0  0 
 12  1  1  0  0  0  0 
 13  2  1  0  0  0  0 
 14  4  1  0  0  0  0 
 15  9  1  0  0  0  0 
 16 11  1  0  0  0  0 
 17 11  1  0  0  0  0 
 18 11  1  0  0  0  0 
M  END
> <cdk:Title>
mecloralurea

> <Conformer>
1

> <SuperDrugID>
SD003216

$$$$
