ulobetasol propionate
  CDK     0628171801

 64 67  0  0  0  0  0  0  0  0999 V2000
   -1.6765    2.5246    0.0927 O   0  0  0  0  0  0  0  0  0  0  0  0
   -1.1122    3.5317    0.8334 C   0  0  0  0  0  0  0  0  0  0  0  0
   -1.1640    1.7726   -1.0454 C   0  0  1  0  0  0  0  0  0  0  0  0
   -1.8991    4.1764    1.9039 C   0  0  1  0  0  0  0  0  0  0  0  0
    0.0754    3.8793    0.6389 O   0  0  0  0  0  0  0  0  0  0  0  0
    0.1088    1.0929   -0.5961 C   0  0  0  0  0  0  0  0  0  0  0  0
   -2.2904    0.7370   -1.4783 C   0  0  2  0  0  0  0  0  0  0  0  0
   -1.1226    2.7962   -2.2692 C   0  0  1  0  0  0  0  0  0  0  0  0
   -1.8237    5.7515    1.7940 C   0  0  0  0  0  0  0  0  0  0  0  0
    0.2416    0.3979    0.7070 C   0  0  2  0  0  0  0  0  0  0  0  0
    1.1039    0.9962   -1.3517 O   0  0  0  0  0  0  0  0  0  0  0  0
   -1.6985   -0.3512   -2.4642 C   0  0  0  0  0  0  0  0  0  0  0  0
   -3.3224    1.7114   -2.1335 C   0  0  1  0  0  0  0  0  0  0  0  0
   -3.0521   -0.0019   -0.3176 C   0  0  2  0  0  0  0  0  0  0  0  0
    0.1018    2.8368   -3.2348 C   0  0  0  0  0  0  0  0  0  0  0  0
   -2.4462    2.5734   -3.0639 C   0  0  2  0  0  0  0  0  0  0  0  0
    1.7002    0.8902    1.5640 Cl  0  0  0  0  0  0  0  0  0  0  0  0
   -4.5993    1.0162   -2.7142 C   0  0  1  0  0  0  0  0  0  0  0  0
   -4.3653   -0.7285   -0.7639 C   0  0  1  0  0  0  0  0  0  0  0  0
   -5.3568    0.1790   -1.6011 C   0  0  1  0  0  0  0  0  0  0  0  0
   -5.5747    2.0431   -3.3716 C   0  0  1  0  0  0  0  0  0  0  0  0
   -4.0389   -1.9494   -1.4203 O   0  0  0  0  0  0  0  0  0  0  0  0
   -5.8106    1.0965   -0.6597 F   0  0  0  0  0  0  0  0  0  0  0  0
   -6.6693   -0.5267   -2.1928 C   0  0  2  0  0  0  0  0  0  0  0  0
   -6.8579    1.3628   -3.9148 C   0  0  1  0  0  0  0  0  0  0  0  0
   -6.3867   -1.6661   -3.2443 C   0  0  0  0  0  0  0  0  0  0  0  0
   -7.4984    0.5343   -2.8720 C   0  0  0  0  0  0  0  0  0  0  0  0
   -7.4116   -1.2103   -1.1020 C   0  0  0  0  0  0  0  0  0  0  0  0
   -7.6492    2.3573   -4.4563 F   0  0  0  0  0  0  0  0  0  0  0  0
   -8.7873    0.7441   -2.5099 C   0  0  0  0  0  0  0  0  0  0  0  0
   -8.6904   -0.9438   -0.7984 C   0  0  0  0  0  0  0  0  0  0  0  0
   -9.3939    0.0139   -1.5005 C   0  0  0  0  0  0  0  0  0  0  0  0
  -10.5943    0.2287   -1.2106 O   0  0  0  0  0  0  0  0  0  0  0  0
   -2.9825    3.9200    1.6872 H   0  0  0  0  0  0  0  0  0  0  0  0
   -1.4645    3.7347    2.8897 H   0  0  0  0  0  0  0  0  0  0  0  0
   -1.1802    3.8136   -1.8711 H   0  0  0  0  0  0  0  0  0  0  0  0
   -2.5518    6.2052    2.4694 H   0  0  0  0  0  0  0  0  0  0  0  0
   -0.8302    6.0938    2.0924 H   0  0  0  0  0  0  0  0  0  0  0  0
   -2.0313    6.0776    0.7729 H   0  0  0  0  0  0  0  0  0  0  0  0
    0.2855   -0.6768    0.5274 H   0  0  0  0  0  0  0  0  0  0  0  0
   -0.6035    0.5995    1.3652 H   0  0  0  0  0  0  0  0  0  0  0  0
   -2.4688   -0.9127   -2.9853 H   0  0  0  0  0  0  0  0  0  0  0  0
   -1.0699    0.0858   -3.2343 H   0  0  0  0  0  0  0  0  0  0  0  0
   -1.0843   -1.0706   -1.9183 H   0  0  0  0  0  0  0  0  0  0  0  0
   -3.7013    2.4035   -1.3687 H   0  0  0  0  0  0  0  0  0  0  0  0
   -3.3260    0.7128    0.4631 H   0  0  0  0  0  0  0  0  0  0  0  0
   -2.3888   -0.7294    0.1541 H   0  0  0  0  0  0  0  0  0  0  0  0
    1.0041    3.1399   -2.7021 H   0  0  0  0  0  0  0  0  0  0  0  0
    0.2777    1.8683   -3.7030 H   0  0  0  0  0  0  0  0  0  0  0  0
   -0.0660    3.5667   -4.0309 H   0  0  0  0  0  0  0  0  0  0  0  0
   -2.2771    2.0493   -4.0101 H   0  0  0  0  0  0  0  0  0  0  0  0
   -2.9332    3.5275   -3.2844 H   0  0  0  0  0  0  0  0  0  0  0  0
   -4.2701    0.3530   -3.5116 H   0  0  0  0  0  0  0  0  0  0  0  0
   -4.8643   -1.0357    0.1602 H   0  0  0  0  0  0  0  0  0  0  0  0
   -5.8573    2.8063   -2.6385 H   0  0  0  0  0  0  0  0  0  0  0  0
   -5.0716    2.5515   -4.1993 H   0  0  0  0  0  0  0  0  0  0  0  0
   -3.5464   -2.4748   -0.7568 H   0  0  0  0  0  0  0  0  0  0  0  0
   -6.5841    0.7250   -4.7570 H   0  0  0  0  0  0  0  0  0  0  0  0
   -7.3071   -1.9570   -3.7584 H   0  0  0  0  0  0  0  0  0  0  0  0
   -5.9890   -2.5722   -2.7829 H   0  0  0  0  0  0  0  0  0  0  0  0
   -5.6737   -1.3584   -4.0066 H   0  0  0  0  0  0  0  0  0  0  0  0
   -6.9549   -1.9169   -0.5716 H   0  0  0  0  0  0  0  0  0  0  0  0
   -9.3344    1.4422   -2.9594 H   0  0  0  0  0  0  0  0  0  0  0  0
   -9.1355   -1.4442   -0.0618 H   0  0  0  0  0  0  0  0  0  0  0  0
  1  2  1  0  0  0  0 
  2  4  1  0  0  0  0 
  2  5  2  0  0  0  0 
  3  1  1  0  0  0  0 
  3  6  1  0  0  0  0 
  7  3  1  0  0  0  0 
  3  8  1  0  0  0  0 
  4  9  1  0  0  0  0 
  6 10  1  0  0  0  0 
  6 11  2  0  0  0  0 
  7 12  1  0  0  0  0 
 13  7  1  0  0  0  0 
  7 14  1  0  0  0  0 
  8 15  1  0  0  0  0 
  8 16  1  0  0  0  0 
 10 17  1  0  0  0  0 
 13 16  1  0  0  0  0 
 18 13  1  0  0  0  0 
 19 14  1  0  0  0  0 
 20 18  1  0  0  0  0 
 18 21  1  0  0  0  0 
 20 19  1  0  0  0  0 
 19 22  1  0  0  0  0 
 20 23  1  0  0  0  0 
 20 24  1  0  0  0  0 
 25 21  1  0  0  0  0 
 24 26  1  0  0  0  0 
 24 27  1  0  0  0  0 
 24 28  1  0  0  0  0 
 25 27  1  0  0  0  0 
 25 29  1  0  0  0  0 
 27 30  2  0  0  0  0 
 28 31  2  0  0  0  0 
 30 32  1  0  0  0  0 
 31 32  1  0  0  0  0 
 32 33  2  0  0  0  0 
 34  4  1  0  0  0  0 
 35  4  1  0  0  0  0 
  8 36  1  0  0  0  0 
 37  9  1  0  0  0  0 
 38  9  1  0  0  0  0 
 39  9  1  0  0  0  0 
 40 10  1  0  0  0  0 
 41 10  1  0  0  0  0 
 42 12  1  0  0  0  0 
 43 12  1  0  0  0  0 
 44 12  1  0  0  0  0 
 13 45  1  0  0  0  0 
 46 14  1  0  0  0  0 
 47 14  1  0  0  0  0 
 48 15  1  0  0  0  0 
 49 15  1  0  0  0  0 
 50 15  1  0  0  0  0 
 51 16  1  0  0  0  0 
 52 16  1  0  0  0  0 
 18 53  1  0  0  0  0 
 19 54  1  0  0  0  0 
 55 21  1  0  0  0  0 
 56 21  1  0  0  0  0 
 57 22  1  0  0  0  0 
 25 58  1  0  0  0  0 
 59 26  1  0  0  0  0 
 60 26  1  0  0  0  0 
 61 26  1  0  0  0  0 
 62 28  1  0  0  0  0 
 63 30  1  0  0  0  0 
 64 31  1  0  0  0  0 
M  END
> <cdk:Title>
ulobetasol propionate

> <Conformer>
1

> <SuperDrugID>
SD001197

$$$$
