boric acid
  CDK     0628171801

  7  6  0  0  0  0  0  0  0  0999 V2000
   -0.3450    0.5881   -1.1542 O   0  0  0  0  0  0  0  0  0  0  0  0
    0.2656    0.4934    0.2454 B   0  0  0  0  0  0  0  0  0  0  0  0
   -0.6569    0.3408    1.4571 O   0  0  0  0  0  0  0  0  0  0  0  0
    1.7356    0.8628    0.4542 O   0  0  0  0  0  0  0  0  0  0  0  0
   -0.5401    1.5419   -1.2764 H   0  0  0  0  0  0  0  0  0  0  0  0
   -0.0546    0.1242    2.1999 H   0  0  0  0  0  0  0  0  0  0  0  0
    1.7410    1.8422    0.4396 H   0  0  0  0  0  0  0  0  0  0  0  0
  1  2  1  0  0  0  0 
  2  3  1  0  0  0  0 
  2  4  1  0  0  0  0 
  1  5  1  0  0  0  0 
  3  6  1  0  0  0  0 
  4  7  1  0  0  0  0 
M  END
> <cdk:Title>
boric acid

> <Conformer>
1

> <SuperDrugID>
SD002637

$$$$
