dibunate
  CDK     0628171802

 46 47  0  0  0  0  0  0  0  0999 V2000
    4.2205    0.7894    4.6699 S   0  0  2  0  0  0  0  0  0  0  0  0
    4.0795    2.3787    4.4947 O   0  0  0  0  0  0  0  0  0  0  0  0
    2.8369    0.2406    5.2708 O   0  0  0  0  0  0  0  0  0  0  0  0
    5.3623    0.5819    5.9263 O   0  0  0  0  0  0  0  0  0  0  0  0
    4.5146    0.0337    3.0585 C   0  0  0  0  0  0  0  0  0  0  0  0
    3.4840    0.2753    2.0742 C   0  0  0  0  0  0  0  0  0  0  0  0
    5.6733   -0.7678    2.7058 C   0  0  0  0  0  0  0  0  0  0  0  0
    3.6006   -0.2679    0.7641 C   0  0  0  0  0  0  0  0  0  0  0  0
    2.3028    1.0414    2.2937 C   0  0  0  0  0  0  0  0  0  0  0  0
    6.8448   -1.1112    3.6352 C   0  0  1  0  0  0  0  0  0  0  0  0
    5.7205   -1.2761    1.3808 C   0  0  0  0  0  0  0  0  0  0  0  0
    2.6113   -0.0533   -0.2283 C   0  0  0  0  0  0  0  0  0  0  0  0
    4.7225   -1.0390    0.4361 C   0  0  0  0  0  0  0  0  0  0  0  0
    1.3242    1.2524    1.3082 C   0  0  0  0  0  0  0  0  0  0  0  0
    7.5945    0.2184    4.0303 C   0  0  0  0  0  0  0  0  0  0  0  0
    6.3116   -1.9891    4.8316 C   0  0  0  0  0  0  0  0  0  0  0  0
    8.0241   -2.0040    3.0638 C   0  0  0  0  0  0  0  0  0  0  0  0
    1.4427    0.7119    0.0086 C   0  0  0  0  0  0  0  0  0  0  0  0
    0.4060    0.9163   -1.0882 C   0  0  2  0  0  0  0  0  0  0  0  0
   -0.8357    1.7882   -0.6740 C   0  0  0  0  0  0  0  0  0  0  0  0
   -0.1569   -0.4746   -1.5380 C   0  0  0  0  0  0  0  0  0  0  0  0
    1.0729    1.6415   -2.3061 C   0  0  0  0  0  0  0  0  0  0  0  0
    4.9903    1.0741    6.6868 H   0  0  0  0  0  0  0  0  0  0  0  0
    2.1039    1.4812    3.1869 H   0  0  0  0  0  0  0  0  0  0  0  0
    6.4949   -1.8466    1.0491 H   0  0  0  0  0  0  0  0  0  0  0  0
    2.7497   -0.4692   -1.1527 H   0  0  0  0  0  0  0  0  0  0  0  0
    4.8277   -1.4409   -0.5025 H   0  0  0  0  0  0  0  0  0  0  0  0
    0.5169    1.8170    1.5709 H   0  0  0  0  0  0  0  0  0  0  0  0
    8.1963    0.0721    4.9297 H   0  0  0  0  0  0  0  0  0  0  0  0
    6.9393    1.0656    4.1975 H   0  0  0  0  0  0  0  0  0  0  0  0
    8.2634    0.5485    3.2316 H   0  0  0  0  0  0  0  0  0  0  0  0
    7.0107   -1.9679    5.6702 H   0  0  0  0  0  0  0  0  0  0  0  0
    6.1826   -3.0319    4.5311 H   0  0  0  0  0  0  0  0  0  0  0  0
    5.3355   -1.6941    5.1992 H   0  0  0  0  0  0  0  0  0  0  0  0
    8.7889   -2.1708    3.8288 H   0  0  0  0  0  0  0  0  0  0  0  0
    7.6777   -2.9874    2.7387 H   0  0  0  0  0  0  0  0  0  0  0  0
    8.5214   -1.5356    2.2117 H   0  0  0  0  0  0  0  0  0  0  0  0
   -1.5402    1.8964   -1.5039 H   0  0  0  0  0  0  0  0  0  0  0  0
   -1.3791    1.3294    0.1553 H   0  0  0  0  0  0  0  0  0  0  0  0
   -0.5284    2.7934   -0.3761 H   0  0  0  0  0  0  0  0  0  0  0  0
   -0.9392   -0.3549   -2.2916 H   0  0  0  0  0  0  0  0  0  0  0  0
   -0.5869   -1.0053   -0.6844 H   0  0  0  0  0  0  0  0  0  0  0  0
    0.6183   -1.1072   -1.9745 H   0  0  0  0  0  0  0  0  0  0  0  0
    0.3391    1.8447   -3.0900 H   0  0  0  0  0  0  0  0  0  0  0  0
    1.8668    1.0411   -2.7542 H   0  0  0  0  0  0  0  0  0  0  0  0
    1.5053    2.5948   -1.9911 H   0  0  0  0  0  0  0  0  0  0  0  0
  1  2  2  0  0  0  0 
  1  3  2  0  0  0  0 
  1  4  1  0  0  0  0 
  1  5  1  0  0  0  0 
  5  6  2  0  0  0  0 
  5  7  1  0  0  0  0 
  6  8  1  0  0  0  0 
  6  9  1  0  0  0  0 
  7 10  1  0  0  0  0 
  7 11  2  0  0  0  0 
  8 12  1  0  0  0  0 
  8 13  2  0  0  0  0 
  9 14  2  0  0  0  0 
 10 15  1  0  0  0  0 
 10 16  1  0  0  0  0 
 10 17  1  0  0  0  0 
 11 13  1  0  0  0  0 
 12 18  2  0  0  0  0 
 14 18  1  0  0  0  0 
 18 19  1  0  0  0  0 
 19 20  1  0  0  0  0 
 19 21  1  0  0  0  0 
 19 22  1  0  0  0  0 
  4 23  1  0  0  0  0 
  9 24  1  0  0  0  0 
 11 25  1  0  0  0  0 
 12 26  1  0  0  0  0 
 13 27  1  0  0  0  0 
 14 28  1  0  0  0  0 
 15 29  1  0  0  0  0 
 15 30  1  0  0  0  0 
 15 31  1  0  0  0  0 
 16 32  1  0  0  0  0 
 16 33  1  0  0  0  0 
 16 34  1  0  0  0  0 
 17 35  1  0  0  0  0 
 17 36  1  0  0  0  0 
 17 37  1  0  0  0  0 
 20 38  1  0  0  0  0 
 20 39  1  0  0  0  0 
 20 40  1  0  0  0  0 
 21 41  1  0  0  0  0 
 21 42  1  0  0  0  0 
 21 43  1  0  0  0  0 
 22 44  1  0  0  0  0 
 22 45  1  0  0  0  0 
 22 46  1  0  0  0  0 
M  END
> <cdk:Title>
dibunate

> <Conformer>
1

> <SuperDrugID>
SD000763

$$$$
