sirolimus
  CDK     0628171801

144147  0  0  0  0  0  0  0  0999 V2000
    4.0398   -8.3300   -2.2658 C   0  0  1  0  0  0  0  0  0  0  0  0
    3.4693   -8.5429   -3.6855 C   0  0  2  0  0  0  0  0  0  0  0  0
    2.1127   -7.8059   -3.8249 C   0  0  2  0  0  0  0  0  0  0  0  0
    2.2729   -6.3844   -3.5188 N   0  0  0  0  0  0  0  0  0  0  0  0
    2.7029   -6.1061   -2.1383 C   0  0  1  0  0  0  0  0  0  0  0  0
    4.0815   -6.8207   -1.9121 C   0  0  1  0  0  0  0  0  0  0  0  0
    2.9907   -6.5077   -6.2761 O   0  0  0  0  0  0  0  0  0  0  0  0
    2.2087   -5.6028   -5.8991 C   0  0  0  0  0  0  0  0  0  0  0  0
    2.0330   -5.4144   -4.4888 C   0  0  0  0  0  0  0  0  0  0  0  0
    1.7424   -3.8946   -9.4587 C   0  0  0  0  0  0  0  0  0  0  0  0
    1.8862   -5.1140   -8.4459 C   0  0  1  0  0  0  0  0  0  0  0  0
    1.6118   -4.7076   -6.9443 C   0  0  1  0  0  0  0  0  0  0  0  0
    1.6362   -4.2846   -4.1224 O   0  0  0  0  0  0  0  0  0  0  0  0
    2.3991   -4.4419   -0.3534 O   0  0  0  0  0  0  0  0  0  0  0  0
    2.8738   -4.7175   -1.6135 C   0  0  0  0  0  0  0  0  0  0  0  0
    1.8218   -3.3940    1.7334 C   0  0  1  0  0  0  0  0  0  0  0  0
    2.9219   -3.5055    0.6218 C   0  0  1  0  0  0  0  0  0  0  0  0
    4.3581   -4.0072    1.0532 C   0  0  1  0  0  0  0  0  0  0  0  0
    3.5668   -3.8707   -2.2267 O   0  0  0  0  0  0  0  0  0  0  0  0
    0.9912   -6.3312   -8.8320 C   0  0  1  0  0  0  0  0  0  0  0  0
   -0.5063   -6.0397   -8.5799 C   0  0  2  0  0  0  0  0  0  0  0  0
   -0.7532   -5.5220   -7.1296 C   0  0  2  0  0  0  0  0  0  0  0  0
    0.1945   -4.5018   -6.7233 O   0  0  0  0  0  0  0  0  0  0  0  0
    2.2156   -3.4345   -6.7021 O   0  0  0  0  0  0  0  0  0  0  0  0
    1.9680   -6.5801   -1.4782 H   0  0  0  0  0  0  0  0  0  0  0  0
    2.1293   -2.5605    2.9329 C   0  0  0  0  0  0  0  0  0  0  0  0
    2.7355   -3.1216    3.8768 O   0  0  0  0  0  0  0  0  0  0  0  0
    6.8172   -3.1961    1.7368 C   0  0  2  0  0  0  0  0  0  0  0  0
    5.2708   -2.9140    1.7124 C   0  0  1  0  0  0  0  0  0  0  0  0
    7.5419   -2.1737    2.6680 C   0  0  1  0  0  0  0  0  0  0  0  0
    9.0242   -3.3811    0.3445 C   0  0  2  0  0  0  0  0  0  0  0  0
    7.4763   -3.1804    0.3167 C   0  0  1  0  0  0  0  0  0  0  0  0
    1.6113   -1.1753    3.2034 C   0  0  1  0  0  0  0  0  0  0  0  0
    1.4857   -0.3099    2.0158 C   0  0  0  0  0  0  0  0  0  0  0  0
    1.1818    1.0120    1.9513 C   0  0  0  0  0  0  0  0  0  0  0  0
    1.0985    1.6819    0.6313 C   0  0  2  0  0  0  0  0  0  0  0  0
   -0.0258    1.2053   -0.3566 C   0  0  2  0  0  0  0  0  0  0  0  0
    0.2954   -1.3386    4.0282 C   0  0  0  0  0  0  0  0  0  0  0  0
    2.3490   -0.6896    3.8510 H   0  0  0  0  0  0  0  0  0  0  0  0
    0.9590    1.8365    3.1448 C   0  0  0  0  0  0  0  0  0  0  0  0
   -1.4054    1.5325    0.1318 C   0  0  0  0  0  0  0  0  0  0  0  0
    2.3750    1.5891   -0.0022 O   0  0  0  0  0  0  0  0  0  0  0  0
    0.9492    2.7603    0.7576 H   0  0  0  0  0  0  0  0  0  0  0  0
   -2.5429    0.5806    0.3506 C   0  0  2  0  0  0  0  0  0  0  0  0
   -1.6495    2.7449    0.3469 O   0  0  0  0  0  0  0  0  0  0  0  0
   -2.3003   -0.2537    1.6376 C   0  0  0  0  0  0  0  0  0  0  0  0
   -3.6565   -1.7852   -3.4622 C   0  0  0  0  0  0  0  0  0  0  0  0
   -2.8786   -0.6941   -3.3227 C   0  0  0  0  0  0  0  0  0  0  0  0
   -3.0698    0.3085   -2.2713 C   0  0  2  0  0  0  0  0  0  0  0  0
   -2.9242   -0.3485   -0.8506 C   0  0  2  0  0  0  0  0  0  0  0  0
   -0.9320   -6.6801   -6.0852 C   0  0  1  0  0  0  0  0  0  0  0  0
   -2.4108   -7.0063   -5.6972 C   0  0  1  0  0  0  0  0  0  0  0  0
   -2.9173   -5.9903   -4.7478 C   0  0  0  0  0  0  0  0  0  0  0  0
   -3.6842   -4.9576   -5.1753 C   0  0  0  0  0  0  0  0  0  0  0  0
   -4.0816   -3.9300   -4.3958 C   0  0  0  0  0  0  0  0  0  0  0  0
   -3.3841   -2.7807   -4.3471 C   0  0  0  0  0  0  0  0  0  0  0  0
   -2.4135   -7.9680   -5.1683 H   0  0  0  0  0  0  0  0  0  0  0  0
   -3.2233   -7.1250   -6.8964 O   0  0  0  0  0  0  0  0  0  0  0  0
   -2.4977   -6.0954   -3.3365 C   0  0  0  0  0  0  0  0  0  0  0  0
   -2.2692    1.0442   -2.3926 H   0  0  0  0  0  0  0  0  0  0  0  0
   -4.4041    1.0849   -2.4651 C   0  0  0  0  0  0  0  0  0  0  0  0
   -3.4413    1.1730    0.5597 H   0  0  0  0  0  0  0  0  0  0  0  0
    0.1056   -0.1951   -0.7002 O   0  0  0  0  0  0  0  0  0  0  0  0
    0.0861    1.8104   -1.2660 H   0  0  0  0  0  0  0  0  0  0  0  0
    9.0736   -2.4030    2.7185 C   0  0  2  0  0  0  0  0  0  0  0  0
    9.7001   -2.3590    1.3022 C   0  0  1  0  0  0  0  0  0  0  0  0
    9.2481   -4.3872    0.7191 H   0  0  0  0  0  0  0  0  0  0  0  0
    9.6285   -3.1951   -0.9574 O   0  0  0  0  0  0  0  0  0  0  0  0
   11.0978   -2.6261    1.4144 O   0  0  0  0  0  0  0  0  0  0  0  0
    9.5872   -1.3488    0.8962 H   0  0  0  0  0  0  0  0  0  0  0  0
    2.9277   -5.4335   -8.5488 H   0  0  0  0  0  0  0  0  0  0  0  0
   -1.6866   -4.9571   -7.1662 H   0  0  0  0  0  0  0  0  0  0  0  0
    6.9779   -4.1874    2.1704 H   0  0  0  0  0  0  0  0  0  0  0  0
    3.0175   -2.5302    0.1352 H   0  0  0  0  0  0  0  0  0  0  0  0
    9.3926   -4.2235   -1.9354 C   0  0  0  0  0  0  0  0  0  0  0  0
    0.8744   -0.5190   -1.8757 C   0  0  0  0  0  0  0  0  0  0  0  0
   -3.4085   -8.4476   -7.4322 C   0  0  0  0  0  0  0  0  0  0  0  0
    4.8563   -4.2638    0.1192 H   0  0  0  0  0  0  0  0  0  0  0  0
    4.3101   -5.3361    1.8658 C   0  0  0  0  0  0  0  0  0  0  0  0
    3.4118   -8.8526   -1.5404 H   0  0  0  0  0  0  0  0  0  0  0  0
    5.0449   -8.7557   -2.2033 H   0  0  0  0  0  0  0  0  0  0  0  0
    3.3358   -9.6104   -3.8689 H   0  0  0  0  0  0  0  0  0  0  0  0
    4.1789   -8.1570   -4.4220 H   0  0  0  0  0  0  0  0  0  0  0  0
    1.3935   -8.2482   -3.1259 H   0  0  0  0  0  0  0  0  0  0  0  0
    1.6972   -8.0061   -4.8153 H   0  0  0  0  0  0  0  0  0  0  0  0
    4.4016   -6.7297   -0.8701 H   0  0  0  0  0  0  0  0  0  0  0  0
    4.8463   -6.3405   -2.5332 H   0  0  0  0  0  0  0  0  0  0  0  0
    0.7057   -3.4794   -9.2949 H   0  0  0  0  0  0  0  0  0  0  0  0
    1.6837   -4.3437  -10.4960 H   0  0  0  0  0  0  0  0  0  0  0  0
    2.6130   -3.0753   -9.3459 H   0  0  0  0  0  0  0  0  0  0  0  0
    0.9103   -3.0093    1.2690 H   0  0  0  0  0  0  0  0  0  0  0  0
    1.5606   -4.3985    2.0780 H   0  0  0  0  0  0  0  0  0  0  0  0
    1.1334   -6.5903   -9.8846 H   0  0  0  0  0  0  0  0  0  0  0  0
    1.2861   -7.2054   -8.2432 H   0  0  0  0  0  0  0  0  0  0  0  0
   -1.0833   -6.9493   -8.7686 H   0  0  0  0  0  0  0  0  0  0  0  0
   -0.8518   -5.2939   -9.3016 H   0  0  0  0  0  0  0  0  0  0  0  0
    1.6972   -2.7954   -7.2356 H   0  0  0  0  0  0  0  0  0  0  0  0
    5.1138   -1.9632    1.1969 H   0  0  0  0  0  0  0  0  0  0  0  0
    4.9384   -2.7696    2.7395 H   0  0  0  0  0  0  0  0  0  0  0  0
    7.3455   -1.1549    2.3200 H   0  0  0  0  0  0  0  0  0  0  0  0
    7.1500   -2.2600    3.6857 H   0  0  0  0  0  0  0  0  0  0  0  0
    7.0493   -3.9840   -0.2833 H   0  0  0  0  0  0  0  0  0  0  0  0
    7.2498   -2.2341   -0.1829 H   0  0  0  0  0  0  0  0  0  0  0  0
    1.6618   -0.7519    1.1488 H   0  0  0  0  0  0  0  0  0  0  0  0
   -0.1824   -0.3823    4.2362 H   0  0  0  0  0  0  0  0  0  0  0  0
    0.5159   -1.8044    4.9942 H   0  0  0  0  0  0  0  0  0  0  0  0
   -0.4242   -1.9707    3.5025 H   0  0  0  0  0  0  0  0  0  0  0  0
    1.4765    1.4503    4.0247 H   0  0  0  0  0  0  0  0  0  0  0  0
   -0.1124    1.8875    3.3539 H   0  0  0  0  0  0  0  0  0  0  0  0
    1.3315    2.8542    3.0015 H   0  0  0  0  0  0  0  0  0  0  0  0
    2.9985    2.0486    0.6007 H   0  0  0  0  0  0  0  0  0  0  0  0
   -3.1731   -0.8737    1.8557 H   0  0  0  0  0  0  0  0  0  0  0  0
   -1.4353   -0.9071    1.5141 H   0  0  0  0  0  0  0  0  0  0  0  0
   -2.1301    0.4014    2.4956 H   0  0  0  0  0  0  0  0  0  0  0  0
   -4.4378   -1.8872   -2.8522 H   0  0  0  0  0  0  0  0  0  0  0  0
   -2.1037   -0.5675   -3.9384 H   0  0  0  0  0  0  0  0  0  0  0  0
   -3.8755   -0.8321   -0.6030 H   0  0  0  0  0  0  0  0  0  0  0  0
   -2.1884   -1.1571   -0.8991 H   0  0  0  0  0  0  0  0  0  0  0  0
   -0.4694   -7.5960   -6.4600 H   0  0  0  0  0  0  0  0  0  0  0  0
   -0.3915   -6.4267   -5.1749 H   0  0  0  0  0  0  0  0  0  0  0  0
   -3.9638   -4.9063   -6.1269 H   0  0  0  0  0  0  0  0  0  0  0  0
   -4.8847   -4.0671   -3.8261 H   0  0  0  0  0  0  0  0  0  0  0  0
   -2.6007   -2.6722   -4.9565 H   0  0  0  0  0  0  0  0  0  0  0  0
   -1.9964   -7.0423   -3.1143 H   0  0  0  0  0  0  0  0  0  0  0  0
   -3.3611   -6.0284   -2.6673 H   0  0  0  0  0  0  0  0  0  0  0  0
   -1.7968   -5.2914   -3.0935 H   0  0  0  0  0  0  0  0  0  0  0  0
   -4.4784    1.9047   -1.7488 H   0  0  0  0  0  0  0  0  0  0  0  0
   -5.2678    0.4305   -2.3282 H   0  0  0  0  0  0  0  0  0  0  0  0
   -4.4524    1.5101   -3.4712 H   0  0  0  0  0  0  0  0  0  0  0  0
    9.2812   -3.3717    3.1831 H   0  0  0  0  0  0  0  0  0  0  0  0
    9.5299   -1.6288    3.3413 H   0  0  0  0  0  0  0  0  0  0  0  0
   11.4575   -2.5021    0.5114 H   0  0  0  0  0  0  0  0  0  0  0  0
   10.0249   -4.0160   -2.7986 H   0  0  0  0  0  0  0  0  0  0  0  0
    8.3539   -4.2201   -2.2685 H   0  0  0  0  0  0  0  0  0  0  0  0
    9.6522   -5.2121   -1.5510 H   0  0  0  0  0  0  0  0  0  0  0  0
    0.4076   -0.0938   -2.7666 H   0  0  0  0  0  0  0  0  0  0  0  0
    0.8974   -1.6046   -1.9871 H   0  0  0  0  0  0  0  0  0  0  0  0
    1.9028   -0.1628   -1.7979 H   0  0  0  0  0  0  0  0  0  0  0  0
   -3.9221   -8.3602   -8.3908 H   0  0  0  0  0  0  0  0  0  0  0  0
   -4.0361   -9.0323   -6.7560 H   0  0  0  0  0  0  0  0  0  0  0  0
   -2.4593   -8.9661   -7.5935 H   0  0  0  0  0  0  0  0  0  0  0  0
    3.5927   -6.0336    1.4284 H   0  0  0  0  0  0  0  0  0  0  0  0
    4.0214   -5.1567    2.9005 H   0  0  0  0  0  0  0  0  0  0  0  0
    5.2847   -5.8269    1.8629 H   0  0  0  0  0  0  0  0  0  0  0  0
  1  2  1  0  0  0  0 
  2  3  1  0  0  0  0 
  3  4  1  0  0  0  0 
  4  5  1  0  0  0  0 
  5  6  1  0  0  0  0 
  6  1  1  0  0  0  0 
  7  8  2  0  0  0  0 
  8  9  1  0  0  0  0 
  9  4  1  0  0  0  0 
 11 10  1  0  0  0  0 
 11 12  1  0  0  0  0 
 12  8  1  0  0  0  0 
  9 13  2  0  0  0  0 
 14 15  1  0  0  0  0 
 15  5  1  0  0  0  0 
 16 17  1  0  0  0  0 
 17 14  1  0  0  0  0 
 17 18  1  0  0  0  0 
 19 15  2  0  0  0  0 
 11 20  1  0  0  0  0 
 20 21  1  0  0  0  0 
 21 22  1  0  0  0  0 
 22 23  1  0  0  0  0 
 23 12  1  0  0  0  0 
 12 24  1  0  0  0  0 
  5 25  1  0  0  0  0 
 16 26  1  0  0  0  0 
 26 27  2  0  0  0  0 
 28 29  1  0  0  0  0 
 29 18  1  0  0  0  0 
 28 30  1  0  0  0  0 
 31 32  1  0  0  0  0 
 32 28  1  0  0  0  0 
 33 26  1  0  0  0  0 
 34 33  1  0  0  0  0 
 35 34  2  0  0  0  0 
 36 35  1  0  0  0  0 
 37 36  1  0  0  0  0 
 33 38  1  0  0  0  0 
 33 39  1  0  0  0  0 
 35 40  1  0  0  0  0 
 37 41  1  0  0  0  0 
 36 42  1  0  0  0  0 
 36 43  1  0  0  0  0 
 41 44  1  0  0  0  0 
 41 45  2  0  0  0  0 
 44 46  1  0  0  0  0 
 47 48  2  0  0  0  0 
 48 49  1  0  0  0  0 
 49 50  1  0  0  0  0 
 50 44  1  0  0  0  0 
 51 22  1  0  0  0  0 
 52 51  1  0  0  0  0 
 53 52  1  0  0  0  0 
 54 53  2  0  0  0  0 
 55 54  1  0  0  0  0 
 56 55  2  0  0  0  0 
 52 57  1  0  0  0  0 
 52 58  1  0  0  0  0 
 53 59  1  0  0  0  0 
 56 47  1  0  0  0  0 
 49 60  1  0  0  0  0 
 49 61  1  0  0  0  0 
 44 62  1  0  0  0  0 
 37 63  1  0  0  0  0 
 37 64  1  0  0  0  0 
 30 65  1  0  0  0  0 
 65 66  1  0  0  0  0 
 66 31  1  0  0  0  0 
 31 67  1  0  0  0  0 
 31 68  1  0  0  0  0 
 66 69  1  0  0  0  0 
 66 70  1  0  0  0  0 
 11 71  1  0  0  0  0 
 22 72  1  0  0  0  0 
 28 73  1  0  0  0  0 
 17 74  1  0  0  0  0 
 68 75  1  0  0  0  0 
 63 76  1  0  0  0  0 
 58 77  1  0  0  0  0 
 18 78  1  0  0  0  0 
 18 79  1  0  0  0  0 
  1 80  1  0  0  0  0 
  1 81  1  0  0  0  0 
  2 82  1  0  0  0  0 
  2 83  1  0  0  0  0 
  3 84  1  0  0  0  0 
  3 85  1  0  0  0  0 
  6 86  1  0  0  0  0 
  6 87  1  0  0  0  0 
 10 88  1  0  0  0  0 
 10 89  1  0  0  0  0 
 10 90  1  0  0  0  0 
 16 91  1  0  0  0  0 
 16 92  1  0  0  0  0 
 20 93  1  0  0  0  0 
 20 94  1  0  0  0  0 
 21 95  1  0  0  0  0 
 21 96  1  0  0  0  0 
 24 97  1  0  0  0  0 
 29 98  1  0  0  0  0 
 29 99  1  0  0  0  0 
 30100  1  0  0  0  0 
 30101  1  0  0  0  0 
 32102  1  0  0  0  0 
 32103  1  0  0  0  0 
 34104  1  0  0  0  0 
 38105  1  0  0  0  0 
 38106  1  0  0  0  0 
 38107  1  0  0  0  0 
 40108  1  0  0  0  0 
 40109  1  0  0  0  0 
 40110  1  0  0  0  0 
 42111  1  0  0  0  0 
 46112  1  0  0  0  0 
 46113  1  0  0  0  0 
 46114  1  0  0  0  0 
 47115  1  0  0  0  0 
 48116  1  0  0  0  0 
 50117  1  0  0  0  0 
 50118  1  0  0  0  0 
 51119  1  0  0  0  0 
 51120  1  0  0  0  0 
 54121  1  0  0  0  0 
 55122  1  0  0  0  0 
 56123  1  0  0  0  0 
 59124  1  0  0  0  0 
 59125  1  0  0  0  0 
 59126  1  0  0  0  0 
 61127  1  0  0  0  0 
 61128  1  0  0  0  0 
 61129  1  0  0  0  0 
 65130  1  0  0  0  0 
 65131  1  0  0  0  0 
 69132  1  0  0  0  0 
 75133  1  0  0  0  0 
 75134  1  0  0  0  0 
 75135  1  0  0  0  0 
 76136  1  0  0  0  0 
 76137  1  0  0  0  0 
 76138  1  0  0  0  0 
 77139  1  0  0  0  0 
 77140  1  0  0  0  0 
 77141  1  0  0  0  0 
 79142  1  0  0  0  0 
 79143  1  0  0  0  0 
 79144  1  0  0  0  0 
M  END
> <cdk:Title>
sirolimus

> <Conformer>
1

> <SuperDrugID>
SD002198

$$$$
