pamabrom
  CDK     0628171801

 21 22  0  0  0  0  0  0  0  0999 V2000
   -2.0158    0.3249   -3.3186 O   0  0  0  0  0  0  0  0  0  0  0  0
   -1.4619    0.2125   -2.1980 C   0  0  0  0  0  0  0  0  0  0  0  0
   -1.4781   -1.0479   -1.5909 C   0  0  0  0  0  0  0  0  0  0  0  0
   -0.8506    1.2613   -1.5429 N   0  0  0  0  0  0  0  0  0  0  0  0
   -0.8950   -1.2169   -0.3443 C   0  0  0  0  0  0  0  0  0  0  0  0
   -1.9729   -2.2264   -1.9831 N   0  0  0  0  0  0  0  0  0  0  0  0
   -0.8268    2.5761   -2.1543 C   0  0  0  0  0  0  0  0  0  0  0  0
   -0.2930    1.0555   -0.2919 C   0  0  0  0  0  0  0  0  0  0  0  0
   -0.3025   -0.1826    0.3171 N   0  0  0  0  0  0  0  0  0  0  0  0
   -1.0446   -2.5081    0.0053 N   0  0  0  0  0  0  0  0  0  0  0  0
   -1.7032   -3.1062   -1.0049 C   0  0  0  0  0  0  0  0  0  0  0  0
    0.2345    2.0187    0.3200 O   0  0  0  0  0  0  0  0  0  0  0  0
    0.2963   -0.3868    1.6154 C   0  0  0  0  0  0  0  0  0  0  0  0
   -2.1671   -4.9034   -1.0241 Br  0  0  0  0  0  0  0  0  0  0  0  0
   -2.4359   -2.4095   -2.8171 H   0  0  0  0  0  0  0  0  0  0  0  0
   -1.7194    3.1242   -1.8509 H   0  0  0  0  0  0  0  0  0  0  0  0
    0.0487    3.1577   -1.8577 H   0  0  0  0  0  0  0  0  0  0  0  0
   -0.8042    2.5263   -3.2452 H   0  0  0  0  0  0  0  0  0  0  0  0
    1.3568   -0.1323    1.5718 H   0  0  0  0  0  0  0  0  0  0  0  0
    0.2199   -1.4141    1.9797 H   0  0  0  0  0  0  0  0  0  0  0  0
   -0.1900    0.2587    2.3489 H   0  0  0  0  0  0  0  0  0  0  0  0
  1  2  2  0  0  0  0 
  2  3  1  0  0  0  0 
  2  4  1  0  0  0  0 
  3  5  2  0  0  0  0 
  3  6  1  0  0  0  0 
  4  7  1  0  0  0  0 
  4  8  1  0  0  0  0 
  5  9  1  0  0  0  0 
  5 10  1  0  0  0  0 
  6 11  1  0  0  0  0 
  8  9  1  0  0  0  0 
  8 12  2  0  0  0  0 
  9 13  1  0  0  0  0 
 10 11  2  0  0  0  0 
 11 14  1  0  0  0  0 
 15  6  1  0  0  0  0 
 16  7  1  0  0  0  0 
 17  7  1  0  0  0  0 
 18  7  1  0  0  0  0 
 19 13  1  0  0  0  0 
 20 13  1  0  0  0  0 
 21 13  1  0  0  0  0 
M  END
> <cdk:Title>
pamabrom

> <Conformer>
1

> <SuperDrugID>
SD001834

$$$$
