remifentanil
  CDK     0628171801

 55 56  0  0  0  0  0  0  0  0999 V2000
   -6.0591    6.5976    1.3393 C   0  0  0  0  0  0  0  0  0  0  0  0
   -7.0165    7.4034    1.9791 C   0  0  0  0  0  0  0  0  0  0  0  0
   -7.2319    7.2693    3.3625 C   0  0  0  0  0  0  0  0  0  0  0  0
   -6.5070    6.3139    4.1010 C   0  0  0  0  0  0  0  0  0  0  0  0
   -5.5773    5.4559    3.4610 C   0  0  0  0  0  0  0  0  0  0  0  0
   -5.3423    5.6389    2.0760 C   0  0  0  0  0  0  0  0  0  0  0  0
   -4.8647    4.4613    4.1241 N   0  0  0  0  0  0  0  0  0  0  0  0
   -5.5256    3.1365    4.3369 C   0  0  1  0  0  0  0  0  0  0  0  0
   -3.5363    4.7763    4.4363 C   0  0  0  0  0  0  0  0  0  0  0  0
   -2.6710    3.8825    4.5713 O   0  0  0  0  0  0  0  0  0  0  0  0
   -2.9813    6.1507    4.6318 C   0  0  1  0  0  0  0  0  0  0  0  0
   -1.7878    6.4999    3.7121 C   0  0  0  0  0  0  0  0  0  0  0  0
   -4.3501    2.1855    6.5024 C   0  0  2  0  0  0  0  0  0  0  0  0
   -4.7098    1.9622    5.0055 C   0  0  2  0  0  0  0  0  0  0  0  0
   -6.7765    3.2680    5.2895 C   0  0  1  0  0  0  0  0  0  0  0  0
   -6.3733    3.6508    6.7383 C   0  0  1  0  0  0  0  0  0  0  0  0
   -5.4861    2.6237    7.3751 N   0  0  2  0  0  0  0  0  0  0  0  0
   -5.9144    2.6162    2.9832 C   0  0  0  0  0  0  0  0  0  0  0  0
   -4.9225    2.2877    2.0975 O   0  0  0  0  0  0  0  0  0  0  0  0
   -7.1153    2.4894    2.6408 O   0  0  0  0  0  0  0  0  0  0  0  0
   -5.0969    1.8706    0.7385 C   0  0  0  0  0  0  0  0  0  0  0  0
   -5.0052    3.0110    8.7489 C   0  0  2  0  0  0  0  0  0  0  0  0
   -6.0732    2.9068    9.8711 C   0  0  1  0  0  0  0  0  0  0  0  0
   -5.5374    3.4027   11.1544 C   0  0  0  0  0  0  0  0  0  0  0  0
   -5.8131    4.6891   11.5213 O   0  0  0  0  0  0  0  0  0  0  0  0
   -4.8033    2.6608   11.8503 O   0  0  0  0  0  0  0  0  0  0  0  0
   -5.3876    5.3442   12.7159 C   0  0  0  0  0  0  0  0  0  0  0  0
   -5.8820    6.7106    0.3399 H   0  0  0  0  0  0  0  0  0  0  0  0
   -7.5468    8.0944    1.4430 H   0  0  0  0  0  0  0  0  0  0  0  0
   -7.9124    7.8702    3.8338 H   0  0  0  0  0  0  0  0  0  0  0  0
   -6.6636    6.2530    5.1091 H   0  0  0  0  0  0  0  0  0  0  0  0
   -4.6454    5.0669    1.5925 H   0  0  0  0  0  0  0  0  0  0  0  0
   -3.7378    6.9218    4.4991 H   0  0  0  0  0  0  0  0  0  0  0  0
   -2.6453    6.2316    5.6680 H   0  0  0  0  0  0  0  0  0  0  0  0
   -1.4275    7.5013    3.9563 H   0  0  0  0  0  0  0  0  0  0  0  0
   -0.9636    5.7985    3.8583 H   0  0  0  0  0  0  0  0  0  0  0  0
   -2.0893    6.4831    2.6635 H   0  0  0  0  0  0  0  0  0  0  0  0
   -3.5250    2.8904    6.5895 H   0  0  0  0  0  0  0  0  0  0  0  0
   -3.9887    1.2298    6.8887 H   0  0  0  0  0  0  0  0  0  0  0  0
   -3.8016    1.7397    4.4401 H   0  0  0  0  0  0  0  0  0  0  0  0
   -5.3061    1.0421    4.9663 H   0  0  0  0  0  0  0  0  0  0  0  0
   -7.4941    3.9918    4.9041 H   0  0  0  0  0  0  0  0  0  0  0  0
   -7.3208    2.3178    5.3423 H   0  0  0  0  0  0  0  0  0  0  0  0
   -5.8885    4.6308    6.7328 H   0  0  0  0  0  0  0  0  0  0  0  0
   -7.2958    3.7396    7.3165 H   0  0  0  0  0  0  0  0  0  0  0  0
   -5.5120    2.6926    0.1503 H   0  0  0  0  0  0  0  0  0  0  0  0
   -4.1271    1.5953    0.3216 H   0  0  0  0  0  0  0  0  0  0  0  0
   -5.7618    1.0057    0.6801 H   0  0  0  0  0  0  0  0  0  0  0  0
   -4.6014    4.0304    8.7195 H   0  0  0  0  0  0  0  0  0  0  0  0
   -4.1828    2.3530    9.0504 H   0  0  0  0  0  0  0  0  0  0  0  0
   -6.9527    3.4984    9.6149 H   0  0  0  0  0  0  0  0  0  0  0  0
   -6.3949    1.8676    9.9864 H   0  0  0  0  0  0  0  0  0  0  0  0
   -5.8392    4.8630   13.5841 H   0  0  0  0  0  0  0  0  0  0  0  0
   -5.7072    6.3859   12.6774 H   0  0  0  0  0  0  0  0  0  0  0  0
   -4.3005    5.3099   12.7979 H   0  0  0  0  0  0  0  0  0  0  0  0
  1  2  2  0  0  0  0 
  2  3  1  0  0  0  0 
  3  4  2  0  0  0  0 
  4  5  1  0  0  0  0 
  5  6  2  0  0  0  0 
  1  6  1  0  0  0  0 
  5  7  1  0  0  0  0 
  7  8  1  0  0  0  0 
  7  9  1  0  0  0  0 
  9 10  2  0  0  0  0 
  9 11  1  0  0  0  0 
 11 12  1  0  0  0  0 
 14  8  1  0  0  0  0 
  8 15  1  0  0  0  0 
 13 14  1  0  0  0  0 
 15 16  1  0  0  0  0 
 16 17  1  0  0  0  0 
 13 17  1  0  0  0  0 
  8 18  1  0  0  0  0 
 18 19  1  0  0  0  0 
 18 20  2  0  0  0  0 
 19 21  1  0  0  0  0 
 17 22  1  0  0  0  0 
 22 23  1  0  0  0  0 
 23 24  1  0  0  0  0 
 24 25  1  0  0  0  0 
 24 26  2  0  0  0  0 
 25 27  1  0  0  0  0 
  1 28  1  0  0  0  0 
  2 29  1  0  0  0  0 
  3 30  1  0  0  0  0 
  4 31  1  0  0  0  0 
  6 32  1  0  0  0  0 
 11 33  1  0  0  0  0 
 11 34  1  0  0  0  0 
 12 35  1  0  0  0  0 
 12 36  1  0  0  0  0 
 12 37  1  0  0  0  0 
 13 38  1  0  0  0  0 
 13 39  1  0  0  0  0 
 14 40  1  0  0  0  0 
 14 41  1  0  0  0  0 
 15 42  1  0  0  0  0 
 15 43  1  0  0  0  0 
 16 44  1  0  0  0  0 
 16 45  1  0  0  0  0 
 21 46  1  0  0  0  0 
 21 47  1  0  0  0  0 
 21 48  1  0  0  0  0 
 22 49  1  0  0  0  0 
 22 50  1  0  0  0  0 
 23 51  1  0  0  0  0 
 23 52  1  0  0  0  0 
 27 53  1  0  0  0  0 
 27 54  1  0  0  0  0 
 27 55  1  0  0  0  0 
M  END
> <cdk:Title>
remifentanil

> <Conformer>
1

> <SuperDrugID>
SD002126

$$$$
