perazine
  CDK     0628171801

 49 52  0  0  0  0  0  0  0  0999 V2000
   -1.3484   -7.3273    2.3827 C   0  0  0  0  0  0  0  0  0  0  0  0
   -1.0230   -5.9395    1.9511 N   0  0  1  0  0  0  0  0  0  0  0  0
   -2.1885   -5.0101    2.0181 C   0  0  1  0  0  0  0  0  0  0  0  0
   -1.8174   -3.6329    1.4154 C   0  0  1  0  0  0  0  0  0  0  0  0
   -0.5929   -3.0435    2.0478 N   0  0  2  0  0  0  0  0  0  0  0  0
   -0.1826   -1.7261    1.4532 C   0  0  1  0  0  0  0  0  0  0  0  0
   -1.1593   -0.5424    1.6839 C   0  0  2  0  0  0  0  0  0  0  0  0
   -1.4910   -0.2519    3.1742 C   0  0  2  0  0  0  0  0  0  0  0  0
   -0.3436   -0.0570    4.0615 N   0  0  0  0  0  0  0  0  0  0  0  0
   -0.2464   -0.7959    5.2417 C   0  0  0  0  0  0  0  0  0  0  0  0
   -1.3752   -1.0154    6.0725 C   0  0  0  0  0  0  0  0  0  0  0  0
   -1.2783   -1.7746    7.2531 C   0  0  0  0  0  0  0  0  0  0  0  0
   -0.0413   -2.3166    7.6416 C   0  0  0  0  0  0  0  0  0  0  0  0
    1.0998   -2.0928    6.8554 C   0  0  0  0  0  0  0  0  0  0  0  0
    0.9919   -1.3410    5.6696 C   0  0  0  0  0  0  0  0  0  0  0  0
    2.4296   -1.0328    4.7087 S   0  0  0  0  0  0  0  0  0  0  0  0
    2.0397    0.4927    3.9239 C   0  0  0  0  0  0  0  0  0  0  0  0
    0.6751    0.8383    3.7277 C   0  0  0  0  0  0  0  0  0  0  0  0
    0.3989    2.1143    3.1746 C   0  0  0  0  0  0  0  0  0  0  0  0
    1.4377    2.9817    2.7845 C   0  0  0  0  0  0  0  0  0  0  0  0
    2.7791    2.5952    2.9456 C   0  0  0  0  0  0  0  0  0  0  0  0
    3.0813    1.3504    3.5229 C   0  0  0  0  0  0  0  0  0  0  0  0
    0.5532   -4.0100    2.0561 C   0  0  2  0  0  0  0  0  0  0  0  0
    0.1643   -5.3801    2.6608 C   0  0  1  0  0  0  0  0  0  0  0  0
   -2.1785   -7.7247    1.7958 H   0  0  0  0  0  0  0  0  0  0  0  0
   -0.4905   -7.9851    2.2231 H   0  0  0  0  0  0  0  0  0  0  0  0
   -1.6197   -7.3547    3.4406 H   0  0  0  0  0  0  0  0  0  0  0  0
   -3.0286   -5.4159    1.4459 H   0  0  0  0  0  0  0  0  0  0  0  0
   -2.5124   -4.8816    3.0555 H   0  0  0  0  0  0  0  0  0  0  0  0
   -1.6666   -3.7512    0.3372 H   0  0  0  0  0  0  0  0  0  0  0  0
   -2.6732   -2.9740    1.5724 H   0  0  0  0  0  0  0  0  0  0  0  0
    0.7813   -1.4203    1.8675 H   0  0  0  0  0  0  0  0  0  0  0  0
   -0.0356   -1.8369    0.3751 H   0  0  0  0  0  0  0  0  0  0  0  0
   -2.0928   -0.7298    1.1483 H   0  0  0  0  0  0  0  0  0  0  0  0
   -0.7247    0.3531    1.2334 H   0  0  0  0  0  0  0  0  0  0  0  0
   -2.1124   -1.0901    3.5012 H   0  0  0  0  0  0  0  0  0  0  0  0
   -2.1335    0.6308    3.2163 H   0  0  0  0  0  0  0  0  0  0  0  0
   -2.2851   -0.6172    5.8282 H   0  0  0  0  0  0  0  0  0  0  0  0
   -2.1082   -1.9305    7.8305 H   0  0  0  0  0  0  0  0  0  0  0  0
    0.0288   -2.8686    8.4993 H   0  0  0  0  0  0  0  0  0  0  0  0
    2.0028   -2.4705    7.1507 H   0  0  0  0  0  0  0  0  0  0  0  0
   -0.5657    2.4272    3.0492 H   0  0  0  0  0  0  0  0  0  0  0  0
    1.2174    3.8949    2.3794 H   0  0  0  0  0  0  0  0  0  0  0  0
    3.5324    3.2204    2.6474 H   0  0  0  0  0  0  0  0  0  0  0  0
    4.0563    1.0772    3.6546 H   0  0  0  0  0  0  0  0  0  0  0  0
    1.3709   -3.6047    2.6581 H   0  0  0  0  0  0  0  0  0  0  0  0
    0.9295   -4.1664    1.0386 H   0  0  0  0  0  0  0  0  0  0  0  0
   -0.0404   -5.2656    3.7308 H   0  0  0  0  0  0  0  0  0  0  0  0
    1.0181   -6.0550    2.5525 H   0  0  0  0  0  0  0  0  0  0  0  0
  1  2  1  0  0  0  0 
  2  3  1  0  0  0  0 
  3  4  1  0  0  0  0 
  4  5  1  0  0  0  0 
  5  6  1  0  0  0  0 
  6  7  1  0  0  0  0 
  7  8  1  0  0  0  0 
  8  9  1  0  0  0  0 
  9 10  1  0  0  0  0 
 10 11  2  0  0  0  0 
 11 12  1  0  0  0  0 
 12 13  2  0  0  0  0 
 13 14  1  0  0  0  0 
 14 15  2  0  0  0  0 
 10 15  1  0  0  0  0 
 15 16  1  0  0  0  0 
 16 17  1  0  0  0  0 
 17 18  2  0  0  0  0 
  9 18  1  0  0  0  0 
 18 19  1  0  0  0  0 
 19 20  2  0  0  0  0 
 20 21  1  0  0  0  0 
 21 22  2  0  0  0  0 
 17 22  1  0  0  0  0 
  5 23  1  0  0  0  0 
 23 24  1  0  0  0  0 
  2 24  1  0  0  0  0 
  1 25  1  0  0  0  0 
  1 26  1  0  0  0  0 
  1 27  1  0  0  0  0 
  3 28  1  0  0  0  0 
  3 29  1  0  0  0  0 
  4 30  1  0  0  0  0 
  4 31  1  0  0  0  0 
  6 32  1  0  0  0  0 
  6 33  1  0  0  0  0 
  7 34  1  0  0  0  0 
  7 35  1  0  0  0  0 
  8 36  1  0  0  0  0 
  8 37  1  0  0  0  0 
 11 38  1  0  0  0  0 
 12 39  1  0  0  0  0 
 13 40  1  0  0  0  0 
 14 41  1  0  0  0  0 
 19 42  1  0  0  0  0 
 20 43  1  0  0  0  0 
 21 44  1  0  0  0  0 
 22 45  1  0  0  0  0 
 23 46  1  0  0  0  0 
 23 47  1  0  0  0  0 
 24 48  1  0  0  0  0 
 24 49  1  0  0  0  0 
M  END
> <cdk:Title>
perazine

> <Conformer>
1

> <SuperDrugID>
SD001882

$$$$
