carbachol
  CDK     0628171802

 25 24  0  0  0  0  0  0  0  0999 V2000
   -3.0614   -0.8591   -2.4593 C   0  0  0  0  0  0  0  0  0  0  0  0
   -2.6522   -1.4666   -1.1387 N   0  0  1  0  0  0  0  0  0  0  0  0
   -3.8880   -1.6132   -0.2741 C   0  0  0  0  0  0  0  0  0  0  0  0
   -2.0768   -2.8414   -1.3875 C   0  0  0  0  0  0  0  0  0  0  0  0
   -1.6674   -0.5734   -0.3950 C   0  0  1  0  0  0  0  0  0  0  0  0
   -0.2841   -0.2755   -1.0350 C   0  0  1  0  0  0  0  0  0  0  0  0
    0.4728    0.5477   -0.1303 O   0  0  0  0  0  0  0  0  0  0  0  0
    1.6607    0.2698    0.4782 C   0  0  0  0  0  0  0  0  0  0  0  0
    2.1666    1.1762    1.3308 N   0  0  0  0  0  0  0  0  0  0  0  0
    2.2948   -0.7893    0.2739 O   0  0  0  0  0  0  0  0  0  0  0  0
   -3.8410   -1.4526   -2.9468 H   0  0  0  0  0  0  0  0  0  0  0  0
   -3.4507    0.1536   -2.3282 H   0  0  0  0  0  0  0  0  0  0  0  0
   -2.2195   -0.8050   -3.1544 H   0  0  0  0  0  0  0  0  0  0  0  0
   -4.3509   -0.6429   -0.0711 H   0  0  0  0  0  0  0  0  0  0  0  0
   -3.6467   -2.0687    0.6909 H   0  0  0  0  0  0  0  0  0  0  0  0
   -4.6456   -2.2424   -0.7491 H   0  0  0  0  0  0  0  0  0  0  0  0
   -2.8228   -3.5160   -1.8179 H   0  0  0  0  0  0  0  0  0  0  0  0
   -1.7157   -3.2945   -0.4610 H   0  0  0  0  0  0  0  0  0  0  0  0
   -1.2395   -2.8089   -2.0896 H   0  0  0  0  0  0  0  0  0  0  0  0
   -2.1355    0.3986   -0.2022 H   0  0  0  0  0  0  0  0  0  0  0  0
   -1.4557   -1.0118    0.5860 H   0  0  0  0  0  0  0  0  0  0  0  0
    0.2435   -1.2038   -1.2573 H   0  0  0  0  0  0  0  0  0  0  0  0
   -0.4072    0.2799   -1.9652 H   0  0  0  0  0  0  0  0  0  0  0  0
    3.0124    1.0170    1.7755 H   0  0  0  0  0  0  0  0  0  0  0  0
    1.6846    1.9980    1.5009 H   0  0  0  0  0  0  0  0  0  0  0  0
  1  2  1  0  0  0  0 
  2  3  1  0  0  0  0 
  2  4  1  0  0  0  0 
  2  5  1  0  0  0  0 
  5  6  1  0  0  0  0 
  6  7  1  0  0  0  0 
  7  8  1  0  0  0  0 
  8  9  1  0  0  0  0 
  8 10  2  0  0  0  0 
 11  1  1  0  0  0  0 
 12  1  1  0  0  0  0 
 13  1  1  0  0  0  0 
 14  3  1  0  0  0  0 
 15  3  1  0  0  0  0 
 16  3  1  0  0  0  0 
 17  4  1  0  0  0  0 
 18  4  1  0  0  0  0 
 19  4  1  0  0  0  0 
 20  5  1  0  0  0  0 
 21  5  1  0  0  0  0 
 22  6  1  0  0  0  0 
 23  6  1  0  0  0  0 
 24  9  1  0  0  0  0 
 25  9  1  0  0  0  0 
M  CHG  1   2   1
M  END
> <cdk:Title>
carbachol

> <Conformer>
1

> <SuperDrugID>
SD000422

$$$$
