prednisolone sodium phosphate
  CDK     0628171801

 59 62  0  0  0  0  0  0  0  0999 V2000
   -4.2975    2.5419    5.0224 C   0  0  0  0  0  0  0  0  0  0  0  0
   -5.0234    1.2480    4.4716 C   0  0  2  0  0  0  0  0  0  0  0  0
   -4.2821   -0.0923    4.8114 C   0  0  2  0  0  0  0  0  0  0  0  0
   -4.9569    1.2330    2.8902 C   0  0  2  0  0  0  0  0  0  0  0  0
   -6.4548    1.1073    5.1080 C   0  0  2  0  0  0  0  0  0  0  0  0
   -4.0908   -0.3343    6.3470 C   0  0  1  0  0  0  0  0  0  0  0  0
   -3.0393   -0.0737    3.8996 C   0  0  1  0  0  0  0  0  0  0  0  0
   -5.2559    2.5218    2.1648 C   0  0  0  0  0  0  0  0  0  0  0  0
   -5.8966    0.2842    2.3637 O   0  0  0  0  0  0  0  0  0  0  0  0
   -3.5204    0.6510    2.6174 C   0  0  2  0  0  0  0  0  0  0  0  0
   -6.4458    0.8130    6.6440 C   0  0  1  0  0  0  0  0  0  0  0  0
   -5.4911   -0.3691    7.0818 C   0  0  2  0  0  0  0  0  0  0  0  0
   -3.2982   -1.6429    6.6502 C   0  0  1  0  0  0  0  0  0  0  0  0
   -6.5150    3.2959    2.3085 C   0  0  2  0  0  0  0  0  0  0  0  0
   -4.4189    2.9886    1.3552 O   0  0  0  0  0  0  0  0  0  0  0  0
   -6.1922    2.0221    7.3485 O   0  0  0  0  0  0  0  0  0  0  0  0
   -5.3473   -0.6453    8.6503 C   0  0  2  0  0  0  0  0  0  0  0  0
   -3.1595   -1.8828    8.1742 C   0  0  2  0  0  0  0  0  0  0  0  0
   -7.6533    2.4829    1.9635 O   0  0  0  0  0  0  0  0  0  0  0  0
   -4.6938    0.5299    9.4688 C   0  0  0  0  0  0  0  0  0  0  0  0
   -4.4756   -1.8561    8.8268 C   0  0  0  0  0  0  0  0  0  0  0  0
   -6.6911   -0.8329    9.2535 C   0  0  0  0  0  0  0  0  0  0  0  0
   -9.0718    3.1688    2.2370 P   0  0  2  0  0  0  0  0  0  0  0  0
   -4.8910   -2.9240    9.5472 C   0  0  0  0  0  0  0  0  0  0  0  0
   -7.0454   -1.9307    9.9408 C   0  0  0  0  0  0  0  0  0  0  0  0
   -9.1616    4.4958    1.6183 O   0  0  0  0  0  0  0  0  0  0  0  0
   -9.3059    3.2697    3.8004 O   0  0  0  0  0  0  0  0  0  0  0  0
  -10.1913    2.2218    1.6392 O   0  0  0  0  0  0  0  0  0  0  0  0
   -6.1501   -2.9677   10.1234 C   0  0  0  0  0  0  0  0  0  0  0  0
   -6.4884   -3.9642   10.8051 O   0  0  0  0  0  0  0  0  0  0  0  0
   -4.9177    3.4264    4.8868 H   0  0  0  0  0  0  0  0  0  0  0  0
   -3.3544    2.7277    4.5099 H   0  0  0  0  0  0  0  0  0  0  0  0
   -4.0701    2.4881    6.0831 H   0  0  0  0  0  0  0  0  0  0  0  0
   -4.8876   -0.9396    4.4571 H   0  0  0  0  0  0  0  0  0  0  0  0
   -6.9951    0.2853    4.6263 H   0  0  0  0  0  0  0  0  0  0  0  0
   -7.0413    2.0086    4.9255 H   0  0  0  0  0  0  0  0  0  0  0  0
   -3.4863    0.4772    6.7479 H   0  0  0  0  0  0  0  0  0  0  0  0
   -2.2259    0.4800    4.3792 H   0  0  0  0  0  0  0  0  0  0  0  0
   -2.6868   -1.0839    3.6708 H   0  0  0  0  0  0  0  0  0  0  0  0
   -5.7593    0.2845    1.3925 H   0  0  0  0  0  0  0  0  0  0  0  0
   -2.7963    1.4381    2.3913 H   0  0  0  0  0  0  0  0  0  0  0  0
   -3.5294   -0.0384    1.7667 H   0  0  0  0  0  0  0  0  0  0  0  0
   -7.4712    0.5366    6.9081 H   0  0  0  0  0  0  0  0  0  0  0  0
   -5.9996   -1.2588    6.6837 H   0  0  0  0  0  0  0  0  0  0  0  0
   -3.7994   -2.5021    6.1937 H   0  0  0  0  0  0  0  0  0  0  0  0
   -2.2956   -1.5790    6.2205 H   0  0  0  0  0  0  0  0  0  0  0  0
   -6.4859    4.1692    1.6456 H   0  0  0  0  0  0  0  0  0  0  0  0
   -6.5788    3.6684    3.3306 H   0  0  0  0  0  0  0  0  0  0  0  0
   -6.9456    2.6089    7.1210 H   0  0  0  0  0  0  0  0  0  0  0  0
   -2.5219   -1.1070    8.6055 H   0  0  0  0  0  0  0  0  0  0  0  0
   -2.6342   -2.8334    8.3181 H   0  0  0  0  0  0  0  0  0  0  0  0
   -4.4474    0.2068   10.4848 H   0  0  0  0  0  0  0  0  0  0  0  0
   -3.7752    0.8924    9.0097 H   0  0  0  0  0  0  0  0  0  0  0  0
   -5.3600    1.3876    9.5692 H   0  0  0  0  0  0  0  0  0  0  0  0
   -7.3674   -0.1070    9.1744 H   0  0  0  0  0  0  0  0  0  0  0  0
   -4.2934   -3.7104    9.6670 H   0  0  0  0  0  0  0  0  0  0  0  0
   -7.9590   -1.9937   10.3280 H   0  0  0  0  0  0  0  0  0  0  0  0
   -9.2698    2.3425    4.1183 H   0  0  0  0  0  0  0  0  0  0  0  0
  -10.0700    1.3690    2.1066 H   0  0  0  0  0  0  0  0  0  0  0  0
  2  1  1  0  0  0  0 
  3  2  1  0  0  0  0 
  2  4  1  0  0  0  0 
  2  5  1  0  0  0  0 
  6  3  1  0  0  0  0 
  3  7  1  0  0  0  0 
  4  8  1  0  0  0  0 
  4  9  1  0  0  0  0 
  4 10  1  0  0  0  0 
 11  5  1  0  0  0  0 
 12  6  1  0  0  0  0 
  6 13  1  0  0  0  0 
  7 10  1  0  0  0  0 
  8 14  1  0  0  0  0 
  8 15  2  0  0  0  0 
 12 11  1  0  0  0  0 
 11 16  1  0  0  0  0 
 12 17  1  0  0  0  0 
 13 18  1  0  0  0  0 
 14 19  1  0  0  0  0 
 17 20  1  0  0  0  0 
 17 21  1  0  0  0  0 
 17 22  1  0  0  0  0 
 18 21  1  0  0  0  0 
 19 23  1  0  0  0  0 
 21 24  2  0  0  0  0 
 22 25  2  0  0  0  0 
 23 26  2  0  0  0  0 
 23 27  1  0  0  0  0 
 23 28  1  0  0  0  0 
 24 29  1  0  0  0  0 
 25 29  1  0  0  0  0 
 29 30  2  0  0  0  0 
 31  1  1  0  0  0  0 
 32  1  1  0  0  0  0 
 33  1  1  0  0  0  0 
  3 34  1  0  0  0  0 
 35  5  1  0  0  0  0 
 36  5  1  0  0  0  0 
  6 37  1  0  0  0  0 
 38  7  1  0  0  0  0 
 39  7  1  0  0  0  0 
 40  9  1  0  0  0  0 
 41 10  1  0  0  0  0 
 42 10  1  0  0  0  0 
 11 43  1  0  0  0  0 
 12 44  1  0  0  0  0 
 45 13  1  0  0  0  0 
 46 13  1  0  0  0  0 
 47 14  1  0  0  0  0 
 48 14  1  0  0  0  0 
 49 16  1  0  0  0  0 
 50 18  1  0  0  0  0 
 51 18  1  0  0  0  0 
 52 20  1  0  0  0  0 
 53 20  1  0  0  0  0 
 54 20  1  0  0  0  0 
 55 22  1  0  0  0  0 
 56 24  1  0  0  0  0 
 57 25  1  0  0  0  0 
 58 27  1  0  0  0  0 
 59 28  1  0  0  0  0 
M  END
> <cdk:Title>
prednisolone sodium phosphate

> <Conformer>
1

> <SuperDrugID>
SD003571

$$$$
