tenofovir disoproxil
  CDK     0628171801

 65 66  0  0  0  0  0  0  0  0999 V2000
   -1.9381   -6.4725   -7.6531 C   0  0  2  0  0  0  0  0  0  0  0  0
   -1.7206   -6.4980   -6.1102 C   0  0  2  0  0  0  0  0  0  0  0  0
   -2.0739   -7.7823   -8.2257 N   0  0  0  0  0  0  0  0  0  0  0  0
   -1.6425   -5.1649   -5.5356 O   0  0  0  0  0  0  0  0  0  0  0  0
   -0.4104   -7.2480   -5.7490 C   0  0  0  0  0  0  0  0  0  0  0  0
   -1.1522   -8.4741   -8.9179 C   0  0  0  0  0  0  0  0  0  0  0  0
   -3.1803   -8.5596   -8.1865 C   0  0  0  0  0  0  0  0  0  0  0  0
   -2.8728   -4.4074   -5.5037 C   0  0  2  0  0  0  0  0  0  0  0  0
   -1.7408   -9.6711   -9.3109 C   0  0  0  0  0  0  0  0  0  0  0  0
    0.1348   -8.1839   -9.2405 N   0  0  0  0  0  0  0  0  0  0  0  0
   -2.9981   -9.7180   -8.8492 N   0  0  0  0  0  0  0  0  0  0  0  0
   -2.7463   -3.0649   -4.4491 P   0  0  2  0  0  0  0  0  0  0  0  0
   -0.9907  -10.5772  -10.0804 C   0  0  0  0  0  0  0  0  0  0  0  0
    0.8589   -9.0764   -9.9706 C   0  0  0  0  0  0  0  0  0  0  0  0
   -1.6724   -2.0051   -4.9924 O   0  0  0  0  0  0  0  0  0  0  0  0
   -2.1903   -3.5662   -3.0290 O   0  0  0  0  0  0  0  0  0  0  0  0
   -4.0641   -2.4418   -4.2490 O   0  0  0  0  0  0  0  0  0  0  0  0
   -1.5075  -11.7346  -10.5222 N   0  0  0  0  0  0  0  0  0  0  0  0
    0.2953  -10.2473  -10.3831 N   0  0  0  0  0  0  0  0  0  0  0  0
   -2.1746   -0.9628   -5.8455 C   0  0  2  0  0  0  0  0  0  0  0  0
   -2.1749   -2.5510   -2.0040 C   0  0  2  0  0  0  0  0  0  0  0  0
   -1.1182   -0.0165   -6.0669 O   0  0  0  0  0  0  0  0  0  0  0  0
   -1.2663   -1.4766   -2.3008 O   0  0  0  0  0  0  0  0  0  0  0  0
   -1.0776    1.3032   -5.7095 C   0  0  0  0  0  0  0  0  0  0  0  0
   -1.1460   -0.3051   -1.6122 C   0  0  0  0  0  0  0  0  0  0  0  0
    0.0108    2.0146   -6.1159 O   0  0  0  0  0  0  0  0  0  0  0  0
   -1.9861    1.8359   -5.0304 O   0  0  0  0  0  0  0  0  0  0  0  0
   -0.1678    0.5612   -2.0072 O   0  0  0  0  0  0  0  0  0  0  0  0
   -1.9015   -0.0398   -0.6470 O   0  0  0  0  0  0  0  0  0  0  0  0
    0.3394    3.3971   -5.8934 C   0  0  1  0  0  0  0  0  0  0  0  0
    0.1673    1.8408   -1.4374 C   0  0  2  0  0  0  0  0  0  0  0  0
    1.7667    3.6125   -6.4511 C   0  0  0  0  0  0  0  0  0  0  0  0
   -0.6956    4.3627   -6.5229 C   0  0  0  0  0  0  0  0  0  0  0  0
   -0.8935    2.9175   -1.7804 C   0  0  0  0  0  0  0  0  0  0  0  0
    1.5731    2.2363   -1.9515 C   0  0  0  0  0  0  0  0  0  0  0  0
   -1.1062   -5.9340   -8.1170 H   0  0  0  0  0  0  0  0  0  0  0  0
   -2.8459   -5.9135   -7.8915 H   0  0  0  0  0  0  0  0  0  0  0  0
   -2.5428   -7.0500   -5.6422 H   0  0  0  0  0  0  0  0  0  0  0  0
   -0.4728   -8.3006   -6.0370 H   0  0  0  0  0  0  0  0  0  0  0  0
   -0.2325   -7.2055   -4.6732 H   0  0  0  0  0  0  0  0  0  0  0  0
    0.4425   -6.7983   -6.2620 H   0  0  0  0  0  0  0  0  0  0  0  0
   -4.0560   -8.3035   -7.7232 H   0  0  0  0  0  0  0  0  0  0  0  0
   -3.7016   -5.0216   -5.1412 H   0  0  0  0  0  0  0  0  0  0  0  0
   -3.1186   -4.0330   -6.4988 H   0  0  0  0  0  0  0  0  0  0  0  0
    1.8273   -8.8677  -10.2143 H   0  0  0  0  0  0  0  0  0  0  0  0
   -2.4269  -11.9676  -10.3192 H   0  0  0  0  0  0  0  0  0  0  0  0
   -0.9622  -12.3369  -11.0527 H   0  0  0  0  0  0  0  0  0  0  0  0
   -3.0364   -0.4548   -5.4026 H   0  0  0  0  0  0  0  0  0  0  0  0
   -2.4676   -1.3830   -6.8107 H   0  0  0  0  0  0  0  0  0  0  0  0
   -1.8488   -3.0305   -1.0805 H   0  0  0  0  0  0  0  0  0  0  0  0
   -3.1818   -2.1594   -1.8309 H   0  0  0  0  0  0  0  0  0  0  0  0
    0.3709    3.5842   -4.8203 H   0  0  0  0  0  0  0  0  0  0  0  0
    0.2281    1.7482   -0.3470 H   0  0  0  0  0  0  0  0  0  0  0  0
    2.1250    4.6194   -6.2294 H   0  0  0  0  0  0  0  0  0  0  0  0
    2.4493    2.8964   -5.9897 H   0  0  0  0  0  0  0  0  0  0  0  0
    1.7908    3.4603   -7.5317 H   0  0  0  0  0  0  0  0  0  0  0  0
   -0.3523    5.3945   -6.4380 H   0  0  0  0  0  0  0  0  0  0  0  0
   -1.6525    4.2769   -6.0071 H   0  0  0  0  0  0  0  0  0  0  0  0
   -0.8543    4.1303   -7.5761 H   0  0  0  0  0  0  0  0  0  0  0  0
   -0.6234    3.8803   -1.3391 H   0  0  0  0  0  0  0  0  0  0  0  0
   -1.8704    2.6270   -1.3896 H   0  0  0  0  0  0  0  0  0  0  0  0
   -0.9720    3.0396   -2.8590 H   0  0  0  0  0  0  0  0  0  0  0  0
    1.8767    3.1972   -1.5303 H   0  0  0  0  0  0  0  0  0  0  0  0
    2.3061    1.4824   -1.6525 H   0  0  0  0  0  0  0  0  0  0  0  0
    1.5801    2.3085   -3.0407 H   0  0  0  0  0  0  0  0  0  0  0  0
  2  1  1  0  0  0  0 
  1  3  1  0  0  0  0 
  2  4  1  0  0  0  0 
  2  5  1  0  0  0  0 
  3  6  1  0  0  0  0 
  3  7  1  0  0  0  0 
  4  8  1  0  0  0  0 
  6  9  1  0  0  0  0 
  6 10  2  0  0  0  0 
  7 11  2  0  0  0  0 
  8 12  1  0  0  0  0 
  9 11  1  0  0  0  0 
  9 13  2  0  0  0  0 
 10 14  1  0  0  0  0 
 12 15  1  0  0  0  0 
 12 16  1  0  0  0  0 
 12 17  2  0  0  0  0 
 13 18  1  0  0  0  0 
 13 19  1  0  0  0  0 
 14 19  2  0  0  0  0 
 15 20  1  0  0  0  0 
 16 21  1  0  0  0  0 
 20 22  1  0  0  0  0 
 21 23  1  0  0  0  0 
 22 24  1  0  0  0  0 
 23 25  1  0  0  0  0 
 24 26  1  0  0  0  0 
 24 27  2  0  0  0  0 
 25 28  1  0  0  0  0 
 25 29  2  0  0  0  0 
 26 30  1  0  0  0  0 
 28 31  1  0  0  0  0 
 30 32  1  0  0  0  0 
 30 33  1  0  0  0  0 
 31 34  1  0  0  0  0 
 31 35  1  0  0  0  0 
 36  1  1  0  0  0  0 
 37  1  1  0  0  0  0 
  2 38  1  0  0  0  0 
 39  5  1  0  0  0  0 
 40  5  1  0  0  0  0 
 41  5  1  0  0  0  0 
 42  7  1  0  0  0  0 
 43  8  1  0  0  0  0 
 44  8  1  0  0  0  0 
 45 14  1  0  0  0  0 
 46 18  1  0  0  0  0 
 47 18  1  0  0  0  0 
 48 20  1  0  0  0  0 
 49 20  1  0  0  0  0 
 50 21  1  0  0  0  0 
 51 21  1  0  0  0  0 
 52 30  1  0  0  0  0 
 53 31  1  0  0  0  0 
 54 32  1  0  0  0  0 
 55 32  1  0  0  0  0 
 56 32  1  0  0  0  0 
 57 33  1  0  0  0  0 
 58 33  1  0  0  0  0 
 59 33  1  0  0  0  0 
 60 34  1  0  0  0  0 
 61 34  1  0  0  0  0 
 62 34  1  0  0  0  0 
 63 35  1  0  0  0  0 
 64 35  1  0  0  0  0 
 65 35  1  0  0  0  0 
M  END
> <cdk:Title>
tenofovir disoproxil

> <Conformer>
1

> <SuperDrugID>
SD002332

$$$$
