mabuprofen
  CDK     0628171801

 41 41  0  0  0  0  0  0  0  0999 V2000
   -6.2176    1.8271   12.4952 C   0  0  1  0  0  0  0  0  0  0  0  0
   -7.6239    1.7807   12.9860 C   0  0  0  0  0  0  0  0  0  0  0  0
   -6.1580    1.8789   10.9436 C   0  0  0  0  0  0  0  0  0  0  0  0
   -5.4035    2.9148   13.1319 C   0  0  0  0  0  0  0  0  0  0  0  0
   -8.4975    2.8098   12.7693 N   0  0  0  0  0  0  0  0  0  0  0  0
   -8.0122    0.7453   13.5787 O   0  0  0  0  0  0  0  0  0  0  0  0
   -4.3284    2.5879   13.9928 C   0  0  0  0  0  0  0  0  0  0  0  0
   -5.6441    4.2860   12.8719 C   0  0  0  0  0  0  0  0  0  0  0  0
   -9.8840    2.7783   13.1137 C   0  0  1  0  0  0  0  0  0  0  0  0
   -3.4887    3.5871   14.5182 C   0  0  0  0  0  0  0  0  0  0  0  0
   -4.8138    5.2879   13.4057 C   0  0  0  0  0  0  0  0  0  0  0  0
  -10.5477    4.1666   12.9890 C   0  0  1  0  0  0  0  0  0  0  0  0
   -3.7071    4.9507   14.2159 C   0  0  0  0  0  0  0  0  0  0  0  0
  -11.9561    4.0366   13.1556 O   0  0  0  0  0  0  0  0  0  0  0  0
   -2.7730    6.0010   14.7111 C   0  0  2  0  0  0  0  0  0  0  0  0
   -1.3894    5.9797   13.9830 C   0  0  1  0  0  0  0  0  0  0  0  0
   -1.5095    6.2782   12.4589 C   0  0  0  0  0  0  0  0  0  0  0  0
   -0.3857    6.9551   14.6570 C   0  0  0  0  0  0  0  0  0  0  0  0
   -5.7568    0.8630   12.7476 H   0  0  0  0  0  0  0  0  0  0  0  0
   -5.1196    1.8776   10.6021 H   0  0  0  0  0  0  0  0  0  0  0  0
   -6.6494    2.7727   10.5567 H   0  0  0  0  0  0  0  0  0  0  0  0
   -6.6559    1.0046   10.5177 H   0  0  0  0  0  0  0  0  0  0  0  0
   -8.1716    3.6027   12.3166 H   0  0  0  0  0  0  0  0  0  0  0  0
   -4.1366    1.6101   14.2285 H   0  0  0  0  0  0  0  0  0  0  0  0
   -6.4194    4.5732   12.2742 H   0  0  0  0  0  0  0  0  0  0  0  0
  -10.3894    2.0790   12.4421 H   0  0  0  0  0  0  0  0  0  0  0  0
  -10.0088    2.4255   14.1409 H   0  0  0  0  0  0  0  0  0  0  0  0
   -2.7018    3.3113   15.1107 H   0  0  0  0  0  0  0  0  0  0  0  0
   -5.0124    6.2664   13.1808 H   0  0  0  0  0  0  0  0  0  0  0  0
  -10.1626    4.8431   13.7585 H   0  0  0  0  0  0  0  0  0  0  0  0
  -10.3519    4.5947   12.0023 H   0  0  0  0  0  0  0  0  0  0  0  0
  -12.3032    4.9456   13.0432 H   0  0  0  0  0  0  0  0  0  0  0  0
   -2.6340    5.8514   15.7866 H   0  0  0  0  0  0  0  0  0  0  0  0
   -3.2154    6.9942   14.5890 H   0  0  0  0  0  0  0  0  0  0  0  0
   -0.9682    4.9754   14.0883 H   0  0  0  0  0  0  0  0  0  0  0  0
   -0.5231    6.2606   11.9893 H   0  0  0  0  0  0  0  0  0  0  0  0
   -1.9595    7.2598   12.2898 H   0  0  0  0  0  0  0  0  0  0  0  0
   -2.1255    5.5219   11.9665 H   0  0  0  0  0  0  0  0  0  0  0  0
    0.5875    6.8958   14.1649 H   0  0  0  0  0  0  0  0  0  0  0  0
   -0.2488    6.6924   15.7085 H   0  0  0  0  0  0  0  0  0  0  0  0
   -0.7452    7.9845   14.5974 H   0  0  0  0  0  0  0  0  0  0  0  0
  1  2  1  0  0  0  0 
  1  3  1  0  0  0  0 
  1  4  1  0  0  0  0 
  2  5  1  0  0  0  0 
  2  6  2  0  0  0  0 
  4  7  2  0  0  0  0 
  4  8  1  0  0  0  0 
  5  9  1  0  0  0  0 
  7 10  1  0  0  0  0 
  8 11  2  0  0  0  0 
  9 12  1  0  0  0  0 
 10 13  2  0  0  0  0 
 11 13  1  0  0  0  0 
 12 14  1  0  0  0  0 
 13 15  1  0  0  0  0 
 15 16  1  0  0  0  0 
 16 17  1  0  0  0  0 
 16 18  1  0  0  0  0 
  1 19  1  0  0  0  0 
  3 20  1  0  0  0  0 
  3 21  1  0  0  0  0 
  3 22  1  0  0  0  0 
  5 23  1  0  0  0  0 
  7 24  1  0  0  0  0 
  8 25  1  0  0  0  0 
  9 26  1  0  0  0  0 
  9 27  1  0  0  0  0 
 10 28  1  0  0  0  0 
 11 29  1  0  0  0  0 
 12 30  1  0  0  0  0 
 12 31  1  0  0  0  0 
 14 32  1  0  0  0  0 
 15 33  1  0  0  0  0 
 15 34  1  0  0  0  0 
 16 35  1  0  0  0  0 
 17 36  1  0  0  0  0 
 17 37  1  0  0  0  0 
 17 38  1  0  0  0  0 
 18 39  1  0  0  0  0 
 18 40  1  0  0  0  0 
 18 41  1  0  0  0  0 
M  END
> <cdk:Title>
mabuprofen

> <Conformer>
1

> <SuperDrugID>
SD003317

$$$$
