phenaglycodol
  CDK     0628171801

 29 29  0  0  0  0  0  0  0  0999 V2000
    0.6308   -0.4700    0.6236 C   0  0  1  0  0  0  0  0  0  0  0  0
    1.9274    0.2504    0.0526 C   0  0  1  0  0  0  0  0  0  0  0  0
   -0.5361    0.5032    0.9908 C   0  0  0  0  0  0  0  0  0  0  0  0
    0.0992   -1.2447   -0.4622 O   0  0  0  0  0  0  0  0  0  0  0  0
    0.9310   -1.3533    1.8213 C   0  0  0  0  0  0  0  0  0  0  0  0
    3.0527   -0.7701   -0.3063 C   0  0  0  0  0  0  0  0  0  0  0  0
    1.6691    1.1462   -1.2018 C   0  0  0  0  0  0  0  0  0  0  0  0
    2.4947    1.1238    1.0305 O   0  0  0  0  0  0  0  0  0  0  0  0
    0.7737   -2.7644    1.7759 C   0  0  0  0  0  0  0  0  0  0  0  0
    1.3936   -0.7983    3.0446 C   0  0  0  0  0  0  0  0  0  0  0  0
    1.0864   -3.5786    2.8794 C   0  0  0  0  0  0  0  0  0  0  0  0
    1.7236   -1.6080    4.1461 C   0  0  0  0  0  0  0  0  0  0  0  0
    1.5732   -3.0028    4.0659 C   0  0  0  0  0  0  0  0  0  0  0  0
    1.9697   -3.9819    5.3876 Cl  0  0  0  0  0  0  0  0  0  0  0  0
   -1.3847   -0.0571    1.3937 H   0  0  0  0  0  0  0  0  0  0  0  0
   -0.2309    1.2373    1.7368 H   0  0  0  0  0  0  0  0  0  0  0  0
   -0.8947    1.0422    0.1122 H   0  0  0  0  0  0  0  0  0  0  0  0
   -0.7132   -1.6634   -0.1043 H   0  0  0  0  0  0  0  0  0  0  0  0
    3.9458   -0.2505   -0.6616 H   0  0  0  0  0  0  0  0  0  0  0  0
    3.3434   -1.3537    0.5675 H   0  0  0  0  0  0  0  0  0  0  0  0
    2.7237   -1.4579   -1.0884 H   0  0  0  0  0  0  0  0  0  0  0  0
    2.6014    1.5929   -1.5556 H   0  0  0  0  0  0  0  0  0  0  0  0
    0.9907    1.9673   -0.9730 H   0  0  0  0  0  0  0  0  0  0  0  0
    1.2466    0.5681   -2.0242 H   0  0  0  0  0  0  0  0  0  0  0  0
    1.7858    1.7636    1.2469 H   0  0  0  0  0  0  0  0  0  0  0  0
    0.4320   -3.2275    0.9322 H   0  0  0  0  0  0  0  0  0  0  0  0
    1.4996    0.2112    3.1534 H   0  0  0  0  0  0  0  0  0  0  0  0
    0.9597   -4.5907    2.8088 H   0  0  0  0  0  0  0  0  0  0  0  0
    2.0736   -1.1754    5.0039 H   0  0  0  0  0  0  0  0  0  0  0  0
  1  2  1  0  0  0  0 
  1  3  1  0  0  0  0 
  1  4  1  0  0  0  0 
  1  5  1  0  0  0  0 
  2  6  1  0  0  0  0 
  2  7  1  0  0  0  0 
  2  8  1  0  0  0  0 
  5  9  2  0  0  0  0 
  5 10  1  0  0  0  0 
  9 11  1  0  0  0  0 
 10 12  2  0  0  0  0 
 11 13  2  0  0  0  0 
 12 13  1  0  0  0  0 
 13 14  1  0  0  0  0 
  3 15  1  0  0  0  0 
  3 16  1  0  0  0  0 
  3 17  1  0  0  0  0 
  4 18  1  0  0  0  0 
  6 19  1  0  0  0  0 
  6 20  1  0  0  0  0 
  6 21  1  0  0  0  0 
  7 22  1  0  0  0  0 
  7 23  1  0  0  0  0 
  7 24  1  0  0  0  0 
  8 25  1  0  0  0  0 
  9 26  1  0  0  0  0 
 10 27  1  0  0  0  0 
 11 28  1  0  0  0  0 
 12 29  1  0  0  0  0 
M  END
> <cdk:Title>
phenaglycodol

> <Conformer>
1

> <SuperDrugID>
SD001897

$$$$
