fondaparinux
  CDK     0628171801

144148  0  0  0  0  0  0  0  0999 V2000
    1.0808   -2.1788   -7.2977 O   0  0  0  0  0  0  0  0  0  0  0  0
    1.5061   -1.7468   -5.9785 C   0  0  1  0  0  0  0  0  0  0  0  0
    0.9923   -3.5642   -7.6550 C   0  0  2  0  0  0  0  0  0  0  0  0
    1.1454   -0.2250   -6.0180 C   0  0  2  0  0  0  0  0  0  0  0  0
    0.8760   -2.4573   -4.7294 C   0  0  1  0  0  0  0  0  0  0  0  0
    2.2201   -4.2738   -7.3829 O   0  0  0  0  0  0  0  0  0  0  0  0
    0.7106   -3.6572   -9.1775 C   0  0  2  0  0  0  0  0  0  0  0  0
    2.0891    0.3573   -6.9479 O   0  0  0  0  0  0  0  0  0  0  0  0
    1.2251    0.4580   -4.6214 C   0  0  1  0  0  0  0  0  0  0  0  0
    1.5347   -3.8056   -4.3263 C   0  0  2  0  0  0  0  0  0  0  0  0
    0.9915   -1.6621   -3.5276 O   0  0  0  0  0  0  0  0  0  0  0  0
    2.1214   -5.6963   -7.6292 C   0  0  2  0  0  0  0  0  0  0  0  0
   -0.4871   -2.9608   -9.5204 O   0  0  0  0  0  0  0  0  0  0  0  0
    0.5943   -5.1438   -9.6135 C   0  0  2  0  0  0  0  0  0  0  0  0
    1.6340    1.8023   -7.7576 S   0  0  1  0  0  0  0  0  0  0  0  0
    0.7601    1.8630   -4.6972 N   0  0  2  0  0  0  0  0  0  0  0  0
    0.4230   -0.3469   -3.5628 C   0  0  2  0  0  0  0  0  0  0  0  0
    1.0349   -4.2279   -3.0454 O   0  0  0  0  0  0  0  0  0  0  0  0
    3.3894   -6.3144   -7.1873 C   0  0  0  0  0  0  0  0  0  0  0  0
    1.8045   -6.0003   -9.1267 C   0  0  2  0  0  0  0  0  0  0  0  0
    0.4731   -5.1901  -11.0352 O   0  0  0  0  0  0  0  0  0  0  0  0
    2.3143    3.0537   -7.0272 O   0  0  0  0  0  0  0  0  0  0  0  0
    2.1595    1.7193   -9.2678 O   0  0  0  0  0  0  0  0  0  0  0  0
   -0.0602    2.0084   -7.7849 O   0  0  0  0  0  0  0  0  0  0  0  0
    1.4926    2.9609   -3.5294 S   0  0  1  0  0  0  0  0  0  0  0  0
   -1.0256   -0.3381   -3.7547 O   0  0  0  0  0  0  0  0  0  0  0  0
    0.6195   -5.8862   -2.9151 S   0  0  2  0  0  0  0  0  0  0  0  0
    3.3862   -7.3138   -6.2731 O   0  0  0  0  0  0  0  0  0  0  0  0
    4.4871   -5.9244   -7.6465 O   0  0  0  0  0  0  0  0  0  0  0  0
    1.5426   -7.4246   -9.1897 O   0  0  0  0  0  0  0  0  0  0  0  0
    1.1160    4.4680   -3.9193 O   0  0  0  0  0  0  0  0  0  0  0  0
    0.9791    2.6427   -2.0477 O   0  0  0  0  0  0  0  0  0  0  0  0
    3.1938    2.7995   -3.5906 O   0  0  0  0  0  0  0  0  0  0  0  0
   -1.8371   -0.8065   -2.6318 C   0  0  2  0  0  0  0  0  0  0  0  0
   -0.3970   -6.3017   -4.0798 O   0  0  0  0  0  0  0  0  0  0  0  0
   -0.0689   -6.1126   -1.4881 O   0  0  0  0  0  0  0  0  0  0  0  0
    2.0345   -6.8326   -3.0106 O   0  0  0  0  0  0  0  0  0  0  0  0
    1.5913   -8.0836  -10.4743 C   0  0  2  0  0  0  0  0  0  0  0  0
   -1.9584   -2.3610   -2.5517 C   0  0  2  0  0  0  0  0  0  0  0  0
   -3.2653   -0.1792   -2.6427 C   0  0  2  0  0  0  0  0  0  0  0  0
    1.3889   -9.6199  -10.2877 C   0  0  2  0  0  0  0  0  0  0  0  0
    2.8110   -7.8104  -11.2009 O   0  0  0  0  0  0  0  0  0  0  0  0
   -2.5017   -3.0709   -3.7390 C   0  0  0  0  0  0  0  0  0  0  0  0
   -2.6709   -2.7213   -1.3558 O   0  0  0  0  0  0  0  0  0  0  0  0
   -3.1537    1.2404   -2.5418 O   0  0  0  0  0  0  0  0  0  0  0  0
   -4.2221   -0.7107   -1.5171 C   0  0  2  0  0  0  0  0  0  0  0  0
    0.2590   -9.9691   -9.3923 N   0  0  2  0  0  0  0  0  0  0  0  0
    2.6756  -10.2680   -9.6962 C   0  0  1  0  0  0  0  0  0  0  0  0
    4.0175   -8.3110  -10.5818 C   0  0  1  0  0  0  0  0  0  0  0  0
   -2.9110   -2.4251   -4.8546 O   0  0  0  0  0  0  0  0  0  0  0  0
   -2.5871   -4.3196   -3.7267 O   0  0  0  0  0  0  0  0  0  0  0  0
   -4.0185   -2.2415   -1.2337 C   0  0  2  0  0  0  0  0  0  0  0  0
   -5.5531   -0.3959   -1.9867 O   0  0  0  0  0  0  0  0  0  0  0  0
   -1.3581   -9.5743   -9.9655 S   0  0  1  0  0  0  0  0  0  0  0  0
    2.5525  -11.6902   -9.6728 O   0  0  0  0  0  0  0  0  0  0  0  0
    3.9449   -9.8619  -10.4944 C   0  0  1  0  0  0  0  0  0  0  0  0
    5.2181   -7.7699  -11.3918 C   0  0  1  0  0  0  0  0  0  0  0  0
   -4.4969   -2.7667    0.0237 O   0  0  0  0  0  0  0  0  0  0  0  0
   -6.8732   -0.6558   -0.9189 S   0  0  1  0  0  0  0  0  0  0  0  0
   -2.4313  -10.3529   -9.0667 O   0  0  0  0  0  0  0  0  0  0  0  0
   -1.6258   -7.9994   -9.8602 O   0  0  0  0  0  0  0  0  0  0  0  0
   -1.5429  -10.0728  -11.5887 O   0  0  0  0  0  0  0  0  0  0  0  0
    5.1021  -10.3983   -9.8532 O   0  0  0  0  0  0  0  0  0  0  0  0
    5.1794   -6.3354  -11.3315 O   0  0  0  0  0  0  0  0  0  0  0  0
   -4.1935   -2.2415    1.3471 C   0  0  2  0  0  0  0  0  0  0  0  0
   -7.1737   -2.2198   -0.7540 O   0  0  0  0  0  0  0  0  0  0  0  0
   -6.6450    0.0643    0.4905 O   0  0  0  0  0  0  0  0  0  0  0  0
   -8.2445    0.0465   -1.6567 O   0  0  0  0  0  0  0  0  0  0  0  0
    6.4775   -5.5895  -12.1683 S   0  0  1  0  0  0  0  0  0  0  0  0
   -2.7064   -2.2075    1.8568 C   0  0  1  0  0  0  0  0  0  0  0  0
   -5.0120   -3.2016    2.2750 C   0  0  2  0  0  0  0  0  0  0  0  0
    6.3966   -4.0088  -11.9246 O   0  0  0  0  0  0  0  0  0  0  0  0
    7.8809   -6.1536  -11.6446 O   0  0  0  0  0  0  0  0  0  0  0  0
    6.3156   -5.9024  -13.8382 O   0  0  0  0  0  0  0  0  0  0  0  0
   -1.7726   -1.1558    1.1960 C   0  0  2  0  0  0  0  0  0  0  0  0
   -2.7039   -1.8674    3.2636 O   0  0  0  0  0  0  0  0  0  0  0  0
   -6.4056   -3.1061    1.9682 O   0  0  0  0  0  0  0  0  0  0  0  0
   -4.8250   -2.9643    3.8022 C   0  0  2  0  0  0  0  0  0  0  0  0
   -0.6661   -0.7893    2.0410 O   0  0  0  0  0  0  0  0  0  0  0  0
   -3.3177   -2.8232    4.1493 C   0  0  1  0  0  0  0  0  0  0  0  0
   -5.4927   -4.0810    4.5227 N   0  0  2  0  0  0  0  0  0  0  0  0
    0.3913    0.3157    1.2550 S   0  0  2  0  0  0  0  0  0  0  0  0
   -2.6456   -4.1049    4.1382 O   0  0  0  0  0  0  0  0  0  0  0  0
   -5.6942   -3.9102    6.2636 S   0  0  1  0  0  0  0  0  0  0  0  0
    1.2278   -0.4535    0.1271 O   0  0  0  0  0  0  0  0  0  0  0  0
    1.3974    0.9515    2.3249 O   0  0  0  0  0  0  0  0  0  0  0  0
   -0.5062    1.5708    0.5223 O   0  0  0  0  0  0  0  0  0  0  0  0
   -1.2919   -4.0609    4.6280 C   0  0  0  0  0  0  0  0  0  0  0  0
   -6.6586   -5.0737    6.7951 O   0  0  0  0  0  0  0  0  0  0  0  0
   -4.2837   -4.0029    7.0154 O   0  0  0  0  0  0  0  0  0  0  0  0
   -6.4215   -2.4052    6.6073 O   0  0  0  0  0  0  0  0  0  0  0  0
    2.5944   -1.8439   -5.9119 H   0  0  0  0  0  0  0  0  0  0  0  0
    0.1463   -3.9949   -7.1074 H   0  0  0  0  0  0  0  0  0  0  0  0
    0.1167   -0.1311   -6.3852 H   0  0  0  0  0  0  0  0  0  0  0  0
   -0.1719   -2.6415   -4.9487 H   0  0  0  0  0  0  0  0  0  0  0  0
    1.5348   -3.1849   -9.7206 H   0  0  0  0  0  0  0  0  0  0  0  0
    2.2814    0.4352   -4.3300 H   0  0  0  0  0  0  0  0  0  0  0  0
    2.6157   -3.6792   -4.2354 H   0  0  0  0  0  0  0  0  0  0  0  0
    1.3399   -4.5462   -5.0912 H   0  0  0  0  0  0  0  0  0  0  0  0
    1.3152   -6.1152   -7.0138 H   0  0  0  0  0  0  0  0  0  0  0  0
   -0.3049   -2.0178   -9.3217 H   0  0  0  0  0  0  0  0  0  0  0  0
   -0.3238   -5.5585   -9.1896 H   0  0  0  0  0  0  0  0  0  0  0  0
   -0.2557    1.8828   -4.5769 H   0  0  0  0  0  0  0  0  0  0  0  0
    0.6536    0.1071   -2.5978 H   0  0  0  0  0  0  0  0  0  0  0  0
    2.6812   -5.7251   -9.7236 H   0  0  0  0  0  0  0  0  0  0  0  0
    1.3139   -4.8198  -11.3783 H   0  0  0  0  0  0  0  0  0  0  0  0
   -0.2579    2.5054   -6.9645 H   0  0  0  0  0  0  0  0  0  0  0  0
    4.2285   -7.7287   -5.9906 H   0  0  0  0  0  0  0  0  0  0  0  0
    3.4878    3.4302   -4.2824 H   0  0  0  0  0  0  0  0  0  0  0  0
   -1.3725   -0.4647   -1.7042 H   0  0  0  0  0  0  0  0  0  0  0  0
    2.3472   -6.9001   -2.0842 H   0  0  0  0  0  0  0  0  0  0  0  0
    0.7711   -7.7206  -11.0949 H   0  0  0  0  0  0  0  0  0  0  0  0
   -0.9593   -2.7528   -2.3821 H   0  0  0  0  0  0  0  0  0  0  0  0
   -3.7173   -0.3730   -3.6169 H   0  0  0  0  0  0  0  0  0  0  0  0
    1.2097  -10.0695  -11.2695 H   0  0  0  0  0  0  0  0  0  0  0  0
   -2.7770    1.4023   -1.6517 H   0  0  0  0  0  0  0  0  0  0  0  0
   -4.0185   -0.1392   -0.6139 H   0  0  0  0  0  0  0  0  0  0  0  0
    0.3962   -9.4819   -8.5045 H   0  0  0  0  0  0  0  0  0  0  0  0
    2.7960   -9.9383   -8.6588 H   0  0  0  0  0  0  0  0  0  0  0  0
    4.1171   -7.9124   -9.5670 H   0  0  0  0  0  0  0  0  0  0  0  0
   -3.2819   -2.9333   -5.6032 H   0  0  0  0  0  0  0  0  0  0  0  0
   -4.6028   -2.7784   -1.9879 H   0  0  0  0  0  0  0  0  0  0  0  0
    2.4543  -11.9557  -10.6110 H   0  0  0  0  0  0  0  0  0  0  0  0
    3.8876  -10.2823  -11.5025 H   0  0  0  0  0  0  0  0  0  0  0  0
    6.1470   -8.1373  -10.9488 H   0  0  0  0  0  0  0  0  0  0  0  0
    5.1507   -8.1146  -12.4269 H   0  0  0  0  0  0  0  0  0  0  0  0
   -1.7767  -11.0231  -11.5313 H   0  0  0  0  0  0  0  0  0  0  0  0
    5.8448  -10.2110  -10.4652 H   0  0  0  0  0  0  0  0  0  0  0  0
   -4.6142   -1.2391    1.4421 H   0  0  0  0  0  0  0  0  0  0  0  0
   -8.6336   -0.6791   -2.1890 H   0  0  0  0  0  0  0  0  0  0  0  0
   -2.2497   -3.1918    1.7065 H   0  0  0  0  0  0  0  0  0  0  0  0
   -4.7053   -4.2310    2.0548 H   0  0  0  0  0  0  0  0  0  0  0  0
    5.4474   -5.5159  -14.0777 H   0  0  0  0  0  0  0  0  0  0  0  0
   -2.3434   -0.2558    0.9656 H   0  0  0  0  0  0  0  0  0  0  0  0
   -1.3621   -1.5818    0.2856 H   0  0  0  0  0  0  0  0  0  0  0  0
   -6.6529   -2.1806    2.1794 H   0  0  0  0  0  0  0  0  0  0  0  0
   -5.3297   -2.0257    4.0556 H   0  0  0  0  0  0  0  0  0  0  0  0
   -3.2587   -2.3911    5.1520 H   0  0  0  0  0  0  0  0  0  0  0  0
   -4.9614   -4.9383    4.3547 H   0  0  0  0  0  0  0  0  0  0  0  0
   -0.5969    1.2990   -0.4164 H   0  0  0  0  0  0  0  0  0  0  0  0
   -0.8764   -5.0666    4.5811 H   0  0  0  0  0  0  0  0  0  0  0  0
   -1.2644   -3.7270    5.6683 H   0  0  0  0  0  0  0  0  0  0  0  0
   -0.6617   -3.4057    4.0208 H   0  0  0  0  0  0  0  0  0  0  0  0
   -7.1665   -2.3455    5.9739 H   0  0  0  0  0  0  0  0  0  0  0  0
  3  1  1  0  0  0  0 
  2  1  1  0  0  0  0 
  2  4  1  0  0  0  0 
  2  5  1  0  0  0  0 
  3  6  1  0  0  0  0 
  7  3  1  0  0  0  0 
  4  8  1  0  0  0  0 
  4  9  1  0  0  0  0 
  5 10  1  0  0  0  0 
  5 11  1  0  0  0  0 
 12  6  1  0  0  0  0 
  7 13  1  0  0  0  0 
  7 14  1  0  0  0  0 
  8 15  1  0  0  0  0 
  9 16  1  0  0  0  0 
  9 17  1  0  0  0  0 
 10 18  1  0  0  0  0 
 17 11  1  0  0  0  0 
 12 19  1  0  0  0  0 
 20 12  1  0  0  0  0 
 14 20  1  0  0  0  0 
 14 21  1  0  0  0  0 
 15 22  2  0  0  0  0 
 15 23  2  0  0  0  0 
 15 24  1  0  0  0  0 
 16 25  1  0  0  0  0 
 17 26  1  0  0  0  0 
 18 27  1  0  0  0  0 
 19 28  1  0  0  0  0 
 19 29  2  0  0  0  0 
 20 30  1  0  0  0  0 
 25 31  2  0  0  0  0 
 25 32  2  0  0  0  0 
 25 33  1  0  0  0  0 
 34 26  1  0  0  0  0 
 27 35  2  0  0  0  0 
 27 36  2  0  0  0  0 
 27 37  1  0  0  0  0 
 38 30  1  0  0  0  0 
 34 39  1  0  0  0  0 
 34 40  1  0  0  0  0 
 41 38  1  0  0  0  0 
 38 42  1  0  0  0  0 
 39 43  1  0  0  0  0 
 39 44  1  0  0  0  0 
 40 45  1  0  0  0  0 
 40 46  1  0  0  0  0 
 41 47  1  0  0  0  0 
 41 48  1  0  0  0  0 
 49 42  1  0  0  0  0 
 43 50  1  0  0  0  0 
 43 51  2  0  0  0  0 
 52 44  1  0  0  0  0 
 46 52  1  0  0  0  0 
 46 53  1  0  0  0  0 
 47 54  1  0  0  0  0 
 48 55  1  0  0  0  0 
 48 56  1  0  0  0  0 
 56 49  1  0  0  0  0 
 49 57  1  0  0  0  0 
 52 58  1  0  0  0  0 
 53 59  1  0  0  0  0 
 54 60  2  0  0  0  0 
 54 61  2  0  0  0  0 
 54 62  1  0  0  0  0 
 56 63  1  0  0  0  0 
 57 64  1  0  0  0  0 
 65 58  1  0  0  0  0 
 59 66  2  0  0  0  0 
 59 67  2  0  0  0  0 
 59 68  1  0  0  0  0 
 64 69  1  0  0  0  0 
 65 70  1  0  0  0  0 
 65 71  1  0  0  0  0 
 69 72  2  0  0  0  0 
 69 73  2  0  0  0  0 
 69 74  1  0  0  0  0 
 70 75  1  0  0  0  0 
 70 76  1  0  0  0  0 
 71 77  1  0  0  0  0 
 71 78  1  0  0  0  0 
 75 79  1  0  0  0  0 
 80 76  1  0  0  0  0 
 78 80  1  0  0  0  0 
 78 81  1  0  0  0  0 
 79 82  1  0  0  0  0 
 80 83  1  0  0  0  0 
 81 84  1  0  0  0  0 
 82 85  2  0  0  0  0 
 82 86  2  0  0  0  0 
 82 87  1  0  0  0  0 
 83 88  1  0  0  0  0 
 84 89  2  0  0  0  0 
 84 90  2  0  0  0  0 
 84 91  1  0  0  0  0 
  2 92  1  0  0  0  0 
  3 93  1  0  0  0  0 
  4 94  1  0  0  0  0 
  5 95  1  0  0  0  0 
  7 96  1  0  0  0  0 
  9 97  1  0  0  0  0 
 98 10  1  0  0  0  0 
 99 10  1  0  0  0  0 
 12100  1  0  0  0  0 
101 13  1  0  0  0  0 
 14102  1  0  0  0  0 
103 16  1  0  0  0  0 
 17104  1  0  0  0  0 
 20105  1  0  0  0  0 
106 21  1  0  0  0  0 
107 24  1  0  0  0  0 
108 28  1  0  0  0  0 
109 33  1  0  0  0  0 
 34110  1  0  0  0  0 
111 37  1  0  0  0  0 
 38112  1  0  0  0  0 
 39113  1  0  0  0  0 
 40114  1  0  0  0  0 
 41115  1  0  0  0  0 
116 45  1  0  0  0  0 
 46117  1  0  0  0  0 
118 47  1  0  0  0  0 
 48119  1  0  0  0  0 
 49120  1  0  0  0  0 
121 50  1  0  0  0  0 
 52122  1  0  0  0  0 
123 55  1  0  0  0  0 
 56124  1  0  0  0  0 
125 57  1  0  0  0  0 
126 57  1  0  0  0  0 
127 62  1  0  0  0  0 
128 63  1  0  0  0  0 
 65129  1  0  0  0  0 
130 68  1  0  0  0  0 
 70131  1  0  0  0  0 
 71132  1  0  0  0  0 
133 74  1  0  0  0  0 
134 75  1  0  0  0  0 
135 75  1  0  0  0  0 
136 77  1  0  0  0  0 
 78137  1  0  0  0  0 
 80138  1  0  0  0  0 
139 81  1  0  0  0  0 
140 87  1  0  0  0  0 
141 88  1  0  0  0  0 
142 88  1  0  0  0  0 
143 88  1  0  0  0  0 
144 91  1  0  0  0  0 
M  END
> <cdk:Title>
fondaparinux

> <Conformer>
1

> <SuperDrugID>
SD001109

$$$$
