rufinamide
  CDK     0628171801

 25 26  0  0  0  0  0  0  0  0999 V2000
   -2.9518   -0.6947   -3.4361 C   0  0  0  0  0  0  0  0  0  0  0  0
   -3.4946    0.6014   -3.4346 C   0  0  0  0  0  0  0  0  0  0  0  0
   -3.4382    1.3796   -2.2667 C   0  0  0  0  0  0  0  0  0  0  0  0
   -2.8451    0.8644   -1.0972 C   0  0  0  0  0  0  0  0  0  0  0  0
   -2.2877   -0.4427   -1.0814 C   0  0  0  0  0  0  0  0  0  0  0  0
   -2.3475   -1.2124   -2.2732 C   0  0  0  0  0  0  0  0  0  0  0  0
   -1.8507   -2.4212   -2.3288 F   0  0  0  0  0  0  0  0  0  0  0  0
   -2.8276    1.6370   -0.0419 F   0  0  0  0  0  0  0  0  0  0  0  0
   -1.6739   -1.0172    0.1516 C   0  0  1  0  0  0  0  0  0  0  0  0
   -0.2625   -1.2354    0.0375 N   0  0  0  0  0  0  0  0  0  0  0  0
    0.6930   -0.2938   -0.0230 C   0  0  0  0  0  0  0  0  0  0  0  0
    1.9063   -0.9672   -0.0534 C   0  0  0  0  0  0  0  0  0  0  0  0
    1.6001   -2.2749   -0.0305 N   0  0  0  0  0  0  0  0  0  0  0  0
    0.3104   -2.3994    0.0243 N   0  0  0  0  0  0  0  0  0  0  0  0
    3.2002   -0.4181   -0.0822 C   0  0  0  0  0  0  0  0  0  0  0  0
    3.3740    0.8214   -0.0986 O   0  0  0  0  0  0  0  0  0  0  0  0
    4.2846   -1.2140   -0.0858 N   0  0  0  0  0  0  0  0  0  0  0  0
   -2.9991   -1.2581   -4.2877 H   0  0  0  0  0  0  0  0  0  0  0  0
   -3.9278    0.9779   -4.2808 H   0  0  0  0  0  0  0  0  0  0  0  0
   -3.8311    2.3238   -2.2735 H   0  0  0  0  0  0  0  0  0  0  0  0
   -1.8387   -0.3744    1.0184 H   0  0  0  0  0  0  0  0  0  0  0  0
   -2.1803   -1.9612    0.3743 H   0  0  0  0  0  0  0  0  0  0  0  0
    0.5520    0.7198   -0.0283 H   0  0  0  0  0  0  0  0  0  0  0  0
    5.1733   -0.8256   -0.1099 H   0  0  0  0  0  0  0  0  0  0  0  0
    4.1818   -2.1774   -0.0646 H   0  0  0  0  0  0  0  0  0  0  0  0
  1  2  2  0  0  0  0 
  2  3  1  0  0  0  0 
  3  4  2  0  0  0  0 
  4  5  1  0  0  0  0 
  5  6  2  0  0  0  0 
  1  6  1  0  0  0  0 
  6  7  1  0  0  0  0 
  4  8  1  0  0  0  0 
  5  9  1  0  0  0  0 
  9 10  1  0  0  0  0 
 11 12  2  0  0  0  0 
 12 13  1  0  0  0  0 
 13 14  2  0  0  0  0 
 10 11  1  0  0  0  0 
 10 14  1  0  0  0  0 
 12 15  1  0  0  0  0 
 15 16  2  0  0  0  0 
 15 17  1  0  0  0  0 
  1 18  1  0  0  0  0 
  2 19  1  0  0  0  0 
  3 20  1  0  0  0  0 
  9 21  1  0  0  0  0 
  9 22  1  0  0  0  0 
 11 23  1  0  0  0  0 
 17 24  1  0  0  0  0 
 17 25  1  0  0  0  0 
M  END
> <cdk:Title>
rufinamide

> <Conformer>
1

> <SuperDrugID>
SD003041

$$$$
