acetazolamide
  CDK     0628171802

 19 19  0  0  0  0  0  0  0  0999 V2000
    0.0148   -0.0722   -0.1330 S   0  0  1  0  0  0  0  0  0  0  0  0
   -0.4847   -1.3093    1.0114 N   0  0  1  0  0  0  0  0  0  0  0  0
    1.4668    0.4561    0.2979 O   0  0  0  0  0  0  0  0  0  0  0  0
    0.1102   -0.7436   -1.5868 O   0  0  0  0  0  0  0  0  0  0  0  0
   -1.1485    1.2516   -0.1289 C   0  0  0  0  0  0  0  0  0  0  0  0
   -1.3133    2.5217   -1.3251 S   0  0  0  0  0  0  0  0  0  0  0  0
   -2.0992    1.5024    0.7978 N   0  0  0  0  0  0  0  0  0  0  0  0
   -2.6673    3.2881   -0.5161 C   0  0  0  0  0  0  0  0  0  0  0  0
   -2.8794    2.5427    0.5962 N   0  0  0  0  0  0  0  0  0  0  0  0
   -3.3209    4.3861   -0.9626 N   0  0  0  0  0  0  0  0  0  0  0  0
   -4.4326    4.9451   -0.4130 C   0  0  0  0  0  0  0  0  0  0  0  0
   -5.0020    6.1337   -1.0678 C   0  0  0  0  0  0  0  0  0  0  0  0
   -4.9904    4.4820    0.6113 O   0  0  0  0  0  0  0  0  0  0  0  0
    0.2149   -2.0530    0.9536 H   0  0  0  0  0  0  0  0  0  0  0  0
   -0.4052   -0.8996    1.9457 H   0  0  0  0  0  0  0  0  0  0  0  0
   -2.9675    4.8095   -1.7607 H   0  0  0  0  0  0  0  0  0  0  0  0
   -5.8719    6.5098   -0.5256 H   0  0  0  0  0  0  0  0  0  0  0  0
   -4.2549    6.9276   -1.1135 H   0  0  0  0  0  0  0  0  0  0  0  0
   -5.3075    5.8769   -2.0833 H   0  0  0  0  0  0  0  0  0  0  0  0
  1  2  1  0  0  0  0 
  1  3  2  0  0  0  0 
  1  4  2  0  0  0  0 
  1  5  1  0  0  0  0 
  5  6  1  0  0  0  0 
  5  7  2  0  0  0  0 
  6  8  1  0  0  0  0 
  7  9  1  0  0  0  0 
  8  9  2  0  0  0  0 
  8 10  1  0  0  0  0 
 10 11  1  0  0  0  0 
 11 12  1  0  0  0  0 
 11 13  2  0  0  0  0 
  2 14  1  0  0  0  0 
  2 15  1  0  0  0  0 
 10 16  1  0  0  0  0 
 12 17  1  0  0  0  0 
 12 18  1  0  0  0  0 
 12 19  1  0  0  0  0 
M  END
> <cdk:Title>
acetazolamide

> <Conformer>
1

> <SuperDrugID>
SD000033

$$$$
