olopatadine
  CDK     0628171801

 48 50  0  0  0  0  0  0  0  0999 V2000
   -3.2391    7.2984   -6.3489 C   0  0  0  0  0  0  0  0  0  0  0  0
   -2.2452    6.5342   -7.1072 C   0  0  1  0  0  0  0  0  0  0  0  0
   -3.3322    7.3867   -4.9986 C   0  0  0  0  0  0  0  0  0  0  0  0
   -1.8880    7.1203   -8.5047 C   0  0  1  0  0  0  0  0  0  0  0  0
   -2.4627    6.7298   -4.1174 C   0  0  0  0  0  0  0  0  0  0  0  0
   -4.2982    8.2247   -4.4350 C   0  0  0  0  0  0  0  0  0  0  0  0
   -3.0495    7.3821   -9.4192 N   0  0  1  0  0  0  0  0  0  0  0  0
   -1.7142    7.4263   -3.1204 C   0  0  0  0  0  0  0  0  0  0  0  0
   -2.3183    5.3210   -4.2140 C   0  0  0  0  0  0  0  0  0  0  0  0
   -3.9015    9.4174   -3.7733 C   0  0  0  0  0  0  0  0  0  0  0  0
   -5.6724    7.8988   -4.5236 C   0  0  0  0  0  0  0  0  0  0  0  0
   -2.6582    8.1407  -10.6452 C   0  0  0  0  0  0  0  0  0  0  0  0
   -3.8681    6.1767   -9.7435 C   0  0  0  0  0  0  0  0  0  0  0  0
   -1.7770    8.7712   -2.7928 O   0  0  0  0  0  0  0  0  0  0  0  0
   -0.8124    6.7010   -2.3155 C   0  0  0  0  0  0  0  0  0  0  0  0
   -1.4029    4.5979   -3.4193 C   0  0  0  0  0  0  0  0  0  0  0  0
   -2.4529    9.7287   -3.6307 C   0  0  1  0  0  0  0  0  0  0  0  0
   -4.8946   10.2815   -3.2542 C   0  0  0  0  0  0  0  0  0  0  0  0
   -6.6447    8.7541   -3.9773 C   0  0  0  0  0  0  0  0  0  0  0  0
   -0.6447    5.3154   -2.4704 C   0  0  0  0  0  0  0  0  0  0  0  0
   -1.2584    3.1215   -3.5509 C   0  0  2  0  0  0  0  0  0  0  0  0
   -6.2571    9.9515   -3.3550 C   0  0  0  0  0  0  0  0  0  0  0  0
    0.1069    2.7134   -3.9338 C   0  0  0  0  0  0  0  0  0  0  0  0
    0.5146    2.7902   -5.2225 O   0  0  0  0  0  0  0  0  0  0  0  0
    0.9096    2.2738   -3.0796 O   0  0  0  0  0  0  0  0  0  0  0  0
   -3.9051    7.8013   -6.8920 H   0  0  0  0  0  0  0  0  0  0  0  0
   -1.3069    6.4708   -6.5510 H   0  0  0  0  0  0  0  0  0  0  0  0
   -2.6138    5.5144   -7.2294 H   0  0  0  0  0  0  0  0  0  0  0  0
   -1.3590    8.0627   -8.3238 H   0  0  0  0  0  0  0  0  0  0  0  0
   -1.1813    6.4387   -8.9935 H   0  0  0  0  0  0  0  0  0  0  0  0
   -2.8940    4.8047   -4.8816 H   0  0  0  0  0  0  0  0  0  0  0  0
   -5.9745    7.0374   -4.9837 H   0  0  0  0  0  0  0  0  0  0  0  0
   -3.5458    8.4171  -11.2193 H   0  0  0  0  0  0  0  0  0  0  0  0
   -2.1480    9.0685  -10.3760 H   0  0  0  0  0  0  0  0  0  0  0  0
   -1.9962    7.5498  -11.2852 H   0  0  0  0  0  0  0  0  0  0  0  0
   -4.3042    5.7545   -8.8377 H   0  0  0  0  0  0  0  0  0  0  0  0
   -4.7028    6.4415  -10.3959 H   0  0  0  0  0  0  0  0  0  0  0  0
   -3.2651    5.4089  -10.2354 H   0  0  0  0  0  0  0  0  0  0  0  0
   -0.2652    7.1835   -1.5984 H   0  0  0  0  0  0  0  0  0  0  0  0
   -1.9773    9.7761   -4.6129 H   0  0  0  0  0  0  0  0  0  0  0  0
   -2.3067   10.7039   -3.1637 H   0  0  0  0  0  0  0  0  0  0  0  0
   -4.6378   11.1543   -2.7915 H   0  0  0  0  0  0  0  0  0  0  0  0
   -7.6341    8.5075   -4.0358 H   0  0  0  0  0  0  0  0  0  0  0  0
    0.0329    4.8302   -1.8757 H   0  0  0  0  0  0  0  0  0  0  0  0
   -1.9439    2.7148   -4.2985 H   0  0  0  0  0  0  0  0  0  0  0  0
   -1.5298    2.6621   -2.5969 H   0  0  0  0  0  0  0  0  0  0  0  0
   -6.9672   10.5791   -2.9701 H   0  0  0  0  0  0  0  0  0  0  0  0
    1.4086    2.4742   -5.4754 H   0  0  0  0  0  0  0  0  0  0  0  0
  1  2  1  0  0  0  0 
  1  3  2  0  0  0  0 
  2  4  1  0  0  0  0 
  3  5  1  0  0  0  0 
  3  6  1  0  0  0  0 
  4  7  1  0  0  0  0 
  5  8  2  0  0  0  0 
  5  9  1  0  0  0  0 
  6 10  2  0  0  0  0 
  6 11  1  0  0  0  0 
  7 12  1  0  0  0  0 
  7 13  1  0  0  0  0 
  8 14  1  0  0  0  0 
  8 15  1  0  0  0  0 
  9 16  2  0  0  0  0 
 10 17  1  0  0  0  0 
 10 18  1  0  0  0  0 
 11 19  2  0  0  0  0 
 14 17  1  0  0  0  0 
 15 20  2  0  0  0  0 
 16 20  1  0  0  0  0 
 16 21  1  0  0  0  0 
 18 22  2  0  0  0  0 
 19 22  1  0  0  0  0 
 21 23  1  0  0  0  0 
 23 24  1  0  0  0  0 
 23 25  2  0  0  0  0 
  1 26  1  0  0  0  0 
  2 27  1  0  0  0  0 
  2 28  1  0  0  0  0 
  4 29  1  0  0  0  0 
  4 30  1  0  0  0  0 
  9 31  1  0  0  0  0 
 11 32  1  0  0  0  0 
 12 33  1  0  0  0  0 
 12 34  1  0  0  0  0 
 12 35  1  0  0  0  0 
 13 36  1  0  0  0  0 
 13 37  1  0  0  0  0 
 13 38  1  0  0  0  0 
 15 39  1  0  0  0  0 
 17 40  1  0  0  0  0 
 17 41  1  0  0  0  0 
 18 42  1  0  0  0  0 
 19 43  1  0  0  0  0 
 20 44  1  0  0  0  0 
 21 45  1  0  0  0  0 
 21 46  1  0  0  0  0 
 22 47  1  0  0  0  0 
 24 48  1  0  0  0  0 
M  END
> <cdk:Title>
olopatadine

> <Conformer>
1

> <SuperDrugID>
SD001776

$$$$
