fomocaine
  CDK     0628171801

 48 50  0  0  0  0  0  0  0  0999 V2000
   -0.9711   -1.4527   -1.6273 C   0  0  2  0  0  0  0  0  0  0  0  0
   -1.1598   -0.7688   -0.3707 O   0  0  0  0  0  0  0  0  0  0  0  0
   -1.7436   -2.7224   -1.6026 C   0  0  0  0  0  0  0  0  0  0  0  0
   -0.4112    0.3726   -0.2470 C   0  0  0  0  0  0  0  0  0  0  0  0
   -3.1552   -2.7040   -1.5320 C   0  0  0  0  0  0  0  0  0  0  0  0
   -1.0896   -3.9748   -1.6415 C   0  0  0  0  0  0  0  0  0  0  0  0
    0.8813    0.3168    0.3183 C   0  0  0  0  0  0  0  0  0  0  0  0
   -0.9320    1.6158   -0.6632 C   0  0  0  0  0  0  0  0  0  0  0  0
   -3.8901   -3.9057   -1.4910 C   0  0  0  0  0  0  0  0  0  0  0  0
   -1.8233   -5.1731   -1.5942 C   0  0  0  0  0  0  0  0  0  0  0  0
    1.6557    1.4872    0.4349 C   0  0  0  0  0  0  0  0  0  0  0  0
   -0.1510    2.7835   -0.5608 C   0  0  0  0  0  0  0  0  0  0  0  0
   -3.2340   -5.1580   -1.5210 C   0  0  0  0  0  0  0  0  0  0  0  0
    1.1455    2.7188   -0.0167 C   0  0  0  0  0  0  0  0  0  0  0  0
   -3.9927   -6.4382   -1.4479 C   0  0  1  0  0  0  0  0  0  0  0  0
   -4.0702   -6.9666    0.0099 C   0  0  2  0  0  0  0  0  0  0  0  0
   -4.7099   -8.3776    0.1249 C   0  0  1  0  0  0  0  0  0  0  0  0
   -4.9831   -8.8123    1.5357 N   0  0  1  0  0  0  0  0  0  0  0  0
   -5.8577  -10.0287    1.5947 C   0  0  1  0  0  0  0  0  0  0  0  0
   -3.7563   -8.9666    2.3846 C   0  0  2  0  0  0  0  0  0  0  0  0
   -6.1593  -10.4308    3.0587 C   0  0  1  0  0  0  0  0  0  0  0  0
   -4.1268   -9.4035    3.8216 C   0  0  2  0  0  0  0  0  0  0  0  0
   -4.9400  -10.5914    3.8102 O   0  0  0  0  0  0  0  0  0  0  0  0
    0.0933   -1.6567   -1.7911 H   0  0  0  0  0  0  0  0  0  0  0  0
   -1.3233   -0.8372   -2.4599 H   0  0  0  0  0  0  0  0  0  0  0  0
   -3.6562   -1.8116   -1.5048 H   0  0  0  0  0  0  0  0  0  0  0  0
   -0.0701   -4.0258   -1.6971 H   0  0  0  0  0  0  0  0  0  0  0  0
    1.2631   -0.5757    0.6394 H   0  0  0  0  0  0  0  0  0  0  0  0
   -1.8774    1.6708   -1.0481 H   0  0  0  0  0  0  0  0  0  0  0  0
   -4.9096   -3.8606   -1.4295 H   0  0  0  0  0  0  0  0  0  0  0  0
   -1.3183   -6.0620   -1.6084 H   0  0  0  0  0  0  0  0  0  0  0  0
    2.5925    1.4441    0.8434 H   0  0  0  0  0  0  0  0  0  0  0  0
   -0.5241    3.6789   -0.8851 H   0  0  0  0  0  0  0  0  0  0  0  0
    1.7169    3.5653    0.0503 H   0  0  0  0  0  0  0  0  0  0  0  0
   -5.0069   -6.3014   -1.8327 H   0  0  0  0  0  0  0  0  0  0  0  0
   -3.5083   -7.1852   -2.0852 H   0  0  0  0  0  0  0  0  0  0  0  0
   -4.6586   -6.2661    0.6084 H   0  0  0  0  0  0  0  0  0  0  0  0
   -3.0564   -7.0010    0.4181 H   0  0  0  0  0  0  0  0  0  0  0  0
   -5.6563   -8.3454   -0.4208 H   0  0  0  0  0  0  0  0  0  0  0  0
   -4.0619   -9.1047   -0.3752 H   0  0  0  0  0  0  0  0  0  0  0  0
   -6.8123   -9.8316    1.0977 H   0  0  0  0  0  0  0  0  0  0  0  0
   -5.3769  -10.8737    1.0888 H   0  0  0  0  0  0  0  0  0  0  0  0
   -3.2230   -8.0179    2.4686 H   0  0  0  0  0  0  0  0  0  0  0  0
   -3.0751   -9.7051    1.9490 H   0  0  0  0  0  0  0  0  0  0  0  0
   -6.8019   -9.6787    3.5274 H   0  0  0  0  0  0  0  0  0  0  0  0
   -6.6941  -11.3834    3.0726 H   0  0  0  0  0  0  0  0  0  0  0  0
   -4.6491   -8.5908    4.3349 H   0  0  0  0  0  0  0  0  0  0  0  0
   -3.2173   -9.6226    4.3832 H   0  0  0  0  0  0  0  0  0  0  0  0
  1  2  1  0  0  0  0 
  1  3  1  0  0  0  0 
  2  4  1  0  0  0  0 
  3  5  2  0  0  0  0 
  3  6  1  0  0  0  0 
  4  7  2  0  0  0  0 
  4  8  1  0  0  0  0 
  5  9  1  0  0  0  0 
  6 10  2  0  0  0  0 
  7 11  1  0  0  0  0 
  8 12  2  0  0  0  0 
  9 13  2  0  0  0  0 
 10 13  1  0  0  0  0 
 11 14  2  0  0  0  0 
 12 14  1  0  0  0  0 
 13 15  1  0  0  0  0 
 15 16  1  0  0  0  0 
 16 17  1  0  0  0  0 
 17 18  1  0  0  0  0 
 18 19  1  0  0  0  0 
 18 20  1  0  0  0  0 
 19 21  1  0  0  0  0 
 20 22  1  0  0  0  0 
 21 23  1  0  0  0  0 
 22 23  1  0  0  0  0 
  1 24  1  0  0  0  0 
  1 25  1  0  0  0  0 
  5 26  1  0  0  0  0 
  6 27  1  0  0  0  0 
  7 28  1  0  0  0  0 
  8 29  1  0  0  0  0 
  9 30  1  0  0  0  0 
 10 31  1  0  0  0  0 
 11 32  1  0  0  0  0 
 12 33  1  0  0  0  0 
 14 34  1  0  0  0  0 
 15 35  1  0  0  0  0 
 15 36  1  0  0  0  0 
 16 37  1  0  0  0  0 
 16 38  1  0  0  0  0 
 17 39  1  0  0  0  0 
 17 40  1  0  0  0  0 
 19 41  1  0  0  0  0 
 19 42  1  0  0  0  0 
 20 43  1  0  0  0  0 
 20 44  1  0  0  0  0 
 21 45  1  0  0  0  0 
 21 46  1  0  0  0  0 
 22 47  1  0  0  0  0 
 22 48  1  0  0  0  0 
M  END
> <cdk:Title>
fomocaine

> <Conformer>
1

> <SuperDrugID>
SD002805

$$$$
