probucol
  CDK     0628171801

 83 84  0  0  0  0  0  0  0  0999 V2000
    2.1357    2.7928    5.9909 C   0  0  2  0  0  0  0  0  0  0  0  0
    3.1424    3.7016    6.7802 C   0  0  0  0  0  0  0  0  0  0  0  0
    0.8305    2.5703    6.8325 C   0  0  0  0  0  0  0  0  0  0  0  0
    2.8319    1.3803    5.9142 C   0  0  0  0  0  0  0  0  0  0  0  0
    1.7904    3.4277    4.6341 C   0  0  0  0  0  0  0  0  0  0  0  0
    1.1711    4.7140    4.5065 C   0  0  0  0  0  0  0  0  0  0  0  0
    2.0715    2.7570    3.4167 C   0  0  0  0  0  0  0  0  0  0  0  0
    0.8815    5.3935    5.6392 O   0  0  0  0  0  0  0  0  0  0  0  0
    0.8311    5.3204    3.2529 C   0  0  0  0  0  0  0  0  0  0  0  0
    1.7791    3.3140    2.1648 C   0  0  0  0  0  0  0  0  0  0  0  0
    0.1556    6.6969    3.1439 C   0  0  2  0  0  0  0  0  0  0  0  0
    1.1561    4.5670    2.0960 C   0  0  0  0  0  0  0  0  0  0  0  0
    2.1627    2.4326    0.6919 S   0  0  0  0  0  0  0  0  0  0  0  0
   -0.1183    7.1959    1.6739 C   0  0  0  0  0  0  0  0  0  0  0  0
    1.0617    7.8042    3.7888 C   0  0  0  0  0  0  0  0  0  0  0  0
   -1.2484    6.6679    3.8436 C   0  0  0  0  0  0  0  0  0  0  0  0
    3.8506    2.9494    0.1912 C   0  0  1  0  0  0  0  0  0  0  0  0
    4.9856    2.4762    1.5528 S   0  0  0  0  0  0  0  0  0  0  0  0
    4.2008    2.1665   -1.1063 C   0  0  0  0  0  0  0  0  0  0  0  0
    3.8947    4.4799   -0.0759 C   0  0  0  0  0  0  0  0  0  0  0  0
    6.6022    2.9269    1.0315 C   0  0  0  0  0  0  0  0  0  0  0  0
    7.1101    4.1990    1.3184 C   0  0  0  0  0  0  0  0  0  0  0  0
    7.3965    2.0057    0.3381 C   0  0  0  0  0  0  0  0  0  0  0  0
    8.4020    4.6163    0.9100 C   0  0  0  0  0  0  0  0  0  0  0  0
    8.7009    2.3194   -0.1195 C   0  0  0  0  0  0  0  0  0  0  0  0
    8.8829    6.0616    1.2683 C   0  0  1  0  0  0  0  0  0  0  0  0
    9.1662    3.6430    0.1847 C   0  0  0  0  0  0  0  0  0  0  0  0
    9.5402    1.2869   -0.8897 C   0  0  2  0  0  0  0  0  0  0  0  0
   10.2372    5.9084    2.1118 C   0  0  0  0  0  0  0  0  0  0  0  0
    9.2800    6.7834   -0.1068 C   0  0  0  0  0  0  0  0  0  0  0  0
    7.8020    7.0149    2.1066 C   0  0  0  0  0  0  0  0  0  0  0  0
   10.4042    3.9811   -0.2359 O   0  0  0  0  0  0  0  0  0  0  0  0
    8.8353   -0.1031   -1.1340 C   0  0  0  0  0  0  0  0  0  0  0  0
   10.8523    0.9565   -0.0953 C   0  0  0  0  0  0  0  0  0  0  0  0
    9.8909    1.8253   -2.3216 C   0  0  0  0  0  0  0  0  0  0  0  0
    3.4624    3.2292    7.7124 H   0  0  0  0  0  0  0  0  0  0  0  0
    2.7097    4.6579    7.0607 H   0  0  0  0  0  0  0  0  0  0  0  0
    4.0324    3.8974    6.1779 H   0  0  0  0  0  0  0  0  0  0  0  0
    1.0470    2.0662    7.7783 H   0  0  0  0  0  0  0  0  0  0  0  0
    0.1170    1.9546    6.2789 H   0  0  0  0  0  0  0  0  0  0  0  0
    0.3380    3.5067    7.0866 H   0  0  0  0  0  0  0  0  0  0  0  0
    3.0564    0.9862    6.9091 H   0  0  0  0  0  0  0  0  0  0  0  0
    2.1893    0.6492    5.4177 H   0  0  0  0  0  0  0  0  0  0  0  0
    3.7777    1.4383    5.3693 H   0  0  0  0  0  0  0  0  0  0  0  0
    2.4994    1.8340    3.4119 H   0  0  0  0  0  0  0  0  0  0  0  0
    1.6821    5.9303    5.8213 H   0  0  0  0  0  0  0  0  0  0  0  0
    0.9442    4.9153    1.1637 H   0  0  0  0  0  0  0  0  0  0  0  0
   -0.5948    8.1799    1.6644 H   0  0  0  0  0  0  0  0  0  0  0  0
    0.8135    7.2831    1.1091 H   0  0  0  0  0  0  0  0  0  0  0  0
   -0.7842    6.5121    1.1419 H   0  0  0  0  0  0  0  0  0  0  0  0
    0.6371    8.8014    3.6490 H   0  0  0  0  0  0  0  0  0  0  0  0
    2.0562    7.7941    3.3370 H   0  0  0  0  0  0  0  0  0  0  0  0
    1.1791    7.6752    4.8612 H   0  0  0  0  0  0  0  0  0  0  0  0
   -1.7725    7.6204    3.7266 H   0  0  0  0  0  0  0  0  0  0  0  0
   -1.1736    6.4858    4.9136 H   0  0  0  0  0  0  0  0  0  0  0  0
   -1.8761    5.8837    3.4124 H   0  0  0  0  0  0  0  0  0  0  0  0
    3.4701    2.3784   -1.8909 H   0  0  0  0  0  0  0  0  0  0  0  0
    4.2053    1.0891   -0.9236 H   0  0  0  0  0  0  0  0  0  0  0  0
    5.1842    2.4534   -1.4841 H   0  0  0  0  0  0  0  0  0  0  0  0
    3.1219    4.7652   -0.7920 H   0  0  0  0  0  0  0  0  0  0  0  0
    4.8598    4.7743   -0.4908 H   0  0  0  0  0  0  0  0  0  0  0  0
    3.7384    5.0441    0.8437 H   0  0  0  0  0  0  0  0  0  0  0  0
    6.5004    4.8224    1.8404 H   0  0  0  0  0  0  0  0  0  0  0  0
    6.9840    1.0889    0.1746 H   0  0  0  0  0  0  0  0  0  0  0  0
   10.5825    6.8940    2.4306 H   0  0  0  0  0  0  0  0  0  0  0  0
   11.0556    5.4494    1.5604 H   0  0  0  0  0  0  0  0  0  0  0  0
   10.0533    5.3181    3.0123 H   0  0  0  0  0  0  0  0  0  0  0  0
    9.5422    7.8241    0.0897 H   0  0  0  0  0  0  0  0  0  0  0  0
    8.4275    6.7814   -0.7885 H   0  0  0  0  0  0  0  0  0  0  0  0
   10.1319    6.3408   -0.6164 H   0  0  0  0  0  0  0  0  0  0  0  0
    8.2430    7.9939    2.2948 H   0  0  0  0  0  0  0  0  0  0  0  0
    6.8904    7.1595    1.5245 H   0  0  0  0  0  0  0  0  0  0  0  0
    7.5566    6.5635    3.0692 H   0  0  0  0  0  0  0  0  0  0  0  0
   10.2681    4.3487   -1.1354 H   0  0  0  0  0  0  0  0  0  0  0  0
    9.4807   -0.7896   -1.6884 H   0  0  0  0  0  0  0  0  0  0  0  0
    8.5850   -0.5892   -0.1874 H   0  0  0  0  0  0  0  0  0  0  0  0
    7.9180    0.0213   -1.7158 H   0  0  0  0  0  0  0  0  0  0  0  0
   11.4366    0.1805   -0.5977 H   0  0  0  0  0  0  0  0  0  0  0  0
   10.6126    0.6002    0.9108 H   0  0  0  0  0  0  0  0  0  0  0  0
   11.5049    1.8225    0.0022 H   0  0  0  0  0  0  0  0  0  0  0  0
   10.4164    1.0717   -2.9137 H   0  0  0  0  0  0  0  0  0  0  0  0
   10.5427    2.6948   -2.2919 H   0  0  0  0  0  0  0  0  0  0  0  0
    8.9798    2.1030   -2.8580 H   0  0  0  0  0  0  0  0  0  0  0  0
  1  2  1  0  0  0  0 
  1  3  1  0  0  0  0 
  1  4  1  0  0  0  0 
  1  5  1  0  0  0  0 
  5  6  2  0  0  0  0 
  5  7  1  0  0  0  0 
  6  8  1  0  0  0  0 
  6  9  1  0  0  0  0 
  7 10  2  0  0  0  0 
  9 11  1  0  0  0  0 
  9 12  2  0  0  0  0 
 10 12  1  0  0  0  0 
 10 13  1  0  0  0  0 
 11 14  1  0  0  0  0 
 11 15  1  0  0  0  0 
 11 16  1  0  0  0  0 
 13 17  1  0  0  0  0 
 17 18  1  0  0  0  0 
 17 19  1  0  0  0  0 
 17 20  1  0  0  0  0 
 18 21  1  0  0  0  0 
 21 22  2  0  0  0  0 
 21 23  1  0  0  0  0 
 22 24  1  0  0  0  0 
 23 25  2  0  0  0  0 
 24 26  1  0  0  0  0 
 24 27  2  0  0  0  0 
 25 27  1  0  0  0  0 
 25 28  1  0  0  0  0 
 26 29  1  0  0  0  0 
 26 30  1  0  0  0  0 
 26 31  1  0  0  0  0 
 27 32  1  0  0  0  0 
 28 33  1  0  0  0  0 
 28 34  1  0  0  0  0 
 28 35  1  0  0  0  0 
  2 36  1  0  0  0  0 
  2 37  1  0  0  0  0 
  2 38  1  0  0  0  0 
  3 39  1  0  0  0  0 
  3 40  1  0  0  0  0 
  3 41  1  0  0  0  0 
  4 42  1  0  0  0  0 
  4 43  1  0  0  0  0 
  4 44  1  0  0  0  0 
  7 45  1  0  0  0  0 
  8 46  1  0  0  0  0 
 12 47  1  0  0  0  0 
 14 48  1  0  0  0  0 
 14 49  1  0  0  0  0 
 14 50  1  0  0  0  0 
 15 51  1  0  0  0  0 
 15 52  1  0  0  0  0 
 15 53  1  0  0  0  0 
 16 54  1  0  0  0  0 
 16 55  1  0  0  0  0 
 16 56  1  0  0  0  0 
 19 57  1  0  0  0  0 
 19 58  1  0  0  0  0 
 19 59  1  0  0  0  0 
 20 60  1  0  0  0  0 
 20 61  1  0  0  0  0 
 20 62  1  0  0  0  0 
 22 63  1  0  0  0  0 
 23 64  1  0  0  0  0 
 29 65  1  0  0  0  0 
 29 66  1  0  0  0  0 
 29 67  1  0  0  0  0 
 30 68  1  0  0  0  0 
 30 69  1  0  0  0  0 
 30 70  1  0  0  0  0 
 31 71  1  0  0  0  0 
 31 72  1  0  0  0  0 
 31 73  1  0  0  0  0 
 32 74  1  0  0  0  0 
 33 75  1  0  0  0  0 
 33 76  1  0  0  0  0 
 33 77  1  0  0  0  0 
 34 78  1  0  0  0  0 
 34 79  1  0  0  0  0 
 34 80  1  0  0  0  0 
 35 81  1  0  0  0  0 
 35 82  1  0  0  0  0 
 35 83  1  0  0  0  0 
M  END
> <cdk:Title>
probucol

> <Conformer>
1

> <SuperDrugID>
SD002035

$$$$
