pentolonium
  CDK     0628171801

 49 50  0  0  0  0  0  0  0  0999 V2000
    7.6568    6.6920   -3.3780 C   0  0  2  0  0  0  0  0  0  0  0  0
    8.1135    6.1182   -1.9978 C   0  0  2  0  0  0  0  0  0  0  0  0
    6.7947    7.9549   -3.3952 N   0  0  2  0  0  0  0  0  0  0  0  0
    8.9625    4.8187   -2.0969 C   0  0  1  0  0  0  0  0  0  0  0  0
    5.5489    7.7620   -2.5655 C   0  0  0  0  0  0  0  0  0  0  0  0
    6.4185    8.3093   -4.8147 C   0  0  1  0  0  0  0  0  0  0  0  0
    7.5478    9.1910   -2.9710 C   0  0  1  0  0  0  0  0  0  0  0  0
   10.4385    5.0432   -2.5273 C   0  0  2  0  0  0  0  0  0  0  0  0
    7.6213    9.0594   -5.4199 C   0  0  1  0  0  0  0  0  0  0  0  0
    8.2807    9.7495   -4.2117 C   0  0  1  0  0  0  0  0  0  0  0  0
   11.2590    3.7134   -2.5396 C   0  0  1  0  0  0  0  0  0  0  0  0
   12.6397    3.7242   -3.1891 N   0  0  2  0  0  0  0  0  0  0  0  0
   13.4919    4.8132   -2.5870 C   0  0  0  0  0  0  0  0  0  0  0  0
   12.5901    3.8324   -4.6911 C   0  0  1  0  0  0  0  0  0  0  0  0
   13.3060    2.3775   -3.0216 C   0  0  1  0  0  0  0  0  0  0  0  0
   12.2726    2.4225   -5.2331 C   0  0  1  0  0  0  0  0  0  0  0  0
   12.7824    1.4568   -4.1462 C   0  0  1  0  0  0  0  0  0  0  0  0
    7.1085    5.8862   -3.8791 H   0  0  0  0  0  0  0  0  0  0  0  0
    8.5606    6.8608   -3.9671 H   0  0  0  0  0  0  0  0  0  0  0  0
    7.2321    5.8696   -1.4038 H   0  0  0  0  0  0  0  0  0  0  0  0
    8.6828    6.8647   -1.4425 H   0  0  0  0  0  0  0  0  0  0  0  0
    8.9651    4.3392   -1.1130 H   0  0  0  0  0  0  0  0  0  0  0  0
    8.4806    4.1266   -2.7929 H   0  0  0  0  0  0  0  0  0  0  0  0
    4.8635    8.6107   -2.6525 H   0  0  0  0  0  0  0  0  0  0  0  0
    5.0040    6.8657   -2.8774 H   0  0  0  0  0  0  0  0  0  0  0  0
    5.7909    7.6694   -1.5046 H   0  0  0  0  0  0  0  0  0  0  0  0
    6.1621    7.4349   -5.4237 H   0  0  0  0  0  0  0  0  0  0  0  0
    5.5548    8.9869   -4.8540 H   0  0  0  0  0  0  0  0  0  0  0  0
    6.8634    9.9707   -2.6134 H   0  0  0  0  0  0  0  0  0  0  0  0
    8.2554    9.0065   -2.1603 H   0  0  0  0  0  0  0  0  0  0  0  0
   10.8992    5.7364   -1.8178 H   0  0  0  0  0  0  0  0  0  0  0  0
   10.4586    5.5088   -3.5125 H   0  0  0  0  0  0  0  0  0  0  0  0
    8.3137    8.3487   -5.8799 H   0  0  0  0  0  0  0  0  0  0  0  0
    7.3050    9.7792   -6.1801 H   0  0  0  0  0  0  0  0  0  0  0  0
    8.1642   10.8357   -4.2735 H   0  0  0  0  0  0  0  0  0  0  0  0
    9.3471    9.5122   -4.1705 H   0  0  0  0  0  0  0  0  0  0  0  0
   11.3676    3.4140   -1.4906 H   0  0  0  0  0  0  0  0  0  0  0  0
   10.6397    2.9439   -3.0098 H   0  0  0  0  0  0  0  0  0  0  0  0
   13.5060    4.7420   -1.4965 H   0  0  0  0  0  0  0  0  0  0  0  0
   13.1178    5.8012   -2.8612 H   0  0  0  0  0  0  0  0  0  0  0  0
   14.5281    4.7648   -2.9315 H   0  0  0  0  0  0  0  0  0  0  0  0
   11.8524    4.5503   -5.0530 H   0  0  0  0  0  0  0  0  0  0  0  0
   13.5596    4.1455   -5.1000 H   0  0  0  0  0  0  0  0  0  0  0  0
   14.3957    2.4450   -3.1360 H   0  0  0  0  0  0  0  0  0  0  0  0
   13.1233    1.9273   -2.0396 H   0  0  0  0  0  0  0  0  0  0  0  0
   11.1919    2.3082   -5.3578 H   0  0  0  0  0  0  0  0  0  0  0  0
   12.7565    2.2457   -6.1986 H   0  0  0  0  0  0  0  0  0  0  0  0
   13.5771    0.8094   -4.5296 H   0  0  0  0  0  0  0  0  0  0  0  0
   11.9627    0.8316   -3.7787 H   0  0  0  0  0  0  0  0  0  0  0  0
  1  2  1  0  0  0  0 
  1  3  1  0  0  0  0 
  2  4  1  0  0  0  0 
  3  5  1  0  0  0  0 
  3  6  1  0  0  0  0 
  3  7  1  0  0  0  0 
  4  8  1  0  0  0  0 
  6  9  1  0  0  0  0 
  7 10  1  0  0  0  0 
  8 11  1  0  0  0  0 
  9 10  1  0  0  0  0 
 11 12  1  0  0  0  0 
 12 13  1  0  0  0  0 
 12 14  1  0  0  0  0 
 12 15  1  0  0  0  0 
 14 16  1  0  0  0  0 
 15 17  1  0  0  0  0 
 16 17  1  0  0  0  0 
  1 18  1  0  0  0  0 
  1 19  1  0  0  0  0 
  2 20  1  0  0  0  0 
  2 21  1  0  0  0  0 
  4 22  1  0  0  0  0 
  4 23  1  0  0  0  0 
  5 24  1  0  0  0  0 
  5 25  1  0  0  0  0 
  5 26  1  0  0  0  0 
  6 27  1  0  0  0  0 
  6 28  1  0  0  0  0 
  7 29  1  0  0  0  0 
  7 30  1  0  0  0  0 
  8 31  1  0  0  0  0 
  8 32  1  0  0  0  0 
  9 33  1  0  0  0  0 
  9 34  1  0  0  0  0 
 10 35  1  0  0  0  0 
 10 36  1  0  0  0  0 
 11 37  1  0  0  0  0 
 11 38  1  0  0  0  0 
 13 39  1  0  0  0  0 
 13 40  1  0  0  0  0 
 13 41  1  0  0  0  0 
 14 42  1  0  0  0  0 
 14 43  1  0  0  0  0 
 15 44  1  0  0  0  0 
 15 45  1  0  0  0  0 
 16 46  1  0  0  0  0 
 16 47  1  0  0  0  0 
 17 48  1  0  0  0  0 
 17 49  1  0  0  0  0 
M  CHG  1   3   1
M  CHG  1  12   1
M  END
> <cdk:Title>
pentolonium

> <Conformer>
1

> <SuperDrugID>
SD001879

$$$$
