benzoic acid
  CDK     0628171802

 15 15  0  0  0  0  0  0  0  0999 V2000
   -0.0071   -0.0220    0.0000 C   0  0  0  0  0  0  0  0  0  0  0  0
   -0.6937    1.2190    0.0000 C   0  0  0  0  0  0  0  0  0  0  0  0
    0.0076    2.4393    0.0000 C   0  0  0  0  0  0  0  0  0  0  0  0
    1.4115    2.4430    0.0000 C   0  0  0  0  0  0  0  0  0  0  0  0
    2.1133    1.2258    0.0000 C   0  0  0  0  0  0  0  0  0  0  0  0
    1.4110    0.0052    0.0000 C   0  0  0  0  0  0  0  0  0  0  0  0
   -0.7267   -1.2476    0.0000 C   0  0  0  0  0  0  0  0  0  0  0  0
   -2.0808   -1.2679    0.0000 O   0  0  0  0  0  0  0  0  0  0  0  0
   -0.1509   -2.3612    0.0000 O   0  0  0  0  0  0  0  0  0  0  0  0
   -1.7147    1.2539    0.0000 H   0  0  0  0  0  0  0  0  0  0  0  0
   -0.5068    3.3229    0.0000 H   0  0  0  0  0  0  0  0  0  0  0  0
    1.9201    3.3277    0.0000 H   0  0  0  0  0  0  0  0  0  0  0  0
    3.1360    1.2268    0.0000 H   0  0  0  0  0  0  0  0  0  0  0  0
    1.9528   -0.8630    0.0000 H   0  0  0  0  0  0  0  0  0  0  0  0
   -2.5665   -2.1196    0.0000 H   0  0  0  0  0  0  0  0  0  0  0  0
  1  2  2  0  0  0  0 
  1  6  1  0  0  0  0 
  2  3  1  0  0  0  0 
  3  4  2  0  0  0  0 
  4  5  1  0  0  0  0 
  5  6  2  0  0  0  0 
  1  7  1  0  0  0  0 
  7  8  1  0  0  0  0 
  7  9  2  0  0  0  0 
  2 10  1  0  0  0  0 
  3 11  1  0  0  0  0 
  4 12  1  0  0  0  0 
  5 13  1  0  0  0  0 
  6 14  1  0  0  0  0 
  8 15  1  0  0  0  0 
M  END
> <cdk:Title>
benzoic acid

> <Conformer>
1

> <SuperDrugID>
SD003696

$$$$
