pilsicainide
  CDK     0628171801

 44 46  0  0  0  0  0  0  0  0999 V2000
    2.9217    0.3792   -3.5381 C   0  0  1  0  0  0  0  0  0  0  0  0
    3.4494   -0.9665   -3.8754 C   0  0  0  0  0  0  0  0  0  0  0  0
    1.5691    0.8179   -4.2080 C   0  0  2  0  0  0  0  0  0  0  0  0
    3.8780   -1.2437   -5.1401 N   0  0  0  0  0  0  0  0  0  0  0  0
    3.5769   -1.8030   -2.9503 O   0  0  0  0  0  0  0  0  0  0  0  0
    1.2296    2.1390   -3.5988 N   0  0  1  0  0  0  0  0  0  0  0  0
    0.3741   -0.1143   -3.8215 C   0  0  1  0  0  0  0  0  0  0  0  0
    1.6887    1.0967   -5.7450 C   0  0  2  0  0  0  0  0  0  0  0  0
    4.5006   -2.3800   -5.5831 C   0  0  0  0  0  0  0  0  0  0  0  0
    1.4633    3.2033   -4.6030 C   0  0  2  0  0  0  0  0  0  0  0  0
   -0.1312    2.0767   -3.0091 C   0  0  2  0  0  0  0  0  0  0  0  0
   -0.3184    0.5976   -2.6522 C   0  0  1  0  0  0  0  0  0  0  0  0
    1.1875    2.5357   -5.9563 C   0  0  2  0  0  0  0  0  0  0  0  0
    3.9342   -3.6848   -5.4494 C   0  0  0  0  0  0  0  0  0  0  0  0
    5.7593   -2.2143   -6.2321 C   0  0  0  0  0  0  0  0  0  0  0  0
    2.5915   -3.9289   -4.8603 C   0  0  0  0  0  0  0  0  0  0  0  0
    4.6685   -4.8011   -5.9126 C   0  0  0  0  0  0  0  0  0  0  0  0
    6.3727   -0.8690   -6.4140 C   0  0  0  0  0  0  0  0  0  0  0  0
    6.4497   -3.3543   -6.7029 C   0  0  0  0  0  0  0  0  0  0  0  0
    5.9148   -4.6390   -6.5330 C   0  0  0  0  0  0  0  0  0  0  0  0
    2.7930    0.4359   -2.4516 H   0  0  0  0  0  0  0  0  0  0  0  0
    3.6987    1.1076   -3.7873 H   0  0  0  0  0  0  0  0  0  0  0  0
    3.8142   -0.5251   -5.7837 H   0  0  0  0  0  0  0  0  0  0  0  0
   -0.3460   -0.2114   -4.6416 H   0  0  0  0  0  0  0  0  0  0  0  0
    0.6874   -1.1183   -3.5259 H   0  0  0  0  0  0  0  0  0  0  0  0
    1.1144    0.3941   -6.3552 H   0  0  0  0  0  0  0  0  0  0  0  0
    2.7253    1.0576   -6.0832 H   0  0  0  0  0  0  0  0  0  0  0  0
    2.5132    3.5084   -4.5469 H   0  0  0  0  0  0  0  0  0  0  0  0
    0.8405    4.0897   -4.4513 H   0  0  0  0  0  0  0  0  0  0  0  0
   -0.9070    2.3841   -3.7194 H   0  0  0  0  0  0  0  0  0  0  0  0
   -0.1915    2.7095   -2.1203 H   0  0  0  0  0  0  0  0  0  0  0  0
   -1.3738    0.3262   -2.5759 H   0  0  0  0  0  0  0  0  0  0  0  0
    0.1852    0.3632   -1.7102 H   0  0  0  0  0  0  0  0  0  0  0  0
    0.1165    2.5448   -6.1709 H   0  0  0  0  0  0  0  0  0  0  0  0
    1.7178    3.0394   -6.7695 H   0  0  0  0  0  0  0  0  0  0  0  0
    1.9206   -3.0875   -5.0326 H   0  0  0  0  0  0  0  0  0  0  0  0
    2.6895   -4.0925   -3.7867 H   0  0  0  0  0  0  0  0  0  0  0  0
    2.1155   -4.8098   -5.2956 H   0  0  0  0  0  0  0  0  0  0  0  0
    4.2942   -5.7492   -5.8095 H   0  0  0  0  0  0  0  0  0  0  0  0
    6.4863   -0.3804   -5.4443 H   0  0  0  0  0  0  0  0  0  0  0  0
    7.3592   -0.9180   -6.8790 H   0  0  0  0  0  0  0  0  0  0  0  0
    5.7308   -0.2542   -7.0476 H   0  0  0  0  0  0  0  0  0  0  0  0
    7.3527   -3.2636   -7.1730 H   0  0  0  0  0  0  0  0  0  0  0  0
    6.4286   -5.4559   -6.8680 H   0  0  0  0  0  0  0  0  0  0  0  0
  1  2  1  0  0  0  0 
  1  3  1  0  0  0  0 
  2  4  1  0  0  0  0 
  2  5  2  0  0  0  0 
  3  6  1  0  0  0  0 
  3  7  1  0  0  0  0 
  3  8  1  0  0  0  0 
  4  9  1  0  0  0  0 
  6 10  1  0  0  0  0 
  6 11  1  0  0  0  0 
  7 12  1  0  0  0  0 
  8 13  1  0  0  0  0 
  9 14  2  0  0  0  0 
  9 15  1  0  0  0  0 
 10 13  1  0  0  0  0 
 11 12  1  0  0  0  0 
 14 16  1  0  0  0  0 
 14 17  1  0  0  0  0 
 15 18  1  0  0  0  0 
 15 19  2  0  0  0  0 
 17 20  2  0  0  0  0 
 19 20  1  0  0  0  0 
  1 21  1  0  0  0  0 
  1 22  1  0  0  0  0 
  4 23  1  0  0  0  0 
  7 24  1  0  0  0  0 
  7 25  1  0  0  0  0 
  8 26  1  0  0  0  0 
  8 27  1  0  0  0  0 
 10 28  1  0  0  0  0 
 10 29  1  0  0  0  0 
 11 30  1  0  0  0  0 
 11 31  1  0  0  0  0 
 12 32  1  0  0  0  0 
 12 33  1  0  0  0  0 
 13 34  1  0  0  0  0 
 13 35  1  0  0  0  0 
 16 36  1  0  0  0  0 
 16 37  1  0  0  0  0 
 16 38  1  0  0  0  0 
 17 39  1  0  0  0  0 
 18 40  1  0  0  0  0 
 18 41  1  0  0  0  0 
 18 42  1  0  0  0  0 
 19 43  1  0  0  0  0 
 20 44  1  0  0  0  0 
M  END
> <cdk:Title>
pilsicainide

> <Conformer>
1

> <SuperDrugID>
SD001944

$$$$
