tinidazole
  CDK     0628171801

 29 29  0  0  0  0  0  0  0  0999 V2000
   -0.8532   -1.0131   -0.2894 C   0  0  1  0  0  0  0  0  0  0  0  0
   -0.9681    0.2971    0.5260 C   0  0  1  0  0  0  0  0  0  0  0  0
   -1.0856   -2.1661    0.5484 N   0  0  0  0  0  0  0  0  0  0  0  0
   -0.6665    1.7980   -0.4836 S   0  0  2  0  0  0  0  0  0  0  0  0
   -0.1869   -2.8147    1.3401 C   0  0  0  0  0  0  0  0  0  0  0  0
   -2.2812   -2.7961    0.6971 C   0  0  0  0  0  0  0  0  0  0  0  0
   -1.8228    1.9266   -1.9030 C   0  0  2  0  0  0  0  0  0  0  0  0
    0.8372    1.7683   -1.0406 O   0  0  0  0  0  0  0  0  0  0  0  0
   -0.8322    3.0902    0.4525 O   0  0  0  0  0  0  0  0  0  0  0  0
    1.1125   -2.5756    1.5523 N   0  0  0  0  0  0  0  0  0  0  0  0
   -0.8946   -3.8482    1.9524 C   0  0  0  0  0  0  0  0  0  0  0  0
   -3.5676   -2.4631    0.0564 C   0  0  0  0  0  0  0  0  0  0  0  0
   -2.1671   -3.8226    1.5531 N   0  0  0  0  0  0  0  0  0  0  0  0
   -3.3046    1.9739   -1.4770 C   0  0  0  0  0  0  0  0  0  0  0  0
    1.6644   -1.6439    1.1236 O   0  0  0  0  0  0  0  0  0  0  0  0
    1.8263   -3.3557    2.2554 O   0  0  0  0  0  0  0  0  0  0  0  0
   -1.5786   -0.9815   -1.1050 H   0  0  0  0  0  0  0  0  0  0  0  0
    0.1255   -1.0787   -0.7674 H   0  0  0  0  0  0  0  0  0  0  0  0
   -1.9659    0.3726    0.9602 H   0  0  0  0  0  0  0  0  0  0  0  0
   -0.2416    0.2902    1.3386 H   0  0  0  0  0  0  0  0  0  0  0  0
   -1.6620    1.0755   -2.5666 H   0  0  0  0  0  0  0  0  0  0  0  0
   -1.5823    2.8393   -2.4522 H   0  0  0  0  0  0  0  0  0  0  0  0
   -0.5161   -4.5292    2.6152 H   0  0  0  0  0  0  0  0  0  0  0  0
   -3.4795   -2.5734   -1.0245 H   0  0  0  0  0  0  0  0  0  0  0  0
   -3.8447   -1.4361    0.2962 H   0  0  0  0  0  0  0  0  0  0  0  0
   -4.3586   -3.1266    0.4081 H   0  0  0  0  0  0  0  0  0  0  0  0
   -3.4824    2.8227   -0.8140 H   0  0  0  0  0  0  0  0  0  0  0  0
   -3.9366    2.0848   -2.3601 H   0  0  0  0  0  0  0  0  0  0  0  0
   -3.5864    1.0532   -0.9632 H   0  0  0  0  0  0  0  0  0  0  0  0
  1  2  1  0  0  0  0 
  1  3  1  0  0  0  0 
  2  4  1  0  0  0  0 
  3  5  1  0  0  0  0 
  3  6  1  0  0  0  0 
  4  7  1  0  0  0  0 
  4  8  2  0  0  0  0 
  4  9  2  0  0  0  0 
  5 10  1  0  0  0  0 
  5 11  2  0  0  0  0 
  6 12  1  0  0  0  0 
  6 13  2  0  0  0  0 
  7 14  1  0  0  0  0 
 10 15  2  0  0  0  0 
 10 16  1  0  0  0  0 
 11 13  1  0  0  0  0 
  1 17  1  0  0  0  0 
  1 18  1  0  0  0  0 
  2 19  1  0  0  0  0 
  2 20  1  0  0  0  0 
  7 21  1  0  0  0  0 
  7 22  1  0  0  0  0 
 11 23  1  0  0  0  0 
 12 24  1  0  0  0  0 
 12 25  1  0  0  0  0 
 12 26  1  0  0  0  0 
 14 27  1  0  0  0  0 
 14 28  1  0  0  0  0 
 14 29  1  0  0  0  0 
M  CHG  1  10   1
M  CHG  1  16  -1
M  END
> <cdk:Title>
tinidazole

> <Conformer>
1

> <SuperDrugID>
SD002403

$$$$
