theobromine
  CDK     0628171801

 21 22  0  0  0  0  0  0  0  0999 V2000
   -2.0152    1.4411   -3.7687 C   0  0  0  0  0  0  0  0  0  0  0  0
   -1.2888    1.7269   -2.5575 N   0  0  0  0  0  0  0  0  0  0  0  0
   -1.0719    0.7413   -1.6333 C   0  0  0  0  0  0  0  0  0  0  0  0
   -0.8105    2.9862   -2.2694 C   0  0  0  0  0  0  0  0  0  0  0  0
   -0.3802    0.9725   -0.4465 C   0  0  0  0  0  0  0  0  0  0  0  0
   -1.4351   -0.5523   -1.6474 N   0  0  0  0  0  0  0  0  0  0  0  0
   -0.9744    3.9640   -3.0363 O   0  0  0  0  0  0  0  0  0  0  0  0
   -0.1292    3.2322   -1.1142 N   0  0  0  0  0  0  0  0  0  0  0  0
    0.1050    2.2666   -0.1909 C   0  0  0  0  0  0  0  0  0  0  0  0
   -0.3247   -0.1820    0.2437 N   0  0  0  0  0  0  0  0  0  0  0  0
   -0.9739   -1.0985   -0.5073 C   0  0  0  0  0  0  0  0  0  0  0  0
    0.7382    2.5513    0.8508 O   0  0  0  0  0  0  0  0  0  0  0  0
    0.2962   -0.3969    1.5124 C   0  0  0  0  0  0  0  0  0  0  0  0
   -3.0798    1.6108   -3.5995 H   0  0  0  0  0  0  0  0  0  0  0  0
   -1.6901    2.0757   -4.5968 H   0  0  0  0  0  0  0  0  0  0  0  0
   -1.8822    0.4055   -4.0920 H   0  0  0  0  0  0  0  0  0  0  0  0
    0.1997    4.1282   -0.9442 H   0  0  0  0  0  0  0  0  0  0  0  0
   -1.1038   -2.0829   -0.2564 H   0  0  0  0  0  0  0  0  0  0  0  0
    1.3591   -0.1600    1.4438 H   0  0  0  0  0  0  0  0  0  0  0  0
    0.1951   -1.4329    1.8448 H   0  0  0  0  0  0  0  0  0  0  0  0
   -0.1660    0.2507    2.2588 H   0  0  0  0  0  0  0  0  0  0  0  0
  1  2  1  0  0  0  0 
  2  3  1  0  0  0  0 
  2  4  1  0  0  0  0 
  3  5  2  0  0  0  0 
  3  6  1  0  0  0  0 
  4  7  2  0  0  0  0 
  4  8  1  0  0  0  0 
  5  9  1  0  0  0  0 
  5 10  1  0  0  0  0 
  6 11  2  0  0  0  0 
  8  9  1  0  0  0  0 
  9 12  2  0  0  0  0 
 10 11  1  0  0  0  0 
 10 13  1  0  0  0  0 
 14  1  1  0  0  0  0 
 15  1  1  0  0  0  0 
 16  1  1  0  0  0  0 
 17  8  1  0  0  0  0 
 18 11  1  0  0  0  0 
 19 13  1  0  0  0  0 
 20 13  1  0  0  0  0 
 21 13  1  0  0  0  0 
M  END
> <cdk:Title>
theobromine

> <Conformer>
1

> <SuperDrugID>
SD002356

$$$$
