etoglucid
  CDK     0628171801

 40 41  0  0  0  0  0  0  0  0999 V2000
  -12.6153  -18.1943    7.2361 C   0  0  2  0  0  0  0  0  0  0  0  0
  -13.8311  -17.5627    6.7981 O   0  0  0  0  0  0  0  0  0  0  0  0
  -12.7743  -18.6217    8.7076 C   0  0  1  0  0  0  0  0  0  0  0  0
  -13.7965  -17.1308    5.4229 C   0  0  2  0  0  0  0  0  0  0  0  0
  -11.5273  -18.8529    9.5279 C   0  0  1  0  0  0  0  0  0  0  0  0
  -12.3379  -17.6820    9.6989 O   0  0  0  0  0  0  0  0  0  0  0  0
  -15.1427  -16.4860    5.0466 C   0  0  1  0  0  0  0  0  0  0  0  0
  -15.3573  -15.3265    5.8738 O   0  0  0  0  0  0  0  0  0  0  0  0
  -16.5708  -14.6098    5.5818 C   0  0  2  0  0  0  0  0  0  0  0  0
  -16.6913  -13.3948    6.5251 C   0  0  1  0  0  0  0  0  0  0  0  0
  -17.9028  -12.6859    6.2092 O   0  0  0  0  0  0  0  0  0  0  0  0
  -18.1486  -11.5144    7.0084 C   0  0  1  0  0  0  0  0  0  0  0  0
  -19.4720  -10.8831    6.5336 C   0  0  1  0  0  0  0  0  0  0  0  0
  -19.7649   -9.7066    7.3105 O   0  0  0  0  0  0  0  0  0  0  0  0
  -20.9851   -9.0454    6.9275 C   0  0  2  0  0  0  0  0  0  0  0  0
  -21.1578   -7.8026    7.8181 C   0  0  1  0  0  0  0  0  0  0  0  0
  -22.5420   -7.2503    8.0694 C   0  0  1  0  0  0  0  0  0  0  0  0
  -21.8461   -8.0244    9.0578 O   0  0  0  0  0  0  0  0  0  0  0  0
  -11.7716  -17.5060    7.1290 H   0  0  0  0  0  0  0  0  0  0  0  0
  -12.4210  -19.0913    6.6445 H   0  0  0  0  0  0  0  0  0  0  0  0
  -13.6374  -19.2256    8.9921 H   0  0  0  0  0  0  0  0  0  0  0  0
  -13.6187  -17.9819    4.7581 H   0  0  0  0  0  0  0  0  0  0  0  0
  -13.0020  -16.3928    5.2758 H   0  0  0  0  0  0  0  0  0  0  0  0
  -11.5970  -19.5618   10.3543 H   0  0  0  0  0  0  0  0  0  0  0  0
  -10.5592  -18.6518    9.0663 H   0  0  0  0  0  0  0  0  0  0  0  0
  -15.1092  -16.2023    3.9907 H   0  0  0  0  0  0  0  0  0  0  0  0
  -15.9432  -17.2173    5.1914 H   0  0  0  0  0  0  0  0  0  0  0  0
  -17.4391  -15.2599    5.7266 H   0  0  0  0  0  0  0  0  0  0  0  0
  -16.5609  -14.2548    4.5466 H   0  0  0  0  0  0  0  0  0  0  0  0
  -16.7140  -13.7456    7.5610 H   0  0  0  0  0  0  0  0  0  0  0  0
  -15.8224  -12.7446    6.3865 H   0  0  0  0  0  0  0  0  0  0  0  0
  -18.2344  -11.7813    8.0656 H   0  0  0  0  0  0  0  0  0  0  0  0
  -17.3388  -10.7891    6.8878 H   0  0  0  0  0  0  0  0  0  0  0  0
  -19.3765  -10.6242    5.4742 H   0  0  0  0  0  0  0  0  0  0  0  0
  -20.2737  -11.6186    6.6507 H   0  0  0  0  0  0  0  0  0  0  0  0
  -21.8380   -9.7212    7.0415 H   0  0  0  0  0  0  0  0  0  0  0  0
  -20.9316   -8.7141    5.8880 H   0  0  0  0  0  0  0  0  0  0  0  0
  -20.3403   -7.0838    7.8828 H   0  0  0  0  0  0  0  0  0  0  0  0
  -22.6095   -6.1862    8.2973 H   0  0  0  0  0  0  0  0  0  0  0  0
  -23.3860   -7.7635    7.6074 H   0  0  0  0  0  0  0  0  0  0  0  0
  1  2  1  0  0  0  0 
  1  3  1  0  0  0  0 
  2  4  1  0  0  0  0 
  3  5  1  0  0  0  0 
  3  6  1  0  0  0  0 
  4  7  1  0  0  0  0 
  5  6  1  0  0  0  0 
  7  8  1  0  0  0  0 
  8  9  1  0  0  0  0 
  9 10  1  0  0  0  0 
 10 11  1  0  0  0  0 
 11 12  1  0  0  0  0 
 12 13  1  0  0  0  0 
 13 14  1  0  0  0  0 
 14 15  1  0  0  0  0 
 15 16  1  0  0  0  0 
 16 17  1  0  0  0  0 
 16 18  1  0  0  0  0 
 17 18  1  0  0  0  0 
  1 19  1  0  0  0  0 
  1 20  1  0  0  0  0 
  3 21  1  0  0  0  0 
  4 22  1  0  0  0  0 
  4 23  1  0  0  0  0 
  5 24  1  0  0  0  0 
  5 25  1  0  0  0  0 
  7 26  1  0  0  0  0 
  7 27  1  0  0  0  0 
  9 28  1  0  0  0  0 
  9 29  1  0  0  0  0 
 10 30  1  0  0  0  0 
 10 31  1  0  0  0  0 
 12 32  1  0  0  0  0 
 12 33  1  0  0  0  0 
 13 34  1  0  0  0  0 
 13 35  1  0  0  0  0 
 15 36  1  0  0  0  0 
 15 37  1  0  0  0  0 
 16 38  1  0  0  0  0 
 17 39  1  0  0  0  0 
 17 40  1  0  0  0  0 
M  END
> <cdk:Title>
etoglucid

> <Conformer>
1

> <SuperDrugID>
SD002781

$$$$
