carindacillin
  CDK     0628171802

 61 65  0  0  0  0  0  0  0  0999 V2000
   -1.4786    1.7747   -2.3092 N   0  0  0  0  0  0  0  0  0  0  0  0
   -1.0488    3.0481   -2.5334 C   0  0  0  0  0  0  0  0  0  0  0  0
   -1.6312    1.1575   -1.0352 C   0  0  1  0  0  0  0  0  0  0  0  0
   -0.8321    3.5165   -3.9263 C   0  0  1  0  0  0  0  0  0  0  0  0
   -0.8047    3.8234   -1.5777 O   0  0  0  0  0  0  0  0  0  0  0  0
   -2.4849   -0.1490   -1.0544 C   0  0  2  0  0  0  0  0  0  0  0  0
   -0.5243    0.2654   -0.6882 C   0  0  0  0  0  0  0  0  0  0  0  0
    0.3360    2.7723   -4.4738 C   0  0  0  0  0  0  0  0  0  0  0  0
   -2.1309    3.4909   -4.6804 C   0  0  0  0  0  0  0  0  0  0  0  0
   -1.2769   -0.8294   -0.7832 N   0  0  0  0  0  0  0  0  0  0  0  0
   -2.8630   -1.1403   -2.5369 S   0  0  0  0  0  0  0  0  0  0  0  0
    0.6996    0.4535   -0.5098 O   0  0  0  0  0  0  0  0  0  0  0  0
    0.3112    1.4068   -4.5938 O   0  0  0  0  0  0  0  0  0  0  0  0
    1.3787    3.3994   -4.7797 O   0  0  0  0  0  0  0  0  0  0  0  0
   -2.5258    2.4240   -5.5264 C   0  0  0  0  0  0  0  0  0  0  0  0
   -3.0444    4.5657   -4.5112 C   0  0  0  0  0  0  0  0  0  0  0  0
   -1.0050   -2.2214   -0.9910 C   0  0  2  0  0  0  0  0  0  0  0  0
   -2.2096   -2.7301   -1.8742 C   0  0  1  0  0  0  0  0  0  0  0  0
    1.3302    0.5147   -4.3835 C   0  0  0  0  0  0  0  0  0  0  0  0
   -3.7712    2.4339   -6.1817 C   0  0  0  0  0  0  0  0  0  0  0  0
   -4.2873    4.5824   -5.1711 C   0  0  0  0  0  0  0  0  0  0  0  0
   -0.7335   -2.9876    0.2460 C   0  0  0  0  0  0  0  0  0  0  0  0
    1.2545   -0.7588   -4.9917 C   0  0  0  0  0  0  0  0  0  0  0  0
    2.4136    0.8059   -3.5190 C   0  0  0  0  0  0  0  0  0  0  0  0
   -4.6477    3.5181   -6.0127 C   0  0  0  0  0  0  0  0  0  0  0  0
   -0.3260   -4.2743    0.1466 O   0  0  0  0  0  0  0  0  0  0  0  0
   -0.8554   -2.4854    1.3871 O   0  0  0  0  0  0  0  0  0  0  0  0
    2.2714   -1.7076   -4.7496 C   0  0  0  0  0  0  0  0  0  0  0  0
    3.4017   -0.1587   -3.2516 C   0  0  0  0  0  0  0  0  0  0  0  0
    3.3211   -1.4147   -3.8775 C   0  0  0  0  0  0  0  0  0  0  0  0
    2.3991   -3.0501   -5.3210 C   0  0  2  0  0  0  0  0  0  0  0  0
    4.2532   -2.5302   -3.7165 C   0  0  1  0  0  0  0  0  0  0  0  0
    3.7088   -3.6026   -4.6939 C   0  0  2  0  0  0  0  0  0  0  0  0
   -3.2104   -0.2527   -0.2425 H   0  0  0  0  0  0  0  0  0  0  0  0
   -3.3706   -3.3844   -1.0588 C   0  0  0  0  0  0  0  0  0  0  0  0
   -1.7763   -3.6615   -3.0431 C   0  0  0  0  0  0  0  0  0  0  0  0
   -1.6602    1.2279   -3.0879 H   0  0  0  0  0  0  0  0  0  0  0  0
   -1.9015    1.8317   -0.2180 H   0  0  0  0  0  0  0  0  0  0  0  0
   -0.5142    4.5662   -3.8822 H   0  0  0  0  0  0  0  0  0  0  0  0
   -1.9218    1.6178   -5.6755 H   0  0  0  0  0  0  0  0  0  0  0  0
   -2.8118    5.3499   -3.8968 H   0  0  0  0  0  0  0  0  0  0  0  0
   -0.0820   -2.2655   -1.5794 H   0  0  0  0  0  0  0  0  0  0  0  0
   -4.0398    1.6500   -6.7808 H   0  0  0  0  0  0  0  0  0  0  0  0
   -4.9297    5.3669   -5.0363 H   0  0  0  0  0  0  0  0  0  0  0  0
    0.4673   -0.9887   -5.6023 H   0  0  0  0  0  0  0  0  0  0  0  0
    2.4760    1.7130   -3.0543 H   0  0  0  0  0  0  0  0  0  0  0  0
   -5.5476    3.5309   -6.4968 H   0  0  0  0  0  0  0  0  0  0  0  0
   -0.1176   -4.7913    0.9512 H   0  0  0  0  0  0  0  0  0  0  0  0
    4.1623    0.0557   -2.6055 H   0  0  0  0  0  0  0  0  0  0  0  0
    2.4753   -2.9861   -6.4105 H   0  0  0  0  0  0  0  0  0  0  0  0
    1.5396   -3.6711   -5.0548 H   0  0  0  0  0  0  0  0  0  0  0  0
    5.2628   -2.2183   -3.9893 H   0  0  0  0  0  0  0  0  0  0  0  0
    4.2506   -2.8877   -2.6828 H   0  0  0  0  0  0  0  0  0  0  0  0
    4.4422   -3.8010   -5.4799 H   0  0  0  0  0  0  0  0  0  0  0  0
    3.5188   -4.5398   -4.1637 H   0  0  0  0  0  0  0  0  0  0  0  0
   -3.6496   -2.7667   -0.2026 H   0  0  0  0  0  0  0  0  0  0  0  0
   -3.0802   -4.3680   -0.6851 H   0  0  0  0  0  0  0  0  0  0  0  0
   -4.2564   -3.5112   -1.6845 H   0  0  0  0  0  0  0  0  0  0  0  0
   -1.0360   -3.1751   -3.6792 H   0  0  0  0  0  0  0  0  0  0  0  0
   -1.3391   -4.5820   -2.6532 H   0  0  0  0  0  0  0  0  0  0  0  0
   -2.6333   -3.9259   -3.6651 H   0  0  0  0  0  0  0  0  0  0  0  0
  1  2  1  0  0  0  0 
  4  2  1  0  0  0  0 
  2  5  2  0  0  0  0 
  3  1  1  0  0  0  0 
  6  3  1  0  0  0  0 
  3  7  1  0  0  0  0 
  4  8  1  0  0  0  0 
  4  9  1  0  0  0  0 
  6 10  1  0  0  0  0 
  6 11  1  0  0  0  0 
  6 34  1  0  0  0  0 
  7 10  1  0  0  0  0 
  7 12  2  0  0  0  0 
  8 13  1  0  0  0  0 
  8 14  2  0  0  0  0 
  9 15  2  0  0  0  0 
  9 16  1  0  0  0  0 
 17 10  1  0  0  0  0 
 11 18  1  0  0  0  0 
 13 19  1  0  0  0  0 
 15 20  1  0  0  0  0 
 16 21  2  0  0  0  0 
 17 18  1  0  0  0  0 
 17 22  1  0  0  0  0 
 19 23  2  0  0  0  0 
 19 24  1  0  0  0  0 
 20 25  2  0  0  0  0 
 21 25  1  0  0  0  0 
 22 26  1  0  0  0  0 
 22 27  2  0  0  0  0 
 23 28  1  0  0  0  0 
 24 29  2  0  0  0  0 
 28 30  2  0  0  0  0 
 28 31  1  0  0  0  0 
 29 30  1  0  0  0  0 
 30 32  1  0  0  0  0 
 31 33  1  0  0  0  0 
 32 33  1  0  0  0  0 
 18 35  1  0  0  0  0 
 18 36  1  0  0  0  0 
  1 37  1  0  0  0  0 
  3 38  1  0  0  0  0 
  4 39  1  0  0  0  0 
 15 40  1  0  0  0  0 
 16 41  1  0  0  0  0 
 17 42  1  0  0  0  0 
 20 43  1  0  0  0  0 
 21 44  1  0  0  0  0 
 23 45  1  0  0  0  0 
 24 46  1  0  0  0  0 
 25 47  1  0  0  0  0 
 26 48  1  0  0  0  0 
 29 49  1  0  0  0  0 
 31 50  1  0  0  0  0 
 31 51  1  0  0  0  0 
 32 52  1  0  0  0  0 
 32 53  1  0  0  0  0 
 33 54  1  0  0  0  0 
 33 55  1  0  0  0  0 
 35 56  1  0  0  0  0 
 35 57  1  0  0  0  0 
 35 58  1  0  0  0  0 
 36 59  1  0  0  0  0 
 36 60  1  0  0  0  0 
 36 61  1  0  0  0  0 
M  END
> <cdk:Title>
carindacillin

> <Conformer>
1

> <SuperDrugID>
SD000438

$$$$
