levomethadyl acetate
  CDK     0628171801

 57 58  0  0  0  0  0  0  0  0999 V2000
    1.8322   -6.4390   -3.0893 C   0  0  2  0  0  0  0  0  0  0  0  0
    0.5896   -7.4274   -2.8312 C   0  0  1  0  0  0  0  0  0  0  0  0
    1.7077   -5.1822   -2.1083 C   0  0  1  0  0  0  0  0  0  0  0  0
    1.8242   -6.0675   -4.5804 C   0  0  0  0  0  0  0  0  0  0  0  0
    3.2229   -7.0591   -2.9028 C   0  0  0  0  0  0  0  0  0  0  0  0
    0.6967   -8.0896   -1.5512 O   0  0  0  0  0  0  0  0  0  0  0  0
   -0.8694   -6.8503   -2.8891 C   0  0  2  0  0  0  0  0  0  0  0  0
    1.8238   -5.3735   -0.5499 C   0  0  1  0  0  0  0  0  0  0  0  0
    1.9924   -7.0848   -5.5679 C   0  0  0  0  0  0  0  0  0  0  0  0
    1.6914   -4.7385   -5.0762 C   0  0  0  0  0  0  0  0  0  0  0  0
    3.4511   -8.4310   -2.5984 C   0  0  0  0  0  0  0  0  0  0  0  0
    4.3940   -6.2697   -3.1124 C   0  0  0  0  0  0  0  0  0  0  0  0
    0.1436   -9.2788   -1.1543 C   0  0  0  0  0  0  0  0  0  0  0  0
   -1.3508   -6.2596   -4.2328 C   0  0  0  0  0  0  0  0  0  0  0  0
    3.2274   -5.7378   -0.1289 N   0  0  1  0  0  0  0  0  0  0  0  0
    1.2399   -4.1608    0.2322 C   0  0  0  0  0  0  0  0  0  0  0  0
    1.9923   -6.8058   -6.9453 C   0  0  0  0  0  0  0  0  0  0  0  0
    1.6881   -4.4517   -6.4544 C   0  0  0  0  0  0  0  0  0  0  0  0
    4.7446   -8.9597   -2.4409 C   0  0  0  0  0  0  0  0  0  0  0  0
    5.6907   -6.7942   -2.9772 C   0  0  0  0  0  0  0  0  0  0  0  0
    0.3428   -9.7296    0.2317 C   0  0  0  0  0  0  0  0  0  0  0  0
   -0.5088   -9.9894   -1.9555 O   0  0  0  0  0  0  0  0  0  0  0  0
    4.2221   -4.6267   -0.0122 C   0  0  0  0  0  0  0  0  0  0  0  0
    3.3311   -6.7140    0.9952 C   0  0  0  0  0  0  0  0  0  0  0  0
    1.8334   -5.4872   -7.3908 C   0  0  0  0  0  0  0  0  0  0  0  0
    5.8678   -8.1394   -2.6285 C   0  0  0  0  0  0  0  0  0  0  0  0
    0.6255   -8.2276   -3.5746 H   0  0  0  0  0  0  0  0  0  0  0  0
    2.4544   -4.4368   -2.3773 H   0  0  0  0  0  0  0  0  0  0  0  0
    0.7566   -4.6888   -2.3149 H   0  0  0  0  0  0  0  0  0  0  0  0
   -1.0106   -6.1100   -2.1017 H   0  0  0  0  0  0  0  0  0  0  0  0
   -1.5619   -7.6633   -2.6613 H   0  0  0  0  0  0  0  0  0  0  0  0
    1.1510   -6.1813   -0.2751 H   0  0  0  0  0  0  0  0  0  0  0  0
    2.1327   -8.0589   -5.2924 H   0  0  0  0  0  0  0  0  0  0  0  0
    1.5909   -3.9423   -4.4481 H   0  0  0  0  0  0  0  0  0  0  0  0
    2.6831   -9.0906   -2.5070 H   0  0  0  0  0  0  0  0  0  0  0  0
    4.3181   -5.2895   -3.3856 H   0  0  0  0  0  0  0  0  0  0  0  0
   -2.4336   -6.1279   -4.2043 H   0  0  0  0  0  0  0  0  0  0  0  0
   -1.1085   -6.9294   -5.0593 H   0  0  0  0  0  0  0  0  0  0  0  0
   -0.9069   -5.2823   -4.4103 H   0  0  0  0  0  0  0  0  0  0  0  0
    1.3369   -4.3238    1.3072 H   0  0  0  0  0  0  0  0  0  0  0  0
    1.7547   -3.2364   -0.0328 H   0  0  0  0  0  0  0  0  0  0  0  0
    0.1779   -4.0418    0.0049 H   0  0  0  0  0  0  0  0  0  0  0  0
    2.1140   -7.5646   -7.6210 H   0  0  0  0  0  0  0  0  0  0  0  0
    1.5804   -3.4877   -6.7767 H   0  0  0  0  0  0  0  0  0  0  0  0
    4.8688   -9.9460   -2.2015 H   0  0  0  0  0  0  0  0  0  0  0  0
    6.5056   -6.1985   -3.1397 H   0  0  0  0  0  0  0  0  0  0  0  0
   -0.1153   -9.0188    0.9210 H   0  0  0  0  0  0  0  0  0  0  0  0
    1.4110   -9.7902    0.4464 H   0  0  0  0  0  0  0  0  0  0  0  0
   -0.1064  -10.7127    0.3973 H   0  0  0  0  0  0  0  0  0  0  0  0
    5.2373   -5.0264   -0.0596 H   0  0  0  0  0  0  0  0  0  0  0  0
    4.1182   -3.9088   -0.8256 H   0  0  0  0  0  0  0  0  0  0  0  0
    4.1036   -4.0912    0.9332 H   0  0  0  0  0  0  0  0  0  0  0  0
    2.7344   -7.6036    0.7901 H   0  0  0  0  0  0  0  0  0  0  0  0
    4.3652   -7.0415    1.1200 H   0  0  0  0  0  0  0  0  0  0  0  0
    2.9874   -6.2728    1.9334 H   0  0  0  0  0  0  0  0  0  0  0  0
    1.8314   -5.2817   -8.3921 H   0  0  0  0  0  0  0  0  0  0  0  0
    6.8094   -8.5236   -2.5234 H   0  0  0  0  0  0  0  0  0  0  0  0
  2  1  1  0  0  0  0 
  1  3  1  0  0  0  0 
  1  4  1  0  0  0  0 
  1  5  1  0  0  0  0 
  2  6  1  0  0  0  0 
  2  7  1  0  0  0  0 
  8  3  1  0  0  0  0 
  4  9  2  0  0  0  0 
  4 10  1  0  0  0  0 
  5 11  2  0  0  0  0 
  5 12  1  0  0  0  0 
  6 13  1  0  0  0  0 
  7 14  1  0  0  0  0 
  8 15  1  0  0  0  0 
  8 16  1  0  0  0  0 
  9 17  1  0  0  0  0 
 10 18  2  0  0  0  0 
 11 19  1  0  0  0  0 
 12 20  2  0  0  0  0 
 13 21  1  0  0  0  0 
 13 22  2  0  0  0  0 
 15 23  1  0  0  0  0 
 15 24  1  0  0  0  0 
 17 25  2  0  0  0  0 
 18 25  1  0  0  0  0 
 19 26  2  0  0  0  0 
 20 26  1  0  0  0  0 
  2 27  1  0  0  0  0 
  3 28  1  0  0  0  0 
  3 29  1  0  0  0  0 
  7 30  1  0  0  0  0 
  7 31  1  0  0  0  0 
  8 32  1  0  0  0  0 
  9 33  1  0  0  0  0 
 10 34  1  0  0  0  0 
 11 35  1  0  0  0  0 
 12 36  1  0  0  0  0 
 14 37  1  0  0  0  0 
 14 38  1  0  0  0  0 
 14 39  1  0  0  0  0 
 16 40  1  0  0  0  0 
 16 41  1  0  0  0  0 
 16 42  1  0  0  0  0 
 17 43  1  0  0  0  0 
 18 44  1  0  0  0  0 
 19 45  1  0  0  0  0 
 20 46  1  0  0  0  0 
 21 47  1  0  0  0  0 
 21 48  1  0  0  0  0 
 21 49  1  0  0  0  0 
 23 50  1  0  0  0  0 
 23 51  1  0  0  0  0 
 23 52  1  0  0  0  0 
 24 53  1  0  0  0  0 
 24 54  1  0  0  0  0 
 24 55  1  0  0  0  0 
 25 56  1  0  0  0  0 
 26 57  1  0  0  0  0 
M  END
> <cdk:Title>
levomethadyl acetate

> <Conformer>
1

> <SuperDrugID>
SD001386

$$$$
