quinupristin
  CDK     0628171801

140147  0  0  0  0  0  0  0  0999 V2000
   -3.7748   -2.5501    4.9501 O   0  0  0  0  0  0  0  0  0  0  0  0
   -3.7751   -3.2740    3.9227 C   0  0  0  0  0  0  0  0  0  0  0  0
   -3.7120   -2.6170    2.6779 N   0  0  0  0  0  0  0  0  0  0  0  0
   -3.8393   -4.7476    4.2188 C   0  0  2  0  0  0  0  0  0  0  0  0
   -4.1413   -3.1159    1.3659 C   0  0  2  0  0  0  0  0  0  0  0  0
   -3.1456   -1.2581    2.6612 C   0  0  1  0  0  0  0  0  0  0  0  0
   -5.2630   -5.1362    4.7704 C   0  0  2  0  0  0  0  0  0  0  0  0
   -2.7162   -5.1898    5.0893 N   0  0  0  0  0  0  0  0  0  0  0  0
   -5.0443   -4.2997    1.2211 C   0  0  0  0  0  0  0  0  0  0  0  0
   -2.8778   -3.1633    0.4588 C   0  0  2  0  0  0  0  0  0  0  0  0
   -2.5317   -0.7321    1.3065 C   0  0  2  0  0  0  0  0  0  0  0  0
   -5.6045   -6.5767    4.6125 C   0  0  0  0  0  0  0  0  0  0  0  0
   -2.6754   -4.7727    6.4822 C   0  0  0  0  0  0  0  0  0  0  0  0
   -1.6495   -5.9746    4.6139 C   0  0  0  0  0  0  0  0  0  0  0  0
   -6.1534   -4.2722    1.8006 O   0  0  0  0  0  0  0  0  0  0  0  0
   -4.7402   -5.3351    0.3781 N   0  0  0  0  0  0  0  0  0  0  0  0
   -2.2009   -1.8563    0.3796 C   0  0  0  0  0  0  0  0  0  0  0  0
   -1.3565    0.2647    1.5828 C   0  0  1  0  0  0  0  0  0  0  0  0
   -6.6103   -6.9981    3.7126 C   0  0  0  0  0  0  0  0  0  0  0  0
   -4.9473   -7.5583    5.3858 C   0  0  0  0  0  0  0  0  0  0  0  0
   -1.5890   -6.2208    3.3929 O   0  0  0  0  0  0  0  0  0  0  0  0
   -0.4950   -6.5196    5.4184 C   0  0  1  0  0  0  0  0  0  0  0  0
   -5.5199   -6.5022    0.0629 C   0  0  2  0  0  0  0  0  0  0  0  0
   -1.4327   -1.7063   -0.5964 O   0  0  0  0  0  0  0  0  0  0  0  0
   -0.7198    1.1516    0.1153 S   0  0  0  0  0  0  0  0  0  0  0  0
   -6.9033   -8.3629    3.5494 C   0  0  0  0  0  0  0  0  0  0  0  0
   -5.2457   -8.9226    5.2185 C   0  0  0  0  0  0  0  0  0  0  0  0
    0.4048   -7.4613    4.7651 N   0  0  0  0  0  0  0  0  0  0  0  0
    0.4340   -5.3643    5.8972 C   0  0  2  0  0  0  0  0  0  0  0  0
   -4.7972   -7.1908   -1.0397 C   0  0  0  0  0  0  0  0  0  0  0  0
   -6.9572   -6.2952   -0.3135 C   0  0  0  0  0  0  0  0  0  0  0  0
    0.9106    0.3765   -0.1885 C   0  0  1  0  0  0  0  0  0  0  0  0
   -6.1991   -9.3532    4.2704 C   0  0  0  0  0  0  0  0  0  0  0  0
    0.1520   -8.7815    4.3773 C   0  0  0  0  0  0  0  0  0  0  0  0
    1.7145   -6.8930    4.5927 C   0  0  2  0  0  0  0  0  0  0  0  0
    1.8583   -5.8888    5.7343 C   0  0  2  0  0  0  0  0  0  0  0  0
   -4.8117   -6.6894   -2.1878 O   0  0  0  0  0  0  0  0  0  0  0  0
   -4.0558   -8.3361   -0.9282 O   0  0  0  0  0  0  0  0  0  0  0  0
   -7.9230   -7.2780    0.0189 C   0  0  0  0  0  0  0  0  0  0  0  0
   -7.3920   -5.1512   -1.0287 C   0  0  0  0  0  0  0  0  0  0  0  0
    1.4929    0.6932   -1.6087 C   0  0  2  0  0  0  0  0  0  0  0  0
    1.9792    0.7420    0.9015 C   0  0  1  0  0  0  0  0  0  0  0  0
   -6.4307  -10.7562    4.0856 N   0  0  0  0  0  0  0  0  0  0  0  0
    1.0998   -9.4391    3.8776 O   0  0  0  0  0  0  0  0  0  0  0  0
   -1.1215   -9.5729    4.4585 C   0  0  1  0  0  0  0  0  0  0  0  0
   -3.6995   -9.1347    0.2141 C   0  0  1  0  0  0  0  0  0  0  0  0
   -9.2800   -7.1085   -0.3090 C   0  0  0  0  0  0  0  0  0  0  0  0
   -8.7500   -4.9777   -1.3604 C   0  0  0  0  0  0  0  0  0  0  0  0
    2.7582   -0.2091   -1.7963 C   0  0  2  0  0  0  0  0  0  0  0  0
    1.9714    2.1795   -1.6768 C   0  0  2  0  0  0  0  0  0  0  0  0
    3.2678    1.1835    0.2642 N   0  0  1  0  0  0  0  0  0  0  0  0
   -6.4468  -11.8250    5.1261 C   0  0  0  0  0  0  0  0  0  0  0  0
   -6.6392  -11.2514    2.7423 C   0  0  0  0  0  0  0  0  0  0  0  0
   -1.7441   -9.7156    5.8775 C   0  0  1  0  0  0  0  0  0  0  0  0
   -2.0797   -9.0799    3.5117 N   0  0  0  0  0  0  0  0  0  0  0  0
   -3.0729  -10.4477   -0.3319 C   0  0  0  0  0  0  0  0  0  0  0  0
   -2.8439   -8.3362    1.2672 C   0  0  1  0  0  0  0  0  0  0  0  0
   -9.6940   -5.9542   -0.9953 C   0  0  0  0  0  0  0  0  0  0  0  0
    3.7811    0.0995   -0.6488 C   0  0  2  0  0  0  0  0  0  0  0  0
    3.0146    2.4325   -0.5372 C   0  0  2  0  0  0  0  0  0  0  0  0
   -0.7548  -10.1455    6.9864 C   0  0  0  0  0  0  0  0  0  0  0  0
   -1.9268   -9.1086    2.1488 C   0  0  0  0  0  0  0  0  0  0  0  0
   -2.1170   -7.1856    0.8054 N   0  0  0  0  0  0  0  0  0  0  0  0
   -0.9511   -9.7044    1.6314 O   0  0  0  0  0  0  0  0  0  0  0  0
   -1.1667   -7.0731   -0.1637 C   0  0  0  0  0  0  0  0  0  0  0  0
   -1.0084   -7.9596   -1.0333 O   0  0  0  0  0  0  0  0  0  0  0  0
   -0.3075   -5.9455   -0.1269 C   0  0  0  0  0  0  0  0  0  0  0  0
    0.2267   -5.3049   -1.2719 C   0  0  0  0  0  0  0  0  0  0  0  0
    0.0454   -5.4653    1.0990 N   0  0  0  0  0  0  0  0  0  0  0  0
   -0.0955   -5.7256   -2.5232 O   0  0  0  0  0  0  0  0  0  0  0  0
    1.0908   -4.2011   -1.0969 C   0  0  0  0  0  0  0  0  0  0  0  0
    0.8747   -4.4123    1.3005 C   0  0  0  0  0  0  0  0  0  0  0  0
    1.4235   -3.7499    0.1930 C   0  0  0  0  0  0  0  0  0  0  0  0
   -0.8707   -7.0162    6.3107 H   0  0  0  0  0  0  0  0  0  0  0  0
   -4.7833   -2.3304    0.9458 H   0  0  0  0  0  0  0  0  0  0  0  0
   -3.7589   -5.2501    3.2567 H   0  0  0  0  0  0  0  0  0  0  0  0
   -4.6337   -9.4405    0.6924 H   0  0  0  0  0  0  0  0  0  0  0  0
   -3.9244   -0.5595    2.9848 H   0  0  0  0  0  0  0  0  0  0  0  0
   -2.3515   -1.2075    3.4144 H   0  0  0  0  0  0  0  0  0  0  0  0
   -6.0204   -4.5309    4.2690 H   0  0  0  0  0  0  0  0  0  0  0  0
   -5.3815   -4.8821    5.8224 H   0  0  0  0  0  0  0  0  0  0  0  0
   -3.1544   -3.4480   -0.5598 H   0  0  0  0  0  0  0  0  0  0  0  0
   -2.1756   -3.8997    0.8458 H   0  0  0  0  0  0  0  0  0  0  0  0
   -3.3173   -0.1586    0.8034 H   0  0  0  0  0  0  0  0  0  0  0  0
   -3.5639   -4.2522    6.8273 H   0  0  0  0  0  0  0  0  0  0  0  0
   -2.5427   -5.6289    7.1458 H   0  0  0  0  0  0  0  0  0  0  0  0
   -1.8561   -4.0703    6.6312 H   0  0  0  0  0  0  0  0  0  0  0  0
   -3.8737   -5.2870   -0.0543 H   0  0  0  0  0  0  0  0  0  0  0  0
   -1.7083    1.0360    2.2731 H   0  0  0  0  0  0  0  0  0  0  0  0
   -0.5359   -0.2610    2.0750 H   0  0  0  0  0  0  0  0  0  0  0  0
   -7.1426   -6.3166    3.1668 H   0  0  0  0  0  0  0  0  0  0  0  0
   -4.2478   -7.2877    6.0803 H   0  0  0  0  0  0  0  0  0  0  0  0
   -5.4919   -7.1291    0.9520 H   0  0  0  0  0  0  0  0  0  0  0  0
   -7.6471   -8.6316    2.9057 H   0  0  0  0  0  0  0  0  0  0  0  0
   -4.7539   -9.6046    5.7941 H   0  0  0  0  0  0  0  0  0  0  0  0
    0.2543   -5.1080    6.9458 H   0  0  0  0  0  0  0  0  0  0  0  0
    0.3188   -4.4608    5.2875 H   0  0  0  0  0  0  0  0  0  0  0  0
    0.7509   -0.6998   -0.1389 H   0  0  0  0  0  0  0  0  0  0  0  0
    1.7672   -6.3914    3.6228 H   0  0  0  0  0  0  0  0  0  0  0  0
    2.5299   -7.6182    4.6615 H   0  0  0  0  0  0  0  0  0  0  0  0
    2.1763   -6.4015    6.6469 H   0  0  0  0  0  0  0  0  0  0  0  0
    2.5727   -5.0969    5.4906 H   0  0  0  0  0  0  0  0  0  0  0  0
   -7.6424   -8.1359    0.4980 H   0  0  0  0  0  0  0  0  0  0  0  0
   -6.7209   -4.4358   -1.3155 H   0  0  0  0  0  0  0  0  0  0  0  0
    0.7573    0.4878   -2.3915 H   0  0  0  0  0  0  0  0  0  0  0  0
    1.6147    1.5306    1.5671 H   0  0  0  0  0  0  0  0  0  0  0  0
    2.1689   -0.1295    1.5362 H   0  0  0  0  0  0  0  0  0  0  0  0
   -0.9152  -10.6089    4.1561 H   0  0  0  0  0  0  0  0  0  0  0  0
   -9.9627   -7.8265   -0.0522 H   0  0  0  0  0  0  0  0  0  0  0  0
   -9.0530   -4.1436   -1.8687 H   0  0  0  0  0  0  0  0  0  0  0  0
    3.2113   -0.0220   -2.7737 H   0  0  0  0  0  0  0  0  0  0  0  0
    2.4745   -1.2635   -1.7682 H   0  0  0  0  0  0  0  0  0  0  0  0
    1.1220    2.8600   -1.5761 H   0  0  0  0  0  0  0  0  0  0  0  0
    2.4306    2.3765   -2.6511 H   0  0  0  0  0  0  0  0  0  0  0  0
   -7.3653  -12.4108    5.0639 H   0  0  0  0  0  0  0  0  0  0  0  0
   -6.3968  -11.3901    6.1250 H   0  0  0  0  0  0  0  0  0  0  0  0
   -5.5892  -12.4874    4.9954 H   0  0  0  0  0  0  0  0  0  0  0  0
   -5.9736  -12.0927    2.5377 H   0  0  0  0  0  0  0  0  0  0  0  0
   -7.6721  -11.5858    2.6325 H   0  0  0  0  0  0  0  0  0  0  0  0
   -6.4418  -10.5063    1.9705 H   0  0  0  0  0  0  0  0  0  0  0  0
   -2.2318   -8.7905    6.1779 H   0  0  0  0  0  0  0  0  0  0  0  0
   -2.5233  -10.4809    5.8254 H   0  0  0  0  0  0  0  0  0  0  0  0
   -2.8761   -8.6506    3.8637 H   0  0  0  0  0  0  0  0  0  0  0  0
   -2.1249  -10.2543   -0.8333 H   0  0  0  0  0  0  0  0  0  0  0  0
   -2.9045  -11.1617    0.4786 H   0  0  0  0  0  0  0  0  0  0  0  0
   -3.7518  -10.9140   -1.0506 H   0  0  0  0  0  0  0  0  0  0  0  0
   -3.5791   -7.8874    1.9390 H   0  0  0  0  0  0  0  0  0  0  0  0
  -10.6803   -5.8296   -1.2327 H   0  0  0  0  0  0  0  0  0  0  0  0
    4.7383    0.4062   -1.0790 H   0  0  0  0  0  0  0  0  0  0  0  0
    3.9774   -0.8068   -0.0672 H   0  0  0  0  0  0  0  0  0  0  0  0
    2.6580    3.2295    0.1220 H   0  0  0  0  0  0  0  0  0  0  0  0
    3.9562    2.7809   -0.9697 H   0  0  0  0  0  0  0  0  0  0  0  0
   -1.2953  -10.3021    7.9220 H   0  0  0  0  0  0  0  0  0  0  0  0
   -0.0011   -9.3743    7.1523 H   0  0  0  0  0  0  0  0  0  0  0  0
   -0.2576  -11.0790    6.7157 H   0  0  0  0  0  0  0  0  0  0  0  0
   -2.2638   -6.3782    1.3218 H   0  0  0  0  0  0  0  0  0  0  0  0
    0.3554   -5.1170   -3.1442 H   0  0  0  0  0  0  0  0  0  0  0  0
    1.4831   -3.7213   -1.9085 H   0  0  0  0  0  0  0  0  0  0  0  0
    1.0948   -4.1125    2.2523 H   0  0  0  0  0  0  0  0  0  0  0  0
    2.0514   -2.9549    0.3295 H   0  0  0  0  0  0  0  0  0  0  0  0
  1  2  2  0  0  0  0 
  2  3  1  0  0  0  0 
  4  2  1  0  0  0  0 
  5  3  1  0  0  0  0 
  3  6  1  0  0  0  0 
  4  7  1  0  0  0  0 
  4  8  1  0  0  0  0 
  4 76  1  0  0  0  0 
  5  9  1  0  0  0  0 
  5 10  1  0  0  0  0 
  5 75  1  0  0  0  0 
 11  6  1  0  0  0  0 
  7 12  1  0  0  0  0 
  8 13  1  0  0  0  0 
  8 14  1  0  0  0  0 
  9 15  2  0  0  0  0 
  9 16  1  0  0  0  0 
 10 17  1  0  0  0  0 
 11 17  1  0  0  0  0 
 11 18  1  0  0  0  0 
 12 19  2  0  0  0  0 
 12 20  1  0  0  0  0 
 14 21  2  0  0  0  0 
 22 14  1  0  0  0  0 
 23 16  1  0  0  0  0 
 17 24  2  0  0  0  0 
 18 25  1  0  0  0  0 
 19 26  1  0  0  0  0 
 20 27  2  0  0  0  0 
 22 28  1  0  0  0  0 
 22 29  1  0  0  0  0 
 22 74  1  0  0  0  0 
 23 30  1  0  0  0  0 
 23 31  1  0  0  0  0 
 26 33  2  0  0  0  0 
 27 33  1  0  0  0  0 
 28 34  1  0  0  0  0 
 28 35  1  0  0  0  0 
 29 36  1  0  0  0  0 
 30 37  2  0  0  0  0 
 30 38  1  0  0  0  0 
 31 39  2  0  0  0  0 
 31 40  1  0  0  0  0 
 32 25  1  0  0  0  0 
 32 41  1  0  0  0  0 
 32 42  1  0  0  0  0 
 33 43  1  0  0  0  0 
 34 44  2  0  0  0  0 
 45 34  1  0  0  0  0 
 35 36  1  0  0  0  0 
 46 38  1  0  0  0  0 
 39 47  1  0  0  0  0 
 40 48  2  0  0  0  0 
 41 49  1  0  0  0  0 
 41 50  1  0  0  0  0 
 42 51  1  0  0  0  0 
 43 52  1  0  0  0  0 
 43 53  1  0  0  0  0 
 45 54  1  0  0  0  0 
 45 55  1  0  0  0  0 
 46 56  1  0  0  0  0 
 46 57  1  0  0  0  0 
 46 77  1  0  0  0  0 
 47 58  2  0  0  0  0 
 48 58  1  0  0  0  0 
 49 59  1  0  0  0  0 
 50 60  1  0  0  0  0 
 51 59  1  0  0  0  0 
 51 60  1  0  0  0  0 
 54 61  1  0  0  0  0 
 55 62  1  0  0  0  0 
 57 62  1  0  0  0  0 
 57 63  1  0  0  0  0 
 62 64  2  0  0  0  0 
 63 65  1  0  0  0  0 
 65 66  2  0  0  0  0 
 65 67  1  0  0  0  0 
 67 68  2  0  0  0  0 
 67 69  1  0  0  0  0 
 68 70  1  0  0  0  0 
 68 71  1  0  0  0  0 
 69 72  2  0  0  0  0 
 71 73  2  0  0  0  0 
 72 73  1  0  0  0  0 
  6 78  1  0  0  0  0 
  6 79  1  0  0  0  0 
  7 80  1  0  0  0  0 
  7 81  1  0  0  0  0 
 10 82  1  0  0  0  0 
 10 83  1  0  0  0  0 
 11 84  1  0  0  0  0 
 13 85  1  0  0  0  0 
 13 86  1  0  0  0  0 
 13 87  1  0  0  0  0 
 16 88  1  0  0  0  0 
 18 89  1  0  0  0  0 
 18 90  1  0  0  0  0 
 19 91  1  0  0  0  0 
 20 92  1  0  0  0  0 
 23 93  1  0  0  0  0 
 26 94  1  0  0  0  0 
 27 95  1  0  0  0  0 
 29 96  1  0  0  0  0 
 29 97  1  0  0  0  0 
 32 98  1  0  0  0  0 
 35 99  1  0  0  0  0 
 35100  1  0  0  0  0 
 36101  1  0  0  0  0 
 36102  1  0  0  0  0 
 39103  1  0  0  0  0 
 40104  1  0  0  0  0 
 41105  1  0  0  0  0 
 42106  1  0  0  0  0 
 42107  1  0  0  0  0 
 45108  1  0  0  0  0 
 47109  1  0  0  0  0 
 48110  1  0  0  0  0 
 49111  1  0  0  0  0 
 49112  1  0  0  0  0 
 50113  1  0  0  0  0 
 50114  1  0  0  0  0 
 52115  1  0  0  0  0 
 52116  1  0  0  0  0 
 52117  1  0  0  0  0 
 53118  1  0  0  0  0 
 53119  1  0  0  0  0 
 53120  1  0  0  0  0 
 54121  1  0  0  0  0 
 54122  1  0  0  0  0 
 55123  1  0  0  0  0 
 56124  1  0  0  0  0 
 56125  1  0  0  0  0 
 56126  1  0  0  0  0 
 57127  1  0  0  0  0 
 58128  1  0  0  0  0 
 59129  1  0  0  0  0 
 59130  1  0  0  0  0 
 60131  1  0  0  0  0 
 60132  1  0  0  0  0 
 61133  1  0  0  0  0 
 61134  1  0  0  0  0 
 61135  1  0  0  0  0 
 63136  1  0  0  0  0 
 70137  1  0  0  0  0 
 71138  1  0  0  0  0 
 72139  1  0  0  0  0 
 73140  1  0  0  0  0 
M  END
> <cdk:Title>
quinupristin

> <Conformer>
1

> <SuperDrugID>
SD002112

$$$$
