nitrazepam
  CDK     0628171801

 32 34  0  0  0  0  0  0  0  0999 V2000
    2.9982    5.1496    2.9846 N   0  0  0  0  0  0  0  0  0  0  0  0
    3.5619    6.0229    3.7184 O   0  0  0  0  0  0  0  0  0  0  0  0
    3.5377    4.1131    2.9637 O   0  0  0  0  0  0  0  0  0  0  0  0
    1.8766    5.4057    2.2836 C   0  0  0  0  0  0  0  0  0  0  0  0
    1.1222    4.3739    1.6678 C   0  0  0  0  0  0  0  0  0  0  0  0
    1.4070    6.7298    2.1281 C   0  0  0  0  0  0  0  0  0  0  0  0
   -0.0501    4.6256    0.9017 C   0  0  0  0  0  0  0  0  0  0  0  0
    0.2498    7.0108    1.3882 C   0  0  0  0  0  0  0  0  0  0  0  0
   -0.7684    3.5491    0.3400 C   0  0  0  0  0  0  0  0  0  0  0  0
   -0.4721    5.9804    0.7537 C   0  0  0  0  0  0  0  0  0  0  0  0
   -1.3910    3.5915   -0.7874 N   0  0  0  0  0  0  0  0  0  0  0  0
   -0.8778    2.3394    1.0065 C   0  0  0  0  0  0  0  0  0  0  0  0
   -1.5634    6.4011    0.0442 N   0  0  0  0  0  0  0  0  0  0  0  0
   -1.4884    4.6348   -1.6967 C   0  0  1  0  0  0  0  0  0  0  0  0
   -0.1459    1.2089    0.5734 C   0  0  0  0  0  0  0  0  0  0  0  0
   -1.6984    2.2339    2.1536 C   0  0  0  0  0  0  0  0  0  0  0  0
   -2.0935    5.8215   -1.0619 C   0  0  0  0  0  0  0  0  0  0  0  0
   -0.2010    0.0058    1.3005 C   0  0  0  0  0  0  0  0  0  0  0  0
   -1.7654    1.0240    2.8688 C   0  0  0  0  0  0  0  0  0  0  0  0
   -3.1180    6.3455   -1.5556 O   0  0  0  0  0  0  0  0  0  0  0  0
   -1.0056   -0.0840    2.4507 C   0  0  0  0  0  0  0  0  0  0  0  0
    1.4430    3.4084    1.7841 H   0  0  0  0  0  0  0  0  0  0  0  0
    1.9110    7.5128    2.5493 H   0  0  0  0  0  0  0  0  0  0  0  0
   -0.0558    7.9849    1.3073 H   0  0  0  0  0  0  0  0  0  0  0  0
   -1.9803    7.2264    0.3381 H   0  0  0  0  0  0  0  0  0  0  0  0
   -0.4953    4.8906   -2.0735 H   0  0  0  0  0  0  0  0  0  0  0  0
   -2.0924    4.2928   -2.5394 H   0  0  0  0  0  0  0  0  0  0  0  0
    0.4418    1.2580   -0.2634 H   0  0  0  0  0  0  0  0  0  0  0  0
   -2.2498    3.0350    2.4754 H   0  0  0  0  0  0  0  0  0  0  0  0
    0.3478   -0.8014    0.9937 H   0  0  0  0  0  0  0  0  0  0  0  0
   -2.3636    0.9535    3.6955 H   0  0  0  0  0  0  0  0  0  0  0  0
   -1.0361   -0.9545    2.9825 H   0  0  0  0  0  0  0  0  0  0  0  0
  1  2  1  0  0  0  0 
  1  3  2  0  0  0  0 
  1  4  1  0  0  0  0 
  4  5  2  0  0  0  0 
  4  6  1  0  0  0  0 
  5  7  1  0  0  0  0 
  6  8  2  0  0  0  0 
  7  9  1  0  0  0  0 
  7 10  2  0  0  0  0 
  8 10  1  0  0  0  0 
  9 11  2  0  0  0  0 
  9 12  1  0  0  0  0 
 10 13  1  0  0  0  0 
 11 14  1  0  0  0  0 
 12 15  2  0  0  0  0 
 12 16  1  0  0  0  0 
 13 17  1  0  0  0  0 
 14 17  1  0  0  0  0 
 15 18  1  0  0  0  0 
 16 19  2  0  0  0  0 
 17 20  2  0  0  0  0 
 18 21  2  0  0  0  0 
 19 21  1  0  0  0  0 
  5 22  1  0  0  0  0 
  6 23  1  0  0  0  0 
  8 24  1  0  0  0  0 
 13 25  1  0  0  0  0 
 14 26  1  0  0  0  0 
 14 27  1  0  0  0  0 
 15 28  1  0  0  0  0 
 16 29  1  0  0  0  0 
 18 30  1  0  0  0  0 
 19 31  1  0  0  0  0 
 21 32  1  0  0  0  0 
M  CHG  1   1   1
M  CHG  1   2  -1
M  END
> <cdk:Title>
nitrazepam

> <Conformer>
1

> <SuperDrugID>
SD001739

$$$$
