oxametacin
  CDK     0628171801

 43 45  0  0  0  0  0  0  0  0999 V2000
    0.2518   -0.3681   -0.0508 C   0  0  0  0  0  0  0  0  0  0  0  0
    0.7360    0.7408   -0.3807 O   0  0  0  0  0  0  0  0  0  0  0  0
   -1.0156   -0.4298    0.5099 N   0  0  0  0  0  0  0  0  0  0  0  0
    1.1190   -1.4732   -0.2508 C   0  0  0  0  0  0  0  0  0  0  0  0
   -1.8947   -1.4654    0.4469 C   0  0  0  0  0  0  0  0  0  0  0  0
   -1.6152    0.5674    1.2294 C   0  0  0  0  0  0  0  0  0  0  0  0
    1.3367   -2.4171    0.7813 C   0  0  0  0  0  0  0  0  0  0  0  0
    1.8340   -1.6206   -1.4633 C   0  0  0  0  0  0  0  0  0  0  0  0
   -3.0437   -1.1466    1.1747 C   0  0  0  0  0  0  0  0  0  0  0  0
   -1.8423   -2.6914   -0.2542 C   0  0  0  0  0  0  0  0  0  0  0  0
   -1.0163    1.8935    1.5349 C   0  0  0  0  0  0  0  0  0  0  0  0
   -2.8746    0.1357    1.6835 C   0  0  0  0  0  0  0  0  0  0  0  0
    2.2461   -3.4768    0.6050 C   0  0  0  0  0  0  0  0  0  0  0  0
    2.7371   -2.6826   -1.6444 C   0  0  0  0  0  0  0  0  0  0  0  0
   -4.1353   -2.0340    1.2686 C   0  0  0  0  0  0  0  0  0  0  0  0
   -2.9224   -3.5912   -0.1688 C   0  0  0  0  0  0  0  0  0  0  0  0
   -3.8557    0.8840    2.5107 C   0  0  1  0  0  0  0  0  0  0  0  0
    2.9487   -3.6105   -0.6083 C   0  0  0  0  0  0  0  0  0  0  0  0
   -4.0627   -3.2735    0.6000 C   0  0  0  0  0  0  0  0  0  0  0  0
   -4.5344    1.9189    1.7066 C   0  0  0  0  0  0  0  0  0  0  0  0
    4.0482   -4.8784   -0.8217 Cl  0  0  0  0  0  0  0  0  0  0  0  0
   -5.1060   -4.1568    0.6528 O   0  0  0  0  0  0  0  0  0  0  0  0
   -4.3067    3.2265    1.9603 N   0  0  0  0  0  0  0  0  0  0  0  0
   -5.3254    1.5750    0.7958 O   0  0  0  0  0  0  0  0  0  0  0  0
   -5.0407   -5.0333    1.7920 C   0  0  0  0  0  0  0  0  0  0  0  0
   -4.9264    4.1831    1.3299 O   0  0  0  0  0  0  0  0  0  0  0  0
    0.8464   -2.3355    1.6760 H   0  0  0  0  0  0  0  0  0  0  0  0
    1.7035   -0.9537   -2.2269 H   0  0  0  0  0  0  0  0  0  0  0  0
   -1.0447   -2.9326   -0.8400 H   0  0  0  0  0  0  0  0  0  0  0  0
   -0.9292    2.4752    0.6161 H   0  0  0  0  0  0  0  0  0  0  0  0
   -0.0238    1.7599    1.9676 H   0  0  0  0  0  0  0  0  0  0  0  0
   -1.6052    2.4708    2.2441 H   0  0  0  0  0  0  0  0  0  0  0  0
    2.3955   -4.1432    1.3669 H   0  0  0  0  0  0  0  0  0  0  0  0
    3.2392   -2.7684   -2.5312 H   0  0  0  0  0  0  0  0  0  0  0  0
   -4.9767   -1.7941    1.7961 H   0  0  0  0  0  0  0  0  0  0  0  0
   -2.8800   -4.4788   -0.6730 H   0  0  0  0  0  0  0  0  0  0  0  0
   -4.6192    0.2225    2.9240 H   0  0  0  0  0  0  0  0  0  0  0  0
   -3.3449    1.3170    3.3748 H   0  0  0  0  0  0  0  0  0  0  0  0
   -3.6604    3.4648    2.6423 H   0  0  0  0  0  0  0  0  0  0  0  0
   -5.8445   -5.7642    1.7049 H   0  0  0  0  0  0  0  0  0  0  0  0
   -4.0933   -5.5772    1.8336 H   0  0  0  0  0  0  0  0  0  0  0  0
   -5.1834   -4.4798    2.7230 H   0  0  0  0  0  0  0  0  0  0  0  0
   -5.7000    4.3864    1.8996 H   0  0  0  0  0  0  0  0  0  0  0  0
  1  2  2  0  0  0  0 
  1  3  1  0  0  0  0 
  1  4  1  0  0  0  0 
  3  5  1  0  0  0  0 
  3  6  1  0  0  0  0 
  4  7  2  0  0  0  0 
  4  8  1  0  0  0  0 
  5  9  1  0  0  0  0 
  5 10  2  0  0  0  0 
  6 11  1  0  0  0  0 
  6 12  2  0  0  0  0 
  7 13  1  0  0  0  0 
  8 14  2  0  0  0  0 
  9 12  1  0  0  0  0 
  9 15  2  0  0  0  0 
 10 16  1  0  0  0  0 
 12 17  1  0  0  0  0 
 13 18  2  0  0  0  0 
 14 18  1  0  0  0  0 
 15 19  1  0  0  0  0 
 16 19  2  0  0  0  0 
 17 20  1  0  0  0  0 
 18 21  1  0  0  0  0 
 19 22  1  0  0  0  0 
 20 23  1  0  0  0  0 
 20 24  2  0  0  0  0 
 22 25  1  0  0  0  0 
 23 26  1  0  0  0  0 
  7 27  1  0  0  0  0 
  8 28  1  0  0  0  0 
 10 29  1  0  0  0  0 
 11 30  1  0  0  0  0 
 11 31  1  0  0  0  0 
 11 32  1  0  0  0  0 
 13 33  1  0  0  0  0 
 14 34  1  0  0  0  0 
 15 35  1  0  0  0  0 
 16 36  1  0  0  0  0 
 17 37  1  0  0  0  0 
 17 38  1  0  0  0  0 
 23 39  1  0  0  0  0 
 25 40  1  0  0  0  0 
 25 41  1  0  0  0  0 
 25 42  1  0  0  0  0 
 26 43  1  0  0  0  0 
M  END
> <cdk:Title>
oxametacin

> <Conformer>
1

> <SuperDrugID>
SD001797

$$$$
