panobinostat
  CDK     0628171802

 49 51  0  0  0  0  0  0  0  0999 V2000
   -4.6202    1.0900   -3.3048 C   0  0  2  0  0  0  0  0  0  0  0  0
   -3.5214    1.0840   -2.2142 C   0  0  2  0  0  0  0  0  0  0  0  0
   -5.5027   -0.1032   -3.2270 C   0  0  0  0  0  0  0  0  0  0  0  0
   -4.1262    1.0937   -0.8616 N   0  0  1  0  0  0  0  0  0  0  0  0
   -6.7027   -0.2180   -2.5204 C   0  0  0  0  0  0  0  0  0  0  0  0
   -5.2933   -1.3577   -3.8232 C   0  0  0  0  0  0  0  0  0  0  0  0
   -3.1778    0.8668    0.2489 C   0  0  2  0  0  0  0  0  0  0  0  0
   -7.1725   -1.5189   -2.7017 C   0  0  0  0  0  0  0  0  0  0  0  0
   -7.4206    0.7006   -1.7291 C   0  0  0  0  0  0  0  0  0  0  0  0
   -4.1729   -1.7511   -4.6956 C   0  0  0  0  0  0  0  0  0  0  0  0
   -6.3067   -2.1793   -3.4819 N   0  0  0  0  0  0  0  0  0  0  0  0
   -3.9063    0.9517    1.5392 C   0  0  0  0  0  0  0  0  0  0  0  0
   -8.3733   -1.9546   -2.1132 C   0  0  0  0  0  0  0  0  0  0  0  0
   -8.6275    0.2775   -1.1302 C   0  0  0  0  0  0  0  0  0  0  0  0
   -4.3164   -0.2145    2.2203 C   0  0  0  0  0  0  0  0  0  0  0  0
   -4.2244    2.2055    2.1063 C   0  0  0  0  0  0  0  0  0  0  0  0
   -9.1023   -1.0401   -1.3224 C   0  0  0  0  0  0  0  0  0  0  0  0
   -5.0343   -0.1279    3.4257 C   0  0  0  0  0  0  0  0  0  0  0  0
   -4.9377    2.2894    3.3174 C   0  0  0  0  0  0  0  0  0  0  0  0
   -5.3599    1.1234    4.0103 C   0  0  0  0  0  0  0  0  0  0  0  0
   -6.0642    1.1311    5.2275 C   0  0  0  0  0  0  0  0  0  0  0  0
   -6.5085    2.1996    5.9188 C   0  0  0  0  0  0  0  0  0  0  0  0
   -7.1898    2.1215    7.1280 C   0  0  0  0  0  0  0  0  0  0  0  0
   -7.6402    3.2535    7.7216 N   0  0  0  0  0  0  0  0  0  0  0  0
   -7.4018    1.0202    7.6915 O   0  0  0  0  0  0  0  0  0  0  0  0
   -8.2811    3.2392    8.8598 O   0  0  0  0  0  0  0  0  0  0  0  0
   -4.1459    1.1277   -4.2890 H   0  0  0  0  0  0  0  0  0  0  0  0
   -5.2159    1.9999   -3.2064 H   0  0  0  0  0  0  0  0  0  0  0  0
   -2.8945    1.9725   -2.3356 H   0  0  0  0  0  0  0  0  0  0  0  0
   -2.8924    0.1989   -2.3460 H   0  0  0  0  0  0  0  0  0  0  0  0
   -4.5595    2.0097   -0.7233 H   0  0  0  0  0  0  0  0  0  0  0  0
   -2.3684    1.6005    0.2249 H   0  0  0  0  0  0  0  0  0  0  0  0
   -2.7260   -0.1202    0.1284 H   0  0  0  0  0  0  0  0  0  0  0  0
   -7.0818    1.6545   -1.5870 H   0  0  0  0  0  0  0  0  0  0  0  0
   -4.2353   -1.2036   -5.6374 H   0  0  0  0  0  0  0  0  0  0  0  0
   -4.2102   -2.8207   -4.9087 H   0  0  0  0  0  0  0  0  0  0  0  0
   -3.2210   -1.5275   -4.2129 H   0  0  0  0  0  0  0  0  0  0  0  0
   -6.3976   -3.1035   -3.7630 H   0  0  0  0  0  0  0  0  0  0  0  0
   -8.7098   -2.9101   -2.2542 H   0  0  0  0  0  0  0  0  0  0  0  0
   -9.1625    0.9306   -0.5530 H   0  0  0  0  0  0  0  0  0  0  0  0
   -4.0992   -1.1375    1.8362 H   0  0  0  0  0  0  0  0  0  0  0  0
   -3.9346    3.0706    1.6420 H   0  0  0  0  0  0  0  0  0  0  0  0
   -9.9793   -1.3326   -0.8834 H   0  0  0  0  0  0  0  0  0  0  0  0
   -5.3173   -1.0047    3.8742 H   0  0  0  0  0  0  0  0  0  0  0  0
   -5.1357    3.2224    3.6784 H   0  0  0  0  0  0  0  0  0  0  0  0
   -6.2608    0.2393    5.6256 H   0  0  0  0  0  0  0  0  0  0  0  0
   -6.3518    3.1103    5.5595 H   0  0  0  0  0  0  0  0  0  0  0  0
   -7.4889    4.1066    7.2836 H   0  0  0  0  0  0  0  0  0  0  0  0
   -7.5854    3.3405    9.5433 H   0  0  0  0  0  0  0  0  0  0  0  0
  1  2  1  0  0  0  0 
  1  3  1  0  0  0  0 
  2  4  1  0  0  0  0 
  3  5  1  0  0  0  0 
  3  6  2  0  0  0  0 
  4  7  1  0  0  0  0 
  5  8  1  0  0  0  0 
  5  9  2  0  0  0  0 
  6 10  1  0  0  0  0 
  6 11  1  0  0  0  0 
  7 12  1  0  0  0  0 
  8 11  1  0  0  0  0 
  8 13  2  0  0  0  0 
  9 14  1  0  0  0  0 
 12 15  2  0  0  0  0 
 12 16  1  0  0  0  0 
 13 17  1  0  0  0  0 
 14 17  2  0  0  0  0 
 15 18  1  0  0  0  0 
 16 19  2  0  0  0  0 
 18 20  2  0  0  0  0 
 19 20  1  0  0  0  0 
 20 21  1  0  0  0  0 
 21 22  2  0  0  0  0 
 22 23  1  0  0  0  0 
 23 24  1  0  0  0  0 
 23 25  2  0  0  0  0 
 24 26  1  0  0  0  0 
  1 27  1  0  0  0  0 
  1 28  1  0  0  0  0 
  2 29  1  0  0  0  0 
  2 30  1  0  0  0  0 
  4 31  1  0  0  0  0 
  7 32  1  0  0  0  0 
  7 33  1  0  0  0  0 
  9 34  1  0  0  0  0 
 10 35  1  0  0  0  0 
 10 36  1  0  0  0  0 
 10 37  1  0  0  0  0 
 11 38  1  0  0  0  0 
 13 39  1  0  0  0  0 
 14 40  1  0  0  0  0 
 15 41  1  0  0  0  0 
 16 42  1  0  0  0  0 
 17 43  1  0  0  0  0 
 18 44  1  0  0  0  0 
 19 45  1  0  0  0  0 
 21 46  1  0  0  0  0 
 22 47  1  0  0  0  0 
 24 48  1  0  0  0  0 
 26 49  1  0  0  0  0 
M  END
> <cdk:Title>
panobinostat

> <Conformer>
1

> <SuperDrugID>
SD003712

$$$$
