rubitecan
  CDK     0628171801

 44 48  0  0  0  0  0  0  0  0999 V2000
    3.4315    8.0693   -3.6882 O   0  0  0  0  0  0  0  0  0  0  0  0
    2.7963    8.0097   -2.6076 C   0  0  0  0  0  0  0  0  0  0  0  0
    2.1435    6.8587   -2.2769 N   0  0  0  0  0  0  0  0  0  0  0  0
    2.7575    9.1231   -1.7236 C   0  0  0  0  0  0  0  0  0  0  0  0
    1.4374    6.7517   -1.1275 C   0  0  0  0  0  0  0  0  0  0  0  0
    2.1062    5.6453   -3.0447 C   0  0  1  0  0  0  0  0  0  0  0  0
    2.0205    9.0315   -0.5049 C   0  0  0  0  0  0  0  0  0  0  0  0
    3.4867   10.3681   -2.0795 C   0  0  1  0  0  0  0  0  0  0  0  0
    0.9108    5.4734   -1.0358 C   0  0  0  0  0  0  0  0  0  0  0  0
    1.3325    7.8220   -0.2260 C   0  0  0  0  0  0  0  0  0  0  0  0
    1.2932    4.7846   -2.1775 C   0  0  0  0  0  0  0  0  0  0  0  0
    1.9652   10.1658    0.4861 C   0  0  2  0  0  0  0  0  0  0  0  0
    3.3502   11.4420   -1.1472 O   0  0  0  0  0  0  0  0  0  0  0  0
    0.1751    4.8787   -0.0682 N   0  0  0  0  0  0  0  0  0  0  0  0
    0.8986    3.4463   -2.3468 C   0  0  0  0  0  0  0  0  0  0  0  0
    2.5326    9.7587    1.8910 C   0  0  1  0  0  0  0  0  0  0  0  0
    0.5862   10.5123    0.6543 O   0  0  0  0  0  0  0  0  0  0  0  0
    2.6289   11.4072    0.0002 C   0  0  0  0  0  0  0  0  0  0  0  0
   -0.2136    3.5782   -0.1852 C   0  0  0  0  0  0  0  0  0  0  0  0
    0.1362    2.8004   -1.3356 C   0  0  0  0  0  0  0  0  0  0  0  0
    3.9969    9.2558    1.8972 C   0  0  0  0  0  0  0  0  0  0  0  0
    2.5472   12.4773    0.6465 O   0  0  0  0  0  0  0  0  0  0  0  0
   -0.9684    3.0119    0.8578 C   0  0  0  0  0  0  0  0  0  0  0  0
   -0.2974    1.4413   -1.4180 C   0  0  0  0  0  0  0  0  0  0  0  0
   -1.4048    1.6824    0.7666 C   0  0  0  0  0  0  0  0  0  0  0  0
    0.0035    0.6226   -2.4314 N   0  0  0  0  0  0  0  0  0  0  0  0
   -1.0786    0.9118   -0.3611 C   0  0  0  0  0  0  0  0  0  0  0  0
   -0.8747   -0.1245   -2.9678 O   0  0  0  0  0  0  0  0  0  0  0  0
    1.0917    0.5152   -2.8401 O   0  0  0  0  0  0  0  0  0  0  0  0
    1.6249    5.7963   -4.0127 H   0  0  0  0  0  0  0  0  0  0  0  0
    3.1063    5.2264   -3.1770 H   0  0  0  0  0  0  0  0  0  0  0  0
    4.5515   10.1439   -2.1765 H   0  0  0  0  0  0  0  0  0  0  0  0
    3.1234   10.7289   -3.0434 H   0  0  0  0  0  0  0  0  0  0  0  0
    0.7714    7.7117    0.6211 H   0  0  0  0  0  0  0  0  0  0  0  0
    1.1739    2.9624   -3.2017 H   0  0  0  0  0  0  0  0  0  0  0  0
    2.4648   10.6119    2.5727 H   0  0  0  0  0  0  0  0  0  0  0  0
    1.9080    8.9725    2.3239 H   0  0  0  0  0  0  0  0  0  0  0  0
    0.5791   11.2572    1.2937 H   0  0  0  0  0  0  0  0  0  0  0  0
    4.2730    8.9507    2.9085 H   0  0  0  0  0  0  0  0  0  0  0  0
    4.6750   10.0473    1.5747 H   0  0  0  0  0  0  0  0  0  0  0  0
    4.1144    8.3947    1.2361 H   0  0  0  0  0  0  0  0  0  0  0  0
   -1.2026    3.5621    1.6885 H   0  0  0  0  0  0  0  0  0  0  0  0
   -1.9562    1.2709    1.5225 H   0  0  0  0  0  0  0  0  0  0  0  0
   -1.4075   -0.0584   -0.3974 H   0  0  0  0  0  0  0  0  0  0  0  0
  1  2  2  0  0  0  0 
  2  3  1  0  0  0  0 
  2  4  1  0  0  0  0 
  3  5  1  0  0  0  0 
  3  6  1  0  0  0  0 
  4  7  2  0  0  0  0 
  4  8  1  0  0  0  0 
  5  9  1  0  0  0  0 
  5 10  2  0  0  0  0 
  6 11  1  0  0  0  0 
  7 10  1  0  0  0  0 
 12  7  1  0  0  0  0 
  8 13  1  0  0  0  0 
  9 11  2  0  0  0  0 
  9 14  1  0  0  0  0 
 11 15  1  0  0  0  0 
 12 16  1  0  0  0  0 
 12 17  1  0  0  0  0 
 12 18  1  0  0  0  0 
 13 18  1  0  0  0  0 
 14 19  2  0  0  0  0 
 15 20  2  0  0  0  0 
 16 21  1  0  0  0  0 
 18 22  2  0  0  0  0 
 19 20  1  0  0  0  0 
 19 23  1  0  0  0  0 
 20 24  1  0  0  0  0 
 23 25  2  0  0  0  0 
 24 26  1  0  0  0  0 
 24 27  2  0  0  0  0 
 25 27  1  0  0  0  0 
 26 28  1  0  0  0  0 
 26 29  2  0  0  0  0 
  6 30  1  0  0  0  0 
  6 31  1  0  0  0  0 
  8 32  1  0  0  0  0 
  8 33  1  0  0  0  0 
 10 34  1  0  0  0  0 
 15 35  1  0  0  0  0 
 16 36  1  0  0  0  0 
 16 37  1  0  0  0  0 
 17 38  1  0  0  0  0 
 21 39  1  0  0  0  0 
 21 40  1  0  0  0  0 
 21 41  1  0  0  0  0 
 23 42  1  0  0  0  0 
 25 43  1  0  0  0  0 
 27 44  1  0  0  0  0 
M  CHG  1  26   1
M  CHG  1  28  -1
M  END
> <cdk:Title>
rubitecan

> <Conformer>
1

> <SuperDrugID>
SD002170

$$$$
