lorajmine
  CDK     0628171801

 55 60  0  0  0  0  0  0  0  0999 V2000
   -0.3721   -1.5772    4.9185 O   0  0  0  0  0  0  0  0  0  0  0  0
   -0.0533   -1.3143    6.2214 C   0  0  0  0  0  0  0  0  0  0  0  0
   -1.6052   -2.0951    4.3787 C   0  0  1  0  0  0  0  0  0  0  0  0
    1.3182   -0.8914    6.5470 C   0  0  1  0  0  0  0  0  0  0  0  0
   -0.9079   -1.4065    7.1343 O   0  0  0  0  0  0  0  0  0  0  0  0
   -2.2232   -1.1710    3.2756 C   0  0  1  0  0  0  0  0  0  0  0  0
   -1.2675   -3.4104    3.5853 C   0  0  2  0  0  0  0  0  0  0  0  0
    2.0590   -2.0112    7.6834 Cl  0  0  0  0  0  0  0  0  0  0  0  0
   -3.6847   -1.5966    2.8831 C   0  0  2  0  0  0  0  0  0  0  0  0
   -2.4506    0.2795    3.4436 C   0  0  0  0  0  0  0  0  0  0  0  0
   -1.2659   -1.4245    2.0879 C   0  0  2  0  0  0  0  0  0  0  0  0
   -1.2801   -2.9534    2.0796 C   0  0  2  0  0  0  0  0  0  0  0  0
   -2.2943   -4.6121    3.7257 C   0  0  1  0  0  0  0  0  0  0  0  0
   -3.7491   -3.0749    2.3247 C   0  0  1  0  0  0  0  0  0  0  0  0
   -4.1206   -0.4618    2.1165 N   0  0  0  0  0  0  0  0  0  0  0  0
   -3.5662    0.6501    2.6764 C   0  0  0  0  0  0  0  0  0  0  0  0
   -1.7244    1.2437    4.1671 C   0  0  0  0  0  0  0  0  0  0  0  0
   -2.5610   -3.4192    1.4232 N   0  0  2  0  0  0  0  0  0  0  0  0
   -3.7536   -4.0759    3.5481 C   0  0  2  0  0  0  0  0  0  0  0  0
   -2.0802   -5.6542    2.5563 C   0  0  1  0  0  0  0  0  0  0  0  0
   -5.0111   -0.5155    0.9968 C   0  0  0  0  0  0  0  0  0  0  0  0
   -3.9821    1.9962    2.6192 C   0  0  0  0  0  0  0  0  0  0  0  0
   -2.1499    2.5880    4.1300 C   0  0  0  0  0  0  0  0  0  0  0  0
   -2.4151   -4.9085    1.1983 C   0  0  1  0  0  0  0  0  0  0  0  0
   -0.6629   -6.3175    2.6014 C   0  0  2  0  0  0  0  0  0  0  0  0
   -3.2726    2.9604    3.3613 C   0  0  0  0  0  0  0  0  0  0  0  0
   -3.6004   -5.4310    0.5989 O   0  0  0  0  0  0  0  0  0  0  0  0
   -0.5131   -7.5928    1.7434 C   0  0  0  0  0  0  0  0  0  0  0  0
   -4.3325   -1.5603    3.7730 H   0  0  0  0  0  0  0  0  0  0  0  0
   -4.6833   -3.2078    1.7707 H   0  0  0  0  0  0  0  0  0  0  0  0
   -0.3950   -3.2981    1.5316 H   0  0  0  0  0  0  0  0  0  0  0  0
   -2.3164   -2.2804    5.1863 H   0  0  0  0  0  0  0  0  0  0  0  0
    1.9351   -0.8681    5.6459 H   0  0  0  0  0  0  0  0  0  0  0  0
    1.3083    0.1069    6.9870 H   0  0  0  0  0  0  0  0  0  0  0  0
   -0.2691   -3.7625    3.8621 H   0  0  0  0  0  0  0  0  0  0  0  0
   -0.2611   -1.0362    2.2838 H   0  0  0  0  0  0  0  0  0  0  0  0
   -1.6191   -1.0137    1.1354 H   0  0  0  0  0  0  0  0  0  0  0  0
   -2.1952   -5.0996    4.6992 H   0  0  0  0  0  0  0  0  0  0  0  0
   -0.8999    0.9876    4.7092 H   0  0  0  0  0  0  0  0  0  0  0  0
   -4.0980   -3.6293    4.4836 H   0  0  0  0  0  0  0  0  0  0  0  0
   -4.4528   -4.8953    3.3569 H   0  0  0  0  0  0  0  0  0  0  0  0
   -2.7997   -6.4670    2.7032 H   0  0  0  0  0  0  0  0  0  0  0  0
   -4.5732   -1.1377    0.2149 H   0  0  0  0  0  0  0  0  0  0  0  0
   -5.2029    0.4677    0.5671 H   0  0  0  0  0  0  0  0  0  0  0  0
   -5.9605   -0.9516    1.3090 H   0  0  0  0  0  0  0  0  0  0  0  0
   -4.7965    2.2706    2.0686 H   0  0  0  0  0  0  0  0  0  0  0  0
   -1.6411    3.2964    4.6637 H   0  0  0  0  0  0  0  0  0  0  0  0
   -1.6253   -5.0754    0.4609 H   0  0  0  0  0  0  0  0  0  0  0  0
   -0.4323   -6.5935    3.6340 H   0  0  0  0  0  0  0  0  0  0  0  0
    0.0981   -5.6069    2.2769 H   0  0  0  0  0  0  0  0  0  0  0  0
   -3.5763    3.9363    3.3455 H   0  0  0  0  0  0  0  0  0  0  0  0
   -3.6780   -4.9525   -0.2537 H   0  0  0  0  0  0  0  0  0  0  0  0
    0.5101   -7.9632    1.8281 H   0  0  0  0  0  0  0  0  0  0  0  0
   -0.7180   -7.3867    0.6921 H   0  0  0  0  0  0  0  0  0  0  0  0
   -1.1939   -8.3687    2.0953 H   0  0  0  0  0  0  0  0  0  0  0  0
  1  2  1  0  0  0  0 
  2  4  1  0  0  0  0 
  2  5  2  0  0  0  0 
  3  1  1  0  0  0  0 
  3  6  1  0  0  0  0 
  7  3  1  0  0  0  0 
  4  8  1  0  0  0  0 
  9  6  1  0  0  0  0 
  6 10  1  0  0  0  0 
  6 11  1  0  0  0  0 
 12  7  1  0  0  0  0 
  7 13  1  0  0  0  0 
 14  9  1  0  0  0  0 
  9 15  1  0  0  0  0 
  9 29  1  0  0  0  0 
 10 16  2  0  0  0  0 
 10 17  1  0  0  0  0 
 12 11  1  0  0  0  0 
 12 18  1  0  0  0  0 
 12 31  1  0  0  0  0 
 13 19  1  0  0  0  0 
 20 13  1  0  0  0  0 
 14 18  1  0  0  0  0 
 14 19  1  0  0  0  0 
 14 30  1  0  0  0  0 
 15 16  1  0  0  0  0 
 15 21  1  0  0  0  0 
 16 22  1  0  0  0  0 
 17 23  2  0  0  0  0 
 24 18  1  0  0  0  0 
 24 20  1  0  0  0  0 
 20 25  1  0  0  0  0 
 22 26  2  0  0  0  0 
 23 26  1  0  0  0  0 
 24 27  1  0  0  0  0 
 25 28  1  0  0  0  0 
  3 32  1  0  0  0  0 
  4 33  1  0  0  0  0 
  4 34  1  0  0  0  0 
  7 35  1  0  0  0  0 
 11 36  1  0  0  0  0 
 11 37  1  0  0  0  0 
 13 38  1  0  0  0  0 
 17 39  1  0  0  0  0 
 19 40  1  0  0  0  0 
 19 41  1  0  0  0  0 
 20 42  1  0  0  0  0 
 21 43  1  0  0  0  0 
 21 44  1  0  0  0  0 
 21 45  1  0  0  0  0 
 22 46  1  0  0  0  0 
 23 47  1  0  0  0  0 
 24 48  1  0  0  0  0 
 25 49  1  0  0  0  0 
 25 50  1  0  0  0  0 
 26 51  1  0  0  0  0 
 27 52  1  0  0  0  0 
 28 53  1  0  0  0  0 
 28 54  1  0  0  0  0 
 28 55  1  0  0  0  0 
M  END
> <cdk:Title>
lorajmine

> <Conformer>
1

> <SuperDrugID>
SD001418

$$$$
