secbutabarbital
  CDK     0628171801

 31 31  0  0  0  0  0  0  0  0999 V2000
    0.5085    1.8851    0.6457 C   0  0  1  0  0  0  0  0  0  0  0  0
   -0.5533    2.6094    1.5552 C   0  0  1  0  0  0  0  0  0  0  0  0
    0.2695    2.2547   -0.8537 C   0  0  0  0  0  0  0  0  0  0  0  0
    2.0086    2.0637    1.1683 C   0  0  2  0  0  0  0  0  0  0  0  0
   -2.0383    2.2840    1.2581 C   0  0  0  0  0  0  0  0  0  0  0  0
    3.0675    1.3064    0.2737 C   0  0  1  0  0  0  0  0  0  0  0  0
    2.0939    1.4686    2.5534 C   0  0  0  0  0  0  0  0  0  0  0  0
    2.3856    3.5237    1.2200 C   0  0  0  0  0  0  0  0  0  0  0  0
    4.5328    1.2907    0.7910 C   0  0  0  0  0  0  0  0  0  0  0  0
    1.8474    0.2552    2.7480 O   0  0  0  0  0  0  0  0  0  0  0  0
    2.4303    2.1950    3.6493 N   0  0  0  0  0  0  0  0  0  0  0  0
    2.4355    4.2199    0.1806 O   0  0  0  0  0  0  0  0  0  0  0  0
    2.7064    4.1586    2.3778 N   0  0  0  0  0  0  0  0  0  0  0  0
    2.7263    3.5126    3.5671 C   0  0  0  0  0  0  0  0  0  0  0  0
    3.0276    4.1391    4.6060 O   0  0  0  0  0  0  0  0  0  0  0  0
    0.2831    0.8158    0.6998 H   0  0  0  0  0  0  0  0  0  0  0  0
   -0.3907    2.3346    2.6001 H   0  0  0  0  0  0  0  0  0  0  0  0
   -0.4233    3.6931    1.4829 H   0  0  0  0  0  0  0  0  0  0  0  0
    0.9840    1.7609   -1.5092 H   0  0  0  0  0  0  0  0  0  0  0  0
   -0.7193    1.9224   -1.1754 H   0  0  0  0  0  0  0  0  0  0  0  0
    0.3300    3.3313   -1.0133 H   0  0  0  0  0  0  0  0  0  0  0  0
   -2.3729    2.7927    0.3527 H   0  0  0  0  0  0  0  0  0  0  0  0
   -2.6629    2.6254    2.0866 H   0  0  0  0  0  0  0  0  0  0  0  0
   -2.1824    1.2085    1.1378 H   0  0  0  0  0  0  0  0  0  0  0  0
    2.7510    0.2677    0.1437 H   0  0  0  0  0  0  0  0  0  0  0  0
    3.1062    1.7542   -0.7223 H   0  0  0  0  0  0  0  0  0  0  0  0
    5.1638    0.7514    0.0821 H   0  0  0  0  0  0  0  0  0  0  0  0
    4.6053    0.7890    1.7571 H   0  0  0  0  0  0  0  0  0  0  0  0
    4.9180    2.3064    0.8894 H   0  0  0  0  0  0  0  0  0  0  0  0
    2.4566    1.7586    4.5159 H   0  0  0  0  0  0  0  0  0  0  0  0
    2.9345    5.1022    2.3530 H   0  0  0  0  0  0  0  0  0  0  0  0
  1  2  1  0  0  0  0 
  1  3  1  0  0  0  0 
  1  4  1  0  0  0  0 
  2  5  1  0  0  0  0 
  4  6  1  0  0  0  0 
  4  7  1  0  0  0  0 
  4  8  1  0  0  0  0 
  6  9  1  0  0  0  0 
  7 10  2  0  0  0  0 
  7 11  1  0  0  0  0 
  8 12  2  0  0  0  0 
  8 13  1  0  0  0  0 
 11 14  1  0  0  0  0 
 13 14  1  0  0  0  0 
 14 15  2  0  0  0  0 
 16  1  1  0  0  0  0 
 17  2  1  0  0  0  0 
 18  2  1  0  0  0  0 
 19  3  1  0  0  0  0 
 20  3  1  0  0  0  0 
 21  3  1  0  0  0  0 
 22  5  1  0  0  0  0 
 23  5  1  0  0  0  0 
 24  5  1  0  0  0  0 
 25  6  1  0  0  0  0 
 26  6  1  0  0  0  0 
 27  9  1  0  0  0  0 
 28  9  1  0  0  0  0 
 29  9  1  0  0  0  0 
 30 11  1  0  0  0  0 
 31 13  1  0  0  0  0 
M  END
> <cdk:Title>
secbutabarbital

> <Conformer>
1

> <SuperDrugID>
SD000381

$$$$
