pipenzolate
  CDK     0628171801

 54 56  0  0  0  0  0  0  0  0999 V2000
   -1.9620   -3.7881   -2.6249 C   0  0  1  0  0  0  0  0  0  0  0  0
   -0.8673   -2.9209   -2.0808 C   0  0  0  0  0  0  0  0  0  0  0  0
   -2.1203   -4.8917   -1.7164 O   0  0  0  0  0  0  0  0  0  0  0  0
   -3.2011   -2.9193   -2.6158 C   0  0  0  0  0  0  0  0  0  0  0  0
   -1.6708   -4.4409   -3.9557 C   0  0  0  0  0  0  0  0  0  0  0  0
   -0.8170   -1.6028   -2.4567 O   0  0  0  0  0  0  0  0  0  0  0  0
   -0.0095   -3.3880   -1.2945 O   0  0  0  0  0  0  0  0  0  0  0  0
   -3.5361   -2.1139   -3.7380 C   0  0  0  0  0  0  0  0  0  0  0  0
   -3.9976   -2.7805   -1.4481 C   0  0  0  0  0  0  0  0  0  0  0  0
   -2.6943   -5.1795   -4.6085 C   0  0  0  0  0  0  0  0  0  0  0  0
   -0.4079   -4.3694   -4.6040 C   0  0  0  0  0  0  0  0  0  0  0  0
   -0.4254   -0.4177   -1.7403 C   0  0  1  0  0  0  0  0  0  0  0  0
   -4.6061   -1.2035   -3.6935 C   0  0  0  0  0  0  0  0  0  0  0  0
   -5.0673   -1.8655   -1.4008 C   0  0  0  0  0  0  0  0  0  0  0  0
   -2.4823   -5.7832   -5.8619 C   0  0  0  0  0  0  0  0  0  0  0  0
   -0.1899   -4.9845   -5.8510 C   0  0  0  0  0  0  0  0  0  0  0  0
    0.0986   -0.6066   -0.2832 C   0  0  1  0  0  0  0  0  0  0  0  0
    0.5882    0.4261   -2.5511 C   0  0  1  0  0  0  0  0  0  0  0  0
   -5.3673   -1.0716   -2.5214 C   0  0  0  0  0  0  0  0  0  0  0  0
   -1.2283   -5.6844   -6.4861 C   0  0  0  0  0  0  0  0  0  0  0  0
    0.3170    0.6957    0.4720 N   0  0  1  0  0  0  0  0  0  0  0  0
    0.8847    1.7732   -1.8421 C   0  0  1  0  0  0  0  0  0  0  0  0
   -0.9812    1.4507    0.7656 C   0  0  2  0  0  0  0  0  0  0  0  0
    1.0102    0.3717    1.7838 C   0  0  0  0  0  0  0  0  0  0  0  0
    1.2592    1.5800   -0.3416 C   0  0  2  0  0  0  0  0  0  0  0  0
   -2.1525    0.6974    1.4528 C   0  0  0  0  0  0  0  0  0  0  0  0
   -2.9065   -5.3895   -2.0271 H   0  0  0  0  0  0  0  0  0  0  0  0
   -2.9869   -2.1626   -4.5983 H   0  0  0  0  0  0  0  0  0  0  0  0
   -3.7937   -3.3291   -0.6089 H   0  0  0  0  0  0  0  0  0  0  0  0
   -3.6167   -5.2757   -4.1751 H   0  0  0  0  0  0  0  0  0  0  0  0
    0.3766   -3.8719   -4.1778 H   0  0  0  0  0  0  0  0  0  0  0  0
   -1.3584    0.1475   -1.6915 H   0  0  0  0  0  0  0  0  0  0  0  0
   -4.8200   -0.6272   -4.5098 H   0  0  0  0  0  0  0  0  0  0  0  0
   -5.6217   -1.7684   -0.5466 H   0  0  0  0  0  0  0  0  0  0  0  0
   -3.2417   -6.2932   -6.3190 H   0  0  0  0  0  0  0  0  0  0  0  0
    0.7269   -4.9220   -6.2999 H   0  0  0  0  0  0  0  0  0  0  0  0
   -0.5905   -1.2629    0.2572 H   0  0  0  0  0  0  0  0  0  0  0  0
    1.0441   -1.1561   -0.3535 H   0  0  0  0  0  0  0  0  0  0  0  0
    1.5207   -0.1322   -2.6727 H   0  0  0  0  0  0  0  0  0  0  0  0
    0.1871    0.6257   -3.5482 H   0  0  0  0  0  0  0  0  0  0  0  0
   -6.1334   -0.3949   -2.4839 H   0  0  0  0  0  0  0  0  0  0  0  0
   -1.0703   -6.1163   -7.3989 H   0  0  0  0  0  0  0  0  0  0  0  0
    1.7152    2.2696   -2.3541 H   0  0  0  0  0  0  0  0  0  0  0  0
    0.0172    2.4312   -1.9275 H   0  0  0  0  0  0  0  0  0  0  0  0
   -1.3994    1.8672   -0.1524 H   0  0  0  0  0  0  0  0  0  0  0  0
   -0.7580    2.3162    1.3988 H   0  0  0  0  0  0  0  0  0  0  0  0
    0.4227   -0.3101    2.4018 H   0  0  0  0  0  0  0  0  0  0  0  0
    1.9784   -0.1124    1.6239 H   0  0  0  0  0  0  0  0  0  0  0  0
    1.1994    1.2736    2.3716 H   0  0  0  0  0  0  0  0  0  0  0  0
    2.2715    1.1611   -0.3388 H   0  0  0  0  0  0  0  0  0  0  0  0
    1.3369    2.5707    0.1192 H   0  0  0  0  0  0  0  0  0  0  0  0
   -2.9766    1.3927    1.6357 H   0  0  0  0  0  0  0  0  0  0  0  0
   -2.5303   -0.1050    0.8160 H   0  0  0  0  0  0  0  0  0  0  0  0
   -1.8385    0.2837    2.4114 H   0  0  0  0  0  0  0  0  0  0  0  0
  1  2  1  0  0  0  0 
  1  3  1  0  0  0  0 
  1  4  1  0  0  0  0 
  1  5  1  0  0  0  0 
  2  6  1  0  0  0  0 
  2  7  2  0  0  0  0 
  4  8  2  0  0  0  0 
  4  9  1  0  0  0  0 
  5 10  2  0  0  0  0 
  5 11  1  0  0  0  0 
  6 12  1  0  0  0  0 
  8 13  1  0  0  0  0 
  9 14  2  0  0  0  0 
 10 15  1  0  0  0  0 
 11 16  2  0  0  0  0 
 12 17  1  0  0  0  0 
 12 18  1  0  0  0  0 
 13 19  2  0  0  0  0 
 14 19  1  0  0  0  0 
 15 20  2  0  0  0  0 
 16 20  1  0  0  0  0 
 17 21  1  0  0  0  0 
 18 22  1  0  0  0  0 
 21 23  1  0  0  0  0 
 21 24  1  0  0  0  0 
 21 25  1  0  0  0  0 
 22 25  1  0  0  0  0 
 23 26  1  0  0  0  0 
  3 27  1  0  0  0  0 
  8 28  1  0  0  0  0 
  9 29  1  0  0  0  0 
 10 30  1  0  0  0  0 
 11 31  1  0  0  0  0 
 12 32  1  0  0  0  0 
 13 33  1  0  0  0  0 
 14 34  1  0  0  0  0 
 15 35  1  0  0  0  0 
 16 36  1  0  0  0  0 
 17 37  1  0  0  0  0 
 17 38  1  0  0  0  0 
 18 39  1  0  0  0  0 
 18 40  1  0  0  0  0 
 19 41  1  0  0  0  0 
 20 42  1  0  0  0  0 
 22 43  1  0  0  0  0 
 22 44  1  0  0  0  0 
 23 45  1  0  0  0  0 
 23 46  1  0  0  0  0 
 24 47  1  0  0  0  0 
 24 48  1  0  0  0  0 
 24 49  1  0  0  0  0 
 25 50  1  0  0  0  0 
 25 51  1  0  0  0  0 
 26 52  1  0  0  0  0 
 26 53  1  0  0  0  0 
 26 54  1  0  0  0  0 
M  CHG  1  21   1
M  END
> <cdk:Title>
pipenzolate

> <Conformer>
1

> <SuperDrugID>
SD001960

$$$$
