tosylchloramide sodium
  CDK     0628171801

 20 20  0  0  0  0  0  0  0  0999 V2000
   -0.1335    0.5327    1.6492 S   0  0  1  0  0  0  0  0  0  0  0  0
    0.2605    0.4645   -0.0649 N   0  0  1  0  0  0  0  0  0  0  0  0
   -1.6132    1.1393    1.7812 O   0  0  0  0  0  0  0  0  0  0  0  0
   -0.1325   -0.9561    2.2474 O   0  0  0  0  0  0  0  0  0  0  0  0
    1.0196    1.5798    2.4880 C   0  0  0  0  0  0  0  0  0  0  0  0
    1.7695   -0.2752   -0.2640 Cl  0  0  0  0  0  0  0  0  0  0  0  0
    0.9656    2.9759    2.3030 C   0  0  0  0  0  0  0  0  0  0  0  0
    2.0043    1.0296    3.3319 C   0  0  0  0  0  0  0  0  0  0  0  0
    1.8751    3.8157    2.9734 C   0  0  0  0  0  0  0  0  0  0  0  0
    2.9142    1.8690    3.9994 C   0  0  0  0  0  0  0  0  0  0  0  0
    2.8467    3.2721    3.8462 C   0  0  0  0  0  0  0  0  0  0  0  0
    3.7907    4.1311    4.5942 C   0  0  0  0  0  0  0  0  0  0  0  0
   -0.4273   -0.1556   -0.4956 H   0  0  0  0  0  0  0  0  0  0  0  0
    0.2668    3.3890    1.6796 H   0  0  0  0  0  0  0  0  0  0  0  0
    2.0668    0.0174    3.4663 H   0  0  0  0  0  0  0  0  0  0  0  0
    1.8226    4.8268    2.8184 H   0  0  0  0  0  0  0  0  0  0  0  0
    3.6270    1.4475    4.6005 H   0  0  0  0  0  0  0  0  0  0  0  0
    4.8111    3.9228    4.2689 H   0  0  0  0  0  0  0  0  0  0  0  0
    3.7097    3.9201    5.6620 H   0  0  0  0  0  0  0  0  0  0  0  0
    3.5889    5.1929    4.4424 H   0  0  0  0  0  0  0  0  0  0  0  0
  1  2  1  0  0  0  0 
  1  3  2  0  0  0  0 
  1  4  2  0  0  0  0 
  1  5  1  0  0  0  0 
  2  6  1  0  0  0  0 
  5  7  2  0  0  0  0 
  5  8  1  0  0  0  0 
  7  9  1  0  0  0  0 
  8 10  2  0  0  0  0 
  9 11  2  0  0  0  0 
 10 11  1  0  0  0  0 
 11 12  1  0  0  0  0 
  2 13  1  0  0  0  0 
  7 14  1  0  0  0  0 
  8 15  1  0  0  0  0 
  9 16  1  0  0  0  0 
 10 17  1  0  0  0  0 
 12 18  1  0  0  0  0 
 12 19  1  0  0  0  0 
 12 20  1  0  0  0  0 
M  END
> <cdk:Title>
tosylchloramide sodium

> <Conformer>
1

> <SuperDrugID>
SD002680

$$$$
