bemegride
  CDK     0628171801

 24 24  0  0  0  0  0  0  0  0999 V2000
    4.0693    0.5395   -2.2739 C   0  0  0  0  0  0  0  0  0  0  0  0
    2.9188   -0.4128   -2.6842 C   0  0  1  0  0  0  0  0  0  0  0  0
    2.2074   -1.2218   -1.5360 C   0  0  2  0  0  0  0  0  0  0  0  0
    1.5153   -0.2314   -0.5332 C   0  0  0  0  0  0  0  0  0  0  0  0
    3.2310   -2.1455   -0.7782 C   0  0  2  0  0  0  0  0  0  0  0  0
    2.5607   -3.1441    0.0906 C   0  0  0  0  0  0  0  0  0  0  0  0
    3.1597   -3.6113    1.0845 O   0  0  0  0  0  0  0  0  0  0  0  0
    1.3063   -3.5903   -0.1801 N   0  0  0  0  0  0  0  0  0  0  0  0
    0.5764   -3.1527   -1.2394 C   0  0  0  0  0  0  0  0  0  0  0  0
   -0.5656   -3.6366   -1.4145 O   0  0  0  0  0  0  0  0  0  0  0  0
    1.1104   -2.1450   -2.1897 C   0  0  2  0  0  0  0  0  0  0  0  0
    4.4775    1.0135   -3.1680 H   0  0  0  0  0  0  0  0  0  0  0  0
    4.8754   -0.0086   -1.7838 H   0  0  0  0  0  0  0  0  0  0  0  0
    3.7125    1.3262   -1.6078 H   0  0  0  0  0  0  0  0  0  0  0  0
    2.1690    0.1849   -3.2112 H   0  0  0  0  0  0  0  0  0  0  0  0
    3.3315   -1.1163   -3.4131 H   0  0  0  0  0  0  0  0  0  0  0  0
    2.2540    0.3655    0.0025 H   0  0  0  0  0  0  0  0  0  0  0  0
    0.9233   -0.7640    0.2141 H   0  0  0  0  0  0  0  0  0  0  0  0
    0.8475    0.4493   -1.0654 H   0  0  0  0  0  0  0  0  0  0  0  0
    3.9139   -1.5435   -0.1732 H   0  0  0  0  0  0  0  0  0  0  0  0
    3.8355   -2.7038   -1.4976 H   0  0  0  0  0  0  0  0  0  0  0  0
    0.9142   -4.2493    0.4139 H   0  0  0  0  0  0  0  0  0  0  0  0
    1.5341   -2.7033   -3.0303 H   0  0  0  0  0  0  0  0  0  0  0  0
    0.2892   -1.5354   -2.5813 H   0  0  0  0  0  0  0  0  0  0  0  0
  1  2  1  0  0  0  0 
  2  3  1  0  0  0  0 
  3  4  1  0  0  0  0 
  3  5  1  0  0  0  0 
  5  6  1  0  0  0  0 
  6  7  2  0  0  0  0 
  6  8  1  0  0  0  0 
  8  9  1  0  0  0  0 
  9 10  2  0  0  0  0 
  9 11  1  0  0  0  0 
  3 11  1  0  0  0  0 
  1 12  1  0  0  0  0 
  1 13  1  0  0  0  0 
  1 14  1  0  0  0  0 
  2 15  1  0  0  0  0 
  2 16  1  0  0  0  0 
  4 17  1  0  0  0  0 
  4 18  1  0  0  0  0 
  4 19  1  0  0  0  0 
  5 20  1  0  0  0  0 
  5 21  1  0  0  0  0 
  8 22  1  0  0  0  0 
 11 23  1  0  0  0  0 
 11 24  1  0  0  0  0 
M  END
> <cdk:Title>
bemegride

> <Conformer>
1

> <SuperDrugID>
SD002618

$$$$
