lomefloxacin
  CDK     0628171801

 44 46  0  0  0  0  0  0  0  0999 V2000
   -2.3470   -3.2452   -4.0604 C   0  0  1  0  0  0  0  0  0  0  0  0
   -3.5929   -2.3304   -4.1252 C   0  0  0  0  0  0  0  0  0  0  0  0
   -1.2511   -2.7994   -4.9199 N   0  0  0  0  0  0  0  0  0  0  0  0
   -0.1215   -2.1180   -4.4833 C   0  0  0  0  0  0  0  0  0  0  0  0
   -1.3776   -3.1452   -6.2437 C   0  0  0  0  0  0  0  0  0  0  0  0
    0.9962   -2.0061   -5.3710 C   0  0  0  0  0  0  0  0  0  0  0  0
    0.0044   -1.4932   -3.2034 C   0  0  0  0  0  0  0  0  0  0  0  0
   -0.3585   -2.9561   -7.1984 C   0  0  0  0  0  0  0  0  0  0  0  0
    0.8666   -2.4386   -6.7160 C   0  0  0  0  0  0  0  0  0  0  0  0
    2.2164   -1.4518   -4.9086 C   0  0  0  0  0  0  0  0  0  0  0  0
   -1.0136   -1.3625   -2.3967 F   0  0  0  0  0  0  0  0  0  0  0  0
    1.2174   -0.9124   -2.7597 C   0  0  0  0  0  0  0  0  0  0  0  0
   -0.5998   -3.2858   -8.5689 C   0  0  0  0  0  0  0  0  0  0  0  0
    1.8441   -2.3407   -7.4985 O   0  0  0  0  0  0  0  0  0  0  0  0
    2.3353   -0.9270   -3.6142 C   0  0  0  0  0  0  0  0  0  0  0  0
    1.2973   -0.3205   -1.5200 N   0  0  0  0  0  0  0  0  0  0  0  0
   -1.7575   -3.8677   -8.9758 O   0  0  0  0  0  0  0  0  0  0  0  0
    0.2246   -3.0367   -9.4765 O   0  0  0  0  0  0  0  0  0  0  0  0
    3.4866   -0.4372   -3.2318 F   0  0  0  0  0  0  0  0  0  0  0  0
    1.3086    1.1177   -1.3816 C   0  0  1  0  0  0  0  0  0  0  0  0
    1.3314   -1.1153   -0.3146 C   0  0  1  0  0  0  0  0  0  0  0  0
    2.4875    1.5693   -0.4701 C   0  0  1  0  0  0  0  0  0  0  0  0
    2.4877   -0.6558    0.6101 C   0  0  2  0  0  0  0  0  0  0  0  0
    2.4550    3.0832   -0.1552 C   0  0  0  0  0  0  0  0  0  0  0  0
    2.4490    0.8110    0.8064 N   0  0  1  0  0  0  0  0  0  0  0  0
   -2.0389   -3.3763   -3.0240 H   0  0  0  0  0  0  0  0  0  0  0  0
   -2.6634   -4.2549   -4.3457 H   0  0  0  0  0  0  0  0  0  0  0  0
   -4.3576   -2.7001   -3.4391 H   0  0  0  0  0  0  0  0  0  0  0  0
   -3.3334   -1.3105   -3.8391 H   0  0  0  0  0  0  0  0  0  0  0  0
   -4.0140   -2.3204   -5.1341 H   0  0  0  0  0  0  0  0  0  0  0  0
   -2.2534   -3.5752   -6.5614 H   0  0  0  0  0  0  0  0  0  0  0  0
    3.0377   -1.4130   -5.5172 H   0  0  0  0  0  0  0  0  0  0  0  0
   -1.9153   -4.0715   -9.9234 H   0  0  0  0  0  0  0  0  0  0  0  0
    1.3780    1.6226   -2.3501 H   0  0  0  0  0  0  0  0  0  0  0  0
    0.3617    1.4151   -0.9238 H   0  0  0  0  0  0  0  0  0  0  0  0
    0.3832   -0.9810    0.2132 H   0  0  0  0  0  0  0  0  0  0  0  0
    1.4467   -2.1837   -0.5206 H   0  0  0  0  0  0  0  0  0  0  0  0
    3.4321    1.3595   -0.9833 H   0  0  0  0  0  0  0  0  0  0  0  0
    3.4509   -0.9425    0.1785 H   0  0  0  0  0  0  0  0  0  0  0  0
    2.3933   -1.1371    1.5863 H   0  0  0  0  0  0  0  0  0  0  0  0
    1.5565    3.3316    0.4109 H   0  0  0  0  0  0  0  0  0  0  0  0
    3.3277    3.3619    0.4385 H   0  0  0  0  0  0  0  0  0  0  0  0
    2.4662    3.6691   -1.0758 H   0  0  0  0  0  0  0  0  0  0  0  0
    3.2748    1.0701    1.3499 H   0  0  0  0  0  0  0  0  0  0  0  0
  1  2  1  0  0  0  0 
  1  3  1  0  0  0  0 
  3  4  1  0  0  0  0 
  3  5  1  0  0  0  0 
  4  6  1  0  0  0  0 
  4  7  2  0  0  0  0 
  5  8  2  0  0  0  0 
  6  9  1  0  0  0  0 
  6 10  2  0  0  0  0 
  7 11  1  0  0  0  0 
  7 12  1  0  0  0  0 
  8  9  1  0  0  0  0 
  8 13  1  0  0  0  0 
  9 14  2  0  0  0  0 
 10 15  1  0  0  0  0 
 12 15  2  0  0  0  0 
 12 16  1  0  0  0  0 
 13 17  1  0  0  0  0 
 13 18  2  0  0  0  0 
 15 19  1  0  0  0  0 
 16 20  1  0  0  0  0 
 16 21  1  0  0  0  0 
 22 20  1  0  0  0  0 
 21 23  1  0  0  0  0 
 22 24  1  0  0  0  0 
 22 25  1  0  0  0  0 
 23 25  1  0  0  0  0 
  1 26  1  0  0  0  0 
  1 27  1  0  0  0  0 
  2 28  1  0  0  0  0 
  2 29  1  0  0  0  0 
  2 30  1  0  0  0  0 
  5 31  1  0  0  0  0 
 10 32  1  0  0  0  0 
 17 33  1  0  0  0  0 
 20 34  1  0  0  0  0 
 20 35  1  0  0  0  0 
 21 36  1  0  0  0  0 
 21 37  1  0  0  0  0 
 22 38  1  0  0  0  0 
 23 39  1  0  0  0  0 
 23 40  1  0  0  0  0 
 24 41  1  0  0  0  0 
 24 42  1  0  0  0  0 
 24 43  1  0  0  0  0 
 25 44  1  0  0  0  0 
M  END
> <cdk:Title>
lomefloxacin

> <Conformer>
1

> <SuperDrugID>
SD001408

$$$$
