triacetin
  CDK     0628171801

 29 28  0  0  0  0  0  0  0  0999 V2000
    0.0811   -2.5917   -0.8346 C   0  0  1  0  0  0  0  0  0  0  0  0
   -0.9913   -3.7114   -0.8260 C   0  0  1  0  0  0  0  0  0  0  0  0
    0.4951   -2.2065   -2.2805 C   0  0  1  0  0  0  0  0  0  0  0  0
   -0.4477   -1.4649   -0.1092 O   0  0  0  0  0  0  0  0  0  0  0  0
   -1.1701   -4.1859    0.5161 O   0  0  0  0  0  0  0  0  0  0  0  0
    1.6317   -1.3368   -2.2486 O   0  0  0  0  0  0  0  0  0  0  0  0
    0.2216   -0.3979    0.4273 C   0  0  0  0  0  0  0  0  0  0  0  0
   -1.9292   -5.2465    0.9158 C   0  0  0  0  0  0  0  0  0  0  0  0
    2.2872   -0.8046   -3.3186 C   0  0  0  0  0  0  0  0  0  0  0  0
   -0.5564    0.6540    1.1029 C   0  0  0  0  0  0  0  0  0  0  0  0
    1.4710   -0.3074    0.3700 O   0  0  0  0  0  0  0  0  0  0  0  0
   -1.9730   -5.6039    2.3412 C   0  0  0  0  0  0  0  0  0  0  0  0
   -2.5780   -5.9321    0.0908 O   0  0  0  0  0  0  0  0  0  0  0  0
    3.4742    0.0252   -3.0614 C   0  0  0  0  0  0  0  0  0  0  0  0
    1.9004   -1.0139   -4.4922 O   0  0  0  0  0  0  0  0  0  0  0  0
    0.9601   -2.9780   -0.3088 H   0  0  0  0  0  0  0  0  0  0  0  0
   -1.9394   -3.3301   -1.2148 H   0  0  0  0  0  0  0  0  0  0  0  0
   -0.6673   -4.5469   -1.4544 H   0  0  0  0  0  0  0  0  0  0  0  0
    0.7696   -3.1074   -2.8368 H   0  0  0  0  0  0  0  0  0  0  0  0
   -0.3380   -1.7175   -2.7927 H   0  0  0  0  0  0  0  0  0  0  0  0
   -1.1207    0.2239    1.9322 H   0  0  0  0  0  0  0  0  0  0  0  0
   -1.2550    1.1035    0.3957 H   0  0  0  0  0  0  0  0  0  0  0  0
    0.0947    1.4374    1.4975 H   0  0  0  0  0  0  0  0  0  0  0  0
   -1.5728   -6.6087    2.4863 H   0  0  0  0  0  0  0  0  0  0  0  0
   -1.3754   -4.9057    2.9298 H   0  0  0  0  0  0  0  0  0  0  0  0
   -3.0030   -5.5742    2.7006 H   0  0  0  0  0  0  0  0  0  0  0  0
    4.2157   -0.5618   -2.5169 H   0  0  0  0  0  0  0  0  0  0  0  0
    3.1970    0.8906   -2.4568 H   0  0  0  0  0  0  0  0  0  0  0  0
    3.9225    0.3786   -3.9930 H   0  0  0  0  0  0  0  0  0  0  0  0
  1  2  1  0  0  0  0 
  1  3  1  0  0  0  0 
  1  4  1  0  0  0  0 
  2  5  1  0  0  0  0 
  3  6  1  0  0  0  0 
  4  7  1  0  0  0  0 
  5  8  1  0  0  0  0 
  6  9  1  0  0  0  0 
  7 10  1  0  0  0  0 
  7 11  2  0  0  0  0 
  8 12  1  0  0  0  0 
  8 13  2  0  0  0  0 
  9 14  1  0  0  0  0 
  9 15  2  0  0  0  0 
  1 16  1  0  0  0  0 
  2 17  1  0  0  0  0 
  2 18  1  0  0  0  0 
  3 19  1  0  0  0  0 
  3 20  1  0  0  0  0 
 10 21  1  0  0  0  0 
 10 22  1  0  0  0  0 
 10 23  1  0  0  0  0 
 12 24  1  0  0  0  0 
 12 25  1  0  0  0  0 
 12 26  1  0  0  0  0 
 14 27  1  0  0  0  0 
 14 28  1  0  0  0  0 
 14 29  1  0  0  0  0 
M  END
> <cdk:Title>
triacetin

> <Conformer>
1

> <SuperDrugID>
SD003105

$$$$
