hymecromone
  CDK     0628171801

 21 22  0  0  0  0  0  0  0  0999 V2000
    1.4245   -0.6471   -0.3634 C   0  0  0  0  0  0  0  0  0  0  0  0
    0.0015   -0.2157   -0.2912 C   0  0  0  0  0  0  0  0  0  0  0  0
   -0.3511    1.0574   -0.8011 C   0  0  0  0  0  0  0  0  0  0  0  0
   -1.6815    1.5003   -0.7356 C   0  0  0  0  0  0  0  0  0  0  0  0
   -2.0117    2.6218   -1.1845 O   0  0  0  0  0  0  0  0  0  0  0  0
   -2.6273    0.6952   -0.1800 O   0  0  0  0  0  0  0  0  0  0  0  0
   -2.3449   -0.5448    0.3130 C   0  0  0  0  0  0  0  0  0  0  0  0
   -1.0124   -1.0459    0.2684 C   0  0  0  0  0  0  0  0  0  0  0  0
   -0.7803   -2.3485    0.7770 C   0  0  0  0  0  0  0  0  0  0  0  0
   -1.8350   -3.1279    1.2844 C   0  0  0  0  0  0  0  0  0  0  0  0
   -3.1440   -2.6132    1.3208 C   0  0  0  0  0  0  0  0  0  0  0  0
   -4.1704   -3.3568    1.8014 O   0  0  0  0  0  0  0  0  0  0  0  0
   -3.3947   -1.3131    0.8480 C   0  0  0  0  0  0  0  0  0  0  0  0
    1.5045   -1.5681   -0.9441 H   0  0  0  0  0  0  0  0  0  0  0  0
    1.8067   -0.8264    0.6444 H   0  0  0  0  0  0  0  0  0  0  0  0
    2.0660    0.0991   -0.8378 H   0  0  0  0  0  0  0  0  0  0  0  0
    0.3524    1.6675   -1.2233 H   0  0  0  0  0  0  0  0  0  0  0  0
    0.1572   -2.7520    0.7785 H   0  0  0  0  0  0  0  0  0  0  0  0
   -1.6435   -4.0732    1.6244 H   0  0  0  0  0  0  0  0  0  0  0  0
   -3.7940   -4.2435    1.9826 H   0  0  0  0  0  0  0  0  0  0  0  0
   -4.3441   -0.9335    0.8833 H   0  0  0  0  0  0  0  0  0  0  0  0
  1  2  1  0  0  0  0 
  2  3  2  0  0  0  0 
  3  4  1  0  0  0  0 
  4  5  2  0  0  0  0 
  4  6  1  0  0  0  0 
  6  7  1  0  0  0  0 
  7  8  1  0  0  0  0 
  2  8  1  0  0  0  0 
  8  9  2  0  0  0  0 
  9 10  1  0  0  0  0 
 10 11  2  0  0  0  0 
 11 12  1  0  0  0  0 
 11 13  1  0  0  0  0 
  7 13  2  0  0  0  0 
  1 14  1  0  0  0  0 
  1 15  1  0  0  0  0 
  1 16  1  0  0  0  0 
  3 17  1  0  0  0  0 
  9 18  1  0  0  0  0 
 10 19  1  0  0  0  0 
 12 20  1  0  0  0  0 
 13 21  1  0  0  0  0 
M  END
> <cdk:Title>
hymecromone

> <Conformer>
1

> <SuperDrugID>
SD001245

$$$$
