vemurafenib
  CDK     0628171801

 51 54  0  0  0  0  0  0  0  0999 V2000
   -7.5140    6.9012   -0.0408 C   0  0  0  0  0  0  0  0  0  0  0  0
   -8.5465    6.6684   -0.7120 O   0  0  0  0  0  0  0  0  0  0  0  0
   -6.7337    5.8142    0.4410 C   0  0  0  0  0  0  0  0  0  0  0  0
   -7.2440    8.2590    0.2829 C   0  0  0  0  0  0  0  0  0  0  0  0
   -7.1141    4.4718    0.5874 C   0  0  0  0  0  0  0  0  0  0  0  0
   -5.4137    5.8582    0.9140 C   0  0  0  0  0  0  0  0  0  0  0  0
   -6.0663    8.9285   -0.1436 C   0  0  0  0  0  0  0  0  0  0  0  0
   -8.1755    8.9669    1.0810 C   0  0  0  0  0  0  0  0  0  0  0  0
   -6.0128    3.7740    1.0803 C   0  0  0  0  0  0  0  0  0  0  0  0
   -8.3247    3.7764    0.3799 C   0  0  0  0  0  0  0  0  0  0  0  0
   -5.0045    4.6304    1.2687 N   0  0  0  0  0  0  0  0  0  0  0  0
   -5.2359    8.3294   -0.9628 F   0  0  0  0  0  0  0  0  0  0  0  0
   -5.7632   10.2397    0.3042 C   0  0  0  0  0  0  0  0  0  0  0  0
   -9.2868    8.4140    1.4965 F   0  0  0  0  0  0  0  0  0  0  0  0
   -7.9234   10.2945    1.4609 C   0  0  0  0  0  0  0  0  0  0  0  0
   -6.0573    2.4420    1.3188 N   0  0  0  0  0  0  0  0  0  0  0  0
   -8.3855    2.3862    0.6613 C   0  0  0  0  0  0  0  0  0  0  0  0
   -4.5388   10.7561   -0.0227 N   0  0  0  0  0  0  0  0  0  0  0  0
   -6.7335   10.9289    1.0687 C   0  0  0  0  0  0  0  0  0  0  0  0
   -7.2051    1.7404    1.1119 C   0  0  0  0  0  0  0  0  0  0  0  0
   -9.6025    1.6634    0.5456 C   0  0  0  0  0  0  0  0  0  0  0  0
   -3.7086   12.0804    0.6945 S   0  0  2  0  0  0  0  0  0  0  0  0
  -10.6932    1.9784    1.3908 C   0  0  0  0  0  0  0  0  0  0  0  0
   -9.7484    0.6093   -0.3872 C   0  0  0  0  0  0  0  0  0  0  0  0
   -3.7414   13.4984   -0.4641 C   0  0  2  0  0  0  0  0  0  0  0  0
   -2.1779   11.6551    0.9241 O   0  0  0  0  0  0  0  0  0  0  0  0
   -4.3180   12.5123    2.1137 O   0  0  0  0  0  0  0  0  0  0  0  0
  -11.8998    1.2582    1.3073 C   0  0  0  0  0  0  0  0  0  0  0  0
  -10.9610   -0.1027   -0.4792 C   0  0  0  0  0  0  0  0  0  0  0  0
   -2.9492   13.1840   -1.7577 C   0  0  1  0  0  0  0  0  0  0  0  0
  -12.0377    0.2139    0.3730 C   0  0  0  0  0  0  0  0  0  0  0  0
   -2.9560   14.3671   -2.7471 C   0  0  0  0  0  0  0  0  0  0  0  0
  -13.4893   -0.6547    0.2838 Cl  0  0  0  0  0  0  0  0  0  0  0  0
   -4.8244    6.6875    0.9894 H   0  0  0  0  0  0  0  0  0  0  0  0
   -9.1535    4.2724    0.0470 H   0  0  0  0  0  0  0  0  0  0  0  0
   -4.1273    4.4040    1.6147 H   0  0  0  0  0  0  0  0  0  0  0  0
   -8.6059   10.7979    2.0344 H   0  0  0  0  0  0  0  0  0  0  0  0
   -4.0506   10.2930   -0.7221 H   0  0  0  0  0  0  0  0  0  0  0  0
   -6.5967   11.8997    1.3486 H   0  0  0  0  0  0  0  0  0  0  0  0
   -7.2030    0.7384    1.3137 H   0  0  0  0  0  0  0  0  0  0  0  0
  -10.6133    2.7268    2.0857 H   0  0  0  0  0  0  0  0  0  0  0  0
   -8.9748    0.3547   -1.0077 H   0  0  0  0  0  0  0  0  0  0  0  0
   -3.2972   14.3577    0.0433 H   0  0  0  0  0  0  0  0  0  0  0  0
   -4.7834   13.7264   -0.7037 H   0  0  0  0  0  0  0  0  0  0  0  0
  -12.6735    1.4968    1.9340 H   0  0  0  0  0  0  0  0  0  0  0  0
  -11.0540   -0.8530   -1.1675 H   0  0  0  0  0  0  0  0  0  0  0  0
   -1.9127   12.9471   -1.5028 H   0  0  0  0  0  0  0  0  0  0  0  0
   -3.3830   12.3113   -2.2530 H   0  0  0  0  0  0  0  0  0  0  0  0
   -3.9732   14.5610   -3.0927 H   0  0  0  0  0  0  0  0  0  0  0  0
   -2.3317   14.1302   -3.6104 H   0  0  0  0  0  0  0  0  0  0  0  0
   -2.5640   15.2668   -2.2683 H   0  0  0  0  0  0  0  0  0  0  0  0
  1  2  2  0  0  0  0 
  1  3  1  0  0  0  0 
  1  4  1  0  0  0  0 
  3  5  1  0  0  0  0 
  3  6  2  0  0  0  0 
  4  7  2  0  0  0  0 
  4  8  1  0  0  0  0 
  5  9  1  0  0  0  0 
  5 10  2  0  0  0  0 
  6 11  1  0  0  0  0 
  7 12  1  0  0  0  0 
  7 13  1  0  0  0  0 
  8 14  1  0  0  0  0 
  8 15  2  0  0  0  0 
  9 11  1  0  0  0  0 
  9 16  2  0  0  0  0 
 10 17  1  0  0  0  0 
 13 18  1  0  0  0  0 
 13 19  2  0  0  0  0 
 15 19  1  0  0  0  0 
 16 20  1  0  0  0  0 
 17 20  2  0  0  0  0 
 17 21  1  0  0  0  0 
 18 22  1  0  0  0  0 
 21 23  2  0  0  0  0 
 21 24  1  0  0  0  0 
 22 25  1  0  0  0  0 
 22 26  2  0  0  0  0 
 22 27  2  0  0  0  0 
 23 28  1  0  0  0  0 
 24 29  2  0  0  0  0 
 25 30  1  0  0  0  0 
 28 31  2  0  0  0  0 
 29 31  1  0  0  0  0 
 30 32  1  0  0  0  0 
 31 33  1  0  0  0  0 
 34  6  1  0  0  0  0 
 35 10  1  0  0  0  0 
 36 11  1  0  0  0  0 
 37 15  1  0  0  0  0 
 38 18  1  0  0  0  0 
 39 19  1  0  0  0  0 
 40 20  1  0  0  0  0 
 41 23  1  0  0  0  0 
 42 24  1  0  0  0  0 
 43 25  1  0  0  0  0 
 44 25  1  0  0  0  0 
 45 28  1  0  0  0  0 
 46 29  1  0  0  0  0 
 47 30  1  0  0  0  0 
 48 30  1  0  0  0  0 
 49 32  1  0  0  0  0 
 50 32  1  0  0  0  0 
 51 32  1  0  0  0  0 
M  END
> <cdk:Title>
vemurafenib

> <Conformer>
1

> <SuperDrugID>
SD003415

$$$$
