nandrolone phenpropionate
  CDK     0628171801

 64 68  0  0  0  0  0  0  0  0999 V2000
   -7.5990    2.0750   -0.4173 C   0  0  0  0  0  0  0  0  0  0  0  0
   -7.0014    1.3339   -1.6761 C   0  0  2  0  0  0  0  0  0  0  0  0
   -5.7528    2.0070   -2.3326 C   0  0  2  0  0  0  0  0  0  0  0  0
   -7.9849    1.4454   -2.8830 C   0  0  1  0  0  0  0  0  0  0  0  0
   -6.6119   -0.1280   -1.2790 C   0  0  2  0  0  0  0  0  0  0  0  0
   -4.5009    2.0514   -1.3967 C   0  0  1  0  0  0  0  0  0  0  0  0
   -6.3226    3.2986   -2.9589 C   0  0  1  0  0  0  0  0  0  0  0  0
   -9.3627    1.2252   -2.5482 O   0  0  0  0  0  0  0  0  0  0  0  0
   -7.7367    2.8764   -3.4453 C   0  0  1  0  0  0  0  0  0  0  0  0
   -5.3417   -0.1628   -0.3745 C   0  0  2  0  0  0  0  0  0  0  0  0
   -4.1087    0.5802   -1.0030 C   0  0  2  0  0  0  0  0  0  0  0  0
   -3.2807    2.7192   -2.0837 C   0  0  1  0  0  0  0  0  0  0  0  0
  -10.0778    0.0690   -2.6981 C   0  0  0  0  0  0  0  0  0  0  0  0
   -2.8095    0.5165   -0.1093 C   0  0  2  0  0  0  0  0  0  0  0  0
   -2.0418    2.7347   -1.1576 C   0  0  2  0  0  0  0  0  0  0  0  0
  -11.5219    0.0953   -2.4052 C   0  0  2  0  0  0  0  0  0  0  0  0
   -9.5454   -0.9950   -3.0961 O   0  0  0  0  0  0  0  0  0  0  0  0
   -1.7271    1.4537   -0.5092 C   0  0  0  0  0  0  0  0  0  0  0  0
   -2.2521   -0.9481   -0.0316 C   0  0  1  0  0  0  0  0  0  0  0  0
  -11.9837   -0.9186   -1.3247 C   0  0  2  0  0  0  0  0  0  0  0  0
   -0.4392    1.2155   -0.1657 C   0  0  0  0  0  0  0  0  0  0  0  0
   -0.9327   -1.0507    0.7757 C   0  0  1  0  0  0  0  0  0  0  0  0
  -11.3279   -0.7825    0.0085 C   0  0  0  0  0  0  0  0  0  0  0  0
   -0.0266    0.0882    0.5243 C   0  0  0  0  0  0  0  0  0  0  0  0
  -10.6195   -1.8636    0.5857 C   0  0  0  0  0  0  0  0  0  0  0  0
  -11.4286    0.4200    0.7468 C   0  0  0  0  0  0  0  0  0  0  0  0
    1.1395    0.0342    0.9819 O   0  0  0  0  0  0  0  0  0  0  0  0
  -10.0520   -1.7564    1.8677 C   0  0  0  0  0  0  0  0  0  0  0  0
  -10.8379    0.5550    2.0572 C   0  0  0  0  0  0  0  0  0  0  0  0
  -10.1606   -0.5568    2.5928 C   0  0  0  0  0  0  0  0  0  0  0  0
   -7.9910    3.0630   -0.6679 H   0  0  0  0  0  0  0  0  0  0  0  0
   -8.4240    1.4940    0.0036 H   0  0  0  0  0  0  0  0  0  0  0  0
   -6.8559    2.2097    0.3680 H   0  0  0  0  0  0  0  0  0  0  0  0
   -5.4330    1.3979   -3.1927 H   0  0  0  0  0  0  0  0  0  0  0  0
   -7.6991    0.7338   -3.6687 H   0  0  0  0  0  0  0  0  0  0  0  0
   -6.4151   -0.7251   -2.1752 H   0  0  0  0  0  0  0  0  0  0  0  0
   -7.4450   -0.6086   -0.7577 H   0  0  0  0  0  0  0  0  0  0  0  0
   -4.7371    2.6273   -0.4970 H   0  0  0  0  0  0  0  0  0  0  0  0
   -6.3871    4.0934   -2.2120 H   0  0  0  0  0  0  0  0  0  0  0  0
   -5.7020    3.6478   -3.7885 H   0  0  0  0  0  0  0  0  0  0  0  0
   -7.7829    2.8743   -4.5378 H   0  0  0  0  0  0  0  0  0  0  0  0
   -8.4883    3.5806   -3.0752 H   0  0  0  0  0  0  0  0  0  0  0  0
   -5.1079   -1.2128   -0.1963 H   0  0  0  0  0  0  0  0  0  0  0  0
   -5.5702    0.2784    0.5984 H   0  0  0  0  0  0  0  0  0  0  0  0
   -3.8700    0.0487   -1.9319 H   0  0  0  0  0  0  0  0  0  0  0  0
   -3.0311    2.1831   -3.0050 H   0  0  0  0  0  0  0  0  0  0  0  0
   -3.5252    3.7506   -2.3536 H   0  0  0  0  0  0  0  0  0  0  0  0
   -3.0961    0.8129    0.9042 H   0  0  0  0  0  0  0  0  0  0  0  0
   -2.2017    3.4763   -0.3700 H   0  0  0  0  0  0  0  0  0  0  0  0
   -1.2030    3.0894   -1.7672 H   0  0  0  0  0  0  0  0  0  0  0  0
  -12.0496   -0.1321   -3.3351 H   0  0  0  0  0  0  0  0  0  0  0  0
  -11.8148    1.1069   -2.1089 H   0  0  0  0  0  0  0  0  0  0  0  0
   -2.9725   -1.6209    0.4331 H   0  0  0  0  0  0  0  0  0  0  0  0
   -2.0643   -1.3160   -1.0446 H   0  0  0  0  0  0  0  0  0  0  0  0
  -11.8436   -1.9280   -1.7246 H   0  0  0  0  0  0  0  0  0  0  0  0
  -13.0591   -0.7884   -1.1810 H   0  0  0  0  0  0  0  0  0  0  0  0
    0.2625    1.8826   -0.3983 H   0  0  0  0  0  0  0  0  0  0  0  0
   -1.1602   -1.0845    1.8437 H   0  0  0  0  0  0  0  0  0  0  0  0
   -0.4244   -1.9816    0.5061 H   0  0  0  0  0  0  0  0  0  0  0  0
  -10.5194   -2.7484    0.0816 H   0  0  0  0  0  0  0  0  0  0  0  0
  -11.9318    1.2222    0.3650 H   0  0  0  0  0  0  0  0  0  0  0  0
   -9.5633   -2.5567    2.2783 H   0  0  0  0  0  0  0  0  0  0  0  0
  -10.8557    1.4207    2.6915 H   0  0  0  0  0  0  0  0  0  0  0  0
   -9.7384   -0.4939    3.5245 H   0  0  0  0  0  0  0  0  0  0  0  0
  2  1  1  0  0  0  0 
  2  3  1  0  0  0  0 
  2  4  1  0  0  0  0 
  2  5  1  0  0  0  0 
  3  6  1  0  0  0  0 
  3  7  1  0  0  0  0 
  4  8  1  0  0  0  0 
  4  9  1  0  0  0  0 
  5 10  1  0  0  0  0 
  6 11  1  0  0  0  0 
  6 12  1  0  0  0  0 
  7  9  1  0  0  0  0 
  8 13  1  0  0  0  0 
 11 10  1  0  0  0  0 
 11 14  1  0  0  0  0 
 12 15  1  0  0  0  0 
 13 16  1  0  0  0  0 
 13 17  2  0  0  0  0 
 14 18  1  0  0  0  0 
 14 19  1  0  0  0  0 
 15 18  1  0  0  0  0 
 16 20  1  0  0  0  0 
 18 21  2  0  0  0  0 
 19 22  1  0  0  0  0 
 20 23  1  0  0  0  0 
 21 24  1  0  0  0  0 
 22 24  1  0  0  0  0 
 23 25  2  0  0  0  0 
 23 26  1  0  0  0  0 
 24 27  2  0  0  0  0 
 25 28  1  0  0  0  0 
 26 29  2  0  0  0  0 
 28 30  2  0  0  0  0 
 29 30  1  0  0  0  0 
 31  1  1  0  0  0  0 
 32  1  1  0  0  0  0 
 33  1  1  0  0  0  0 
  3 34  1  0  0  0  0 
  4 35  1  0  0  0  0 
 36  5  1  0  0  0  0 
 37  5  1  0  0  0  0 
  6 38  1  0  0  0  0 
 39  7  1  0  0  0  0 
 40  7  1  0  0  0  0 
 41  9  1  0  0  0  0 
 42  9  1  0  0  0  0 
 43 10  1  0  0  0  0 
 44 10  1  0  0  0  0 
 11 45  1  0  0  0  0 
 46 12  1  0  0  0  0 
 47 12  1  0  0  0  0 
 14 48  1  0  0  0  0 
 49 15  1  0  0  0  0 
 50 15  1  0  0  0  0 
 51 16  1  0  0  0  0 
 52 16  1  0  0  0  0 
 53 19  1  0  0  0  0 
 54 19  1  0  0  0  0 
 55 20  1  0  0  0  0 
 56 20  1  0  0  0  0 
 57 21  1  0  0  0  0 
 58 22  1  0  0  0  0 
 59 22  1  0  0  0  0 
 60 25  1  0  0  0  0 
 61 26  1  0  0  0  0 
 62 28  1  0  0  0  0 
 63 29  1  0  0  0  0 
 64 30  1  0  0  0  0 
M  END
> <cdk:Title>
nandrolone phenpropionate

> <Conformer>
1

> <SuperDrugID>
SD001678

$$$$
