butetamate
  CDK     0628171801

 44 44  0  0  0  0  0  0  0  0999 V2000
    2.9582   -0.4228    1.6151 C   0  0  1  0  0  0  0  0  0  0  0  0
    1.5317   -0.8358    1.6669 C   0  0  0  0  0  0  0  0  0  0  0  0
    3.2208    0.7733    2.5847 C   0  0  2  0  0  0  0  0  0  0  0  0
    3.8623   -1.5986    1.8432 C   0  0  0  0  0  0  0  0  0  0  0  0
    1.0063   -1.2953    2.8420 O   0  0  0  0  0  0  0  0  0  0  0  0
    0.8199   -0.7644    0.6358 O   0  0  0  0  0  0  0  0  0  0  0  0
    4.6819    1.2867    2.5965 C   0  0  0  0  0  0  0  0  0  0  0  0
    4.7139   -2.0590    0.8063 C   0  0  0  0  0  0  0  0  0  0  0  0
    3.9174   -2.2733    3.0906 C   0  0  0  0  0  0  0  0  0  0  0  0
   -0.3462   -1.7073    3.0759 C   0  0  1  0  0  0  0  0  0  0  0  0
    5.5897   -3.1418    1.0090 C   0  0  0  0  0  0  0  0  0  0  0  0
    4.7850   -3.3628    3.2931 C   0  0  0  0  0  0  0  0  0  0  0  0
   -0.4744   -2.3501    4.4845 C   0  0  1  0  0  0  0  0  0  0  0  0
    5.6238   -3.7963    2.2517 C   0  0  0  0  0  0  0  0  0  0  0  0
   -1.4030   -1.5898    5.3932 N   0  0  1  0  0  0  0  0  0  0  0  0
   -2.1486   -2.4695    6.3591 C   0  0  2  0  0  0  0  0  0  0  0  0
   -0.7195   -0.4035    6.0262 C   0  0  2  0  0  0  0  0  0  0  0  0
   -3.2284   -3.3668    5.6998 C   0  0  0  0  0  0  0  0  0  0  0  0
   -1.6642    0.6319    6.6860 C   0  0  0  0  0  0  0  0  0  0  0  0
    3.1373   -0.0308    0.6091 H   0  0  0  0  0  0  0  0  0  0  0  0
    2.9456    0.4957    3.6069 H   0  0  0  0  0  0  0  0  0  0  0  0
    2.5790    1.6107    2.2896 H   0  0  0  0  0  0  0  0  0  0  0  0
    5.3545    0.5300    3.0063 H   0  0  0  0  0  0  0  0  0  0  0  0
    4.7512    2.1781    3.2237 H   0  0  0  0  0  0  0  0  0  0  0  0
    5.0070    1.5453    1.5860 H   0  0  0  0  0  0  0  0  0  0  0  0
    4.7069   -1.6071   -0.1113 H   0  0  0  0  0  0  0  0  0  0  0  0
    3.3277   -1.9745    3.8701 H   0  0  0  0  0  0  0  0  0  0  0  0
   -1.0070   -0.8427    2.9757 H   0  0  0  0  0  0  0  0  0  0  0  0
   -0.6366   -2.4355    2.3110 H   0  0  0  0  0  0  0  0  0  0  0  0
    6.2039   -3.4517    0.2511 H   0  0  0  0  0  0  0  0  0  0  0  0
    4.8083   -3.8391    4.1984 H   0  0  0  0  0  0  0  0  0  0  0  0
   -0.8120   -3.3763    4.3320 H   0  0  0  0  0  0  0  0  0  0  0  0
    0.5097   -2.4449    4.9560 H   0  0  0  0  0  0  0  0  0  0  0  0
    6.2586   -4.5832    2.3997 H   0  0  0  0  0  0  0  0  0  0  0  0
   -2.6887   -1.8637    7.0862 H   0  0  0  0  0  0  0  0  0  0  0  0
   -1.4454   -3.0934    6.9174 H   0  0  0  0  0  0  0  0  0  0  0  0
   -0.1588    0.1445    5.2628 H   0  0  0  0  0  0  0  0  0  0  0  0
    0.0037   -0.7405    6.7747 H   0  0  0  0  0  0  0  0  0  0  0  0
   -3.8953   -3.7677    6.4680 H   0  0  0  0  0  0  0  0  0  0  0  0
   -2.7786   -4.2123    5.1763 H   0  0  0  0  0  0  0  0  0  0  0  0
   -3.8268   -2.7885    4.9917 H   0  0  0  0  0  0  0  0  0  0  0  0
   -1.1131    1.5471    6.9159 H   0  0  0  0  0  0  0  0  0  0  0  0
   -2.0712    0.2510    7.6238 H   0  0  0  0  0  0  0  0  0  0  0  0
   -2.4866    0.8778    6.0116 H   0  0  0  0  0  0  0  0  0  0  0  0
  1  2  1  0  0  0  0 
  1  3  1  0  0  0  0 
  1  4  1  0  0  0  0 
  2  5  1  0  0  0  0 
  2  6  2  0  0  0  0 
  3  7  1  0  0  0  0 
  4  8  2  0  0  0  0 
  4  9  1  0  0  0  0 
  5 10  1  0  0  0  0 
  8 11  1  0  0  0  0 
  9 12  2  0  0  0  0 
 10 13  1  0  0  0  0 
 11 14  2  0  0  0  0 
 12 14  1  0  0  0  0 
 13 15  1  0  0  0  0 
 15 16  1  0  0  0  0 
 15 17  1  0  0  0  0 
 16 18  1  0  0  0  0 
 17 19  1  0  0  0  0 
  1 20  1  0  0  0  0 
  3 21  1  0  0  0  0 
  3 22  1  0  0  0  0 
  7 23  1  0  0  0  0 
  7 24  1  0  0  0  0 
  7 25  1  0  0  0  0 
  8 26  1  0  0  0  0 
  9 27  1  0  0  0  0 
 10 28  1  0  0  0  0 
 10 29  1  0  0  0  0 
 11 30  1  0  0  0  0 
 12 31  1  0  0  0  0 
 13 32  1  0  0  0  0 
 13 33  1  0  0  0  0 
 14 34  1  0  0  0  0 
 16 35  1  0  0  0  0 
 16 36  1  0  0  0  0 
 17 37  1  0  0  0  0 
 17 38  1  0  0  0  0 
 18 39  1  0  0  0  0 
 18 40  1  0  0  0  0 
 18 41  1  0  0  0  0 
 19 42  1  0  0  0  0 
 19 43  1  0  0  0  0 
 19 44  1  0  0  0  0 
M  END
> <cdk:Title>
butetamate

> <Conformer>
1

> <SuperDrugID>
SD000387

$$$$
