goserelin
  CDK     0628171801

175180  0  0  0  0  0  0  0  0999 V2000
   -5.3060   -3.5147    4.4010 C   0  0  1  0  0  0  0  0  0  0  0  0
   -4.8078   -2.3306    3.5090 C   0  0  2  0  0  0  0  0  0  0  0  0
   -6.5505   -4.1415    3.8774 C   0  0  0  0  0  0  0  0  0  0  0  0
   -3.4917   -1.8598    3.8091 N   0  0  0  0  0  0  0  0  0  0  0  0
   -5.7058   -1.1536    3.4997 C   0  0  0  0  0  0  0  0  0  0  0  0
   -6.7256   -4.8380    2.6762 C   0  0  0  0  0  0  0  0  0  0  0  0
   -7.8074   -4.1526    4.4934 C   0  0  0  0  0  0  0  0  0  0  0  0
   -2.3367   -2.4978    3.4560 C   0  0  0  0  0  0  0  0  0  0  0  0
   -6.2999   -0.7042    4.6470 N   0  0  0  0  0  0  0  0  0  0  0  0
   -5.9118   -0.5959    2.3961 O   0  0  0  0  0  0  0  0  0  0  0  0
   -8.0730   -5.1918    2.5892 C   0  0  0  0  0  0  0  0  0  0  0  0
   -5.8257   -5.2013    1.6543 C   0  0  0  0  0  0  0  0  0  0  0  0
   -8.6964   -4.7798    3.7010 N   0  0  0  0  0  0  0  0  0  0  0  0
   -1.0418   -1.7713    3.4391 C   0  0  2  0  0  0  0  0  0  0  0  0
   -2.3624   -3.6823    3.0424 O   0  0  0  0  0  0  0  0  0  0  0  0
   -7.3845    0.2350    4.7558 C   0  0  2  0  0  0  0  0  0  0  0  0
   -8.5847   -5.8753    1.4724 C   0  0  0  0  0  0  0  0  0  0  0  0
   -6.3244   -5.8931    0.5281 C   0  0  0  0  0  0  0  0  0  0  0  0
   -0.6524   -1.1190    4.7998 C   0  0  2  0  0  0  0  0  0  0  0  0
   -1.0348   -0.9156    2.2847 N   0  0  0  0  0  0  0  0  0  0  0  0
   -8.5927   -0.3804    4.1422 C   0  0  0  0  0  0  0  0  0  0  0  0
   -7.0370    1.6728    4.2742 C   0  0  2  0  0  0  0  0  0  0  0  0
   -7.6954   -6.2268    0.4346 C   0  0  0  0  0  0  0  0  0  0  0  0
    0.6056   -0.3448    4.7226 C   0  0  0  0  0  0  0  0  0  0  0  0
   -1.7281    0.2411    2.0783 C   0  0  0  0  0  0  0  0  0  0  0  0
   -8.6823   -0.4836    2.7853 N   0  0  0  0  0  0  0  0  0  0  0  0
   -9.4416   -0.9219    4.8912 O   0  0  0  0  0  0  0  0  0  0  0  0
   -6.0268    2.2374    5.1070 O   0  0  0  0  0  0  0  0  0  0  0  0
    0.8100    0.9838    5.0896 C   0  0  0  0  0  0  0  0  0  0  0  0
    1.7883   -0.7959    4.2839 N   0  0  0  0  0  0  0  0  0  0  0  0
   -2.3470    0.8063    3.0088 O   0  0  0  0  0  0  0  0  0  0  0  0
   -1.8116    0.8089    0.7078 C   0  0  2  0  0  0  0  0  0  0  0  0
   -9.4171   -1.4857    2.0722 C   0  0  1  0  0  0  0  0  0  0  0  0
    2.0933    1.3019    4.8649 N   0  0  0  0  0  0  0  0  0  0  0  0
    2.6807    0.2004    4.3683 C   0  0  0  0  0  0  0  0  0  0  0  0
   -2.4413   -0.1712   -0.3231 C   0  0  2  0  0  0  0  0  0  0  0  0
   -0.5246    1.0541    0.1726 N   0  0  0  0  0  0  0  0  0  0  0  0
  -10.9584   -1.2577    2.0361 C   0  0  2  0  0  0  0  0  0  0  0  0
   -8.7749   -1.6104    0.7352 C   0  0  0  0  0  0  0  0  0  0  0  0
   -1.2491   -0.7400   -1.1232 C   0  0  2  0  0  0  0  0  0  0  0  0
   -0.1902    0.2207   -0.8200 C   0  0  0  0  0  0  0  0  0  0  0  0
  -11.7053   -2.4452    1.5236 C   0  0  0  0  0  0  0  0  0  0  0  0
   -9.1653   -0.8376   -0.3227 N   0  0  0  0  0  0  0  0  0  0  0  0
   -7.8398   -2.4354    0.5990 O   0  0  0  0  0  0  0  0  0  0  0  0
    0.9176    0.2536   -1.4002 O   0  0  0  0  0  0  0  0  0  0  0  0
  -11.8671   -3.6014    2.3266 C   0  0  0  0  0  0  0  0  0  0  0  0
  -12.2830   -2.4397    0.2330 C   0  0  0  0  0  0  0  0  0  0  0  0
   -8.6356   -0.8806   -1.6665 C   0  0  1  0  0  0  0  0  0  0  0  0
  -12.6192   -4.7004    1.8673 C   0  0  0  0  0  0  0  0  0  0  0  0
  -13.0286   -3.5405   -0.2301 C   0  0  0  0  0  0  0  0  0  0  0  0
   -8.8255   -2.2136   -2.3341 C   0  0  0  0  0  0  0  0  0  0  0  0
   -9.2478    0.3363   -2.4288 C   0  0  1  0  0  0  0  0  0  0  0  0
  -13.2141   -4.6688    0.5919 C   0  0  0  0  0  0  0  0  0  0  0  0
   -8.3586   -2.6532   -3.5468 N   0  0  0  0  0  0  0  0  0  0  0  0
   -9.4570   -3.1102   -1.7264 O   0  0  0  0  0  0  0  0  0  0  0  0
   -8.5534    1.5486   -2.0464 O   0  0  0  0  0  0  0  0  0  0  0  0
  -13.9684   -5.7213    0.1811 O   0  0  0  0  0  0  0  0  0  0  0  0
   -7.8149   -1.9545   -4.6784 C   0  0  2  0  0  0  0  0  0  0  0  0
   -8.7236    2.7747   -2.8179 C   0  0  1  0  0  0  0  0  0  0  0  0
   -7.6833   -2.9496   -5.7756 C   0  0  0  0  0  0  0  0  0  0  0  0
   -6.5386   -1.0548   -4.5010 C   0  0  1  0  0  0  0  0  0  0  0  0
   -8.1613    2.6466   -4.2708 C   0  0  0  0  0  0  0  0  0  0  0  0
  -10.2092    3.2509   -2.8495 C   0  0  0  0  0  0  0  0  0  0  0  0
   -7.8641    3.8267   -2.0517 C   0  0  0  0  0  0  0  0  0  0  0  0
   -6.7241   -3.9084   -5.7110 N   0  0  0  0  0  0  0  0  0  0  0  0
   -8.4663   -2.9022   -6.7551 O   0  0  0  0  0  0  0  0  0  0  0  0
   -5.1420   -1.6819   -4.1631 C   0  0  1  0  0  0  0  0  0  0  0  0
   -6.3647   -4.8612   -6.7201 C   0  0  2  0  0  0  0  0  0  0  0  0
   -4.0360   -0.5880   -4.1795 C   0  0  0  0  0  0  0  0  0  0  0  0
   -5.1155   -2.4520   -2.8134 C   0  0  0  0  0  0  0  0  0  0  0  0
   -5.8519   -6.0376   -5.9540 C   0  0  0  0  0  0  0  0  0  0  0  0
   -5.3139   -4.2914   -7.7328 C   0  0  2  0  0  0  0  0  0  0  0  0
   -4.7790   -5.8530   -5.3245 O   0  0  0  0  0  0  0  0  0  0  0  0
   -6.4773   -7.2726   -5.8438 N   0  0  0  0  0  0  0  0  0  0  0  0
   -5.8000   -3.0532   -8.5434 C   0  0  2  0  0  0  0  0  0  0  0  0
   -7.7115   -7.6663   -6.4814 C   0  0  2  0  0  0  0  0  0  0  0  0
   -5.9242   -8.3371   -5.0525 C   0  0  2  0  0  0  0  0  0  0  0  0
   -4.7663   -2.4943   -9.5543 C   0  0  2  0  0  0  0  0  0  0  0  0
   -8.8968   -6.8394   -6.1335 C   0  0  0  0  0  0  0  0  0  0  0  0
   -7.9405   -9.1420   -6.0625 C   0  0  2  0  0  0  0  0  0  0  0  0
   -6.5550   -9.6155   -5.6172 C   0  0  1  0  0  0  0  0  0  0  0  0
   -5.2986   -1.3709  -10.1917 N   0  0  0  0  0  0  0  0  0  0  0  0
   -9.7616   -6.3725   -7.1457 N   0  0  0  0  0  0  0  0  0  0  0  0
   -9.1542   -6.5747   -4.9364 O   0  0  0  0  0  0  0  0  0  0  0  0
   -4.7768   -0.6117  -11.0863 C   0  0  0  0  0  0  0  0  0  0  0  0
  -10.9212   -5.6481   -7.0728 N   0  0  0  0  0  0  0  0  0  0  0  0
   -3.5688   -0.7870  -11.5866 N   0  0  0  0  0  0  0  0  0  0  0  0
   -5.4910    0.4025  -11.5227 N   0  0  0  0  0  0  0  0  0  0  0  0
  -12.1959   -6.3039   -6.9535 C   0  0  0  0  0  0  0  0  0  0  0  0
  -13.4109   -5.6422   -6.9397 N   0  0  0  0  0  0  0  0  0  0  0  0
  -12.3728   -7.5626   -6.8545 O   0  0  0  0  0  0  0  0  0  0  0  0
   -4.5374   -4.2883    4.4524 H   0  0  0  0  0  0  0  0  0  0  0  0
   -5.4621   -3.1667    5.4260 H   0  0  0  0  0  0  0  0  0  0  0  0
   -4.7650   -2.6944    2.4772 H   0  0  0  0  0  0  0  0  0  0  0  0
   -3.4167   -0.9840    4.2186 H   0  0  0  0  0  0  0  0  0  0  0  0
   -8.0313   -3.7394    5.4009 H   0  0  0  0  0  0  0  0  0  0  0  0
   -6.0052   -1.1153    5.4750 H   0  0  0  0  0  0  0  0  0  0  0  0
   -4.8302   -4.9759    1.7248 H   0  0  0  0  0  0  0  0  0  0  0  0
   -9.6385   -4.9103    3.8979 H   0  0  0  0  0  0  0  0  0  0  0  0
   -0.2598   -2.5106    3.2275 H   0  0  0  0  0  0  0  0  0  0  0  0
   -7.5753    0.3174    5.8300 H   0  0  0  0  0  0  0  0  0  0  0  0
   -9.5775   -6.1134    1.4127 H   0  0  0  0  0  0  0  0  0  0  0  0
   -5.6897   -6.1615   -0.2264 H   0  0  0  0  0  0  0  0  0  0  0  0
   -0.5092   -1.9132    5.5368 H   0  0  0  0  0  0  0  0  0  0  0  0
   -1.4602   -0.4789    5.1632 H   0  0  0  0  0  0  0  0  0  0  0  0
   -0.5269   -1.2393    1.5256 H   0  0  0  0  0  0  0  0  0  0  0  0
   -7.9242    2.3087    4.3410 H   0  0  0  0  0  0  0  0  0  0  0  0
   -6.6753    1.6831    3.2454 H   0  0  0  0  0  0  0  0  0  0  0  0
   -8.0457   -6.7352   -0.3820 H   0  0  0  0  0  0  0  0  0  0  0  0
   -8.1107    0.1008    2.2618 H   0  0  0  0  0  0  0  0  0  0  0  0
   -5.9195    3.1641    4.8033 H   0  0  0  0  0  0  0  0  0  0  0  0
    0.1057    1.6151    5.4749 H   0  0  0  0  0  0  0  0  0  0  0  0
    1.9673   -1.6902    3.9557 H   0  0  0  0  0  0  0  0  0  0  0  0
   -2.3771    1.7474    0.7192 H   0  0  0  0  0  0  0  0  0  0  0  0
   -9.2452   -2.4258    2.6006 H   0  0  0  0  0  0  0  0  0  0  0  0
    3.6619    0.1304    4.1002 H   0  0  0  0  0  0  0  0  0  0  0  0
   -3.1019    0.3843   -0.9968 H   0  0  0  0  0  0  0  0  0  0  0  0
   -3.0240   -0.9707    0.1476 H   0  0  0  0  0  0  0  0  0  0  0  0
    0.0603    1.7571    0.4983 H   0  0  0  0  0  0  0  0  0  0  0  0
  -11.1795   -0.3651    1.4422 H   0  0  0  0  0  0  0  0  0  0  0  0
  -11.3221   -1.0439    3.0431 H   0  0  0  0  0  0  0  0  0  0  0  0
   -1.4562   -0.7732   -2.1936 H   0  0  0  0  0  0  0  0  0  0  0  0
   -0.9679   -1.7350   -0.7674 H   0  0  0  0  0  0  0  0  0  0  0  0
   -9.8804   -0.2033   -0.1561 H   0  0  0  0  0  0  0  0  0  0  0  0
  -11.4418   -3.6496    3.2559 H   0  0  0  0  0  0  0  0  0  0  0  0
  -12.1661   -1.6299   -0.3783 H   0  0  0  0  0  0  0  0  0  0  0  0
   -7.5580   -0.7246   -1.5845 H   0  0  0  0  0  0  0  0  0  0  0  0
  -12.7397   -5.5197    2.4687 H   0  0  0  0  0  0  0  0  0  0  0  0
  -13.4365   -3.5156   -1.1670 H   0  0  0  0  0  0  0  0  0  0  0  0
   -9.1605    0.1967   -3.4961 H   0  0  0  0  0  0  0  0  0  0  0  0
  -10.3140    0.4233   -2.2067 H   0  0  0  0  0  0  0  0  0  0  0  0
   -8.4847   -3.6049   -3.6961 H   0  0  0  0  0  0  0  0  0  0  0  0
  -14.4033   -5.4483   -0.6556 H   0  0  0  0  0  0  0  0  0  0  0  0
   -8.6085   -1.2790   -5.0057 H   0  0  0  0  0  0  0  0  0  0  0  0
   -6.4259   -0.5099   -5.4448 H   0  0  0  0  0  0  0  0  0  0  0  0
   -6.7461   -0.2965   -3.7488 H   0  0  0  0  0  0  0  0  0  0  0  0
   -8.7935    2.0055   -4.8868 H   0  0  0  0  0  0  0  0  0  0  0  0
   -7.1563    2.2214   -4.2525 H   0  0  0  0  0  0  0  0  0  0  0  0
   -8.1117    3.6236   -4.7578 H   0  0  0  0  0  0  0  0  0  0  0  0
  -10.8277    2.5527   -3.4163 H   0  0  0  0  0  0  0  0  0  0  0  0
  -10.2940    4.2330   -3.3214 H   0  0  0  0  0  0  0  0  0  0  0  0
  -10.6098    3.3190   -1.8363 H   0  0  0  0  0  0  0  0  0  0  0  0
   -6.8142    3.5233   -2.0348 H   0  0  0  0  0  0  0  0  0  0  0  0
   -7.9269    4.8103   -2.5245 H   0  0  0  0  0  0  0  0  0  0  0  0
   -8.2039    3.9223   -1.0179 H   0  0  0  0  0  0  0  0  0  0  0  0
   -6.1998   -3.9286   -4.8967 H   0  0  0  0  0  0  0  0  0  0  0  0
   -4.8619   -2.3789   -4.9539 H   0  0  0  0  0  0  0  0  0  0  0  0
   -7.2446   -5.1392   -7.2985 H   0  0  0  0  0  0  0  0  0  0  0  0
   -3.9858   -0.1081   -5.1602 H   0  0  0  0  0  0  0  0  0  0  0  0
   -3.0589   -1.0343   -3.9888 H   0  0  0  0  0  0  0  0  0  0  0  0
   -4.2347    0.1735   -3.4209 H   0  0  0  0  0  0  0  0  0  0  0  0
   -5.8188   -3.2861   -2.8247 H   0  0  0  0  0  0  0  0  0  0  0  0
   -4.1181   -2.8586   -2.6260 H   0  0  0  0  0  0  0  0  0  0  0  0
   -5.3725   -1.7870   -1.9874 H   0  0  0  0  0  0  0  0  0  0  0  0
   -5.0553   -5.0847   -8.4397 H   0  0  0  0  0  0  0  0  0  0  0  0
   -4.4030   -4.0144   -7.1964 H   0  0  0  0  0  0  0  0  0  0  0  0
   -6.0374   -2.2469   -7.8476 H   0  0  0  0  0  0  0  0  0  0  0  0
   -6.7113   -3.3218   -9.0852 H   0  0  0  0  0  0  0  0  0  0  0  0
   -7.5467   -7.6443   -7.5648 H   0  0  0  0  0  0  0  0  0  0  0  0
   -6.2083   -8.1979   -4.0041 H   0  0  0  0  0  0  0  0  0  0  0  0
   -4.8352   -8.4086   -5.1220 H   0  0  0  0  0  0  0  0  0  0  0  0
   -4.5230   -3.2589  -10.2961 H   0  0  0  0  0  0  0  0  0  0  0  0
   -3.8539   -2.2095   -9.0233 H   0  0  0  0  0  0  0  0  0  0  0  0
   -8.3236   -9.7459   -6.8891 H   0  0  0  0  0  0  0  0  0  0  0  0
   -8.6324   -9.2296   -5.2182 H   0  0  0  0  0  0  0  0  0  0  0  0
   -5.9827   -9.9671   -6.4794 H   0  0  0  0  0  0  0  0  0  0  0  0
   -6.6111  -10.4112   -4.8710 H   0  0  0  0  0  0  0  0  0  0  0  0
   -9.4665   -6.6227   -8.0480 H   0  0  0  0  0  0  0  0  0  0  0  0
  -10.8826   -4.6805   -7.1228 H   0  0  0  0  0  0  0  0  0  0  0  0
   -3.2316   -0.1806  -12.2657 H   0  0  0  0  0  0  0  0  0  0  0  0
   -3.0134   -1.5200  -11.2783 H   0  0  0  0  0  0  0  0  0  0  0  0
   -5.1296    1.0022  -12.1949 H   0  0  0  0  0  0  0  0  0  0  0  0
   -6.3822    0.5586  -11.1705 H   0  0  0  0  0  0  0  0  0  0  0  0
  -14.2345   -6.1463   -6.8544 H   0  0  0  0  0  0  0  0  0  0  0  0
  -13.4404   -4.6761   -7.0221 H   0  0  0  0  0  0  0  0  0  0  0  0
  2  1  1  0  0  0  0 
  1  3  1  0  0  0  0 
  2  4  1  0  0  0  0 
  2  5  1  0  0  0  0 
  3  6  1  0  0  0  0 
  3  7  2  0  0  0  0 
  4  8  1  0  0  0  0 
  5  9  1  0  0  0  0 
  5 10  2  0  0  0  0 
  6 11  1  0  0  0  0 
  6 12  2  0  0  0  0 
  7 13  1  0  0  0  0 
 14  8  1  0  0  0  0 
  8 15  2  0  0  0  0 
 16  9  1  0  0  0  0 
 11 13  1  0  0  0  0 
 11 17  2  0  0  0  0 
 12 18  1  0  0  0  0 
 14 19  1  0  0  0  0 
 14 20  1  0  0  0  0 
 16 21  1  0  0  0  0 
 16 22  1  0  0  0  0 
 17 23  1  0  0  0  0 
 18 23  2  0  0  0  0 
 19 24  1  0  0  0  0 
 20 25  1  0  0  0  0 
 21 26  1  0  0  0  0 
 21 27  2  0  0  0  0 
 22 28  1  0  0  0  0 
 24 29  2  0  0  0  0 
 24 30  1  0  0  0  0 
 25 31  2  0  0  0  0 
 33 26  1  0  0  0  0 
 29 34  1  0  0  0  0 
 30 35  1  0  0  0  0 
 32 25  1  0  0  0  0 
 32 36  1  0  0  0  0 
 32 37  1  0  0  0  0 
 33 38  1  0  0  0  0 
 33 39  1  0  0  0  0 
 34 35  2  0  0  0  0 
 36 40  1  0  0  0  0 
 37 41  1  0  0  0  0 
 38 42  1  0  0  0  0 
 39 43  1  0  0  0  0 
 39 44  2  0  0  0  0 
 40 41  1  0  0  0  0 
 41 45  2  0  0  0  0 
 42 46  2  0  0  0  0 
 42 47  1  0  0  0  0 
 48 43  1  0  0  0  0 
 46 49  1  0  0  0  0 
 47 50  2  0  0  0  0 
 48 51  1  0  0  0  0 
 48 52  1  0  0  0  0 
 49 53  2  0  0  0  0 
 50 53  1  0  0  0  0 
 51 54  1  0  0  0  0 
 51 55  2  0  0  0  0 
 52 56  1  0  0  0  0 
 53 57  1  0  0  0  0 
 58 54  1  0  0  0  0 
 56 59  1  0  0  0  0 
 58 60  1  0  0  0  0 
 58 61  1  0  0  0  0 
 59 62  1  0  0  0  0 
 59 63  1  0  0  0  0 
 59 64  1  0  0  0  0 
 60 65  1  0  0  0  0 
 60 66  2  0  0  0  0 
 61 67  1  0  0  0  0 
 68 65  1  0  0  0  0 
 67 69  1  0  0  0  0 
 67 70  1  0  0  0  0 
 68 71  1  0  0  0  0 
 68 72  1  0  0  0  0 
 71 73  2  0  0  0  0 
 71 74  1  0  0  0  0 
 72 75  1  0  0  0  0 
 76 74  1  0  0  0  0 
 74 77  1  0  0  0  0 
 75 78  1  0  0  0  0 
 76 79  1  0  0  0  0 
 76 80  1  0  0  0  0 
 77 81  1  0  0  0  0 
 78 82  1  0  0  0  0 
 79 83  1  0  0  0  0 
 79 84  2  0  0  0  0 
 80 81  1  0  0  0  0 
 82 85  2  0  0  0  0 
 83 86  1  0  0  0  0 
 85 87  1  0  0  0  0 
 85 88  1  0  0  0  0 
 86 89  1  0  0  0  0 
 89 90  1  0  0  0  0 
 89 91  2  0  0  0  0 
 92  1  1  0  0  0  0 
 93  1  1  0  0  0  0 
  2 94  1  0  0  0  0 
 95  4  1  0  0  0  0 
 96  7  1  0  0  0  0 
 97  9  1  0  0  0  0 
 98 12  1  0  0  0  0 
 99 13  1  0  0  0  0 
 14100  1  0  0  0  0 
 16101  1  0  0  0  0 
102 17  1  0  0  0  0 
103 18  1  0  0  0  0 
104 19  1  0  0  0  0 
105 19  1  0  0  0  0 
106 20  1  0  0  0  0 
107 22  1  0  0  0  0 
108 22  1  0  0  0  0 
109 23  1  0  0  0  0 
110 26  1  0  0  0  0 
111 28  1  0  0  0  0 
112 29  1  0  0  0  0 
113 30  1  0  0  0  0 
 32114  1  0  0  0  0 
 33115  1  0  0  0  0 
116 35  1  0  0  0  0 
117 36  1  0  0  0  0 
118 36  1  0  0  0  0 
119 37  1  0  0  0  0 
120 38  1  0  0  0  0 
121 38  1  0  0  0  0 
122 40  1  0  0  0  0 
123 40  1  0  0  0  0 
124 43  1  0  0  0  0 
125 46  1  0  0  0  0 
126 47  1  0  0  0  0 
 48127  1  0  0  0  0 
128 49  1  0  0  0  0 
129 50  1  0  0  0  0 
130 52  1  0  0  0  0 
131 52  1  0  0  0  0 
132 54  1  0  0  0  0 
133 57  1  0  0  0  0 
 58134  1  0  0  0  0 
135 61  1  0  0  0  0 
136 61  1  0  0  0  0 
137 62  1  0  0  0  0 
138 62  1  0  0  0  0 
139 62  1  0  0  0  0 
140 63  1  0  0  0  0 
141 63  1  0  0  0  0 
142 63  1  0  0  0  0 
143 64  1  0  0  0  0 
144 64  1  0  0  0  0 
145 64  1  0  0  0  0 
146 65  1  0  0  0  0 
147 67  1  0  0  0  0 
 68148  1  0  0  0  0 
149 69  1  0  0  0  0 
150 69  1  0  0  0  0 
151 69  1  0  0  0  0 
152 70  1  0  0  0  0 
153 70  1  0  0  0  0 
154 70  1  0  0  0  0 
155 72  1  0  0  0  0 
156 72  1  0  0  0  0 
157 75  1  0  0  0  0 
158 75  1  0  0  0  0 
 76159  1  0  0  0  0 
160 77  1  0  0  0  0 
161 77  1  0  0  0  0 
162 78  1  0  0  0  0 
163 78  1  0  0  0  0 
164 80  1  0  0  0  0 
165 80  1  0  0  0  0 
166 81  1  0  0  0  0 
167 81  1  0  0  0  0 
168 83  1  0  0  0  0 
169 86  1  0  0  0  0 
170 87  1  0  0  0  0 
171 87  1  0  0  0  0 
172 88  1  0  0  0  0 
173 88  1  0  0  0  0 
174 90  1  0  0  0  0 
175 90  1  0  0  0  0 
M  END
> <cdk:Title>
goserelin

> <Conformer>
1

> <SuperDrugID>
SD001178

$$$$
