octodrine
  CDK     0628171801

 28 27  0  0  0  0  0  0  0  0999 V2000
   -2.7735   -4.7236   -0.5409 C   0  0  0  0  0  0  0  0  0  0  0  0
   -2.6524   -3.3809    0.2354 C   0  0  2  0  0  0  0  0  0  0  0  0
   -4.0477   -2.9475    0.7693 C   0  0  0  0  0  0  0  0  0  0  0  0
   -1.9803   -2.2837   -0.6560 C   0  0  1  0  0  0  0  0  0  0  0  0
   -1.6712   -0.9397    0.0651 C   0  0  1  0  0  0  0  0  0  0  0  0
   -0.9764    0.0982   -0.8608 C   0  0  2  0  0  0  0  0  0  0  0  0
   -0.6899    1.4688   -0.1786 C   0  0  1  0  0  0  0  0  0  0  0  0
    0.0500    2.4452   -1.1257 C   0  0  0  0  0  0  0  0  0  0  0  0
   -1.9359    2.1145    0.2666 N   0  0  1  0  0  0  0  0  0  0  0  0
   -3.1965   -5.5000    0.1006 H   0  0  0  0  0  0  0  0  0  0  0  0
   -3.4175   -4.6056   -1.4148 H   0  0  0  0  0  0  0  0  0  0  0  0
   -1.7914   -5.0647   -0.8745 H   0  0  0  0  0  0  0  0  0  0  0  0
   -2.0069   -3.5679    1.1015 H   0  0  0  0  0  0  0  0  0  0  0  0
   -4.5409   -3.7770    1.2786 H   0  0  0  0  0  0  0  0  0  0  0  0
   -4.6825   -2.6180   -0.0556 H   0  0  0  0  0  0  0  0  0  0  0  0
   -3.9512   -2.1351    1.4905 H   0  0  0  0  0  0  0  0  0  0  0  0
   -1.0357   -2.6824   -1.0419 H   0  0  0  0  0  0  0  0  0  0  0  0
   -2.6258   -2.0839   -1.5180 H   0  0  0  0  0  0  0  0  0  0  0  0
   -2.6044   -0.5070    0.4288 H   0  0  0  0  0  0  0  0  0  0  0  0
   -1.0278   -1.1376    0.9255 H   0  0  0  0  0  0  0  0  0  0  0  0
   -1.6122    0.2675   -1.7345 H   0  0  0  0  0  0  0  0  0  0  0  0
   -0.0301   -0.3279   -1.2127 H   0  0  0  0  0  0  0  0  0  0  0  0
   -0.0651    1.3021    0.7040 H   0  0  0  0  0  0  0  0  0  0  0  0
    1.0050    2.0204   -1.4388 H   0  0  0  0  0  0  0  0  0  0  0  0
    0.2465    3.3875   -0.6116 H   0  0  0  0  0  0  0  0  0  0  0  0
   -0.5509    2.6537   -2.0141 H   0  0  0  0  0  0  0  0  0  0  0  0
   -2.3372    1.5228    0.9970 H   0  0  0  0  0  0  0  0  0  0  0  0
   -1.6781    3.0013    0.7082 H   0  0  0  0  0  0  0  0  0  0  0  0
  1  2  1  0  0  0  0 
  2  3  1  0  0  0  0 
  2  4  1  0  0  0  0 
  4  5  1  0  0  0  0 
  5  6  1  0  0  0  0 
  7  6  1  0  0  0  0 
  7  8  1  0  0  0  0 
  7  9  1  0  0  0  0 
  1 10  1  0  0  0  0 
  1 11  1  0  0  0  0 
  1 12  1  0  0  0  0 
  2 13  1  0  0  0  0 
  3 14  1  0  0  0  0 
  3 15  1  0  0  0  0 
  3 16  1  0  0  0  0 
  4 17  1  0  0  0  0 
  4 18  1  0  0  0  0 
  5 19  1  0  0  0  0 
  5 20  1  0  0  0  0 
  6 21  1  0  0  0  0 
  6 22  1  0  0  0  0 
  7 23  1  0  0  0  0 
  8 24  1  0  0  0  0 
  8 25  1  0  0  0  0 
  8 26  1  0  0  0  0 
  9 27  1  0  0  0  0 
  9 28  1  0  0  0  0 
M  END
> <cdk:Title>
octodrine

> <Conformer>
1

> <SuperDrugID>
SD001769

$$$$
