trimethobenzamide
  CDK     0628171801

 56 57  0  0  0  0  0  0  0  0999 V2000
    2.7195    2.5653    3.8441 C   0  0  0  0  0  0  0  0  0  0  0  0
    4.0348    2.2078    3.9821 N   0  0  0  0  0  0  0  0  0  0  0  0
    2.3024    3.5906    4.4380 O   0  0  0  0  0  0  0  0  0  0  0  0
    1.8173    1.8318    3.0204 C   0  0  0  0  0  0  0  0  0  0  0  0
    5.0076    2.9244    4.7511 C   0  0  1  0  0  0  0  0  0  0  0  0
    2.2813    1.0242    1.9544 C   0  0  0  0  0  0  0  0  0  0  0  0
    0.4178    1.9216    3.2203 C   0  0  0  0  0  0  0  0  0  0  0  0
    4.7254    2.8260    6.2064 C   0  0  0  0  0  0  0  0  0  0  0  0
    1.3826    0.3793    1.0790 C   0  0  0  0  0  0  0  0  0  0  0  0
   -0.4930    1.2840    2.3541 C   0  0  0  0  0  0  0  0  0  0  0  0
    4.8771    1.5886    6.8739 C   0  0  0  0  0  0  0  0  0  0  0  0
    4.2679    3.9448    6.9403 C   0  0  0  0  0  0  0  0  0  0  0  0
    1.8637   -0.3715    0.0391 O   0  0  0  0  0  0  0  0  0  0  0  0
   -0.0097    0.5018    1.2829 C   0  0  0  0  0  0  0  0  0  0  0  0
   -1.8404    1.4161    2.5674 O   0  0  0  0  0  0  0  0  0  0  0  0
    4.5658    1.4692    8.2410 C   0  0  0  0  0  0  0  0  0  0  0  0
    3.9477    3.8253    8.3040 C   0  0  0  0  0  0  0  0  0  0  0  0
    2.1290    0.4094   -1.1416 C   0  0  0  0  0  0  0  0  0  0  0  0
   -0.8811   -0.1053    0.4161 O   0  0  0  0  0  0  0  0  0  0  0  0
   -2.3806    2.6262    2.0053 C   0  0  0  0  0  0  0  0  0  0  0  0
    4.1061    2.5894    8.9630 C   0  0  0  0  0  0  0  0  0  0  0  0
   -1.3522   -1.3851    0.8753 C   0  0  0  0  0  0  0  0  0  0  0  0
    3.7780    2.4522   10.2839 O   0  0  0  0  0  0  0  0  0  0  0  0
    4.7305    3.0459   11.1891 C   0  0  1  0  0  0  0  0  0  0  0  0
    4.2474    2.7955   12.6374 C   0  0  1  0  0  0  0  0  0  0  0  0
    4.9577    3.6016   13.6833 N   0  0  1  0  0  0  0  0  0  0  0  0
    4.2759    3.5307   15.0097 C   0  0  0  0  0  0  0  0  0  0  0  0
    6.4193    3.3170   13.7928 C   0  0  0  0  0  0  0  0  0  0  0  0
    4.3366    1.4028    3.5328 H   0  0  0  0  0  0  0  0  0  0  0  0
    5.9945    2.4999    4.5532 H   0  0  0  0  0  0  0  0  0  0  0  0
    5.0337    3.9644    4.4116 H   0  0  0  0  0  0  0  0  0  0  0  0
    3.2836    0.9139    1.7860 H   0  0  0  0  0  0  0  0  0  0  0  0
    0.0437    2.4646    4.0035 H   0  0  0  0  0  0  0  0  0  0  0  0
    5.2104    0.7639    6.3653 H   0  0  0  0  0  0  0  0  0  0  0  0
    4.1446    4.8492    6.4796 H   0  0  0  0  0  0  0  0  0  0  0  0
    4.6663    0.5623    8.7044 H   0  0  0  0  0  0  0  0  0  0  0  0
    3.5899    4.6348    8.8170 H   0  0  0  0  0  0  0  0  0  0  0  0
    2.4609   -0.2659   -1.9301 H   0  0  0  0  0  0  0  0  0  0  0  0
    1.2311    0.9253   -1.4929 H   0  0  0  0  0  0  0  0  0  0  0  0
    2.9234    1.1388   -0.9636 H   0  0  0  0  0  0  0  0  0  0  0  0
   -3.4484    2.6545    2.2208 H   0  0  0  0  0  0  0  0  0  0  0  0
   -1.9208    3.5143    2.4478 H   0  0  0  0  0  0  0  0  0  0  0  0
   -2.2539    2.6518    0.9204 H   0  0  0  0  0  0  0  0  0  0  0  0
   -1.9586   -1.8298    0.0848 H   0  0  0  0  0  0  0  0  0  0  0  0
   -0.5263   -2.0672    1.0939 H   0  0  0  0  0  0  0  0  0  0  0  0
   -1.9800   -1.2767    1.7625 H   0  0  0  0  0  0  0  0  0  0  0  0
    5.7185    2.5973   11.0453 H   0  0  0  0  0  0  0  0  0  0  0  0
    4.8007    4.1256   11.0232 H   0  0  0  0  0  0  0  0  0  0  0  0
    3.1845    3.0557   12.6570 H   0  0  0  0  0  0  0  0  0  0  0  0
    4.3319    1.7276   12.8607 H   0  0  0  0  0  0  0  0  0  0  0  0
    4.3456    2.5261   15.4351 H   0  0  0  0  0  0  0  0  0  0  0  0
    3.2212    3.7984   14.9202 H   0  0  0  0  0  0  0  0  0  0  0  0
    4.7269    4.2400   15.7066 H   0  0  0  0  0  0  0  0  0  0  0  0
    6.6024    2.2495   13.9392 H   0  0  0  0  0  0  0  0  0  0  0  0
    6.8662    3.8630   14.6281 H   0  0  0  0  0  0  0  0  0  0  0  0
    6.9324    3.6439   12.8872 H   0  0  0  0  0  0  0  0  0  0  0  0
  1  2  1  0  0  0  0 
  1  3  2  0  0  0  0 
  1  4  1  0  0  0  0 
  2  5  1  0  0  0  0 
  4  6  2  0  0  0  0 
  4  7  1  0  0  0  0 
  5  8  1  0  0  0  0 
  6  9  1  0  0  0  0 
  7 10  2  0  0  0  0 
  8 11  2  0  0  0  0 
  8 12  1  0  0  0  0 
  9 13  1  0  0  0  0 
  9 14  2  0  0  0  0 
 10 14  1  0  0  0  0 
 10 15  1  0  0  0  0 
 11 16  1  0  0  0  0 
 12 17  2  0  0  0  0 
 13 18  1  0  0  0  0 
 14 19  1  0  0  0  0 
 15 20  1  0  0  0  0 
 16 21  2  0  0  0  0 
 17 21  1  0  0  0  0 
 19 22  1  0  0  0  0 
 21 23  1  0  0  0  0 
 23 24  1  0  0  0  0 
 24 25  1  0  0  0  0 
 25 26  1  0  0  0  0 
 26 27  1  0  0  0  0 
 26 28  1  0  0  0  0 
  2 29  1  0  0  0  0 
  5 30  1  0  0  0  0 
  5 31  1  0  0  0  0 
  6 32  1  0  0  0  0 
  7 33  1  0  0  0  0 
 11 34  1  0  0  0  0 
 12 35  1  0  0  0  0 
 16 36  1  0  0  0  0 
 17 37  1  0  0  0  0 
 18 38  1  0  0  0  0 
 18 39  1  0  0  0  0 
 18 40  1  0  0  0  0 
 20 41  1  0  0  0  0 
 20 42  1  0  0  0  0 
 20 43  1  0  0  0  0 
 22 44  1  0  0  0  0 
 22 45  1  0  0  0  0 
 22 46  1  0  0  0  0 
 24 47  1  0  0  0  0 
 24 48  1  0  0  0  0 
 25 49  1  0  0  0  0 
 25 50  1  0  0  0  0 
 27 51  1  0  0  0  0 
 27 52  1  0  0  0  0 
 27 53  1  0  0  0  0 
 28 54  1  0  0  0  0 
 28 55  1  0  0  0  0 
 28 56  1  0  0  0  0 
M  END
> <cdk:Title>
trimethobenzamide

> <Conformer>
1

> <SuperDrugID>
SD002483

$$$$
