aminosalicylic acid
  CDK     0628171801

 18 18  0  0  0  0  0  0  0  0999 V2000
   -0.1172   -5.4801   -1.2077 N   0  0  0  0  0  0  0  0  0  0  0  0
   -0.0566   -4.1509   -0.9866 C   0  0  0  0  0  0  0  0  0  0  0  0
   -1.2346   -3.3806   -0.9643 C   0  0  0  0  0  0  0  0  0  0  0  0
   -1.1810   -1.9933   -0.7231 C   0  0  0  0  0  0  0  0  0  0  0  0
   -2.3686   -1.3331   -0.7317 O   0  0  0  0  0  0  0  0  0  0  0  0
    0.0648   -1.3486   -0.4797 C   0  0  0  0  0  0  0  0  0  0  0  0
    1.2419   -2.1416   -0.5178 C   0  0  0  0  0  0  0  0  0  0  0  0
    1.1838   -3.5243   -0.7707 C   0  0  0  0  0  0  0  0  0  0  0  0
    0.1654    0.0434   -0.2006 C   0  0  0  0  0  0  0  0  0  0  0  0
    1.3585    0.6409    0.0377 O   0  0  0  0  0  0  0  0  0  0  0  0
   -0.8322    0.7975   -0.1423 O   0  0  0  0  0  0  0  0  0  0  0  0
    0.6930   -6.0137   -1.1895 H   0  0  0  0  0  0  0  0  0  0  0  0
   -0.9724   -5.9084   -1.3736 H   0  0  0  0  0  0  0  0  0  0  0  0
   -2.1414   -3.8322   -1.1147 H   0  0  0  0  0  0  0  0  0  0  0  0
   -2.4122   -0.8816    0.1367 H   0  0  0  0  0  0  0  0  0  0  0  0
    2.1655   -1.7257   -0.3609 H   0  0  0  0  0  0  0  0  0  0  0  0
    2.0508   -4.0691   -0.7889 H   0  0  0  0  0  0  0  0  0  0  0  0
    1.3956    1.6004    0.2330 H   0  0  0  0  0  0  0  0  0  0  0  0
  1  2  1  0  0  0  0 
  2  3  2  0  0  0  0 
  3  4  1  0  0  0  0 
  4  5  1  0  0  0  0 
  4  6  2  0  0  0  0 
  6  7  1  0  0  0  0 
  7  8  2  0  0  0  0 
  2  8  1  0  0  0  0 
  6  9  1  0  0  0  0 
  9 10  1  0  0  0  0 
  9 11  2  0  0  0  0 
  1 12  1  0  0  0  0 
  1 13  1  0  0  0  0 
  3 14  1  0  0  0  0 
  5 15  1  0  0  0  0 
  7 16  1  0  0  0  0 
  8 17  1  0  0  0  0 
 10 18  1  0  0  0  0 
M  END
> <cdk:Title>
aminosalicylic acid

> <Conformer>
1

> <SuperDrugID>
SD001837

$$$$
