sulbactam
  CDK     0628171801

 26 27  0  0  0  0  0  0  0  0999 V2000
   -3.3578    3.4915    1.9108 C   0  0  0  0  0  0  0  0  0  0  0  0
   -2.4881    2.1985    1.8568 C   0  0  2  0  0  0  0  0  0  0  0  0
   -2.1396    1.7640    3.3157 C   0  0  0  0  0  0  0  0  0  0  0  0
   -1.1721    2.3036    0.9875 C   0  0  1  0  0  0  0  0  0  0  0  0
   -1.0315    0.9758    0.4802 N   0  0  0  0  0  0  0  0  0  0  0  0
   -2.0549    0.1797   -0.0886 C   0  0  1  0  0  0  0  0  0  0  0  0
   -1.1194   -1.0248    0.2317 C   0  0  2  0  0  0  0  0  0  0  0  0
   -0.1690   -0.0162    0.6925 C   0  0  0  0  0  0  0  0  0  0  0  0
    0.9617   -0.0841    1.2266 O   0  0  0  0  0  0  0  0  0  0  0  0
   -3.3694    0.8008    1.0233 S   0  0  2  0  0  0  0  0  0  0  0  0
   -4.6070    1.3239    0.1493 O   0  0  0  0  0  0  0  0  0  0  0  0
   -3.8305   -0.3376    2.0523 O   0  0  0  0  0  0  0  0  0  0  0  0
   -1.1704    3.2645   -0.1446 C   0  0  0  0  0  0  0  0  0  0  0  0
   -2.0785    3.1848   -1.1466 O   0  0  0  0  0  0  0  0  0  0  0  0
   -0.3065    4.1674   -0.2116 O   0  0  0  0  0  0  0  0  0  0  0  0
   -3.7060    3.7839    0.9204 H   0  0  0  0  0  0  0  0  0  0  0  0
   -2.7762    4.3166    2.3272 H   0  0  0  0  0  0  0  0  0  0  0  0
   -4.2394    3.3395    2.5368 H   0  0  0  0  0  0  0  0  0  0  0  0
   -1.5438    0.8489    3.3235 H   0  0  0  0  0  0  0  0  0  0  0  0
   -1.5660    2.5446    3.8189 H   0  0  0  0  0  0  0  0  0  0  0  0
   -3.0463    1.5814    3.8967 H   0  0  0  0  0  0  0  0  0  0  0  0
   -0.3174    2.5396    1.6304 H   0  0  0  0  0  0  0  0  0  0  0  0
   -2.2034    0.3980   -1.1492 H   0  0  0  0  0  0  0  0  0  0  0  0
   -0.7777   -1.5683   -0.6537 H   0  0  0  0  0  0  0  0  0  0  0  0
   -1.4826   -1.6715    1.0346 H   0  0  0  0  0  0  0  0  0  0  0  0
   -2.0475    3.8143   -1.8985 H   0  0  0  0  0  0  0  0  0  0  0  0
  1  2  1  0  0  0  0 
  2  3  1  0  0  0  0 
  2  4  1  0  0  0  0 
  4  5  1  0  0  0  0 
  6  5  1  0  0  0  0 
  6  7  1  0  0  0  0 
  7  8  1  0  0  0  0 
  5  8  1  0  0  0  0 
  8  9  2  0  0  0  0 
  6 10  1  0  0  0  0 
  2 10  1  0  0  0  0 
 10 11  2  0  0  0  0 
 10 12  2  0  0  0  0 
  4 13  1  0  0  0  0 
 13 14  1  0  0  0  0 
 13 15  2  0  0  0  0 
  1 16  1  0  0  0  0 
  1 17  1  0  0  0  0 
  1 18  1  0  0  0  0 
  3 19  1  0  0  0  0 
  3 20  1  0  0  0  0 
  3 21  1  0  0  0  0 
  4 22  1  0  0  0  0 
  6 23  1  0  0  0  0 
  7 24  1  0  0  0  0 
  7 25  1  0  0  0  0 
 14 26  1  0  0  0  0 
M  END
> <cdk:Title>
sulbactam

> <Conformer>
1

> <SuperDrugID>
SD002239

$$$$
