levorphanol
  CDK     0628171801

 42 45  0  0  0  0  0  0  0  0999 V2000
    1.6464   -0.6725   -3.2574 C   0  0  0  0  0  0  0  0  0  0  0  0
    0.6848   -0.5330   -2.1258 N   0  0  2  0  0  0  0  0  0  0  0  0
   -0.5849   -1.3383   -2.2374 C   0  0  1  0  0  0  0  0  0  0  0  0
    0.5294    0.8782   -1.6552 C   0  0  2  0  0  0  0  0  0  0  0  0
   -1.3073   -1.3386   -0.8557 C   0  0  1  0  0  0  0  0  0  0  0  0
   -1.5608   -0.8610   -3.3558 C   0  0  1  0  0  0  0  0  0  0  0  0
   -0.3671    0.9772   -0.3930 C   0  0  2  0  0  0  0  0  0  0  0  0
   -1.6985    0.1515   -0.5119 C   0  0  1  0  0  0  0  0  0  0  0  0
   -2.5178   -2.3310   -0.7746 C   0  0  1  0  0  0  0  0  0  0  0  0
   -2.4794    0.2433   -2.9589 C   0  0  0  0  0  0  0  0  0  0  0  0
   -2.5407    0.7587   -1.6269 C   0  0  0  0  0  0  0  0  0  0  0  0
   -2.3988    0.1219    0.9038 C   0  0  2  0  0  0  0  0  0  0  0  0
   -3.2121   -2.2800    0.6080 C   0  0  2  0  0  0  0  0  0  0  0  0
   -3.3104    0.7802   -3.9691 C   0  0  0  0  0  0  0  0  0  0  0  0
   -3.3735    1.8889   -1.4030 C   0  0  0  0  0  0  0  0  0  0  0  0
   -3.6187   -0.8328    0.9770 C   0  0  1  0  0  0  0  0  0  0  0  0
   -4.1630    1.8574   -3.6993 C   0  0  0  0  0  0  0  0  0  0  0  0
   -4.1879    2.4260   -2.4174 C   0  0  0  0  0  0  0  0  0  0  0  0
   -4.9942    3.4838   -2.1455 O   0  0  0  0  0  0  0  0  0  0  0  0
   -0.5795   -1.6968   -0.1172 H   0  0  0  0  0  0  0  0  0  0  0  0
   -0.2986   -2.3725   -2.4574 H   0  0  0  0  0  0  0  0  0  0  0  0
    1.7389   -1.7169   -3.5598 H   0  0  0  0  0  0  0  0  0  0  0  0
    1.3287   -0.0870   -4.1231 H   0  0  0  0  0  0  0  0  0  0  0  0
    2.6349   -0.3278   -2.9488 H   0  0  0  0  0  0  0  0  0  0  0  0
    0.1123    1.4976   -2.4528 H   0  0  0  0  0  0  0  0  0  0  0  0
    1.5107    1.2909   -1.4029 H   0  0  0  0  0  0  0  0  0  0  0  0
   -0.9868   -0.5516   -4.2307 H   0  0  0  0  0  0  0  0  0  0  0  0
   -2.1721   -1.7102   -3.6740 H   0  0  0  0  0  0  0  0  0  0  0  0
   -0.5880    2.0296   -0.1940 H   0  0  0  0  0  0  0  0  0  0  0  0
    0.2239    0.6073    0.4518 H   0  0  0  0  0  0  0  0  0  0  0  0
   -3.2676   -2.1008   -1.5352 H   0  0  0  0  0  0  0  0  0  0  0  0
   -2.1657   -3.3504   -0.9538 H   0  0  0  0  0  0  0  0  0  0  0  0
   -2.7072    1.1195    1.2188 H   0  0  0  0  0  0  0  0  0  0  0  0
   -1.6792   -0.2134    1.6587 H   0  0  0  0  0  0  0  0  0  0  0  0
   -2.5314   -2.6743    1.3671 H   0  0  0  0  0  0  0  0  0  0  0  0
   -4.1011   -2.9138    0.5961 H   0  0  0  0  0  0  0  0  0  0  0  0
   -3.2952    0.3906   -4.9154 H   0  0  0  0  0  0  0  0  0  0  0  0
   -3.4020    2.3456   -0.4945 H   0  0  0  0  0  0  0  0  0  0  0  0
   -4.0217   -0.8232    1.9928 H   0  0  0  0  0  0  0  0  0  0  0  0
   -4.4059   -0.4841    0.3038 H   0  0  0  0  0  0  0  0  0  0  0  0
   -4.7606    2.2281   -4.4402 H   0  0  0  0  0  0  0  0  0  0  0  0
   -5.4923    3.6644   -2.9699 H   0  0  0  0  0  0  0  0  0  0  0  0
  1  2  1  0  0  0  0 
  3  2  1  0  0  0  0 
  2  4  1  0  0  0  0 
  5  3  1  0  0  0  0 
  3  6  1  0  0  0  0 
  3 21  1  0  0  0  0 
  4  7  1  0  0  0  0 
  8  5  1  0  0  0  0 
  5  9  1  0  0  0  0 
  5 20  1  0  0  0  0 
  6 10  1  0  0  0  0 
  8  7  1  0  0  0  0 
  8 11  1  0  0  0  0 
  8 12  1  0  0  0  0 
  9 13  1  0  0  0  0 
 10 11  2  0  0  0  0 
 10 14  1  0  0  0  0 
 11 15  1  0  0  0  0 
 12 16  1  0  0  0  0 
 13 16  1  0  0  0  0 
 14 17  2  0  0  0  0 
 15 18  2  0  0  0  0 
 17 18  1  0  0  0  0 
 18 19  1  0  0  0  0 
  1 22  1  0  0  0  0 
  1 23  1  0  0  0  0 
  1 24  1  0  0  0  0 
  4 25  1  0  0  0  0 
  4 26  1  0  0  0  0 
  6 27  1  0  0  0  0 
  6 28  1  0  0  0  0 
  7 29  1  0  0  0  0 
  7 30  1  0  0  0  0 
  9 31  1  0  0  0  0 
  9 32  1  0  0  0  0 
 12 33  1  0  0  0  0 
 12 34  1  0  0  0  0 
 13 35  1  0  0  0  0 
 13 36  1  0  0  0  0 
 14 37  1  0  0  0  0 
 15 38  1  0  0  0  0 
 16 39  1  0  0  0  0 
 16 40  1  0  0  0  0 
 17 41  1  0  0  0  0 
 19 42  1  0  0  0  0 
M  END
> <cdk:Title>
levorphanol

> <Conformer>
1

> <SuperDrugID>
SD001389

$$$$
