meturedepa
  CDK     0628171801

 40 41  0  0  0  0  0  0  0  0999 V2000
    0.7709   -2.0086    1.2733 P   0  0  2  0  0  0  0  0  0  0  0  0
    1.5503   -2.8001    2.3935 N   0  0  0  0  0  0  0  0  0  0  0  0
    0.4234   -2.9334    0.1821 O   0  0  0  0  0  0  0  0  0  0  0  0
    1.7415   -0.7582    0.7573 N   0  0  2  0  0  0  0  0  0  0  0  0
   -0.5703   -1.3117    1.9623 N   0  0  2  0  0  0  0  0  0  0  0  0
    1.9974   -2.3824    3.5273 C   0  0  0  0  0  0  0  0  0  0  0  0
    1.3932    0.1120   -0.4040 C   0  0  1  0  0  0  0  0  0  0  0  0
    2.4825   -0.9593   -0.5136 C   0  0  1  0  0  0  0  0  0  0  0  0
   -1.5439   -2.1488    2.7276 C   0  0  2  0  0  0  0  0  0  0  0  0
   -1.8954   -1.5774    1.3507 C   0  0  1  0  0  0  0  0  0  0  0  0
    2.6204   -3.1786    4.4225 O   0  0  0  0  0  0  0  0  0  0  0  0
    1.8320   -1.1201    3.9073 O   0  0  0  0  0  0  0  0  0  0  0  0
    3.0554   -4.4914    4.0022 C   0  0  2  0  0  0  0  0  0  0  0  0
    3.8115   -5.1887    5.1489 C   0  0  0  0  0  0  0  0  0  0  0  0
   -2.1598   -1.4155    3.9452 C   0  0  0  0  0  0  0  0  0  0  0  0
   -1.4987   -3.7017    2.8176 C   0  0  0  0  0  0  0  0  0  0  0  0
    0.1321   -0.0884   -1.2924 C   0  0  0  0  0  0  0  0  0  0  0  0
    1.9079    1.5702   -0.2735 C   0  0  0  0  0  0  0  0  0  0  0  0
    3.5066   -0.5828   -0.5256 H   0  0  0  0  0  0  0  0  0  0  0  0
    2.2470   -1.8086   -1.1589 H   0  0  0  0  0  0  0  0  0  0  0  0
   -2.5709   -0.7211    1.3425 H   0  0  0  0  0  0  0  0  0  0  0  0
   -1.9802   -2.3010    0.5369 H   0  0  0  0  0  0  0  0  0  0  0  0
    2.4265   -1.0015    4.6771 H   0  0  0  0  0  0  0  0  0  0  0  0
    3.7196   -4.4133    3.1361 H   0  0  0  0  0  0  0  0  0  0  0  0
    2.1928   -5.1087    3.7342 H   0  0  0  0  0  0  0  0  0  0  0  0
    4.1261   -6.1867    4.8374 H   0  0  0  0  0  0  0  0  0  0  0  0
    4.6951   -4.6125    5.4273 H   0  0  0  0  0  0  0  0  0  0  0  0
    3.1604   -5.2808    6.0188 H   0  0  0  0  0  0  0  0  0  0  0  0
   -2.1429   -0.3304    3.8231 H   0  0  0  0  0  0  0  0  0  0  0  0
   -3.1950   -1.7334    4.0807 H   0  0  0  0  0  0  0  0  0  0  0  0
   -1.5928   -1.6672    4.8420 H   0  0  0  0  0  0  0  0  0  0  0  0
   -0.8020   -3.9964    3.6027 H   0  0  0  0  0  0  0  0  0  0  0  0
   -1.1925   -4.1722    1.8837 H   0  0  0  0  0  0  0  0  0  0  0  0
   -2.4906   -4.0793    3.0731 H   0  0  0  0  0  0  0  0  0  0  0  0
    0.2666    0.4303   -2.2436 H   0  0  0  0  0  0  0  0  0  0  0  0
   -0.0715   -1.1343   -1.5155 H   0  0  0  0  0  0  0  0  0  0  0  0
   -0.7351    0.3371   -0.7846 H   0  0  0  0  0  0  0  0  0  0  0  0
    1.1122    2.2002    0.1273 H   0  0  0  0  0  0  0  0  0  0  0  0
    2.2000    1.9529   -1.2554 H   0  0  0  0  0  0  0  0  0  0  0  0
    2.7710    1.6449    0.3942 H   0  0  0  0  0  0  0  0  0  0  0  0
  2  1  1  0  0  0  0 
  1  3  2  0  0  0  0 
  1  4  1  0  0  0  0 
  1  5  1  0  0  0  0 
  2  6  2  0  0  0  0 
  4  7  1  0  0  0  0 
  4  8  1  0  0  0  0 
  5  9  1  0  0  0  0 
  5 10  1  0  0  0  0 
  6 11  1  0  0  0  0 
  6 12  1  0  0  0  0 
  7  8  1  0  0  0  0 
  9 10  1  0  0  0  0 
 11 13  1  0  0  0  0 
 13 14  1  0  0  0  0 
  9 15  1  0  0  0  0 
  9 16  1  0  0  0  0 
  7 17  1  0  0  0  0 
  7 18  1  0  0  0  0 
 19  8  1  0  0  0  0 
 20  8  1  0  0  0  0 
 21 10  1  0  0  0  0 
 22 10  1  0  0  0  0 
 23 12  1  0  0  0  0 
 24 13  1  0  0  0  0 
 25 13  1  0  0  0  0 
 26 14  1  0  0  0  0 
 27 14  1  0  0  0  0 
 28 14  1  0  0  0  0 
 29 15  1  0  0  0  0 
 30 15  1  0  0  0  0 
 31 15  1  0  0  0  0 
 32 16  1  0  0  0  0 
 33 16  1  0  0  0  0 
 34 16  1  0  0  0  0 
 35 17  1  0  0  0  0 
 36 17  1  0  0  0  0 
 37 17  1  0  0  0  0 
 38 18  1  0  0  0  0 
 39 18  1  0  0  0  0 
 40 18  1  0  0  0  0 
M  END
> <cdk:Title>
meturedepa

> <Conformer>
1

> <SuperDrugID>
SD003228

$$$$
