perflutren
  CDK     0628171801

 11 10  0  0  0  0  0  0  0  0999 V2000
    0.2264    0.1174    0.1217 C   0  0  1  0  0  0  0  0  0  0  0  0
    0.4101   -1.3653    0.5691 C   0  0  2  0  0  0  0  0  0  0  0  0
    0.7167    0.4374   -1.3236 C   0  0  2  0  0  0  0  0  0  0  0  0
   -1.1086    0.4498    0.2211 F   0  0  0  0  0  0  0  0  0  0  0  0
    0.8976    0.9337    1.0080 F   0  0  0  0  0  0  0  0  0  0  0  0
   -0.2871   -2.2328   -0.2373 F   0  0  0  0  0  0  0  0  0  0  0  0
   -0.0513   -1.5470    1.8518 F   0  0  0  0  0  0  0  0  0  0  0  0
    1.7316   -1.7425    0.5587 F   0  0  0  0  0  0  0  0  0  0  0  0
    0.5214    1.7665   -1.6195 F   0  0  0  0  0  0  0  0  0  0  0  0
    0.0349   -0.2912   -2.2696 F   0  0  0  0  0  0  0  0  0  0  0  0
    2.0592    0.1826   -1.4770 F   0  0  0  0  0  0  0  0  0  0  0  0
  1  2  1  0  0  0  0 
  1  3  1  0  0  0  0 
  1  4  1  0  0  0  0 
  1  5  1  0  0  0  0 
  2  6  1  0  0  0  0 
  2  7  1  0  0  0  0 
  2  8  1  0  0  0  0 
  3  9  1  0  0  0  0 
  3 10  1  0  0  0  0 
  3 11  1  0  0  0  0 
M  END
> <cdk:Title>
perflutren

> <Conformer>
1

> <SuperDrugID>
SD001886

$$$$
