pibrentasvir
  Mrv0541 09131710103D             241.81416

145154  0  0  0  0            999 V2000
   -0.4522   18.8295    1.7490 C   0  0  0  0  0  0  0  0  0  0  0  0
   -0.6817   18.3179    0.4244 O   0  0  0  0  0  0  0  0  0  0  0  0
    0.4649   17.8186   -0.3062 C   0  0  2  0  0  0  0  0  0  0  0  0
    0.1284   18.0754   -1.8000 C   0  0  0  0  0  0  0  0  0  0  0  0
    0.7188   16.3070    0.0090 C   0  0  2  0  0  0  0  0  0  0  0  0
    1.1519   16.1026    1.3598 N   0  0  0  0  0  0  0  0  0  0  0  0
    0.8119   15.0666    2.1696 C   0  0  0  0  0  0  0  0  0  0  0  0
    1.3214   15.0513    3.3143 O   0  0  0  0  0  0  0  0  0  0  0  0
   -0.0583   14.0870    1.7772 O   0  0  0  0  0  0  0  0  0  0  0  0
   -0.4624   12.9581    2.5588 C   0  0  0  0  0  0  0  0  0  0  0  0
    1.6840   15.6410   -0.9166 C   0  0  0  0  0  0  0  0  0  0  0  0
    1.1593   14.9334   -1.8120 O   0  0  0  0  0  0  0  0  0  0  0  0
    3.0724   15.7146   -0.8648 N   0  0  0  0  0  0  0  0  0  0  0  0
    3.8281   16.5481    0.0220 C   0  0  1  0  0  0  0  0  0  0  0  0
    5.2201   16.6466   -0.6231 C   0  0  1  0  0  0  0  0  0  0  0  0
    5.3792   15.2932   -1.3254 C   0  0  1  0  0  0  0  0  0  0  0  0
    3.9299   14.9215   -1.7151 C   0  0  1  0  0  0  0  0  0  0  0  0
    3.6835   13.4626   -1.6076 C   0  0  0  0  0  0  0  0  0  0  0  0
    3.0144   12.8675   -0.5952 N   0  0  0  0  0  0  0  0  0  0  0  0
    2.9020   11.5754   -0.9284 C   0  0  0  0  0  0  0  0  0  0  0  0
    2.2540   10.5255   -0.2624 C   0  0  0  0  0  0  0  0  0  0  0  0
    2.2292    9.2368   -0.8588 C   0  0  0  0  0  0  0  0  0  0  0  0
    1.5231    8.1013   -0.1781 C   0  0  1  0  0  0  0  0  0  0  0  0
    2.3509    7.5478    1.0087 C   0  0  1  0  0  0  0  0  0  0  0  0
    1.6562    8.1081    2.2513 C   0  0  1  0  0  0  0  0  0  0  0  0
    0.1910    8.3163    1.8022 C   0  0  1  0  0  0  0  0  0  0  0  0
    0.2119    8.4198    0.3522 N   0  0  0  0  0  0  0  0  0  0  0  0
   -0.9193    8.7014   -0.4421 C   0  0  0  0  0  0  0  0  0  0  0  0
   -2.2135    8.8496    0.1210 C   0  0  0  0  0  0  0  0  0  0  0  0
   -3.3794    8.8956   -0.6653 C   0  0  0  0  0  0  0  0  0  0  0  0
   -4.5209    8.9016   -0.0331 F   0  0  0  0  0  0  0  0  0  0  0  0
   -3.3098    8.8960   -2.0789 C   0  0  0  0  0  0  0  0  0  0  0  0
   -4.4549    8.8659   -2.8657 N   0  0  0  0  0  0  0  0  0  0  0  0
   -4.6187    7.8816   -3.9212 C   0  0  2  0  0  0  0  0  0  0  0  0
   -5.8959    7.0293   -3.7016 C   0  0  1  0  0  0  0  0  0  0  0  0
   -7.1574    7.9142   -3.4541 C   0  0  2  0  0  0  0  0  0  0  0  0
   -6.8721    8.9944   -2.3669 C   0  0  2  0  0  0  0  0  0  0  0  0
   -5.5641    9.7791   -2.6702 C   0  0  2  0  0  0  0  0  0  0  0  0
   -8.3920    7.1196   -3.1330 C   0  0  0  0  0  0  0  0  0  0  0  0
   -9.5868    7.3219   -3.8690 C   0  0  0  0  0  0  0  0  0  0  0  0
  -10.7525    6.5884   -3.5803 C   0  0  0  0  0  0  0  0  0  0  0  0
  -10.7445    5.6290   -2.5518 C   0  0  0  0  0  0  0  0  0  0  0  0
  -11.8230    4.9418   -2.2894 F   0  0  0  0  0  0  0  0  0  0  0  0
   -9.5731    5.4165   -1.8033 C   0  0  0  0  0  0  0  0  0  0  0  0
   -8.4154    6.1649   -2.0835 C   0  0  0  0  0  0  0  0  0  0  0  0
   -2.0162    8.9111   -2.6570 C   0  0  0  0  0  0  0  0  0  0  0  0
   -1.8599    9.0215   -3.9499 F   0  0  0  0  0  0  0  0  0  0  0  0
   -0.8590    8.7996   -1.8576 C   0  0  0  0  0  0  0  0  0  0  0  0
   -0.7160    7.2369    2.3419 C   0  0  0  0  0  0  0  0  0  0  0  0
   -1.5622    7.5033    3.4620 C   0  0  0  0  0  0  0  0  0  0  0  0
   -1.4976    8.6319    4.1175 F   0  0  0  0  0  0  0  0  0  0  0  0
   -2.5325    6.5724    3.8945 C   0  0  0  0  0  0  0  0  0  0  0  0
   -2.6456    5.3595    3.2071 C   0  0  0  0  0  0  0  0  0  0  0  0
   -3.4963    4.3382    3.3445 N   0  0  0  0  0  0  0  0  0  0  0  0
   -3.1939    3.4252    2.4026 C   0  0  0  0  0  0  0  0  0  0  0  0
   -2.1307    3.8444    1.6812 N   0  0  0  0  0  0  0  0  0  0  0  0
   -1.7969    5.0515    2.1564 C   0  0  0  0  0  0  0  0  0  0  0  0
   -0.7842    5.9682    1.6967 C   0  0  0  0  0  0  0  0  0  0  0  0
   -3.9443    2.1699    2.1475 C   0  0  2  0  0  0  0  0  0  0  0  0
   -3.3206    0.9760    2.9124 C   0  0  2  0  0  0  0  0  0  0  0  0
   -3.4166   -0.1874    1.9197 C   0  0  2  0  0  0  0  0  0  0  0  0
   -3.3403    0.5077    0.5512 C   0  0  2  0  0  0  0  0  0  0  0  0
   -3.9347    1.7962    0.7511 N   0  0  0  0  0  0  0  0  0  0  0  0
   -4.4112    2.6284   -0.2565 C   0  0  0  0  0  0  0  0  0  0  0  0
   -4.9956    3.6895    0.0754 O   0  0  0  0  0  0  0  0  0  0  0  0
   -4.2643    2.4135   -1.7295 C   0  0  1  0  0  0  0  0  0  0  0  0
   -2.9381    1.9787   -2.0682 N   0  0  0  0  0  0  0  0  0  0  0  0
   -1.8546    2.7825   -2.2136 C   0  0  0  0  0  0  0  0  0  0  0  0
   -0.8020    2.2633   -2.6481 O   0  0  0  0  0  0  0  0  0  0  0  0
   -1.9124    4.1087   -1.8906 O   0  0  0  0  0  0  0  0  0  0  0  0
   -0.8805    5.0770   -2.0832 C   0  0  0  0  0  0  0  0  0  0  0  0
   -5.3223    1.4497   -2.3559 C   0  0  1  0  0  0  0  0  0  0  0  0
   -6.7690    1.9943   -2.2060 C   0  0  0  0  0  0  0  0  0  0  0  0
   -4.9847    1.3062   -3.7598 O   0  0  0  0  0  0  0  0  0  0  0  0
   -5.4889    0.1423   -4.4400 C   0  0  0  0  0  0  0  0  0  0  0  0
    2.8911    9.0486   -2.1105 C   0  0  0  0  0  0  0  0  0  0  0  0
    2.9128    7.8874   -2.7097 F   0  0  0  0  0  0  0  0  0  0  0  0
    3.5475   10.1155   -2.7606 C   0  0  0  0  0  0  0  0  0  0  0  0
    3.5326   11.3749   -2.1484 C   0  0  0  0  0  0  0  0  0  0  0  0
    4.0258   12.5525   -2.5391 N   0  0  0  0  0  0  0  0  0  0  0  0
    0.3080   19.6123    1.7466 H   0  0  0  0  0  0  0  0  0  0  0  0
   -1.3868   19.2616    2.1060 H   0  0  0  0  0  0  0  0  0  0  0  0
   -0.1590   18.0427    2.4420 H   0  0  0  0  0  0  0  0  0  0  0  0
    1.3516   18.4148   -0.0816 H   0  0  0  0  0  0  0  0  0  0  0  0
    0.9772   17.8269   -2.4400 H   0  0  0  0  0  0  0  0  0  0  0  0
   -0.7316   17.4766   -2.1060 H   0  0  0  0  0  0  0  0  0  0  0  0
   -0.1091   19.1293   -1.9567 H   0  0  0  0  0  0  0  0  0  0  0  0
   -0.2594   15.8264   -0.1095 H   0  0  0  0  0  0  0  0  0  0  0  0
    1.7576   16.7666    1.7270 H   0  0  0  0  0  0  0  0  0  0  0  0
   -1.2087   12.3910    2.0019 H   0  0  0  0  0  0  0  0  0  0  0  0
   -0.9012   13.2886    3.5024 H   0  0  0  0  0  0  0  0  0  0  0  0
    0.3946   12.3138    2.7625 H   0  0  0  0  0  0  0  0  0  0  0  0
    3.4198   17.5527    0.1210 H   0  0  0  0  0  0  0  0  0  0  0  0
    3.8933   16.0817    1.0102 H   0  0  0  0  0  0  0  0  0  0  0  0
    5.2366   17.4561   -1.3624 H   0  0  0  0  0  0  0  0  0  0  0  0
    6.0043   16.8174    0.1188 H   0  0  0  0  0  0  0  0  0  0  0  0
    6.0273   15.3729   -2.2034 H   0  0  0  0  0  0  0  0  0  0  0  0
    5.8104   14.5686   -0.6256 H   0  0  0  0  0  0  0  0  0  0  0  0
    3.7480   15.2311   -2.7493 H   0  0  0  0  0  0  0  0  0  0  0  0
    1.7973   10.7102    0.6319 H   0  0  0  0  0  0  0  0  0  0  0  0
    1.3882    7.2686   -0.8747 H   0  0  0  0  0  0  0  0  0  0  0  0
    2.3024    6.4546    1.0268 H   0  0  0  0  0  0  0  0  0  0  0  0
    3.4057    7.8368    0.9809 H   0  0  0  0  0  0  0  0  0  0  0  0
    1.7581    7.4301    3.1041 H   0  0  0  0  0  0  0  0  0  0  0  0
    2.1061    9.0690    2.5209 H   0  0  0  0  0  0  0  0  0  0  0  0
   -0.1217    9.2983    2.1763 H   0  0  0  0  0  0  0  0  0  0  0  0
   -2.3404    8.8989    1.1304 H   0  0  0  0  0  0  0  0  0  0  0  0
   -3.7729    7.1895   -3.9814 H   0  0  0  0  0  0  0  0  0  0  0  0
   -4.6893    8.3949   -4.8830 H   0  0  0  0  0  0  0  0  0  0  0  0
   -6.0620    6.3931   -4.5746 H   0  0  0  0  0  0  0  0  0  0  0  0
   -5.7107    6.3802   -2.8429 H   0  0  0  0  0  0  0  0  0  0  0  0
   -7.3248    8.4615   -4.3889 H   0  0  0  0  0  0  0  0  0  0  0  0
   -6.7837    8.5207   -1.3880 H   0  0  0  0  0  0  0  0  0  0  0  0
   -7.7075    9.6997   -2.3198 H   0  0  0  0  0  0  0  0  0  0  0  0
   -5.7026   10.3682   -3.5836 H   0  0  0  0  0  0  0  0  0  0  0  0
   -5.3807   10.4957   -1.8657 H   0  0  0  0  0  0  0  0  0  0  0  0
   -9.6229    8.0140   -4.6211 H   0  0  0  0  0  0  0  0  0  0  0  0
  -11.6051    6.7561   -4.1196 H   0  0  0  0  0  0  0  0  0  0  0  0
   -9.5583    4.7198   -1.0533 H   0  0  0  0  0  0  0  0  0  0  0  0
   -7.5867    5.9995   -1.5109 H   0  0  0  0  0  0  0  0  0  0  0  0
    0.0382    8.7691   -2.3391 H   0  0  0  0  0  0  0  0  0  0  0  0
   -3.1584    6.7777    4.6781 H   0  0  0  0  0  0  0  0  0  0  0  0
   -4.2160    4.2743    3.9897 H   0  0  0  0  0  0  0  0  0  0  0  0
   -0.0981    5.7986    0.8876 H   0  0  0  0  0  0  0  0  0  0  0  0
   -4.9858    2.2947    2.4688 H   0  0  0  0  0  0  0  0  0  0  0  0
   -3.8636    0.7537    3.8363 H   0  0  0  0  0  0  0  0  0  0  0  0
   -2.2674    1.1489    3.1538 H   0  0  0  0  0  0  0  0  0  0  0  0
   -4.3784   -0.7004    2.0302 H   0  0  0  0  0  0  0  0  0  0  0  0
   -2.6070   -0.9088    2.0544 H   0  0  0  0  0  0  0  0  0  0  0  0
   -3.8627   -0.0992   -0.1882 H   0  0  0  0  0  0  0  0  0  0  0  0
   -2.2977    0.6268    0.2472 H   0  0  0  0  0  0  0  0  0  0  0  0
   -4.4168    3.3780   -2.2360 H   0  0  0  0  0  0  0  0  0  0  0  0
   -2.8120    1.0278   -2.2238 H   0  0  0  0  0  0  0  0  0  0  0  0
   -0.7173    5.2447   -3.1489 H   0  0  0  0  0  0  0  0  0  0  0  0
    0.0569    4.7572   -1.6226 H   0  0  0  0  0  0  0  0  0  0  0  0
   -1.2053    6.0070   -1.6221 H   0  0  0  0  0  0  0  0  0  0  0  0
   -5.2686    0.4811   -1.8540 H   0  0  0  0  0  0  0  0  0  0  0  0
   -7.4870    1.2864   -2.6210 H   0  0  0  0  0  0  0  0  0  0  0  0
   -7.0192    2.1418   -1.1540 H   0  0  0  0  0  0  0  0  0  0  0  0
   -6.8721    2.9477   -2.7316 H   0  0  0  0  0  0  0  0  0  0  0  0
   -5.1800   -0.7765   -3.9367 H   0  0  0  0  0  0  0  0  0  0  0  0
   -5.0730    0.1385   -5.4477 H   0  0  0  0  0  0  0  0  0  0  0  0
   -6.5765    0.1663   -4.5186 H   0  0  0  0  0  0  0  0  0  0  0  0
    4.0124    9.9838   -3.6608 H   0  0  0  0  0  0  0  0  0  0  0  0
    4.5160   12.7266   -3.3581 H   0  0  0  0  0  0  0  0  0  0  0  0
  1  2  1  0  0  0  0
  3  2  1  0  0  0  0
  3  4  1  0  0  0  0
  3  5  1  0  0  0  0
  5  6  1  0  0  0  0
  6  7  1  0  0  0  0
  7  8  2  0  0  0  0
  7  9  1  0  0  0  0
  9 10  1  0  0  0  0
  5 11  1  0  0  0  0
 11 12  2  0  0  0  0
 11 13  1  0  0  0  0
 13 14  1  0  0  0  0
 14 15  1  0  0  0  0
 15 16  1  0  0  0  0
 16 17  1  0  0  0  0
 17 18  1  0  0  0  0
 18 19  2  0  0  0  0
 19 20  1  0  0  0  0
 20 21  2  0  0  0  0
 21 22  1  0  0  0  0
 23 22  1  0  0  0  0
 23 24  1  0  0  0  0
 24 25  1  0  0  0  0
 25 26  1  0  0  0  0
 26 27  1  0  0  0  0
 27 28  1  0  0  0  0
 28 29  2  0  0  0  0
 29 30  1  0  0  0  0
 30 31  1  0  0  0  0
 30 32  2  0  0  0  0
 32 33  1  0  0  0  0
 33 34  1  0  0  0  0
 34 35  1  0  0  0  0
 35 36  1  0  0  0  0
 36 37  1  0  0  0  0
 37 38  1  0  0  0  0
 36 39  1  0  0  0  0
 39 40  2  0  0  0  0
 40 41  1  0  0  0  0
 41 42  2  0  0  0  0
 42 43  1  0  0  0  0
 42 44  1  0  0  0  0
 44 45  2  0  0  0  0
 32 46  1  0  0  0  0
 46 47  1  0  0  0  0
 46 48  2  0  0  0  0
 26 49  1  0  0  0  0
 49 50  2  0  0  0  0
 50 51  1  0  0  0  0
 50 52  1  0  0  0  0
 52 53  2  0  0  0  0
 53 54  1  0  0  0  0
 54 55  1  0  0  0  0
 55 56  2  0  0  0  0
 56 57  1  0  0  0  0
 57 58  2  0  0  0  0
 59 55  1  0  0  0  0
 59 60  1  0  0  0  0
 60 61  1  0  0  0  0
 61 62  1  0  0  0  0
 62 63  1  0  0  0  0
 63 64  1  0  0  0  0
 64 65  2  0  0  0  0
 66 64  1  0  0  0  0
 66 67  1  0  0  0  0
 67 68  1  0  0  0  0
 68 69  2  0  0  0  0
 68 70  1  0  0  0  0
 70 71  1  0  0  0  0
 66 72  1  0  0  0  0
 72 73  1  0  0  0  0
 72 74  1  0  0  0  0
 74 75  1  0  0  0  0
 22 76  2  0  0  0  0
 76 77  1  0  0  0  0
 76 78  1  0  0  0  0
 78 79  2  0  0  0  0
 79 80  1  0  0  0  0
 17 13  1  0  0  0  0
 80 18  1  0  0  0  0
 79 20  1  0  0  0  0
 27 23  1  0  0  0  0
 48 28  1  0  0  0  0
 58 49  1  0  0  0  0
 63 59  1  0  0  0  0
 38 33  1  0  0  0  0
 45 39  1  0  0  0  0
 57 53  1  0  0  0  0
  1 81  1  0  0  0  0
  1 82  1  0  0  0  0
  1 83  1  0  0  0  0
  3 84  1  0  0  0  0
  4 85  1  0  0  0  0
  4 86  1  0  0  0  0
  4 87  1  0  0  0  0
  5 88  1  0  0  0  0
  6 89  1  0  0  0  0
 10 90  1  0  0  0  0
 10 91  1  0  0  0  0
 10 92  1  0  0  0  0
 14 93  1  0  0  0  0
 14 94  1  0  0  0  0
 15 95  1  0  0  0  0
 15 96  1  0  0  0  0
 16 97  1  0  0  0  0
 16 98  1  0  0  0  0
 17 99  1  0  0  0  0
 21100  1  0  0  0  0
 23101  1  0  0  0  0
 24102  1  0  0  0  0
 24103  1  0  0  0  0
 25104  1  0  0  0  0
 25105  1  0  0  0  0
 26106  1  0  0  0  0
 29107  1  0  0  0  0
 34108  1  0  0  0  0
 34109  1  0  0  0  0
 35110  1  0  0  0  0
 35111  1  0  0  0  0
 36112  1  0  0  0  0
 37113  1  0  0  0  0
 37114  1  0  0  0  0
 38115  1  0  0  0  0
 38116  1  0  0  0  0
 40117  1  0  0  0  0
 41118  1  0  0  0  0
 44119  1  0  0  0  0
 45120  1  0  0  0  0
 48121  1  0  0  0  0
 52122  1  0  0  0  0
 54123  1  0  0  0  0
 58124  1  0  0  0  0
 59125  1  0  0  0  0
 60126  1  0  0  0  0
 60127  1  0  0  0  0
 61128  1  0  0  0  0
 61129  1  0  0  0  0
 62130  1  0  0  0  0
 62131  1  0  0  0  0
 66132  1  0  0  0  0
 67133  1  0  0  0  0
 71134  1  0  0  0  0
 71135  1  0  0  0  0
 71136  1  0  0  0  0
 72137  1  0  0  0  0
 73138  1  0  0  0  0
 73139  1  0  0  0  0
 73140  1  0  0  0  0
 75141  1  0  0  0  0
 75142  1  0  0  0  0
 75143  1  0  0  0  0
 78144  1  0  0  0  0
 80145  1  0  0  0  0
M  END
>  <SuperDrugID>
SD006010

>  <_MOLCOUNT>
1

$$$$
