cimetropium
  CDK     0628171802

 54 58  0  0  0  0  0  0  0  0999 V2000
   -3.9399   -3.1518    2.1678 C   0  0  0  0  0  0  0  0  0  0  0  0
   -3.4842   -3.8573    0.8932 N   0  0  2  0  0  0  0  0  0  0  0  0
   -4.0809   -3.0177   -0.2486 C   0  0  2  0  0  0  0  0  0  0  0  0
   -3.4949   -1.5787   -0.3974 C   0  0  1  0  0  0  0  0  0  0  0  0
   -4.0331   -0.7292   -1.5629 C   0  0  2  0  0  0  0  0  0  0  0  0
   -4.3629   -0.3395   -0.1173 C   0  0  1  0  0  0  0  0  0  0  0  0
   -3.8709   -5.3263    0.8796 C   0  0  1  0  0  0  0  0  0  0  0  0
   -3.6791   -6.0124   -0.5224 C   0  0  1  0  0  0  0  0  0  0  0  0
   -2.2780   -5.7237   -1.1851 C   0  0  1  0  0  0  0  0  0  0  0  0
   -1.5014   -4.4898   -0.5969 C   0  0  2  0  0  0  0  0  0  0  0  0
   -1.9853   -4.0840    0.8379 C   0  0  2  0  0  0  0  0  0  0  0  0
   -1.6420   -5.2754    1.7825 C   0  0  1  0  0  0  0  0  0  0  0  0
   -2.3243   -5.5003    3.0184 O   0  0  0  0  0  0  0  0  0  0  0  0
   -2.9175   -6.0858    1.8522 C   0  0  1  0  0  0  0  0  0  0  0  0
   -1.3810   -6.8505   -1.1451 O   0  0  0  0  0  0  0  0  0  0  0  0
   -1.5002   -8.0496   -1.7926 C   0  0  0  0  0  0  0  0  0  0  0  0
   -2.5329   -8.3062   -2.4575 O   0  0  0  0  0  0  0  0  0  0  0  0
   -0.3610   -9.0032   -1.7511 C   0  0  2  0  0  0  0  0  0  0  0  0
    0.3088   -9.1177   -3.1504 C   0  0  1  0  0  0  0  0  0  0  0  0
    1.4873   -9.9166   -3.0841 O   0  0  0  0  0  0  0  0  0  0  0  0
   -0.7100  -10.3553   -1.2031 C   0  0  0  0  0  0  0  0  0  0  0  0
   -1.6799  -11.1871   -1.8208 C   0  0  0  0  0  0  0  0  0  0  0  0
   -1.9492  -12.4775   -1.3290 C   0  0  0  0  0  0  0  0  0  0  0  0
   -1.2436  -12.9667   -0.2171 C   0  0  0  0  0  0  0  0  0  0  0  0
   -0.2844  -12.1569    0.4158 C   0  0  0  0  0  0  0  0  0  0  0  0
   -0.0241  -10.8636   -0.0705 C   0  0  0  0  0  0  0  0  0  0  0  0
   -3.5036   -2.1526    2.2426 H   0  0  0  0  0  0  0  0  0  0  0  0
   -3.6850   -3.6527    3.0944 H   0  0  0  0  0  0  0  0  0  0  0  0
   -5.0285   -3.0450    2.1912 H   0  0  0  0  0  0  0  0  0  0  0  0
   -5.1702   -2.9665   -0.1408 H   0  0  0  0  0  0  0  0  0  0  0  0
   -3.9308   -3.4726   -1.2258 H   0  0  0  0  0  0  0  0  0  0  0  0
   -2.4250   -1.4385   -0.2361 H   0  0  0  0  0  0  0  0  0  0  0  0
   -4.8647   -1.1422   -2.1370 H   0  0  0  0  0  0  0  0  0  0  0  0
   -3.3072   -0.0904   -2.0701 H   0  0  0  0  0  0  0  0  0  0  0  0
   -5.3976   -0.5073    0.1858 H   0  0  0  0  0  0  0  0  0  0  0  0
   -3.8326    0.5344    0.2675 H   0  0  0  0  0  0  0  0  0  0  0  0
   -4.9070   -5.4693    1.2009 H   0  0  0  0  0  0  0  0  0  0  0  0
   -3.8357   -7.0908   -0.4256 H   0  0  0  0  0  0  0  0  0  0  0  0
   -4.4725   -5.6715   -1.1905 H   0  0  0  0  0  0  0  0  0  0  0  0
   -2.4483   -5.5141   -2.2469 H   0  0  0  0  0  0  0  0  0  0  0  0
   -1.6144   -3.6350   -1.2659 H   0  0  0  0  0  0  0  0  0  0  0  0
   -0.4249   -4.6853   -0.5724 H   0  0  0  0  0  0  0  0  0  0  0  0
   -1.4303   -3.2010    1.1678 H   0  0  0  0  0  0  0  0  0  0  0  0
   -0.7496   -5.8823    1.6077 H   0  0  0  0  0  0  0  0  0  0  0  0
   -2.7611   -7.1617    1.7377 H   0  0  0  0  0  0  0  0  0  0  0  0
    0.3995   -8.5434   -1.1094 H   0  0  0  0  0  0  0  0  0  0  0  0
   -0.3754   -9.5584   -3.8788 H   0  0  0  0  0  0  0  0  0  0  0  0
    0.6001   -8.1292   -3.5127 H   0  0  0  0  0  0  0  0  0  0  0  0
    1.8346   -9.9342   -4.0000 H   0  0  0  0  0  0  0  0  0  0  0  0
   -2.1941  -10.8691   -2.6450 H   0  0  0  0  0  0  0  0  0  0  0  0
   -2.6548  -13.0613   -1.7854 H   0  0  0  0  0  0  0  0  0  0  0  0
   -1.4239  -13.9113    0.1295 H   0  0  0  0  0  0  0  0  0  0  0  0
    0.2269  -12.5125    1.2265 H   0  0  0  0  0  0  0  0  0  0  0  0
    0.6866  -10.3006    0.4041 H   0  0  0  0  0  0  0  0  0  0  0  0
  1  2  1  0  0  0  0 
  2  3  1  0  0  0  0 
  3  4  1  0  0  0  0 
  4  5  1  0  0  0  0 
  5  6  1  0  0  0  0 
  4  6  1  0  0  0  0 
  2  7  1  0  0  0  0 
  7  8  1  0  0  0  0 
  8  9  1  0  0  0  0 
  9 10  1  0  0  0  0 
 11 10  1  0  0  0  0 
  2 11  1  0  0  0  0 
 11 12  1  0  0  0  0 
 12 13  1  0  0  0  0 
 14 13  1  0  0  0  0 
  7 14  1  0  0  0  0 
 12 14  1  0  0  0  0 
  9 15  1  0  0  0  0 
 15 16  1  0  0  0  0 
 16 17  2  0  0  0  0 
 16 18  1  0  0  0  0 
 18 19  1  0  0  0  0 
 19 20  1  0  0  0  0 
 18 21  1  0  0  0  0 
 21 22  2  0  0  0  0 
 22 23  1  0  0  0  0 
 23 24  2  0  0  0  0 
 24 25  1  0  0  0  0 
 25 26  2  0  0  0  0 
 21 26  1  0  0  0  0 
  1 27  1  0  0  0  0 
  1 28  1  0  0  0  0 
  1 29  1  0  0  0  0 
  3 30  1  0  0  0  0 
  3 31  1  0  0  0  0 
  4 32  1  0  0  0  0 
  5 33  1  0  0  0  0 
  5 34  1  0  0  0  0 
  6 35  1  0  0  0  0 
  6 36  1  0  0  0  0 
  7 37  1  0  0  0  0 
  8 38  1  0  0  0  0 
  8 39  1  0  0  0  0 
  9 40  1  0  0  0  0 
 10 41  1  0  0  0  0 
 10 42  1  0  0  0  0 
 11 43  1  0  0  0  0 
 12 44  1  0  0  0  0 
 14 45  1  0  0  0  0 
 18 46  1  0  0  0  0 
 19 47  1  0  0  0  0 
 19 48  1  0  0  0  0 
 20 49  1  0  0  0  0 
 22 50  1  0  0  0  0 
 23 51  1  0  0  0  0 
 24 52  1  0  0  0  0 
 25 53  1  0  0  0  0 
 26 54  1  0  0  0  0 
M  CHG  1   2   1
M  END
> <cdk:Title>
cimetropium

> <Conformer>
1

> <SuperDrugID>
SD000566

$$$$
