estradiol enanthate
  CDK     0628171801

 64 67  0  0  0  0  0  0  0  0999 V2000
   -6.0902    4.7149    5.7444 C   0  0  0  0  0  0  0  0  0  0  0  0
   -4.8799    4.0721    6.5159 C   0  0  2  0  0  0  0  0  0  0  0  0
   -3.5429    3.9322    5.7101 C   0  0  2  0  0  0  0  0  0  0  0  0
   -5.1701    2.5496    6.7589 C   0  0  1  0  0  0  0  0  0  0  0  0
   -4.5530    4.9376    7.7833 C   0  0  2  0  0  0  0  0  0  0  0  0
   -2.9411    5.3048    5.2657 C   0  0  1  0  0  0  0  0  0  0  0  0
   -3.8391    2.8353    4.6679 C   0  0  1  0  0  0  0  0  0  0  0  0
   -6.4962    2.1234    7.1155 O   0  0  0  0  0  0  0  0  0  0  0  0
   -4.7717    1.8554    5.4240 C   0  0  2  0  0  0  0  0  0  0  0  0
   -3.8556    6.2933    7.4452 C   0  0  2  0  0  0  0  0  0  0  0  0
   -2.5730    6.1372    6.5535 C   0  0  2  0  0  0  0  0  0  0  0  0
   -1.6802    5.1658    4.3719 C   0  0  1  0  0  0  0  0  0  0  0  0
   -7.2127    2.3919    8.2434 C   0  0  0  0  0  0  0  0  0  0  0  0
   -1.8403    7.4164    6.2378 C   0  0  0  0  0  0  0  0  0  0  0  0
   -1.1730    6.5596    3.9204 C   0  0  2  0  0  0  0  0  0  0  0  0
   -8.4732    1.6558    8.4470 C   0  0  1  0  0  0  0  0  0  0  0  0
   -6.7970    3.1806    9.1224 O   0  0  0  0  0  0  0  0  0  0  0  0
   -1.2116    7.6163    4.9717 C   0  0  0  0  0  0  0  0  0  0  0  0
   -1.7055    8.4375    7.2144 C   0  0  0  0  0  0  0  0  0  0  0  0
   -9.5872    1.9696    7.3590 C   0  0  1  0  0  0  0  0  0  0  0  0
   -0.5970    8.8585    4.6814 C   0  0  0  0  0  0  0  0  0  0  0  0
   -1.0924    9.6636    6.9155 C   0  0  0  0  0  0  0  0  0  0  0  0
  -10.5656    0.7669    7.2603 C   0  0  1  0  0  0  0  0  0  0  0  0
   -0.5588    9.8884    5.6375 C   0  0  0  0  0  0  0  0  0  0  0  0
  -11.7839    1.0164    6.3346 C   0  0  1  0  0  0  0  0  0  0  0  0
   -0.0068   11.0871    5.3226 O   0  0  0  0  0  0  0  0  0  0  0  0
  -12.6003   -0.2795    6.0727 C   0  0  2  0  0  0  0  0  0  0  0  0
  -13.8728   -0.0294    5.2332 C   0  0  0  0  0  0  0  0  0  0  0  0
   -3.6968    5.8421    4.6819 H   0  0  0  0  0  0  0  0  0  0  0  0
   -1.8559    5.5559    7.1455 H   0  0  0  0  0  0  0  0  0  0  0  0
   -2.7792    3.4888    6.3656 H   0  0  0  0  0  0  0  0  0  0  0  0
   -6.3335    4.1715    4.8320 H   0  0  0  0  0  0  0  0  0  0  0  0
   -6.9815    4.7063    6.3733 H   0  0  0  0  0  0  0  0  0  0  0  0
   -5.8983    5.7499    5.4695 H   0  0  0  0  0  0  0  0  0  0  0  0
   -4.5053    2.1761    7.5459 H   0  0  0  0  0  0  0  0  0  0  0  0
   -3.9003    4.3731    8.4549 H   0  0  0  0  0  0  0  0  0  0  0  0
   -5.4617    5.1625    8.3422 H   0  0  0  0  0  0  0  0  0  0  0  0
   -4.3433    3.2587    3.7959 H   0  0  0  0  0  0  0  0  0  0  0  0
   -2.9238    2.3346    4.3387 H   0  0  0  0  0  0  0  0  0  0  0  0
   -5.6574    1.6441    4.8156 H   0  0  0  0  0  0  0  0  0  0  0  0
   -4.2583    0.9088    5.6225 H   0  0  0  0  0  0  0  0  0  0  0  0
   -3.5980    6.7439    8.4026 H   0  0  0  0  0  0  0  0  0  0  0  0
   -4.5599    6.9699    6.9554 H   0  0  0  0  0  0  0  0  0  0  0  0
   -0.8897    4.6479    4.9241 H   0  0  0  0  0  0  0  0  0  0  0  0
   -1.9093    4.5797    3.4789 H   0  0  0  0  0  0  0  0  0  0  0  0
   -1.7826    6.9002    3.0766 H   0  0  0  0  0  0  0  0  0  0  0  0
   -0.1430    6.4409    3.5640 H   0  0  0  0  0  0  0  0  0  0  0  0
   -8.1473    0.5844    8.5479 H   0  0  0  0  0  0  0  0  0  0  0  0
   -8.8920    1.9306    9.4184 H   0  0  0  0  0  0  0  0  0  0  0  0
   -2.0554    8.3128    8.1642 H   0  0  0  0  0  0  0  0  0  0  0  0
  -10.1302    2.8783    7.6368 H   0  0  0  0  0  0  0  0  0  0  0  0
   -9.1335    2.1290    6.3759 H   0  0  0  0  0  0  0  0  0  0  0  0
   -0.1678    9.0170    3.7653 H   0  0  0  0  0  0  0  0  0  0  0  0
   -1.0371   10.3925    7.6312 H   0  0  0  0  0  0  0  0  0  0  0  0
  -10.0055   -0.0955    6.8856 H   0  0  0  0  0  0  0  0  0  0  0  0
  -10.9355    0.5200    8.2593 H   0  0  0  0  0  0  0  0  0  0  0  0
  -12.4307    1.7644    6.8012 H   0  0  0  0  0  0  0  0  0  0  0  0
  -11.4365    1.4130    5.3776 H   0  0  0  0  0  0  0  0  0  0  0  0
   -0.2568   11.6954    6.0501 H   0  0  0  0  0  0  0  0  0  0  0  0
  -12.8963   -0.7231    7.0272 H   0  0  0  0  0  0  0  0  0  0  0  0
  -11.9714   -1.0033    5.5458 H   0  0  0  0  0  0  0  0  0  0  0  0
  -14.3754   -0.9780    5.0352 H   0  0  0  0  0  0  0  0  0  0  0  0
  -14.5625    0.6220    5.7736 H   0  0  0  0  0  0  0  0  0  0  0  0
  -13.6194    0.4358    4.2787 H   0  0  0  0  0  0  0  0  0  0  0  0
  2  1  1  0  0  0  0 
  3  2  1  0  0  0  0 
  2  4  1  0  0  0  0 
  2  5  1  0  0  0  0 
  6  3  1  0  0  0  0 
  3  7  1  0  0  0  0 
  3 31  1  0  0  0  0 
  4  8  1  0  0  0  0 
  4  9  1  0  0  0  0 
  5 10  1  0  0  0  0 
 11  6  1  0  0  0  0 
  6 12  1  0  0  0  0 
  6 29  1  0  0  0  0 
  7  9  1  0  0  0  0 
  8 13  1  0  0  0  0 
 11 10  1  0  0  0  0 
 11 14  1  0  0  0  0 
 11 30  1  0  0  0  0 
 12 15  1  0  0  0  0 
 13 16  1  0  0  0  0 
 13 17  2  0  0  0  0 
 14 18  2  0  0  0  0 
 14 19  1  0  0  0  0 
 15 18  1  0  0  0  0 
 16 20  1  0  0  0  0 
 18 21  1  0  0  0  0 
 19 22  2  0  0  0  0 
 20 23  1  0  0  0  0 
 21 24  2  0  0  0  0 
 22 24  1  0  0  0  0 
 23 25  1  0  0  0  0 
 24 26  1  0  0  0  0 
 25 27  1  0  0  0  0 
 27 28  1  0  0  0  0 
  1 32  1  0  0  0  0 
  1 33  1  0  0  0  0 
  1 34  1  0  0  0  0 
  4 35  1  0  0  0  0 
  5 36  1  0  0  0  0 
  5 37  1  0  0  0  0 
  7 38  1  0  0  0  0 
  7 39  1  0  0  0  0 
  9 40  1  0  0  0  0 
  9 41  1  0  0  0  0 
 10 42  1  0  0  0  0 
 10 43  1  0  0  0  0 
 12 44  1  0  0  0  0 
 12 45  1  0  0  0  0 
 15 46  1  0  0  0  0 
 15 47  1  0  0  0  0 
 16 48  1  0  0  0  0 
 16 49  1  0  0  0  0 
 19 50  1  0  0  0  0 
 20 51  1  0  0  0  0 
 20 52  1  0  0  0  0 
 21 53  1  0  0  0  0 
 22 54  1  0  0  0  0 
 23 55  1  0  0  0  0 
 23 56  1  0  0  0  0 
 25 57  1  0  0  0  0 
 25 58  1  0  0  0  0 
 26 59  1  0  0  0  0 
 27 60  1  0  0  0  0 
 27 61  1  0  0  0  0 
 28 62  1  0  0  0  0 
 28 63  1  0  0  0  0 
 28 64  1  0  0  0  0 
M  END
> <cdk:Title>
estradiol enanthate

> <Conformer>
1

> <SuperDrugID>
SD000946

$$$$
