benzylsulfamide
  CDK     0628171801

 32 33  0  0  0  0  0  0  0  0999 V2000
    3.3921   -2.0172    1.2667 N   0  0  0  0  0  0  0  0  0  0  0  0
    4.1730   -1.2180    0.3740 C   0  0  1  0  0  0  0  0  0  0  0  0
    2.5984   -1.5845    2.2921 C   0  0  0  0  0  0  0  0  0  0  0  0
    5.2479   -0.4406    1.0531 C   0  0  0  0  0  0  0  0  0  0  0  0
    2.2965   -0.2266    2.5601 C   0  0  0  0  0  0  0  0  0  0  0  0
    2.0638   -2.5776    3.1419 C   0  0  0  0  0  0  0  0  0  0  0  0
    6.2073   -1.0929    1.8662 C   0  0  0  0  0  0  0  0  0  0  0  0
    5.3372    0.9647    0.8992 C   0  0  0  0  0  0  0  0  0  0  0  0
    1.5201    0.1265    3.6792 C   0  0  0  0  0  0  0  0  0  0  0  0
    1.2825   -2.2228    4.2559 C   0  0  0  0  0  0  0  0  0  0  0  0
    7.2207   -0.3577    2.5110 C   0  0  0  0  0  0  0  0  0  0  0  0
    6.3529    1.6979    1.5411 C   0  0  0  0  0  0  0  0  0  0  0  0
    1.0178   -0.8683    4.5431 C   0  0  0  0  0  0  0  0  0  0  0  0
    7.2927    1.0387    2.3522 C   0  0  0  0  0  0  0  0  0  0  0  0
    0.0465   -0.4399    5.9609 S   0  0  1  0  0  0  0  0  0  0  0  0
    0.5072    1.1383    6.5804 N   0  0  2  0  0  0  0  0  0  0  0  0
   -1.5081   -0.4000    5.5682 O   0  0  0  0  0  0  0  0  0  0  0  0
    0.2508   -1.5046    7.1437 O   0  0  0  0  0  0  0  0  0  0  0  0
    3.4449   -2.9789    1.1391 H   0  0  0  0  0  0  0  0  0  0  0  0
    4.6427   -1.8938   -0.3432 H   0  0  0  0  0  0  0  0  0  0  0  0
    3.4991   -0.5716   -0.1945 H   0  0  0  0  0  0  0  0  0  0  0  0
    2.6400    0.5178    1.9507 H   0  0  0  0  0  0  0  0  0  0  0  0
    2.2454   -3.5707    2.9591 H   0  0  0  0  0  0  0  0  0  0  0  0
    6.1722   -2.1086    1.9986 H   0  0  0  0  0  0  0  0  0  0  0  0
    4.6617    1.4671    0.3187 H   0  0  0  0  0  0  0  0  0  0  0  0
    1.3245    1.1125    3.8579 H   0  0  0  0  0  0  0  0  0  0  0  0
    0.9085   -2.9629    4.8543 H   0  0  0  0  0  0  0  0  0  0  0  0
    7.9087   -0.8387    3.0945 H   0  0  0  0  0  0  0  0  0  0  0  0
    6.4089    2.7116    1.4153 H   0  0  0  0  0  0  0  0  0  0  0  0
    8.0285    1.5725    2.8222 H   0  0  0  0  0  0  0  0  0  0  0  0
   -0.1532    1.3687    7.3264 H   0  0  0  0  0  0  0  0  0  0  0  0
    0.3561    1.8120    5.8286 H   0  0  0  0  0  0  0  0  0  0  0  0
  1  2  1  0  0  0  0 
  1  3  1  0  0  0  0 
  2  4  1  0  0  0  0 
  3  5  2  0  0  0  0 
  3  6  1  0  0  0  0 
  4  7  2  0  0  0  0 
  4  8  1  0  0  0  0 
  5  9  1  0  0  0  0 
  6 10  2  0  0  0  0 
  7 11  1  0  0  0  0 
  8 12  2  0  0  0  0 
  9 13  2  0  0  0  0 
 10 13  1  0  0  0  0 
 11 14  2  0  0  0  0 
 12 14  1  0  0  0  0 
 13 15  1  0  0  0  0 
 15 16  1  0  0  0  0 
 15 17  2  0  0  0  0 
 15 18  2  0  0  0  0 
  1 19  1  0  0  0  0 
  2 20  1  0  0  0  0 
  2 21  1  0  0  0  0 
  5 22  1  0  0  0  0 
  6 23  1  0  0  0  0 
  7 24  1  0  0  0  0 
  8 25  1  0  0  0  0 
  9 26  1  0  0  0  0 
 10 27  1  0  0  0  0 
 11 28  1  0  0  0  0 
 12 29  1  0  0  0  0 
 14 30  1  0  0  0  0 
 16 31  1  0  0  0  0 
 16 32  1  0  0  0  0 
M  END
> <cdk:Title>
benzylsulfamide

> <Conformer>
1

> <SuperDrugID>
SD003152

$$$$
