trandolapril
  CDK     0628171801

 65 67  0  0  0  0  0  0  0  0999 V2000
   -1.6144    3.6583   -3.0890 C   0  0  0  0  0  0  0  0  0  0  0  0
   -2.5750    2.6148   -2.5994 C   0  0  1  0  0  0  0  0  0  0  0  0
   -1.1963    4.4597   -2.2214 O   0  0  0  0  0  0  0  0  0  0  0  0
   -1.1888    3.8356   -4.4049 N   0  0  0  0  0  0  0  0  0  0  0  0
   -2.6423    2.5385   -1.1061 N   0  0  2  0  0  0  0  0  0  0  0  0
   -4.0291    2.8802   -3.0937 C   0  0  0  0  0  0  0  0  0  0  0  0
   -0.3041    4.8997   -4.8336 C   0  0  2  0  0  0  0  0  0  0  0  0
   -1.6654    3.0736   -5.5440 C   0  0  2  0  0  0  0  0  0  0  0  0
   -1.5494    1.8643   -0.3551 C   0  0  1  0  0  0  0  0  0  0  0  0
    0.0967    4.4888   -6.2730 C   0  0  1  0  0  0  0  0  0  0  0  0
    1.0102    5.2482   -4.0660 C   0  0  2  0  0  0  0  0  0  0  0  0
   -1.1645    1.6774   -5.5693 C   0  0  0  0  0  0  0  0  0  0  0  0
   -1.2001    3.8688   -6.7945 C   0  0  2  0  0  0  0  0  0  0  0  0
   -1.8094    2.0390    1.1746 C   0  0  1  0  0  0  0  0  0  0  0  0
   -1.4721    0.4158   -0.6760 C   0  0  0  0  0  0  0  0  0  0  0  0
    0.7175    5.6838   -7.0414 C   0  0  2  0  0  0  0  0  0  0  0  0
    1.7694    6.4028   -4.7918 C   0  0  2  0  0  0  0  0  0  0  0  0
   -0.1920    1.2603   -4.7245 O   0  0  0  0  0  0  0  0  0  0  0  0
   -1.6232    0.8601   -6.3990 O   0  0  0  0  0  0  0  0  0  0  0  0
   -1.8750    3.4986    1.7154 C   0  0  2  0  0  0  0  0  0  0  0  0
   -0.2738   -0.1349   -1.0337 O   0  0  0  0  0  0  0  0  0  0  0  0
   -2.5008   -0.2970   -0.5890 O   0  0  0  0  0  0  0  0  0  0  0  0
    2.0171    6.1177   -6.3034 C   0  0  2  0  0  0  0  0  0  0  0  0
   -0.6613    4.3279    1.4632 C   0  0  0  0  0  0  0  0  0  0  0  0
   -0.0230   -1.5192   -1.3103 C   0  0  1  0  0  0  0  0  0  0  0  0
    0.5975    3.9361    1.9803 C   0  0  0  0  0  0  0  0  0  0  0  0
   -0.7380    5.5321    0.7195 C   0  0  0  0  0  0  0  0  0  0  0  0
    1.4576   -1.7163   -1.6799 C   0  0  0  0  0  0  0  0  0  0  0  0
    1.7482    4.7089    1.7438 C   0  0  0  0  0  0  0  0  0  0  0  0
    0.4143    6.3039    0.4778 C   0  0  0  0  0  0  0  0  0  0  0  0
    1.6575    5.8891    0.9865 C   0  0  0  0  0  0  0  0  0  0  0  0
    0.8506    3.6888   -6.2420 H   0  0  0  0  0  0  0  0  0  0  0  0
   -0.9202    5.8078   -4.8607 H   0  0  0  0  0  0  0  0  0  0  0  0
   -2.2610    1.6395   -2.9768 H   0  0  0  0  0  0  0  0  0  0  0  0
   -3.4979    2.0323   -0.8665 H   0  0  0  0  0  0  0  0  0  0  0  0
   -4.2133    2.3885   -4.0484 H   0  0  0  0  0  0  0  0  0  0  0  0
   -4.2225    3.9501   -3.2042 H   0  0  0  0  0  0  0  0  0  0  0  0
   -4.7677    2.4774   -2.3982 H   0  0  0  0  0  0  0  0  0  0  0  0
   -2.7523    3.0645   -5.5743 H   0  0  0  0  0  0  0  0  0  0  0  0
   -0.5916    2.3315   -0.5979 H   0  0  0  0  0  0  0  0  0  0  0  0
    1.6510    4.3638   -3.9975 H   0  0  0  0  0  0  0  0  0  0  0  0
    0.7919    5.5852   -3.0524 H   0  0  0  0  0  0  0  0  0  0  0  0
   -1.9212    4.6523   -7.0564 H   0  0  0  0  0  0  0  0  0  0  0  0
   -1.0260    3.2435   -7.6737 H   0  0  0  0  0  0  0  0  0  0  0  0
   -2.7667    1.5666    1.4192 H   0  0  0  0  0  0  0  0  0  0  0  0
   -1.0397    1.4983    1.7323 H   0  0  0  0  0  0  0  0  0  0  0  0
    0.0118    6.5186   -7.0774 H   0  0  0  0  0  0  0  0  0  0  0  0
    0.9500    5.3896   -8.0679 H   0  0  0  0  0  0  0  0  0  0  0  0
    2.7290    6.5706   -4.2951 H   0  0  0  0  0  0  0  0  0  0  0  0
    1.1875    7.3256   -4.7006 H   0  0  0  0  0  0  0  0  0  0  0  0
    0.1452    0.3425   -4.7743 H   0  0  0  0  0  0  0  0  0  0  0  0
   -2.0268    3.4475    2.7972 H   0  0  0  0  0  0  0  0  0  0  0  0
   -2.7668    3.9787    1.3025 H   0  0  0  0  0  0  0  0  0  0  0  0
    2.4315    7.0073   -6.7834 H   0  0  0  0  0  0  0  0  0  0  0  0
    2.7632    5.3224   -6.3972 H   0  0  0  0  0  0  0  0  0  0  0  0
   -0.2580   -2.1179   -0.4270 H   0  0  0  0  0  0  0  0  0  0  0  0
   -0.6523   -1.8515   -2.1390 H   0  0  0  0  0  0  0  0  0  0  0  0
    0.6886    3.0831    2.5352 H   0  0  0  0  0  0  0  0  0  0  0  0
   -1.6325    5.8580    0.3446 H   0  0  0  0  0  0  0  0  0  0  0  0
    1.6513   -2.7717   -1.8850 H   0  0  0  0  0  0  0  0  0  0  0  0
    1.7007   -1.1314   -2.5692 H   0  0  0  0  0  0  0  0  0  0  0  0
    2.0958   -1.3929   -0.8549 H   0  0  0  0  0  0  0  0  0  0  0  0
    2.6486    4.4107    2.1249 H   0  0  0  0  0  0  0  0  0  0  0  0
    0.3515    7.1666   -0.0681 H   0  0  0  0  0  0  0  0  0  0  0  0
    2.4955    6.4448    0.8071 H   0  0  0  0  0  0  0  0  0  0  0  0
  2  1  1  0  0  0  0 
  1  3  2  0  0  0  0 
  1  4  1  0  0  0  0 
  2  5  1  0  0  0  0 
  2  6  1  0  0  0  0 
  7  4  1  0  0  0  0 
  8  4  1  0  0  0  0 
  9  5  1  0  0  0  0 
 10  7  1  0  0  0  0 
  7 11  1  0  0  0  0 
  7 33  1  0  0  0  0 
  8 12  1  0  0  0  0 
  8 13  1  0  0  0  0 
  9 14  1  0  0  0  0 
  9 15  1  0  0  0  0 
 10 13  1  0  0  0  0 
 10 16  1  0  0  0  0 
 10 32  1  0  0  0  0 
 11 17  1  0  0  0  0 
 12 18  1  0  0  0  0 
 12 19  2  0  0  0  0 
 14 20  1  0  0  0  0 
 15 21  1  0  0  0  0 
 15 22  2  0  0  0  0 
 16 23  1  0  0  0  0 
 17 23  1  0  0  0  0 
 20 24  1  0  0  0  0 
 21 25  1  0  0  0  0 
 24 26  2  0  0  0  0 
 24 27  1  0  0  0  0 
 25 28  1  0  0  0  0 
 26 29  1  0  0  0  0 
 27 30  2  0  0  0  0 
 29 31  2  0  0  0  0 
 30 31  1  0  0  0  0 
  2 34  1  0  0  0  0 
  5 35  1  0  0  0  0 
  6 36  1  0  0  0  0 
  6 37  1  0  0  0  0 
  6 38  1  0  0  0  0 
  8 39  1  0  0  0  0 
  9 40  1  0  0  0  0 
 11 41  1  0  0  0  0 
 11 42  1  0  0  0  0 
 13 43  1  0  0  0  0 
 13 44  1  0  0  0  0 
 14 45  1  0  0  0  0 
 14 46  1  0  0  0  0 
 16 47  1  0  0  0  0 
 16 48  1  0  0  0  0 
 17 49  1  0  0  0  0 
 17 50  1  0  0  0  0 
 18 51  1  0  0  0  0 
 20 52  1  0  0  0  0 
 20 53  1  0  0  0  0 
 23 54  1  0  0  0  0 
 23 55  1  0  0  0  0 
 25 56  1  0  0  0  0 
 25 57  1  0  0  0  0 
 26 58  1  0  0  0  0 
 27 59  1  0  0  0  0 
 28 60  1  0  0  0  0 
 28 61  1  0  0  0  0 
 28 62  1  0  0  0  0 
 29 63  1  0  0  0  0 
 30 64  1  0  0  0  0 
 31 65  1  0  0  0  0 
M  END
> <cdk:Title>
trandolapril

> <Conformer>
1

> <SuperDrugID>
SD002443

$$$$
