lamotrigine
  CDK     0628171801

 23 24  0  0  0  0  0  0  0  0999 V2000
   -0.6600    3.5466   -1.2116 N   0  0  0  0  0  0  0  0  0  0  0  0
    0.1115    3.4622   -0.1108 C   0  0  0  0  0  0  0  0  0  0  0  0
    0.1965    2.2966    0.6891 C   0  0  0  0  0  0  0  0  0  0  0  0
    0.8533    4.5461    0.2313 N   0  0  0  0  0  0  0  0  0  0  0  0
    1.0245    2.3581    1.7676 N   0  0  0  0  0  0  0  0  0  0  0  0
   -0.5245    1.1011    0.4288 C   0  0  0  0  0  0  0  0  0  0  0  0
    1.6665    4.5405    1.3160 C   0  0  0  0  0  0  0  0  0  0  0  0
    1.7278    3.4189    2.0738 N   0  0  0  0  0  0  0  0  0  0  0  0
    0.1147   -0.1547    0.2194 C   0  0  0  0  0  0  0  0  0  0  0  0
   -1.9374    1.1659    0.3875 C   0  0  0  0  0  0  0  0  0  0  0  0
    2.3948    5.6226    1.6294 N   0  0  0  0  0  0  0  0  0  0  0  0
    1.8120   -0.2903    0.2760 Cl  0  0  0  0  0  0  0  0  0  0  0  0
   -0.6667   -1.3071   -0.0572 C   0  0  0  0  0  0  0  0  0  0  0  0
   -2.7032    0.0221    0.1124 C   0  0  0  0  0  0  0  0  0  0  0  0
    0.0133   -2.8419   -0.3201 Cl  0  0  0  0  0  0  0  0  0  0  0  0
   -2.0699   -1.2076   -0.1197 C   0  0  0  0  0  0  0  0  0  0  0  0
   -0.6935    4.3736   -1.7179 H   0  0  0  0  0  0  0  0  0  0  0  0
   -1.1880    2.7834   -1.4973 H   0  0  0  0  0  0  0  0  0  0  0  0
   -2.4267    2.0486    0.5627 H   0  0  0  0  0  0  0  0  0  0  0  0
    2.9767    5.6114    2.4059 H   0  0  0  0  0  0  0  0  0  0  0  0
    2.3409    6.4193    1.0772 H   0  0  0  0  0  0  0  0  0  0  0  0
   -3.7233    0.0815    0.0829 H   0  0  0  0  0  0  0  0  0  0  0  0
   -2.6405   -2.0314   -0.3307 H   0  0  0  0  0  0  0  0  0  0  0  0
  1  2  1  0  0  0  0 
  2  3  2  0  0  0  0 
  2  4  1  0  0  0  0 
  3  5  1  0  0  0  0 
  3  6  1  0  0  0  0 
  4  7  2  0  0  0  0 
  5  8  2  0  0  0  0 
  6  9  2  0  0  0  0 
  6 10  1  0  0  0  0 
  7  8  1  0  0  0  0 
  7 11  1  0  0  0  0 
  9 12  1  0  0  0  0 
  9 13  1  0  0  0  0 
 10 14  2  0  0  0  0 
 13 15  1  0  0  0  0 
 13 16  2  0  0  0  0 
 14 16  1  0  0  0  0 
  1 17  1  0  0  0  0 
  1 18  1  0  0  0  0 
 10 19  1  0  0  0  0 
 11 20  1  0  0  0  0 
 11 21  1  0  0  0  0 
 14 22  1  0  0  0  0 
 16 23  1  0  0  0  0 
M  END
> <cdk:Title>
lamotrigine

> <Conformer>
1

> <SuperDrugID>
SD001362

$$$$
