pyridostigmine
  CDK     0628171801

 26 26  0  0  0  0  0  0  0  0999 V2000
   -3.3180   -4.1161    1.3700 C   0  0  0  0  0  0  0  0  0  0  0  0
   -3.3637   -4.3289   -0.0585 N   0  0  0  0  0  0  0  0  0  0  0  0
   -4.0328   -5.5141   -0.5475 C   0  0  0  0  0  0  0  0  0  0  0  0
   -2.7944   -3.3961   -0.9059 C   0  0  0  0  0  0  0  0  0  0  0  0
   -2.8645   -3.5296   -2.1515 O   0  0  0  0  0  0  0  0  0  0  0  0
   -2.0816   -2.3346   -0.4019 O   0  0  0  0  0  0  0  0  0  0  0  0
   -1.5364   -1.2605   -1.0584 C   0  0  0  0  0  0  0  0  0  0  0  0
   -0.2753   -0.7925   -0.6427 C   0  0  0  0  0  0  0  0  0  0  0  0
    0.3393    0.2601   -1.2683 N   0  0  0  0  0  0  0  0  0  0  0  0
    1.6484    0.6603   -0.8192 C   0  0  0  0  0  0  0  0  0  0  0  0
   -0.2811    0.9020   -2.3082 C   0  0  0  0  0  0  0  0  0  0  0  0
   -1.5513    0.4936   -2.7535 C   0  0  0  0  0  0  0  0  0  0  0  0
   -2.1780   -0.5913   -2.1210 C   0  0  0  0  0  0  0  0  0  0  0  0
   -2.2882   -3.9709    1.7024 H   0  0  0  0  0  0  0  0  0  0  0  0
   -3.7255   -4.9566    1.9376 H   0  0  0  0  0  0  0  0  0  0  0  0
   -3.9012   -3.2314    1.6346 H   0  0  0  0  0  0  0  0  0  0  0  0
   -3.6219   -6.4013   -0.0615 H   0  0  0  0  0  0  0  0  0  0  0  0
   -3.9240   -5.6621   -1.6234 H   0  0  0  0  0  0  0  0  0  0  0  0
   -5.1006   -5.4581   -0.3251 H   0  0  0  0  0  0  0  0  0  0  0  0
    0.1886   -1.2657    0.1381 H   0  0  0  0  0  0  0  0  0  0  0  0
    1.6178    0.8972    0.2465 H   0  0  0  0  0  0  0  0  0  0  0  0
    2.0350    1.5385   -1.3418 H   0  0  0  0  0  0  0  0  0  0  0  0
    2.3564   -0.1569   -0.9770 H   0  0  0  0  0  0  0  0  0  0  0  0
    0.1743    1.6877   -2.7827 H   0  0  0  0  0  0  0  0  0  0  0  0
   -2.0136    0.9747   -3.5286 H   0  0  0  0  0  0  0  0  0  0  0  0
   -3.1075   -0.8823   -2.4281 H   0  0  0  0  0  0  0  0  0  0  0  0
  1  2  1  0  0  0  0 
  2  3  1  0  0  0  0 
  2  4  1  0  0  0  0 
  4  5  2  0  0  0  0 
  4  6  1  0  0  0  0 
  6  7  1  0  0  0  0 
  7  8  2  0  0  0  0 
  8  9  1  0  0  0  0 
  9 10  1  0  0  0  0 
  9 11  2  0  0  0  0 
 11 12  1  0  0  0  0 
 12 13  2  0  0  0  0 
  7 13  1  0  0  0  0 
  1 14  1  0  0  0  0 
  1 15  1  0  0  0  0 
  1 16  1  0  0  0  0 
  3 17  1  0  0  0  0 
  3 18  1  0  0  0  0 
  3 19  1  0  0  0  0 
  8 20  1  0  0  0  0 
 10 21  1  0  0  0  0 
 10 22  1  0  0  0  0 
 10 23  1  0  0  0  0 
 11 24  1  0  0  0  0 
 12 25  1  0  0  0  0 
 13 26  1  0  0  0  0 
M  CHG  1   9   1
M  END
> <cdk:Title>
pyridostigmine

> <Conformer>
1

> <SuperDrugID>
SD002094

$$$$
