hexapropymate
  CDK     0628171801

 28 28  0  0  0  0  0  0  0  0999 V2000
    3.0299    0.4079    2.2086 O   0  0  0  0  0  0  0  0  0  0  0  0
    3.2554    0.8415    0.8472 C   0  0  2  0  0  0  0  0  0  0  0  0
    4.7938    0.7920    0.5442 C   0  0  1  0  0  0  0  0  0  0  0  0
    2.7790    2.3353    0.8420 C   0  0  2  0  0  0  0  0  0  0  0  0
    5.2035    1.5746   -0.7324 C   0  0  2  0  0  0  0  0  0  0  0  0
    3.1887    3.1253   -0.4293 C   0  0  2  0  0  0  0  0  0  0  0  0
    4.7136    3.0427   -0.6865 C   0  0  2  0  0  0  0  0  0  0  0  0
    2.4408   -0.0478   -0.1610 C   0  0  1  0  0  0  0  0  0  0  0  0
    1.1230   -0.2259    0.1769 C   0  0  0  0  0  0  0  0  0  0  0  0
   -0.0216   -0.3887    0.4759 C   0  0  0  0  0  0  0  0  0  0  0  0
    3.2767   -0.7884    2.8142 C   0  0  0  0  0  0  0  0  0  0  0  0
    2.9595   -0.9139    4.1111 N   0  0  0  0  0  0  0  0  0  0  0  0
    3.7862   -1.7636    2.2162 O   0  0  0  0  0  0  0  0  0  0  0  0
    5.3378    1.2110    1.3963 H   0  0  0  0  0  0  0  0  0  0  0  0
    5.1240   -0.2438    0.4352 H   0  0  0  0  0  0  0  0  0  0  0  0
    3.2114    2.8491    1.7064 H   0  0  0  0  0  0  0  0  0  0  0  0
    1.6927    2.3858    0.9582 H   0  0  0  0  0  0  0  0  0  0  0  0
    4.7928    1.0823   -1.6176 H   0  0  0  0  0  0  0  0  0  0  0  0
    6.2915    1.5642   -0.8260 H   0  0  0  0  0  0  0  0  0  0  0  0
    2.9016    4.1719   -0.3018 H   0  0  0  0  0  0  0  0  0  0  0  0
    2.6494    2.7441   -1.3003 H   0  0  0  0  0  0  0  0  0  0  0  0
    4.9465    3.5312   -1.6355 H   0  0  0  0  0  0  0  0  0  0  0  0
    5.2451    3.5788    0.1048 H   0  0  0  0  0  0  0  0  0  0  0  0
    2.4698    0.3826   -1.1615 H   0  0  0  0  0  0  0  0  0  0  0  0
    2.8884   -1.0400   -0.2319 H   0  0  0  0  0  0  0  0  0  0  0  0
   -0.9033   -0.5193    0.7122 H   0  0  0  0  0  0  0  0  0  0  0  0
    2.5763   -0.1652    4.5934 H   0  0  0  0  0  0  0  0  0  0  0  0
    3.1134   -1.7514    4.5734 H   0  0  0  0  0  0  0  0  0  0  0  0
  1  2  1  0  0  0  0 
  2  3  1  0  0  0  0 
  2  4  1  0  0  0  0 
  3  5  1  0  0  0  0 
  4  6  1  0  0  0  0 
  5  7  1  0  0  0  0 
  6  7  1  0  0  0  0 
  2  8  1  0  0  0  0 
  8  9  1  0  0  0  0 
  9 10  3  0  0  0  0 
  1 11  1  0  0  0  0 
 11 12  1  0  0  0  0 
 11 13  2  0  0  0  0 
 14  3  1  0  0  0  0 
 15  3  1  0  0  0  0 
 16  4  1  0  0  0  0 
 17  4  1  0  0  0  0 
 18  5  1  0  0  0  0 
 19  5  1  0  0  0  0 
 20  6  1  0  0  0  0 
 21  6  1  0  0  0  0 
 22  7  1  0  0  0  0 
 23  7  1  0  0  0  0 
 24  8  1  0  0  0  0 
 25  8  1  0  0  0  0 
 26 10  1  0  0  0  0 
 27 12  1  0  0  0  0 
 28 12  1  0  0  0  0 
M  END
> <cdk:Title>
hexapropymate

> <Conformer>
1

> <SuperDrugID>
SD001213

$$$$
