levomefolic acid
  CDK     0628171802

 58 60  0  0  0  0  0  0  0  0999 V2000
    1.9340    0.1811    0.0773 C   0  0  0  0  0  0  0  0  0  0  0  0
    0.4893    0.2034    0.0187 N   0  0  0  0  0  0  0  0  0  0  0  0
   -0.2548    1.1729    0.6980 C   0  0  0  0  0  0  0  0  0  0  0  0
   -0.2051   -0.8334   -0.7415 C   0  0  1  0  0  0  0  0  0  0  0  0
   -1.5813    1.4368    0.2682 C   0  0  0  0  0  0  0  0  0  0  0  0
    0.1910    1.9587    1.7964 C   0  0  0  0  0  0  0  0  0  0  0  0
   -0.5330   -2.0535    0.1752 C   0  0  1  0  0  0  0  0  0  0  0  0
   -1.4426   -0.2471   -1.4920 C   0  0  1  0  0  0  0  0  0  0  0  0
   -2.1417    0.7437   -0.7495 N   0  0  0  0  0  0  0  0  0  0  0  0
   -2.3292    2.4100    0.8455 N   0  0  0  0  0  0  0  0  0  0  0  0
    1.3105    1.8105    2.3346 O   0  0  0  0  0  0  0  0  0  0  0  0
   -0.6000    2.9235    2.3330 N   0  0  0  0  0  0  0  0  0  0  0  0
    0.6558   -2.8196    0.4009 N   0  0  0  0  0  0  0  0  0  0  0  0
   -1.8476    3.1623    1.8616 C   0  0  0  0  0  0  0  0  0  0  0  0
    0.7612   -4.0225    1.0357 C   0  0  0  0  0  0  0  0  0  0  0  0
   -2.5990    4.1401    2.3930 N   0  0  0  0  0  0  0  0  0  0  0  0
    2.0037   -4.6869    0.9705 C   0  0  0  0  0  0  0  0  0  0  0  0
   -0.2937   -4.6426    1.7401 C   0  0  0  0  0  0  0  0  0  0  0  0
    2.1889   -5.9394    1.5885 C   0  0  0  0  0  0  0  0  0  0  0  0
   -0.1044   -5.8913    2.3599 C   0  0  0  0  0  0  0  0  0  0  0  0
    1.1394   -6.5732    2.3038 C   0  0  0  0  0  0  0  0  0  0  0  0
    1.3087   -7.8392    2.9514 C   0  0  0  0  0  0  0  0  0  0  0  0
    2.4737   -8.5602    2.8810 N   0  0  0  0  0  0  0  0  0  0  0  0
    0.3583   -8.3191    3.6189 O   0  0  0  0  0  0  0  0  0  0  0  0
    2.7218   -9.8247    3.5194 C   0  0  1  0  0  0  0  0  0  0  0  0
    3.9166  -10.5782    2.8586 C   0  0  2  0  0  0  0  0  0  0  0  0
    2.9581   -9.6060    4.9644 C   0  0  0  0  0  0  0  0  0  0  0  0
    3.6659  -10.9434    1.3691 C   0  0  1  0  0  0  0  0  0  0  0  0
    4.0335   -8.9059    5.3903 O   0  0  0  0  0  0  0  0  0  0  0  0
    2.1639  -10.0536    5.8222 O   0  0  0  0  0  0  0  0  0  0  0  0
    4.7742  -11.7114    0.7728 C   0  0  0  0  0  0  0  0  0  0  0  0
    5.5828  -11.1376   -0.1468 O   0  0  0  0  0  0  0  0  0  0  0  0
    4.9826  -12.9010    1.1040 O   0  0  0  0  0  0  0  0  0  0  0  0
    2.2603   -0.2162    1.0392 H   0  0  0  0  0  0  0  0  0  0  0  0
    2.3343    1.1884   -0.0498 H   0  0  0  0  0  0  0  0  0  0  0  0
    2.3847   -0.4360   -0.7018 H   0  0  0  0  0  0  0  0  0  0  0  0
    0.4335   -1.2148   -1.5469 H   0  0  0  0  0  0  0  0  0  0  0  0
   -0.9418   -1.7146    1.1300 H   0  0  0  0  0  0  0  0  0  0  0  0
   -1.2725   -2.6980   -0.3099 H   0  0  0  0  0  0  0  0  0  0  0  0
   -1.1090    0.2289   -2.4181 H   0  0  0  0  0  0  0  0  0  0  0  0
   -2.1430   -1.0359   -1.7705 H   0  0  0  0  0  0  0  0  0  0  0  0
   -3.0540    0.9510   -1.0059 H   0  0  0  0  0  0  0  0  0  0  0  0
   -0.2620    3.4554    3.0709 H   0  0  0  0  0  0  0  0  0  0  0  0
    1.4772   -2.4553    0.0367 H   0  0  0  0  0  0  0  0  0  0  0  0
   -3.4852    4.3183    2.0396 H   0  0  0  0  0  0  0  0  0  0  0  0
   -2.2542    4.6755    3.1257 H   0  0  0  0  0  0  0  0  0  0  0  0
    2.7878   -4.2626    0.4644 H   0  0  0  0  0  0  0  0  0  0  0  0
   -1.2077   -4.1906    1.8100 H   0  0  0  0  0  0  0  0  0  0  0  0
    3.1087   -6.3771    1.5065 H   0  0  0  0  0  0  0  0  0  0  0  0
   -0.8998   -6.2969    2.8591 H   0  0  0  0  0  0  0  0  0  0  0  0
    3.2038   -8.1828    2.3675 H   0  0  0  0  0  0  0  0  0  0  0  0
    1.8396  -10.4616    3.4000 H   0  0  0  0  0  0  0  0  0  0  0  0
    4.0958  -11.5037    3.4148 H   0  0  0  0  0  0  0  0  0  0  0  0
    4.8226   -9.9667    2.9305 H   0  0  0  0  0  0  0  0  0  0  0  0
    2.7527  -11.5351    1.2832 H   0  0  0  0  0  0  0  0  0  0  0  0
    3.5243  -10.0265    0.7922 H   0  0  0  0  0  0  0  0  0  0  0  0
    4.1842   -8.7804    6.3497 H   0  0  0  0  0  0  0  0  0  0  0  0
    6.3209  -11.6424   -0.5462 H   0  0  0  0  0  0  0  0  0  0  0  0
  1  2  1  0  0  0  0 
  2  3  1  0  0  0  0 
  4  2  1  0  0  0  0 
  3  5  2  0  0  0  0 
  3  6  1  0  0  0  0 
  4  7  1  0  0  0  0 
  4  8  1  0  0  0  0 
  5  9  1  0  0  0  0 
  5 10  1  0  0  0  0 
  6 11  2  0  0  0  0 
  6 12  1  0  0  0  0 
  7 13  1  0  0  0  0 
  8  9  1  0  0  0  0 
 10 14  2  0  0  0  0 
 12 14  1  0  0  0  0 
 13 15  1  0  0  0  0 
 14 16  1  0  0  0  0 
 15 17  2  0  0  0  0 
 15 18  1  0  0  0  0 
 17 19  1  0  0  0  0 
 18 20  2  0  0  0  0 
 19 21  2  0  0  0  0 
 20 21  1  0  0  0  0 
 21 22  1  0  0  0  0 
 22 23  1  0  0  0  0 
 22 24  2  0  0  0  0 
 25 23  1  0  0  0  0 
 25 26  1  0  0  0  0 
 25 27  1  0  0  0  0 
 26 28  1  0  0  0  0 
 27 29  1  0  0  0  0 
 27 30  2  0  0  0  0 
 28 31  1  0  0  0  0 
 31 32  1  0  0  0  0 
 31 33  2  0  0  0  0 
 34  1  1  0  0  0  0 
 35  1  1  0  0  0  0 
 36  1  1  0  0  0  0 
  4 37  1  0  0  0  0 
 38  7  1  0  0  0  0 
 39  7  1  0  0  0  0 
 40  8  1  0  0  0  0 
 41  8  1  0  0  0  0 
 42  9  1  0  0  0  0 
 43 12  1  0  0  0  0 
 44 13  1  0  0  0  0 
 45 16  1  0  0  0  0 
 46 16  1  0  0  0  0 
 47 17  1  0  0  0  0 
 48 18  1  0  0  0  0 
 49 19  1  0  0  0  0 
 50 20  1  0  0  0  0 
 51 23  1  0  0  0  0 
 25 52  1  0  0  0  0 
 53 26  1  0  0  0  0 
 54 26  1  0  0  0  0 
 55 28  1  0  0  0  0 
 56 28  1  0  0  0  0 
 57 29  1  0  0  0  0 
 58 32  1  0  0  0  0 
M  END
> <cdk:Title>
levomefolic acid

> <Conformer>
1

> <SuperDrugID>
SD003665

$$$$
