vincristine
  CDK     0628171801

116124  0  0  0  0  0  0  0  0999 V2000
   -7.1525    2.9503   -0.0799 C   0  0  2  0  0  0  0  0  0  0  0  0
   -8.2294    3.2766    0.9959 C   0  0  0  0  0  0  0  0  0  0  0  0
   -7.6262    2.6176   -1.5516 C   0  0  1  0  0  0  0  0  0  0  0  0
   -6.3301    2.4124   -2.4356 C   0  0  1  0  0  0  0  0  0  0  0  0
   -8.5698    1.3529   -1.6983 C   0  0  1  0  0  0  0  0  0  0  0  0
   -8.3943    3.7915   -2.0417 C   0  0  0  0  0  0  0  0  0  0  0  0
   -5.6402    1.0122   -2.4684 C   0  0  2  0  0  0  0  0  0  0  0  0
   -6.6814    2.6189   -3.8610 N   0  0  2  0  0  0  0  0  0  0  0  0
   -9.1220    1.3359   -3.0379 O   0  0  0  0  0  0  0  0  0  0  0  0
   -7.9175   -0.0661   -1.5165 C   0  0  1  0  0  0  0  0  0  0  0  0
   -8.1971    4.4081   -3.2211 C   0  0  0  0  0  0  0  0  0  0  0  0
   -6.6325   -0.2071   -2.4356 C   0  0  2  0  0  0  0  0  0  0  0  0
   -4.7131    0.5960   -1.3915 C   0  0  0  0  0  0  0  0  0  0  0  0
   -4.8276    1.1075   -3.8055 C   0  0  1  0  0  0  0  0  0  0  0  0
   -5.5996    2.0868   -4.7108 C   0  0  1  0  0  0  0  0  0  0  0  0
   -7.1968    3.9780   -4.1778 C   0  0  2  0  0  0  0  0  0  0  0  0
  -10.4270    1.3849   -3.4320 C   0  0  0  0  0  0  0  0  0  0  0  0
   -7.7741   -0.5448   -0.0968 C   0  0  0  0  0  0  0  0  0  0  0  0
   -8.8713   -1.0258   -2.0061 O   0  0  0  0  0  0  0  0  0  0  0  0
   -5.7797   -1.2765   -1.9854 N   0  0  0  0  0  0  0  0  0  0  0  0
   -4.8415   -0.7649   -1.1557 C   0  0  0  0  0  0  0  0  0  0  0  0
   -3.7286    1.3356   -0.7153 C   0  0  0  0  0  0  0  0  0  0  0  0
  -10.7435    1.2230   -4.8570 C   0  0  0  0  0  0  0  0  0  0  0  0
  -11.3557    1.5404   -2.6059 O   0  0  0  0  0  0  0  0  0  0  0  0
   -7.9126    0.2608    0.9923 O   0  0  0  0  0  0  0  0  0  0  0  0
   -7.5451   -1.7611    0.1199 O   0  0  0  0  0  0  0  0  0  0  0  0
   -5.8907   -2.5932   -2.3416 C   0  0  0  0  0  0  0  0  0  0  0  0
   -4.0940   -1.3825   -0.1434 C   0  0  0  0  0  0  0  0  0  0  0  0
   -2.8429    0.7400    0.2398 C   0  0  0  0  0  0  0  0  0  0  0  0
   -7.7602   -0.1260    2.3632 C   0  0  0  0  0  0  0  0  0  0  0  0
   -6.7899   -2.9991   -3.1130 O   0  0  0  0  0  0  0  0  0  0  0  0
   -3.1586   -0.6209    0.5920 C   0  0  0  0  0  0  0  0  0  0  0  0
   -1.6591    1.5393    0.8583 C   0  0  2  0  0  0  0  0  0  0  0  0
   -2.5587   -1.2857    1.6301 O   0  0  0  0  0  0  0  0  0  0  0  0
   -0.5587    0.5317    0.9779 C   0  0  0  0  0  0  0  0  0  0  0  0
   -2.1543    2.1674    2.1522 C   0  0  0  0  0  0  0  0  0  0  0  0
   -1.1885    2.6870   -0.1418 C   0  0  2  0  0  0  0  0  0  0  0  0
   -3.3166   -1.2512    2.8534 C   0  0  0  0  0  0  0  0  0  0  0  0
   -0.0397   -0.0105   -0.1676 O   0  0  0  0  0  0  0  0  0  0  0  0
   -0.2240    0.0380    2.0800 O   0  0  0  0  0  0  0  0  0  0  0  0
   -1.5187    2.6295    3.3392 C   0  0  0  0  0  0  0  0  0  0  0  0
   -3.4723    2.4406    2.3000 N   0  0  0  0  0  0  0  0  0  0  0  0
    0.0720    3.6257   -0.0402 C   0  0  1  0  0  0  0  0  0  0  0  0
    0.9179   -1.0639   -0.3026 C   0  0  0  0  0  0  0  0  0  0  0  0
   -2.5351    3.1382    4.1608 C   0  0  0  0  0  0  0  0  0  0  0  0
   -0.0922    2.6460    3.7707 C   0  0  1  0  0  0  0  0  0  0  0  0
   -3.7339    2.9984    3.4790 C   0  0  0  0  0  0  0  0  0  0  0  0
    0.0867    4.6354    1.1465 C   0  0  2  0  0  0  0  0  0  0  0  0
    1.4856    3.0425   -0.4195 C   0  0  1  0  0  0  0  0  0  0  0  0
   -2.5244    3.7080    5.4527 C   0  0  0  0  0  0  0  0  0  0  0  0
    0.6037    4.0181    3.5970 C   0  0  2  0  0  0  0  0  0  0  0  0
   -4.9596    3.4035    4.0285 C   0  0  0  0  0  0  0  0  0  0  0  0
    1.0498    4.2437    2.1965 N   0  0  0  0  0  0  0  0  0  0  0  0
    2.5530    2.8702    0.7198 C   0  0  2  0  0  0  0  0  0  0  0  0
   -3.7478    4.1120    6.0310 C   0  0  0  0  0  0  0  0  0  0  0  0
   -4.9595    3.9616    5.3219 C   0  0  0  0  0  0  0  0  0  0  0  0
    2.4523    4.0217    1.7609 C   0  0  1  0  0  0  0  0  0  0  0  0
    4.0213    2.8058    0.1691 C   0  0  2  0  0  0  0  0  0  0  0  0
    2.3258    1.6386    1.3957 O   0  0  0  0  0  0  0  0  0  0  0  0
    4.3275    1.6374   -0.8017 C   0  0  0  0  0  0  0  0  0  0  0  0
   -5.5799    3.1715   -2.1751 H   0  0  0  0  0  0  0  0  0  0  0  0
   -6.9641   -0.3867   -3.4654 H   0  0  0  0  0  0  0  0  0  0  0  0
   -0.1359    4.2914   -0.8937 H   0  0  0  0  0  0  0  0  0  0  0  0
   -6.5322    2.1337    0.2868 H   0  0  0  0  0  0  0  0  0  0  0  0
   -6.4921    3.8237   -0.1082 H   0  0  0  0  0  0  0  0  0  0  0  0
   -7.7644    3.2938    1.9826 H   0  0  0  0  0  0  0  0  0  0  0  0
   -8.6705    4.2589    0.8217 H   0  0  0  0  0  0  0  0  0  0  0  0
   -9.0297    2.5394    1.0128 H   0  0  0  0  0  0  0  0  0  0  0  0
   -9.3923    1.4340   -0.9847 H   0  0  0  0  0  0  0  0  0  0  0  0
   -9.1371    4.1425   -1.4822 H   0  0  0  0  0  0  0  0  0  0  0  0
   -8.7668    5.1882   -3.4599 H   0  0  0  0  0  0  0  0  0  0  0  0
   -3.8247    1.5174   -3.6363 H   0  0  0  0  0  0  0  0  0  0  0  0
   -4.7067    0.1361   -4.2938 H   0  0  0  0  0  0  0  0  0  0  0  0
   -6.0400    1.5669   -5.5651 H   0  0  0  0  0  0  0  0  0  0  0  0
   -4.9345    2.8769   -5.0768 H   0  0  0  0  0  0  0  0  0  0  0  0
   -7.6504    3.9544   -5.1723 H   0  0  0  0  0  0  0  0  0  0  0  0
   -6.3858    4.7105   -4.1826 H   0  0  0  0  0  0  0  0  0  0  0  0
   -8.9619   -0.8621   -2.9681 H   0  0  0  0  0  0  0  0  0  0  0  0
   -3.6781    2.3202   -0.9560 H   0  0  0  0  0  0  0  0  0  0  0  0
   -9.8325    1.0922   -5.4434 H   0  0  0  0  0  0  0  0  0  0  0  0
  -11.3670    0.3379   -4.9931 H   0  0  0  0  0  0  0  0  0  0  0  0
  -11.2788    2.0991   -5.2238 H   0  0  0  0  0  0  0  0  0  0  0  0
   -5.2304   -3.2853   -1.9814 H   0  0  0  0  0  0  0  0  0  0  0  0
   -4.2427   -2.3702    0.0737 H   0  0  0  0  0  0  0  0  0  0  0  0
   -6.7860   -0.5898    2.5172 H   0  0  0  0  0  0  0  0  0  0  0  0
   -7.8274    0.7525    3.0016 H   0  0  0  0  0  0  0  0  0  0  0  0
   -8.5451   -0.8290    2.6434 H   0  0  0  0  0  0  0  0  0  0  0  0
   -2.0129    3.4040   -0.1804 H   0  0  0  0  0  0  0  0  0  0  0  0
   -1.1270    2.2364   -1.1410 H   0  0  0  0  0  0  0  0  0  0  0  0
   -2.7279   -1.7416    3.6287 H   0  0  0  0  0  0  0  0  0  0  0  0
   -3.5145   -0.2283    3.1769 H   0  0  0  0  0  0  0  0  0  0  0  0
   -4.2618   -1.7898    2.7488 H   0  0  0  0  0  0  0  0  0  0  0  0
   -4.1477    2.2475    1.6337 H   0  0  0  0  0  0  0  0  0  0  0  0
    1.7416   -0.7300   -0.9336 H   0  0  0  0  0  0  0  0  0  0  0  0
    0.4239   -1.9094   -0.7810 H   0  0  0  0  0  0  0  0  0  0  0  0
    1.3120   -1.3843    0.6609 H   0  0  0  0  0  0  0  0  0  0  0  0
   -0.0493    2.3649    4.8259 H   0  0  0  0  0  0  0  0  0  0  0  0
    0.5043    1.9066    3.2653 H   0  0  0  0  0  0  0  0  0  0  0  0
   -0.9187    4.7841    1.5481 H   0  0  0  0  0  0  0  0  0  0  0  0
    0.4131    5.6152    0.7842 H   0  0  0  0  0  0  0  0  0  0  0  0
    1.3575    2.0944   -0.9437 H   0  0  0  0  0  0  0  0  0  0  0  0
    1.9278    3.7237   -1.1550 H   0  0  0  0  0  0  0  0  0  0  0  0
   -1.6525    3.8288    5.9706 H   0  0  0  0  0  0  0  0  0  0  0  0
    1.4666    4.0592    4.2667 H   0  0  0  0  0  0  0  0  0  0  0  0
   -0.0611    4.8295    3.9053 H   0  0  0  0  0  0  0  0  0  0  0  0
   -5.8269    3.2933    3.5060 H   0  0  0  0  0  0  0  0  0  0  0  0
   -3.7571    4.5151    6.9694 H   0  0  0  0  0  0  0  0  0  0  0  0
   -5.8402    4.2563    5.7485 H   0  0  0  0  0  0  0  0  0  0  0  0
    2.8181    4.9517    1.3153 H   0  0  0  0  0  0  0  0  0  0  0  0
    3.1008    3.8031    2.6133 H   0  0  0  0  0  0  0  0  0  0  0  0
    4.7181    2.7213    1.0083 H   0  0  0  0  0  0  0  0  0  0  0  0
    4.2540    3.7417   -0.3492 H   0  0  0  0  0  0  0  0  0  0  0  0
    1.3721    1.6432    1.5878 H   0  0  0  0  0  0  0  0  0  0  0  0
    5.3696    1.6948   -1.1261 H   0  0  0  0  0  0  0  0  0  0  0  0
    4.1759    0.6768   -0.3036 H   0  0  0  0  0  0  0  0  0  0  0  0
    3.6923    1.6887   -1.6868 H   0  0  0  0  0  0  0  0  0  0  0  0
  1  2  1  0  0  0  0 
  3  1  1  0  0  0  0 
  4  3  1  0  0  0  0 
  5  3  1  0  0  0  0 
  3  6  1  0  0  0  0 
  7  4  1  0  0  0  0 
  4  8  1  0  0  0  0 
  4 61  1  0  0  0  0 
  5  9  1  0  0  0  0 
 10  5  1  0  0  0  0 
  6 11  2  0  0  0  0 
 12  7  1  0  0  0  0 
  7 13  1  0  0  0  0 
  7 14  1  0  0  0  0 
  8 15  1  0  0  0  0 
  8 16  1  0  0  0  0 
  9 17  1  0  0  0  0 
 12 10  1  0  0  0  0 
 10 18  1  0  0  0  0 
 10 19  1  0  0  0  0 
 11 16  1  0  0  0  0 
 12 20  1  0  0  0  0 
 12 62  1  0  0  0  0 
 13 21  2  0  0  0  0 
 13 22  1  0  0  0  0 
 14 15  1  0  0  0  0 
 17 23  1  0  0  0  0 
 17 24  2  0  0  0  0 
 18 25  1  0  0  0  0 
 18 26  2  0  0  0  0 
 20 21  1  0  0  0  0 
 20 27  1  0  0  0  0 
 21 28  1  0  0  0  0 
 22 29  2  0  0  0  0 
 25 30  1  0  0  0  0 
 27 31  2  0  0  0  0 
 28 32  2  0  0  0  0 
 29 32  1  0  0  0  0 
 33 29  1  0  0  0  0 
 32 34  1  0  0  0  0 
 33 35  1  0  0  0  0 
 33 36  1  0  0  0  0 
 33 37  1  0  0  0  0 
 34 38  1  0  0  0  0 
 35 39  1  0  0  0  0 
 35 40  2  0  0  0  0 
 36 41  2  0  0  0  0 
 36 42  1  0  0  0  0 
 43 37  1  0  0  0  0 
 39 44  1  0  0  0  0 
 41 45  1  0  0  0  0 
 41 46  1  0  0  0  0 
 42 47  1  0  0  0  0 
 43 48  1  0  0  0  0 
 43 49  1  0  0  0  0 
 43 63  1  0  0  0  0 
 45 47  1  0  0  0  0 
 45 50  2  0  0  0  0 
 46 51  1  0  0  0  0 
 47 52  2  0  0  0  0 
 54 49  1  0  0  0  0 
 50 55  1  0  0  0  0 
 53 51  1  0  0  0  0 
 52 56  1  0  0  0  0 
 53 48  1  0  0  0  0 
 53 57  1  0  0  0  0 
 54 57  1  0  0  0  0 
 54 58  1  0  0  0  0 
 54 59  1  0  0  0  0 
 55 56  2  0  0  0  0 
 58 60  1  0  0  0  0 
  1 64  1  0  0  0  0 
  1 65  1  0  0  0  0 
  2 66  1  0  0  0  0 
  2 67  1  0  0  0  0 
  2 68  1  0  0  0  0 
  5 69  1  0  0  0  0 
  6 70  1  0  0  0  0 
 11 71  1  0  0  0  0 
 14 72  1  0  0  0  0 
 14 73  1  0  0  0  0 
 15 74  1  0  0  0  0 
 15 75  1  0  0  0  0 
 16 76  1  0  0  0  0 
 16 77  1  0  0  0  0 
 19 78  1  0  0  0  0 
 22 79  1  0  0  0  0 
 23 80  1  0  0  0  0 
 23 81  1  0  0  0  0 
 23 82  1  0  0  0  0 
 27 83  1  0  0  0  0 
 28 84  1  0  0  0  0 
 30 85  1  0  0  0  0 
 30 86  1  0  0  0  0 
 30 87  1  0  0  0  0 
 37 88  1  0  0  0  0 
 37 89  1  0  0  0  0 
 38 90  1  0  0  0  0 
 38 91  1  0  0  0  0 
 38 92  1  0  0  0  0 
 42 93  1  0  0  0  0 
 44 94  1  0  0  0  0 
 44 95  1  0  0  0  0 
 44 96  1  0  0  0  0 
 46 97  1  0  0  0  0 
 46 98  1  0  0  0  0 
 48 99  1  0  0  0  0 
 48100  1  0  0  0  0 
 49101  1  0  0  0  0 
 49102  1  0  0  0  0 
 50103  1  0  0  0  0 
 51104  1  0  0  0  0 
 51105  1  0  0  0  0 
 52106  1  0  0  0  0 
 55107  1  0  0  0  0 
 56108  1  0  0  0  0 
 57109  1  0  0  0  0 
 57110  1  0  0  0  0 
 58111  1  0  0  0  0 
 58112  1  0  0  0  0 
 59113  1  0  0  0  0 
 60114  1  0  0  0  0 
 60115  1  0  0  0  0 
 60116  1  0  0  0  0 
M  END
> <cdk:Title>
vincristine

> <Conformer>
1

> <SuperDrugID>
SD002548

$$$$
