erythromycin ethyl succinate
  CDK     0628171801

135137  0  0  0  0  0  0  0  0999 V2000
   -3.3862    4.2755    6.0177 O   0  0  0  0  0  0  0  0  0  0  0  0
   -2.2077    3.7058    5.6150 C   0  0  0  0  0  0  0  0  0  0  0  0
   -4.1302    5.4042    5.5128 C   0  0  1  0  0  0  0  0  0  0  0  0
   -1.7513    2.4587    6.2695 C   0  0  1  0  0  0  0  0  0  0  0  0
   -1.5210    4.1996    4.6909 O   0  0  0  0  0  0  0  0  0  0  0  0
   -3.7129    6.7608    6.1550 C   0  0  2  0  0  0  0  0  0  0  0  0
   -4.1651    5.5198    3.9495 C   0  0  1  0  0  0  0  0  0  0  0  0
   -2.8857    1.4092    6.4052 C   0  0  2  0  0  0  0  0  0  0  0  0
   -3.7367    6.6171    7.5940 O   0  0  0  0  0  0  0  0  0  0  0  0
   -4.6195    7.8005    5.7045 O   0  0  0  0  0  0  0  0  0  0  0  0
   -4.4468    4.2096    3.2588 N   0  0  2  0  0  0  0  0  0  0  0  0
   -5.0853    6.7084    3.5354 C   0  0  2  0  0  0  0  0  0  0  0  0
   -2.4420    0.1337    7.0030 C   0  0  0  0  0  0  0  0  0  0  0  0
   -3.7682    7.7745    8.4865 C   0  0  2  0  0  0  0  0  0  0  0  0
   -4.6538    8.0113    4.2733 C   0  0  1  0  0  0  0  0  0  0  0  0
   -4.0791    4.1560    1.8116 C   0  0  0  0  0  0  0  0  0  0  0  0
   -5.7516    3.5444    3.5462 C   0  0  0  0  0  0  0  0  0  0  0  0
   -2.7033   -1.0387    6.3516 O   0  0  0  0  0  0  0  0  0  0  0  0
   -1.8846    0.1408    8.1262 O   0  0  0  0  0  0  0  0  0  0  0  0
   -2.5253    8.7683    8.3481 C   0  0  1  0  0  0  0  0  0  0  0  0
   -4.1145    7.1974    9.9243 C   0  0  2  0  0  0  0  0  0  0  0  0
   -5.6117    9.1866    3.9702 C   0  0  0  0  0  0  0  0  0  0  0  0
   -2.3753   -2.3627    6.7966 C   0  0  1  0  0  0  0  0  0  0  0  0
   -2.9457   10.2666    8.4447 C   0  0  0  0  0  0  0  0  0  0  0  0
   -1.1517    8.4499    9.0843 C   0  0  2  0  0  0  0  0  0  0  0  0
   -5.6445    6.8916   10.0344 C   0  0  0  0  0  0  0  0  0  0  0  0
   -3.9010    8.2366   10.8743 O   0  0  0  0  0  0  0  0  0  0  0  0
   -3.2983    5.8838   10.2780 C   0  0  1  0  0  0  0  0  0  0  0  0
   -2.9832   -3.3930    5.8267 C   0  0  0  0  0  0  0  0  0  0  0  0
   -1.0216    8.6614   10.5240 O   0  0  0  0  0  0  0  0  0  0  0  0
    0.1519    8.7520    8.2187 C   0  0  1  0  0  0  0  0  0  0  0  0
   -2.6491    5.6822   11.6966 C   0  0  1  0  0  0  0  0  0  0  0  0
   -1.2449    9.9102   11.2261 C   0  0  1  0  0  0  0  0  0  0  0  0
    1.2691    9.6305    8.8474 C   0  0  0  0  0  0  0  0  0  0  0  0
    0.7696    7.5168    7.6308 C   0  0  0  0  0  0  0  0  0  0  0  0
   -3.5306    4.7747   12.6042 C   0  0  0  0  0  0  0  0  0  0  0  0
   -1.2418    5.1526   11.6239 C   0  0  0  0  0  0  0  0  0  0  0  0
   -0.8010    9.6857   12.7003 C   0  0  2  0  0  0  0  0  0  0  0  0
   -0.5250   11.0169   10.6539 O   0  0  0  0  0  0  0  0  0  0  0  0
    0.6285    7.2975    6.4053 O   0  0  0  0  0  0  0  0  0  0  0  0
    1.5636    6.6082    8.2844 O   0  0  0  0  0  0  0  0  0  0  0  0
   -0.3487    5.7730   12.2461 O   0  0  0  0  0  0  0  0  0  0  0  0
   -0.8557    3.9062   10.8914 C   0  0  2  0  0  0  0  0  0  0  0  0
   -0.9114   10.9733   13.5789 C   0  0  2  0  0  0  0  0  0  0  0  0
   -0.5896   12.2948   11.3243 C   0  0  2  0  0  0  0  0  0  0  0  0
    1.6863    6.2303    9.6744 C   0  0  2  0  0  0  0  0  0  0  0  0
   -0.4000    2.8040   11.8949 C   0  0  0  0  0  0  0  0  0  0  0  0
    0.1084    4.0769    9.6519 C   0  0  2  0  0  0  0  0  0  0  0  0
   -0.1572   10.6875   14.8363 O   0  0  0  0  0  0  0  0  0  0  0  0
   -2.3916   11.2470   14.0022 C   0  0  0  0  0  0  0  0  0  0  0  0
   -0.2287   12.1786   12.8389 C   0  0  2  0  0  0  0  0  0  0  0  0
   -1.8952   13.0662   11.0007 C   0  0  0  0  0  0  0  0  0  0  0  0
    3.0264    6.8367   10.2217 C   0  0  2  0  0  0  0  0  0  0  0  0
    1.5782    4.6515    9.8025 C   0  0  1  0  0  0  0  0  0  0  0  0
   -0.5610    4.7773    8.6071 O   0  0  0  0  0  0  0  0  0  0  0  0
    0.0318   11.6118   15.9796 C   0  0  0  0  0  0  0  0  0  0  0  0
    1.1954   12.0531   12.9438 O   0  0  0  0  0  0  0  0  0  0  0  0
    2.9766    7.2741   11.7067 C   0  0  0  0  0  0  0  0  0  0  0  0
    2.5003    3.9534    8.7407 C   0  0  0  0  0  0  0  0  0  0  0  0
    2.1041    4.2503   11.0686 O   0  0  0  0  0  0  0  0  0  0  0  0
   -2.3062   10.1298   11.2182 H   0  0  0  0  0  0  0  0  0  0  0  0
   -2.6885    6.9907    5.8527 H   0  0  0  0  0  0  0  0  0  0  0  0
   -5.1508    5.2192    5.8597 H   0  0  0  0  0  0  0  0  0  0  0  0
   -0.9242    2.0231    5.6995 H   0  0  0  0  0  0  0  0  0  0  0  0
   -1.3888    2.7029    7.2680 H   0  0  0  0  0  0  0  0  0  0  0  0
   -3.1563    5.8157    3.6464 H   0  0  0  0  0  0  0  0  0  0  0  0
   -3.3177    1.2143    5.4211 H   0  0  0  0  0  0  0  0  0  0  0  0
   -3.6740    1.8135    7.0457 H   0  0  0  0  0  0  0  0  0  0  0  0
   -6.1238    6.4770    3.7862 H   0  0  0  0  0  0  0  0  0  0  0  0
   -5.0188    6.8698    2.4561 H   0  0  0  0  0  0  0  0  0  0  0  0
   -4.6441    8.3539    8.1752 H   0  0  0  0  0  0  0  0  0  0  0  0
   -3.6571    8.3093    3.9300 H   0  0  0  0  0  0  0  0  0  0  0  0
   -3.0792    4.5618    1.6491 H   0  0  0  0  0  0  0  0  0  0  0  0
   -4.0643    3.1205    1.4635 H   0  0  0  0  0  0  0  0  0  0  0  0
   -4.7900    4.7177    1.2020 H   0  0  0  0  0  0  0  0  0  0  0  0
   -5.8754    3.3647    4.6131 H   0  0  0  0  0  0  0  0  0  0  0  0
   -5.7995    2.5661    3.0612 H   0  0  0  0  0  0  0  0  0  0  0  0
   -6.5876    4.1472    3.1902 H   0  0  0  0  0  0  0  0  0  0  0  0
   -2.2825    8.6855    7.2915 H   0  0  0  0  0  0  0  0  0  0  0  0
   -6.6208    8.9537    4.3150 H   0  0  0  0  0  0  0  0  0  0  0  0
   -5.2670   10.0879    4.4796 H   0  0  0  0  0  0  0  0  0  0  0  0
   -5.6420    9.3872    2.8975 H   0  0  0  0  0  0  0  0  0  0  0  0
   -1.2904   -2.4865    6.8362 H   0  0  0  0  0  0  0  0  0  0  0  0
   -2.7819   -2.5333    7.7953 H   0  0  0  0  0  0  0  0  0  0  0  0
   -2.0714   10.9190    8.4404 H   0  0  0  0  0  0  0  0  0  0  0  0
   -3.5341   10.4588    9.3400 H   0  0  0  0  0  0  0  0  0  0  0  0
   -3.5623   10.5444    7.5850 H   0  0  0  0  0  0  0  0  0  0  0  0
   -1.1685    7.3726    9.0989 H   0  0  0  0  0  0  0  0  0  0  0  0
   -6.2359    7.7990    9.8910 H   0  0  0  0  0  0  0  0  0  0  0  0
   -5.8888    6.4881   11.0199 H   0  0  0  0  0  0  0  0  0  0  0  0
   -5.9522    6.1619    9.2819 H   0  0  0  0  0  0  0  0  0  0  0  0
   -4.2220    7.8891   11.7321 H   0  0  0  0  0  0  0  0  0  0  0  0
   -3.9025    5.0046   10.0353 H   0  0  0  0  0  0  0  0  0  0  0  0
   -2.5058    5.8073    9.5590 H   0  0  0  0  0  0  0  0  0  0  0  0
   -2.7160   -4.4038    6.1398 H   0  0  0  0  0  0  0  0  0  0  0  0
   -4.0716   -3.3046    5.8176 H   0  0  0  0  0  0  0  0  0  0  0  0
   -2.6094   -3.2253    4.8150 H   0  0  0  0  0  0  0  0  0  0  0  0
   -0.1657    9.3582    7.3644 H   0  0  0  0  0  0  0  0  0  0  0  0
   -2.6023    6.6484   12.2030 H   0  0  0  0  0  0  0  0  0  0  0  0
    0.9910   10.6844    8.8169 H   0  0  0  0  0  0  0  0  0  0  0  0
    1.4663    9.3433    9.8784 H   0  0  0  0  0  0  0  0  0  0  0  0
    2.2021    9.5527    8.2813 H   0  0  0  0  0  0  0  0  0  0  0  0
   -3.1013    4.6925   13.6045 H   0  0  0  0  0  0  0  0  0  0  0  0
   -4.5350    5.1938   12.7007 H   0  0  0  0  0  0  0  0  0  0  0  0
   -3.6215    3.7687   12.1856 H   0  0  0  0  0  0  0  0  0  0  0  0
    0.2405    9.3533   12.6978 H   0  0  0  0  0  0  0  0  0  0  0  0
   -1.3967    8.8846   13.1472 H   0  0  0  0  0  0  0  0  0  0  0  0
   -1.7736    3.4967   10.4576 H   0  0  0  0  0  0  0  0  0  0  0  0
    0.1971   12.8986   10.8607 H   0  0  0  0  0  0  0  0  0  0  0  0
    0.8663    6.6881   10.2243 H   0  0  0  0  0  0  0  0  0  0  0  0
   -0.0325    1.9226   11.3635 H   0  0  0  0  0  0  0  0  0  0  0  0
    0.3891    3.1602   12.5594 H   0  0  0  0  0  0  0  0  0  0  0  0
   -1.2405    2.4888   12.5169 H   0  0  0  0  0  0  0  0  0  0  0  0
    0.1868    3.0599    9.2549 H   0  0  0  0  0  0  0  0  0  0  0  0
   -3.0863   11.1824   13.1680 H   0  0  0  0  0  0  0  0  0  0  0  0
   -2.7068   10.5060   14.7402 H   0  0  0  0  0  0  0  0  0  0  0  0
   -2.4942   12.2371   14.4532 H   0  0  0  0  0  0  0  0  0  0  0  0
   -0.4753   13.1170   13.3449 H   0  0  0  0  0  0  0  0  0  0  0  0
   -2.7750   12.5696   11.3988 H   0  0  0  0  0  0  0  0  0  0  0  0
   -1.8513   14.0774   11.4118 H   0  0  0  0  0  0  0  0  0  0  0  0
   -2.0139   13.1448    9.9192 H   0  0  0  0  0  0  0  0  0  0  0  0
    3.3027    7.7164    9.6385 H   0  0  0  0  0  0  0  0  0  0  0  0
    3.8461    6.1281   10.1070 H   0  0  0  0  0  0  0  0  0  0  0  0
    0.0004    4.6643    7.8121 H   0  0  0  0  0  0  0  0  0  0  0  0
    0.6612   11.1276   16.7258 H   0  0  0  0  0  0  0  0  0  0  0  0
   -0.9269   11.8550   16.4355 H   0  0  0  0  0  0  0  0  0  0  0  0
    0.5198   12.5303   15.6554 H   0  0  0  0  0  0  0  0  0  0  0  0
    1.4275   11.2105   12.4992 H   0  0  0  0  0  0  0  0  0  0  0  0
    3.9831    7.5226   12.0520 H   0  0  0  0  0  0  0  0  0  0  0  0
    2.5801    6.4795   12.3409 H   0  0  0  0  0  0  0  0  0  0  0  0
    2.3478    8.1589   11.8237 H   0  0  0  0  0  0  0  0  0  0  0  0
    3.5301    4.3067    8.7938 H   0  0  0  0  0  0  0  0  0  0  0  0
    2.1329    4.1345    7.7274 H   0  0  0  0  0  0  0  0  0  0  0  0
    2.5232    2.8721    8.9000 H   0  0  0  0  0  0  0  0  0  0  0  0
    2.0639    3.2701   11.0691 H   0  0  0  0  0  0  0  0  0  0  0  0
  1  2  1  0  0  0  0 
  2  4  1  0  0  0  0 
  2  5  2  0  0  0  0 
  3  1  1  0  0  0  0 
  3  6  1  0  0  0  0 
  7  3  1  0  0  0  0 
  4  8  1  0  0  0  0 
  6  9  1  0  0  0  0 
  6 10  1  0  0  0  0 
  6 62  1  0  0  0  0 
  7 11  1  0  0  0  0 
  7 12  1  0  0  0  0 
  8 13  1  0  0  0  0 
 15 10  1  0  0  0  0 
 11 16  1  0  0  0  0 
 11 17  1  0  0  0  0 
 15 12  1  0  0  0  0 
 13 18  1  0  0  0  0 
 13 19  2  0  0  0  0 
 14  9  1  0  0  0  0 
 20 14  1  0  0  0  0 
 14 21  1  0  0  0  0 
 15 22  1  0  0  0  0 
 18 23  1  0  0  0  0 
 20 24  1  0  0  0  0 
 25 20  1  0  0  0  0 
 21 26  1  0  0  0  0 
 21 27  1  0  0  0  0 
 21 28  1  0  0  0  0 
 23 29  1  0  0  0  0 
 25 30  1  0  0  0  0 
 31 25  1  0  0  0  0 
 32 28  1  0  0  0  0 
 33 30  1  0  0  0  0 
 31 34  1  0  0  0  0 
 31 35  1  0  0  0  0 
 32 36  1  0  0  0  0 
 32 37  1  0  0  0  0 
 33 38  1  0  0  0  0 
 33 39  1  0  0  0  0 
 33 61  1  0  0  0  0 
 35 40  2  0  0  0  0 
 35 41  1  0  0  0  0 
 37 42  2  0  0  0  0 
 43 37  1  0  0  0  0 
 44 38  1  0  0  0  0 
 45 39  1  0  0  0  0 
 46 41  1  0  0  0  0 
 43 47  1  0  0  0  0 
 48 43  1  0  0  0  0 
 44 49  1  0  0  0  0 
 44 50  1  0  0  0  0 
 51 44  1  0  0  0  0 
 51 45  1  0  0  0  0 
 45 52  1  0  0  0  0 
 46 53  1  0  0  0  0 
 54 46  1  0  0  0  0 
 54 48  1  0  0  0  0 
 48 55  1  0  0  0  0 
 49 56  1  0  0  0  0 
 51 57  1  0  0  0  0 
 53 58  1  0  0  0  0 
 54 59  1  0  0  0  0 
 54 60  1  0  0  0  0 
  3 63  1  0  0  0  0 
  4 64  1  0  0  0  0 
  4 65  1  0  0  0  0 
  7 66  1  0  0  0  0 
  8 67  1  0  0  0  0 
  8 68  1  0  0  0  0 
 12 69  1  0  0  0  0 
 12 70  1  0  0  0  0 
 14 71  1  0  0  0  0 
 15 72  1  0  0  0  0 
 16 73  1  0  0  0  0 
 16 74  1  0  0  0  0 
 16 75  1  0  0  0  0 
 17 76  1  0  0  0  0 
 17 77  1  0  0  0  0 
 17 78  1  0  0  0  0 
 20 79  1  0  0  0  0 
 22 80  1  0  0  0  0 
 22 81  1  0  0  0  0 
 22 82  1  0  0  0  0 
 23 83  1  0  0  0  0 
 23 84  1  0  0  0  0 
 24 85  1  0  0  0  0 
 24 86  1  0  0  0  0 
 24 87  1  0  0  0  0 
 25 88  1  0  0  0  0 
 26 89  1  0  0  0  0 
 26 90  1  0  0  0  0 
 26 91  1  0  0  0  0 
 27 92  1  0  0  0  0 
 28 93  1  0  0  0  0 
 28 94  1  0  0  0  0 
 29 95  1  0  0  0  0 
 29 96  1  0  0  0  0 
 29 97  1  0  0  0  0 
 31 98  1  0  0  0  0 
 32 99  1  0  0  0  0 
 34100  1  0  0  0  0 
 34101  1  0  0  0  0 
 34102  1  0  0  0  0 
 36103  1  0  0  0  0 
 36104  1  0  0  0  0 
 36105  1  0  0  0  0 
 38106  1  0  0  0  0 
 38107  1  0  0  0  0 
 43108  1  0  0  0  0 
 45109  1  0  0  0  0 
 46110  1  0  0  0  0 
 47111  1  0  0  0  0 
 47112  1  0  0  0  0 
 47113  1  0  0  0  0 
 48114  1  0  0  0  0 
 50115  1  0  0  0  0 
 50116  1  0  0  0  0 
 50117  1  0  0  0  0 
 51118  1  0  0  0  0 
 52119  1  0  0  0  0 
 52120  1  0  0  0  0 
 52121  1  0  0  0  0 
 53122  1  0  0  0  0 
 53123  1  0  0  0  0 
 55124  1  0  0  0  0 
 56125  1  0  0  0  0 
 56126  1  0  0  0  0 
 56127  1  0  0  0  0 
 57128  1  0  0  0  0 
 58129  1  0  0  0  0 
 58130  1  0  0  0  0 
 58131  1  0  0  0  0 
 59132  1  0  0  0  0 
 59133  1  0  0  0  0 
 59134  1  0  0  0  0 
 60135  1  0  0  0  0 
M  END
> <cdk:Title>
erythromycin ethyl succinate

> <Conformer>
1

> <SuperDrugID>
SD000936

$$$$
