oxyfedrine
  CDK     0628171801

 46 47  0  0  0  0  0  0  0  0999 V2000
    3.6727    3.9847   -4.4404 C   0  0  0  0  0  0  0  0  0  0  0  0
    3.2472    5.3694   -4.0713 C   0  0  2  0  0  0  0  0  0  0  0  0
    2.9757    3.0268   -4.0235 O   0  0  0  0  0  0  0  0  0  0  0  0
    4.8231    3.6904   -5.2430 C   0  0  0  0  0  0  0  0  0  0  0  0
    2.0436    5.4803   -3.0965 C   0  0  2  0  0  0  0  0  0  0  0  0
    5.5560    4.7008   -5.9189 C   0  0  0  0  0  0  0  0  0  0  0  0
    5.2724    2.3514   -5.3963 C   0  0  0  0  0  0  0  0  0  0  0  0
    2.3928    4.8451   -1.8065 N   0  0  1  0  0  0  0  0  0  0  0  0
    6.6794    4.3932   -6.7163 C   0  0  0  0  0  0  0  0  0  0  0  0
    6.3942    2.0354   -6.1841 C   0  0  0  0  0  0  0  0  0  0  0  0
    1.3794    4.8208   -0.7218 C   0  0  2  0  0  0  0  0  0  0  0  0
    7.3341    5.3815   -7.4021 O   0  0  0  0  0  0  0  0  0  0  0  0
    7.0967    3.0554   -6.8445 C   0  0  0  0  0  0  0  0  0  0  0  0
    2.0354    4.2786    0.5894 C   0  0  2  0  0  0  0  0  0  0  0  0
    0.1182    4.0012   -1.1189 C   0  0  0  0  0  0  0  0  0  0  0  0
    8.3705    6.0171   -6.6348 C   0  0  0  0  0  0  0  0  0  0  0  0
    3.1045    5.1346    0.9945 O   0  0  0  0  0  0  0  0  0  0  0  0
    2.5194    2.8686    0.4783 C   0  0  0  0  0  0  0  0  0  0  0  0
    1.7930    1.8061    1.0699 C   0  0  0  0  0  0  0  0  0  0  0  0
    3.6974    2.5532   -0.2431 C   0  0  0  0  0  0  0  0  0  0  0  0
    2.2198    0.4720    0.9292 C   0  0  0  0  0  0  0  0  0  0  0  0
    4.1104    1.2195   -0.4109 C   0  0  0  0  0  0  0  0  0  0  0  0
    3.3722    0.1792    0.1795 C   0  0  0  0  0  0  0  0  0  0  0  0
    2.9815    5.9062   -4.9865 H   0  0  0  0  0  0  0  0  0  0  0  0
    4.0952    5.8872   -3.6149 H   0  0  0  0  0  0  0  0  0  0  0  0
    1.1764    4.9951   -3.5509 H   0  0  0  0  0  0  0  0  0  0  0  0
    1.8057    6.5326   -2.9270 H   0  0  0  0  0  0  0  0  0  0  0  0
    5.2789    5.6811   -5.8487 H   0  0  0  0  0  0  0  0  0  0  0  0
    4.7877    1.5798   -4.9304 H   0  0  0  0  0  0  0  0  0  0  0  0
    2.6121    3.8680   -2.0114 H   0  0  0  0  0  0  0  0  0  0  0  0
    6.6977    1.0628   -6.2785 H   0  0  0  0  0  0  0  0  0  0  0  0
    1.0698    5.8491   -0.5156 H   0  0  0  0  0  0  0  0  0  0  0  0
    7.9080    2.8212   -7.4212 H   0  0  0  0  0  0  0  0  0  0  0  0
    1.2919    4.3511    1.3904 H   0  0  0  0  0  0  0  0  0  0  0  0
   -0.5110    3.8060   -0.2469 H   0  0  0  0  0  0  0  0  0  0  0  0
    0.4082    3.0454   -1.5622 H   0  0  0  0  0  0  0  0  0  0  0  0
   -0.4751    4.5568   -1.8466 H   0  0  0  0  0  0  0  0  0  0  0  0
    8.8227    6.7859   -7.2609 H   0  0  0  0  0  0  0  0  0  0  0  0
    7.9685    6.5001   -5.7402 H   0  0  0  0  0  0  0  0  0  0  0  0
    9.1521    5.3077   -6.3501 H   0  0  0  0  0  0  0  0  0  0  0  0
    3.4056    4.7807    1.8578 H   0  0  0  0  0  0  0  0  0  0  0  0
    0.9344    1.9933    1.5943 H   0  0  0  0  0  0  0  0  0  0  0  0
    4.2649    3.2935   -0.6610 H   0  0  0  0  0  0  0  0  0  0  0  0
    1.6908   -0.2863    1.3688 H   0  0  0  0  0  0  0  0  0  0  0  0
    4.9467    1.0102   -0.9640 H   0  0  0  0  0  0  0  0  0  0  0  0
    3.6749   -0.7901    0.0641 H   0  0  0  0  0  0  0  0  0  0  0  0
  1  2  1  0  0  0  0 
  1  3  2  0  0  0  0 
  1  4  1  0  0  0  0 
  2  5  1  0  0  0  0 
  4  6  2  0  0  0  0 
  4  7  1  0  0  0  0 
  5  8  1  0  0  0  0 
  6  9  1  0  0  0  0 
  7 10  2  0  0  0  0 
 11  8  1  0  0  0  0 
  9 12  1  0  0  0  0 
  9 13  2  0  0  0  0 
 10 13  1  0  0  0  0 
 11 14  1  0  0  0  0 
 11 15  1  0  0  0  0 
 12 16  1  0  0  0  0 
 14 17  1  0  0  0  0 
 14 18  1  0  0  0  0 
 18 19  2  0  0  0  0 
 18 20  1  0  0  0  0 
 19 21  1  0  0  0  0 
 20 22  2  0  0  0  0 
 21 23  2  0  0  0  0 
 22 23  1  0  0  0  0 
 24  2  1  0  0  0  0 
 25  2  1  0  0  0  0 
 26  5  1  0  0  0  0 
 27  5  1  0  0  0  0 
 28  6  1  0  0  0  0 
 29  7  1  0  0  0  0 
 30  8  1  0  0  0  0 
 31 10  1  0  0  0  0 
 11 32  1  0  0  0  0 
 33 13  1  0  0  0  0 
 14 34  1  0  0  0  0 
 35 15  1  0  0  0  0 
 36 15  1  0  0  0  0 
 37 15  1  0  0  0  0 
 38 16  1  0  0  0  0 
 39 16  1  0  0  0  0 
 40 16  1  0  0  0  0 
 41 17  1  0  0  0  0 
 42 19  1  0  0  0  0 
 43 20  1  0  0  0  0 
 44 21  1  0  0  0  0 
 45 22  1  0  0  0  0 
 46 23  1  0  0  0  0 
M  END
> <cdk:Title>
oxyfedrine

> <Conformer>
1

> <SuperDrugID>
SD001817

$$$$
