cisapride
  CDK     0628171802

 61 63  0  0  0  0  0  0  0  0999 V2000
   11.5179    1.6882    0.2136 C   0  0  0  0  0  0  0  0  0  0  0  0
   12.1400    2.9520    0.1797 C   0  0  0  0  0  0  0  0  0  0  0  0
   11.6976    3.9241   -0.7434 C   0  0  0  0  0  0  0  0  0  0  0  0
   10.6258    3.6244   -1.6043 C   0  0  0  0  0  0  0  0  0  0  0  0
    9.9982    2.3622   -1.5698 C   0  0  0  0  0  0  0  0  0  0  0  0
   10.4458    1.3673   -0.6572 C   0  0  0  0  0  0  0  0  0  0  0  0
   12.2726    5.1420   -0.8313 N   0  0  0  0  0  0  0  0  0  0  0  0
   13.4036    3.2632    1.2685 Cl  0  0  0  0  0  0  0  0  0  0  0  0
    8.9430    2.1612   -2.4238 O   0  0  0  0  0  0  0  0  0  0  0  0
    9.3345    1.7258   -3.7369 C   0  0  0  0  0  0  0  0  0  0  0  0
    9.8593    0.0728   -0.5984 C   0  0  0  0  0  0  0  0  0  0  0  0
   10.5750   -0.9112   -0.2917 O   0  0  0  0  0  0  0  0  0  0  0  0
    8.5385   -0.1178   -0.8697 N   0  0  0  0  0  0  0  0  0  0  0  0
    7.8470   -1.3727   -0.8886 C   0  0  1  0  0  0  0  0  0  0  0  0
    6.5570   -3.0455    0.5735 C   0  0  1  0  0  0  0  0  0  0  0  0
    7.5070   -1.8178    0.5617 C   0  0  1  0  0  0  0  0  0  0  0  0
    6.5747   -1.2384   -1.7843 C   0  0  2  0  0  0  0  0  0  0  0  0
    5.6778   -2.5113   -1.6727 C   0  0  1  0  0  0  0  0  0  0  0  0
    5.3200   -2.8152   -0.2455 N   0  0  2  0  0  0  0  0  0  0  0  0
    4.3339   -1.9079    0.4434 C   0  0  2  0  0  0  0  0  0  0  0  0
    2.9576   -1.6814   -0.2385 C   0  0  1  0  0  0  0  0  0  0  0  0
    2.0581   -0.7464    0.6033 C   0  0  1  0  0  0  0  0  0  0  0  0
    0.8381   -0.5081   -0.1213 O   0  0  0  0  0  0  0  0  0  0  0  0
    0.0653    0.4626    0.4507 C   0  0  0  0  0  0  0  0  0  0  0  0
   -0.8357    0.1486    1.4889 C   0  0  0  0  0  0  0  0  0  0  0  0
   -1.6362    1.1574    2.0558 C   0  0  0  0  0  0  0  0  0  0  0  0
   -1.5377    2.4825    1.5880 C   0  0  0  0  0  0  0  0  0  0  0  0
   -0.6428    2.7960    0.5467 C   0  0  0  0  0  0  0  0  0  0  0  0
    0.1588    1.7883   -0.0194 C   0  0  0  0  0  0  0  0  0  0  0  0
   -2.2733    3.4193    2.1191 F   0  0  0  0  0  0  0  0  0  0  0  0
    8.4935   -2.1335   -1.3376 H   0  0  0  0  0  0  0  0  0  0  0  0
    7.0302   -0.9944   -3.1374 O   0  0  0  0  0  0  0  0  0  0  0  0
    6.0421   -0.5750   -4.0963 C   0  0  0  0  0  0  0  0  0  0  0  0
    6.0013   -0.3748   -1.4330 H   0  0  0  0  0  0  0  0  0  0  0  0
   11.8454    0.9986    0.8959 H   0  0  0  0  0  0  0  0  0  0  0  0
   10.2966    4.3285   -2.2705 H   0  0  0  0  0  0  0  0  0  0  0  0
   11.9574    5.7794   -1.4892 H   0  0  0  0  0  0  0  0  0  0  0  0
   13.0024    5.3845   -0.2429 H   0  0  0  0  0  0  0  0  0  0  0  0
    8.4327    1.6404   -4.3441 H   0  0  0  0  0  0  0  0  0  0  0  0
   10.0011    2.4429   -4.2228 H   0  0  0  0  0  0  0  0  0  0  0  0
    9.8167    0.7461   -3.6991 H   0  0  0  0  0  0  0  0  0  0  0  0
    8.0075    0.6719   -1.0548 H   0  0  0  0  0  0  0  0  0  0  0  0
    7.0941   -3.9145    0.1808 H   0  0  0  0  0  0  0  0  0  0  0  0
    6.2949   -3.2902    1.6059 H   0  0  0  0  0  0  0  0  0  0  0  0
    8.4233   -2.0760    1.0954 H   0  0  0  0  0  0  0  0  0  0  0  0
    7.0470   -0.9894    1.1022 H   0  0  0  0  0  0  0  0  0  0  0  0
    4.7190   -2.3158   -2.2476 H   0  0  0  0  0  0  0  0  0  0  0  0
    6.3058   -3.3864   -2.0464 H   0  0  0  0  0  0  0  0  0  0  0  0
    4.7813   -0.9256    0.6046 H   0  0  0  0  0  0  0  0  0  0  0  0
    4.1199   -2.3352    1.4274 H   0  0  0  0  0  0  0  0  0  0  0  0
    3.0903   -1.2036   -1.2111 H   0  0  0  0  0  0  0  0  0  0  0  0
    2.4531   -2.6401   -0.3851 H   0  0  0  0  0  0  0  0  0  0  0  0
    1.8387   -1.2172    1.5666 H   0  0  0  0  0  0  0  0  0  0  0  0
    2.5971    0.1924    0.7822 H   0  0  0  0  0  0  0  0  0  0  0  0
   -0.9052   -0.8121    1.8335 H   0  0  0  0  0  0  0  0  0  0  0  0
   -2.2880    0.9233    2.8075 H   0  0  0  0  0  0  0  0  0  0  0  0
   -0.5714    3.7544    0.1982 H   0  0  0  0  0  0  0  0  0  0  0  0
    0.8132    2.0199   -0.7712 H   0  0  0  0  0  0  0  0  0  0  0  0
    6.5621   -0.2273   -4.9881 H   0  0  0  0  0  0  0  0  0  0  0  0
    5.4302    0.2472   -3.7196 H   0  0  0  0  0  0  0  0  0  0  0  0
    5.3992   -1.4063   -4.3838 H   0  0  0  0  0  0  0  0  0  0  0  0
  1  2  2  0  0  0  0 
  1  6  1  0  0  0  0 
  2  3  1  0  0  0  0 
  3  4  2  0  0  0  0 
  4  5  1  0  0  0  0 
  5  6  2  0  0  0  0 
  3  7  1  0  0  0  0 
  2  8  1  0  0  0  0 
  5  9  1  0  0  0  0 
  9 10  1  0  0  0  0 
  6 11  1  0  0  0  0 
 11 12  2  0  0  0  0 
 11 13  1  0  0  0  0 
 14 13  1  0  0  0  0 
 15 16  1  0  0  0  0 
 17 18  1  0  0  0  0 
 18 19  1  0  0  0  0 
 15 19  1  0  0  0  0 
 14 16  1  0  0  0  0 
 17 14  1  0  0  0  0 
 19 20  1  0  0  0  0 
 20 21  1  0  0  0  0 
 21 22  1  0  0  0  0 
 22 23  1  0  0  0  0 
 23 24  1  0  0  0  0 
 25 26  1  0  0  0  0 
 26 27  2  0  0  0  0 
 27 28  1  0  0  0  0 
 28 29  2  0  0  0  0 
 24 25  2  0  0  0  0 
 24 29  1  0  0  0  0 
 27 30  1  0  0  0  0 
 14 31  1  0  0  0  0 
 17 32  1  0  0  0  0 
 32 33  1  0  0  0  0 
 17 34  1  0  0  0  0 
  1 35  1  0  0  0  0 
  4 36  1  0  0  0  0 
  7 37  1  0  0  0  0 
  7 38  1  0  0  0  0 
 10 39  1  0  0  0  0 
 10 40  1  0  0  0  0 
 10 41  1  0  0  0  0 
 13 42  1  0  0  0  0 
 15 43  1  0  0  0  0 
 15 44  1  0  0  0  0 
 16 45  1  0  0  0  0 
 16 46  1  0  0  0  0 
 18 47  1  0  0  0  0 
 18 48  1  0  0  0  0 
 20 49  1  0  0  0  0 
 20 50  1  0  0  0  0 
 21 51  1  0  0  0  0 
 21 52  1  0  0  0  0 
 22 53  1  0  0  0  0 
 22 54  1  0  0  0  0 
 25 55  1  0  0  0  0 
 26 56  1  0  0  0  0 
 28 57  1  0  0  0  0 
 29 58  1  0  0  0  0 
 33 59  1  0  0  0  0 
 33 60  1  0  0  0  0 
 33 61  1  0  0  0  0 
M  END
> <cdk:Title>
cisapride

> <Conformer>
1

> <SuperDrugID>
SD000580

$$$$
