alfuzosin
  CDK     0628171801

 55 57  0  0  0  0  0  0  0  0999 V2000
    1.4082   -2.3476   -0.3561 N   0  0  0  0  0  0  0  0  0  0  0  0
    2.7184   -2.1366   -0.5778 C   0  0  0  0  0  0  0  0  0  0  0  0
    3.7531   -2.6606    0.2326 C   0  0  0  0  0  0  0  0  0  0  0  0
    3.0311   -1.3775   -1.6550 N   0  0  0  0  0  0  0  0  0  0  0  0
    5.0841   -2.3228   -0.1280 C   0  0  0  0  0  0  0  0  0  0  0  0
    3.5368   -3.4886    1.3571 C   0  0  0  0  0  0  0  0  0  0  0  0
    4.3043   -1.0658   -2.0183 C   0  0  0  0  0  0  0  0  0  0  0  0
    5.3021   -1.5517   -1.2245 N   0  0  0  0  0  0  0  0  0  0  0  0
    6.1683   -2.7847    0.6448 C   0  0  0  0  0  0  0  0  0  0  0  0
    4.6226   -3.9666    2.1201 C   0  0  0  0  0  0  0  0  0  0  0  0
    4.5723   -0.2966   -3.1447 N   0  0  0  0  0  0  0  0  0  0  0  0
    5.9410   -3.5907    1.7793 C   0  0  0  0  0  0  0  0  0  0  0  0
    4.3912   -4.7660    3.2075 O   0  0  0  0  0  0  0  0  0  0  0  0
    5.9566   -0.1001   -3.5517 C   0  0  1  0  0  0  0  0  0  0  0  0
    3.5071    0.3527   -3.8817 C   0  0  0  0  0  0  0  0  0  0  0  0
    7.0016   -4.0276    2.5287 O   0  0  0  0  0  0  0  0  0  0  0  0
    4.4012   -6.1656    2.8781 C   0  0  0  0  0  0  0  0  0  0  0  0
    6.2412    0.3668   -5.0093 C   0  0  1  0  0  0  0  0  0  0  0  0
    7.3696   -3.1064    3.5703 C   0  0  0  0  0  0  0  0  0  0  0  0
    7.7615    0.3975   -5.3164 C   0  0  2  0  0  0  0  0  0  0  0  0
    8.0071    0.5800   -6.7088 N   0  0  0  0  0  0  0  0  0  0  0  0
    9.2288    0.4542   -7.3001 C   0  0  0  0  0  0  0  0  0  0  0  0
   10.2527    0.2327   -6.6106 O   0  0  0  0  0  0  0  0  0  0  0  0
    9.3935    0.5065   -8.7690 C   0  0  1  0  0  0  0  0  0  0  0  0
    8.1912    1.0347   -9.5785 C   0  0  2  0  0  0  0  0  0  0  0  0
   10.4554    1.3954   -9.1343 O   0  0  0  0  0  0  0  0  0  0  0  0
    8.8344    1.4868  -10.8960 C   0  0  2  0  0  0  0  0  0  0  0  0
   10.3305    1.6031  -10.5463 C   0  0  1  0  0  0  0  0  0  0  0  0
    1.1160   -2.9293    0.3604 H   0  0  0  0  0  0  0  0  0  0  0  0
    0.7509   -1.9203   -0.9275 H   0  0  0  0  0  0  0  0  0  0  0  0
    2.5874   -3.7514    1.6337 H   0  0  0  0  0  0  0  0  0  0  0  0
    7.1276   -2.5343    0.3895 H   0  0  0  0  0  0  0  0  0  0  0  0
    6.4150    0.6146   -2.8601 H   0  0  0  0  0  0  0  0  0  0  0  0
    6.4852   -1.0528   -3.4380 H   0  0  0  0  0  0  0  0  0  0  0  0
    3.7150    1.4204   -3.9745 H   0  0  0  0  0  0  0  0  0  0  0  0
    2.5224    0.2739   -3.4194 H   0  0  0  0  0  0  0  0  0  0  0  0
    3.4329   -0.0860   -4.8783 H   0  0  0  0  0  0  0  0  0  0  0  0
    4.2332   -6.7298    3.7960 H   0  0  0  0  0  0  0  0  0  0  0  0
    3.6038   -6.4127    2.1721 H   0  0  0  0  0  0  0  0  0  0  0  0
    5.3647   -6.4718    2.4625 H   0  0  0  0  0  0  0  0  0  0  0  0
    5.7522   -0.3236   -5.7027 H   0  0  0  0  0  0  0  0  0  0  0  0
    5.8278    1.3649   -5.1721 H   0  0  0  0  0  0  0  0  0  0  0  0
    8.2207   -3.5257    4.1073 H   0  0  0  0  0  0  0  0  0  0  0  0
    7.6673   -2.1390    3.1586 H   0  0  0  0  0  0  0  0  0  0  0  0
    6.5531   -2.9609    4.2817 H   0  0  0  0  0  0  0  0  0  0  0  0
    8.2049   -0.5578   -5.0140 H   0  0  0  0  0  0  0  0  0  0  0  0
    8.2415    1.2052   -4.7543 H   0  0  0  0  0  0  0  0  0  0  0  0
    7.2480    0.7863   -7.2738 H   0  0  0  0  0  0  0  0  0  0  0  0
    9.6430   -0.5086   -9.1036 H   0  0  0  0  0  0  0  0  0  0  0  0
    7.7367    1.8980   -9.0814 H   0  0  0  0  0  0  0  0  0  0  0  0
    7.4326    0.2620   -9.7333 H   0  0  0  0  0  0  0  0  0  0  0  0
    8.4246    2.4457  -11.2211 H   0  0  0  0  0  0  0  0  0  0  0  0
    8.6729    0.7418  -11.6793 H   0  0  0  0  0  0  0  0  0  0  0  0
   10.7222    2.5886  -10.8016 H   0  0  0  0  0  0  0  0  0  0  0  0
   10.9136    0.8464  -11.0783 H   0  0  0  0  0  0  0  0  0  0  0  0
  1  2  1  0  0  0  0 
  2  3  2  0  0  0  0 
  2  4  1  0  0  0  0 
  3  5  1  0  0  0  0 
  3  6  1  0  0  0  0 
  4  7  2  0  0  0  0 
  5  8  2  0  0  0  0 
  5  9  1  0  0  0  0 
  6 10  2  0  0  0  0 
  7  8  1  0  0  0  0 
  7 11  1  0  0  0  0 
  9 12  2  0  0  0  0 
 10 12  1  0  0  0  0 
 10 13  1  0  0  0  0 
 11 14  1  0  0  0  0 
 11 15  1  0  0  0  0 
 12 16  1  0  0  0  0 
 13 17  1  0  0  0  0 
 14 18  1  0  0  0  0 
 16 19  1  0  0  0  0 
 18 20  1  0  0  0  0 
 20 21  1  0  0  0  0 
 21 22  1  0  0  0  0 
 22 23  2  0  0  0  0 
 24 22  1  0  0  0  0 
 24 25  1  0  0  0  0 
 24 26  1  0  0  0  0 
 25 27  1  0  0  0  0 
 26 28  1  0  0  0  0 
 27 28  1  0  0  0  0 
  1 29  1  0  0  0  0 
  1 30  1  0  0  0  0 
  6 31  1  0  0  0  0 
  9 32  1  0  0  0  0 
 14 33  1  0  0  0  0 
 14 34  1  0  0  0  0 
 15 35  1  0  0  0  0 
 15 36  1  0  0  0  0 
 15 37  1  0  0  0  0 
 17 38  1  0  0  0  0 
 17 39  1  0  0  0  0 
 17 40  1  0  0  0  0 
 18 41  1  0  0  0  0 
 18 42  1  0  0  0  0 
 19 43  1  0  0  0  0 
 19 44  1  0  0  0  0 
 19 45  1  0  0  0  0 
 20 46  1  0  0  0  0 
 20 47  1  0  0  0  0 
 21 48  1  0  0  0  0 
 24 49  1  0  0  0  0 
 25 50  1  0  0  0  0 
 25 51  1  0  0  0  0 
 27 52  1  0  0  0  0 
 27 53  1  0  0  0  0 
 28 54  1  0  0  0  0 
 28 55  1  0  0  0  0 
M  END
> <cdk:Title>
alfuzosin

> <Conformer>
1

> <SuperDrugID>
SD000087

$$$$
