ceftolozane
  CDK     0628171802

 76 79  0  0  0  0  0  0  0  0999 V2000
    6.2766    7.2021    2.6135 C   0  0  0  0  0  0  0  0  0  0  0  0
    5.4796    6.4540    1.8239 N   0  0  0  0  0  0  0  0  0  0  0  0
    5.0815    6.5928    0.4675 C   0  0  2  0  0  0  0  0  0  0  0  0
    4.5889    8.3336    0.2607 S   0  0  0  0  0  0  0  0  0  0  0  0
    5.9828    9.1598    1.1013 C   0  0  1  0  0  0  0  0  0  0  0  0
    6.4695    8.5256    2.3446 C   0  0  0  0  0  0  0  0  0  0  0  0
    4.6204    5.4552    2.0713 C   0  0  0  0  0  0  0  0  0  0  0  0
    4.0035    5.4979    0.7455 C   0  0  1  0  0  0  0  0  0  0  0  0
    6.8119    6.5495    3.7148 C   0  0  0  0  0  0  0  0  0  0  0  0
    6.4222    6.8448    4.9768 O   0  0  0  0  0  0  0  0  0  0  0  0
    7.6474    5.6322    3.5461 O   0  0  0  0  0  0  0  0  0  0  0  0
    7.1602    9.4502    3.2682 C   0  0  1  0  0  0  0  0  0  0  0  0
    6.2052   10.3463    3.8933 N   0  0  0  0  0  0  0  0  0  0  0  0
    6.1658   11.6605    3.8681 N   0  0  0  0  0  0  0  0  0  0  0  0
    5.0403   12.0922    4.4944 C   0  0  0  0  0  0  0  0  0  0  0  0
    4.3388   10.9847    4.9518 C   0  0  0  0  0  0  0  0  0  0  0  0
    5.1277    9.9069    4.5756 C   0  0  0  0  0  0  0  0  0  0  0  0
    7.1424   12.5098    3.2461 C   0  0  0  0  0  0  0  0  0  0  0  0
    4.6144   13.3644    4.6488 N   0  0  0  0  0  0  0  0  0  0  0  0
    3.1154   11.0053    5.5572 N   0  0  0  0  0  0  0  0  0  0  0  0
    2.4425    9.9606    6.1132 C   0  0  0  0  0  0  0  0  0  0  0  0
    1.1786   10.1971    6.5509 N   0  0  0  0  0  0  0  0  0  0  0  0
    2.9593    8.8240    6.2320 O   0  0  0  0  0  0  0  0  0  0  0  0
    0.3181    9.2119    7.1580 C   0  0  1  0  0  0  0  0  0  0  0  0
   -1.0957    9.2630    6.5425 C   0  0  1  0  0  0  0  0  0  0  0  0
   -1.9715    8.2801    7.1914 N   0  0  1  0  0  0  0  0  0  0  0  0
    4.3632    4.7871    3.0985 O   0  0  0  0  0  0  0  0  0  0  0  0
    2.6604    5.9856    0.7597 N   0  0  0  0  0  0  0  0  0  0  0  0
    4.1503    4.5747    0.1783 H   0  0  0  0  0  0  0  0  0  0  0  0
    5.8627    6.2788   -0.2336 H   0  0  0  0  0  0  0  0  0  0  0  0
    1.5676    5.3117    1.2039 C   0  0  0  0  0  0  0  0  0  0  0  0
    0.3336    5.9572    1.3293 C   0  0  0  0  0  0  0  0  0  0  0  0
    1.6775    4.0971    1.5009 O   0  0  0  0  0  0  0  0  0  0  0  0
    0.2156    7.3185    1.6379 C   0  0  0  0  0  0  0  0  0  0  0  0
   -0.7745    5.3176    1.1905 N   0  0  0  0  0  0  0  0  0  0  0  0
   -0.9378    4.0817    0.8937 O   0  0  0  0  0  0  0  0  0  0  0  0
   -2.1505    3.5082    1.4366 C   0  0  1  0  0  0  0  0  0  0  0  0
   -2.1616    2.1090    0.9177 C   0  0  0  0  0  0  0  0  0  0  0  0
   -1.1842    1.3498    1.1143 O   0  0  0  0  0  0  0  0  0  0  0  0
   -3.2140    1.5958    0.2320 O   0  0  0  0  0  0  0  0  0  0  0  0
   -2.0975    3.4608    2.9978 C   0  0  0  0  0  0  0  0  0  0  0  0
   -3.4135    4.3000    0.9607 C   0  0  0  0  0  0  0  0  0  0  0  0
   -0.9686    7.9772    1.5413 N   0  0  0  0  0  0  0  0  0  0  0  0
   -0.7111    9.5963    1.9954 S   0  0  0  0  0  0  0  0  0  0  0  0
    0.9894    9.3747    2.3169 C   0  0  0  0  0  0  0  0  0  0  0  0
    1.2642    8.0833    2.0613 N   0  0  0  0  0  0  0  0  0  0  0  0
    1.8506   10.3176    2.7248 N   0  0  0  0  0  0  0  0  0  0  0  0
    6.8136    9.2047    0.3956 H   0  0  0  0  0  0  0  0  0  0  0  0
    5.6433   10.1821    1.2799 H   0  0  0  0  0  0  0  0  0  0  0  0
    6.7959    6.3518    5.7373 H   0  0  0  0  0  0  0  0  0  0  0  0
    7.7179    8.9414    4.0544 H   0  0  0  0  0  0  0  0  0  0  0  0
    7.9131   10.0021    2.7029 H   0  0  0  0  0  0  0  0  0  0  0  0
    4.9022    8.9263    4.7371 H   0  0  0  0  0  0  0  0  0  0  0  0
    8.1218   12.3333    3.6918 H   0  0  0  0  0  0  0  0  0  0  0  0
    7.1901   12.2845    2.1808 H   0  0  0  0  0  0  0  0  0  0  0  0
    6.9142   13.5706    3.3513 H   0  0  0  0  0  0  0  0  0  0  0  0
    5.1225   14.1008    4.2798 H   0  0  0  0  0  0  0  0  0  0  0  0
    3.7885   13.5441    5.1267 H   0  0  0  0  0  0  0  0  0  0  0  0
    2.6643   11.8640    5.5712 H   0  0  0  0  0  0  0  0  0  0  0  0
    0.8445   11.1118    6.4392 H   0  0  0  0  0  0  0  0  0  0  0  0
    0.7060    8.1949    7.0558 H   0  0  0  0  0  0  0  0  0  0  0  0
    0.2495    9.4429    8.2221 H   0  0  0  0  0  0  0  0  0  0  0  0
   -1.5288   10.2561    6.6812 H   0  0  0  0  0  0  0  0  0  0  0  0
   -1.0525    9.0477    5.4724 H   0  0  0  0  0  0  0  0  0  0  0  0
   -2.8830    8.3324    6.7313 H   0  0  0  0  0  0  0  0  0  0  0  0
   -1.5877    7.3538    6.9910 H   0  0  0  0  0  0  0  0  0  0  0  0
    2.5183    6.8930    0.4534 H   0  0  0  0  0  0  0  0  0  0  0  0
   -3.2001    0.6684   -0.0831 H   0  0  0  0  0  0  0  0  0  0  0  0
   -2.1865    4.4646    3.4187 H   0  0  0  0  0  0  0  0  0  0  0  0
   -2.9114    2.8515    3.3974 H   0  0  0  0  0  0  0  0  0  0  0  0
   -1.1486    3.0385    3.3380 H   0  0  0  0  0  0  0  0  0  0  0  0
   -4.3321    3.7996    1.2723 H   0  0  0  0  0  0  0  0  0  0  0  0
   -3.4154    4.3887   -0.1283 H   0  0  0  0  0  0  0  0  0  0  0  0
   -3.4227    5.3091    1.3789 H   0  0  0  0  0  0  0  0  0  0  0  0
    1.5392   11.2194    2.9043 H   0  0  0  0  0  0  0  0  0  0  0  0
    2.7864   10.0968    2.8485 H   0  0  0  0  0  0  0  0  0  0  0  0
  1  2  1  0  0  0  0 
  1  6  2  0  0  0  0 
  2  3  1  0  0  0  0 
  3  4  1  0  0  0  0 
  4  5  1  0  0  0  0 
  5  6  1  0  0  0  0 
  7  8  1  0  0  0  0 
  2  7  1  0  0  0  0 
  8  3  1  0  0  0  0 
  1  9  1  0  0  0  0 
  9 10  1  0  0  0  0 
  9 11  2  0  0  0  0 
  6 12  1  0  0  0  0 
 12 13  1  0  0  0  0 
 14 15  1  0  0  0  0 
 15 16  2  0  0  0  0 
 16 17  1  0  0  0  0 
 13 14  1  0  0  0  0 
 13 17  2  0  0  0  0 
 14 18  1  0  0  0  0 
 15 19  1  0  0  0  0 
 16 20  1  0  0  0  0 
 20 21  1  0  0  0  0 
 21 22  1  0  0  0  0 
 21 23  2  0  0  0  0 
 22 24  1  0  0  0  0 
 24 25  1  0  0  0  0 
 25 26  1  0  0  0  0 
  7 27  2  0  0  0  0 
  8 28  1  0  0  0  0 
  8 29  1  0  0  0  0 
  3 30  1  0  0  0  0 
 28 31  1  0  0  0  0 
 31 32  1  0  0  0  0 
 31 33  2  0  0  0  0 
 32 34  1  0  0  0  0 
 32 35  2  0  0  0  0 
 35 36  1  0  0  0  0 
 36 37  1  0  0  0  0 
 37 38  1  0  0  0  0 
 38 39  2  0  0  0  0 
 38 40  1  0  0  0  0 
 37 41  1  0  0  0  0 
 37 42  1  0  0  0  0 
 43 44  1  0  0  0  0 
 44 45  1  0  0  0  0 
 45 46  2  0  0  0  0 
 34 43  2  0  0  0  0 
 34 46  1  0  0  0  0 
 45 47  1  0  0  0  0 
  5 48  1  0  0  0  0 
  5 49  1  0  0  0  0 
 10 50  1  0  0  0  0 
 12 51  1  0  0  0  0 
 12 52  1  0  0  0  0 
 17 53  1  0  0  0  0 
 18 54  1  0  0  0  0 
 18 55  1  0  0  0  0 
 18 56  1  0  0  0  0 
 19 57  1  0  0  0  0 
 19 58  1  0  0  0  0 
 20 59  1  0  0  0  0 
 22 60  1  0  0  0  0 
 24 61  1  0  0  0  0 
 24 62  1  0  0  0  0 
 25 63  1  0  0  0  0 
 25 64  1  0  0  0  0 
 26 65  1  0  0  0  0 
 26 66  1  0  0  0  0 
 28 67  1  0  0  0  0 
 40 68  1  0  0  0  0 
 41 69  1  0  0  0  0 
 41 70  1  0  0  0  0 
 41 71  1  0  0  0  0 
 42 72  1  0  0  0  0 
 42 73  1  0  0  0  0 
 42 74  1  0  0  0  0 
 47 75  1  0  0  0  0 
 47 76  1  0  0  0  0 
M  CHG  1  13   1
M  END
> <cdk:Title>
ceftolozane

> <Conformer>
1

> <SuperDrugID>
SD003851

$$$$
