dimethyl sulfoxide
  CDK     0628171802

 10  9  0  0  0  0  0  0  0  0999 V2000
    1.7587   -0.0076    0.0504 C   0  0  0  0  0  0  0  0  0  0  0  0
   -0.0282    0.0531   -0.3285 S   0  0  1  0  0  0  0  0  0  0  0  0
   -0.5802    1.7223    0.1683 C   0  0  0  0  0  0  0  0  0  0  0  0
   -0.1242    0.0346   -1.9284 O   0  0  0  0  0  0  0  0  0  0  0  0
    1.9061    0.0840    1.1263 H   0  0  0  0  0  0  0  0  0  0  0  0
    2.2718    0.8099   -0.4559 H   0  0  0  0  0  0  0  0  0  0  0  0
    2.1684   -0.9579   -0.2898 H   0  0  0  0  0  0  0  0  0  0  0  0
    0.0191    2.4784   -0.3406 H   0  0  0  0  0  0  0  0  0  0  0  0
   -0.4658    1.8333    1.2466 H   0  0  0  0  0  0  0  0  0  0  0  0
   -1.6287    1.8496   -0.1000 H   0  0  0  0  0  0  0  0  0  0  0  0
  1  2  1  0  0  0  0 
  2  3  1  0  0  0  0 
  2  4  2  0  0  0  0 
  1  5  1  0  0  0  0 
  1  6  1  0  0  0  0 
  1  7  1  0  0  0  0 
  3  8  1  0  0  0  0 
  3  9  1  0  0  0  0 
  3 10  1  0  0  0  0 
M  END
> <cdk:Title>
dimethyl sulfoxide

> <Conformer>
1

> <SuperDrugID>
SD000806

$$$$
