isoxsuprine
  CDK     0628171801

 45 46  0  0  0  0  0  0  0  0999 V2000
   -2.0552   -3.3143   -2.9328 C   0  0  0  0  0  0  0  0  0  0  0  0
   -1.7122   -2.8510   -1.4911 C   0  0  2  0  0  0  0  0  0  0  0  0
   -0.8276   -1.5755   -1.5352 C   0  0  1  0  0  0  0  0  0  0  0  0
   -0.5602   -1.0956   -0.1982 O   0  0  0  0  0  0  0  0  0  0  0  0
    0.0916    0.1091   -0.2026 C   0  0  0  0  0  0  0  0  0  0  0  0
   -0.6548    1.3030   -0.1236 C   0  0  0  0  0  0  0  0  0  0  0  0
   -0.0028    2.5495   -0.1571 C   0  0  0  0  0  0  0  0  0  0  0  0
    1.4001    2.6077   -0.2573 C   0  0  0  0  0  0  0  0  0  0  0  0
    2.1501    1.4184   -0.3290 C   0  0  0  0  0  0  0  0  0  0  0  0
    1.4983    0.1710   -0.2955 C   0  0  0  0  0  0  0  0  0  0  0  0
   -0.9848   -3.8820   -0.7000 N   0  0  2  0  0  0  0  0  0  0  0  0
   -1.6077   -5.2034   -0.4126 C   0  0  1  0  0  0  0  0  0  0  0  0
   -0.4563   -6.1308    0.0575 C   0  0  0  0  0  0  0  0  0  0  0  0
   -2.8074   -5.1864    0.5945 C   0  0  2  0  0  0  0  0  0  0  0  0
   -3.9397   -4.5011    0.0614 O   0  0  0  0  0  0  0  0  0  0  0  0
   -2.4644   -4.6321    1.9374 C   0  0  0  0  0  0  0  0  0  0  0  0
   -2.3862   -3.2365    2.1636 C   0  0  0  0  0  0  0  0  0  0  0  0
   -2.0100   -2.7281    3.4207 C   0  0  0  0  0  0  0  0  0  0  0  0
   -1.7135   -3.6087    4.4761 C   0  0  0  0  0  0  0  0  0  0  0  0
   -1.3242   -3.1178    5.6756 O   0  0  0  0  0  0  0  0  0  0  0  0
   -1.8166   -4.9971    4.2783 C   0  0  0  0  0  0  0  0  0  0  0  0
   -2.1901   -5.5036    3.0200 C   0  0  0  0  0  0  0  0  0  0  0  0
   -2.7678   -4.1394   -2.9181 H   0  0  0  0  0  0  0  0  0  0  0  0
   -1.1506   -3.6352   -3.4529 H   0  0  0  0  0  0  0  0  0  0  0  0
   -2.5164   -2.4963   -3.4917 H   0  0  0  0  0  0  0  0  0  0  0  0
   -2.6440   -2.5816   -0.9904 H   0  0  0  0  0  0  0  0  0  0  0  0
    0.1163   -1.8080   -2.0422 H   0  0  0  0  0  0  0  0  0  0  0  0
   -1.3537   -0.8055   -2.1151 H   0  0  0  0  0  0  0  0  0  0  0  0
   -1.6740    1.2640   -0.0479 H   0  0  0  0  0  0  0  0  0  0  0  0
   -0.5491    3.4120   -0.1098 H   0  0  0  0  0  0  0  0  0  0  0  0
    1.8732    3.5134   -0.2815 H   0  0  0  0  0  0  0  0  0  0  0  0
    3.1684    1.4604   -0.4064 H   0  0  0  0  0  0  0  0  0  0  0  0
    2.0476   -0.6903   -0.3453 H   0  0  0  0  0  0  0  0  0  0  0  0
   -0.7296   -3.4647    0.1975 H   0  0  0  0  0  0  0  0  0  0  0  0
   -1.9639   -5.6429   -1.3476 H   0  0  0  0  0  0  0  0  0  0  0  0
   -0.8404   -7.1273    0.2813 H   0  0  0  0  0  0  0  0  0  0  0  0
    0.0350   -5.7338    0.9488 H   0  0  0  0  0  0  0  0  0  0  0  0
    0.2920   -6.2234   -0.7320 H   0  0  0  0  0  0  0  0  0  0  0  0
   -3.1489   -6.2202    0.7079 H   0  0  0  0  0  0  0  0  0  0  0  0
   -4.1718   -4.9877   -0.7575 H   0  0  0  0  0  0  0  0  0  0  0  0
   -2.6002   -2.5739    1.4161 H   0  0  0  0  0  0  0  0  0  0  0  0
   -1.9494   -1.7175    3.5644 H   0  0  0  0  0  0  0  0  0  0  0  0
   -2.1546   -3.0195    6.1863 H   0  0  0  0  0  0  0  0  0  0  0  0
   -1.6109   -5.6429    5.0443 H   0  0  0  0  0  0  0  0  0  0  0  0
   -2.2485   -6.5180    2.8991 H   0  0  0  0  0  0  0  0  0  0  0  0
  2  1  1  0  0  0  0 
  2  3  1  0  0  0  0 
  3  4  1  0  0  0  0 
  4  5  1  0  0  0  0 
  5  6  2  0  0  0  0 
  6  7  1  0  0  0  0 
  7  8  2  0  0  0  0 
  8  9  1  0  0  0  0 
  9 10  2  0  0  0  0 
  5 10  1  0  0  0  0 
  2 11  1  0  0  0  0 
 12 11  1  0  0  0  0 
 12 13  1  0  0  0  0 
 14 12  1  0  0  0  0 
 14 15  1  0  0  0  0 
 14 16  1  0  0  0  0 
 16 17  2  0  0  0  0 
 17 18  1  0  0  0  0 
 18 19  2  0  0  0  0 
 19 20  1  0  0  0  0 
 19 21  1  0  0  0  0 
 21 22  2  0  0  0  0 
 16 22  1  0  0  0  0 
  1 23  1  0  0  0  0 
  1 24  1  0  0  0  0 
  1 25  1  0  0  0  0 
  2 26  1  0  0  0  0 
  3 27  1  0  0  0  0 
  3 28  1  0  0  0  0 
  6 29  1  0  0  0  0 
  7 30  1  0  0  0  0 
  8 31  1  0  0  0  0 
  9 32  1  0  0  0  0 
 10 33  1  0  0  0  0 
 11 34  1  0  0  0  0 
 12 35  1  0  0  0  0 
 13 36  1  0  0  0  0 
 13 37  1  0  0  0  0 
 13 38  1  0  0  0  0 
 14 39  1  0  0  0  0 
 15 40  1  0  0  0  0 
 17 41  1  0  0  0  0 
 18 42  1  0  0  0  0 
 20 43  1  0  0  0  0 
 21 44  1  0  0  0  0 
 22 45  1  0  0  0  0 
M  END
> <cdk:Title>
isoxsuprine

> <Conformer>
1

> <SuperDrugID>
SD001337

$$$$
