ethylmorphine
  CDK     0628171801

 46 50  0  0  0  0  0  0  0  0999 V2000
    6.7695    2.5921    4.4211 O   0  0  0  0  0  0  0  0  0  0  0  0
    5.4891    2.5482    5.0536 C   0  0  2  0  0  0  0  0  0  0  0  0
    4.3606    2.2030    4.0137 C   0  0  1  0  0  0  0  0  0  0  0  0
    5.2719    3.7631    5.8359 C   0  0  0  0  0  0  0  0  0  0  0  0
    2.9743    2.8537    4.3584 C   0  0  2  0  0  0  0  0  0  0  0  0
    4.7047    2.6045    2.6609 O   0  0  0  0  0  0  0  0  0  0  0  0
    4.0462    4.1787    6.1965 C   0  0  0  0  0  0  0  0  0  0  0  0
    3.0464    3.9693    3.4142 C   0  0  0  0  0  0  0  0  0  0  0  0
    2.8417    3.4500    5.8025 C   0  0  1  0  0  0  0  0  0  0  0  0
    1.7544    1.9173    4.0522 C   0  0  1  0  0  0  0  0  0  0  0  0
    4.0121    3.7502    2.4449 C   0  0  0  0  0  0  0  0  0  0  0  0
    2.3447    5.1853    3.5195 C   0  0  0  0  0  0  0  0  0  0  0  0
    1.5171    4.2995    5.8113 C   0  0  1  0  0  0  0  0  0  0  0  0
    0.3780    2.5706    4.3631 C   0  0  1  0  0  0  0  0  0  0  0  0
    4.2071    4.6891    1.4138 C   0  0  0  0  0  0  0  0  0  0  0  0
    1.5242    5.4550    4.7340 C   0  0  2  0  0  0  0  0  0  0  0  0
    2.5407    6.1401    2.4939 C   0  0  0  0  0  0  0  0  0  0  0  0
    0.3737    3.3362    5.6475 N   0  0  2  0  0  0  0  0  0  0  0  0
    5.0762    4.4163    0.3932 O   0  0  0  0  0  0  0  0  0  0  0  0
    3.4508    5.8858    1.4419 C   0  0  0  0  0  0  0  0  0  0  0  0
   -0.9710    3.8571    6.0211 C   0  0  0  0  0  0  0  0  0  0  0  0
    6.3936    4.9649    0.5759 C   0  0  1  0  0  0  0  0  0  0  0  0
    7.2692    4.5426   -0.6195 C   0  0  0  0  0  0  0  0  0  0  0  0
    2.7384    2.6305    6.5231 H   0  0  0  0  0  0  0  0  0  0  0  0
    4.2666    1.1123    3.9877 H   0  0  0  0  0  0  0  0  0  0  0  0
    1.4302    4.7538    6.8039 H   0  0  0  0  0  0  0  0  0  0  0  0
    6.7423    3.3716    3.8262 H   0  0  0  0  0  0  0  0  0  0  0  0
    5.5360    1.7284    5.7767 H   0  0  0  0  0  0  0  0  0  0  0  0
    6.0594    4.2931    6.1387 H   0  0  0  0  0  0  0  0  0  0  0  0
    3.9618    5.0008    6.7503 H   0  0  0  0  0  0  0  0  0  0  0  0
    1.7652    1.6041    3.0023 H   0  0  0  0  0  0  0  0  0  0  0  0
    1.8511    1.0138    4.6625 H   0  0  0  0  0  0  0  0  0  0  0  0
    0.0954    3.2299    3.5381 H   0  0  0  0  0  0  0  0  0  0  0  0
   -0.3699    1.7743    4.4159 H   0  0  0  0  0  0  0  0  0  0  0  0
    0.5080    5.6915    4.4177 H   0  0  0  0  0  0  0  0  0  0  0  0
    1.9302    6.3532    5.2051 H   0  0  0  0  0  0  0  0  0  0  0  0
    2.0381    7.0313    2.5185 H   0  0  0  0  0  0  0  0  0  0  0  0
    3.5749    6.5851    0.7052 H   0  0  0  0  0  0  0  0  0  0  0  0
   -0.9362    4.3838    6.9768 H   0  0  0  0  0  0  0  0  0  0  0  0
   -1.3581    4.5356    5.2592 H   0  0  0  0  0  0  0  0  0  0  0  0
   -1.6697    3.0258    6.1312 H   0  0  0  0  0  0  0  0  0  0  0  0
    6.3563    6.0582    0.6158 H   0  0  0  0  0  0  0  0  0  0  0  0
    6.8536    4.5886    1.4950 H   0  0  0  0  0  0  0  0  0  0  0  0
    7.3375    3.4538   -0.6684 H   0  0  0  0  0  0  0  0  0  0  0  0
    8.2745    4.9531   -0.5106 H   0  0  0  0  0  0  0  0  0  0  0  0
    6.8376    4.9106   -1.5527 H   0  0  0  0  0  0  0  0  0  0  0  0
  2  1  1  0  0  0  0 
  3  2  1  0  0  0  0 
  2  4  1  0  0  0  0 
  5  3  1  0  0  0  0 
  3  6  1  0  0  0  0 
  3 25  1  0  0  0  0 
  4  7  2  0  0  0  0 
  5  8  1  0  0  0  0 
  9  5  1  0  0  0  0 
  5 10  1  0  0  0  0 
  6 11  1  0  0  0  0 
  9  7  1  0  0  0  0 
  8 11  2  0  0  0  0 
  8 12  1  0  0  0  0 
 13  9  1  0  0  0  0 
  9 24  1  0  0  0  0 
 10 14  1  0  0  0  0 
 11 15  1  0  0  0  0 
 12 16  1  0  0  0  0 
 12 17  2  0  0  0  0 
 13 16  1  0  0  0  0 
 13 18  1  0  0  0  0 
 13 26  1  0  0  0  0 
 14 18  1  0  0  0  0 
 15 19  1  0  0  0  0 
 15 20  2  0  0  0  0 
 17 20  1  0  0  0  0 
 18 21  1  0  0  0  0 
 19 22  1  0  0  0  0 
 22 23  1  0  0  0  0 
  1 27  1  0  0  0  0 
  2 28  1  0  0  0  0 
  4 29  1  0  0  0  0 
  7 30  1  0  0  0  0 
 10 31  1  0  0  0  0 
 10 32  1  0  0  0  0 
 14 33  1  0  0  0  0 
 14 34  1  0  0  0  0 
 16 35  1  0  0  0  0 
 16 36  1  0  0  0  0 
 17 37  1  0  0  0  0 
 20 38  1  0  0  0  0 
 21 39  1  0  0  0  0 
 21 40  1  0  0  0  0 
 21 41  1  0  0  0  0 
 22 42  1  0  0  0  0 
 22 43  1  0  0  0  0 
 23 44  1  0  0  0  0 
 23 45  1  0  0  0  0 
 23 46  1  0  0  0  0 
M  END
> <cdk:Title>
ethylmorphine

> <Conformer>
1

> <SuperDrugID>
SD002775

$$$$
