oleic acid
  CDK     0628171801

 54 53  0  0  0  0  0  0  0  0999 V2000
    3.4284    1.1841    2.4787 C   0  0  2  0  0  0  0  0  0  0  0  0
    2.5244    0.2208    1.6669 C   0  0  2  0  0  0  0  0  0  0  0  0
    2.9736    1.2740    3.9623 C   0  0  2  0  0  0  0  0  0  0  0  0
    2.8773    0.0857    0.2618 C   0  0  0  0  0  0  0  0  0  0  0  0
    3.8828    2.1789    4.8315 C   0  0  1  0  0  0  0  0  0  0  0  0
    2.2014   -0.6632   -0.6286 C   0  0  0  0  0  0  0  0  0  0  0  0
    3.4245    2.2470    6.3127 C   0  0  2  0  0  0  0  0  0  0  0  0
    0.9861   -1.4186   -0.3553 C   0  0  2  0  0  0  0  0  0  0  0  0
    4.3539    3.1569    7.1572 C   0  0  2  0  0  0  0  0  0  0  0  0
   -0.2876   -0.5271   -0.4156 C   0  0  1  0  0  0  0  0  0  0  0  0
    3.9188    3.2646    8.6413 C   0  0  2  0  0  0  0  0  0  0  0  0
   -1.5524   -1.2304    0.1474 C   0  0  2  0  0  0  0  0  0  0  0  0
    4.8402    4.1214    9.4124 C   0  0  0  0  0  0  0  0  0  0  0  0
   -2.8184   -0.3352    0.0555 C   0  0  2  0  0  0  0  0  0  0  0  0
    5.5959    3.5987   10.4067 O   0  0  0  0  0  0  0  0  0  0  0  0
    4.9453    5.3422    9.1525 O   0  0  0  0  0  0  0  0  0  0  0  0
   -4.1024   -1.0630    0.5355 C   0  0  1  0  0  0  0  0  0  0  0  0
   -5.3778   -0.1899    0.3974 C   0  0  1  0  0  0  0  0  0  0  0  0
   -6.6607   -0.9339    0.8531 C   0  0  2  0  0  0  0  0  0  0  0  0
   -7.9302   -0.0675    0.7068 C   0  0  0  0  0  0  0  0  0  0  0  0
    3.3951    2.1818    2.0285 H   0  0  0  0  0  0  0  0  0  0  0  0
    4.4622    0.8253    2.4339 H   0  0  0  0  0  0  0  0  0  0  0  0
    1.4997    0.5849    1.7446 H   0  0  0  0  0  0  0  0  0  0  0  0
    2.5770   -0.7696    2.1272 H   0  0  0  0  0  0  0  0  0  0  0  0
    2.9673    0.2688    4.3939 H   0  0  0  0  0  0  0  0  0  0  0  0
    1.9523    1.6644    3.9984 H   0  0  0  0  0  0  0  0  0  0  0  0
    3.6824    0.5681   -0.0707 H   0  0  0  0  0  0  0  0  0  0  0  0
    4.9057    1.7944    4.7954 H   0  0  0  0  0  0  0  0  0  0  0  0
    3.8825    3.1886    4.4118 H   0  0  0  0  0  0  0  0  0  0  0  0
    2.5510   -0.6936   -1.5602 H   0  0  0  0  0  0  0  0  0  0  0  0
    3.4246    1.2401    6.7411 H   0  0  0  0  0  0  0  0  0  0  0  0
    2.4024    2.6357    6.3600 H   0  0  0  0  0  0  0  0  0  0  0  0
    1.0645   -1.9143    0.6177 H   0  0  0  0  0  0  0  0  0  0  0  0
    0.8907   -2.2092   -1.1062 H   0  0  0  0  0  0  0  0  0  0  0  0
    4.3621    4.1579    6.7144 H   0  0  0  0  0  0  0  0  0  0  0  0
    5.3717    2.7567    7.1149 H   0  0  0  0  0  0  0  0  0  0  0  0
   -0.1306    0.3924    0.1556 H   0  0  0  0  0  0  0  0  0  0  0  0
   -0.4655   -0.2416   -1.4559 H   0  0  0  0  0  0  0  0  0  0  0  0
    3.8976    2.2656    9.0847 H   0  0  0  0  0  0  0  0  0  0  0  0
    2.9119    3.6852    8.7068 H   0  0  0  0  0  0  0  0  0  0  0  0
   -1.3816   -1.4910    1.1980 H   0  0  0  0  0  0  0  0  0  0  0  0
   -1.7184   -2.1549   -0.4113 H   0  0  0  0  0  0  0  0  0  0  0  0
   -2.9540   -0.0228   -0.9844 H   0  0  0  0  0  0  0  0  0  0  0  0
   -2.6691    0.5627    0.6630 H   0  0  0  0  0  0  0  0  0  0  0  0
    6.2110    4.1729   10.9088 H   0  0  0  0  0  0  0  0  0  0  0  0
   -4.2317   -1.9746   -0.0552 H   0  0  0  0  0  0  0  0  0  0  0  0
   -3.9772   -1.3503    1.5833 H   0  0  0  0  0  0  0  0  0  0  0  0
   -5.2569    0.7159    0.9984 H   0  0  0  0  0  0  0  0  0  0  0  0
   -5.4935    0.1087   -0.6483 H   0  0  0  0  0  0  0  0  0  0  0  0
   -6.5581   -1.2300    1.9007 H   0  0  0  0  0  0  0  0  0  0  0  0
   -6.7876   -1.8408    0.2557 H   0  0  0  0  0  0  0  0  0  0  0  0
   -8.8036   -0.6317    1.0375 H   0  0  0  0  0  0  0  0  0  0  0  0
   -7.8474    0.8349    1.3154 H   0  0  0  0  0  0  0  0  0  0  0  0
   -8.0763    0.2203   -0.3361 H   0  0  0  0  0  0  0  0  0  0  0  0
  1  2  1  0  0  0  0 
  1  3  1  0  0  0  0 
  2  4  1  0  0  0  0 
  3  5  1  0  0  0  0 
  4  6  2  0  0  0  0 
  5  7  1  0  0  0  0 
  6  8  1  0  0  0  0 
  7  9  1  0  0  0  0 
  8 10  1  0  0  0  0 
  9 11  1  0  0  0  0 
 10 12  1  0  0  0  0 
 11 13  1  0  0  0  0 
 12 14  1  0  0  0  0 
 13 15  1  0  0  0  0 
 13 16  2  0  0  0  0 
 14 17  1  0  0  0  0 
 17 18  1  0  0  0  0 
 18 19  1  0  0  0  0 
 19 20  1  0  0  0  0 
  1 21  1  0  0  0  0 
  1 22  1  0  0  0  0 
  2 23  1  0  0  0  0 
  2 24  1  0  0  0  0 
  3 25  1  0  0  0  0 
  3 26  1  0  0  0  0 
  4 27  1  0  0  0  0 
  5 28  1  0  0  0  0 
  5 29  1  0  0  0  0 
  6 30  1  0  0  0  0 
  7 31  1  0  0  0  0 
  7 32  1  0  0  0  0 
  8 33  1  0  0  0  0 
  8 34  1  0  0  0  0 
  9 35  1  0  0  0  0 
  9 36  1  0  0  0  0 
 10 37  1  0  0  0  0 
 10 38  1  0  0  0  0 
 11 39  1  0  0  0  0 
 11 40  1  0  0  0  0 
 12 41  1  0  0  0  0 
 12 42  1  0  0  0  0 
 14 43  1  0  0  0  0 
 14 44  1  0  0  0  0 
 15 45  1  0  0  0  0 
 17 46  1  0  0  0  0 
 17 47  1  0  0  0  0 
 18 48  1  0  0  0  0 
 18 49  1  0  0  0  0 
 19 50  1  0  0  0  0 
 19 51  1  0  0  0  0 
 20 52  1  0  0  0  0 
 20 53  1  0  0  0  0 
 20 54  1  0  0  0  0 
M  END
> <cdk:Title>
oleic acid

> <Conformer>
1

> <SuperDrugID>
SD002926

$$$$
