symclosene
  CDK     0628171801

 12 12  0  0  0  0  0  0  0  0999 V2000
   -3.9638    0.0000    0.0000 O   0  0  0  0  0  0  0  0  0  0  0  0
   -2.7062    0.0000    0.0000 C   0  0  0  0  0  0  0  0  0  0  0  0
   -2.0233    1.1836    0.0000 N   0  0  0  0  0  0  0  0  0  0  0  0
   -2.0233   -1.1836    0.0000 N   0  0  0  0  0  0  0  0  0  0  0  0
   -2.8511    2.6173    0.0000 Cl  0  0  0  0  0  0  0  0  0  0  0  0
   -0.6569    1.1832    0.0000 C   0  0  0  0  0  0  0  0  0  0  0  0
   -2.8511   -2.6173    0.0000 Cl  0  0  0  0  0  0  0  0  0  0  0  0
   -0.6569   -1.1832    0.0000 C   0  0  0  0  0  0  0  0  0  0  0  0
   -0.0281    2.2723    0.0000 O   0  0  0  0  0  0  0  0  0  0  0  0
    0.0266    0.0000    0.0000 N   0  0  0  0  0  0  0  0  0  0  0  0
   -0.0281   -2.2723    0.0000 O   0  0  0  0  0  0  0  0  0  0  0  0
    1.6822    0.0000    0.0000 Cl  0  0  0  0  0  0  0  0  0  0  0  0
  1  2  2  0  0  0  0 
  2  3  1  0  0  0  0 
  2  4  1  0  0  0  0 
  3  5  1  0  0  0  0 
  3  6  1  0  0  0  0 
  4  7  1  0  0  0  0 
  4  8  1  0  0  0  0 
  6  9  2  0  0  0  0 
  6 10  1  0  0  0  0 
  8 10  1  0  0  0  0 
  8 11  2  0  0  0  0 
 10 12  1  0  0  0  0 
M  END
> <cdk:Title>
symclosene

> <Conformer>
1

> <SuperDrugID>
SD003109

$$$$
