hesperetin
  CDK     0628171801

 36 38  0  0  0  0  0  0  0  0999 V2000
   -0.6188    7.4156   -1.6382 O   0  0  0  0  0  0  0  0  0  0  0  0
    0.2197    6.4974   -1.7977 C   0  0  0  0  0  0  0  0  0  0  0  0
    1.3511    6.6613   -2.6471 C   0  0  0  0  0  0  0  0  0  0  0  0
   -0.0481    5.2153   -1.1058 C   0  0  1  0  0  0  0  0  0  0  0  0
    2.2395    5.5603   -2.7824 C   0  0  0  0  0  0  0  0  0  0  0  0
    1.6264    7.8499   -3.3761 C   0  0  0  0  0  0  0  0  0  0  0  0
    1.2442    4.3607   -0.9565 C   0  0  2  0  0  0  0  0  0  0  0  0
    2.0250    4.3466   -2.1732 O   0  0  0  0  0  0  0  0  0  0  0  0
    3.3729    5.6548   -3.6109 C   0  0  0  0  0  0  0  0  0  0  0  0
    0.8192    8.9386   -3.3249 O   0  0  0  0  0  0  0  0  0  0  0  0
    2.7633    7.9317   -4.2035 C   0  0  0  0  0  0  0  0  0  0  0  0
    0.9049    2.9648   -0.5574 C   0  0  0  0  0  0  0  0  0  0  0  0
    3.6381    6.8381   -4.3182 C   0  0  0  0  0  0  0  0  0  0  0  0
    0.7824    2.6149    0.8082 C   0  0  0  0  0  0  0  0  0  0  0  0
    0.6587    1.9685   -1.5331 C   0  0  0  0  0  0  0  0  0  0  0  0
    4.7281    6.9157   -5.1166 O   0  0  0  0  0  0  0  0  0  0  0  0
    0.4613    1.2987    1.1901 C   0  0  0  0  0  0  0  0  0  0  0  0
    0.3394    0.6540   -1.1549 C   0  0  0  0  0  0  0  0  0  0  0  0
    0.3344    0.9965    2.5045 O   0  0  0  0  0  0  0  0  0  0  0  0
    0.2672    0.3054    0.2076 C   0  0  0  0  0  0  0  0  0  0  0  0
   -0.0094   -0.9877    0.5626 O   0  0  0  0  0  0  0  0  0  0  0  0
    1.1810   -1.7848    0.7106 C   0  0  0  0  0  0  0  0  0  0  0  0
   -0.4719    5.4040   -0.1143 H   0  0  0  0  0  0  0  0  0  0  0  0
   -0.7914    4.6772   -1.6975 H   0  0  0  0  0  0  0  0  0  0  0  0
    1.8768    4.8081   -0.1806 H   0  0  0  0  0  0  0  0  0  0  0  0
    4.0023    4.8547   -3.7080 H   0  0  0  0  0  0  0  0  0  0  0  0
    0.0924    8.7409   -3.9534 H   0  0  0  0  0  0  0  0  0  0  0  0
    2.9513    8.7885   -4.7305 H   0  0  0  0  0  0  0  0  0  0  0  0
    0.9198    3.3214    1.5346 H   0  0  0  0  0  0  0  0  0  0  0  0
    0.7112    2.1899   -2.5305 H   0  0  0  0  0  0  0  0  0  0  0  0
    4.4085    6.6252   -5.9960 H   0  0  0  0  0  0  0  0  0  0  0  0
    0.1651   -0.0504   -1.8754 H   0  0  0  0  0  0  0  0  0  0  0  0
   -0.6236    1.0963    2.6931 H   0  0  0  0  0  0  0  0  0  0  0  0
    0.8850   -2.7979    0.9814 H   0  0  0  0  0  0  0  0  0  0  0  0
    1.7476   -1.8371   -0.2228 H   0  0  0  0  0  0  0  0  0  0  0  0
    1.8236   -1.3971    1.5051 H   0  0  0  0  0  0  0  0  0  0  0  0
  1  2  2  0  0  0  0 
  2  3  1  0  0  0  0 
  2  4  1  0  0  0  0 
  3  5  2  0  0  0  0 
  3  6  1  0  0  0  0 
  7  4  1  0  0  0  0 
  5  8  1  0  0  0  0 
  5  9  1  0  0  0  0 
  6 10  1  0  0  0  0 
  6 11  2  0  0  0  0 
  7  8  1  0  0  0  0 
  7 12  1  0  0  0  0 
  9 13  2  0  0  0  0 
 11 13  1  0  0  0  0 
 12 14  2  0  0  0  0 
 12 15  1  0  0  0  0 
 13 16  1  0  0  0  0 
 14 17  1  0  0  0  0 
 15 18  2  0  0  0  0 
 17 19  1  0  0  0  0 
 17 20  2  0  0  0  0 
 18 20  1  0  0  0  0 
 20 21  1  0  0  0  0 
 21 22  1  0  0  0  0 
 23  4  1  0  0  0  0 
 24  4  1  0  0  0  0 
  7 25  1  0  0  0  0 
 26  9  1  0  0  0  0 
 27 10  1  0  0  0  0 
 28 11  1  0  0  0  0 
 29 14  1  0  0  0  0 
 30 15  1  0  0  0  0 
 31 16  1  0  0  0  0 
 32 18  1  0  0  0  0 
 33 19  1  0  0  0  0 
 34 22  1  0  0  0  0 
 35 22  1  0  0  0  0 
 36 22  1  0  0  0  0 
M  END
> <cdk:Title>
hesperetin

> <Conformer>
1

> <SuperDrugID>
SD001208

$$$$
