diazepam
  CDK     0628171802

 33 35  0  0  0  0  0  0  0  0999 V2000
    6.9341    2.4468   -1.2983 C   0  0  0  0  0  0  0  0  0  0  0  0
    6.2593    1.6713   -0.2739 N   0  0  0  0  0  0  0  0  0  0  0  0
    5.6350    0.4693   -0.6099 C   0  0  0  0  0  0  0  0  0  0  0  0
    6.2451    2.1699    1.0211 C   0  0  0  0  0  0  0  0  0  0  0  0
    4.3110    0.1238   -0.1870 C   0  0  0  0  0  0  0  0  0  0  0  0
    6.3487   -0.4622   -1.4103 C   0  0  0  0  0  0  0  0  0  0  0  0
    6.9096    3.1894    1.3330 O   0  0  0  0  0  0  0  0  0  0  0  0
    5.4151    1.5698    2.0896 C   0  0  2  0  0  0  0  0  0  0  0  0
    3.5510    0.9414    0.6733 C   0  0  0  0  0  0  0  0  0  0  0  0
    3.7442   -1.1015   -0.6284 C   0  0  0  0  0  0  0  0  0  0  0  0
    5.7676   -1.6667   -1.8395 C   0  0  0  0  0  0  0  0  0  0  0  0
    4.0854    1.5556    1.6755 N   0  0  0  0  0  0  0  0  0  0  0  0
    2.1725    1.1246    0.5045 C   0  0  0  0  0  0  0  0  0  0  0  0
    4.4555   -1.9825   -1.4587 C   0  0  0  0  0  0  0  0  0  0  0  0
    1.2770    1.0308    1.6009 C   0  0  0  0  0  0  0  0  0  0  0  0
    1.6312    1.3994   -0.7769 C   0  0  0  0  0  0  0  0  0  0  0  0
    3.7340   -3.4188   -1.9900 Cl  0  0  0  0  0  0  0  0  0  0  0  0
   -0.1066    1.2169    1.4229 C   0  0  0  0  0  0  0  0  0  0  0  0
    0.2480    1.5883   -0.9537 C   0  0  0  0  0  0  0  0  0  0  0  0
   -0.6213    1.5007    0.1466 C   0  0  0  0  0  0  0  0  0  0  0  0
    6.7383    2.0837   -2.3116 H   0  0  0  0  0  0  0  0  0  0  0  0
    8.0126    2.4232   -1.1285 H   0  0  0  0  0  0  0  0  0  0  0  0
    6.6015    3.4886   -1.2714 H   0  0  0  0  0  0  0  0  0  0  0  0
    7.3128   -0.2687   -1.6936 H   0  0  0  0  0  0  0  0  0  0  0  0
    5.4780    2.1537    3.0121 H   0  0  0  0  0  0  0  0  0  0  0  0
    5.7581    0.5560    2.3109 H   0  0  0  0  0  0  0  0  0  0  0  0
    2.7984   -1.3688   -0.3400 H   0  0  0  0  0  0  0  0  0  0  0  0
    6.3038   -2.3094   -2.4292 H   0  0  0  0  0  0  0  0  0  0  0  0
    1.6246    0.8157    2.5394 H   0  0  0  0  0  0  0  0  0  0  0  0
    2.2422    1.4685   -1.5954 H   0  0  0  0  0  0  0  0  0  0  0  0
   -0.7381    1.1460    2.2230 H   0  0  0  0  0  0  0  0  0  0  0  0
   -0.1247    1.7922   -1.8828 H   0  0  0  0  0  0  0  0  0  0  0  0
   -1.6246    1.6446    0.0192 H   0  0  0  0  0  0  0  0  0  0  0  0
  1  2  1  0  0  0  0 
  2  3  1  0  0  0  0 
  2  4  1  0  0  0  0 
  3  5  2  0  0  0  0 
  3  6  1  0  0  0  0 
  4  7  2  0  0  0  0 
  4  8  1  0  0  0  0 
  5  9  1  0  0  0  0 
  5 10  1  0  0  0  0 
  6 11  2  0  0  0  0 
  8 12  1  0  0  0  0 
  9 12  2  0  0  0  0 
  9 13  1  0  0  0  0 
 10 14  2  0  0  0  0 
 11 14  1  0  0  0  0 
 13 15  2  0  0  0  0 
 13 16  1  0  0  0  0 
 14 17  1  0  0  0  0 
 15 18  1  0  0  0  0 
 16 19  2  0  0  0  0 
 18 20  2  0  0  0  0 
 19 20  1  0  0  0  0 
  1 21  1  0  0  0  0 
  1 22  1  0  0  0  0 
  1 23  1  0  0  0  0 
  6 24  1  0  0  0  0 
  8 25  1  0  0  0  0 
  8 26  1  0  0  0  0 
 10 27  1  0  0  0  0 
 11 28  1  0  0  0  0 
 15 29  1  0  0  0  0 
 16 30  1  0  0  0  0 
 18 31  1  0  0  0  0 
 19 32  1  0  0  0  0 
 20 33  1  0  0  0  0 
M  END
> <cdk:Title>
diazepam

> <Conformer>
1

> <SuperDrugID>
SD000755

$$$$
