menadione sodium bisulfite
  CDK     0628171801

 27 28  0  0  0  0  0  0  0  0999 V2000
   -1.8131    0.7966    0.1491 O   0  0  0  0  0  0  0  0  0  0  0  0
   -1.9192   -0.4203   -0.1378 C   0  0  0  0  0  0  0  0  0  0  0  0
   -1.1722   -1.3935    0.5988 C   0  0  0  0  0  0  0  0  0  0  0  0
   -2.8051   -0.8394   -1.2733 C   0  0  2  0  0  0  0  0  0  0  0  0
   -1.4719   -2.7818    0.4583 C   0  0  0  0  0  0  0  0  0  0  0  0
   -0.1154   -1.0005    1.4577 C   0  0  0  0  0  0  0  0  0  0  0  0
   -1.7339   -1.0574   -2.7595 S   0  0  2  0  0  0  0  0  0  0  0  0
   -3.8912    0.2294   -1.6176 C   0  0  0  0  0  0  0  0  0  0  0  0
   -3.5101   -2.1848   -0.8931 C   0  0  1  0  0  0  0  0  0  0  0  0
   -2.5550   -3.1941   -0.3735 C   0  0  0  0  0  0  0  0  0  0  0  0
   -0.6772   -3.7342    1.1434 C   0  0  0  0  0  0  0  0  0  0  0  0
    0.6603   -1.9579    2.1323 C   0  0  0  0  0  0  0  0  0  0  0  0
   -0.6341   -2.2004   -2.5289 O   0  0  0  0  0  0  0  0  0  0  0  0
   -0.9884    0.3148   -3.1214 O   0  0  0  0  0  0  0  0  0  0  0  0
   -2.6936   -1.5171   -4.0990 O   0  0  0  0  0  0  0  0  0  0  0  0
   -2.7210   -4.3948   -0.6963 O   0  0  0  0  0  0  0  0  0  0  0  0
    0.3849   -3.3238    1.9674 C   0  0  0  0  0  0  0  0  0  0  0  0
    0.1117   -0.0116    1.5929 H   0  0  0  0  0  0  0  0  0  0  0  0
   -4.5230    0.4283   -0.7483 H   0  0  0  0  0  0  0  0  0  0  0  0
   -3.4319    1.1719   -1.9241 H   0  0  0  0  0  0  0  0  0  0  0  0
   -4.5341   -0.1137   -2.4327 H   0  0  0  0  0  0  0  0  0  0  0  0
   -4.2394   -2.0000   -0.0977 H   0  0  0  0  0  0  0  0  0  0  0  0
   -4.0599   -2.5820   -1.7526 H   0  0  0  0  0  0  0  0  0  0  0  0
   -0.8640   -4.7366    1.0533 H   0  0  0  0  0  0  0  0  0  0  0  0
    1.4303   -1.6607    2.7383 H   0  0  0  0  0  0  0  0  0  0  0  0
   -3.2681   -0.7419   -4.2716 H   0  0  0  0  0  0  0  0  0  0  0  0
    0.9567   -4.0209    2.4481 H   0  0  0  0  0  0  0  0  0  0  0  0
  1  2  2  0  0  0  0 
  2  3  1  0  0  0  0 
  4  2  1  0  0  0  0 
  3  5  2  0  0  0  0 
  3  6  1  0  0  0  0 
  4  7  1  0  0  0  0 
  4  8  1  0  0  0  0 
  4  9  1  0  0  0  0 
  5 10  1  0  0  0  0 
  5 11  1  0  0  0  0 
  6 12  2  0  0  0  0 
  7 13  2  0  0  0  0 
  7 14  2  0  0  0  0 
  7 15  1  0  0  0  0 
  9 10  1  0  0  0  0 
 10 16  2  0  0  0  0 
 11 17  2  0  0  0  0 
 12 17  1  0  0  0  0 
 18  6  1  0  0  0  0 
 19  8  1  0  0  0  0 
 20  8  1  0  0  0  0 
 21  8  1  0  0  0  0 
 22  9  1  0  0  0  0 
 23  9  1  0  0  0  0 
 24 11  1  0  0  0  0 
 25 12  1  0  0  0  0 
 26 15  1  0  0  0  0 
 27 17  1  0  0  0  0 
M  END
> <cdk:Title>
menadione sodium bisulfite

> <Conformer>
1

> <SuperDrugID>
SD001488

$$$$
