flutoprazepam
  CDK     0628171801

 40 43  0  0  0  0  0  0  0  0999 V2000
   -5.8862   -0.7771   -2.3959 C   0  0  1  0  0  0  0  0  0  0  0  0
   -5.5830   -0.2269   -1.0813 N   0  0  0  0  0  0  0  0  0  0  0  0
   -7.3587   -0.4909   -2.8078 C   0  0  1  0  0  0  0  0  0  0  0  0
   -4.7456    0.8919   -0.9693 C   0  0  0  0  0  0  0  0  0  0  0  0
   -6.1237   -0.8553    0.0353 C   0  0  0  0  0  0  0  0  0  0  0  0
   -7.7512   -0.8711   -4.2458 C   0  0  2  0  0  0  0  0  0  0  0  0
   -8.3387   -1.6504   -3.0669 C   0  0  1  0  0  0  0  0  0  0  0  0
   -3.6853    0.9988   -0.0079 C   0  0  0  0  0  0  0  0  0  0  0  0
   -4.9536    1.9833   -1.8553 C   0  0  0  0  0  0  0  0  0  0  0  0
   -6.9023   -1.8351   -0.0772 O   0  0  0  0  0  0  0  0  0  0  0  0
   -5.7742   -0.4530    1.4136 C   0  0  2  0  0  0  0  0  0  0  0  0
   -3.4355    0.0015    0.9594 C   0  0  0  0  0  0  0  0  0  0  0  0
   -2.8695    2.1624   -0.0054 C   0  0  0  0  0  0  0  0  0  0  0  0
   -4.1227    3.1131   -1.8514 C   0  0  0  0  0  0  0  0  0  0  0  0
   -4.4015   -0.5988    1.5677 N   0  0  0  0  0  0  0  0  0  0  0  0
   -2.1453   -0.4191    1.3278 C   0  0  0  0  0  0  0  0  0  0  0  0
   -3.0746    3.2054   -0.9256 C   0  0  0  0  0  0  0  0  0  0  0  0
   -1.1299   -0.6590    0.3604 C   0  0  0  0  0  0  0  0  0  0  0  0
   -1.8212   -0.6393    2.6943 C   0  0  0  0  0  0  0  0  0  0  0  0
   -2.0763    4.5746   -0.9129 Cl  0  0  0  0  0  0  0  0  0  0  0  0
   -1.3342   -0.4802   -0.9195 F   0  0  0  0  0  0  0  0  0  0  0  0
    0.1442   -1.1172    0.7505 C   0  0  0  0  0  0  0  0  0  0  0  0
   -0.5531   -1.1111    3.0773 C   0  0  0  0  0  0  0  0  0  0  0  0
    0.4296   -1.3538    2.1046 C   0  0  0  0  0  0  0  0  0  0  0  0
   -5.2322   -0.3590   -3.1680 H   0  0  0  0  0  0  0  0  0  0  0  0
   -5.6770   -1.8512   -2.3957 H   0  0  0  0  0  0  0  0  0  0  0  0
   -7.8143    0.4448   -2.4704 H   0  0  0  0  0  0  0  0  0  0  0  0
   -7.0123   -1.4148   -4.8371 H   0  0  0  0  0  0  0  0  0  0  0  0
   -8.4375   -0.1883   -4.7475 H   0  0  0  0  0  0  0  0  0  0  0  0
   -7.9563   -2.6666   -2.9500 H   0  0  0  0  0  0  0  0  0  0  0  0
   -9.3927   -1.4499   -2.8627 H   0  0  0  0  0  0  0  0  0  0  0  0
   -5.7268    1.9708   -2.5230 H   0  0  0  0  0  0  0  0  0  0  0  0
   -6.2642   -1.0930    2.1520 H   0  0  0  0  0  0  0  0  0  0  0  0
   -6.0890    0.5762    1.5996 H   0  0  0  0  0  0  0  0  0  0  0  0
   -2.1124    2.2673    0.6767 H   0  0  0  0  0  0  0  0  0  0  0  0
   -4.2917    3.8671   -2.5227 H   0  0  0  0  0  0  0  0  0  0  0  0
   -2.5065   -0.4492    3.4310 H   0  0  0  0  0  0  0  0  0  0  0  0
    0.8678   -1.2866    0.0485 H   0  0  0  0  0  0  0  0  0  0  0  0
   -0.3445   -1.2753    4.0657 H   0  0  0  0  0  0  0  0  0  0  0  0
    1.3508   -1.7026    2.3817 H   0  0  0  0  0  0  0  0  0  0  0  0
  1  2  1  0  0  0  0 
  1  3  1  0  0  0  0 
  2  4  1  0  0  0  0 
  2  5  1  0  0  0  0 
  3  6  1  0  0  0  0 
  3  7  1  0  0  0  0 
  4  8  2  0  0  0  0 
  4  9  1  0  0  0  0 
  5 10  2  0  0  0  0 
  5 11  1  0  0  0  0 
  6  7  1  0  0  0  0 
  8 12  1  0  0  0  0 
  8 13  1  0  0  0  0 
  9 14  2  0  0  0  0 
 11 15  1  0  0  0  0 
 12 15  2  0  0  0  0 
 12 16  1  0  0  0  0 
 13 17  2  0  0  0  0 
 14 17  1  0  0  0  0 
 16 18  2  0  0  0  0 
 16 19  1  0  0  0  0 
 17 20  1  0  0  0  0 
 18 21  1  0  0  0  0 
 18 22  1  0  0  0  0 
 19 23  2  0  0  0  0 
 22 24  2  0  0  0  0 
 23 24  1  0  0  0  0 
  1 25  1  0  0  0  0 
  1 26  1  0  0  0  0 
  3 27  1  0  0  0  0 
  6 28  1  0  0  0  0 
  6 29  1  0  0  0  0 
  7 30  1  0  0  0  0 
  7 31  1  0  0  0  0 
  9 32  1  0  0  0  0 
 11 33  1  0  0  0  0 
 11 34  1  0  0  0  0 
 13 35  1  0  0  0  0 
 14 36  1  0  0  0  0 
 19 37  1  0  0  0  0 
 22 38  1  0  0  0  0 
 23 39  1  0  0  0  0 
 24 40  1  0  0  0  0 
M  END
> <cdk:Title>
flutoprazepam

> <Conformer>
1

> <SuperDrugID>
SD001099

$$$$
