betamethasone
  CDK     0628171801

 57 60  0  0  0  0  0  0  0  0999 V2000
    3.6601    5.0044    0.8388 F   0  0  0  0  0  0  0  0  0  0  0  0
    4.0573    3.9549    1.6608 C   0  0  2  0  0  0  0  0  0  0  0  0
    3.0379    3.9153    2.8779 C   0  0  2  0  0  0  0  0  0  0  0  0
    5.5431    4.3296    2.1344 C   0  0  2  0  0  0  0  0  0  0  0  0
    3.8959    2.6767    0.7397 C   0  0  1  0  0  0  0  0  0  0  0  0
    1.5810    3.6176    2.3721 C   0  0  1  0  0  0  0  0  0  0  0  0
    3.1019    5.2338    3.7059 C   0  0  1  0  0  0  0  0  0  0  0  0
    6.2578    3.2351    3.0119 C   0  0  0  0  0  0  0  0  0  0  0  0
    5.4571    5.5795    2.9659 C   0  0  0  0  0  0  0  0  0  0  0  0
    6.4344    4.5022    0.9562 C   0  0  0  0  0  0  0  0  0  0  0  0
    4.5309    1.5204    1.2761 O   0  0  0  0  0  0  0  0  0  0  0  0
    2.4084    2.3235    0.3865 C   0  0  1  0  0  0  0  0  0  0  0  0
    1.4409    2.2492    1.6286 C   0  0  1  0  0  0  0  0  0  0  0  0
    0.3979    3.6138    3.3648 C   0  0  2  0  0  0  0  0  0  0  0  0
    4.5465    5.6085    4.1199 C   0  0  2  0  0  0  0  0  0  0  0  0
    6.1727    6.6836    2.6533 C   0  0  0  0  0  0  0  0  0  0  0  0
    7.1116    5.6332    0.7037 C   0  0  0  0  0  0  0  0  0  0  0  0
    1.8261    1.0043    2.5263 C   0  0  0  0  0  0  0  0  0  0  0  0
   -0.1187    2.2471    1.3123 C   0  0  2  0  0  0  0  0  0  0  0  0
   -0.7790    3.0425    2.5189 C   0  0  1  0  0  0  0  0  0  0  0  0
    7.0046    6.7225    1.5481 C   0  0  0  0  0  0  0  0  0  0  0  0
   -0.7053    0.8903    0.9977 C   0  0  0  0  0  0  0  0  0  0  0  0
   -0.3424    3.0656    0.1482 O   0  0  0  0  0  0  0  0  0  0  0  0
   -1.8528    2.3429    3.4014 C   0  0  0  0  0  0  0  0  0  0  0  0
    7.6717    7.7558    1.3089 O   0  0  0  0  0  0  0  0  0  0  0  0
   -1.0613    0.4430   -0.3724 C   0  0  2  0  0  0  0  0  0  0  0  0
   -0.8645    0.0507    1.9165 O   0  0  0  0  0  0  0  0  0  0  0  0
   -1.5626   -0.8956   -0.4198 O   0  0  0  0  0  0  0  0  0  0  0  0
    3.3367    3.1228    3.5632 H   0  0  0  0  0  0  0  0  0  0  0  0
    1.3517    4.4341    1.6728 H   0  0  0  0  0  0  0  0  0  0  0  0
    4.4053    2.8629   -0.2109 H   0  0  0  0  0  0  0  0  0  0  0  0
    2.6736    6.0564    3.1255 H   0  0  0  0  0  0  0  0  0  0  0  0
    2.5075    5.1259    4.6185 H   0  0  0  0  0  0  0  0  0  0  0  0
    5.6339    2.9019    3.8403 H   0  0  0  0  0  0  0  0  0  0  0  0
    6.5293    2.3491    2.4361 H   0  0  0  0  0  0  0  0  0  0  0  0
    7.1869    3.6280    3.4368 H   0  0  0  0  0  0  0  0  0  0  0  0
    6.5553    3.7440    0.3238 H   0  0  0  0  0  0  0  0  0  0  0  0
    4.3791    0.8131    0.6150 H   0  0  0  0  0  0  0  0  0  0  0  0
    2.0606    3.0923   -0.3107 H   0  0  0  0  0  0  0  0  0  0  0  0
    2.3767    1.3797   -0.1637 H   0  0  0  0  0  0  0  0  0  0  0  0
    0.1692    4.6194    3.7282 H   0  0  0  0  0  0  0  0  0  0  0  0
    0.6260    2.9860    4.2295 H   0  0  0  0  0  0  0  0  0  0  0  0
    4.9021    4.9117    4.8822 H   0  0  0  0  0  0  0  0  0  0  0  0
    4.5054    6.5926    4.5994 H   0  0  0  0  0  0  0  0  0  0  0  0
    6.1062    7.5008    3.2160 H   0  0  0  0  0  0  0  0  0  0  0  0
    7.6982    5.6834   -0.0976 H   0  0  0  0  0  0  0  0  0  0  0  0
    1.7888    0.0878    1.9348 H   0  0  0  0  0  0  0  0  0  0  0  0
    1.1456    0.8855    3.3700 H   0  0  0  0  0  0  0  0  0  0  0  0
    2.8244    1.0674    2.9457 H   0  0  0  0  0  0  0  0  0  0  0  0
   -1.3065    3.9115    2.1083 H   0  0  0  0  0  0  0  0  0  0  0  0
   -1.3154    3.0858    0.0245 H   0  0  0  0  0  0  0  0  0  0  0  0
   -2.2788    3.0641    4.1009 H   0  0  0  0  0  0  0  0  0  0  0  0
   -1.4233    1.5235    3.9802 H   0  0  0  0  0  0  0  0  0  0  0  0
   -2.6672    1.9602    2.7809 H   0  0  0  0  0  0  0  0  0  0  0  0
   -0.1785    0.4924   -1.0135 H   0  0  0  0  0  0  0  0  0  0  0  0
   -1.8287    1.0996   -0.7853 H   0  0  0  0  0  0  0  0  0  0  0  0
   -2.3717   -0.8853    0.1365 H   0  0  0  0  0  0  0  0  0  0  0  0
  2  1  1  0  0  0  0 
  3  2  1  0  0  0  0 
  2  4  1  0  0  0  0 
  2  5  1  0  0  0  0 
  6  3  1  0  0  0  0 
  3  7  1  0  0  0  0 
  3 29  1  0  0  0  0 
  4  8  1  0  0  0  0 
  4  9  1  0  0  0  0 
  4 10  1  0  0  0  0 
  5 11  1  0  0  0  0 
  5 12  1  0  0  0  0 
 13  6  1  0  0  0  0 
  6 14  1  0  0  0  0 
  6 30  1  0  0  0  0 
  7 15  1  0  0  0  0 
  9 15  1  0  0  0  0 
  9 16  2  0  0  0  0 
 10 17  2  0  0  0  0 
 13 12  1  0  0  0  0 
 13 18  1  0  0  0  0 
 13 19  1  0  0  0  0 
 20 14  1  0  0  0  0 
 16 21  1  0  0  0  0 
 17 21  1  0  0  0  0 
 19 20  1  0  0  0  0 
 19 22  1  0  0  0  0 
 19 23  1  0  0  0  0 
 20 24  1  0  0  0  0 
 21 25  2  0  0  0  0 
 22 26  1  0  0  0  0 
 22 27  2  0  0  0  0 
 26 28  1  0  0  0  0 
  5 31  1  0  0  0  0 
  7 32  1  0  0  0  0 
  7 33  1  0  0  0  0 
  8 34  1  0  0  0  0 
  8 35  1  0  0  0  0 
  8 36  1  0  0  0  0 
 10 37  1  0  0  0  0 
 11 38  1  0  0  0  0 
 12 39  1  0  0  0  0 
 12 40  1  0  0  0  0 
 14 41  1  0  0  0  0 
 14 42  1  0  0  0  0 
 15 43  1  0  0  0  0 
 15 44  1  0  0  0  0 
 16 45  1  0  0  0  0 
 17 46  1  0  0  0  0 
 18 47  1  0  0  0  0 
 18 48  1  0  0  0  0 
 18 49  1  0  0  0  0 
 20 50  1  0  0  0  0 
 23 51  1  0  0  0  0 
 24 52  1  0  0  0  0 
 24 53  1  0  0  0  0 
 24 54  1  0  0  0  0 
 26 55  1  0  0  0  0 
 26 56  1  0  0  0  0 
 28 57  1  0  0  0  0 
M  END
> <cdk:Title>
betamethasone

> <Conformer>
1

> <SuperDrugID>
SD000293

$$$$
