iproheptine
  CDK     0628171801

 37 36  0  0  0  0  0  0  0  0999 V2000
   -1.2004    0.2623   -1.7649 C   0  0  2  0  0  0  0  0  0  0  0  0
   -1.8182   -0.5023   -2.9738 C   0  0  2  0  0  0  0  0  0  0  0  0
   -0.5934   -0.7290   -0.8321 N   0  0  2  0  0  0  0  0  0  0  0  0
   -2.2648    1.1671   -1.0821 C   0  0  0  0  0  0  0  0  0  0  0  0
   -0.7730   -1.2967   -3.8090 C   0  0  2  0  0  0  0  0  0  0  0  0
    0.1650   -0.2660    0.3597 C   0  0  2  0  0  0  0  0  0  0  0  0
   -1.3543   -1.8930   -5.1207 C   0  0  2  0  0  0  0  0  0  0  0  0
    1.3515    0.6738    0.0098 C   0  0  0  0  0  0  0  0  0  0  0  0
    0.6627   -1.5282    1.1058 C   0  0  0  0  0  0  0  0  0  0  0  0
   -0.3530   -2.7735   -5.9387 C   0  0  2  0  0  0  0  0  0  0  0  0
    0.8943   -1.9880   -6.4390 C   0  0  0  0  0  0  0  0  0  0  0  0
   -1.0874   -3.4486   -7.1309 C   0  0  0  0  0  0  0  0  0  0  0  0
   -0.4162    0.9152   -2.1574 H   0  0  0  0  0  0  0  0  0  0  0  0
   -2.3026    0.2236   -3.6342 H   0  0  0  0  0  0  0  0  0  0  0  0
   -2.5895   -1.1904   -2.6125 H   0  0  0  0  0  0  0  0  0  0  0  0
    0.0570   -1.2930   -1.3822 H   0  0  0  0  0  0  0  0  0  0  0  0
   -2.6975    1.8555   -1.8130 H   0  0  0  0  0  0  0  0  0  0  0  0
   -1.8130    1.7708   -0.2932 H   0  0  0  0  0  0  0  0  0  0  0  0
   -3.0677    0.5656   -0.6501 H   0  0  0  0  0  0  0  0  0  0  0  0
   -0.3778   -2.1150   -3.2024 H   0  0  0  0  0  0  0  0  0  0  0  0
    0.0498   -0.6225   -4.0574 H   0  0  0  0  0  0  0  0  0  0  0  0
   -0.5150    0.2617    1.0315 H   0  0  0  0  0  0  0  0  0  0  0  0
   -1.7167   -1.0759   -5.7514 H   0  0  0  0  0  0  0  0  0  0  0  0
   -2.2182   -2.5081   -4.8482 H   0  0  0  0  0  0  0  0  0  0  0  0
    1.9680    0.8617    0.8911 H   0  0  0  0  0  0  0  0  0  0  0  0
    0.9854    1.6363   -0.3476 H   0  0  0  0  0  0  0  0  0  0  0  0
    1.9771    0.2274   -0.7662 H   0  0  0  0  0  0  0  0  0  0  0  0
    1.1876   -1.2489    2.0223 H   0  0  0  0  0  0  0  0  0  0  0  0
   -0.1815   -2.1643    1.3793 H   0  0  0  0  0  0  0  0  0  0  0  0
    1.3437   -2.1063    0.4744 H   0  0  0  0  0  0  0  0  0  0  0  0
    0.0052   -3.5764   -5.2850 H   0  0  0  0  0  0  0  0  0  0  0  0
    1.5105   -1.6594   -5.6012 H   0  0  0  0  0  0  0  0  0  0  0  0
    1.5201   -2.6205   -7.0714 H   0  0  0  0  0  0  0  0  0  0  0  0
    0.5947   -1.1119   -7.0164 H   0  0  0  0  0  0  0  0  0  0  0  0
   -1.9262   -4.0479   -6.7703 H   0  0  0  0  0  0  0  0  0  0  0  0
   -0.4102   -4.1115   -7.6732 H   0  0  0  0  0  0  0  0  0  0  0  0
   -1.4691   -2.6945   -7.8231 H   0  0  0  0  0  0  0  0  0  0  0  0
  1  2  1  0  0  0  0 
  1  3  1  0  0  0  0 
  1  4  1  0  0  0  0 
  2  5  1  0  0  0  0 
  3  6  1  0  0  0  0 
  5  7  1  0  0  0  0 
  6  8  1  0  0  0  0 
  6  9  1  0  0  0  0 
  7 10  1  0  0  0  0 
 10 11  1  0  0  0  0 
 10 12  1  0  0  0  0 
  1 13  1  0  0  0  0 
  2 14  1  0  0  0  0 
  2 15  1  0  0  0  0 
  3 16  1  0  0  0  0 
  4 17  1  0  0  0  0 
  4 18  1  0  0  0  0 
  4 19  1  0  0  0  0 
  5 20  1  0  0  0  0 
  5 21  1  0  0  0  0 
  6 22  1  0  0  0  0 
  7 23  1  0  0  0  0 
  7 24  1  0  0  0  0 
  8 25  1  0  0  0  0 
  8 26  1  0  0  0  0 
  8 27  1  0  0  0  0 
  9 28  1  0  0  0  0 
  9 29  1  0  0  0  0 
  9 30  1  0  0  0  0 
 10 31  1  0  0  0  0 
 11 32  1  0  0  0  0 
 11 33  1  0  0  0  0 
 11 34  1  0  0  0  0 
 12 35  1  0  0  0  0 
 12 36  1  0  0  0  0 
 12 37  1  0  0  0  0 
M  END
> <cdk:Title>
iproheptine

> <Conformer>
1

> <SuperDrugID>
SD003227

$$$$
