valrubicin
  CDK     0628171801

 87 91  0  0  0  0  0  0  0  0999 V2000
    2.6641    6.9314    2.6934 O   0  0  0  0  0  0  0  0  0  0  0  0
    2.2327    7.8547    1.6464 C   0  0  2  0  0  0  0  0  0  0  0  0
    3.3435    5.7203    2.2597 C   0  0  1  0  0  0  0  0  0  0  0  0
    1.9708    9.2187    2.2310 C   0  0  0  0  0  0  0  0  0  0  0  0
    1.0165    7.2483    0.8809 C   0  0  2  0  0  0  0  0  0  0  0  0
    4.1291    5.0325    3.4150 C   0  0  1  0  0  0  0  0  0  0  0  0
    2.4599    4.7718    1.6161 O   0  0  0  0  0  0  0  0  0  0  0  0
    0.7415    9.8972    2.0124 C   0  0  0  0  0  0  0  0  0  0  0  0
    2.9847    9.8807    2.9720 C   0  0  0  0  0  0  0  0  0  0  0  0
    0.1963    8.2893    0.0828 C   0  0  1  0  0  0  0  0  0  0  0  0
    3.2478    4.1402    4.3386 C   0  0  2  0  0  0  0  0  0  0  0  0
    1.5092    4.1145    2.4818 C   0  0  2  0  0  0  0  0  0  0  0  0
    0.4858   11.1196    2.6715 C   0  0  0  0  0  0  0  0  0  0  0  0
   -0.3013    9.3621    1.0864 C   0  0  2  0  0  0  0  0  0  0  0  0
    4.1993    9.2705    3.0406 O   0  0  0  0  0  0  0  0  0  0  0  0
    2.7577   11.1425    3.5977 C   0  0  0  0  0  0  0  0  0  0  0  0
    1.0233    8.8992   -1.0697 C   0  0  0  0  0  0  0  0  0  0  0  0
   -0.9721    7.6385   -0.4341 O   0  0  0  0  0  0  0  0  0  0  0  0
    4.0912    3.2983    5.1419 N   0  0  0  0  0  0  0  0  0  0  0  0
    2.2851    3.2421    3.5063 C   0  0  1  0  0  0  0  0  0  0  0  0
    0.5222    3.2969    1.6142 C   0  0  0  0  0  0  0  0  0  0  0  0
   -0.7403   11.6886    2.4982 O   0  0  0  0  0  0  0  0  0  0  0  0
    1.4743   11.7481    3.4718 C   0  0  0  0  0  0  0  0  0  0  0  0
    3.7685   11.8259    4.3636 C   0  0  0  0  0  0  0  0  0  0  0  0
    0.9404    8.2833   -2.4156 C   0  0  2  0  0  0  0  0  0  0  0  0
    1.8261    9.8871   -0.9862 O   0  0  0  0  0  0  0  0  0  0  0  0
    3.8485    2.8795    6.4169 C   0  0  0  0  0  0  0  0  0  0  0  0
    3.0226    2.2176    2.8322 O   0  0  0  0  0  0  0  0  0  0  0  0
    1.2055   12.9826    4.1466 C   0  0  0  0  0  0  0  0  0  0  0  0
    4.8696   11.2647    4.5746 O   0  0  0  0  0  0  0  0  0  0  0  0
    3.5408   13.1279    4.9260 C   0  0  0  0  0  0  0  0  0  0  0  0
    1.2913    6.9047   -2.2921 O   0  0  0  0  0  0  0  0  0  0  0  0
    4.7465    1.9064    7.0785 C   0  0  2  0  0  0  0  0  0  0  0  0
    2.8455    3.2857    7.0519 O   0  0  0  0  0  0  0  0  0  0  0  0
    0.0418   13.4545    4.1700 O   0  0  0  0  0  0  0  0  0  0  0  0
    2.2378   13.6943    4.8216 C   0  0  0  0  0  0  0  0  0  0  0  0
    4.5561   13.8731    5.5987 C   0  0  0  0  0  0  0  0  0  0  0  0
    1.1939    5.9164   -3.2214 C   0  0  0  0  0  0  0  0  0  0  0  0
    5.2746    2.4554    8.2207 F   0  0  0  0  0  0  0  0  0  0  0  0
    5.7939    1.5039    6.2823 F   0  0  0  0  0  0  0  0  0  0  0  0
    4.0379    0.7798    7.4229 F   0  0  0  0  0  0  0  0  0  0  0  0
    1.9750   14.9627    5.3980 C   0  0  0  0  0  0  0  0  0  0  0  0
    5.8415   13.4138    5.7408 O   0  0  0  0  0  0  0  0  0  0  0  0
    4.2565   15.1204    6.1853 C   0  0  0  0  0  0  0  0  0  0  0  0
    1.6064    4.5554   -2.8241 C   0  0  2  0  0  0  0  0  0  0  0  0
    0.7411    6.1429   -4.3681 O   0  0  0  0  0  0  0  0  0  0  0  0
    2.9735   15.6682    6.0782 C   0  0  0  0  0  0  0  0  0  0  0  0
    6.7562   13.9569    4.7696 C   0  0  0  0  0  0  0  0  0  0  0  0
    3.1251    4.4687   -2.5124 C   0  0  2  0  0  0  0  0  0  0  0  0
    3.5668    3.0295   -2.1372 C   0  0  2  0  0  0  0  0  0  0  0  0
    5.0830    2.9119   -1.8651 C   0  0  0  0  0  0  0  0  0  0  0  0
    3.0433    8.0018    0.9236 H   0  0  0  0  0  0  0  0  0  0  0  0
    4.0935    6.0051    1.5163 H   0  0  0  0  0  0  0  0  0  0  0  0
    0.3501    6.7736    1.6064 H   0  0  0  0  0  0  0  0  0  0  0  0
    1.3647    6.4708    0.2009 H   0  0  0  0  0  0  0  0  0  0  0  0
    4.8999    4.4022    2.9626 H   0  0  0  0  0  0  0  0  0  0  0  0
    4.6381    5.7917    4.0138 H   0  0  0  0  0  0  0  0  0  0  0  0
    2.6512    4.8034    4.9755 H   0  0  0  0  0  0  0  0  0  0  0  0
    0.9162    4.8584    3.0253 H   0  0  0  0  0  0  0  0  0  0  0  0
   -0.7369   10.1742    0.4960 H   0  0  0  0  0  0  0  0  0  0  0  0
   -1.1025    8.9482    1.7068 H   0  0  0  0  0  0  0  0  0  0  0  0
    4.8460    9.9648    2.7951 H   0  0  0  0  0  0  0  0  0  0  0  0
   -1.4572    8.3346   -0.9296 H   0  0  0  0  0  0  0  0  0  0  0  0
    4.8911    2.9537    4.7135 H   0  0  0  0  0  0  0  0  0  0  0  0
    1.5743    2.7566    4.1816 H   0  0  0  0  0  0  0  0  0  0  0  0
   -0.1621    2.7308    2.2488 H   0  0  0  0  0  0  0  0  0  0  0  0
   -0.0665    3.9683    0.9891 H   0  0  0  0  0  0  0  0  0  0  0  0
    1.0567    2.6063    0.9606 H   0  0  0  0  0  0  0  0  0  0  0  0
   -1.3051   11.2769    3.1861 H   0  0  0  0  0  0  0  0  0  0  0  0
    1.6234    8.7546   -3.1293 H   0  0  0  0  0  0  0  0  0  0  0  0
   -0.0806    8.3831   -2.7922 H   0  0  0  0  0  0  0  0  0  0  0  0
    2.3428    1.6380    2.4297 H   0  0  0  0  0  0  0  0  0  0  0  0
    1.0485   15.3902    5.3341 H   0  0  0  0  0  0  0  0  0  0  0  0
    4.9777   15.6379    6.6912 H   0  0  0  0  0  0  0  0  0  0  0  0
    1.3602    3.8493   -3.6224 H   0  0  0  0  0  0  0  0  0  0  0  0
    1.0355    4.2720   -1.9346 H   0  0  0  0  0  0  0  0  0  0  0  0
    2.7639   16.5779    6.4935 H   0  0  0  0  0  0  0  0  0  0  0  0
    7.7435   13.5383    4.9668 H   0  0  0  0  0  0  0  0  0  0  0  0
    6.4675   13.6888    3.7496 H   0  0  0  0  0  0  0  0  0  0  0  0
    6.8286   15.0443    4.8522 H   0  0  0  0  0  0  0  0  0  0  0  0
    3.3631    5.1393   -1.6811 H   0  0  0  0  0  0  0  0  0  0  0  0
    3.6911    4.7997   -3.3880 H   0  0  0  0  0  0  0  0  0  0  0  0
    3.3105    2.3482   -2.9528 H   0  0  0  0  0  0  0  0  0  0  0  0
    3.0239    2.7096   -1.2435 H   0  0  0  0  0  0  0  0  0  0  0  0
    5.3293    1.8820   -1.5999 H   0  0  0  0  0  0  0  0  0  0  0  0
    5.3743    3.5640   -1.0396 H   0  0  0  0  0  0  0  0  0  0  0  0
    5.6549    3.1853   -2.7544 H   0  0  0  0  0  0  0  0  0  0  0  0
  3  1  1  0  0  0  0 
  2  1  1  0  0  0  0 
  2  4  1  0  0  0  0 
  2  5  1  0  0  0  0 
  3  6  1  0  0  0  0 
  3  7  1  0  0  0  0 
  4  8  2  0  0  0  0 
  4  9  1  0  0  0  0 
 10  5  1  0  0  0  0 
 11  6  1  0  0  0  0 
 12  7  1  0  0  0  0 
  8 13  1  0  0  0  0 
  8 14  1  0  0  0  0 
  9 15  1  0  0  0  0 
  9 16  2  0  0  0  0 
 10 14  1  0  0  0  0 
 10 17  1  0  0  0  0 
 10 18  1  0  0  0  0 
 11 19  1  0  0  0  0 
 20 11  1  0  0  0  0 
 20 12  1  0  0  0  0 
 12 21  1  0  0  0  0 
 13 22  1  0  0  0  0 
 13 23  2  0  0  0  0 
 16 23  1  0  0  0  0 
 16 24  1  0  0  0  0 
 17 25  1  0  0  0  0 
 17 26  2  0  0  0  0 
 19 27  1  0  0  0  0 
 20 28  1  0  0  0  0 
 23 29  1  0  0  0  0 
 24 30  2  0  0  0  0 
 24 31  1  0  0  0  0 
 25 32  1  0  0  0  0 
 27 33  1  0  0  0  0 
 27 34  2  0  0  0  0 
 29 35  2  0  0  0  0 
 29 36  1  0  0  0  0 
 31 36  2  0  0  0  0 
 31 37  1  0  0  0  0 
 32 38  1  0  0  0  0 
 33 39  1  0  0  0  0 
 33 40  1  0  0  0  0 
 33 41  1  0  0  0  0 
 36 42  1  0  0  0  0 
 37 43  1  0  0  0  0 
 37 44  2  0  0  0  0 
 38 45  1  0  0  0  0 
 38 46  2  0  0  0  0 
 42 47  2  0  0  0  0 
 43 48  1  0  0  0  0 
 44 47  1  0  0  0  0 
 45 49  1  0  0  0  0 
 49 50  1  0  0  0  0 
 50 51  1  0  0  0  0 
  2 52  1  0  0  0  0 
  3 53  1  0  0  0  0 
 54  5  1  0  0  0  0 
 55  5  1  0  0  0  0 
 56  6  1  0  0  0  0 
 57  6  1  0  0  0  0 
 11 58  1  0  0  0  0 
 12 59  1  0  0  0  0 
 60 14  1  0  0  0  0 
 61 14  1  0  0  0  0 
 62 15  1  0  0  0  0 
 63 18  1  0  0  0  0 
 64 19  1  0  0  0  0 
 20 65  1  0  0  0  0 
 66 21  1  0  0  0  0 
 67 21  1  0  0  0  0 
 68 21  1  0  0  0  0 
 69 22  1  0  0  0  0 
 70 25  1  0  0  0  0 
 71 25  1  0  0  0  0 
 72 28  1  0  0  0  0 
 73 42  1  0  0  0  0 
 74 44  1  0  0  0  0 
 75 45  1  0  0  0  0 
 76 45  1  0  0  0  0 
 77 47  1  0  0  0  0 
 78 48  1  0  0  0  0 
 79 48  1  0  0  0  0 
 80 48  1  0  0  0  0 
 81 49  1  0  0  0  0 
 82 49  1  0  0  0  0 
 83 50  1  0  0  0  0 
 84 50  1  0  0  0  0 
 85 51  1  0  0  0  0 
 86 51  1  0  0  0  0 
 87 51  1  0  0  0  0 
M  END
> <cdk:Title>
valrubicin

> <Conformer>
1

> <SuperDrugID>
SD002530

$$$$
