metformin
  CDK     0628171801

 20 19  0  0  0  0  0  0  0  0999 V2000
   -1.5419   -3.3339    1.8350 C   0  0  0  0  0  0  0  0  0  0  0  0
   -1.4704   -2.3475    0.7785 N   0  0  0  0  0  0  0  0  0  0  0  0
   -2.7087   -1.9959    0.1199 C   0  0  0  0  0  0  0  0  0  0  0  0
   -0.2972   -1.7790    0.4155 C   0  0  0  0  0  0  0  0  0  0  0  0
    0.7492   -2.5129    0.3142 N   0  0  0  0  0  0  0  0  0  0  0  0
   -0.2619   -0.5013    0.1464 N   0  0  0  0  0  0  0  0  0  0  0  0
    0.6894    0.3458   -0.0353 C   0  0  0  0  0  0  0  0  0  0  0  0
    0.3519    1.5827   -0.3201 N   0  0  0  0  0  0  0  0  0  0  0  0
    1.9757    0.0685    0.0439 N   0  0  0  0  0  0  0  0  0  0  0  0
   -0.5884   -3.4888    2.3477 H   0  0  0  0  0  0  0  0  0  0  0  0
   -2.2653   -3.0223    2.5915 H   0  0  0  0  0  0  0  0  0  0  0  0
   -1.8655   -4.2940    1.4287 H   0  0  0  0  0  0  0  0  0  0  0  0
   -3.4067   -1.5651    0.8409 H   0  0  0  0  0  0  0  0  0  0  0  0
   -2.5750   -1.2740   -0.6902 H   0  0  0  0  0  0  0  0  0  0  0  0
   -3.1659   -2.8882   -0.3126 H   0  0  0  0  0  0  0  0  0  0  0  0
    0.7046   -3.4278    0.4944 H   0  0  0  0  0  0  0  0  0  0  0  0
    1.0390    2.2540   -0.4645 H   0  0  0  0  0  0  0  0  0  0  0  0
   -0.5849    1.8254   -0.3930 H   0  0  0  0  0  0  0  0  0  0  0  0
    2.2722   -0.8255    0.2728 H   0  0  0  0  0  0  0  0  0  0  0  0
    2.6328    0.7604   -0.1312 H   0  0  0  0  0  0  0  0  0  0  0  0
  1  2  1  0  0  0  0 
  2  3  1  0  0  0  0 
  2  4  1  0  0  0  0 
  4  5  2  0  0  0  0 
  4  6  1  0  0  0  0 
  6  7  2  0  0  0  0 
  7  8  1  0  0  0  0 
  7  9  1  0  0  0  0 
 10  1  1  0  0  0  0 
 11  1  1  0  0  0  0 
 12  1  1  0  0  0  0 
 13  3  1  0  0  0  0 
 14  3  1  0  0  0  0 
 15  3  1  0  0  0  0 
 16  5  1  0  0  0  0 
 17  8  1  0  0  0  0 
 18  8  1  0  0  0  0 
 19  9  1  0  0  0  0 
 20  9  1  0  0  0  0 
M  END
> <cdk:Title>
metformin

> <Conformer>
1

> <SuperDrugID>
SD001526

$$$$
