bunitrolol
  CDK     0628171801

 38 38  0  0  0  0  0  0  0  0999 V2000
   -4.0028   -0.2717    2.5640 O   0  0  0  0  0  0  0  0  0  0  0  0
   -4.4290   -0.4814    1.1995 C   0  0  1  0  0  0  0  0  0  0  0  0
   -3.9749    1.0580    2.9139 C   0  0  0  0  0  0  0  0  0  0  0  0
   -4.3654   -1.9904    0.8443 C   0  0  2  0  0  0  0  0  0  0  0  0
   -2.8095    1.8494    2.7461 C   0  0  0  0  0  0  0  0  0  0  0  0
   -5.1368    1.6405    3.4645 C   0  0  0  0  0  0  0  0  0  0  0  0
   -4.8448   -2.2985   -0.5988 C   0  0  1  0  0  0  0  0  0  0  0  0
   -5.1848   -2.7344    1.7452 O   0  0  0  0  0  0  0  0  0  0  0  0
   -1.7057    1.3273    2.2896 C   0  0  0  0  0  0  0  0  0  0  0  0
   -2.8427    3.2229    3.0760 C   0  0  0  0  0  0  0  0  0  0  0  0
   -5.1627    3.0092    3.7904 C   0  0  0  0  0  0  0  0  0  0  0  0
   -4.0303   -1.5654   -1.6018 N   0  0  2  0  0  0  0  0  0  0  0  0
   -0.7316    0.8671    1.8907 N   0  0  0  0  0  0  0  0  0  0  0  0
   -4.0194    3.8011    3.5838 C   0  0  0  0  0  0  0  0  0  0  0  0
   -4.3809   -1.6434   -3.0548 C   0  0  2  0  0  0  0  0  0  0  0  0
   -5.7812   -1.0167   -3.3441 C   0  0  0  0  0  0  0  0  0  0  0  0
   -4.3276   -3.1086   -3.5882 C   0  0  0  0  0  0  0  0  0  0  0  0
   -3.2886   -0.7957   -3.7781 C   0  0  0  0  0  0  0  0  0  0  0  0
   -5.4567   -0.1289    1.0626 H   0  0  0  0  0  0  0  0  0  0  0  0
   -3.7759    0.0659    0.5114 H   0  0  0  0  0  0  0  0  0  0  0  0
   -3.3339   -2.3390    0.9562 H   0  0  0  0  0  0  0  0  0  0  0  0
   -5.9690    1.0695    3.6248 H   0  0  0  0  0  0  0  0  0  0  0  0
   -4.7599   -3.3730   -0.7712 H   0  0  0  0  0  0  0  0  0  0  0  0
   -5.8949   -2.0214   -0.6850 H   0  0  0  0  0  0  0  0  0  0  0  0
   -4.8238   -2.5504    2.6370 H   0  0  0  0  0  0  0  0  0  0  0  0
   -2.0185    3.8182    2.9475 H   0  0  0  0  0  0  0  0  0  0  0  0
   -6.0124    3.4278    4.1746 H   0  0  0  0  0  0  0  0  0  0  0  0
   -3.0690   -1.9026   -1.5015 H   0  0  0  0  0  0  0  0  0  0  0  0
   -4.0435    4.7975    3.8057 H   0  0  0  0  0  0  0  0  0  0  0  0
   -5.8475   -0.0132   -2.9176 H   0  0  0  0  0  0  0  0  0  0  0  0
   -6.5790   -1.6251   -2.9159 H   0  0  0  0  0  0  0  0  0  0  0  0
   -5.9583   -0.9472   -4.4207 H   0  0  0  0  0  0  0  0  0  0  0  0
   -5.1302   -3.7084   -3.1575 H   0  0  0  0  0  0  0  0  0  0  0  0
   -4.4409   -3.1300   -4.6750 H   0  0  0  0  0  0  0  0  0  0  0  0
   -3.3750   -3.5756   -3.3309 H   0  0  0  0  0  0  0  0  0  0  0  0
   -3.4499   -0.7877   -4.8589 H   0  0  0  0  0  0  0  0  0  0  0  0
   -3.3055    0.2380   -3.4243 H   0  0  0  0  0  0  0  0  0  0  0  0
   -2.2930   -1.2032   -3.5861 H   0  0  0  0  0  0  0  0  0  0  0  0
  1  2  1  0  0  0  0 
  1  3  1  0  0  0  0 
  4  2  1  0  0  0  0 
  3  5  2  0  0  0  0 
  3  6  1  0  0  0  0 
  4  7  1  0  0  0  0 
  4  8  1  0  0  0  0 
  5  9  1  0  0  0  0 
  5 10  1  0  0  0  0 
  6 11  2  0  0  0  0 
  7 12  1  0  0  0  0 
  9 13  3  0  0  0  0 
 10 14  2  0  0  0  0 
 11 14  1  0  0  0  0 
 12 15  1  0  0  0  0 
 15 16  1  0  0  0  0 
 15 17  1  0  0  0  0 
 15 18  1  0  0  0  0 
  2 19  1  0  0  0  0 
  2 20  1  0  0  0  0 
  4 21  1  0  0  0  0 
  6 22  1  0  0  0  0 
  7 23  1  0  0  0  0 
  7 24  1  0  0  0  0 
  8 25  1  0  0  0  0 
 10 26  1  0  0  0  0 
 11 27  1  0  0  0  0 
 12 28  1  0  0  0  0 
 14 29  1  0  0  0  0 
 16 30  1  0  0  0  0 
 16 31  1  0  0  0  0 
 16 32  1  0  0  0  0 
 17 33  1  0  0  0  0 
 17 34  1  0  0  0  0 
 17 35  1  0  0  0  0 
 18 36  1  0  0  0  0 
 18 37  1  0  0  0  0 
 18 38  1  0  0  0  0 
M  END
> <cdk:Title>
bunitrolol

> <Conformer>
1

> <SuperDrugID>
SD000372

$$$$
