piperacillin
  CDK     0628171801

 63 66  0  0  0  0  0  0  0  0999 V2000
   -6.7237   -0.8115    0.7154 N   0  0  0  0  0  0  0  0  0  0  0  0
   -6.0793    0.2063    1.3512 C   0  0  0  0  0  0  0  0  0  0  0  0
   -7.0145   -2.0939    1.2625 C   0  0  1  0  0  0  0  0  0  0  0  0
   -5.7949    1.4666    0.6201 C   0  0  2  0  0  0  0  0  0  0  0  0
   -5.7146    0.0943    2.5460 O   0  0  0  0  0  0  0  0  0  0  0  0
   -8.1875   -2.8538    0.5603 C   0  0  2  0  0  0  0  0  0  0  0  0
   -6.1724   -3.1534    0.7117 C   0  0  0  0  0  0  0  0  0  0  0  0
   -6.9918    1.9124   -0.0317 N   0  0  0  0  0  0  0  0  0  0  0  0
   -4.6443    1.2791   -0.3188 C   0  0  0  0  0  0  0  0  0  0  0  0
   -7.1975   -3.7454    0.1035 N   0  0  0  0  0  0  0  0  0  0  0  0
   -8.8184   -2.4742   -1.1071 S   0  0  0  0  0  0  0  0  0  0  0  0
   -4.9392   -3.3644    0.7223 O   0  0  0  0  0  0  0  0  0  0  0  0
   -7.1477    3.0340   -0.8012 C   0  0  0  0  0  0  0  0  0  0  0  0
   -4.7345    0.4079   -1.4324 C   0  0  0  0  0  0  0  0  0  0  0  0
   -3.4316    1.9845   -0.1207 C   0  0  0  0  0  0  0  0  0  0  0  0
   -7.3406   -4.7095   -0.9375 C   0  0  2  0  0  0  0  0  0  0  0  0
   -8.4809   -4.1199   -1.8632 C   0  0  1  0  0  0  0  0  0  0  0  0
   -6.1381    3.7682   -0.9413 O   0  0  0  0  0  0  0  0  0  0  0  0
   -8.3544    3.3859   -1.4096 N   0  0  0  0  0  0  0  0  0  0  0  0
   -3.6424    0.2224   -2.2977 C   0  0  0  0  0  0  0  0  0  0  0  0
   -2.3436    1.8155   -0.9952 C   0  0  0  0  0  0  0  0  0  0  0  0
   -7.5565   -6.0690   -0.3866 C   0  0  0  0  0  0  0  0  0  0  0  0
   -9.4558    2.5355   -1.4773 C   0  0  0  0  0  0  0  0  0  0  0  0
   -8.4663    4.6757   -2.0762 C   0  0  1  0  0  0  0  0  0  0  0  0
   -2.4476    0.9289   -2.0801 C   0  0  0  0  0  0  0  0  0  0  0  0
   -7.2263   -7.1561   -1.1199 O   0  0  0  0  0  0  0  0  0  0  0  0
   -8.0558   -6.2544    0.7470 O   0  0  0  0  0  0  0  0  0  0  0  0
   -9.3988    1.3340   -1.1187 O   0  0  0  0  0  0  0  0  0  0  0  0
  -10.7130    2.9770   -1.9718 C   0  0  0  0  0  0  0  0  0  0  0  0
   -9.8958    5.2812   -2.0634 C   0  0  1  0  0  0  0  0  0  0  0  0
  -11.6208    2.1242   -2.1399 O   0  0  0  0  0  0  0  0  0  0  0  0
  -10.9526    4.3119   -2.2366 N   0  0  0  0  0  0  0  0  0  0  0  0
  -12.2643    4.7808   -2.6474 C   0  0  2  0  0  0  0  0  0  0  0  0
  -12.5016    4.6372   -4.1667 C   0  0  0  0  0  0  0  0  0  0  0  0
   -8.9046   -3.3478    1.2234 H   0  0  0  0  0  0  0  0  0  0  0  0
   -9.8218   -4.9178   -1.8544 C   0  0  0  0  0  0  0  0  0  0  0  0
   -8.0116   -3.9073   -3.3335 C   0  0  0  0  0  0  0  0  0  0  0  0
   -7.0016   -0.6539   -0.1992 H   0  0  0  0  0  0  0  0  0  0  0  0
   -7.0634   -2.1396    2.3537 H   0  0  0  0  0  0  0  0  0  0  0  0
   -5.5500    2.2355    1.3601 H   0  0  0  0  0  0  0  0  0  0  0  0
   -7.7740    1.3661    0.1152 H   0  0  0  0  0  0  0  0  0  0  0  0
   -5.5975   -0.1004   -1.6262 H   0  0  0  0  0  0  0  0  0  0  0  0
   -3.3262    2.6326    0.6626 H   0  0  0  0  0  0  0  0  0  0  0  0
   -6.3901   -4.7393   -1.4782 H   0  0  0  0  0  0  0  0  0  0  0  0
   -3.7188   -0.4254   -3.0847 H   0  0  0  0  0  0  0  0  0  0  0  0
   -1.4768    2.3364   -0.8421 H   0  0  0  0  0  0  0  0  0  0  0  0
   -7.8047    5.4304   -1.6359 H   0  0  0  0  0  0  0  0  0  0  0  0
   -8.1568    4.5374   -3.1166 H   0  0  0  0  0  0  0  0  0  0  0  0
   -1.6553    0.7986   -2.7111 H   0  0  0  0  0  0  0  0  0  0  0  0
   -7.3758   -8.0562   -0.7609 H   0  0  0  0  0  0  0  0  0  0  0  0
  -10.0600    5.7872   -1.1083 H   0  0  0  0  0  0  0  0  0  0  0  0
   -9.9394    6.0392   -2.8526 H   0  0  0  0  0  0  0  0  0  0  0  0
  -12.4047    5.8339   -2.3813 H   0  0  0  0  0  0  0  0  0  0  0  0
  -13.0455    4.2324   -2.1140 H   0  0  0  0  0  0  0  0  0  0  0  0
  -13.5081    4.9807   -4.4143 H   0  0  0  0  0  0  0  0  0  0  0  0
  -11.7799    5.2418   -4.7196 H   0  0  0  0  0  0  0  0  0  0  0  0
  -12.4060    3.5948   -4.4758 H   0  0  0  0  0  0  0  0  0  0  0  0
  -10.1952   -5.0456   -0.8363 H   0  0  0  0  0  0  0  0  0  0  0  0
   -9.6779   -5.9057   -2.2952 H   0  0  0  0  0  0  0  0  0  0  0  0
  -10.5885   -4.3967   -2.4332 H   0  0  0  0  0  0  0  0  0  0  0  0
   -7.1259   -3.2687   -3.3671 H   0  0  0  0  0  0  0  0  0  0  0  0
   -7.7631   -4.8671   -3.7925 H   0  0  0  0  0  0  0  0  0  0  0  0
   -8.7965   -3.4336   -3.9297 H   0  0  0  0  0  0  0  0  0  0  0  0
  1  2  1  0  0  0  0 
  4  2  1  0  0  0  0 
  2  5  2  0  0  0  0 
  3  1  1  0  0  0  0 
  6  3  1  0  0  0  0 
  3  7  1  0  0  0  0 
  4  8  1  0  0  0  0 
  4  9  1  0  0  0  0 
  6 10  1  0  0  0  0 
  6 11  1  0  0  0  0 
  6 35  1  0  0  0  0 
  7 10  1  0  0  0  0 
  7 12  2  0  0  0  0 
  8 13  1  0  0  0  0 
  9 14  2  0  0  0  0 
  9 15  1  0  0  0  0 
 16 10  1  0  0  0  0 
 11 17  1  0  0  0  0 
 13 18  2  0  0  0  0 
 13 19  1  0  0  0  0 
 14 20  1  0  0  0  0 
 15 21  2  0  0  0  0 
 16 17  1  0  0  0  0 
 16 22  1  0  0  0  0 
 19 23  1  0  0  0  0 
 19 24  1  0  0  0  0 
 20 25  2  0  0  0  0 
 21 25  1  0  0  0  0 
 22 26  1  0  0  0  0 
 22 27  2  0  0  0  0 
 23 28  2  0  0  0  0 
 23 29  1  0  0  0  0 
 24 30  1  0  0  0  0 
 29 31  2  0  0  0  0 
 29 32  1  0  0  0  0 
 30 32  1  0  0  0  0 
 32 33  1  0  0  0  0 
 33 34  1  0  0  0  0 
 17 36  1  0  0  0  0 
 17 37  1  0  0  0  0 
  1 38  1  0  0  0  0 
  3 39  1  0  0  0  0 
  4 40  1  0  0  0  0 
  8 41  1  0  0  0  0 
 14 42  1  0  0  0  0 
 15 43  1  0  0  0  0 
 16 44  1  0  0  0  0 
 20 45  1  0  0  0  0 
 21 46  1  0  0  0  0 
 24 47  1  0  0  0  0 
 24 48  1  0  0  0  0 
 25 49  1  0  0  0  0 
 26 50  1  0  0  0  0 
 30 51  1  0  0  0  0 
 30 52  1  0  0  0  0 
 33 53  1  0  0  0  0 
 33 54  1  0  0  0  0 
 34 55  1  0  0  0  0 
 34 56  1  0  0  0  0 
 34 57  1  0  0  0  0 
 36 58  1  0  0  0  0 
 36 59  1  0  0  0  0 
 36 60  1  0  0  0  0 
 37 61  1  0  0  0  0 
 37 62  1  0  0  0  0 
 37 63  1  0  0  0  0 
M  END
> <cdk:Title>
piperacillin

> <Conformer>
1

> <SuperDrugID>
SD001962

$$$$
