perflexane
  CDK     0628171801

 20 19  0  0  0  0  0  0  0  0999 V2000
  -14.2238   20.8536  -15.4765 C   0  0  2  0  0  0  0  0  0  0  0  0
  -13.9977   19.5637  -16.3568 C   0  0  1  0  0  0  0  0  0  0  0  0
  -15.3430   21.8651  -15.9272 C   0  0  2  0  0  0  0  0  0  0  0  0
  -13.0293   21.5326  -15.3508 F   0  0  0  0  0  0  0  0  0  0  0  0
  -14.5180   20.4128  -14.2016 F   0  0  0  0  0  0  0  0  0  0  0  0
  -13.6043   19.7579  -17.8675 C   0  0  1  0  0  0  0  0  0  0  0  0
  -13.0074   18.8300  -15.7365 F   0  0  0  0  0  0  0  0  0  0  0  0
  -15.1215   18.7661  -16.2868 F   0  0  0  0  0  0  0  0  0  0  0  0
  -15.6597   23.0117  -14.9105 C   0  0  2  0  0  0  0  0  0  0  0  0
  -16.5145   21.1841  -16.1818 F   0  0  0  0  0  0  0  0  0  0  0  0
  -14.9725   22.4738  -17.1073 F   0  0  0  0  0  0  0  0  0  0  0  0
  -13.1072   18.4678  -18.5992 C   0  0  2  0  0  0  0  0  0  0  0  0
  -14.6910   20.2286  -18.5746 F   0  0  0  0  0  0  0  0  0  0  0  0
  -12.6143   20.7090  -17.9840 F   0  0  0  0  0  0  0  0  0  0  0  0
  -16.6568   23.8305  -15.3914 F   0  0  0  0  0  0  0  0  0  0  0  0
  -14.5613   23.8070  -14.6803 F   0  0  0  0  0  0  0  0  0  0  0  0
  -16.1000   22.5382  -13.6967 F   0  0  0  0  0  0  0  0  0  0  0  0
  -12.8746   18.7127  -19.9334 F   0  0  0  0  0  0  0  0  0  0  0  0
  -14.0350   17.4564  -18.5305 F   0  0  0  0  0  0  0  0  0  0  0  0
  -11.9237   17.9932  -18.0838 F   0  0  0  0  0  0  0  0  0  0  0  0
  1  2  1  0  0  0  0 
  1  3  1  0  0  0  0 
  1  4  1  0  0  0  0 
  1  5  1  0  0  0  0 
  2  6  1  0  0  0  0 
  2  7  1  0  0  0  0 
  2  8  1  0  0  0  0 
  3  9  1  0  0  0  0 
  3 10  1  0  0  0  0 
  3 11  1  0  0  0  0 
  6 12  1  0  0  0  0 
  6 13  1  0  0  0  0 
  6 14  1  0  0  0  0 
  9 15  1  0  0  0  0 
  9 16  1  0  0  0  0 
  9 17  1  0  0  0  0 
 12 18  1  0  0  0  0 
 12 19  1  0  0  0  0 
 12 20  1  0  0  0  0 
M  END
> <cdk:Title>
perflexane

> <Conformer>
1

> <SuperDrugID>
SD002954

$$$$
