caspofungin
  CDK     0628171801

165168  0  0  0  0  0  0  0  0999 V2000
    6.8397  -14.6421   21.2237 C   0  0  2  0  0  0  0  0  0  0  0  0
    8.2556  -14.0558   21.0319 C   0  0  1  0  0  0  0  0  0  0  0  0
    8.0117  -12.5734   20.6540 C   0  0  1  0  0  0  0  0  0  0  0  0
    6.4862  -12.4964   20.3555 C   0  0  2  0  0  0  0  0  0  0  0  0
    6.0300  -13.4662   21.3255 N   0  0  0  0  0  0  0  0  0  0  0  0
    5.1031  -13.1745   22.3179 C   0  0  0  0  0  0  0  0  0  0  0  0
    4.3546  -12.1831   22.1308 O   0  0  0  0  0  0  0  0  0  0  0  0
    4.9280  -13.8610   23.6416 C   0  0  1  0  0  0  0  0  0  0  0  0
    4.4205  -15.2098   23.5679 N   0  0  0  0  0  0  0  0  0  0  0  0
    6.1959  -13.8590   24.5632 C   0  0  1  0  0  0  0  0  0  0  0  0
    6.7188  -12.4411   24.9455 C   0  0  1  0  0  0  0  0  0  0  0  0
    8.0848  -12.4524   25.7376 C   0  0  2  0  0  0  0  0  0  0  0  0
    8.7161  -11.1507   26.1138 N   0  0  1  0  0  0  0  0  0  0  0  0
    5.8816  -14.5633   25.7696 O   0  0  0  0  0  0  0  0  0  0  0  0
    7.0052  -14.4082   24.0839 H   0  0  0  0  0  0  0  0  0  0  0  0
    3.1310  -15.5632   23.8697 C   0  0  0  0  0  0  0  0  0  0  0  0
    2.7688  -16.8854   24.4580 C   0  0  1  0  0  0  0  0  0  0  0  0
    1.5906  -17.5270   23.9406 N   0  0  0  0  0  0  0  0  0  0  0  0
    3.9467  -17.8185   24.9191 C   0  0  1  0  0  0  0  0  0  0  0  0
    3.6528  -18.8766   26.0482 C   0  0  2  0  0  0  0  0  0  0  0  0
    3.4634  -20.2912   25.5991 C   0  0  0  0  0  0  0  0  0  0  0  0
    4.6113  -18.4363   23.8231 O   0  0  0  0  0  0  0  0  0  0  0  0
    4.6958  -17.1492   25.3548 H   0  0  0  0  0  0  0  0  0  0  0  0
    4.5131  -18.8533   26.7276 H   0  0  0  0  0  0  0  0  0  0  0  0
    2.5563  -18.5131   26.8867 O   0  0  0  0  0  0  0  0  0  0  0  0
    4.4743  -21.2624   25.8157 C   0  0  0  0  0  0  0  0  0  0  0  0
    4.2855  -22.6028   25.4271 C   0  0  0  0  0  0  0  0  0  0  0  0
    3.0830  -23.0001   24.8165 C   0  0  0  0  0  0  0  0  0  0  0  0
    2.0770  -22.0444   24.5819 C   0  0  0  0  0  0  0  0  0  0  0  0
    2.2634  -20.7060   24.9766 C   0  0  0  0  0  0  0  0  0  0  0  0
    1.1781  -17.9487   22.7048 C   0  0  0  0  0  0  0  0  0  0  0  0
    1.8770  -18.0208   21.3889 C   0  0  1  0  0  0  0  0  0  0  0  0
    2.7182  -16.9263   20.9812 N   0  0  0  0  0  0  0  0  0  0  0  0
    4.0634  -17.3706   20.7302 C   0  0  2  0  0  0  0  0  0  0  0  0
    4.0211  -18.9067   20.6085 C   0  0  1  0  0  0  0  0  0  0  0  0
    2.7415  -19.3110   21.3507 C   0  0  1  0  0  0  0  0  0  0  0  0
    2.3492  -15.6044   20.7176 C   0  0  0  0  0  0  0  0  0  0  0  0
    3.2806  -14.7721   20.5932 O   0  0  0  0  0  0  0  0  0  0  0  0
    0.9872  -15.0480   20.4205 C   0  0  1  0  0  0  0  0  0  0  0  0
    0.5928  -15.6659   19.1879 N   0  0  0  0  0  0  0  0  0  0  0  0
    0.3728  -15.0981   17.9630 C   0  0  0  0  0  0  0  0  0  0  0  0
   -0.1036  -15.1348   21.5455 C   0  0  1  0  0  0  0  0  0  0  0  0
    1.1145  -13.9831   20.2350 H   0  0  0  0  0  0  0  0  0  0  0  0
   -0.6392  -13.7594   22.0198 C   0  0  0  0  0  0  0  0  0  0  0  0
    0.3132  -15.5855   22.4348 H   0  0  0  0  0  0  0  0  0  0  0  0
   -1.2135  -15.9430   21.1518 O   0  0  0  0  0  0  0  0  0  0  0  0
    0.3829  -13.6481   17.5850 C   0  0  2  0  0  0  0  0  0  0  0  0
    0.1196  -15.9310   17.0620 O   0  0  0  0  0  0  0  0  0  0  0  0
    1.7556  -12.9040   17.7027 C   0  0  2  0  0  0  0  0  0  0  0  0
    2.9897  -13.6851   17.1518 C   0  0  2  0  0  0  0  0  0  0  0  0
    4.3357  -12.8939   17.1793 C   0  0  2  0  0  0  0  0  0  0  0  0
    4.8002  -12.7239   18.5335 N   0  0  0  0  0  0  0  0  0  0  0  0
    6.1024  -12.8064   18.9411 C   0  0  0  0  0  0  0  0  0  0  0  0
    6.9910  -13.1136   18.1101 O   0  0  0  0  0  0  0  0  0  0  0  0
   -0.0002  -18.3764   22.7164 O   0  0  0  0  0  0  0  0  0  0  0  0
    2.9077  -24.3006   24.4699 O   0  0  0  0  0  0  0  0  0  0  0  0
    0.1327  -13.5801   16.5179 H   0  0  0  0  0  0  0  0  0  0  0  0
   -0.6506  -12.9436   18.2940 N   0  0  0  0  0  0  0  0  0  0  0  0
   -1.9902  -13.0378   18.0270 C   0  0  0  0  0  0  0  0  0  0  0  0
   -2.4142  -13.7677   17.0978 O   0  0  0  0  0  0  0  0  0  0  0  0
   -2.9776  -12.2877   18.8381 C   0  0  1  0  0  0  0  0  0  0  0  0
   -2.7687  -10.7498   18.7861 C   0  0  1  0  0  0  0  0  0  0  0  0
   -3.9264   -9.9727   19.4711 C   0  0  2  0  0  0  0  0  0  0  0  0
   -3.6914   -8.4389   19.5091 C   0  0  2  0  0  0  0  0  0  0  0  0
   -4.9315   -7.6527   20.0160 C   0  0  1  0  0  0  0  0  0  0  0  0
   -4.6641   -6.1274   20.1413 C   0  0  1  0  0  0  0  0  0  0  0  0
   -5.9548   -5.3054   20.4080 C   0  0  1  0  0  0  0  0  0  0  0  0
   -5.6772   -3.7814   20.5570 C   0  0  1  0  0  0  0  0  0  0  0  0
   -6.9523   -2.8804   20.7154 C   0  0  2  0  0  0  0  0  0  0  0  0
   -7.7629   -2.7660   19.3734 C   0  0  2  0  0  0  0  0  0  0  0  0
   -9.0575   -1.8779   19.3421 C   0  0  2  0  0  0  0  0  0  0  0  0
  -10.1478   -2.3834   20.3447 C   0  0  2  0  0  0  0  0  0  0  0  0
  -11.4204   -1.5085   20.4525 C   0  0  0  0  0  0  0  0  0  0  0  0
    6.1443  -11.4775   20.5665 H   0  0  0  0  0  0  0  0  0  0  0  0
    8.6232  -12.2703   19.7997 H   0  0  0  0  0  0  0  0  0  0  0  0
    8.3611  -11.7187   21.7438 O   0  0  0  0  0  0  0  0  0  0  0  0
    5.0626  -13.4924   16.6194 H   0  0  0  0  0  0  0  0  0  0  0  0
    4.2863  -11.5369   16.5682 N   0  0  1  0  0  0  0  0  0  0  0  0
    4.2164  -11.4437   15.0891 C   0  0  2  0  0  0  0  0  0  0  0  0
    4.3119   -9.9705   14.6348 C   0  0  2  0  0  0  0  0  0  0  0  0
    4.2394   -9.8585   13.1716 N   0  0  1  0  0  0  0  0  0  0  0  0
    4.9031  -19.3653   21.0652 H   0  0  0  0  0  0  0  0  0  0  0  0
    3.9475  -19.3272   19.2456 O   0  0  0  0  0  0  0  0  0  0  0  0
    4.2042  -13.2647   24.2141 H   0  0  0  0  0  0  0  0  0  0  0  0
    2.2289  -14.6928   23.8066 O   0  0  0  0  0  0  0  0  0  0  0  0
    2.3798  -16.5306   25.4160 H   0  0  0  0  0  0  0  0  0  0  0  0
    3.1314  -14.5905   17.7512 H   0  0  0  0  0  0  0  0  0  0  0  0
    2.7419  -14.1251   15.8169 O   0  0  0  0  0  0  0  0  0  0  0  0
    1.1258  -18.1291   20.5968 H   0  0  0  0  0  0  0  0  0  0  0  0
   -8.7808   -0.8572   19.6188 H   0  0  0  0  0  0  0  0  0  0  0  0
   -9.6045   -1.8062   17.8839 C   0  0  0  0  0  0  0  0  0  0  0  0
   -7.5844   -3.3548   21.4702 H   0  0  0  0  0  0  0  0  0  0  0  0
   -6.5438   -1.4855   21.2763 C   0  0  0  0  0  0  0  0  0  0  0  0
    6.7817  -15.3190   22.0730 H   0  0  0  0  0  0  0  0  0  0  0  0
    6.5461  -15.2068   20.3332 H   0  0  0  0  0  0  0  0  0  0  0  0
    8.8350  -14.1379   21.9557 H   0  0  0  0  0  0  0  0  0  0  0  0
    8.7888  -14.5784   20.2318 H   0  0  0  0  0  0  0  0  0  0  0  0
    5.0734  -15.9208   23.4512 H   0  0  0  0  0  0  0  0  0  0  0  0
    6.8670  -11.8502   24.0411 H   0  0  0  0  0  0  0  0  0  0  0  0
    5.9690  -11.9331   25.5562 H   0  0  0  0  0  0  0  0  0  0  0  0
    8.8244  -12.9982   25.1489 H   0  0  0  0  0  0  0  0  0  0  0  0
    7.9415  -12.9968   26.6711 H   0  0  0  0  0  0  0  0  0  0  0  0
    9.5929  -11.3688   26.5941 H   0  0  0  0  0  0  0  0  0  0  0  0
    8.9666  -10.6724   25.2468 H   0  0  0  0  0  0  0  0  0  0  0  0
    6.7287  -14.6473   26.2530 H   0  0  0  0  0  0  0  0  0  0  0  0
    0.9198  -17.6839   24.6251 H   0  0  0  0  0  0  0  0  0  0  0  0
    5.1153  -17.7210   23.3864 H   0  0  0  0  0  0  0  0  0  0  0  0
    2.7907  -17.6304   27.2427 H   0  0  0  0  0  0  0  0  0  0  0  0
    5.3579  -21.0055   26.2668 H   0  0  0  0  0  0  0  0  0  0  0  0
    5.0245  -23.2882   25.5995 H   0  0  0  0  0  0  0  0  0  0  0  0
    1.2035  -22.3190   24.1313 H   0  0  0  0  0  0  0  0  0  0  0  0
    1.5078  -20.0391   24.8191 H   0  0  0  0  0  0  0  0  0  0  0  0
    4.7160  -17.0628   21.5454 H   0  0  0  0  0  0  0  0  0  0  0  0
    4.4571  -16.9489   19.7996 H   0  0  0  0  0  0  0  0  0  0  0  0
    3.0017  -19.6859   22.3451 H   0  0  0  0  0  0  0  0  0  0  0  0
    2.2181  -20.1220   20.8333 H   0  0  0  0  0  0  0  0  0  0  0  0
    0.4850  -16.6303   19.2225 H   0  0  0  0  0  0  0  0  0  0  0  0
   -1.4028  -13.8956   22.7879 H   0  0  0  0  0  0  0  0  0  0  0  0
    0.1692  -13.1584   22.4411 H   0  0  0  0  0  0  0  0  0  0  0  0
   -1.0734  -13.2153   21.1857 H   0  0  0  0  0  0  0  0  0  0  0  0
   -1.7926  -15.9758   21.9420 H   0  0  0  0  0  0  0  0  0  0  0  0
    1.9599  -12.6248   18.7357 H   0  0  0  0  0  0  0  0  0  0  0  0
    1.6565  -11.9635   17.1521 H   0  0  0  0  0  0  0  0  0  0  0  0
    4.1363  -12.5110   19.2085 H   0  0  0  0  0  0  0  0  0  0  0  0
    1.9386  -24.4503   24.4911 H   0  0  0  0  0  0  0  0  0  0  0  0
   -0.3795  -12.3641   19.0256 H   0  0  0  0  0  0  0  0  0  0  0  0
   -3.9885  -12.5217   18.4875 H   0  0  0  0  0  0  0  0  0  0  0  0
   -2.9141  -12.6221   19.8747 H   0  0  0  0  0  0  0  0  0  0  0  0
   -1.8219  -10.4948   19.2730 H   0  0  0  0  0  0  0  0  0  0  0  0
   -2.7096  -10.4341   17.7413 H   0  0  0  0  0  0  0  0  0  0  0  0
   -4.0471  -10.3367   20.4949 H   0  0  0  0  0  0  0  0  0  0  0  0
   -4.8535  -10.1765   18.9283 H   0  0  0  0  0  0  0  0  0  0  0  0
   -3.4419   -8.0886   18.5031 H   0  0  0  0  0  0  0  0  0  0  0  0
   -2.8410   -8.2291   20.1627 H   0  0  0  0  0  0  0  0  0  0  0  0
   -5.7544   -7.8181   19.3150 H   0  0  0  0  0  0  0  0  0  0  0  0
   -5.2353   -8.0383   20.9939 H   0  0  0  0  0  0  0  0  0  0  0  0
   -3.9528   -5.9602   20.9552 H   0  0  0  0  0  0  0  0  0  0  0  0
   -4.2106   -5.7658   19.2142 H   0  0  0  0  0  0  0  0  0  0  0  0
   -6.6402   -5.4778   19.5775 H   0  0  0  0  0  0  0  0  0  0  0  0
   -6.4318   -5.6684   21.3225 H   0  0  0  0  0  0  0  0  0  0  0  0
   -5.0404   -3.6655   21.4399 H   0  0  0  0  0  0  0  0  0  0  0  0
   -5.1006   -3.4321   19.6961 H   0  0  0  0  0  0  0  0  0  0  0  0
   -8.0647   -3.7684   19.0649 H   0  0  0  0  0  0  0  0  0  0  0  0
   -7.0729   -2.3925   18.6102 H   0  0  0  0  0  0  0  0  0  0  0  0
   -9.7191   -2.4254   21.3477 H   0  0  0  0  0  0  0  0  0  0  0  0
  -10.4491   -3.3981   20.0702 H   0  0  0  0  0  0  0  0  0  0  0  0
  -11.1557   -0.4686   20.6513 H   0  0  0  0  0  0  0  0  0  0  0  0
  -12.0427   -1.8705   21.2733 H   0  0  0  0  0  0  0  0  0  0  0  0
  -12.0108   -1.5591   19.5367 H   0  0  0  0  0  0  0  0  0  0  0  0
    8.1368  -10.8114   21.4456 H   0  0  0  0  0  0  0  0  0  0  0  0
    3.4849  -11.0385   16.9578 H   0  0  0  0  0  0  0  0  0  0  0  0
    3.2718  -11.8576   14.7313 H   0  0  0  0  0  0  0  0  0  0  0  0
    5.0421  -12.0058   14.6454 H   0  0  0  0  0  0  0  0  0  0  0  0
    5.2542   -9.5350   14.9772 H   0  0  0  0  0  0  0  0  0  0  0  0
    3.4842   -9.4004   15.0624 H   0  0  0  0  0  0  0  0  0  0  0  0
    4.3218   -8.8644   12.9447 H   0  0  0  0  0  0  0  0  0  0  0  0
    5.0690  -10.3188   12.7891 H   0  0  0  0  0  0  0  0  0  0  0  0
    4.8169  -19.0886   18.8608 H   0  0  0  0  0  0  0  0  0  0  0  0
    1.9853  -14.7431   15.8813 H   0  0  0  0  0  0  0  0  0  0  0  0
   -8.8223   -1.4854   17.1926 H   0  0  0  0  0  0  0  0  0  0  0  0
   -9.9721   -2.7834   17.5620 H   0  0  0  0  0  0  0  0  0  0  0  0
  -10.4172   -1.0829   17.8073 H   0  0  0  0  0  0  0  0  0  0  0  0
   -5.9396   -1.5940   22.1803 H   0  0  0  0  0  0  0  0  0  0  0  0
   -5.9654   -0.9266   20.5369 H   0  0  0  0  0  0  0  0  0  0  0  0
   -7.4244   -0.9029   21.5500 H   0  0  0  0  0  0  0  0  0  0  0  0
  1  2  1  0  0  0  0 
  2  3  1  0  0  0  0 
  3  4  1  0  0  0  0 
  4  5  1  0  0  0  0 
  5  1  1  0  0  0  0 
  5  6  1  0  0  0  0 
  6  7  2  0  0  0  0 
  6  8  1  0  0  0  0 
  8  9  1  0  0  0  0 
  8 10  1  0  0  0  0 
 10 11  1  0  0  0  0 
 11 12  1  0  0  0  0 
 12 13  1  0  0  0  0 
 10 14  1  0  0  0  0 
 10 15  1  0  0  0  0 
  9 16  1  0  0  0  0 
 16 17  1  0  0  0  0 
 17 18  1  0  0  0  0 
 17 19  1  0  0  0  0 
 19 20  1  0  0  0  0 
 20 21  1  0  0  0  0 
 19 22  1  0  0  0  0 
 19 23  1  0  0  0  0 
 20 24  1  0  0  0  0 
 20 25  1  0  0  0  0 
 21 26  2  0  0  0  0 
 26 27  1  0  0  0  0 
 27 28  2  0  0  0  0 
 28 29  1  0  0  0  0 
 29 30  2  0  0  0  0 
 30 21  1  0  0  0  0 
 18 31  1  0  0  0  0 
 31 32  1  0  0  0  0 
 32 33  1  0  0  0  0 
 33 34  1  0  0  0  0 
 34 35  1  0  0  0  0 
 35 36  1  0  0  0  0 
 36 32  1  0  0  0  0 
 33 37  1  0  0  0  0 
 37 38  2  0  0  0  0 
 37 39  1  0  0  0  0 
 39 40  1  0  0  0  0 
 40 41  1  0  0  0  0 
 39 42  1  0  0  0  0 
 39 43  1  0  0  0  0 
 42 44  1  0  0  0  0 
 42 45  1  0  0  0  0 
 42 46  1  0  0  0  0 
 41 47  1  0  0  0  0 
 41 48  2  0  0  0  0 
 47 49  1  0  0  0  0 
 49 50  1  0  0  0  0 
 50 51  1  0  0  0  0 
 51 52  1  0  0  0  0 
  4 53  1  0  0  0  0 
 53 54  2  0  0  0  0 
 53 52  1  0  0  0  0 
 31 55  2  0  0  0  0 
 28 56  1  0  0  0  0 
 47 57  1  0  0  0  0 
 47 58  1  0  0  0  0 
 58 59  1  0  0  0  0 
 59 60  2  0  0  0  0 
 59 61  1  0  0  0  0 
 61 62  1  0  0  0  0 
 62 63  1  0  0  0  0 
 63 64  1  0  0  0  0 
 64 65  1  0  0  0  0 
 65 66  1  0  0  0  0 
 66 67  1  0  0  0  0 
 67 68  1  0  0  0  0 
 68 69  1  0  0  0  0 
 69 70  1  0  0  0  0 
 70 71  1  0  0  0  0 
 71 72  1  0  0  0  0 
 72 73  1  0  0  0  0 
  4 74  1  0  0  0  0 
  3 75  1  0  0  0  0 
  3 76  1  0  0  0  0 
 51 77  1  0  0  0  0 
 51 78  1  0  0  0  0 
 78 79  1  0  0  0  0 
 79 80  1  0  0  0  0 
 80 81  1  0  0  0  0 
 35 82  1  0  0  0  0 
 35 83  1  0  0  0  0 
  8 84  1  0  0  0  0 
 16 85  2  0  0  0  0 
 17 86  1  0  0  0  0 
 50 87  1  0  0  0  0 
 50 88  1  0  0  0  0 
 32 89  1  0  0  0  0 
 71 90  1  0  0  0  0 
 71 91  1  0  0  0  0 
 69 92  1  0  0  0  0 
 69 93  1  0  0  0  0 
  1 94  1  0  0  0  0 
  1 95  1  0  0  0  0 
  2 96  1  0  0  0  0 
  2 97  1  0  0  0  0 
  9 98  1  0  0  0  0 
 11 99  1  0  0  0  0 
 11100  1  0  0  0  0 
 12101  1  0  0  0  0 
 12102  1  0  0  0  0 
 13103  1  0  0  0  0 
 13104  1  0  0  0  0 
 14105  1  0  0  0  0 
 18106  1  0  0  0  0 
 22107  1  0  0  0  0 
 25108  1  0  0  0  0 
 26109  1  0  0  0  0 
 27110  1  0  0  0  0 
 29111  1  0  0  0  0 
 30112  1  0  0  0  0 
 34113  1  0  0  0  0 
 34114  1  0  0  0  0 
 36115  1  0  0  0  0 
 36116  1  0  0  0  0 
 40117  1  0  0  0  0 
 44118  1  0  0  0  0 
 44119  1  0  0  0  0 
 44120  1  0  0  0  0 
 46121  1  0  0  0  0 
 49122  1  0  0  0  0 
 49123  1  0  0  0  0 
 52124  1  0  0  0  0 
 56125  1  0  0  0  0 
 58126  1  0  0  0  0 
 61127  1  0  0  0  0 
 61128  1  0  0  0  0 
 62129  1  0  0  0  0 
 62130  1  0  0  0  0 
 63131  1  0  0  0  0 
 63132  1  0  0  0  0 
 64133  1  0  0  0  0 
 64134  1  0  0  0  0 
 65135  1  0  0  0  0 
 65136  1  0  0  0  0 
 66137  1  0  0  0  0 
 66138  1  0  0  0  0 
 67139  1  0  0  0  0 
 67140  1  0  0  0  0 
 68141  1  0  0  0  0 
 68142  1  0  0  0  0 
 70143  1  0  0  0  0 
 70144  1  0  0  0  0 
 72145  1  0  0  0  0 
 72146  1  0  0  0  0 
 73147  1  0  0  0  0 
 73148  1  0  0  0  0 
 73149  1  0  0  0  0 
 76150  1  0  0  0  0 
 78151  1  0  0  0  0 
 79152  1  0  0  0  0 
 79153  1  0  0  0  0 
 80154  1  0  0  0  0 
 80155  1  0  0  0  0 
 81156  1  0  0  0  0 
 81157  1  0  0  0  0 
 83158  1  0  0  0  0 
 88159  1  0  0  0  0 
 91160  1  0  0  0  0 
 91161  1  0  0  0  0 
 91162  1  0  0  0  0 
 93163  1  0  0  0  0 
 93164  1  0  0  0  0 
 93165  1  0  0  0  0 
M  END
> <cdk:Title>
caspofungin

> <Conformer>
1

> <SuperDrugID>
SD002608

$$$$
