carbon tetrachloride
  CDK     0628171801

  5  4  0  0  0  0  0  0  0  0999 V2000
    0.9891    2.4853    0.6925 Cl  0  0  0  0  0  0  0  0  0  0  0  0
    1.1753    0.8607    1.3352 C   0  0  2  0  0  0  0  0  0  0  0  0
   -0.2713    0.4141    2.2267 Cl  0  0  0  0  0  0  0  0  0  0  0  0
    2.5642    0.8118    2.4102 Cl  0  0  0  0  0  0  0  0  0  0  0  0
    1.4194   -0.2684    0.0113 Cl  0  0  0  0  0  0  0  0  0  0  0  0
  1  2  1  0  0  0  0 
  2  3  1  0  0  0  0 
  2  4  1  0  0  0  0 
  2  5  1  0  0  0  0 
M  END
> <cdk:Title>
carbon tetrachloride

> <Conformer>
1

> <SuperDrugID>
SD002663

$$$$
