colforsin daropate
  CDK     0628171802

 79 81  0  0  0  0  0  0  0  0999 V2000
   -2.8939   -5.0546   -1.0595 O   0  0  0  0  0  0  0  0  0  0  0  0
   -1.5946   -5.6526   -0.8573 C   0  0  1  0  0  0  0  0  0  0  0  0
   -0.9107   -5.7049   -2.3215 C   0  0  2  0  0  0  0  0  0  0  0  0
   -0.8770   -4.7468    0.2343 C   0  0  1  0  0  0  0  0  0  0  0  0
   -1.9176   -6.9377   -0.1718 C   0  0  0  0  0  0  0  0  0  0  0  0
    0.4496   -6.5071   -2.2667 C   0  0  0  0  0  0  0  0  0  0  0  0
   -0.7440   -4.1900   -2.8225 C   0  0  1  0  0  0  0  0  0  0  0  0
   -1.8164   -6.4804   -3.3763 C   0  0  1  0  0  0  0  0  0  0  0  0
    0.4175   -5.2986    0.9413 C   0  0  0  0  0  0  0  0  0  0  0  0
   -0.6136   -3.3239   -0.3806 C   0  0  2  0  0  0  0  0  0  0  0  0
   -1.8300   -4.5192    1.3116 O   0  0  0  0  0  0  0  0  0  0  0  0
   -1.5546   -8.0524   -0.6135 O   0  0  0  0  0  0  0  0  0  0  0  0
   -2.7210   -6.9194    1.0738 C   0  0  2  0  0  0  0  0  0  0  0  0
    0.0730   -3.3302   -1.7866 C   0  0  1  0  0  0  0  0  0  0  0  0
   -0.4654   -3.8869   -4.3724 C   0  0  2  0  0  0  0  0  0  0  0  0
   -3.1981   -6.1136   -3.3488 O   0  0  0  0  0  0  0  0  0  0  0  0
   -1.3418   -6.3191   -4.8475 C   0  0  2  0  0  0  0  0  0  0  0  0
    0.1614   -2.5048    0.5172 O   0  0  0  0  0  0  0  0  0  0  0  0
   -2.5498   -5.6142    1.9660 C   0  0  2  0  0  0  0  0  0  0  0  0
    1.4171   -3.8065   -1.6566 O   0  0  0  0  0  0  0  0  0  0  0  0
    1.0325   -3.9761   -4.8311 C   0  0  0  0  0  0  0  0  0  0  0  0
   -0.9196   -2.4204   -4.7404 C   0  0  0  0  0  0  0  0  0  0  0  0
   -1.3443   -4.8336   -5.2724 C   0  0  2  0  0  0  0  0  0  0  0  0
   -0.1232   -1.2456    0.9623 C   0  0  0  0  0  0  0  0  0  0  0  0
   -3.8602   -5.0192    2.2994 C   0  0  0  0  0  0  0  0  0  0  0  0
   -1.8458   -5.9764    3.3147 C   0  0  0  0  0  0  0  0  0  0  0  0
    2.6169   -3.1643   -1.7207 C   0  0  0  0  0  0  0  0  0  0  0  0
    0.7637   -0.5973    1.9382 C   0  0  0  0  0  0  0  0  0  0  0  0
   -1.1173   -0.6090    0.5416 O   0  0  0  0  0  0  0  0  0  0  0  0
   -4.0326   -3.8309    2.8960 C   0  0  0  0  0  0  0  0  0  0  0  0
    3.8246   -3.9855   -1.5081 C   0  0  2  0  0  0  0  0  0  0  0  0
    2.7110   -1.9390   -1.9621 O   0  0  0  0  0  0  0  0  0  0  0  0
    4.5560   -4.3431   -2.8325 C   0  0  1  0  0  0  0  0  0  0  0  0
    5.4197   -5.5585   -2.6681 N   0  0  1  0  0  0  0  0  0  0  0  0
    5.6267   -6.3361   -3.9233 C   0  0  0  0  0  0  0  0  0  0  0  0
    6.6869   -5.3286   -1.9172 C   0  0  0  0  0  0  0  0  0  0  0  0
   -1.7557   -3.7862   -2.7308 H   0  0  0  0  0  0  0  0  0  0  0  0
   -3.3448   -5.0126   -0.1948 H   0  0  0  0  0  0  0  0  0  0  0  0
    1.0798   -6.2327   -1.4389 H   0  0  0  0  0  0  0  0  0  0  0  0
    0.2914   -7.5805   -2.1780 H   0  0  0  0  0  0  0  0  0  0  0  0
    1.0486   -6.3733   -3.1533 H   0  0  0  0  0  0  0  0  0  0  0  0
   -1.8141   -7.5495   -3.1547 H   0  0  0  0  0  0  0  0  0  0  0  0
    1.3313   -5.0732    0.4061 H   0  0  0  0  0  0  0  0  0  0  0  0
    0.3760   -6.3767    1.0871 H   0  0  0  0  0  0  0  0  0  0  0  0
    0.5365   -4.8310    1.9206 H   0  0  0  0  0  0  0  0  0  0  0  0
   -1.5894   -2.8451   -0.5223 H   0  0  0  0  0  0  0  0  0  0  0  0
   -2.4860   -7.8144    1.6567 H   0  0  0  0  0  0  0  0  0  0  0  0
   -3.7529   -7.0522    0.7390 H   0  0  0  0  0  0  0  0  0  0  0  0
    0.0927   -2.2883   -2.1127 H   0  0  0  0  0  0  0  0  0  0  0  0
   -3.6488   -6.7596   -3.9342 H   0  0  0  0  0  0  0  0  0  0  0  0
   -2.0149   -6.8763   -5.5069 H   0  0  0  0  0  0  0  0  0  0  0  0
   -0.3438   -6.7368   -4.9888 H   0  0  0  0  0  0  0  0  0  0  0  0
    1.6510   -3.2666   -4.2857 H   0  0  0  0  0  0  0  0  0  0  0  0
    1.4533   -4.9662   -4.7136 H   0  0  0  0  0  0  0  0  0  0  0  0
    1.1295   -3.7317   -5.8916 H   0  0  0  0  0  0  0  0  0  0  0  0
   -0.8625   -2.2435   -5.8168 H   0  0  0  0  0  0  0  0  0  0  0  0
   -0.2939   -1.6694   -4.2612 H   0  0  0  0  0  0  0  0  0  0  0  0
   -1.9519   -2.2342   -4.4370 H   0  0  0  0  0  0  0  0  0  0  0  0
   -1.0290   -4.7707   -6.3192 H   0  0  0  0  0  0  0  0  0  0  0  0
   -2.3859   -4.4984   -5.2546 H   0  0  0  0  0  0  0  0  0  0  0  0
   -4.6918   -5.5198    2.0844 H   0  0  0  0  0  0  0  0  0  0  0  0
   -2.4797   -6.6384    3.9119 H   0  0  0  0  0  0  0  0  0  0  0  0
   -1.6314   -5.0831    3.9054 H   0  0  0  0  0  0  0  0  0  0  0  0
   -0.9048   -6.4958    3.1406 H   0  0  0  0  0  0  0  0  0  0  0  0
    1.2176    0.2867    1.4890 H   0  0  0  0  0  0  0  0  0  0  0  0
    1.5564   -1.2764    2.2562 H   0  0  0  0  0  0  0  0  0  0  0  0
    0.1903   -0.2952    2.8160 H   0  0  0  0  0  0  0  0  0  0  0  0
   -3.2576   -3.2684    3.1537 H   0  0  0  0  0  0  0  0  0  0  0  0
   -4.9476   -3.4949    3.0875 H   0  0  0  0  0  0  0  0  0  0  0  0
    3.5343   -4.9169   -1.0091 H   0  0  0  0  0  0  0  0  0  0  0  0
    4.4960   -3.4503   -0.8323 H   0  0  0  0  0  0  0  0  0  0  0  0
    3.7954   -4.5396   -3.5949 H   0  0  0  0  0  0  0  0  0  0  0  0
    5.1483   -3.4866   -3.1701 H   0  0  0  0  0  0  0  0  0  0  0  0
    4.6663   -6.6133   -4.3655 H   0  0  0  0  0  0  0  0  0  0  0  0
    6.1603   -7.2649   -3.7094 H   0  0  0  0  0  0  0  0  0  0  0  0
    6.1987   -5.7578   -4.6517 H   0  0  0  0  0  0  0  0  0  0  0  0
    6.4858   -4.8792   -0.9455 H   0  0  0  0  0  0  0  0  0  0  0  0
    7.1919   -6.2783   -1.7353 H   0  0  0  0  0  0  0  0  0  0  0  0
    7.3611   -4.6755   -2.4731 H   0  0  0  0  0  0  0  0  0  0  0  0
  2  1  1  0  0  0  0 
  3  2  1  0  0  0  0 
  4  2  1  0  0  0  0 
  2  5  1  0  0  0  0 
  3  6  1  0  0  0  0 
  7  3  1  0  0  0  0 
  3  8  1  0  0  0  0 
  4  9  1  0  0  0  0 
 10  4  1  0  0  0  0 
  4 11  1  0  0  0  0 
  5 12  2  0  0  0  0 
  5 13  1  0  0  0  0 
 14  7  1  0  0  0  0 
  7 15  1  0  0  0  0 
  7 37  1  0  0  0  0 
  8 16  1  0  0  0  0 
  8 17  1  0  0  0  0 
 14 10  1  0  0  0  0 
 10 18  1  0  0  0  0 
 19 11  1  0  0  0  0 
 19 13  1  0  0  0  0 
 14 20  1  0  0  0  0 
 15 21  1  0  0  0  0 
 15 22  1  0  0  0  0 
 15 23  1  0  0  0  0 
 17 23  1  0  0  0  0 
 18 24  1  0  0  0  0 
 19 25  1  0  0  0  0 
 19 26  1  0  0  0  0 
 20 27  1  0  0  0  0 
 24 28  1  0  0  0  0 
 24 29  2  0  0  0  0 
 25 30  2  0  0  0  0 
 27 31  1  0  0  0  0 
 27 32  2  0  0  0  0 
 31 33  1  0  0  0  0 
 33 34  1  0  0  0  0 
 34 35  1  0  0  0  0 
 34 36  1  0  0  0  0 
  1 38  1  0  0  0  0 
  6 39  1  0  0  0  0 
  6 40  1  0  0  0  0 
  6 41  1  0  0  0  0 
  8 42  1  0  0  0  0 
  9 43  1  0  0  0  0 
  9 44  1  0  0  0  0 
  9 45  1  0  0  0  0 
 10 46  1  0  0  0  0 
 13 47  1  0  0  0  0 
 13 48  1  0  0  0  0 
 14 49  1  0  0  0  0 
 16 50  1  0  0  0  0 
 17 51  1  0  0  0  0 
 17 52  1  0  0  0  0 
 21 53  1  0  0  0  0 
 21 54  1  0  0  0  0 
 21 55  1  0  0  0  0 
 22 56  1  0  0  0  0 
 22 57  1  0  0  0  0 
 22 58  1  0  0  0  0 
 23 59  1  0  0  0  0 
 23 60  1  0  0  0  0 
 25 61  1  0  0  0  0 
 26 62  1  0  0  0  0 
 26 63  1  0  0  0  0 
 26 64  1  0  0  0  0 
 28 65  1  0  0  0  0 
 28 66  1  0  0  0  0 
 28 67  1  0  0  0  0 
 30 68  1  0  0  0  0 
 30 69  1  0  0  0  0 
 31 70  1  0  0  0  0 
 31 71  1  0  0  0  0 
 33 72  1  0  0  0  0 
 33 73  1  0  0  0  0 
 35 74  1  0  0  0  0 
 35 75  1  0  0  0  0 
 35 76  1  0  0  0  0 
 36 77  1  0  0  0  0 
 36 78  1  0  0  0  0 
 36 79  1  0  0  0  0 
M  END
> <cdk:Title>
colforsin daropate

> <Conformer>
1

> <SuperDrugID>
SD000643

$$$$
