cefatrizine
  CDK     0628171802

 49 52  0  0  0  0  0  0  0  0999 V2000
   -5.4523    1.1874   -0.1467 C   0  0  0  0  0  0  0  0  0  0  0  0
   -4.5842    0.8256    0.8284 O   0  0  0  0  0  0  0  0  0  0  0  0
   -6.5717    0.6261   -0.1616 O   0  0  0  0  0  0  0  0  0  0  0  0
   -5.1777    2.1832   -1.0808 C   0  0  0  0  0  0  0  0  0  0  0  0
   -6.0496    3.2172   -1.1078 N   0  0  0  0  0  0  0  0  0  0  0  0
   -4.0699    2.2058   -1.8789 C   0  0  0  0  0  0  0  0  0  0  0  0
   -6.2821    4.2591   -2.0469 C   0  0  1  0  0  0  0  0  0  0  0  0
   -6.7905    3.8026   -0.1547 C   0  0  0  0  0  0  0  0  0  0  0  0
   -2.9369    1.2880   -1.7077 C   0  0  1  0  0  0  0  0  0  0  0  0
   -3.9195    3.1840   -2.9783 C   0  0  2  0  0  0  0  0  0  0  0  0
   -7.0318    5.0251   -0.9149 C   0  0  1  0  0  0  0  0  0  0  0  0
   -4.6519    4.8206   -2.6284 S   0  0  0  0  0  0  0  0  0  0  0  0
   -7.0548    3.4955    1.0299 O   0  0  0  0  0  0  0  0  0  0  0  0
   -1.7092    2.1687   -0.6803 S   0  0  0  0  0  0  0  0  0  0  0  0
   -6.3157    6.0951   -0.2919 N   0  0  0  0  0  0  0  0  0  0  0  0
   -0.3784    1.0520   -0.5058 C   0  0  0  0  0  0  0  0  0  0  0  0
   -6.8553    7.0867    0.4630 C   0  0  0  0  0  0  0  0  0  0  0  0
   -0.3823   -0.1653    0.1457 C   0  0  0  0  0  0  0  0  0  0  0  0
    0.8632    1.2063   -0.9699 N   0  0  0  0  0  0  0  0  0  0  0  0
   -5.9538    8.0323    1.1668 C   0  0  2  0  0  0  0  0  0  0  0  0
   -8.0991    7.1910    0.5926 O   0  0  0  0  0  0  0  0  0  0  0  0
    0.8535   -0.6692    0.0311 N   0  0  0  0  0  0  0  0  0  0  0  0
    1.5753    0.1752   -0.6421 N   0  0  0  0  0  0  0  0  0  0  0  0
   -6.1086    7.8578    2.6227 N   0  0  1  0  0  0  0  0  0  0  0  0
   -6.1847    9.4369    0.7177 C   0  0  0  0  0  0  0  0  0  0  0  0
   -5.2803   10.0753   -0.1689 C   0  0  0  0  0  0  0  0  0  0  0  0
   -7.3296   10.1568    1.1388 C   0  0  0  0  0  0  0  0  0  0  0  0
   -5.5269   11.3796   -0.6359 C   0  0  0  0  0  0  0  0  0  0  0  0
   -7.5821   11.4555    0.6628 C   0  0  0  0  0  0  0  0  0  0  0  0
   -6.6894   12.0630   -0.2397 C   0  0  0  0  0  0  0  0  0  0  0  0
   -6.9374   13.2972   -0.7418 O   0  0  0  0  0  0  0  0  0  0  0  0
   -4.8364    0.1342    1.4791 H   0  0  0  0  0  0  0  0  0  0  0  0
   -6.9273    3.9320   -2.8678 H   0  0  0  0  0  0  0  0  0  0  0  0
   -3.2010    0.3443   -1.2315 H   0  0  0  0  0  0  0  0  0  0  0  0
   -2.4784    1.0335   -2.6664 H   0  0  0  0  0  0  0  0  0  0  0  0
   -4.4183    2.7777   -3.8610 H   0  0  0  0  0  0  0  0  0  0  0  0
   -2.8757    3.3624   -3.2444 H   0  0  0  0  0  0  0  0  0  0  0  0
   -8.0936    5.1968   -1.1141 H   0  0  0  0  0  0  0  0  0  0  0  0
   -5.3488    6.0808   -0.3673 H   0  0  0  0  0  0  0  0  0  0  0  0
   -1.1710   -0.6021    0.6240 H   0  0  0  0  0  0  0  0  0  0  0  0
    1.1818    1.9700   -1.4769 H   0  0  0  0  0  0  0  0  0  0  0  0
   -4.9161    7.7559    0.9570 H   0  0  0  0  0  0  0  0  0  0  0  0
   -5.5100    8.5413    3.0912 H   0  0  0  0  0  0  0  0  0  0  0  0
   -7.0737    8.0827    2.8731 H   0  0  0  0  0  0  0  0  0  0  0  0
   -4.4384    9.5917   -0.4925 H   0  0  0  0  0  0  0  0  0  0  0  0
   -7.9934    9.7354    1.7935 H   0  0  0  0  0  0  0  0  0  0  0  0
   -4.8652   11.8329   -1.2715 H   0  0  0  0  0  0  0  0  0  0  0  0
   -8.4172   11.9578    0.9735 H   0  0  0  0  0  0  0  0  0  0  0  0
   -7.9102   13.4086   -0.6935 H   0  0  0  0  0  0  0  0  0  0  0  0
  1  2  1  0  0  0  0 
  1  3  2  0  0  0  0 
  1  4  1  0  0  0  0 
  4  5  1  0  0  0  0 
  4  6  2  0  0  0  0 
  7  5  1  0  0  0  0 
  5  8  1  0  0  0  0 
  6  9  1  0  0  0  0 
  6 10  1  0  0  0  0 
  7 11  1  0  0  0  0 
  7 12  1  0  0  0  0 
 11  8  1  0  0  0  0 
  8 13  2  0  0  0  0 
  9 14  1  0  0  0  0 
 10 12  1  0  0  0  0 
 11 15  1  0  0  0  0 
 14 16  1  0  0  0  0 
 15 17  1  0  0  0  0 
 16 18  2  0  0  0  0 
 16 19  1  0  0  0  0 
 20 17  1  0  0  0  0 
 17 21  2  0  0  0  0 
 18 22  1  0  0  0  0 
 19 23  1  0  0  0  0 
 20 24  1  0  0  0  0 
 20 25  1  0  0  0  0 
 22 23  2  0  0  0  0 
 25 26  2  0  0  0  0 
 25 27  1  0  0  0  0 
 26 28  1  0  0  0  0 
 27 29  2  0  0  0  0 
 28 30  2  0  0  0  0 
 29 30  1  0  0  0  0 
 30 31  1  0  0  0  0 
 32  2  1  0  0  0  0 
  7 33  1  0  0  0  0 
 34  9  1  0  0  0  0 
 35  9  1  0  0  0  0 
 36 10  1  0  0  0  0 
 37 10  1  0  0  0  0 
 11 38  1  0  0  0  0 
 39 15  1  0  0  0  0 
 40 18  1  0  0  0  0 
 41 19  1  0  0  0  0 
 20 42  1  0  0  0  0 
 43 24  1  0  0  0  0 
 44 24  1  0  0  0  0 
 45 26  1  0  0  0  0 
 46 27  1  0  0  0  0 
 47 28  1  0  0  0  0 
 48 29  1  0  0  0  0 
 49 31  1  0  0  0  0 
M  END
> <cdk:Title>
cefatrizine

> <Conformer>
1

> <SuperDrugID>
SD000458

$$$$
