phenoxyethanol
  CDK     0628171801

 20 20  0  0  0  0  0  0  0  0999 V2000
    0.3060   -3.3801   -0.5148 O   0  0  0  0  0  0  0  0  0  0  0  0
   -0.7565   -3.0623   -1.4075 C   0  0  1  0  0  0  0  0  0  0  0  0
   -1.0758   -1.5568   -1.3524 C   0  0  2  0  0  0  0  0  0  0  0  0
   -1.4747   -1.2028   -0.0115 O   0  0  0  0  0  0  0  0  0  0  0  0
   -1.7547    0.1315    0.1096 C   0  0  0  0  0  0  0  0  0  0  0  0
   -3.0667    0.6026   -0.1081 C   0  0  0  0  0  0  0  0  0  0  0  0
   -3.3447    1.9800   -0.0294 C   0  0  0  0  0  0  0  0  0  0  0  0
   -2.3180    2.8898    0.2869 C   0  0  0  0  0  0  0  0  0  0  0  0
   -1.0147    2.4198    0.5366 C   0  0  0  0  0  0  0  0  0  0  0  0
   -0.7350    1.0426    0.4584 C   0  0  0  0  0  0  0  0  0  0  0  0
    0.4390   -4.3469   -0.6179 H   0  0  0  0  0  0  0  0  0  0  0  0
   -0.4595   -3.3399   -2.4210 H   0  0  0  0  0  0  0  0  0  0  0  0
   -1.6405   -3.6395   -1.1290 H   0  0  0  0  0  0  0  0  0  0  0  0
   -1.8822   -1.3449   -2.0638 H   0  0  0  0  0  0  0  0  0  0  0  0
   -0.1826   -0.9980   -1.6541 H   0  0  0  0  0  0  0  0  0  0  0  0
   -3.8170   -0.0566   -0.3291 H   0  0  0  0  0  0  0  0  0  0  0  0
   -4.2923    2.3206   -0.2039 H   0  0  0  0  0  0  0  0  0  0  0  0
   -2.5197    3.8913    0.3389 H   0  0  0  0  0  0  0  0  0  0  0  0
   -0.2710    3.0798    0.7729 H   0  0  0  0  0  0  0  0  0  0  0  0
    0.2112    0.7038    0.6494 H   0  0  0  0  0  0  0  0  0  0  0  0
  1  2  1  0  0  0  0 
  2  3  1  0  0  0  0 
  3  4  1  0  0  0  0 
  4  5  1  0  0  0  0 
  5  6  2  0  0  0  0 
  6  7  1  0  0  0  0 
  7  8  2  0  0  0  0 
  8  9  1  0  0  0  0 
  9 10  2  0  0  0  0 
  5 10  1  0  0  0  0 
  1 11  1  0  0  0  0 
  2 12  1  0  0  0  0 
  2 13  1  0  0  0  0 
  3 14  1  0  0  0  0 
  3 15  1  0  0  0  0 
  6 16  1  0  0  0  0 
  7 17  1  0  0  0  0 
  8 18  1  0  0  0  0 
  9 19  1  0  0  0  0 
 10 20  1  0  0  0  0 
M  END
> <cdk:Title>
phenoxyethanol

> <Conformer>
1

> <SuperDrugID>
SD002965

$$$$
