suprofen
  CDK     0628171801

 30 31  0  0  0  0  0  0  0  0999 V2000
    3.1315    1.6100   -0.0754 C   0  0  0  0  0  0  0  0  0  0  0  0
    3.5684    2.7786   -0.2276 O   0  0  0  0  0  0  0  0  0  0  0  0
    4.1208    0.5531    0.0103 C   0  0  0  0  0  0  0  0  0  0  0  0
    1.6992    1.5466   -0.0191 C   0  0  0  0  0  0  0  0  0  0  0  0
    5.5038    0.8812   -0.0749 C   0  0  0  0  0  0  0  0  0  0  0  0
    3.8312   -0.8280    0.1728 C   0  0  0  0  0  0  0  0  0  0  0  0
    0.8264    2.6557   -0.0699 C   0  0  0  0  0  0  0  0  0  0  0  0
    0.6245    0.1625    0.1160 S   0  0  0  0  0  0  0  0  0  0  0  0
    6.5142   -0.0956   -0.0415 C   0  0  0  0  0  0  0  0  0  0  0  0
    4.8392   -1.8126    0.2080 C   0  0  0  0  0  0  0  0  0  0  0  0
   -0.5530    2.3955    0.0017 C   0  0  0  0  0  0  0  0  0  0  0  0
   -0.8806    1.0487    0.1130 C   0  0  0  0  0  0  0  0  0  0  0  0
    6.2035   -1.4668    0.0822 C   0  0  0  0  0  0  0  0  0  0  0  0
    7.2954   -2.4948    0.0753 C   0  0  2  0  0  0  0  0  0  0  0  0
    7.1612   -3.4300   -1.0708 C   0  0  0  0  0  0  0  0  0  0  0  0
    7.4145   -3.2488    1.4259 C   0  0  0  0  0  0  0  0  0  0  0  0
    6.1828   -4.3649   -1.1185 O   0  0  0  0  0  0  0  0  0  0  0  0
    7.9619   -3.3806   -2.0317 O   0  0  0  0  0  0  0  0  0  0  0  0
    5.8092    1.8534   -0.1648 H   0  0  0  0  0  0  0  0  0  0  0  0
    2.8825   -1.1629    0.2729 H   0  0  0  0  0  0  0  0  0  0  0  0
    1.1666    3.6165   -0.1527 H   0  0  0  0  0  0  0  0  0  0  0  0
    7.4872    0.2076   -0.1077 H   0  0  0  0  0  0  0  0  0  0  0  0
    4.5665   -2.7921    0.3266 H   0  0  0  0  0  0  0  0  0  0  0  0
   -1.2617    3.1320   -0.0226 H   0  0  0  0  0  0  0  0  0  0  0  0
   -1.8159    0.6481    0.1813 H   0  0  0  0  0  0  0  0  0  0  0  0
    8.2602   -1.9872   -0.0479 H   0  0  0  0  0  0  0  0  0  0  0  0
    8.2519   -3.9489    1.3924 H   0  0  0  0  0  0  0  0  0  0  0  0
    7.6010   -2.5409    2.2376 H   0  0  0  0  0  0  0  0  0  0  0  0
    6.5061   -3.8065    1.6543 H   0  0  0  0  0  0  0  0  0  0  0  0
    6.1198   -4.9820   -1.8798 H   0  0  0  0  0  0  0  0  0  0  0  0
  1  2  2  0  0  0  0 
  1  3  1  0  0  0  0 
  1  4  1  0  0  0  0 
  3  5  2  0  0  0  0 
  3  6  1  0  0  0  0 
  4  7  2  0  0  0  0 
  4  8  1  0  0  0  0 
  5  9  1  0  0  0  0 
  6 10  2  0  0  0  0 
  7 11  1  0  0  0  0 
  8 12  1  0  0  0  0 
  9 13  2  0  0  0  0 
 10 13  1  0  0  0  0 
 11 12  2  0  0  0  0 
 14 13  1  0  0  0  0 
 14 15  1  0  0  0  0 
 14 16  1  0  0  0  0 
 15 17  1  0  0  0  0 
 15 18  2  0  0  0  0 
  5 19  1  0  0  0  0 
  6 20  1  0  0  0  0 
  7 21  1  0  0  0  0 
  9 22  1  0  0  0  0 
 10 23  1  0  0  0  0 
 11 24  1  0  0  0  0 
 12 25  1  0  0  0  0 
 14 26  1  0  0  0  0 
 16 27  1  0  0  0  0 
 16 28  1  0  0  0  0 
 16 29  1  0  0  0  0 
 17 30  1  0  0  0  0 
M  END
> <cdk:Title>
suprofen

> <Conformer>
1

> <SuperDrugID>
SD002291

$$$$
