quetiapine
  CDK     0628171801

 52 55  0  0  0  0  0  0  0  0999 V2000
   -0.3600   -0.9825   -2.2379 O   0  0  0  0  0  0  0  0  0  0  0  0
   -0.8795    0.0842   -1.4545 C   0  0  2  0  0  0  0  0  0  0  0  0
    0.1282    0.5015   -0.3660 C   0  0  2  0  0  0  0  0  0  0  0  0
   -0.4683    1.5349    0.4428 O   0  0  0  0  0  0  0  0  0  0  0  0
    0.3461    1.9943    1.5395 C   0  0  2  0  0  0  0  0  0  0  0  0
   -0.4603    3.0026    2.3998 C   0  0  1  0  0  0  0  0  0  0  0  0
    0.3453    3.8011    3.3816 N   0  0  1  0  0  0  0  0  0  0  0  0
   -0.4758    4.8599    4.0512 C   0  0  1  0  0  0  0  0  0  0  0  0
    0.3529    5.7095    5.0501 C   0  0  1  0  0  0  0  0  0  0  0  0
    1.1429    4.8803    5.9534 N   0  0  0  0  0  0  0  0  0  0  0  0
    1.9884    3.9144    5.2659 C   0  0  2  0  0  0  0  0  0  0  0  0
    1.1200    2.9933    4.3743 C   0  0  1  0  0  0  0  0  0  0  0  0
    1.0880    4.9808    7.3271 C   0  0  0  0  0  0  0  0  0  0  0  0
    1.4752    3.9488    8.0054 N   0  0  0  0  0  0  0  0  0  0  0  0
    1.5592    3.6303    9.2973 C   0  0  0  0  0  0  0  0  0  0  0  0
    2.7231    2.9507    9.7185 C   0  0  0  0  0  0  0  0  0  0  0  0
    2.8985    2.6013   11.0706 C   0  0  0  0  0  0  0  0  0  0  0  0
    1.8969    2.9010   12.0112 C   0  0  0  0  0  0  0  0  0  0  0  0
    0.7135    3.5395   11.5991 C   0  0  0  0  0  0  0  0  0  0  0  0
    0.5464    3.9055   10.2474 C   0  0  0  0  0  0  0  0  0  0  0  0
   -0.9169    4.7480    9.7504 S   0  0  0  0  0  0  0  0  0  0  0  0
   -0.2567    6.2160    9.0331 C   0  0  0  0  0  0  0  0  0  0  0  0
   -0.6408    7.4432    9.6100 C   0  0  0  0  0  0  0  0  0  0  0  0
   -0.0795    8.6465    9.1531 C   0  0  0  0  0  0  0  0  0  0  0  0
    0.8747    8.6249    8.1241 C   0  0  0  0  0  0  0  0  0  0  0  0
    1.2624    7.4010    7.5518 C   0  0  0  0  0  0  0  0  0  0  0  0
    0.6877    6.1733    7.9689 C   0  0  0  0  0  0  0  0  0  0  0  0
   -1.0752   -1.1739   -2.8795 H   0  0  0  0  0  0  0  0  0  0  0  0
   -1.8120   -0.2447   -0.9893 H   0  0  0  0  0  0  0  0  0  0  0  0
   -1.0917    0.9287   -2.1137 H   0  0  0  0  0  0  0  0  0  0  0  0
    1.0489    0.8591   -0.8375 H   0  0  0  0  0  0  0  0  0  0  0  0
    0.3634   -0.3732    0.2463 H   0  0  0  0  0  0  0  0  0  0  0  0
    1.2492    2.4746    1.1554 H   0  0  0  0  0  0  0  0  0  0  0  0
    0.6336    1.1429    2.1621 H   0  0  0  0  0  0  0  0  0  0  0  0
   -0.9396    3.6978    1.7062 H   0  0  0  0  0  0  0  0  0  0  0  0
   -1.2580    2.4623    2.9198 H   0  0  0  0  0  0  0  0  0  0  0  0
   -0.8853    5.5393    3.2985 H   0  0  0  0  0  0  0  0  0  0  0  0
   -1.3185    4.4056    4.5817 H   0  0  0  0  0  0  0  0  0  0  0  0
    1.0285    6.3560    4.4821 H   0  0  0  0  0  0  0  0  0  0  0  0
   -0.3530    6.3623    5.5696 H   0  0  0  0  0  0  0  0  0  0  0  0
    2.5782    3.2837    5.9363 H   0  0  0  0  0  0  0  0  0  0  0  0
    2.7087    4.4478    4.6364 H   0  0  0  0  0  0  0  0  0  0  0  0
    0.4455    2.4039    5.0039 H   0  0  0  0  0  0  0  0  0  0  0  0
    1.7986    2.3091    3.8617 H   0  0  0  0  0  0  0  0  0  0  0  0
    3.4596    2.7178    9.0458 H   0  0  0  0  0  0  0  0  0  0  0  0
    3.7552    2.1303   11.3708 H   0  0  0  0  0  0  0  0  0  0  0  0
    2.0283    2.6529   12.9944 H   0  0  0  0  0  0  0  0  0  0  0  0
   -0.0156    3.7418   12.2892 H   0  0  0  0  0  0  0  0  0  0  0  0
   -1.3174    7.4709   10.3774 H   0  0  0  0  0  0  0  0  0  0  0  0
   -0.3525    9.5355    9.5772 H   0  0  0  0  0  0  0  0  0  0  0  0
    1.2911    9.4997    7.7979 H   0  0  0  0  0  0  0  0  0  0  0  0
    1.9809    7.4163    6.8227 H   0  0  0  0  0  0  0  0  0  0  0  0
  1  2  1  0  0  0  0 
  2  3  1  0  0  0  0 
  3  4  1  0  0  0  0 
  4  5  1  0  0  0  0 
  5  6  1  0  0  0  0 
  6  7  1  0  0  0  0 
  7  8  1  0  0  0  0 
  8  9  1  0  0  0  0 
  9 10  1  0  0  0  0 
 10 11  1  0  0  0  0 
 11 12  1  0  0  0  0 
  7 12  1  0  0  0  0 
 10 13  1  0  0  0  0 
 13 14  2  0  0  0  0 
 14 15  1  0  0  0  0 
 15 16  2  0  0  0  0 
 16 17  1  0  0  0  0 
 17 18  2  0  0  0  0 
 18 19  1  0  0  0  0 
 19 20  2  0  0  0  0 
 15 20  1  0  0  0  0 
 20 21  1  0  0  0  0 
 21 22  1  0  0  0  0 
 22 23  2  0  0  0  0 
 23 24  1  0  0  0  0 
 24 25  2  0  0  0  0 
 25 26  1  0  0  0  0 
 26 27  2  0  0  0  0 
 13 27  1  0  0  0  0 
 22 27  1  0  0  0  0 
  1 28  1  0  0  0  0 
  2 29  1  0  0  0  0 
  2 30  1  0  0  0  0 
  3 31  1  0  0  0  0 
  3 32  1  0  0  0  0 
  5 33  1  0  0  0  0 
  5 34  1  0  0  0  0 
  6 35  1  0  0  0  0 
  6 36  1  0  0  0  0 
  8 37  1  0  0  0  0 
  8 38  1  0  0  0  0 
  9 39  1  0  0  0  0 
  9 40  1  0  0  0  0 
 11 41  1  0  0  0  0 
 11 42  1  0  0  0  0 
 12 43  1  0  0  0  0 
 12 44  1  0  0  0  0 
 16 45  1  0  0  0  0 
 17 46  1  0  0  0  0 
 18 47  1  0  0  0  0 
 19 48  1  0  0  0  0 
 23 49  1  0  0  0  0 
 24 50  1  0  0  0  0 
 25 51  1  0  0  0  0 
 26 52  1  0  0  0  0 
M  END
> <cdk:Title>
quetiapine

> <Conformer>
1

> <SuperDrugID>
SD002101

$$$$
