cefozopran
  CDK     0628171802

 52 56  0  0  0  0  0  0  0  0999 V2000
   -2.5084    2.0452   -3.8790 C   0  0  0  0  0  0  0  0  0  0  0  0
   -2.6952    3.0366   -2.9777 O   0  0  0  0  0  0  0  0  0  0  0  0
   -2.3093    2.3571   -5.0747 O   0  0  0  0  0  0  0  0  0  0  0  0
   -2.4712    0.7136   -3.4947 C   0  0  0  0  0  0  0  0  0  0  0  0
   -1.2587    0.1363   -3.5398 N   0  0  0  0  0  0  0  0  0  0  0  0
   -3.5628    0.0142   -3.0710 C   0  0  0  0  0  0  0  0  0  0  0  0
   -0.8566   -1.2188   -3.6472 C   0  0  1  0  0  0  0  0  0  0  0  0
   -0.0191    0.5881   -3.3228 C   0  0  0  0  0  0  0  0  0  0  0  0
   -4.8976    0.6315   -2.9137 C   0  0  2  0  0  0  0  0  0  0  0  0
   -3.5002   -1.4351   -2.7680 C   0  0  2  0  0  0  0  0  0  0  0  0
    0.5895   -0.7449   -3.2882 C   0  0  1  0  0  0  0  0  0  0  0  0
   -1.8477   -2.1383   -2.4306 S   0  0  0  0  0  0  0  0  0  0  0  0
    0.4446    1.7341   -3.1242 O   0  0  0  0  0  0  0  0  0  0  0  0
   -5.4862    0.4167   -1.6146 N   0  0  0  0  0  0  0  0  0  0  0  0
    1.0353   -1.1475   -1.9905 N   0  0  0  0  0  0  0  0  0  0  0  0
   -4.9932    0.7600   -0.3983 C   0  0  0  0  0  0  0  0  0  0  0  0
   -6.6661   -0.2017   -1.3850 C   0  0  0  0  0  0  0  0  0  0  0  0
    1.9253   -0.4829   -1.2060 C   0  0  0  0  0  0  0  0  0  0  0  0
   -5.8471    0.3516    0.5682 N   0  0  0  0  0  0  0  0  0  0  0  0
   -3.8077    1.4209   -0.0202 C   0  0  0  0  0  0  0  0  0  0  0  0
   -6.8919   -0.2454   -0.0153 C   0  0  0  0  0  0  0  0  0  0  0  0
    2.0956   -0.8418    0.1283 C   0  0  0  0  0  0  0  0  0  0  0  0
    2.5715    0.4897   -1.6633 O   0  0  0  0  0  0  0  0  0  0  0  0
   -5.6417    0.5341    1.8487 N   0  0  0  0  0  0  0  0  0  0  0  0
   -3.5709    1.6213    1.3539 C   0  0  0  0  0  0  0  0  0  0  0  0
    3.2701   -0.8932    0.6562 N   0  0  0  0  0  0  0  0  0  0  0  0
    1.0019   -1.1271    0.9536 C   0  0  0  0  0  0  0  0  0  0  0  0
   -4.5205    1.1652    2.2920 C   0  0  0  0  0  0  0  0  0  0  0  0
    4.3925   -0.6877    0.0697 O   0  0  0  0  0  0  0  0  0  0  0  0
    1.1412   -1.4126    2.2728 N   0  0  0  0  0  0  0  0  0  0  0  0
   -0.2848   -1.1343    0.5010 N   0  0  0  0  0  0  0  0  0  0  0  0
    5.4228   -0.4094    1.0272 C   0  0  0  0  0  0  0  0  0  0  0  0
   -0.4112   -1.6862    2.9179 S   0  0  0  0  0  0  0  0  0  0  0  0
   -1.2342   -1.4348    1.4006 C   0  0  0  0  0  0  0  0  0  0  0  0
   -2.5497   -1.5413    1.1645 N   0  0  0  0  0  0  0  0  0  0  0  0
   -0.9704   -1.5968   -4.6686 H   0  0  0  0  0  0  0  0  0  0  0  0
   -5.5385    0.2193   -3.6979 H   0  0  0  0  0  0  0  0  0  0  0  0
   -4.9026    1.7104   -3.0677 H   0  0  0  0  0  0  0  0  0  0  0  0
   -3.9268   -1.9808   -3.6122 H   0  0  0  0  0  0  0  0  0  0  0  0
   -4.0892   -1.6851   -1.8861 H   0  0  0  0  0  0  0  0  0  0  0  0
    1.3229   -0.9014   -4.0824 H   0  0  0  0  0  0  0  0  0  0  0  0
    0.6439   -1.9549   -1.6206 H   0  0  0  0  0  0  0  0  0  0  0  0
   -7.2941   -0.5880   -2.0928 H   0  0  0  0  0  0  0  0  0  0  0  0
   -3.1336    1.7396   -0.7133 H   0  0  0  0  0  0  0  0  0  0  0  0
   -7.7002   -0.6576    0.4550 H   0  0  0  0  0  0  0  0  0  0  0  0
   -2.7168    2.0894    1.6664 H   0  0  0  0  0  0  0  0  0  0  0  0
   -4.3710    1.3032    3.2934 H   0  0  0  0  0  0  0  0  0  0  0  0
    6.3789   -0.3931    0.5027 H   0  0  0  0  0  0  0  0  0  0  0  0
    5.2669    0.5713    1.4832 H   0  0  0  0  0  0  0  0  0  0  0  0
    5.4736   -1.1750    1.8073 H   0  0  0  0  0  0  0  0  0  0  0  0
   -2.8976   -1.3707    0.2745 H   0  0  0  0  0  0  0  0  0  0  0  0
   -3.1541   -1.7889    1.8820 H   0  0  0  0  0  0  0  0  0  0  0  0
  1  2  1  0  0  0  0 
  1  3  2  0  0  0  0 
  1  4  1  0  0  0  0 
  4  5  1  0  0  0  0 
  4  6  2  0  0  0  0 
  7  5  1  0  0  0  0 
  5  8  1  0  0  0  0 
  6  9  1  0  0  0  0 
  6 10  1  0  0  0  0 
 11  7  1  0  0  0  0 
  7 12  1  0  0  0  0 
  7 36  1  0  0  0  0 
 11  8  1  0  0  0  0 
  8 13  2  0  0  0  0 
  9 14  1  0  0  0  0 
 10 12  1  0  0  0  0 
 11 15  1  0  0  0  0 
 14 16  2  0  0  0  0 
 14 17  1  0  0  0  0 
 15 18  1  0  0  0  0 
 16 19  1  0  0  0  0 
 16 20  1  0  0  0  0 
 17 21  2  0  0  0  0 
 18 22  1  0  0  0  0 
 18 23  2  0  0  0  0 
 19 21  1  0  0  0  0 
 19 24  1  0  0  0  0 
 20 25  2  0  0  0  0 
 22 26  2  0  0  0  0 
 22 27  1  0  0  0  0 
 24 28  2  0  0  0  0 
 25 28  1  0  0  0  0 
 26 29  1  0  0  0  0 
 27 30  2  0  0  0  0 
 27 31  1  0  0  0  0 
 29 32  1  0  0  0  0 
 30 33  1  0  0  0  0 
 31 34  2  0  0  0  0 
 33 34  1  0  0  0  0 
 34 35  1  0  0  0  0 
  9 37  1  0  0  0  0 
  9 38  1  0  0  0  0 
 10 39  1  0  0  0  0 
 10 40  1  0  0  0  0 
 11 41  1  0  0  0  0 
 15 42  1  0  0  0  0 
 17 43  1  0  0  0  0 
 20 44  1  0  0  0  0 
 21 45  1  0  0  0  0 
 25 46  1  0  0  0  0 
 28 47  1  0  0  0  0 
 32 48  1  0  0  0  0 
 32 49  1  0  0  0  0 
 32 50  1  0  0  0  0 
 35 51  1  0  0  0  0 
 35 52  1  0  0  0  0 
M  CHG  1   2  -1
M  CHG  1  14   1
M  END
> <cdk:Title>
cefozopran

> <Conformer>
1

> <SuperDrugID>
SD000479

$$$$
