mecloxamine
  CDK     0628171801

 46 47  0  0  0  0  0  0  0  0999 V2000
   -0.1947   -1.2549    0.0696 C   0  0  2  0  0  0  0  0  0  0  0  0
   -1.3431   -0.7117   -0.6607 O   0  0  0  0  0  0  0  0  0  0  0  0
    0.2914   -2.5769   -0.6222 C   0  0  0  0  0  0  0  0  0  0  0  0
   -0.6378   -1.6304    1.4727 C   0  0  0  0  0  0  0  0  0  0  0  0
    0.8402   -0.1571    0.1934 C   0  0  0  0  0  0  0  0  0  0  0  0
   -1.4025   -0.5388   -2.1035 C   0  0  2  0  0  0  0  0  0  0  0  0
   -1.9888   -1.5258    1.9035 C   0  0  0  0  0  0  0  0  0  0  0  0
    0.3047   -2.1018    2.4277 C   0  0  0  0  0  0  0  0  0  0  0  0
    2.1953   -0.3063   -0.2086 C   0  0  0  0  0  0  0  0  0  0  0  0
    0.4572    1.1000    0.7329 C   0  0  0  0  0  0  0  0  0  0  0  0
   -0.4187    0.5390   -2.6536 C   0  0  1  0  0  0  0  0  0  0  0  0
   -2.8734   -0.1722   -2.4255 C   0  0  0  0  0  0  0  0  0  0  0  0
   -2.3727   -1.8527    3.2188 C   0  0  0  0  0  0  0  0  0  0  0  0
   -0.0738   -2.4338    3.7415 C   0  0  0  0  0  0  0  0  0  0  0  0
    3.1105    0.7573   -0.1081 C   0  0  0  0  0  0  0  0  0  0  0  0
    1.3744    2.1606    0.8459 C   0  0  0  0  0  0  0  0  0  0  0  0
   -0.5516    0.8446   -4.1169 N   0  0  2  0  0  0  0  0  0  0  0  0
   -1.4155   -2.3071    4.1426 C   0  0  0  0  0  0  0  0  0  0  0  0
    2.6999    1.9935    0.4135 C   0  0  0  0  0  0  0  0  0  0  0  0
   -0.1386   -0.2790   -5.0115 C   0  0  0  0  0  0  0  0  0  0  0  0
    0.1081    2.1289   -4.4981 C   0  0  0  0  0  0  0  0  0  0  0  0
   -1.8724   -2.6990    5.7258 Cl  0  0  0  0  0  0  0  0  0  0  0  0
    1.0940   -3.0609   -0.0618 H   0  0  0  0  0  0  0  0  0  0  0  0
    0.6777   -2.3729   -1.6217 H   0  0  0  0  0  0  0  0  0  0  0  0
   -0.5366   -3.2837   -0.7157 H   0  0  0  0  0  0  0  0  0  0  0  0
   -1.2187   -1.4955   -2.5919 H   0  0  0  0  0  0  0  0  0  0  0  0
   -2.7198   -1.2062    1.2656 H   0  0  0  0  0  0  0  0  0  0  0  0
    1.2898   -2.2022    2.1713 H   0  0  0  0  0  0  0  0  0  0  0  0
    2.5408   -1.1879   -0.5882 H   0  0  0  0  0  0  0  0  0  0  0  0
   -0.5035    1.2575    1.0477 H   0  0  0  0  0  0  0  0  0  0  0  0
   -0.5965    1.4488   -2.0726 H   0  0  0  0  0  0  0  0  0  0  0  0
    0.6074    0.2246   -2.4614 H   0  0  0  0  0  0  0  0  0  0  0  0
   -3.0271   -0.0801   -3.5033 H   0  0  0  0  0  0  0  0  0  0  0  0
   -3.5442   -0.9517   -2.0562 H   0  0  0  0  0  0  0  0  0  0  0  0
   -3.1448    0.7726   -1.9498 H   0  0  0  0  0  0  0  0  0  0  0  0
   -3.3534   -1.7569    3.4980 H   0  0  0  0  0  0  0  0  0  0  0  0
    0.6316   -2.7662    4.4035 H   0  0  0  0  0  0  0  0  0  0  0  0
    4.0771    0.6295   -0.4141 H   0  0  0  0  0  0  0  0  0  0  0  0
    1.0749    3.0549    1.2393 H   0  0  0  0  0  0  0  0  0  0  0  0
    3.3632    2.7688    0.4823 H   0  0  0  0  0  0  0  0  0  0  0  0
   -0.7852   -1.1440   -4.8630 H   0  0  0  0  0  0  0  0  0  0  0  0
   -0.2263    0.0069   -6.0618 H   0  0  0  0  0  0  0  0  0  0  0  0
    0.8949   -0.5788   -4.8227 H   0  0  0  0  0  0  0  0  0  0  0  0
   -0.2949    2.9532   -3.9052 H   0  0  0  0  0  0  0  0  0  0  0  0
   -0.0840    2.3615   -5.5488 H   0  0  0  0  0  0  0  0  0  0  0  0
    1.1890    2.0812   -4.3392 H   0  0  0  0  0  0  0  0  0  0  0  0
  1  2  1  0  0  0  0 
  1  3  1  0  0  0  0 
  1  4  1  0  0  0  0 
  1  5  1  0  0  0  0 
  2  6  1  0  0  0  0 
  4  7  2  0  0  0  0 
  4  8  1  0  0  0  0 
  5  9  2  0  0  0  0 
  5 10  1  0  0  0  0 
  6 11  1  0  0  0  0 
  6 12  1  0  0  0  0 
  7 13  1  0  0  0  0 
  8 14  2  0  0  0  0 
  9 15  1  0  0  0  0 
 10 16  2  0  0  0  0 
 11 17  1  0  0  0  0 
 13 18  2  0  0  0  0 
 14 18  1  0  0  0  0 
 15 19  2  0  0  0  0 
 16 19  1  0  0  0  0 
 17 20  1  0  0  0  0 
 17 21  1  0  0  0  0 
 18 22  1  0  0  0  0 
  3 23  1  0  0  0  0 
  3 24  1  0  0  0  0 
  3 25  1  0  0  0  0 
  6 26  1  0  0  0  0 
  7 27  1  0  0  0  0 
  8 28  1  0  0  0  0 
  9 29  1  0  0  0  0 
 10 30  1  0  0  0  0 
 11 31  1  0  0  0  0 
 11 32  1  0  0  0  0 
 12 33  1  0  0  0  0 
 12 34  1  0  0  0  0 
 12 35  1  0  0  0  0 
 13 36  1  0  0  0  0 
 14 37  1  0  0  0  0 
 15 38  1  0  0  0  0 
 16 39  1  0  0  0  0 
 19 40  1  0  0  0  0 
 20 41  1  0  0  0  0 
 20 42  1  0  0  0  0 
 20 43  1  0  0  0  0 
 21 44  1  0  0  0  0 
 21 45  1  0  0  0  0 
 21 46  1  0  0  0  0 
M  END
> <cdk:Title>
mecloxamine

> <Conformer>
1

> <SuperDrugID>
SD001462

$$$$
