posaconazole
  CDK     0628171801

 93 99  0  0  0  0  0  0  0  0999 V2000
    0.7086  -11.3163    2.3082 C   0  0  0  0  0  0  0  0  0  0  0  0
    1.9238  -11.9743    3.0027 C   0  0  2  0  0  0  0  0  0  0  0  0
    2.0399  -11.6434    4.5253 C   0  0  1  0  0  0  0  0  0  0  0  0
    3.1201  -12.5400    5.2180 C   0  0  2  0  0  0  0  0  0  0  0  0
    3.2007  -12.3603    6.7544 C   0  0  0  0  0  0  0  0  0  0  0  0
    4.4075  -12.3118    4.6450 O   0  0  0  0  0  0  0  0  0  0  0  0
    2.2692  -10.2291    4.7403 N   0  0  0  0  0  0  0  0  0  0  0  0
    3.3601   -9.5972    4.4267 N   0  0  0  0  0  0  0  0  0  0  0  0
    3.2433   -8.3260    4.8382 C   0  0  0  0  0  0  0  0  0  0  0  0
    2.0341   -8.1431    5.3948 N   0  0  0  0  0  0  0  0  0  0  0  0
    1.4239   -9.3437    5.3127 C   0  0  0  0  0  0  0  0  0  0  0  0
    0.2681   -9.6075    5.7243 O   0  0  0  0  0  0  0  0  0  0  0  0
    1.5423   -6.9787    5.9317 C   0  0  0  0  0  0  0  0  0  0  0  0
    2.3116   -6.1711    6.7971 C   0  0  0  0  0  0  0  0  0  0  0  0
    1.7782   -4.9935    7.3566 C   0  0  0  0  0  0  0  0  0  0  0  0
    0.4577   -4.5428    7.0684 C   0  0  0  0  0  0  0  0  0  0  0  0
   -0.2985   -5.3891    6.2072 C   0  0  0  0  0  0  0  0  0  0  0  0
    0.2277   -6.5628    5.6457 C   0  0  0  0  0  0  0  0  0  0  0  0
   -0.0624   -3.3301    7.5766 N   0  0  0  0  0  0  0  0  0  0  0  0
    0.7018   -2.5353    8.5346 C   0  0  2  0  0  0  0  0  0  0  0  0
    0.0393   -1.2347    9.0587 C   0  0  2  0  0  0  0  0  0  0  0  0
   -0.7105   -0.6387    7.9829 N   0  0  0  0  0  0  0  0  0  0  0  0
   -1.8324   -1.4362    7.5578 C   0  0  1  0  0  0  0  0  0  0  0  0
   -1.3226   -2.8095    7.0513 C   0  0  2  0  0  0  0  0  0  0  0  0
   -0.3346    0.5308    7.3374 C   0  0  0  0  0  0  0  0  0  0  0  0
   -1.3183    1.4588    6.8989 C   0  0  0  0  0  0  0  0  0  0  0  0
   -0.9287    2.6120    6.1133 C   0  0  0  0  0  0  0  0  0  0  0  0
    0.4671    2.9437    5.7586 C   0  0  0  0  0  0  0  0  0  0  0  0
    0.7772    4.0538    5.0167 O   0  0  0  0  0  0  0  0  0  0  0  0
    1.6513    3.8340    3.8873 C   0  0  1  0  0  0  0  0  0  0  0  0
    1.0096    3.0027    2.7382 C   0  0  2  0  0  0  0  0  0  0  0  0
    1.9158    2.8108    1.5169 C   0  0  1  0  0  0  0  0  0  0  0  0
    1.0392    2.3782    0.4744 O   0  0  0  0  0  0  0  0  0  0  0  0
   -0.2521    3.0142    0.6266 C   0  0  2  0  0  0  0  0  0  0  0  0
   -0.2992    4.0906   -0.5178 C   0  0  2  0  0  0  0  0  0  0  0  0
   -0.4068    3.5413   -1.8406 N   0  0  0  0  0  0  0  0  0  0  0  0
    0.5957    3.3313   -2.7156 C   0  0  0  0  0  0  0  0  0  0  0  0
    0.1026    2.7947   -3.8391 N   0  0  0  0  0  0  0  0  0  0  0  0
   -1.2145    2.6987   -3.6160 C   0  0  0  0  0  0  0  0  0  0  0  0
   -1.5158    3.1610   -2.3934 N   0  0  0  0  0  0  0  0  0  0  0  0
   -0.2205    3.6349    2.0683 C   0  0  2  0  0  0  0  0  0  0  0  0
   -1.3744    2.0029    0.5232 C   0  0  0  0  0  0  0  0  0  0  0  0
   -1.1106    0.6155    0.3627 C   0  0  0  0  0  0  0  0  0  0  0  0
   -2.1502   -0.3296    0.3130 C   0  0  0  0  0  0  0  0  0  0  0  0
   -3.4866    0.0868    0.4211 C   0  0  0  0  0  0  0  0  0  0  0  0
   -4.4530   -0.7892    0.3922 F   0  0  0  0  0  0  0  0  0  0  0  0
   -3.7797    1.4525    0.5689 C   0  0  0  0  0  0  0  0  0  0  0  0
   -2.7393    2.4007    0.6153 C   0  0  0  0  0  0  0  0  0  0  0  0
   -3.0884    3.6525    0.7617 F   0  0  0  0  0  0  0  0  0  0  0  0
    1.4250    1.9634    6.3186 C   0  0  0  0  0  0  0  0  0  0  0  0
    1.0389    0.7895    7.0718 C   0  0  0  0  0  0  0  0  0  0  0  0
   -0.2183  -11.6055    2.8078 H   0  0  0  0  0  0  0  0  0  0  0  0
    0.8009  -10.2291    2.3269 H   0  0  0  0  0  0  0  0  0  0  0  0
    0.6561  -11.6430    1.2673 H   0  0  0  0  0  0  0  0  0  0  0  0
    2.8356  -11.6621    2.4856 H   0  0  0  0  0  0  0  0  0  0  0  0
    1.8268  -13.0570    2.8748 H   0  0  0  0  0  0  0  0  0  0  0  0
    1.0817  -11.9284    4.9754 H   0  0  0  0  0  0  0  0  0  0  0  0
    2.8675  -13.5885    5.0301 H   0  0  0  0  0  0  0  0  0  0  0  0
    2.2353  -12.5779    7.2150 H   0  0  0  0  0  0  0  0  0  0  0  0
    3.9406  -13.0473    7.1703 H   0  0  0  0  0  0  0  0  0  0  0  0
    3.4937  -11.3408    7.0092 H   0  0  0  0  0  0  0  0  0  0  0  0
    4.9638  -13.0510    4.9673 H   0  0  0  0  0  0  0  0  0  0  0  0
    3.9662   -7.6126    4.7252 H   0  0  0  0  0  0  0  0  0  0  0  0
    3.2655   -6.4442    7.0432 H   0  0  0  0  0  0  0  0  0  0  0  0
    2.3883   -4.4708    7.9871 H   0  0  0  0  0  0  0  0  0  0  0  0
   -1.2636   -5.1723    5.9594 H   0  0  0  0  0  0  0  0  0  0  0  0
   -0.3626   -7.1130    5.0181 H   0  0  0  0  0  0  0  0  0  0  0  0
    1.6360   -2.2393    8.0510 H   0  0  0  0  0  0  0  0  0  0  0  0
    0.9566   -3.1444    9.4064 H   0  0  0  0  0  0  0  0  0  0  0  0
    0.7990   -0.5623    9.4679 H   0  0  0  0  0  0  0  0  0  0  0  0
   -0.6290   -1.4783    9.8896 H   0  0  0  0  0  0  0  0  0  0  0  0
   -2.5220   -1.5769    8.3959 H   0  0  0  0  0  0  0  0  0  0  0  0
   -2.4149   -0.9777    6.7535 H   0  0  0  0  0  0  0  0  0  0  0  0
   -2.1238   -3.5284    7.2415 H   0  0  0  0  0  0  0  0  0  0  0  0
   -1.2021   -2.7113    5.9685 H   0  0  0  0  0  0  0  0  0  0  0  0
   -2.3074    1.3261    7.1323 H   0  0  0  0  0  0  0  0  0  0  0  0
   -1.7810    3.1943    5.8219 H   0  0  0  0  0  0  0  0  0  0  0  0
    1.9222    4.8217    3.5069 H   0  0  0  0  0  0  0  0  0  0  0  0
    2.5832    3.3566    4.2030 H   0  0  0  0  0  0  0  0  0  0  0  0
    0.7338    2.0132    3.1188 H   0  0  0  0  0  0  0  0  0  0  0  0
    2.3988    3.7477    1.2241 H   0  0  0  0  0  0  0  0  0  0  0  0
    2.6817    2.0559    1.7025 H   0  0  0  0  0  0  0  0  0  0  0  0
    0.6020    4.7082   -0.4612 H   0  0  0  0  0  0  0  0  0  0  0  0
   -1.1287    4.7793   -0.3609 H   0  0  0  0  0  0  0  0  0  0  0  0
    1.5852    3.5351   -2.5554 H   0  0  0  0  0  0  0  0  0  0  0  0
   -1.8930    2.3273   -4.2823 H   0  0  0  0  0  0  0  0  0  0  0  0
   -0.1155    4.7217    2.0264 H   0  0  0  0  0  0  0  0  0  0  0  0
   -1.1065    3.4134    2.6690 H   0  0  0  0  0  0  0  0  0  0  0  0
   -0.1539    0.2647    0.2893 H   0  0  0  0  0  0  0  0  0  0  0  0
   -1.9304   -1.3213    0.2010 H   0  0  0  0  0  0  0  0  0  0  0  0
   -4.7540    1.7580    0.6476 H   0  0  0  0  0  0  0  0  0  0  0  0
    2.4901    2.0231    6.2126 H   0  0  0  0  0  0  0  0  0  0  0  0
    1.7705    0.1473    7.3857 H   0  0  0  0  0  0  0  0  0  0  0  0
  1  2  1  0  0  0  0 
  3  2  1  0  0  0  0 
  3  4  1  0  0  0  0 
  4  5  1  0  0  0  0 
  4  6  1  0  0  0  0 
  3  7  1  0  0  0  0 
  7  8  1  0  0  0  0 
  8  9  2  0  0  0  0 
  9 10  1  0  0  0  0 
 10 11  1  0  0  0  0 
  7 11  1  0  0  0  0 
 11 12  2  0  0  0  0 
 10 13  1  0  0  0  0 
 13 14  2  0  0  0  0 
 14 15  1  0  0  0  0 
 15 16  2  0  0  0  0 
 16 17  1  0  0  0  0 
 17 18  2  0  0  0  0 
 13 18  1  0  0  0  0 
 16 19  1  0  0  0  0 
 19 20  1  0  0  0  0 
 20 21  1  0  0  0  0 
 21 22  1  0  0  0  0 
 22 23  1  0  0  0  0 
 23 24  1  0  0  0  0 
 19 24  1  0  0  0  0 
 22 25  1  0  0  0  0 
 25 26  2  0  0  0  0 
 26 27  1  0  0  0  0 
 27 28  2  0  0  0  0 
 28 29  1  0  0  0  0 
 29 30  1  0  0  0  0 
 31 30  1  0  0  0  0 
 31 32  1  0  0  0  0 
 32 33  1  0  0  0  0 
 33 34  1  0  0  0  0 
 34 35  1  0  0  0  0 
 35 36  1  0  0  0  0 
 36 37  1  0  0  0  0 
 37 38  2  0  0  0  0 
 38 39  1  0  0  0  0 
 39 40  2  0  0  0  0 
 36 40  1  0  0  0  0 
 34 41  1  0  0  0  0 
 31 41  1  0  0  0  0 
 34 42  1  0  0  0  0 
 42 43  2  0  0  0  0 
 43 44  1  0  0  0  0 
 44 45  2  0  0  0  0 
 45 46  1  0  0  0  0 
 45 47  1  0  0  0  0 
 47 48  2  0  0  0  0 
 42 48  1  0  0  0  0 
 48 49  1  0  0  0  0 
 28 50  1  0  0  0  0 
 50 51  2  0  0  0  0 
 25 51  1  0  0  0  0 
  1 52  1  0  0  0  0 
  1 53  1  0  0  0  0 
  1 54  1  0  0  0  0 
  2 55  1  0  0  0  0 
  2 56  1  0  0  0  0 
  3 57  1  0  0  0  0 
  4 58  1  0  0  0  0 
  5 59  1  0  0  0  0 
  5 60  1  0  0  0  0 
  5 61  1  0  0  0  0 
  6 62  1  0  0  0  0 
  9 63  1  0  0  0  0 
 14 64  1  0  0  0  0 
 15 65  1  0  0  0  0 
 17 66  1  0  0  0  0 
 18 67  1  0  0  0  0 
 20 68  1  0  0  0  0 
 20 69  1  0  0  0  0 
 21 70  1  0  0  0  0 
 21 71  1  0  0  0  0 
 23 72  1  0  0  0  0 
 23 73  1  0  0  0  0 
 24 74  1  0  0  0  0 
 24 75  1  0  0  0  0 
 26 76  1  0  0  0  0 
 27 77  1  0  0  0  0 
 30 78  1  0  0  0  0 
 30 79  1  0  0  0  0 
 31 80  1  0  0  0  0 
 32 81  1  0  0  0  0 
 32 82  1  0  0  0  0 
 35 83  1  0  0  0  0 
 35 84  1  0  0  0  0 
 37 85  1  0  0  0  0 
 39 86  1  0  0  0  0 
 41 87  1  0  0  0  0 
 41 88  1  0  0  0  0 
 43 89  1  0  0  0  0 
 44 90  1  0  0  0  0 
 47 91  1  0  0  0  0 
 50 92  1  0  0  0  0 
 51 93  1  0  0  0  0 
M  END
> <cdk:Title>
posaconazole

> <Conformer>
1

> <SuperDrugID>
SD003003

$$$$
