tegaserod
  CDK     0628171801

 45 46  0  0  0  0  0  0  0  0999 V2000
    1.5433    3.0881   -5.6990 C   0  0  0  0  0  0  0  0  0  0  0  0
    0.5144    3.9394   -5.2447 C   0  0  0  0  0  0  0  0  0  0  0  0
   -0.0306    3.7845   -3.9461 C   0  0  0  0  0  0  0  0  0  0  0  0
    0.4496    2.7620   -3.0918 C   0  0  0  0  0  0  0  0  0  0  0  0
    1.4737    1.9144   -3.5562 C   0  0  0  0  0  0  0  0  0  0  0  0
    2.0110    2.0859   -4.8324 C   0  0  0  0  0  0  0  0  0  0  0  0
    2.1381    0.8351   -2.9662 C   0  0  0  0  0  0  0  0  0  0  0  0
    3.0737    0.4139   -3.9150 C   0  0  0  0  0  0  0  0  0  0  0  0
    2.9724    1.1724   -5.0202 N   0  0  0  0  0  0  0  0  0  0  0  0
    1.9039    0.2348   -1.6277 C   0  0  1  0  0  0  0  0  0  0  0  0
    0.7770   -0.6387   -1.5952 N   0  0  0  0  0  0  0  0  0  0  0  0
   -0.3547   -0.2529   -2.0107 N   0  0  0  0  0  0  0  0  0  0  0  0
   -1.4881   -0.8566   -2.0089 C   0  0  0  0  0  0  0  0  0  0  0  0
   -2.5361   -0.2798   -2.5181 N   0  0  0  0  0  0  0  0  0  0  0  0
   -1.6473   -2.0594   -1.4889 N   0  0  0  0  0  0  0  0  0  0  0  0
   -2.5935    0.6334   -3.4271 C   0  0  0  0  0  0  0  0  0  0  0  0
   -3.8572    1.1972   -3.8479 C   0  0  2  0  0  0  0  0  0  0  0  0
   -4.3409    2.3147   -2.8877 C   0  0  2  0  0  0  0  0  0  0  0  0
   -5.6391    3.0133   -3.3742 C   0  0  2  0  0  0  0  0  0  0  0  0
   -6.1286    4.0942   -2.3839 C   0  0  0  0  0  0  0  0  0  0  0  0
   -1.0551    4.5985   -3.5402 O   0  0  0  0  0  0  0  0  0  0  0  0
   -0.6176    5.7402   -2.7826 C   0  0  0  0  0  0  0  0  0  0  0  0
    1.9388    3.1978   -6.6359 H   0  0  0  0  0  0  0  0  0  0  0  0
    0.1603    4.6746   -5.8620 H   0  0  0  0  0  0  0  0  0  0  0  0
    0.0566    2.6405   -2.1564 H   0  0  0  0  0  0  0  0  0  0  0  0
    3.7313   -0.3577   -3.7969 H   0  0  0  0  0  0  0  0  0  0  0  0
    3.5051    1.0750   -5.8244 H   0  0  0  0  0  0  0  0  0  0  0  0
    2.7780   -0.3444   -1.3248 H   0  0  0  0  0  0  0  0  0  0  0  0
    1.7712    1.0279   -0.8896 H   0  0  0  0  0  0  0  0  0  0  0  0
    0.8773   -1.5332   -1.2331 H   0  0  0  0  0  0  0  0  0  0  0  0
   -0.9009   -2.5191   -1.0700 H   0  0  0  0  0  0  0  0  0  0  0  0
   -2.5152   -2.4916   -1.5308 H   0  0  0  0  0  0  0  0  0  0  0  0
   -1.7611    0.9833   -3.8484 H   0  0  0  0  0  0  0  0  0  0  0  0
   -4.6047    0.4032   -3.8991 H   0  0  0  0  0  0  0  0  0  0  0  0
   -3.7385    1.6150   -4.8509 H   0  0  0  0  0  0  0  0  0  0  0  0
   -3.5557    3.0723   -2.7909 H   0  0  0  0  0  0  0  0  0  0  0  0
   -4.5220    1.8761   -1.9013 H   0  0  0  0  0  0  0  0  0  0  0  0
   -6.4332    2.2718   -3.5035 H   0  0  0  0  0  0  0  0  0  0  0  0
   -5.4572    3.4857   -4.3440 H   0  0  0  0  0  0  0  0  0  0  0  0
   -7.0437    4.5573   -2.7575 H   0  0  0  0  0  0  0  0  0  0  0  0
   -5.3701    4.8696   -2.2636 H   0  0  0  0  0  0  0  0  0  0  0  0
   -6.3375    3.6482   -1.4099 H   0  0  0  0  0  0  0  0  0  0  0  0
   -1.4970    6.3186   -2.4962 H   0  0  0  0  0  0  0  0  0  0  0  0
   -0.1005    5.4372   -1.8691 H   0  0  0  0  0  0  0  0  0  0  0  0
    0.0351    6.3865   -3.3748 H   0  0  0  0  0  0  0  0  0  0  0  0
  1  2  1  0  0  0  0 
  2  3  2  0  0  0  0 
  3  4  1  0  0  0  0 
  4  5  2  0  0  0  0 
  5  6  1  0  0  0  0 
  1  6  2  0  0  0  0 
  7  8  2  0  0  0  0 
  8  9  1  0  0  0  0 
  5  7  1  0  0  0  0 
  6  9  1  0  0  0  0 
 10  7  1  0  0  0  0 
 10 11  1  0  0  0  0 
 12 11  1  0  0  0  0 
 12 13  2  0  0  0  0 
 14 13  1  0  0  0  0 
 13 15  1  0  0  0  0 
 14 16  2  0  0  0  0 
 16 17  1  0  0  0  0 
 17 18  1  0  0  0  0 
 18 19  1  0  0  0  0 
 19 20  1  0  0  0  0 
  3 21  1  0  0  0  0 
 21 22  1  0  0  0  0 
 23  1  1  0  0  0  0 
 24  2  1  0  0  0  0 
 25  4  1  0  0  0  0 
 26  8  1  0  0  0  0 
 27  9  1  0  0  0  0 
 28 10  1  0  0  0  0 
 29 10  1  0  0  0  0 
 30 11  1  0  0  0  0 
 31 15  1  0  0  0  0 
 32 15  1  0  0  0  0 
 33 16  1  0  0  0  0 
 34 17  1  0  0  0  0 
 35 17  1  0  0  0  0 
 36 18  1  0  0  0  0 
 37 18  1  0  0  0  0 
 38 19  1  0  0  0  0 
 39 19  1  0  0  0  0 
 40 20  1  0  0  0  0 
 41 20  1  0  0  0  0 
 42 20  1  0  0  0  0 
 43 22  1  0  0  0  0 
 44 22  1  0  0  0  0 
 45 22  1  0  0  0  0 
M  END
> <cdk:Title>
tegaserod

> <Conformer>
1

> <SuperDrugID>
SD002318

$$$$
