ketanserin
  CDK     0628171801

 51 54  0  0  0  0  0  0  0  0999 V2000
   -8.6901   -4.5109    6.6461 O   0  0  0  0  0  0  0  0  0  0  0  0
   -8.6235   -5.7643    6.6892 C   0  0  0  0  0  0  0  0  0  0  0  0
   -9.2228   -6.4372    7.7835 C   0  0  0  0  0  0  0  0  0  0  0  0
   -7.9612   -6.4628    5.7016 N   0  0  0  0  0  0  0  0  0  0  0  0
   -9.1437   -7.8539    7.7969 C   0  0  0  0  0  0  0  0  0  0  0  0
   -9.8722   -5.7816    8.8587 C   0  0  0  0  0  0  0  0  0  0  0  0
   -7.2289   -5.7668    4.6532 C   0  0  2  0  0  0  0  0  0  0  0  0
   -7.9644   -7.8371    5.7472 C   0  0  0  0  0  0  0  0  0  0  0  0
   -8.5339   -8.5035    6.7786 N   0  0  0  0  0  0  0  0  0  0  0  0
   -9.6905   -8.5932    8.8644 C   0  0  0  0  0  0  0  0  0  0  0  0
  -10.4162   -6.5240    9.9242 C   0  0  0  0  0  0  0  0  0  0  0  0
   -8.1064   -5.3644    3.4364 C   0  0  2  0  0  0  0  0  0  0  0  0
   -7.4438   -8.5557    4.8614 O   0  0  0  0  0  0  0  0  0  0  0  0
  -10.3231   -7.9269    9.9278 C   0  0  0  0  0  0  0  0  0  0  0  0
   -7.4010   -4.5643    2.3831 N   0  0  2  0  0  0  0  0  0  0  0  0
   -6.2905   -5.2706    1.6687 C   0  0  2  0  0  0  0  0  0  0  0  0
   -7.0457   -3.1589    2.7609 C   0  0  1  0  0  0  0  0  0  0  0  0
   -5.9216   -4.5319    0.3584 C   0  0  2  0  0  0  0  0  0  0  0  0
   -6.7001   -2.3205    1.5037 C   0  0  1  0  0  0  0  0  0  0  0  0
   -5.6255   -3.0221    0.6158 C   0  0  2  0  0  0  0  0  0  0  0  0
   -5.2820   -2.2570   -0.6308 C   0  0  0  0  0  0  0  0  0  0  0  0
   -4.1028   -1.8231   -0.6566 O   0  0  0  0  0  0  0  0  0  0  0  0
   -6.1298   -1.9749   -1.7644 C   0  0  0  0  0  0  0  0  0  0  0  0
   -5.6228   -1.2340   -2.8701 C   0  0  0  0  0  0  0  0  0  0  0  0
   -7.4825   -2.3988   -1.8586 C   0  0  0  0  0  0  0  0  0  0  0  0
   -6.4146   -0.9346   -3.9947 C   0  0  0  0  0  0  0  0  0  0  0  0
   -8.2806   -2.1014   -2.9789 C   0  0  0  0  0  0  0  0  0  0  0  0
   -7.7488   -1.3685   -4.0521 C   0  0  0  0  0  0  0  0  0  0  0  0
   -8.4888   -1.0936   -5.0927 F   0  0  0  0  0  0  0  0  0  0  0  0
   -9.9502   -4.7624    8.8785 H   0  0  0  0  0  0  0  0  0  0  0  0
   -6.4037   -6.3818    4.2866 H   0  0  0  0  0  0  0  0  0  0  0  0
   -6.7529   -4.8744    5.0642 H   0  0  0  0  0  0  0  0  0  0  0  0
   -8.4974   -9.4731    6.7919 H   0  0  0  0  0  0  0  0  0  0  0  0
   -9.6268   -9.6142    8.8738 H   0  0  0  0  0  0  0  0  0  0  0  0
  -10.8788   -6.0426   10.6981 H   0  0  0  0  0  0  0  0  0  0  0  0
   -8.9731   -4.7952    3.7832 H   0  0  0  0  0  0  0  0  0  0  0  0
   -8.5022   -6.2711    2.9709 H   0  0  0  0  0  0  0  0  0  0  0  0
  -10.7151   -8.4635   10.7046 H   0  0  0  0  0  0  0  0  0  0  0  0
   -6.5864   -6.2912    1.4118 H   0  0  0  0  0  0  0  0  0  0  0  0
   -5.4023   -5.3310    2.3066 H   0  0  0  0  0  0  0  0  0  0  0  0
   -7.8828   -2.6752    3.2708 H   0  0  0  0  0  0  0  0  0  0  0  0
   -6.1898   -3.1475    3.4431 H   0  0  0  0  0  0  0  0  0  0  0  0
   -6.7382   -4.6670   -0.3475 H   0  0  0  0  0  0  0  0  0  0  0  0
   -5.0341   -5.0057   -0.0728 H   0  0  0  0  0  0  0  0  0  0  0  0
   -7.6207   -2.1427    0.9524 H   0  0  0  0  0  0  0  0  0  0  0  0
   -6.3195   -1.3461    1.8265 H   0  0  0  0  0  0  0  0  0  0  0  0
   -4.7257   -3.0327    1.2465 H   0  0  0  0  0  0  0  0  0  0  0  0
   -4.6583   -0.8937   -2.8794 H   0  0  0  0  0  0  0  0  0  0  0  0
   -7.9271   -2.9337   -1.1179 H   0  0  0  0  0  0  0  0  0  0  0  0
   -6.0172   -0.4001   -4.7714 H   0  0  0  0  0  0  0  0  0  0  0  0
   -9.2523   -2.4219   -3.0100 H   0  0  0  0  0  0  0  0  0  0  0  0
  1  2  2  0  0  0  0 
  2  3  1  0  0  0  0 
  2  4  1  0  0  0  0 
  3  5  1  0  0  0  0 
  3  6  2  0  0  0  0 
  4  7  1  0  0  0  0 
  4  8  1  0  0  0  0 
  5  9  1  0  0  0  0 
  5 10  2  0  0  0  0 
  6 11  1  0  0  0  0 
  7 12  1  0  0  0  0 
  8  9  1  0  0  0  0 
  8 13  2  0  0  0  0 
 10 14  1  0  0  0  0 
 11 14  2  0  0  0  0 
 12 15  1  0  0  0  0 
 15 16  1  0  0  0  0 
 15 17  1  0  0  0  0 
 16 18  1  0  0  0  0 
 17 19  1  0  0  0  0 
 18 20  1  0  0  0  0 
 19 20  1  0  0  0  0 
 20 21  1  0  0  0  0 
 21 22  2  0  0  0  0 
 21 23  1  0  0  0  0 
 23 24  2  0  0  0  0 
 23 25  1  0  0  0  0 
 24 26  1  0  0  0  0 
 25 27  2  0  0  0  0 
 26 28  2  0  0  0  0 
 27 28  1  0  0  0  0 
 28 29  1  0  0  0  0 
 30  6  1  0  0  0  0 
 31  7  1  0  0  0  0 
 32  7  1  0  0  0  0 
 33  9  1  0  0  0  0 
 34 10  1  0  0  0  0 
 35 11  1  0  0  0  0 
 36 12  1  0  0  0  0 
 37 12  1  0  0  0  0 
 38 14  1  0  0  0  0 
 39 16  1  0  0  0  0 
 40 16  1  0  0  0  0 
 41 17  1  0  0  0  0 
 42 17  1  0  0  0  0 
 43 18  1  0  0  0  0 
 44 18  1  0  0  0  0 
 45 19  1  0  0  0  0 
 46 19  1  0  0  0  0 
 47 20  1  0  0  0  0 
 48 24  1  0  0  0  0 
 49 25  1  0  0  0  0 
 50 26  1  0  0  0  0 
 51 27  1  0  0  0  0 
M  END
> <cdk:Title>
ketanserin

> <Conformer>
1

> <SuperDrugID>
SD001347

$$$$
