ixabepilone
  CDK     0628171801

 77 79  0  0  0  0  0  0  0  0999 V2000
    1.8579    0.3235    0.9890 C   0  0  2  0  0  0  0  0  0  0  0  0
    2.5150   -0.1909    2.2217 C   0  0  0  0  0  0  0  0  0  0  0  0
    2.1553    1.8393    0.7554 C   0  0  1  0  0  0  0  0  0  0  0  0
    3.5769   -1.1937    2.0918 C   0  0  0  0  0  0  0  0  0  0  0  0
    2.1026    0.2670    3.4338 C   0  0  0  0  0  0  0  0  0  0  0  0
    2.5421   -0.0766    4.7130 C   0  0  0  0  0  0  0  0  0  0  0  0
    2.8538   -0.1665    7.2361 S   0  0  0  0  0  0  0  0  0  0  0  0
    2.0393    0.5586    5.8642 C   0  0  0  0  0  0  0  0  0  0  0  0
    3.4739   -1.0374    4.9793 N   0  0  0  0  0  0  0  0  0  0  0  0
    3.8120   -1.2694    6.2660 C   0  0  0  0  0  0  0  0  0  0  0  0
    4.7820   -2.2547    6.7469 C   0  0  0  0  0  0  0  0  0  0  0  0
    3.6594    2.2379    0.8085 C   0  0  1  0  0  0  0  0  0  0  0  0
    4.2714    3.6012    0.4596 C   0  0  1  0  0  0  0  0  0  0  0  0
    3.5344    4.8751   -0.0644 C   0  0  1  0  0  0  0  0  0  0  0  0
    1.9946    5.0253    0.1001 C   0  0  2  0  0  0  0  0  0  0  0  0
    3.9046    3.2521    1.8011 O   0  0  0  0  0  0  0  0  0  0  0  0
    5.8160    3.6426    0.3034 C   0  0  0  0  0  0  0  0  0  0  0  0
    1.4542    6.4954    0.0691 C   0  0  1  0  0  0  0  0  0  0  0  0
    1.1189    7.1461    1.4672 C   0  0  1  0  0  0  0  0  0  0  0  0
   -0.4130    7.2064    1.8407 C   0  0  1  0  0  0  0  0  0  0  0  0
    2.0199    6.6782    2.6547 C   0  0  0  0  0  0  0  0  0  0  0  0
   -1.2262    5.8446    1.9034 C   0  0  1  0  0  0  0  0  0  0  0  0
   -0.5347    7.9384    3.0668 O   0  0  0  0  0  0  0  0  0  0  0  0
   -2.2993    5.8395    3.0394 C   0  0  0  0  0  0  0  0  0  0  0  0
   -1.9289    5.4770    0.6175 C   0  0  0  0  0  0  0  0  0  0  0  0
   -2.5495    6.4207    0.0648 O   0  0  0  0  0  0  0  0  0  0  0  0
   -2.1219    4.0949    0.0002 C   0  0  2  0  0  0  0  0  0  0  0  0
   -1.2676    2.9412    0.6824 C   0  0  2  0  0  0  0  0  0  0  0  0
   -1.0908    1.5877   -0.0966 C   0  0  2  0  0  0  0  0  0  0  0  0
   -1.7569    4.2035   -1.5251 C   0  0  0  0  0  0  0  0  0  0  0  0
   -3.6522    3.7558    0.1047 C   0  0  0  0  0  0  0  0  0  0  0  0
   -1.7539    2.6966    2.0059 O   0  0  0  0  0  0  0  0  0  0  0  0
   -0.7295    0.3906    0.7140 C   0  0  0  0  0  0  0  0  0  0  0  0
    0.4850   -0.1138    1.0946 N   0  0  0  0  0  0  0  0  0  0  0  0
   -1.6854   -0.3245    1.0956 O   0  0  0  0  0  0  0  0  0  0  0  0
    4.3771    1.4207    0.9051 H   0  0  0  0  0  0  0  0  0  0  0  0
    2.2383   -0.1915    0.1025 H   0  0  0  0  0  0  0  0  0  0  0  0
    1.7867    2.1212   -0.2289 H   0  0  0  0  0  0  0  0  0  0  0  0
    1.6125    2.3852    1.5212 H   0  0  0  0  0  0  0  0  0  0  0  0
    3.8168   -1.4392    1.0561 H   0  0  0  0  0  0  0  0  0  0  0  0
    4.5000   -0.8335    2.5525 H   0  0  0  0  0  0  0  0  0  0  0  0
    3.2651   -2.1211    2.5766 H   0  0  0  0  0  0  0  0  0  0  0  0
    1.3721    0.9409    3.4198 H   0  0  0  0  0  0  0  0  0  0  0  0
    1.3388    1.2996    5.9102 H   0  0  0  0  0  0  0  0  0  0  0  0
    4.2944   -2.9312    7.4500 H   0  0  0  0  0  0  0  0  0  0  0  0
    5.1752   -2.8337    5.9094 H   0  0  0  0  0  0  0  0  0  0  0  0
    5.6062   -1.7435    7.2456 H   0  0  0  0  0  0  0  0  0  0  0  0
    4.0141    5.7192    0.4321 H   0  0  0  0  0  0  0  0  0  0  0  0
    3.7664    4.9711   -1.1279 H   0  0  0  0  0  0  0  0  0  0  0  0
    1.6847    4.5648    1.0275 H   0  0  0  0  0  0  0  0  0  0  0  0
    1.5275    4.4643   -0.7100 H   0  0  0  0  0  0  0  0  0  0  0  0
    6.0759    3.5059   -0.7473 H   0  0  0  0  0  0  0  0  0  0  0  0
    6.3119    2.8655    0.8887 H   0  0  0  0  0  0  0  0  0  0  0  0
    6.2046    4.6076    0.6363 H   0  0  0  0  0  0  0  0  0  0  0  0
    2.2798    7.1368   -0.3899 H   0  0  0  0  0  0  0  0  0  0  0  0
    0.4774    6.4598   -0.5159 H   0  0  0  0  0  0  0  0  0  0  0  0
    1.3926    8.2018    1.3461 H   0  0  0  0  0  0  0  0  0  0  0  0
   -0.8900    7.8649    1.1102 H   0  0  0  0  0  0  0  0  0  0  0  0
    1.9337    7.3657    3.4965 H   0  0  0  0  0  0  0  0  0  0  0  0
    3.0702    6.6630    2.3626 H   0  0  0  0  0  0  0  0  0  0  0  0
    1.7421    5.6843    3.0074 H   0  0  0  0  0  0  0  0  0  0  0  0
   -0.5119    5.0718    2.1750 H   0  0  0  0  0  0  0  0  0  0  0  0
   -0.0709    8.7871    2.9144 H   0  0  0  0  0  0  0  0  0  0  0  0
   -1.8115    5.8385    4.0174 H   0  0  0  0  0  0  0  0  0  0  0  0
   -2.9383    4.9556    2.9983 H   0  0  0  0  0  0  0  0  0  0  0  0
   -2.9381    6.7240    2.9723 H   0  0  0  0  0  0  0  0  0  0  0  0
   -0.2674    3.3298    0.7947 H   0  0  0  0  0  0  0  0  0  0  0  0
   -0.3631    1.7008   -0.9010 H   0  0  0  0  0  0  0  0  0  0  0  0
   -2.0338    1.3581   -0.5984 H   0  0  0  0  0  0  0  0  0  0  0  0
   -1.9960    3.2875   -2.0684 H   0  0  0  0  0  0  0  0  0  0  0  0
   -2.3098    5.0056   -2.0200 H   0  0  0  0  0  0  0  0  0  0  0  0
   -0.6933    4.4035   -1.6487 H   0  0  0  0  0  0  0  0  0  0  0  0
   -3.8663    2.7624   -0.2917 H   0  0  0  0  0  0  0  0  0  0  0  0
   -4.2579    4.4710   -0.4607 H   0  0  0  0  0  0  0  0  0  0  0  0
   -3.9959    3.7822    1.1424 H   0  0  0  0  0  0  0  0  0  0  0  0
   -1.0866    2.1124    2.4197 H   0  0  0  0  0  0  0  0  0  0  0  0
    0.4007   -0.9654    1.5549 H   0  0  0  0  0  0  0  0  0  0  0  0
  1  2  1  0  0  0  0 
  1  3  1  0  0  0  0 
  2  4  1  0  0  0  0 
  2  5  2  0  0  0  0 
  5  6  1  0  0  0  0 
  8  6  2  0  0  0  0 
  6  9  1  0  0  0  0 
  7  8  1  0  0  0  0 
  7 10  1  0  0  0  0 
  9 10  2  0  0  0  0 
 10 11  1  0  0  0  0 
  3 12  1  0  0  0  0 
 12 13  1  0  0  0  0 
 13 14  1  0  0  0  0 
 14 15  1  0  0  0  0 
 13 16  1  0  0  0  0 
 16 12  1  0  0  0  0 
 13 17  1  0  0  0  0 
 15 18  1  0  0  0  0 
 18 19  1  0  0  0  0 
 19 20  1  0  0  0  0 
 19 21  1  0  0  0  0 
 20 22  1  0  0  0  0 
 20 23  1  0  0  0  0 
 22 24  1  0  0  0  0 
 22 25  1  0  0  0  0 
 25 26  2  0  0  0  0 
 25 27  1  0  0  0  0 
 27 28  1  0  0  0  0 
 28 29  1  0  0  0  0 
 27 30  1  0  0  0  0 
 27 31  1  0  0  0  0 
 28 32  1  0  0  0  0 
 29 33  1  0  0  0  0 
 33 34  1  0  0  0  0 
 33 35  2  0  0  0  0 
  1 34  1  0  0  0  0 
 12 36  1  0  0  0  0 
  1 37  1  0  0  0  0 
  3 38  1  0  0  0  0 
  3 39  1  0  0  0  0 
  4 40  1  0  0  0  0 
  4 41  1  0  0  0  0 
  4 42  1  0  0  0  0 
  5 43  1  0  0  0  0 
  8 44  1  0  0  0  0 
 11 45  1  0  0  0  0 
 11 46  1  0  0  0  0 
 11 47  1  0  0  0  0 
 14 48  1  0  0  0  0 
 14 49  1  0  0  0  0 
 15 50  1  0  0  0  0 
 15 51  1  0  0  0  0 
 17 52  1  0  0  0  0 
 17 53  1  0  0  0  0 
 17 54  1  0  0  0  0 
 18 55  1  0  0  0  0 
 18 56  1  0  0  0  0 
 19 57  1  0  0  0  0 
 20 58  1  0  0  0  0 
 21 59  1  0  0  0  0 
 21 60  1  0  0  0  0 
 21 61  1  0  0  0  0 
 22 62  1  0  0  0  0 
 23 63  1  0  0  0  0 
 24 64  1  0  0  0  0 
 24 65  1  0  0  0  0 
 24 66  1  0  0  0  0 
 28 67  1  0  0  0  0 
 29 68  1  0  0  0  0 
 29 69  1  0  0  0  0 
 30 70  1  0  0  0  0 
 30 71  1  0  0  0  0 
 30 72  1  0  0  0  0 
 31 73  1  0  0  0  0 
 31 74  1  0  0  0  0 
 31 75  1  0  0  0  0 
 32 76  1  0  0  0  0 
 34 77  1  0  0  0  0 
M  END
> <cdk:Title>
ixabepilone

> <Conformer>
1

> <SuperDrugID>
SD001341

$$$$
