sulfamethylthiazole
  CDK     0628171801

 28 29  0  0  0  0  0  0  0  0999 V2000
   -4.0090    2.7753   -0.5942 S   0  0  1  0  0  0  0  0  0  0  0  0
   -2.3983    2.2160   -0.4027 N   0  0  0  0  0  0  0  0  0  0  0  0
   -4.0355    3.8772   -1.7603 O   0  0  0  0  0  0  0  0  0  0  0  0
   -4.9000    1.5242   -1.0632 O   0  0  0  0  0  0  0  0  0  0  0  0
   -4.6625    3.4199    0.9228 C   0  0  0  0  0  0  0  0  0  0  0  0
   -1.4804    2.8024    0.3919 C   0  0  0  0  0  0  0  0  0  0  0  0
   -5.2817    4.6866    0.9799 C   0  0  0  0  0  0  0  0  0  0  0  0
   -4.5517    2.6532    2.0999 C   0  0  0  0  0  0  0  0  0  0  0  0
   -1.6021    3.9061    1.1667 N   0  0  0  0  0  0  0  0  0  0  0  0
    0.1574    2.2134    0.6054 S   0  0  0  0  0  0  0  0  0  0  0  0
   -5.7723    5.1831    2.2030 C   0  0  0  0  0  0  0  0  0  0  0  0
   -5.0382    3.1494    3.3230 C   0  0  0  0  0  0  0  0  0  0  0  0
   -0.5107    4.2746    1.8997 C   0  0  0  0  0  0  0  0  0  0  0  0
    0.6180    3.4564    1.7496 C   0  0  0  0  0  0  0  0  0  0  0  0
   -5.6508    4.4170    3.3790 C   0  0  0  0  0  0  0  0  0  0  0  0
   -0.5264    5.4431    2.7978 C   0  0  0  0  0  0  0  0  0  0  0  0
   -6.1201    4.8961    4.5471 N   0  0  0  0  0  0  0  0  0  0  0  0
   -2.1258    1.4324   -0.9024 H   0  0  0  0  0  0  0  0  0  0  0  0
   -5.3744    5.2576    0.1384 H   0  0  0  0  0  0  0  0  0  0  0  0
   -4.1077    1.7317    2.0721 H   0  0  0  0  0  0  0  0  0  0  0  0
   -6.2192    6.1029    2.2321 H   0  0  0  0  0  0  0  0  0  0  0  0
   -4.9426    2.5808    4.1685 H   0  0  0  0  0  0  0  0  0  0  0  0
    1.5260    3.5555    2.2077 H   0  0  0  0  0  0  0  0  0  0  0  0
    0.2623    6.1437    2.5152 H   0  0  0  0  0  0  0  0  0  0  0  0
   -1.4871    5.9611    2.7487 H   0  0  0  0  0  0  0  0  0  0  0  0
   -0.3598    5.1139    3.8253 H   0  0  0  0  0  0  0  0  0  0  0  0
   -6.0366    4.3715    5.3591 H   0  0  0  0  0  0  0  0  0  0  0  0
   -6.5436    5.7683    4.5781 H   0  0  0  0  0  0  0  0  0  0  0  0
  1  2  1  0  0  0  0 
  1  3  2  0  0  0  0 
  1  4  2  0  0  0  0 
  1  5  1  0  0  0  0 
  2  6  1  0  0  0  0 
  5  7  2  0  0  0  0 
  5  8  1  0  0  0  0 
  6  9  2  0  0  0  0 
  6 10  1  0  0  0  0 
  7 11  1  0  0  0  0 
  8 12  2  0  0  0  0 
  9 13  1  0  0  0  0 
 10 14  1  0  0  0  0 
 11 15  2  0  0  0  0 
 12 15  1  0  0  0  0 
 13 14  2  0  0  0  0 
 13 16  1  0  0  0  0 
 15 17  1  0  0  0  0 
  2 18  1  0  0  0  0 
  7 19  1  0  0  0  0 
  8 20  1  0  0  0  0 
 11 21  1  0  0  0  0 
 12 22  1  0  0  0  0 
 14 23  1  0  0  0  0 
 16 24  1  0  0  0  0 
 16 25  1  0  0  0  0 
 16 26  1  0  0  0  0 
 17 27  1  0  0  0  0 
 17 28  1  0  0  0  0 
M  END
> <cdk:Title>
sulfamethylthiazole

> <Conformer>
1

> <SuperDrugID>
SD002262

$$$$
