oxaprozin
  CDK     0628171801

 37 39  0  0  0  0  0  0  0  0999 V2000
   -1.8456   -0.1288    0.9329 C   0  0  1  0  0  0  0  0  0  0  0  0
   -1.3105    1.2408    0.4381 C   0  0  2  0  0  0  0  0  0  0  0  0
   -2.1512   -0.1565    2.3714 C   0  0  0  0  0  0  0  0  0  0  0  0
   -2.2660    2.3609    0.5450 C   0  0  0  0  0  0  0  0  0  0  0  0
   -3.2532    0.3618    2.9359 N   0  0  0  0  0  0  0  0  0  0  0  0
   -1.3583   -0.7180    3.3098 O   0  0  0  0  0  0  0  0  0  0  0  0
   -1.9438    3.4712    1.2496 O   0  0  0  0  0  0  0  0  0  0  0  0
   -3.3779    2.3129   -0.0301 O   0  0  0  0  0  0  0  0  0  0  0  0
   -3.1838    0.1211    4.2552 C   0  0  0  0  0  0  0  0  0  0  0  0
   -1.9632   -0.5243    4.5017 C   0  0  0  0  0  0  0  0  0  0  0  0
   -4.2268    0.4574    5.1555 C   0  0  0  0  0  0  0  0  0  0  0  0
   -1.3571   -0.8925    5.7276 C   0  0  0  0  0  0  0  0  0  0  0  0
   -4.5935   -0.4114    6.2123 C   0  0  0  0  0  0  0  0  0  0  0  0
   -4.9485    1.6642    4.9929 C   0  0  0  0  0  0  0  0  0  0  0  0
   -1.4276   -0.0503    6.8635 C   0  0  0  0  0  0  0  0  0  0  0  0
   -0.6218   -2.0972    5.8223 C   0  0  0  0  0  0  0  0  0  0  0  0
   -5.6223   -0.0634    7.1069 C   0  0  0  0  0  0  0  0  0  0  0  0
   -5.9834    2.0084    5.8831 C   0  0  0  0  0  0  0  0  0  0  0  0
   -0.7986   -0.4126    8.0678 C   0  0  0  0  0  0  0  0  0  0  0  0
    0.0096   -2.4595    7.0278 C   0  0  0  0  0  0  0  0  0  0  0  0
   -6.3151    1.1483    6.9446 C   0  0  0  0  0  0  0  0  0  0  0  0
   -0.0798   -1.6182    8.1512 C   0  0  0  0  0  0  0  0  0  0  0  0
   -2.7395   -0.4137    0.3740 H   0  0  0  0  0  0  0  0  0  0  0  0
   -1.0827   -0.8855    0.7366 H   0  0  0  0  0  0  0  0  0  0  0  0
   -1.0319    1.1414   -0.6132 H   0  0  0  0  0  0  0  0  0  0  0  0
   -0.3982    1.4857    0.9882 H   0  0  0  0  0  0  0  0  0  0  0  0
   -2.5629    4.2306    1.2822 H   0  0  0  0  0  0  0  0  0  0  0  0
   -4.1219   -1.3112    6.3373 H   0  0  0  0  0  0  0  0  0  0  0  0
   -4.7230    2.3082    4.2289 H   0  0  0  0  0  0  0  0  0  0  0  0
   -1.9262    0.8430    6.8212 H   0  0  0  0  0  0  0  0  0  0  0  0
   -0.5422   -2.7252    5.0166 H   0  0  0  0  0  0  0  0  0  0  0  0
   -5.8679   -0.6943    7.8733 H   0  0  0  0  0  0  0  0  0  0  0  0
   -6.4939    2.8855    5.7595 H   0  0  0  0  0  0  0  0  0  0  0  0
   -0.8596    0.2034    8.8817 H   0  0  0  0  0  0  0  0  0  0  0  0
    0.5348   -3.3345    7.0878 H   0  0  0  0  0  0  0  0  0  0  0  0
   -7.0619    1.4017    7.5956 H   0  0  0  0  0  0  0  0  0  0  0  0
    0.3796   -1.8804    9.0262 H   0  0  0  0  0  0  0  0  0  0  0  0
  1  2  1  0  0  0  0 
  1  3  1  0  0  0  0 
  2  4  1  0  0  0  0 
  3  5  2  0  0  0  0 
  3  6  1  0  0  0  0 
  4  7  1  0  0  0  0 
  4  8  2  0  0  0  0 
  5  9  1  0  0  0  0 
  6 10  1  0  0  0  0 
  9 10  2  0  0  0  0 
  9 11  1  0  0  0  0 
 10 12  1  0  0  0  0 
 11 13  2  0  0  0  0 
 11 14  1  0  0  0  0 
 12 15  2  0  0  0  0 
 12 16  1  0  0  0  0 
 13 17  1  0  0  0  0 
 14 18  2  0  0  0  0 
 15 19  1  0  0  0  0 
 16 20  2  0  0  0  0 
 17 21  2  0  0  0  0 
 18 21  1  0  0  0  0 
 19 22  2  0  0  0  0 
 20 22  1  0  0  0  0 
  1 23  1  0  0  0  0 
  1 24  1  0  0  0  0 
  2 25  1  0  0  0  0 
  2 26  1  0  0  0  0 
  7 27  1  0  0  0  0 
 13 28  1  0  0  0  0 
 14 29  1  0  0  0  0 
 15 30  1  0  0  0  0 
 16 31  1  0  0  0  0 
 17 32  1  0  0  0  0 
 18 33  1  0  0  0  0 
 19 34  1  0  0  0  0 
 20 35  1  0  0  0  0 
 21 36  1  0  0  0  0 
 22 37  1  0  0  0  0 
M  END
> <cdk:Title>
oxaprozin

> <Conformer>
1

> <SuperDrugID>
SD001801

$$$$
