diethylstilbestrol
  CDK     0628171802

 40 41  0  0  0  0  0  0  0  0999 V2000
    6.6885    4.5140   -1.5627 C   0  0  0  0  0  0  0  0  0  0  0  0
    7.0449    3.6807   -0.5421 C   0  0  0  0  0  0  0  0  0  0  0  0
    5.3792    5.1889   -1.6555 C   0  0  1  0  0  0  0  0  0  0  0  0
    7.5873    4.7959   -2.5925 C   0  0  0  0  0  0  0  0  0  0  0  0
    8.2759    2.8600   -0.5404 C   0  0  1  0  0  0  0  0  0  0  0  0
    6.2660    3.5701    0.6179 C   0  0  0  0  0  0  0  0  0  0  0  0
    4.2460    4.2378   -2.1144 C   0  0  0  0  0  0  0  0  0  0  0  0
    8.5373    5.8308   -2.4274 C   0  0  0  0  0  0  0  0  0  0  0  0
    7.5988    4.0382   -3.7861 C   0  0  0  0  0  0  0  0  0  0  0  0
    9.3518    3.3712    0.4454 C   0  0  0  0  0  0  0  0  0  0  0  0
    6.2969    4.6050    1.5850 C   0  0  0  0  0  0  0  0  0  0  0  0
    5.4764    2.4248    0.8761 C   0  0  0  0  0  0  0  0  0  0  0  0
    9.4881    6.0945   -3.4297 C   0  0  0  0  0  0  0  0  0  0  0  0
    8.5513    4.3032   -4.7880 C   0  0  0  0  0  0  0  0  0  0  0  0
    5.5575    4.4990    2.7765 C   0  0  0  0  0  0  0  0  0  0  0  0
    4.7292    2.3242    2.0665 C   0  0  0  0  0  0  0  0  0  0  0  0
    9.4968    5.3329   -4.6131 C   0  0  0  0  0  0  0  0  0  0  0  0
    4.7694    3.3592    3.0216 C   0  0  0  0  0  0  0  0  0  0  0  0
   10.4170    5.6051   -5.5715 O   0  0  0  0  0  0  0  0  0  0  0  0
    4.0497    3.2567    4.1688 O   0  0  0  0  0  0  0  0  0  0  0  0
    5.1096    5.6372   -0.6977 H   0  0  0  0  0  0  0  0  0  0  0  0
    5.4013    6.0189   -2.3705 H   0  0  0  0  0  0  0  0  0  0  0  0
    8.0260    1.8236   -0.2887 H   0  0  0  0  0  0  0  0  0  0  0  0
    8.7442    2.8004   -1.5251 H   0  0  0  0  0  0  0  0  0  0  0  0
    4.1654    3.3658   -1.4662 H   0  0  0  0  0  0  0  0  0  0  0  0
    3.2887    4.7594   -2.0966 H   0  0  0  0  0  0  0  0  0  0  0  0
    4.4287    3.8959   -3.1337 H   0  0  0  0  0  0  0  0  0  0  0  0
    8.5510    6.3956   -1.5744 H   0  0  0  0  0  0  0  0  0  0  0  0
    6.9281    3.2786   -3.9240 H   0  0  0  0  0  0  0  0  0  0  0  0
   10.2537    2.7633    0.3506 H   0  0  0  0  0  0  0  0  0  0  0  0
    9.6072    4.4084    0.2239 H   0  0  0  0  0  0  0  0  0  0  0  0
    9.0017    3.3004    1.4767 H   0  0  0  0  0  0  0  0  0  0  0  0
    6.8646    5.4438    1.4298 H   0  0  0  0  0  0  0  0  0  0  0  0
    5.4416    1.6596    0.1966 H   0  0  0  0  0  0  0  0  0  0  0  0
   10.1780    6.8394   -3.2932 H   0  0  0  0  0  0  0  0  0  0  0  0
    8.5566    3.7413   -5.6419 H   0  0  0  0  0  0  0  0  0  0  0  0
    5.5970    5.2532    3.4646 H   0  0  0  0  0  0  0  0  0  0  0  0
    4.1588    1.4937    2.2361 H   0  0  0  0  0  0  0  0  0  0  0  0
   10.1845    5.0333   -6.3335 H   0  0  0  0  0  0  0  0  0  0  0  0
    4.3357    4.0069    4.7364 H   0  0  0  0  0  0  0  0  0  0  0  0
  1  2  2  0  0  0  0 
  1  3  1  0  0  0  0 
  1  4  1  0  0  0  0 
  2  5  1  0  0  0  0 
  2  6  1  0  0  0  0 
  3  7  1  0  0  0  0 
  4  8  2  0  0  0  0 
  4  9  1  0  0  0  0 
  5 10  1  0  0  0  0 
  6 11  2  0  0  0  0 
  6 12  1  0  0  0  0 
  8 13  1  0  0  0  0 
  9 14  2  0  0  0  0 
 11 15  1  0  0  0  0 
 12 16  2  0  0  0  0 
 13 17  2  0  0  0  0 
 14 17  1  0  0  0  0 
 15 18  2  0  0  0  0 
 16 18  1  0  0  0  0 
 17 19  1  0  0  0  0 
 18 20  1  0  0  0  0 
  3 21  1  0  0  0  0 
  3 22  1  0  0  0  0 
  5 23  1  0  0  0  0 
  5 24  1  0  0  0  0 
  7 25  1  0  0  0  0 
  7 26  1  0  0  0  0 
  7 27  1  0  0  0  0 
  8 28  1  0  0  0  0 
  9 29  1  0  0  0  0 
 10 30  1  0  0  0  0 
 10 31  1  0  0  0  0 
 10 32  1  0  0  0  0 
 11 33  1  0  0  0  0 
 12 34  1  0  0  0  0 
 13 35  1  0  0  0  0 
 14 36  1  0  0  0  0 
 15 37  1  0  0  0  0 
 16 38  1  0  0  0  0 
 19 39  1  0  0  0  0 
 20 40  1  0  0  0  0 
M  END
> <cdk:Title>
diethylstilbestrol

> <Conformer>
1

> <SuperDrugID>
SD000778

$$$$
