doripenem
  CDK     0628171801

 51 53  0  0  0  0  0  0  0  0999 V2000
    4.6138   -9.3390    2.5978 C   0  0  0  0  0  0  0  0  0  0  0  0
    3.4715   -8.6671    1.7993 C   0  0  1  0  0  0  0  0  0  0  0  0
    2.4535   -8.2690    2.7154 O   0  0  0  0  0  0  0  0  0  0  0  0
    3.9359   -7.4174    0.9990 C   0  0  2  0  0  0  0  0  0  0  0  0
    2.8513   -6.7736    0.0563 C   0  0  1  0  0  0  0  0  0  0  0  0
    2.6127   -5.2783   -0.2943 C   0  0  1  0  0  0  0  0  0  0  0  0
    3.3231   -4.2613    0.6367 C   0  0  0  0  0  0  0  0  0  0  0  0
    3.0403   -5.2057   -1.6973 C   0  0  0  0  0  0  0  0  0  0  0  0
    2.6871   -3.8349   -2.6929 S   0  0  0  0  0  0  0  0  0  0  0  0
    1.2152   -4.2454   -3.7098 C   0  0  2  0  0  0  0  0  0  0  0  0
    0.8400   -3.0774   -4.6516 C   0  0  2  0  0  0  0  0  0  0  0  0
   -0.2587   -2.3081   -4.0328 N   0  0  2  0  0  0  0  0  0  0  0  0
   -0.6965   -3.0021   -2.8063 C   0  0  1  0  0  0  0  0  0  0  0  0
   -0.1009   -4.4240   -2.9276 C   0  0  1  0  0  0  0  0  0  0  0  0
   -0.2628   -2.2311   -1.5269 C   0  0  2  0  0  0  0  0  0  0  0  0
   -0.8510   -0.8775   -1.4837 N   0  0  1  0  0  0  0  0  0  0  0  0
   -0.2522    0.0871   -0.1339 S   0  0  1  0  0  0  0  0  0  0  0  0
    3.7600   -6.2829   -2.0556 C   0  0  0  0  0  0  0  0  0  0  0  0
    3.7904   -6.9981   -0.9575 N   0  0  0  0  0  0  0  0  0  0  0  0
    4.6837   -7.6720   -0.2408 C   0  0  0  0  0  0  0  0  0  0  0  0
    5.8208   -8.1364   -0.4833 O   0  0  0  0  0  0  0  0  0  0  0  0
    4.4079   -6.5853   -3.2437 C   0  0  0  0  0  0  0  0  0  0  0  0
    4.4792   -5.7187   -4.2808 O   0  0  0  0  0  0  0  0  0  0  0  0
    4.9698   -7.6936   -3.3975 O   0  0  0  0  0  0  0  0  0  0  0  0
    1.4899    0.2714   -0.2425 N   0  0  1  0  0  0  0  0  0  0  0  0
   -0.9262    1.5400   -0.1957 O   0  0  0  0  0  0  0  0  0  0  0  0
   -0.6229   -0.6167    1.2555 O   0  0  0  0  0  0  0  0  0  0  0  0
    5.3710   -9.7358    1.9195 H   0  0  0  0  0  0  0  0  0  0  0  0
    4.2160  -10.1664    3.1893 H   0  0  0  0  0  0  0  0  0  0  0  0
    5.0874   -8.6264    3.2768 H   0  0  0  0  0  0  0  0  0  0  0  0
    3.0410   -9.4113    1.1232 H   0  0  0  0  0  0  0  0  0  0  0  0
    1.7273   -7.9203    2.1560 H   0  0  0  0  0  0  0  0  0  0  0  0
    4.4508   -6.6871    1.6283 H   0  0  0  0  0  0  0  0  0  0  0  0
    1.9627   -7.3999   -0.0988 H   0  0  0  0  0  0  0  0  0  0  0  0
    1.5395   -5.0906   -0.2214 H   0  0  0  0  0  0  0  0  0  0  0  0
    3.0295   -4.4391    1.6731 H   0  0  0  0  0  0  0  0  0  0  0  0
    4.4083   -4.3460    0.5600 H   0  0  0  0  0  0  0  0  0  0  0  0
    3.0332   -3.2416    0.3748 H   0  0  0  0  0  0  0  0  0  0  0  0
    1.4422   -5.1467   -4.2874 H   0  0  0  0  0  0  0  0  0  0  0  0
    0.4856   -3.4723   -5.6083 H   0  0  0  0  0  0  0  0  0  0  0  0
    1.6827   -2.4133   -4.8551 H   0  0  0  0  0  0  0  0  0  0  0  0
   -1.0428   -2.3688   -4.6873 H   0  0  0  0  0  0  0  0  0  0  0  0
   -1.7890   -3.0674   -2.8071 H   0  0  0  0  0  0  0  0  0  0  0  0
   -0.7836   -5.0508   -3.5135 H   0  0  0  0  0  0  0  0  0  0  0  0
    0.0360   -4.9088   -1.9641 H   0  0  0  0  0  0  0  0  0  0  0  0
    0.8213   -2.1452   -1.4949 H   0  0  0  0  0  0  0  0  0  0  0  0
   -0.5917   -2.7897   -0.6475 H   0  0  0  0  0  0  0  0  0  0  0  0
   -0.5616   -0.3949   -2.3366 H   0  0  0  0  0  0  0  0  0  0  0  0
    4.9627   -5.9675   -5.0990 H   0  0  0  0  0  0  0  0  0  0  0  0
    1.8939   -0.6669   -0.2080 H   0  0  0  0  0  0  0  0  0  0  0  0
    1.6933    0.6479   -1.1707 H   0  0  0  0  0  0  0  0  0  0  0  0
  2  1  1  0  0  0  0 
  2  3  1  0  0  0  0 
  4  2  1  0  0  0  0 
  4  5  1  0  0  0  0 
  5  6  1  0  0  0  0 
  6  7  1  0  0  0  0 
  6  8  1  0  0  0  0 
  8  9  1  0  0  0  0 
 10  9  1  0  0  0  0 
 10 11  1  0  0  0  0 
 11 12  1  0  0  0  0 
 13 12  1  0  0  0  0 
 13 14  1  0  0  0  0 
 10 14  1  0  0  0  0 
 13 15  1  0  0  0  0 
 15 16  1  0  0  0  0 
 16 17  1  0  0  0  0 
  8 18  2  0  0  0  0 
 18 19  1  0  0  0  0 
  5 19  1  0  0  0  0 
 19 20  1  0  0  0  0 
  4 20  1  0  0  0  0 
 20 21  2  0  0  0  0 
 18 22  1  0  0  0  0 
 22 23  1  0  0  0  0 
 22 24  2  0  0  0  0 
 17 25  1  0  0  0  0 
 26 17  2  0  0  0  0 
 17 27  2  0  0  0  0 
 28  1  1  0  0  0  0 
 29  1  1  0  0  0  0 
 30  1  1  0  0  0  0 
  2 31  1  0  0  0  0 
 32  3  1  0  0  0  0 
  4 33  1  0  0  0  0 
  5 34  1  0  0  0  0 
  6 35  1  0  0  0  0 
 36  7  1  0  0  0  0 
 37  7  1  0  0  0  0 
 38  7  1  0  0  0  0 
 10 39  1  0  0  0  0 
 40 11  1  0  0  0  0 
 41 11  1  0  0  0  0 
 42 12  1  0  0  0  0 
 13 43  1  0  0  0  0 
 44 14  1  0  0  0  0 
 45 14  1  0  0  0  0 
 46 15  1  0  0  0  0 
 47 15  1  0  0  0  0 
 48 16  1  0  0  0  0 
 49 23  1  0  0  0  0 
 50 25  1  0  0  0  0 
 51 25  1  0  0  0  0 
M  END
> <cdk:Title>
doripenem

> <Conformer>
1

> <SuperDrugID>
SD003384

$$$$
