phenpromethamine
  CDK     0628171801

 26 26  0  0  0  0  0  0  0  0999 V2000
    1.5511    0.0491    0.1281 C   0  0  0  0  0  0  0  0  0  0  0  0
    0.1120   -0.1064   -0.1636 N   0  0  1  0  0  0  0  0  0  0  0  0
   -0.4364   -1.4485    0.1418 C   0  0  1  0  0  0  0  0  0  0  0  0
   -1.9385   -1.5573   -0.2629 C   0  0  2  0  0  0  0  0  0  0  0  0
   -2.5175   -2.9560    0.0958 C   0  0  0  0  0  0  0  0  0  0  0  0
   -2.1624   -1.2184   -1.7071 C   0  0  0  0  0  0  0  0  0  0  0  0
   -2.9615   -0.1074   -2.0792 C   0  0  0  0  0  0  0  0  0  0  0  0
   -3.1596    0.2188   -3.4329 C   0  0  0  0  0  0  0  0  0  0  0  0
   -2.5620   -0.5601   -4.4387 C   0  0  0  0  0  0  0  0  0  0  0  0
   -1.7616   -1.6618   -4.0904 C   0  0  0  0  0  0  0  0  0  0  0  0
   -1.5664   -1.9873   -2.7370 C   0  0  0  0  0  0  0  0  0  0  0  0
    2.1438   -0.6319   -0.4859 H   0  0  0  0  0  0  0  0  0  0  0  0
    1.8462    1.0719   -0.1075 H   0  0  0  0  0  0  0  0  0  0  0  0
    1.7589   -0.1385    1.1835 H   0  0  0  0  0  0  0  0  0  0  0  0
   -0.3871    0.5659    0.4228 H   0  0  0  0  0  0  0  0  0  0  0  0
    0.1465   -2.2099   -0.3839 H   0  0  0  0  0  0  0  0  0  0  0  0
   -0.3398   -1.6314    1.2164 H   0  0  0  0  0  0  0  0  0  0  0  0
   -2.4814   -0.8410    0.3655 H   0  0  0  0  0  0  0  0  0  0  0  0
   -2.4011   -3.1510    1.1649 H   0  0  0  0  0  0  0  0  0  0  0  0
   -2.0065   -3.7518   -0.4499 H   0  0  0  0  0  0  0  0  0  0  0  0
   -3.5825   -2.9997   -0.1425 H   0  0  0  0  0  0  0  0  0  0  0  0
   -3.4055    0.4754   -1.3661 H   0  0  0  0  0  0  0  0  0  0  0  0
   -3.7387    1.0234   -3.6876 H   0  0  0  0  0  0  0  0  0  0  0  0
   -2.7053   -0.3236   -5.4218 H   0  0  0  0  0  0  0  0  0  0  0  0
   -1.3217   -2.2268   -4.8199 H   0  0  0  0  0  0  0  0  0  0  0  0
   -0.9811   -2.7936   -2.5100 H   0  0  0  0  0  0  0  0  0  0  0  0
  1  2  1  0  0  0  0 
  2  3  1  0  0  0  0 
  4  3  1  0  0  0  0 
  4  5  1  0  0  0  0 
  4  6  1  0  0  0  0 
  6  7  2  0  0  0  0 
  7  8  1  0  0  0  0 
  8  9  2  0  0  0  0 
  9 10  1  0  0  0  0 
 10 11  2  0  0  0  0 
  6 11  1  0  0  0  0 
  1 12  1  0  0  0  0 
  1 13  1  0  0  0  0 
  1 14  1  0  0  0  0 
  2 15  1  0  0  0  0 
  3 16  1  0  0  0  0 
  3 17  1  0  0  0  0 
  4 18  1  0  0  0  0 
  5 19  1  0  0  0  0 
  5 20  1  0  0  0  0 
  5 21  1  0  0  0  0 
  7 22  1  0  0  0  0 
  8 23  1  0  0  0  0 
  9 24  1  0  0  0  0 
 10 25  1  0  0  0  0 
 11 26  1  0  0  0  0 
M  END
> <cdk:Title>
phenpromethamine

> <Conformer>
1

> <SuperDrugID>
SD002983

$$$$
