omoconazole
  CDK     0628171801

 44 46  0  0  0  0  0  0  0  0999 V2000
   -0.1641    0.1820   -4.4773 C   0  0  0  0  0  0  0  0  0  0  0  0
   -0.0636   -1.1915   -4.7728 C   0  0  0  0  0  0  0  0  0  0  0  0
    0.8830   -1.9926   -4.1016 C   0  0  0  0  0  0  0  0  0  0  0  0
    1.7290   -1.4141   -3.1350 C   0  0  0  0  0  0  0  0  0  0  0  0
    1.6265   -0.0433   -2.8391 C   0  0  0  0  0  0  0  0  0  0  0  0
    0.6738    0.7585   -3.4979 C   0  0  0  0  0  0  0  0  0  0  0  0
    1.0090   -3.6439   -4.4519 Cl  0  0  0  0  0  0  0  0  0  0  0  0
    0.5884    2.0850   -3.1698 O   0  0  0  0  0  0  0  0  0  0  0  0
   -0.4527    2.3424   -2.2062 C   0  0  1  0  0  0  0  0  0  0  0  0
   -0.4034    3.8044   -1.7276 C   0  0  2  0  0  0  0  0  0  0  0  0
   -0.3335    4.6947   -2.8618 O   0  0  0  0  0  0  0  0  0  0  0  0
   -0.8899    5.9086   -2.6730 C   0  0  0  0  0  0  0  0  0  0  0  0
   -2.0578    6.1707   -3.3097 C   0  0  0  0  0  0  0  0  0  0  0  0
   -0.1912    6.7938   -1.8486 C   0  0  0  0  0  0  0  0  0  0  0  0
   -2.6227    5.2023   -4.0497 N   0  0  0  0  0  0  0  0  0  0  0  0
   -2.1626    4.7166   -5.2175 C   0  0  0  0  0  0  0  0  0  0  0  0
   -3.0173    3.6974   -5.6113 C   0  0  0  0  0  0  0  0  0  0  0  0
   -3.9895    3.5836   -4.6949 N   0  0  0  0  0  0  0  0  0  0  0  0
   -3.7408    4.5094   -3.7518 C   0  0  0  0  0  0  0  0  0  0  0  0
   -2.7711    7.4448   -3.2606 C   0  0  0  0  0  0  0  0  0  0  0  0
    1.0678    7.2639   -2.2909 C   0  0  0  0  0  0  0  0  0  0  0  0
    1.8444    8.1098   -1.4814 C   0  0  0  0  0  0  0  0  0  0  0  0
    1.3843    8.4882   -0.2081 C   0  0  0  0  0  0  0  0  0  0  0  0
    0.1357    8.0247    0.2509 C   0  0  0  0  0  0  0  0  0  0  0  0
   -0.6567    7.1852   -0.5628 C   0  0  0  0  0  0  0  0  0  0  0  0
   -2.1422    6.6554    0.0695 Cl  0  0  0  0  0  0  0  0  0  0  0  0
    2.3452    9.4905    0.7601 Cl  0  0  0  0  0  0  0  0  0  0  0  0
   -0.8519    0.7576   -4.9690 H   0  0  0  0  0  0  0  0  0  0  0  0
   -0.6842   -1.6022   -5.4752 H   0  0  0  0  0  0  0  0  0  0  0  0
    2.4194   -1.9841   -2.6409 H   0  0  0  0  0  0  0  0  0  0  0  0
    2.2431    0.3695   -2.1357 H   0  0  0  0  0  0  0  0  0  0  0  0
   -1.4310    2.1598   -2.6614 H   0  0  0  0  0  0  0  0  0  0  0  0
   -0.3499    1.6998   -1.3259 H   0  0  0  0  0  0  0  0  0  0  0  0
    0.4827    3.9585   -1.1073 H   0  0  0  0  0  0  0  0  0  0  0  0
   -1.2923    3.9734   -1.1106 H   0  0  0  0  0  0  0  0  0  0  0  0
   -1.3303    5.0290   -5.7233 H   0  0  0  0  0  0  0  0  0  0  0  0
   -2.9240    3.1259   -6.4540 H   0  0  0  0  0  0  0  0  0  0  0  0
   -4.3225    4.6476   -2.9203 H   0  0  0  0  0  0  0  0  0  0  0  0
   -3.1060    7.7169   -4.2637 H   0  0  0  0  0  0  0  0  0  0  0  0
   -2.1568    8.2682   -2.8922 H   0  0  0  0  0  0  0  0  0  0  0  0
   -3.6488    7.3515   -2.6182 H   0  0  0  0  0  0  0  0  0  0  0  0
    1.4358    6.9904   -3.2065 H   0  0  0  0  0  0  0  0  0  0  0  0
    2.7496    8.4421   -1.8241 H   0  0  0  0  0  0  0  0  0  0  0  0
   -0.1925    8.2959    1.1836 H   0  0  0  0  0  0  0  0  0  0  0  0
  1  2  2  0  0  0  0 
  2  3  1  0  0  0  0 
  3  4  2  0  0  0  0 
  4  5  1  0  0  0  0 
  5  6  2  0  0  0  0 
  1  6  1  0  0  0  0 
  3  7  1  0  0  0  0 
  6  8  1  0  0  0  0 
  8  9  1  0  0  0  0 
  9 10  1  0  0  0  0 
 10 11  1  0  0  0  0 
 11 12  1  0  0  0  0 
 12 13  2  0  0  0  0 
 12 14  1  0  0  0  0 
 13 15  1  0  0  0  0 
 16 17  2  0  0  0  0 
 17 18  1  0  0  0  0 
 18 19  2  0  0  0  0 
 15 16  1  0  0  0  0 
 15 19  1  0  0  0  0 
 13 20  1  0  0  0  0 
 21 22  1  0  0  0  0 
 22 23  2  0  0  0  0 
 23 24  1  0  0  0  0 
 24 25  2  0  0  0  0 
 14 21  2  0  0  0  0 
 14 25  1  0  0  0  0 
 25 26  1  0  0  0  0 
 23 27  1  0  0  0  0 
  1 28  1  0  0  0  0 
  2 29  1  0  0  0  0 
  4 30  1  0  0  0  0 
  5 31  1  0  0  0  0 
  9 32  1  0  0  0  0 
  9 33  1  0  0  0  0 
 10 34  1  0  0  0  0 
 10 35  1  0  0  0  0 
 16 36  1  0  0  0  0 
 17 37  1  0  0  0  0 
 19 38  1  0  0  0  0 
 20 39  1  0  0  0  0 
 20 40  1  0  0  0  0 
 20 41  1  0  0  0  0 
 21 42  1  0  0  0  0 
 22 43  1  0  0  0  0 
 24 44  1  0  0  0  0 
M  END
> <cdk:Title>
omoconazole

> <Conformer>
1

> <SuperDrugID>
SD001781

$$$$
