menadoxime
  CDK     0628171801

 29 30  0  0  0  0  0  0  0  0999 V2000
   -1.2510    2.4089    0.1642 O   0  0  0  0  0  0  0  0  0  0  0  0
   -1.3226    1.1576    0.2393 C   0  0  0  0  0  0  0  0  0  0  0  0
   -2.5977    0.5101    0.2030 C   0  0  0  0  0  0  0  0  0  0  0  0
   -0.1507    0.3967    0.3672 C   0  0  0  0  0  0  0  0  0  0  0  0
   -2.6483   -0.9137    0.3319 C   0  0  0  0  0  0  0  0  0  0  0  0
   -3.7987    1.2463    0.0440 C   0  0  0  0  0  0  0  0  0  0  0  0
    1.1656    1.0375    0.3945 C   0  0  0  0  0  0  0  0  0  0  0  0
   -0.2471   -0.9472    0.4883 C   0  0  0  0  0  0  0  0  0  0  0  0
   -1.4412   -1.6368    0.4766 C   0  0  0  0  0  0  0  0  0  0  0  0
   -3.9188   -1.5481    0.3045 C   0  0  0  0  0  0  0  0  0  0  0  0
   -5.0423    0.5912    0.0130 C   0  0  0  0  0  0  0  0  0  0  0  0
   -1.4585   -2.9251    0.5887 N   0  0  0  0  0  0  0  0  0  0  0  0
   -5.1011   -0.8049    0.1449 C   0  0  0  0  0  0  0  0  0  0  0  0
   -0.4345   -3.6927    0.7054 O   0  0  0  0  0  0  0  0  0  0  0  0
   -0.7977   -5.0667    0.8893 C   0  0  1  0  0  0  0  0  0  0  0  0
    0.4437   -5.8584    0.9138 C   0  0  0  0  0  0  0  0  0  0  0  0
    1.2522   -5.8875   -0.1729 O   0  0  0  0  0  0  0  0  0  0  0  0
    0.7765   -6.5121    1.9284 O   0  0  0  0  0  0  0  0  0  0  0  0
   -3.7843    2.2661   -0.0516 H   0  0  0  0  0  0  0  0  0  0  0  0
    1.9570    0.3689    0.0487 H   0  0  0  0  0  0  0  0  0  0  0  0
    1.1936    1.9149   -0.2526 H   0  0  0  0  0  0  0  0  0  0  0  0
    1.3963    1.3479    1.4145 H   0  0  0  0  0  0  0  0  0  0  0  0
    0.5936   -1.4671    0.5964 H   0  0  0  0  0  0  0  0  0  0  0  0
   -4.0017   -2.5622    0.3998 H   0  0  0  0  0  0  0  0  0  0  0  0
   -5.9059    1.1310   -0.1045 H   0  0  0  0  0  0  0  0  0  0  0  0
   -6.0066   -1.2806    0.1242 H   0  0  0  0  0  0  0  0  0  0  0  0
   -1.3435   -5.1872    1.8289 H   0  0  0  0  0  0  0  0  0  0  0  0
   -1.4232   -5.4329    0.0702 H   0  0  0  0  0  0  0  0  0  0  0  0
    2.0774   -6.4179   -0.1630 H   0  0  0  0  0  0  0  0  0  0  0  0
  1  2  2  0  0  0  0 
  2  3  1  0  0  0  0 
  2  4  1  0  0  0  0 
  3  5  2  0  0  0  0 
  3  6  1  0  0  0  0 
  4  7  1  0  0  0  0 
  4  8  2  0  0  0  0 
  5  9  1  0  0  0  0 
  5 10  1  0  0  0  0 
  6 11  2  0  0  0  0 
  8  9  1  0  0  0  0 
  9 12  2  0  0  0  0 
 10 13  2  0  0  0  0 
 11 13  1  0  0  0  0 
 12 14  1  0  0  0  0 
 14 15  1  0  0  0  0 
 15 16  1  0  0  0  0 
 16 17  1  0  0  0  0 
 16 18  2  0  0  0  0 
  6 19  1  0  0  0  0 
  7 20  1  0  0  0  0 
  7 21  1  0  0  0  0 
  7 22  1  0  0  0  0 
  8 23  1  0  0  0  0 
 10 24  1  0  0  0  0 
 11 25  1  0  0  0  0 
 13 26  1  0  0  0  0 
 15 27  1  0  0  0  0 
 15 28  1  0  0  0  0 
 17 29  1  0  0  0  0 
M  END
> <cdk:Title>
menadoxime

> <Conformer>
1

> <SuperDrugID>
SD002880

$$$$
