chlorisondamine
  CDK     0628171802

 40 41  0  0  0  0  0  0  0  0999 V2000
    4.8877    1.8820   -2.6496 Cl  0  0  0  0  0  0  0  0  0  0  0  0
    4.9483    0.5998   -1.5338 C   0  0  0  0  0  0  0  0  0  0  0  0
    4.3998    0.7871   -0.2483 C   0  0  0  0  0  0  0  0  0  0  0  0
    5.5129   -0.6627   -1.8575 C   0  0  0  0  0  0  0  0  0  0  0  0
    4.4109   -0.2354    0.6952 C   0  0  0  0  0  0  0  0  0  0  0  0
    3.7299    1.9709    0.3105 C   0  0  2  0  0  0  0  0  0  0  0  0
    6.1685   -0.9132   -3.4092 Cl  0  0  0  0  0  0  0  0  0  0  0  0
    5.5248   -1.7096   -0.8914 C   0  0  0  0  0  0  0  0  0  0  0  0
    4.9716   -1.4949    0.3996 C   0  0  0  0  0  0  0  0  0  0  0  0
    3.7488    0.2188    1.9267 C   0  0  1  0  0  0  0  0  0  0  0  0
    2.9568    1.4353    1.4969 N   0  0  2  0  0  0  0  0  0  0  0  0
    6.1952   -3.2279   -1.2722 Cl  0  0  0  0  0  0  0  0  0  0  0  0
    4.9394   -2.7098    1.5887 Cl  0  0  0  0  0  0  0  0  0  0  0  0
    1.5118    1.0758    1.1238 C   0  0  2  0  0  0  0  0  0  0  0  0
    2.9214    2.4594    2.6064 C   0  0  0  0  0  0  0  0  0  0  0  0
    1.2816    0.0197   -0.0160 C   0  0  1  0  0  0  0  0  0  0  0  0
   -0.1377   -0.3621   -0.4149 N   0  0  1  0  0  0  0  0  0  0  0  0
   -0.9019    0.8315   -0.9384 C   0  0  0  0  0  0  0  0  0  0  0  0
   -0.0525   -1.3919   -1.5260 C   0  0  0  0  0  0  0  0  0  0  0  0
   -0.8870   -0.9802    0.7421 C   0  0  0  0  0  0  0  0  0  0  0  0
    3.0815    2.4539   -0.4271 H   0  0  0  0  0  0  0  0  0  0  0  0
    4.5156    2.6852    0.5863 H   0  0  0  0  0  0  0  0  0  0  0  0
    3.1139   -0.5623    2.3559 H   0  0  0  0  0  0  0  0  0  0  0  0
    4.5391    0.4458    2.6529 H   0  0  0  0  0  0  0  0  0  0  0  0
    0.9937    1.9926    0.8278 H   0  0  0  0  0  0  0  0  0  0  0  0
    1.0069    0.7032    2.0198 H   0  0  0  0  0  0  0  0  0  0  0  0
    3.9278    2.7559    2.9182 H   0  0  0  0  0  0  0  0  0  0  0  0
    2.3998    3.3658    2.2888 H   0  0  0  0  0  0  0  0  0  0  0  0
    2.4111    2.0659    3.4894 H   0  0  0  0  0  0  0  0  0  0  0  0
    1.7910    0.3935   -0.9071 H   0  0  0  0  0  0  0  0  0  0  0  0
    1.8028   -0.8928    0.2824 H   0  0  0  0  0  0  0  0  0  0  0  0
   -0.3578    1.3349   -1.7438 H   0  0  0  0  0  0  0  0  0  0  0  0
   -1.8775    0.5365   -1.3342 H   0  0  0  0  0  0  0  0  0  0  0  0
   -1.0915    1.5699   -0.1561 H   0  0  0  0  0  0  0  0  0  0  0  0
    0.4716   -1.0000   -2.4032 H   0  0  0  0  0  0  0  0  0  0  0  0
   -1.0431   -1.7117   -1.8622 H   0  0  0  0  0  0  0  0  0  0  0  0
    0.4818   -2.2916   -1.2052 H   0  0  0  0  0  0  0  0  0  0  0  0
   -1.0770   -0.2572    1.5385 H   0  0  0  0  0  0  0  0  0  0  0  0
   -1.8617   -1.3620    0.4262 H   0  0  0  0  0  0  0  0  0  0  0  0
   -0.3316   -1.8160    1.1794 H   0  0  0  0  0  0  0  0  0  0  0  0
  1  2  1  0  0  0  0 
  2  3  2  0  0  0  0 
  2  4  1  0  0  0  0 
  3  5  1  0  0  0  0 
  3  6  1  0  0  0  0 
  4  7  1  0  0  0  0 
  4  8  2  0  0  0  0 
  5  9  2  0  0  0  0 
  5 10  1  0  0  0  0 
  6 11  1  0  0  0  0 
  8  9  1  0  0  0  0 
  8 12  1  0  0  0  0 
  9 13  1  0  0  0  0 
 10 11  1  0  0  0  0 
 11 14  1  0  0  0  0 
 11 15  1  0  0  0  0 
 14 16  1  0  0  0  0 
 16 17  1  0  0  0  0 
 17 18  1  0  0  0  0 
 17 19  1  0  0  0  0 
 17 20  1  0  0  0  0 
  6 21  1  0  0  0  0 
  6 22  1  0  0  0  0 
 10 23  1  0  0  0  0 
 10 24  1  0  0  0  0 
 14 25  1  0  0  0  0 
 14 26  1  0  0  0  0 
 15 27  1  0  0  0  0 
 15 28  1  0  0  0  0 
 15 29  1  0  0  0  0 
 16 30  1  0  0  0  0 
 16 31  1  0  0  0  0 
 18 32  1  0  0  0  0 
 18 33  1  0  0  0  0 
 18 34  1  0  0  0  0 
 19 35  1  0  0  0  0 
 19 36  1  0  0  0  0 
 19 37  1  0  0  0  0 
 20 38  1  0  0  0  0 
 20 39  1  0  0  0  0 
 20 40  1  0  0  0  0 
M  CHG  1  11   1
M  CHG  1  17   1
M  END
> <cdk:Title>
chlorisondamine

> <Conformer>
1

> <SuperDrugID>
SD000522

$$$$
