dinoprostone
  CDK     0628171802

 57 57  0  0  0  0  0  0  0  0999 V2000
    0.9279    0.9470   -7.9348 C   0  0  1  0  0  0  0  0  0  0  0  0
    2.3733    1.0792   -8.0770 C   0  0  0  0  0  0  0  0  0  0  0  0
    0.1833    2.2895   -7.6427 C   0  0  2  0  0  0  0  0  0  0  0  0
    3.2845    1.0979   -7.0839 C   0  0  0  0  0  0  0  0  0  0  0  0
   -1.3219    2.0971   -7.2397 C   0  0  1  0  0  0  0  0  0  0  0  0
    0.1102    3.2398   -8.7667 C   0  0  0  0  0  0  0  0  0  0  0  0
    2.9931    0.9663   -5.6613 C   0  0  2  0  0  0  0  0  0  0  0  0
   -1.5473    2.3607   -5.8182 C   0  0  0  0  0  0  0  0  0  0  0  0
   -2.1424    3.0225   -8.1955 C   0  0  1  0  0  0  0  0  0  0  0  0
    1.0289    3.4311   -9.5966 O   0  0  0  0  0  0  0  0  0  0  0  0
   -1.1281    4.0145   -8.7903 C   0  0  1  0  0  0  0  0  0  0  0  0
    4.2295    1.1470   -4.7322 C   0  0  2  0  0  0  0  0  0  0  0  0
   -1.1537    1.5134   -4.8503 C   0  0  0  0  0  0  0  0  0  0  0  0
   -2.7262    2.2581   -9.2532 O   0  0  0  0  0  0  0  0  0  0  0  0
    3.8824    0.9000   -3.2370 C   0  0  2  0  0  0  0  0  0  0  0  0
   -1.3015    1.8044   -3.4325 C   0  0  2  0  0  0  0  0  0  0  0  0
    4.9964    1.2047   -2.3173 C   0  0  0  0  0  0  0  0  0  0  0  0
   -0.2350    2.8379   -2.9674 C   0  0  1  0  0  0  0  0  0  0  0  0
   -1.1831    0.5874   -2.6933 O   0  0  0  0  0  0  0  0  0  0  0  0
    5.4742    0.2544   -1.4810 O   0  0  0  0  0  0  0  0  0  0  0  0
    5.5021    2.3494   -2.2785 O   0  0  0  0  0  0  0  0  0  0  0  0
   -0.3294    3.1911   -1.4592 C   0  0  2  0  0  0  0  0  0  0  0  0
    0.6599    4.2938   -0.9950 C   0  0  2  0  0  0  0  0  0  0  0  0
    2.1625    3.9132   -1.1097 C   0  0  1  0  0  0  0  0  0  0  0  0
    3.0875    4.9188   -0.3901 C   0  0  0  0  0  0  0  0  0  0  0  0
    0.5238    0.5141   -8.8545 H   0  0  0  0  0  0  0  0  0  0  0  0
    0.7140    0.2331   -7.1365 H   0  0  0  0  0  0  0  0  0  0  0  0
    2.7172    1.1711   -9.0051 H   0  0  0  0  0  0  0  0  0  0  0  0
    0.7217    2.8189   -6.8500 H   0  0  0  0  0  0  0  0  0  0  0  0
    4.2388    1.1957   -7.3521 H   0  0  0  0  0  0  0  0  0  0  0  0
   -1.6423    1.0663   -7.4312 H   0  0  0  0  0  0  0  0  0  0  0  0
    2.5669   -0.0248   -5.4869 H   0  0  0  0  0  0  0  0  0  0  0  0
    2.2517    1.7163   -5.3786 H   0  0  0  0  0  0  0  0  0  0  0  0
   -1.9751    3.2198   -5.5559 H   0  0  0  0  0  0  0  0  0  0  0  0
   -2.9559    3.5596   -7.6944 H   0  0  0  0  0  0  0  0  0  0  0  0
   -1.0244    4.8931   -8.1457 H   0  0  0  0  0  0  0  0  0  0  0  0
   -1.4001    4.3348   -9.8005 H   0  0  0  0  0  0  0  0  0  0  0  0
    4.6167    2.1634   -4.8576 H   0  0  0  0  0  0  0  0  0  0  0  0
    5.0183    0.4501   -5.0300 H   0  0  0  0  0  0  0  0  0  0  0  0
   -0.7068    0.6622   -5.1083 H   0  0  0  0  0  0  0  0  0  0  0  0
   -3.1717    2.9170   -9.8276 H   0  0  0  0  0  0  0  0  0  0  0  0
    3.5789   -0.1439   -3.1098 H   0  0  0  0  0  0  0  0  0  0  0  0
    3.0348    1.5245   -2.9546 H   0  0  0  0  0  0  0  0  0  0  0  0
   -2.3063    2.1946   -3.2426 H   0  0  0  0  0  0  0  0  0  0  0  0
    0.7581    2.4360   -3.1818 H   0  0  0  0  0  0  0  0  0  0  0  0
   -0.3607    3.7612   -3.5424 H   0  0  0  0  0  0  0  0  0  0  0  0
   -1.4240    0.8221   -1.7721 H   0  0  0  0  0  0  0  0  0  0  0  0
    6.1980    0.4686   -0.8555 H   0  0  0  0  0  0  0  0  0  0  0  0
   -0.1632    2.2936   -0.8585 H   0  0  0  0  0  0  0  0  0  0  0  0
   -1.3447    3.5417   -1.2522 H   0  0  0  0  0  0  0  0  0  0  0  0
    0.4346    4.5065    0.0526 H   0  0  0  0  0  0  0  0  0  0  0  0
    0.4698    5.2084   -1.5644 H   0  0  0  0  0  0  0  0  0  0  0  0
    2.3260    2.9241   -0.6726 H   0  0  0  0  0  0  0  0  0  0  0  0
    2.4512    3.8764   -2.1633 H   0  0  0  0  0  0  0  0  0  0  0  0
    4.1262    4.6006   -0.4938 H   0  0  0  0  0  0  0  0  0  0  0  0
    2.9836    5.9160   -0.8227 H   0  0  0  0  0  0  0  0  0  0  0  0
    2.8408    4.9641    0.6724 H   0  0  0  0  0  0  0  0  0  0  0  0
  1  2  1  0  0  0  0 
  2  4  2  0  0  0  0 
  3  1  1  0  0  0  0 
  5  3  1  0  0  0  0 
  3  6  1  0  0  0  0 
  4  7  1  0  0  0  0 
  5  8  1  0  0  0  0 
  9  5  1  0  0  0  0 
  6 10  2  0  0  0  0 
  6 11  1  0  0  0  0 
  7 12  1  0  0  0  0 
  8 13  2  0  0  0  0 
  9 11  1  0  0  0  0 
  9 14  1  0  0  0  0 
 12 15  1  0  0  0  0 
 16 13  1  0  0  0  0 
 15 17  1  0  0  0  0 
 16 18  1  0  0  0  0 
 16 19  1  0  0  0  0 
 17 20  1  0  0  0  0 
 17 21  2  0  0  0  0 
 18 22  1  0  0  0  0 
 22 23  1  0  0  0  0 
 23 24  1  0  0  0  0 
 24 25  1  0  0  0  0 
  1 26  1  0  0  0  0 
  1 27  1  0  0  0  0 
  2 28  1  0  0  0  0 
  3 29  1  0  0  0  0 
  4 30  1  0  0  0  0 
  5 31  1  0  0  0  0 
  7 32  1  0  0  0  0 
  7 33  1  0  0  0  0 
  8 34  1  0  0  0  0 
  9 35  1  0  0  0  0 
 11 36  1  0  0  0  0 
 11 37  1  0  0  0  0 
 12 38  1  0  0  0  0 
 12 39  1  0  0  0  0 
 13 40  1  0  0  0  0 
 14 41  1  0  0  0  0 
 15 42  1  0  0  0  0 
 15 43  1  0  0  0  0 
 16 44  1  0  0  0  0 
 18 45  1  0  0  0  0 
 18 46  1  0  0  0  0 
 19 47  1  0  0  0  0 
 20 48  1  0  0  0  0 
 22 49  1  0  0  0  0 
 22 50  1  0  0  0  0 
 23 51  1  0  0  0  0 
 23 52  1  0  0  0  0 
 24 53  1  0  0  0  0 
 24 54  1  0  0  0  0 
 25 55  1  0  0  0  0 
 25 56  1  0  0  0  0 
 25 57  1  0  0  0  0 
M  END
> <cdk:Title>
dinoprostone

> <Conformer>
1

> <SuperDrugID>
SD000811

$$$$
