pheniramine
  CDK     0628171801

 38 39  0  0  0  0  0  0  0  0999 V2000
    1.3823    2.6483    0.7484 C   0  0  1  0  0  0  0  0  0  0  0  0
    1.6998    1.3670   -0.0945 C   0  0  2  0  0  0  0  0  0  0  0  0
    2.4311    3.0337    1.7496 C   0  0  0  0  0  0  0  0  0  0  0  0
    1.0230    3.8241   -0.0984 C   0  0  0  0  0  0  0  0  0  0  0  0
    0.4917    0.8143   -0.9061 C   0  0  2  0  0  0  0  0  0  0  0  0
    2.0338    3.5628    3.0054 C   0  0  0  0  0  0  0  0  0  0  0  0
    3.8203    2.8982    1.4980 C   0  0  0  0  0  0  0  0  0  0  0  0
    1.9560    4.4063   -0.9061 N   0  0  0  0  0  0  0  0  0  0  0  0
   -0.2840    4.3645   -0.0875 C   0  0  0  0  0  0  0  0  0  0  0  0
   -0.7753    0.6552   -0.1204 N   0  0  1  0  0  0  0  0  0  0  0  0
    2.9813    3.9082    3.9854 C   0  0  0  0  0  0  0  0  0  0  0  0
    4.7700    3.2430    2.4789 C   0  0  0  0  0  0  0  0  0  0  0  0
    1.6981    5.4799   -1.6986 C   0  0  0  0  0  0  0  0  0  0  0  0
   -0.5883    5.4681   -0.9026 C   0  0  0  0  0  0  0  0  0  0  0  0
   -1.9867    0.5451   -0.9822 C   0  0  0  0  0  0  0  0  0  0  0  0
   -0.7396   -0.4132    0.9209 C   0  0  0  0  0  0  0  0  0  0  0  0
    4.3515    3.7436    3.7243 C   0  0  0  0  0  0  0  0  0  0  0  0
    0.4070    6.0356   -1.7164 C   0  0  0  0  0  0  0  0  0  0  0  0
    0.5063    2.3675    1.3431 H   0  0  0  0  0  0  0  0  0  0  0  0
    2.0634    0.5798    0.5722 H   0  0  0  0  0  0  0  0  0  0  0  0
    2.5048    1.5762   -0.8045 H   0  0  0  0  0  0  0  0  0  0  0  0
    0.7717   -0.1410   -1.3600 H   0  0  0  0  0  0  0  0  0  0  0  0
    0.3240    1.5191   -1.7260 H   0  0  0  0  0  0  0  0  0  0  0  0
    1.0421    3.7005    3.2186 H   0  0  0  0  0  0  0  0  0  0  0  0
    4.1582    2.5439    0.6008 H   0  0  0  0  0  0  0  0  0  0  0  0
   -1.0130    3.9623    0.5057 H   0  0  0  0  0  0  0  0  0  0  0  0
    2.6708    4.2792    4.8858 H   0  0  0  0  0  0  0  0  0  0  0  0
    5.7677    3.1302    2.2860 H   0  0  0  0  0  0  0  0  0  0  0  0
    2.4424    5.8800   -2.2751 H   0  0  0  0  0  0  0  0  0  0  0  0
   -1.5324    5.8590   -0.9013 H   0  0  0  0  0  0  0  0  0  0  0  0
   -2.8925    0.5493   -0.3723 H   0  0  0  0  0  0  0  0  0  0  0  0
   -2.0560    1.3946   -1.6648 H   0  0  0  0  0  0  0  0  0  0  0  0
   -1.9629   -0.3759   -1.5691 H   0  0  0  0  0  0  0  0  0  0  0  0
   -0.6550   -1.4018    0.4629 H   0  0  0  0  0  0  0  0  0  0  0  0
    0.0941   -0.2759    1.6070 H   0  0  0  0  0  0  0  0  0  0  0  0
   -1.6469   -0.3752    1.5282 H   0  0  0  0  0  0  0  0  0  0  0  0
    5.0419    3.9928    4.4363 H   0  0  0  0  0  0  0  0  0  0  0  0
    0.1957    6.8408   -2.3095 H   0  0  0  0  0  0  0  0  0  0  0  0
  1  2  1  0  0  0  0 
  1  3  1  0  0  0  0 
  1  4  1  0  0  0  0 
  2  5  1  0  0  0  0 
  3  6  2  0  0  0  0 
  3  7  1  0  0  0  0 
  4  8  2  0  0  0  0 
  4  9  1  0  0  0  0 
  5 10  1  0  0  0  0 
  6 11  1  0  0  0  0 
  7 12  2  0  0  0  0 
  8 13  1  0  0  0  0 
  9 14  2  0  0  0  0 
 10 15  1  0  0  0  0 
 10 16  1  0  0  0  0 
 11 17  2  0  0  0  0 
 12 17  1  0  0  0  0 
 13 18  2  0  0  0  0 
 14 18  1  0  0  0  0 
  1 19  1  0  0  0  0 
  2 20  1  0  0  0  0 
  2 21  1  0  0  0  0 
  5 22  1  0  0  0  0 
  5 23  1  0  0  0  0 
  6 24  1  0  0  0  0 
  7 25  1  0  0  0  0 
  9 26  1  0  0  0  0 
 11 27  1  0  0  0  0 
 12 28  1  0  0  0  0 
 13 29  1  0  0  0  0 
 14 30  1  0  0  0  0 
 15 31  1  0  0  0  0 
 15 32  1  0  0  0  0 
 15 33  1  0  0  0  0 
 16 34  1  0  0  0  0 
 16 35  1  0  0  0  0 
 16 36  1  0  0  0  0 
 17 37  1  0  0  0  0 
 18 38  1  0  0  0  0 
M  END
> <cdk:Title>
pheniramine

> <Conformer>
1

> <SuperDrugID>
SD001912

$$$$
