Ioflupane I-123
  CDK     0628171801

 46 48  0  0  0  0  0  0  0  0999 V2000
   -0.3496    0.9062    0.9875 C   0  0  0  0  0  0  0  0  0  0  0  0
    0.3087    0.1763    0.0400 O   0  0  0  0  0  0  0  0  0  0  0  0
    0.0887    2.0259    1.3446 O   0  0  0  0  0  0  0  0  0  0  0  0
   -1.5883    0.3399    1.5841 C   0  0  2  0  0  0  0  0  0  0  0  0
    1.4834    0.5738   -0.6682 C   0  0  0  0  0  0  0  0  0  0  0  0
   -2.7918    1.3427    1.4280 C   0  0  2  0  0  0  0  0  0  0  0  0
   -1.4362   -0.1601    3.0724 C   0  0  2  0  0  0  0  0  0  0  0  0
   -2.5458    2.4811    2.3593 N   0  0  1  0  0  0  0  0  0  0  0  0
   -4.1572    0.7641    1.8871 C   0  0  1  0  0  0  0  0  0  0  0  0
   -1.7707    0.9548    4.1237 C   0  0  2  0  0  0  0  0  0  0  0  0
   -0.1644   -0.9086    3.3803 C   0  0  0  0  0  0  0  0  0  0  0  0
   -3.1525    3.8129    2.0348 C   0  0  2  0  0  0  0  0  0  0  0  0
   -2.9364    1.8939    3.6719 C   0  0  2  0  0  0  0  0  0  0  0  0
   -4.2657    1.1566    3.3777 C   0  0  1  0  0  0  0  0  0  0  0  0
   -0.1666   -2.3216    3.5191 C   0  0  0  0  0  0  0  0  0  0  0  0
    1.0733   -0.2392    3.5574 C   0  0  0  0  0  0  0  0  0  0  0  0
   -2.6722    4.4185    0.6846 C   0  0  1  0  0  0  0  0  0  0  0  0
    1.0053   -3.0279    3.8520 C   0  0  0  0  0  0  0  0  0  0  0  0
    2.2495   -0.9403    3.8741 C   0  0  0  0  0  0  0  0  0  0  0  0
   -2.8398    5.9549    0.6128 C   0  0  2  0  0  0  0  0  0  0  0  0
    2.2135   -2.3338    4.0335 C   0  0  0  0  0  0  0  0  0  0  0  0
   -2.5349    6.4192   -0.6436 F   0  0  0  0  0  0  0  0  0  0  0  0
    3.9319   -3.3375    4.5321 I   0  0  0  0  0  0  0  0  0  0  0  0
   -1.8362   -0.5412    0.9828 H   0  0  0  0  0  0  0  0  0  0  0  0
    2.3105    0.7388    0.0245 H   0  0  0  0  0  0  0  0  0  0  0  0
    1.7575   -0.2197   -1.3610 H   0  0  0  0  0  0  0  0  0  0  0  0
    1.2905    1.4862   -1.2378 H   0  0  0  0  0  0  0  0  0  0  0  0
   -2.8581    1.6561    0.3815 H   0  0  0  0  0  0  0  0  0  0  0  0
   -2.2506   -0.8834    3.1939 H   0  0  0  0  0  0  0  0  0  0  0  0
   -4.9661    1.2285    1.3170 H   0  0  0  0  0  0  0  0  0  0  0  0
   -4.2170   -0.3188    1.7485 H   0  0  0  0  0  0  0  0  0  0  0  0
   -0.8999    1.5895    4.2959 H   0  0  0  0  0  0  0  0  0  0  0  0
   -2.0247    0.4858    5.0797 H   0  0  0  0  0  0  0  0  0  0  0  0
   -2.8592    4.4993    2.8347 H   0  0  0  0  0  0  0  0  0  0  0  0
   -4.2446    3.7542    2.0261 H   0  0  0  0  0  0  0  0  0  0  0  0
   -3.0873    2.6578    4.4426 H   0  0  0  0  0  0  0  0  0  0  0  0
   -5.1068    1.8399    3.5251 H   0  0  0  0  0  0  0  0  0  0  0  0
   -4.4100    0.2896    4.0281 H   0  0  0  0  0  0  0  0  0  0  0  0
   -1.0284   -2.8540    3.3786 H   0  0  0  0  0  0  0  0  0  0  0  0
    1.1342    0.7745    3.4661 H   0  0  0  0  0  0  0  0  0  0  0  0
   -1.6171    4.1791    0.5309 H   0  0  0  0  0  0  0  0  0  0  0  0
   -3.2422    3.9689   -0.1340 H   0  0  0  0  0  0  0  0  0  0  0  0
    0.9760   -4.0450    3.9625 H   0  0  0  0  0  0  0  0  0  0  0  0
    3.1298   -0.4345    3.9972 H   0  0  0  0  0  0  0  0  0  0  0  0
   -2.1712    6.4380    1.3273 H   0  0  0  0  0  0  0  0  0  0  0  0
   -3.8677    6.2385    0.8438 H   0  0  0  0  0  0  0  0  0  0  0  0
  1  2  1  0  0  0  0 
  1  3  2  0  0  0  0 
  2  5  1  0  0  0  0 
  4  1  1  0  0  0  0 
  4  6  1  0  0  0  0 
  7  4  1  0  0  0  0 
  6  8  1  0  0  0  0 
  6  9  1  0  0  0  0 
  7 10  1  0  0  0  0 
  7 11  1  0  0  0  0 
  8 12  1  0  0  0  0 
  9 14  1  0  0  0  0 
 13 10  1  0  0  0  0 
 11 15  2  0  0  0  0 
 11 16  1  0  0  0  0 
 12 17  1  0  0  0  0 
 13  8  1  0  0  0  0 
 13 14  1  0  0  0  0 
 15 18  1  0  0  0  0 
 16 19  2  0  0  0  0 
 17 20  1  0  0  0  0 
 18 21  2  0  0  0  0 
 19 21  1  0  0  0  0 
 20 22  1  0  0  0  0 
 21 23  1  0  0  0  0 
  4 24  1  0  0  0  0 
  5 25  1  0  0  0  0 
  5 26  1  0  0  0  0 
  5 27  1  0  0  0  0 
  6 28  1  0  0  0  0 
  7 29  1  0  0  0  0 
  9 30  1  0  0  0  0 
  9 31  1  0  0  0  0 
 10 32  1  0  0  0  0 
 10 33  1  0  0  0  0 
 12 34  1  0  0  0  0 
 12 35  1  0  0  0  0 
 13 36  1  0  0  0  0 
 14 37  1  0  0  0  0 
 14 38  1  0  0  0  0 
 15 39  1  0  0  0  0 
 16 40  1  0  0  0  0 
 17 41  1  0  0  0  0 
 17 42  1  0  0  0  0 
 18 43  1  0  0  0  0 
 19 44  1  0  0  0  0 
 20 45  1  0  0  0  0 
 20 46  1  0  0  0  0 
M  ISO  1  23 123
M  END
> <cdk:Title>
Ioflupane I-123

> <Conformer>
1

> <SuperDrugID>
SD003441

$$$$
