acetanilide
  CDK     0628171802

 19 19  0  0  0  0  0  0  0  0999 V2000
   -0.8399   -3.2350   -1.5522 C   0  0  0  0  0  0  0  0  0  0  0  0
    0.0338   -2.2355   -0.9206 C   0  0  0  0  0  0  0  0  0  0  0  0
    1.1030   -2.6247   -0.3954 O   0  0  0  0  0  0  0  0  0  0  0  0
   -0.3778   -0.9354   -0.9222 N   0  0  0  0  0  0  0  0  0  0  0  0
    0.2579    0.1838   -0.4587 C   0  0  0  0  0  0  0  0  0  0  0  0
   -0.5511    1.3238   -0.2470 C   0  0  0  0  0  0  0  0  0  0  0  0
    0.0017    2.5225    0.2401 C   0  0  0  0  0  0  0  0  0  0  0  0
    1.3800    2.6055    0.4990 C   0  0  0  0  0  0  0  0  0  0  0  0
    2.2040    1.4914    0.2666 C   0  0  0  0  0  0  0  0  0  0  0  0
    1.6484    0.2886   -0.2081 C   0  0  0  0  0  0  0  0  0  0  0  0
   -0.3847   -4.2263   -1.5273 H   0  0  0  0  0  0  0  0  0  0  0  0
   -1.7977   -3.2748   -1.0310 H   0  0  0  0  0  0  0  0  0  0  0  0
   -1.0109   -2.9605   -2.5928 H   0  0  0  0  0  0  0  0  0  0  0  0
   -1.2599   -0.7844   -1.2963 H   0  0  0  0  0  0  0  0  0  0  0  0
   -1.5549    1.2897   -0.4425 H   0  0  0  0  0  0  0  0  0  0  0  0
   -0.5983    3.3327    0.4067 H   0  0  0  0  0  0  0  0  0  0  0  0
    1.7860    3.4765    0.8482 H   0  0  0  0  0  0  0  0  0  0  0  0
    3.2092    1.5586    0.4416 H   0  0  0  0  0  0  0  0  0  0  0  0
    2.2765   -0.4957   -0.3782 H   0  0  0  0  0  0  0  0  0  0  0  0
  1  2  1  0  0  0  0 
  2  3  2  0  0  0  0 
  2  4  1  0  0  0  0 
  4  5  1  0  0  0  0 
  5  6  2  0  0  0  0 
  6  7  1  0  0  0  0 
  7  8  2  0  0  0  0 
  8  9  1  0  0  0  0 
  9 10  2  0  0  0  0 
  5 10  1  0  0  0  0 
  1 11  1  0  0  0  0 
  1 12  1  0  0  0  0 
  1 13  1  0  0  0  0 
  4 14  1  0  0  0  0 
  6 15  1  0  0  0  0 
  7 16  1  0  0  0  0 
  8 17  1  0  0  0  0 
  9 18  1  0  0  0  0 
 10 19  1  0  0  0  0 
M  END
> <cdk:Title>
acetanilide

> <Conformer>
1

> <SuperDrugID>
SD000031

$$$$
