sulbactam pivoxyl
  CDK     0628171801

 44 45  0  0  0  0  0  0  0  0999 V2000
   -0.7201   -0.9412   -0.4855 N   0  0  0  0  0  0  0  0  0  0  0  0
    0.0086    0.1214   -0.1528 C   0  0  0  0  0  0  0  0  0  0  0  0
   -0.8893    0.4841    0.9403 C   0  0  1  0  0  0  0  0  0  0  0  0
   -1.6515   -0.8265    0.5753 C   0  0  1  0  0  0  0  0  0  0  0  0
   -3.1254   -0.9106   -0.5055 S   0  0  2  0  0  0  0  0  0  0  0  0
   -2.3528   -1.3640   -2.1264 C   0  0  1  0  0  0  0  0  0  0  0  0
   -0.8740   -1.7078   -1.6830 C   0  0  2  0  0  0  0  0  0  0  0  0
    0.9937    0.6912   -0.6733 O   0  0  0  0  0  0  0  0  0  0  0  0
   -1.5623   -1.6464    1.2927 H   0  0  0  0  0  0  0  0  0  0  0  0
   -3.8817    0.4996   -0.5520 O   0  0  0  0  0  0  0  0  0  0  0  0
   -4.0912   -2.0675    0.0388 O   0  0  0  0  0  0  0  0  0  0  0  0
   -3.1484   -2.5138   -2.8225 C   0  0  0  0  0  0  0  0  0  0  0  0
   -2.3549   -0.1120   -3.0621 C   0  0  0  0  0  0  0  0  0  0  0  0
   -0.5874   -3.1409   -1.4360 C   0  0  0  0  0  0  0  0  0  0  0  0
   -1.1786   -3.7504   -0.5133 O   0  0  0  0  0  0  0  0  0  0  0  0
    0.3067   -3.7933   -2.2382 O   0  0  0  0  0  0  0  0  0  0  0  0
    0.5812   -5.1956   -2.1849 C   0  0  2  0  0  0  0  0  0  0  0  0
    1.6181   -5.5174   -3.1157 O   0  0  0  0  0  0  0  0  0  0  0  0
    2.0779   -6.7743   -3.4060 C   0  0  0  0  0  0  0  0  0  0  0  0
    3.2393   -6.9913   -4.3274 C   0  0  2  0  0  0  0  0  0  0  0  0
    1.5069   -7.7668   -2.8910 O   0  0  0  0  0  0  0  0  0  0  0  0
    4.3679   -7.7404   -3.5464 C   0  0  0  0  0  0  0  0  0  0  0  0
    3.8084   -5.6356   -4.8638 C   0  0  0  0  0  0  0  0  0  0  0  0
    2.7800   -7.8584   -5.5436 C   0  0  0  0  0  0  0  0  0  0  0  0
   -0.4079    0.4641    1.9196 H   0  0  0  0  0  0  0  0  0  0  0  0
   -1.4519    1.3996    0.7459 H   0  0  0  0  0  0  0  0  0  0  0  0
   -0.1583   -1.3528   -2.4320 H   0  0  0  0  0  0  0  0  0  0  0  0
   -4.1526   -2.1793   -3.0945 H   0  0  0  0  0  0  0  0  0  0  0  0
   -2.6338   -2.8367   -3.7301 H   0  0  0  0  0  0  0  0  0  0  0  0
   -3.2567   -3.3794   -2.1670 H   0  0  0  0  0  0  0  0  0  0  0  0
   -1.8520   -0.3396   -4.0050 H   0  0  0  0  0  0  0  0  0  0  0  0
   -1.8350    0.7288   -2.5973 H   0  0  0  0  0  0  0  0  0  0  0  0
   -3.3743    0.2057   -3.2908 H   0  0  0  0  0  0  0  0  0  0  0  0
   -0.3316   -5.7416   -2.4404 H   0  0  0  0  0  0  0  0  0  0  0  0
    0.9025   -5.4740   -1.1787 H   0  0  0  0  0  0  0  0  0  0  0  0
    4.6831   -7.1648   -2.6726 H   0  0  0  0  0  0  0  0  0  0  0  0
    4.0213   -8.7180   -3.2019 H   0  0  0  0  0  0  0  0  0  0  0  0
    5.2428   -7.9021   -4.1810 H   0  0  0  0  0  0  0  0  0  0  0  0
    4.1390   -4.9999   -4.0384 H   0  0  0  0  0  0  0  0  0  0  0  0
    3.0464   -5.0935   -5.4299 H   0  0  0  0  0  0  0  0  0  0  0  0
    4.6634   -5.8006   -5.5241 H   0  0  0  0  0  0  0  0  0  0  0  0
    2.4083   -8.8309   -5.2122 H   0  0  0  0  0  0  0  0  0  0  0  0
    3.6102   -8.0354   -6.2322 H   0  0  0  0  0  0  0  0  0  0  0  0
    1.9805   -7.3587   -6.0957 H   0  0  0  0  0  0  0  0  0  0  0  0
  1  2  1  0  0  0  0 
  4  1  1  0  0  0  0 
  2  3  1  0  0  0  0 
  3  4  1  0  0  0  0 
  5  6  1  0  0  0  0 
  6  7  1  0  0  0  0 
  4  5  1  0  0  0  0 
  1  7  1  0  0  0  0 
  2  8  2  0  0  0  0 
  4  9  1  0  0  0  0 
  5 10  2  0  0  0  0 
  5 11  2  0  0  0  0 
  6 12  1  0  0  0  0 
  6 13  1  0  0  0  0 
  7 14  1  0  0  0  0 
 14 15  2  0  0  0  0 
 14 16  1  0  0  0  0 
 16 17  1  0  0  0  0 
 17 18  1  0  0  0  0 
 18 19  1  0  0  0  0 
 19 20  1  0  0  0  0 
 19 21  2  0  0  0  0 
 20 22  1  0  0  0  0 
 20 23  1  0  0  0  0 
 20 24  1  0  0  0  0 
  3 25  1  0  0  0  0 
  3 26  1  0  0  0  0 
  7 27  1  0  0  0  0 
 12 28  1  0  0  0  0 
 12 29  1  0  0  0  0 
 12 30  1  0  0  0  0 
 13 31  1  0  0  0  0 
 13 32  1  0  0  0  0 
 13 33  1  0  0  0  0 
 17 34  1  0  0  0  0 
 17 35  1  0  0  0  0 
 22 36  1  0  0  0  0 
 22 37  1  0  0  0  0 
 22 38  1  0  0  0  0 
 23 39  1  0  0  0  0 
 23 40  1  0  0  0  0 
 23 41  1  0  0  0  0 
 24 42  1  0  0  0  0 
 24 43  1  0  0  0  0 
 24 44  1  0  0  0  0 
M  END
> <cdk:Title>
sulbactam pivoxyl

> <Conformer>
1

> <SuperDrugID>
SD002240

$$$$
