fedrilate
  CDK     0628171801

 54 56  0  0  0  0  0  0  0  0999 V2000
    1.3824   -6.0331   -1.6083 C   0  0  0  0  0  0  0  0  0  0  0  0
    0.8467   -4.8783   -1.0932 O   0  0  0  0  0  0  0  0  0  0  0  0
    0.7565   -7.1150   -1.5051 O   0  0  0  0  0  0  0  0  0  0  0  0
    2.7335   -5.9632   -2.2582 C   0  0  2  0  0  0  0  0  0  0  0  0
   -0.4496   -4.6777   -0.5008 C   0  0  1  0  0  0  0  0  0  0  0  0
    2.6290   -4.9958   -3.5011 C   0  0  1  0  0  0  0  0  0  0  0  0
    3.2491   -7.3445   -2.8297 C   0  0  2  0  0  0  0  0  0  0  0  0
    3.6785   -5.5017   -1.1564 C   0  0  0  0  0  0  0  0  0  0  0  0
   -0.3322   -4.1126    0.9461 C   0  0  1  0  0  0  0  0  0  0  0  0
   -1.2208   -3.6948   -1.4161 C   0  0  0  0  0  0  0  0  0  0  0  0
    1.8331   -5.6041   -4.6874 C   0  0  1  0  0  0  0  0  0  0  0  0
    2.5195   -7.8281   -4.1154 C   0  0  2  0  0  0  0  0  0  0  0  0
    4.3754   -4.2611   -1.1761 C   0  0  0  0  0  0  0  0  0  0  0  0
    3.8776   -6.3227   -0.0097 C   0  0  0  0  0  0  0  0  0  0  0  0
    0.4039   -5.0143    1.9759 C   0  0  1  0  0  0  0  0  0  0  0  0
    2.4730   -6.8134   -5.1343 O   0  0  0  0  0  0  0  0  0  0  0  0
    5.2270   -3.8739   -0.1232 C   0  0  0  0  0  0  0  0  0  0  0  0
    4.7332   -5.9450    1.0402 C   0  0  0  0  0  0  0  0  0  0  0  0
   -0.0585   -6.4405    2.0687 N   0  0  1  0  0  0  0  0  0  0  0  0
    5.4101   -4.7176    0.9834 C   0  0  0  0  0  0  0  0  0  0  0  0
    0.8300   -7.2470    2.9674 C   0  0  1  0  0  0  0  0  0  0  0  0
   -1.5045   -6.6147    2.4244 C   0  0  2  0  0  0  0  0  0  0  0  0
    0.3824   -8.7269    3.0293 C   0  0  1  0  0  0  0  0  0  0  0  0
   -1.8767   -8.1167    2.4667 C   0  0  2  0  0  0  0  0  0  0  0  0
   -1.0129   -8.8333    3.3689 O   0  0  0  0  0  0  0  0  0  0  0  0
   -1.0156   -5.6144   -0.4747 H   0  0  0  0  0  0  0  0  0  0  0  0
    2.1742   -4.0390   -3.2270 H   0  0  0  0  0  0  0  0  0  0  0  0
    3.6341   -4.7855   -3.8804 H   0  0  0  0  0  0  0  0  0  0  0  0
    3.1562   -8.1383   -2.0829 H   0  0  0  0  0  0  0  0  0  0  0  0
    4.3142   -7.2549   -3.0721 H   0  0  0  0  0  0  0  0  0  0  0  0
    0.1977   -3.1558    0.9040 H   0  0  0  0  0  0  0  0  0  0  0  0
   -1.3344   -3.9031    1.3303 H   0  0  0  0  0  0  0  0  0  0  0  0
   -2.2471   -3.5710   -1.0610 H   0  0  0  0  0  0  0  0  0  0  0  0
   -1.2499   -4.0805   -2.4379 H   0  0  0  0  0  0  0  0  0  0  0  0
   -0.7302   -2.7181   -1.4277 H   0  0  0  0  0  0  0  0  0  0  0  0
    0.7922   -5.7986   -4.4109 H   0  0  0  0  0  0  0  0  0  0  0  0
    1.8260   -4.8963   -5.5208 H   0  0  0  0  0  0  0  0  0  0  0  0
    1.5059   -8.1612   -3.8807 H   0  0  0  0  0  0  0  0  0  0  0  0
    3.0568   -8.6851   -4.5283 H   0  0  0  0  0  0  0  0  0  0  0  0
    4.2728   -3.6088   -1.9525 H   0  0  0  0  0  0  0  0  0  0  0  0
    3.3879   -7.2149    0.0812 H   0  0  0  0  0  0  0  0  0  0  0  0
    1.4669   -4.9989    1.7141 H   0  0  0  0  0  0  0  0  0  0  0  0
    0.3120   -4.5382    2.9598 H   0  0  0  0  0  0  0  0  0  0  0  0
    5.7136   -2.9758   -0.1616 H   0  0  0  0  0  0  0  0  0  0  0  0
    4.8594   -6.5627    1.8447 H   0  0  0  0  0  0  0  0  0  0  0  0
    6.0290   -4.4369    1.7475 H   0  0  0  0  0  0  0  0  0  0  0  0
    1.8606   -7.2187    2.6032 H   0  0  0  0  0  0  0  0  0  0  0  0
    0.8147   -6.8343    3.9816 H   0  0  0  0  0  0  0  0  0  0  0  0
   -2.1471   -6.1404    1.6797 H   0  0  0  0  0  0  0  0  0  0  0  0
   -1.7168   -6.1621    3.3978 H   0  0  0  0  0  0  0  0  0  0  0  0
    0.5790   -9.2242    2.0759 H   0  0  0  0  0  0  0  0  0  0  0  0
    0.9580   -9.2418    3.7997 H   0  0  0  0  0  0  0  0  0  0  0  0
   -1.8205   -8.5485    1.4637 H   0  0  0  0  0  0  0  0  0  0  0  0
   -2.9035   -8.2244    2.8198 H   0  0  0  0  0  0  0  0  0  0  0  0
  1  2  1  0  0  0  0 
  1  3  2  0  0  0  0 
  1  4  1  0  0  0  0 
  2  5  1  0  0  0  0 
  4  6  1  0  0  0  0 
  4  7  1  0  0  0  0 
  4  8  1  0  0  0  0 
  5  9  1  0  0  0  0 
  5 10  1  0  0  0  0 
  6 11  1  0  0  0  0 
  7 12  1  0  0  0  0 
  8 13  2  0  0  0  0 
  8 14  1  0  0  0  0 
  9 15  1  0  0  0  0 
 11 16  1  0  0  0  0 
 12 16  1  0  0  0  0 
 13 17  1  0  0  0  0 
 14 18  2  0  0  0  0 
 15 19  1  0  0  0  0 
 17 20  2  0  0  0  0 
 18 20  1  0  0  0  0 
 19 21  1  0  0  0  0 
 19 22  1  0  0  0  0 
 21 23  1  0  0  0  0 
 22 24  1  0  0  0  0 
 23 25  1  0  0  0  0 
 24 25  1  0  0  0  0 
  5 26  1  0  0  0  0 
  6 27  1  0  0  0  0 
  6 28  1  0  0  0  0 
  7 29  1  0  0  0  0 
  7 30  1  0  0  0  0 
  9 31  1  0  0  0  0 
  9 32  1  0  0  0  0 
 10 33  1  0  0  0  0 
 10 34  1  0  0  0  0 
 10 35  1  0  0  0  0 
 11 36  1  0  0  0  0 
 11 37  1  0  0  0  0 
 12 38  1  0  0  0  0 
 12 39  1  0  0  0  0 
 13 40  1  0  0  0  0 
 14 41  1  0  0  0  0 
 15 42  1  0  0  0  0 
 15 43  1  0  0  0  0 
 17 44  1  0  0  0  0 
 18 45  1  0  0  0  0 
 20 46  1  0  0  0  0 
 21 47  1  0  0  0  0 
 21 48  1  0  0  0  0 
 22 49  1  0  0  0  0 
 22 50  1  0  0  0  0 
 23 51  1  0  0  0  0 
 23 52  1  0  0  0  0 
 24 53  1  0  0  0  0 
 24 54  1  0  0  0  0 
M  END
> <cdk:Title>
fedrilate

> <Conformer>
1

> <SuperDrugID>
SD001016

$$$$
