rebamipide
  CDK     0628171801

 41 43  0  0  0  0  0  0  0  0999 V2000
   -0.4569   -3.2797   -1.1903 O   0  0  0  0  0  0  0  0  0  0  0  0
   -0.9826   -2.0423   -1.0658 C   0  0  0  0  0  0  0  0  0  0  0  0
   -1.3401   -1.4363   -2.1021 O   0  0  0  0  0  0  0  0  0  0  0  0
   -1.1273   -1.4295    0.2773 C   0  0  2  0  0  0  0  0  0  0  0  0
   -2.6235   -1.2267    0.6583 C   0  0  2  0  0  0  0  0  0  0  0  0
   -3.3337   -2.5350    0.8003 C   0  0  0  0  0  0  0  0  0  0  0  0
   -4.0517   -3.0186   -0.3211 C   0  0  0  0  0  0  0  0  0  0  0  0
   -4.6483   -4.2873   -0.2833 C   0  0  0  0  0  0  0  0  0  0  0  0
   -5.2527   -4.7387   -1.2819 O   0  0  0  0  0  0  0  0  0  0  0  0
   -4.5571   -5.0415    0.8352 N   0  0  0  0  0  0  0  0  0  0  0  0
   -3.9030   -4.6198    1.9487 C   0  0  0  0  0  0  0  0  0  0  0  0
   -3.8558   -5.4757    3.0692 C   0  0  0  0  0  0  0  0  0  0  0  0
   -3.1660   -5.0873    4.2301 C   0  0  0  0  0  0  0  0  0  0  0  0
   -2.5243   -3.8401    4.2753 C   0  0  0  0  0  0  0  0  0  0  0  0
   -2.5695   -2.9812    3.1612 C   0  0  0  0  0  0  0  0  0  0  0  0
   -3.2597   -3.3462    1.9736 C   0  0  0  0  0  0  0  0  0  0  0  0
   -0.4324   -0.1792    0.3276 N   0  0  0  0  0  0  0  0  0  0  0  0
    0.9215   -0.0079    0.2126 C   0  0  0  0  0  0  0  0  0  0  0  0
    1.6417   -1.0273    0.0729 O   0  0  0  0  0  0  0  0  0  0  0  0
    1.5282    1.2848    0.2621 C   0  0  0  0  0  0  0  0  0  0  0  0
    2.9398    1.4290    0.2106 C   0  0  0  0  0  0  0  0  0  0  0  0
    3.5529    2.6910    0.3127 C   0  0  0  0  0  0  0  0  0  0  0  0
    2.7680    3.8473    0.4619 C   0  0  0  0  0  0  0  0  0  0  0  0
    3.5074    5.3611    0.6303 Cl  0  0  0  0  0  0  0  0  0  0  0  0
    1.3665    3.7342    0.4740 C   0  0  0  0  0  0  0  0  0  0  0  0
    0.7561    2.4707    0.3707 C   0  0  0  0  0  0  0  0  0  0  0  0
   -0.3535   -3.6737   -2.0794 H   0  0  0  0  0  0  0  0  0  0  0  0
   -0.6774   -2.0922    1.0235 H   0  0  0  0  0  0  0  0  0  0  0  0
   -3.1031   -0.6088   -0.1060 H   0  0  0  0  0  0  0  0  0  0  0  0
   -2.7087   -0.6536    1.5836 H   0  0  0  0  0  0  0  0  0  0  0  0
   -4.1208   -2.4665   -1.1811 H   0  0  0  0  0  0  0  0  0  0  0  0
   -4.9704   -5.9183    0.8401 H   0  0  0  0  0  0  0  0  0  0  0  0
   -4.3111   -6.3914    3.0439 H   0  0  0  0  0  0  0  0  0  0  0  0
   -3.1252   -5.7122    5.0389 H   0  0  0  0  0  0  0  0  0  0  0  0
   -2.0211   -3.5571    5.1210 H   0  0  0  0  0  0  0  0  0  0  0  0
   -2.0812   -2.0893    3.2413 H   0  0  0  0  0  0  0  0  0  0  0  0
   -0.9789    0.6101    0.4547 H   0  0  0  0  0  0  0  0  0  0  0  0
    3.5452    0.6107    0.1036 H   0  0  0  0  0  0  0  0  0  0  0  0
    4.5719    2.7596    0.2808 H   0  0  0  0  0  0  0  0  0  0  0  0
    0.7833    4.5690    0.5606 H   0  0  0  0  0  0  0  0  0  0  0  0
   -0.2652    2.4387    0.3801 H   0  0  0  0  0  0  0  0  0  0  0  0
  1  2  1  0  0  0  0 
  2  3  2  0  0  0  0 
  4  2  1  0  0  0  0 
  4  5  1  0  0  0  0 
  5  6  1  0  0  0  0 
  6  7  2  0  0  0  0 
  7  8  1  0  0  0  0 
  8  9  2  0  0  0  0 
  8 10  1  0  0  0  0 
 10 11  1  0  0  0  0 
 11 12  2  0  0  0  0 
 12 13  1  0  0  0  0 
 13 14  2  0  0  0  0 
 14 15  1  0  0  0  0 
 15 16  2  0  0  0  0 
  6 16  1  0  0  0  0 
 11 16  1  0  0  0  0 
  4 17  1  0  0  0  0 
 17 18  1  0  0  0  0 
 18 19  2  0  0  0  0 
 18 20  1  0  0  0  0 
 20 21  2  0  0  0  0 
 21 22  1  0  0  0  0 
 22 23  2  0  0  0  0 
 23 24  1  0  0  0  0 
 23 25  1  0  0  0  0 
 25 26  2  0  0  0  0 
 20 26  1  0  0  0  0 
  1 27  1  0  0  0  0 
  4 28  1  0  0  0  0 
  5 29  1  0  0  0  0 
  5 30  1  0  0  0  0 
  7 31  1  0  0  0  0 
 10 32  1  0  0  0  0 
 12 33  1  0  0  0  0 
 13 34  1  0  0  0  0 
 14 35  1  0  0  0  0 
 15 36  1  0  0  0  0 
 17 37  1  0  0  0  0 
 21 38  1  0  0  0  0 
 22 39  1  0  0  0  0 
 25 40  1  0  0  0  0 
 26 41  1  0  0  0  0 
M  END
> <cdk:Title>
rebamipide

> <Conformer>
1

> <SuperDrugID>
SD002123

$$$$
