practolol
  CDK     0628171801

 41 41  0  0  0  0  0  0  0  0999 V2000
   -0.0654   -0.5714   -4.8770 O   0  0  0  0  0  0  0  0  0  0  0  0
   -0.4527    0.7234   -5.3838 C   0  0  2  0  0  0  0  0  0  0  0  0
    0.0420   -0.5788   -3.5154 C   0  0  0  0  0  0  0  0  0  0  0  0
   -0.9324    0.5845   -6.8458 C   0  0  2  0  0  0  0  0  0  0  0  0
    1.2242   -0.1509   -2.8852 C   0  0  0  0  0  0  0  0  0  0  0  0
   -1.0542   -0.9941   -2.7378 C   0  0  0  0  0  0  0  0  0  0  0  0
   -2.1433   -0.3751   -6.9745 C   0  0  2  0  0  0  0  0  0  0  0  0
    0.1383    0.1059   -7.6584 O   0  0  0  0  0  0  0  0  0  0  0  0
    1.2895   -0.0915   -1.4825 C   0  0  0  0  0  0  0  0  0  0  0  0
   -0.9885   -0.9283   -1.3342 C   0  0  0  0  0  0  0  0  0  0  0  0
   -2.5832   -0.4266   -8.3855 N   0  0  1  0  0  0  0  0  0  0  0  0
    0.1836   -0.4662   -0.6842 C   0  0  0  0  0  0  0  0  0  0  0  0
   -3.8034   -1.2210   -8.6849 C   0  0  1  0  0  0  0  0  0  0  0  0
    0.3315   -0.3141    0.6712 N   0  0  0  0  0  0  0  0  0  0  0  0
   -4.1700   -0.9491  -10.1659 C   0  0  0  0  0  0  0  0  0  0  0  0
   -3.6194   -2.7440   -8.4397 C   0  0  0  0  0  0  0  0  0  0  0  0
   -0.3936   -0.8430    1.6984 C   0  0  0  0  0  0  0  0  0  0  0  0
   -0.0582   -0.4454    3.0768 C   0  0  0  0  0  0  0  0  0  0  0  0
   -1.3244   -1.6641    1.5302 O   0  0  0  0  0  0  0  0  0  0  0  0
    0.4053    1.4008   -5.3476 H   0  0  0  0  0  0  0  0  0  0  0  0
   -1.2666    1.1707   -4.8007 H   0  0  0  0  0  0  0  0  0  0  0  0
   -1.2179    1.5770   -7.2063 H   0  0  0  0  0  0  0  0  0  0  0  0
    2.0301    0.1295   -3.4494 H   0  0  0  0  0  0  0  0  0  0  0  0
   -1.9083   -1.3258   -3.1932 H   0  0  0  0  0  0  0  0  0  0  0  0
   -2.9607   -0.0268   -6.3351 H   0  0  0  0  0  0  0  0  0  0  0  0
   -1.8422   -1.3720   -6.6470 H   0  0  0  0  0  0  0  0  0  0  0  0
    0.8734    0.7399   -7.5186 H   0  0  0  0  0  0  0  0  0  0  0  0
    2.1573    0.2327   -1.0484 H   0  0  0  0  0  0  0  0  0  0  0  0
   -1.8157   -1.2019   -0.8071 H   0  0  0  0  0  0  0  0  0  0  0  0
   -2.7981    0.5397   -8.6455 H   0  0  0  0  0  0  0  0  0  0  0  0
   -4.6321   -0.8625   -8.0638 H   0  0  0  0  0  0  0  0  0  0  0  0
    1.0682    0.2566    0.9423 H   0  0  0  0  0  0  0  0  0  0  0  0
   -5.0871   -1.4758  -10.4383 H   0  0  0  0  0  0  0  0  0  0  0  0
   -3.3654   -1.2804  -10.8267 H   0  0  0  0  0  0  0  0  0  0  0  0
   -4.3328    0.1190  -10.3254 H   0  0  0  0  0  0  0  0  0  0  0  0
   -4.4985   -3.2957   -8.7815 H   0  0  0  0  0  0  0  0  0  0  0  0
   -3.4915   -2.9509   -7.3760 H   0  0  0  0  0  0  0  0  0  0  0  0
   -2.7442   -3.1151   -8.9767 H   0  0  0  0  0  0  0  0  0  0  0  0
   -0.7039   -0.9534    3.7997 H   0  0  0  0  0  0  0  0  0  0  0  0
    0.9813   -0.6961    3.3029 H   0  0  0  0  0  0  0  0  0  0  0  0
   -0.1958    0.6310    3.1863 H   0  0  0  0  0  0  0  0  0  0  0  0
  1  2  1  0  0  0  0 
  1  3  1  0  0  0  0 
  4  2  1  0  0  0  0 
  3  5  2  0  0  0  0 
  3  6  1  0  0  0  0 
  4  7  1  0  0  0  0 
  4  8  1  0  0  0  0 
  5  9  1  0  0  0  0 
  6 10  2  0  0  0  0 
  7 11  1  0  0  0  0 
  9 12  2  0  0  0  0 
 10 12  1  0  0  0  0 
 11 13  1  0  0  0  0 
 12 14  1  0  0  0  0 
 13 15  1  0  0  0  0 
 13 16  1  0  0  0  0 
 14 17  1  0  0  0  0 
 17 18  1  0  0  0  0 
 17 19  2  0  0  0  0 
  2 20  1  0  0  0  0 
  2 21  1  0  0  0  0 
  4 22  1  0  0  0  0 
  5 23  1  0  0  0  0 
  6 24  1  0  0  0  0 
  7 25  1  0  0  0  0 
  7 26  1  0  0  0  0 
  8 27  1  0  0  0  0 
  9 28  1  0  0  0  0 
 10 29  1  0  0  0  0 
 11 30  1  0  0  0  0 
 13 31  1  0  0  0  0 
 14 32  1  0  0  0  0 
 15 33  1  0  0  0  0 
 15 34  1  0  0  0  0 
 15 35  1  0  0  0  0 
 16 36  1  0  0  0  0 
 16 37  1  0  0  0  0 
 16 38  1  0  0  0  0 
 18 39  1  0  0  0  0 
 18 40  1  0  0  0  0 
 18 41  1  0  0  0  0 
M  END
> <cdk:Title>
practolol

> <Conformer>
1

> <SuperDrugID>
SD003005

$$$$
