naproxcinod
  CDK     0628171802

 46 47  0  0  0  0  0  0  0  0999 V2000
   -6.4717    1.4171    1.9045 C   0  0  1  0  0  0  0  0  0  0  0  0
   -5.5369    2.5680    1.8203 C   0  0  0  0  0  0  0  0  0  0  0  0
   -7.1867    1.1846    0.5428 C   0  0  0  0  0  0  0  0  0  0  0  0
   -5.7873    0.1898    2.4349 C   0  0  0  0  0  0  0  0  0  0  0  0
   -4.4226    2.4845    1.0355 O   0  0  0  0  0  0  0  0  0  0  0  0
   -5.7764    3.6164    2.4660 O   0  0  0  0  0  0  0  0  0  0  0  0
   -4.8130   -0.5046    1.6751 C   0  0  0  0  0  0  0  0  0  0  0  0
   -6.0965   -0.3058    3.7248 C   0  0  0  0  0  0  0  0  0  0  0  0
   -3.4818    3.5318    0.7686 C   0  0  2  0  0  0  0  0  0  0  0  0
   -4.1844   -1.6715    2.1648 C   0  0  0  0  0  0  0  0  0  0  0  0
   -5.4767   -1.4634    4.2302 C   0  0  0  0  0  0  0  0  0  0  0  0
   -2.2948    2.9876   -0.0622 C   0  0  2  0  0  0  0  0  0  0  0  0
   -4.5277   -2.1636    3.4548 C   0  0  0  0  0  0  0  0  0  0  0  0
   -3.2242   -2.3596    1.3898 C   0  0  0  0  0  0  0  0  0  0  0  0
   -1.3941    2.0128    0.7451 C   0  0  2  0  0  0  0  0  0  0  0  0
   -3.9110   -3.3418    3.9360 C   0  0  0  0  0  0  0  0  0  0  0  0
   -2.5987   -3.5139    1.8914 C   0  0  0  0  0  0  0  0  0  0  0  0
   -0.2553    1.3924   -0.0987 C   0  0  2  0  0  0  0  0  0  0  0  0
   -2.9355   -4.0079    3.1664 C   0  0  0  0  0  0  0  0  0  0  0  0
    0.7018    0.7795    0.7874 O   0  0  0  0  0  0  0  0  0  0  0  0
   -2.3479   -5.1500    3.6427 O   0  0  0  0  0  0  0  0  0  0  0  0
    1.7088    0.2856    0.1711 N   0  0  0  0  0  0  0  0  0  0  0  0
   -1.1172   -4.9109    4.3502 C   0  0  0  0  0  0  0  0  0  0  0  0
    1.6655   -0.8953   -0.2876 O   0  0  0  0  0  0  0  0  0  0  0  0
    2.6981    0.8967    0.0743 O   0  0  0  0  0  0  0  0  0  0  0  0
   -7.2730    1.7034    2.5965 H   0  0  0  0  0  0  0  0  0  0  0  0
   -7.9087    0.3692    0.6292 H   0  0  0  0  0  0  0  0  0  0  0  0
   -7.7313    2.0851    0.2470 H   0  0  0  0  0  0  0  0  0  0  0  0
   -6.4769    0.9407   -0.2509 H   0  0  0  0  0  0  0  0  0  0  0  0
   -4.5581   -0.1568    0.7475 H   0  0  0  0  0  0  0  0  0  0  0  0
   -6.7808    0.1759    4.3148 H   0  0  0  0  0  0  0  0  0  0  0  0
   -3.1128    3.9548    1.7066 H   0  0  0  0  0  0  0  0  0  0  0  0
   -3.9877    4.3211    0.2048 H   0  0  0  0  0  0  0  0  0  0  0  0
   -5.7265   -1.7884    5.1692 H   0  0  0  0  0  0  0  0  0  0  0  0
   -1.6870    3.8342   -0.3960 H   0  0  0  0  0  0  0  0  0  0  0  0
   -2.6864    2.4848   -0.9505 H   0  0  0  0  0  0  0  0  0  0  0  0
   -2.9731   -2.0266    0.4557 H   0  0  0  0  0  0  0  0  0  0  0  0
   -2.0017    1.2013    1.1536 H   0  0  0  0  0  0  0  0  0  0  0  0
   -0.9534    2.5573    1.5850 H   0  0  0  0  0  0  0  0  0  0  0  0
   -4.1678   -3.7248    4.8499 H   0  0  0  0  0  0  0  0  0  0  0  0
   -1.8993   -3.9965    1.3244 H   0  0  0  0  0  0  0  0  0  0  0  0
    0.2318    2.1732   -0.6913 H   0  0  0  0  0  0  0  0  0  0  0  0
   -0.6810    0.6455   -0.7763 H   0  0  0  0  0  0  0  0  0  0  0  0
   -0.7557   -5.8655    4.7327 H   0  0  0  0  0  0  0  0  0  0  0  0
   -0.3504   -4.4995    3.6895 H   0  0  0  0  0  0  0  0  0  0  0  0
   -1.2636   -4.2408    5.2010 H   0  0  0  0  0  0  0  0  0  0  0  0
  1  2  1  0  0  0  0 
  1  3  1  0  0  0  0 
  1  4  1  0  0  0  0 
  2  5  1  0  0  0  0 
  2  6  2  0  0  0  0 
  4  7  1  0  0  0  0 
  4  8  2  0  0  0  0 
  5  9  1  0  0  0  0 
  7 10  2  0  0  0  0 
  8 11  1  0  0  0  0 
  9 12  1  0  0  0  0 
 10 13  1  0  0  0  0 
 10 14  1  0  0  0  0 
 11 13  2  0  0  0  0 
 12 15  1  0  0  0  0 
 13 16  1  0  0  0  0 
 14 17  2  0  0  0  0 
 15 18  1  0  0  0  0 
 16 19  2  0  0  0  0 
 17 19  1  0  0  0  0 
 18 20  1  0  0  0  0 
 19 21  1  0  0  0  0 
 20 22  1  0  0  0  0 
 21 23  1  0  0  0  0 
 22 24  1  0  0  0  0 
 22 25  2  0  0  0  0 
  1 26  1  0  0  0  0 
  3 27  1  0  0  0  0 
  3 28  1  0  0  0  0 
  3 29  1  0  0  0  0 
  7 30  1  0  0  0  0 
  8 31  1  0  0  0  0 
  9 32  1  0  0  0  0 
  9 33  1  0  0  0  0 
 11 34  1  0  0  0  0 
 12 35  1  0  0  0  0 
 12 36  1  0  0  0  0 
 14 37  1  0  0  0  0 
 15 38  1  0  0  0  0 
 15 39  1  0  0  0  0 
 16 40  1  0  0  0  0 
 17 41  1  0  0  0  0 
 18 42  1  0  0  0  0 
 18 43  1  0  0  0  0 
 23 44  1  0  0  0  0 
 23 45  1  0  0  0  0 
 23 46  1  0  0  0  0 
M  CHG  1  22   1
M  CHG  1  24  -1
M  END
> <cdk:Title>
naproxcinod

> <Conformer>
1

> <SuperDrugID>
SD003705

$$$$
