tretinoin tocoferil
  CDK     0628171801

128130  0  0  0  0  0  0  0  0999 V2000
   -3.8069    0.7538   -1.7375 C   0  0  0  0  0  0  0  0  0  0  0  0
   -2.5586    0.7873   -0.9083 C   0  0  0  0  0  0  0  0  0  0  0  0
   -2.0607    2.0249   -0.4198 C   0  0  0  0  0  0  0  0  0  0  0  0
   -1.8531   -0.4141   -0.5958 C   0  0  0  0  0  0  0  0  0  0  0  0
   -0.9235    2.0745    0.4323 C   0  0  0  0  0  0  0  0  0  0  0  0
   -2.7525    3.1700   -0.7676 O   0  0  0  0  0  0  0  0  0  0  0  0
   -2.3094   -1.7672   -1.0591 C   0  0  0  0  0  0  0  0  0  0  0  0
   -0.6676   -0.3518    0.1887 C   0  0  0  0  0  0  0  0  0  0  0  0
   -0.2600    0.8666    0.7961 C   0  0  0  0  0  0  0  0  0  0  0  0
   -0.4236    3.4039    0.9043 C   0  0  1  0  0  0  0  0  0  0  0  0
   -2.0882    4.4502   -0.7775 C   0  0  1  0  0  0  0  0  0  0  0  0
    0.0466   -1.5303    0.2588 O   0  0  0  0  0  0  0  0  0  0  0  0
    0.8100    0.8789    1.8390 C   0  0  0  0  0  0  0  0  0  0  0  0
   -1.3428    4.6092    0.5854 C   0  0  1  0  0  0  0  0  0  0  0  0
   -1.1140    4.6064   -2.0054 C   0  0  2  0  0  0  0  0  0  0  0  0
   -3.2427    5.5005   -0.8373 C   0  0  0  0  0  0  0  0  0  0  0  0
    1.3663   -1.7931   -0.0053 C   0  0  0  0  0  0  0  0  0  0  0  0
   -1.7405    4.4297   -3.4229 C   0  0  2  0  0  0  0  0  0  0  0  0
    1.7343   -3.0474   -0.4569 C   0  0  0  0  0  0  0  0  0  0  0  0
    2.2259   -0.8814   -0.0375 O   0  0  0  0  0  0  0  0  0  0  0  0
   -0.7732    4.8279   -4.5782 C   0  0  1  0  0  0  0  0  0  0  0  0
    1.0800   -4.2183   -0.2694 C   0  0  0  0  0  0  0  0  0  0  0  0
   -1.3019    4.5904   -6.0369 C   0  0  1  0  0  0  0  0  0  0  0  0
    1.3302   -5.2766   -1.1014 C   0  0  0  0  0  0  0  0  0  0  0  0
    0.0271   -4.4292    0.7252 C   0  0  0  0  0  0  0  0  0  0  0  0
   -2.5647    5.4539   -6.3839 C   0  0  1  0  0  0  0  0  0  0  0  0
   -0.1418    4.8370   -7.0488 C   0  0  0  0  0  0  0  0  0  0  0  0
    1.1841   -5.1731   -2.4354 C   0  0  0  0  0  0  0  0  0  0  0  0
   -3.2649    5.1106   -7.7301 C   0  0  2  0  0  0  0  0  0  0  0  0
    1.2165   -6.2229   -3.2838 C   0  0  0  0  0  0  0  0  0  0  0  0
   -4.6074    5.8746   -7.9238 C   0  0  2  0  0  0  0  0  0  0  0  0
    2.0518   -6.3442   -4.3385 C   0  0  0  0  0  0  0  0  0  0  0  0
   -5.3141    5.6592   -9.3051 C   0  0  1  0  0  0  0  0  0  0  0  0
    1.8195   -7.3438   -5.2312 C   0  0  0  0  0  0  0  0  0  0  0  0
    3.1660   -5.4255   -4.5851 C   0  0  0  0  0  0  0  0  0  0  0  0
   -5.7757    4.1764   -9.5085 C   0  0  2  0  0  0  0  0  0  0  0  0
   -6.4921    6.6677   -9.4515 C   0  0  0  0  0  0  0  0  0  0  0  0
    1.2500   -7.0858   -6.4240 C   0  0  0  0  0  0  0  0  0  0  0  0
   -6.4767    3.8705  -10.8615 C   0  0  1  0  0  0  0  0  0  0  0  0
    0.9816   -8.0382   -7.3732 C   0  0  0  0  0  0  0  0  0  0  0  0
   -6.7186    2.3102  -11.0718 C   0  0  1  0  0  0  0  0  0  0  0  0
    1.9951   -8.2105   -8.4693 C   0  0  1  0  0  0  0  0  0  0  0  0
   -0.1906   -8.7368   -7.3051 C   0  0  0  0  0  0  0  0  0  0  0  0
   -7.3448    2.0091  -12.5114 C   0  0  1  0  0  0  0  0  0  0  0  0
    2.3666   -6.8219   -9.1097 C   0  0  0  0  0  0  0  0  0  0  0  0
    3.3117   -8.8488   -7.9001 C   0  0  0  0  0  0  0  0  0  0  0  0
    1.4594   -9.1095   -9.6475 C   0  0  1  0  0  0  0  0  0  0  0  0
   -1.2236   -8.4433   -6.2947 C   0  0  0  0  0  0  0  0  0  0  0  0
   -0.5244   -9.7961   -8.2657 C   0  0  1  0  0  0  0  0  0  0  0  0
   -7.3739    0.4782  -12.7741 C   0  0  0  0  0  0  0  0  0  0  0  0
   -8.7604    2.6160  -12.7197 C   0  0  0  0  0  0  0  0  0  0  0  0
    0.6435  -10.3116   -9.1366 C   0  0  1  0  0  0  0  0  0  0  0  0
   -4.5559    0.1199   -1.2559 H   0  0  0  0  0  0  0  0  0  0  0  0
   -3.5808    0.3533   -2.7276 H   0  0  0  0  0  0  0  0  0  0  0  0
   -4.2727    1.7274   -1.8914 H   0  0  0  0  0  0  0  0  0  0  0  0
   -2.5700   -2.3718   -0.1869 H   0  0  0  0  0  0  0  0  0  0  0  0
   -3.1769   -1.7542   -1.7149 H   0  0  0  0  0  0  0  0  0  0  0  0
   -1.5130   -2.2737   -1.6094 H   0  0  0  0  0  0  0  0  0  0  0  0
   -0.2855    3.3926    1.9881 H   0  0  0  0  0  0  0  0  0  0  0  0
    0.5561    3.5768    0.4508 H   0  0  0  0  0  0  0  0  0  0  0  0
    1.1589   -0.1148    2.1183 H   0  0  0  0  0  0  0  0  0  0  0  0
    1.6650    1.4612    1.4904 H   0  0  0  0  0  0  0  0  0  0  0  0
    0.4283    1.3211    2.7610 H   0  0  0  0  0  0  0  0  0  0  0  0
   -2.0779    4.6745    1.3943 H   0  0  0  0  0  0  0  0  0  0  0  0
   -0.7584    5.5340    0.6011 H   0  0  0  0  0  0  0  0  0  0  0  0
   -0.3005    3.8815   -1.9172 H   0  0  0  0  0  0  0  0  0  0  0  0
   -0.6614    5.6010   -1.9519 H   0  0  0  0  0  0  0  0  0  0  0  0
   -3.9183    5.2992   -1.6701 H   0  0  0  0  0  0  0  0  0  0  0  0
   -3.8516    5.4680    0.0693 H   0  0  0  0  0  0  0  0  0  0  0  0
   -2.8431    6.5112   -0.9462 H   0  0  0  0  0  0  0  0  0  0  0  0
   -2.6200    5.0623   -3.4935 H   0  0  0  0  0  0  0  0  0  0  0  0
   -2.0538    3.3899   -3.5479 H   0  0  0  0  0  0  0  0  0  0  0  0
    2.5257   -3.0502   -1.0626 H   0  0  0  0  0  0  0  0  0  0  0  0
   -0.5159    5.8856   -4.4691 H   0  0  0  0  0  0  0  0  0  0  0  0
    0.1459    4.2511   -4.4393 H   0  0  0  0  0  0  0  0  0  0  0  0
   -1.5780    3.5344   -6.1169 H   0  0  0  0  0  0  0  0  0  0  0  0
    1.5547   -6.1589   -0.6986 H   0  0  0  0  0  0  0  0  0  0  0  0
   -0.9514   -4.3622    0.2468 H   0  0  0  0  0  0  0  0  0  0  0  0
    0.0693   -3.7092    1.5400 H   0  0  0  0  0  0  0  0  0  0  0  0
    0.1135   -5.4178    1.1882 H   0  0  0  0  0  0  0  0  0  0  0  0
   -3.3147    5.3122   -5.6061 H   0  0  0  0  0  0  0  0  0  0  0  0
   -2.2874    6.5118   -6.3816 H   0  0  0  0  0  0  0  0  0  0  0  0
    0.7351    4.2407   -6.7884 H   0  0  0  0  0  0  0  0  0  0  0  0
   -0.4339    4.5517   -8.0595 H   0  0  0  0  0  0  0  0  0  0  0  0
    0.1490    5.8898   -7.0541 H   0  0  0  0  0  0  0  0  0  0  0  0
    0.9852   -4.2852   -2.8404 H   0  0  0  0  0  0  0  0  0  0  0  0
   -3.4551    4.0370   -7.7482 H   0  0  0  0  0  0  0  0  0  0  0  0
   -2.6007    5.3577   -8.5605 H   0  0  0  0  0  0  0  0  0  0  0  0
    0.5204   -6.9185   -3.1250 H   0  0  0  0  0  0  0  0  0  0  0  0
   -4.3883    6.9392   -7.8055 H   0  0  0  0  0  0  0  0  0  0  0  0
   -5.2974    5.5931   -7.1227 H   0  0  0  0  0  0  0  0  0  0  0  0
   -4.5883    5.8992  -10.0887 H   0  0  0  0  0  0  0  0  0  0  0  0
    2.0644   -8.2767   -4.9788 H   0  0  0  0  0  0  0  0  0  0  0  0
    3.8335   -5.4183   -3.7207 H   0  0  0  0  0  0  0  0  0  0  0  0
    3.7602   -5.7117   -5.4586 H   0  0  0  0  0  0  0  0  0  0  0  0
    2.7892   -4.4152   -4.7551 H   0  0  0  0  0  0  0  0  0  0  0  0
   -6.4431    3.8908   -8.6912 H   0  0  0  0  0  0  0  0  0  0  0  0
   -4.8971    3.5296   -9.4574 H   0  0  0  0  0  0  0  0  0  0  0  0
   -7.3142    6.4013   -8.7848 H   0  0  0  0  0  0  0  0  0  0  0  0
   -6.8629    6.6828  -10.4774 H   0  0  0  0  0  0  0  0  0  0  0  0
   -6.1706    7.6825   -9.2139 H   0  0  0  0  0  0  0  0  0  0  0  0
    0.9876   -6.1521   -6.6505 H   0  0  0  0  0  0  0  0  0  0  0  0
   -7.4344    4.3964  -10.9005 H   0  0  0  0  0  0  0  0  0  0  0  0
   -5.8411    4.2330  -11.6744 H   0  0  0  0  0  0  0  0  0  0  0  0
   -5.8051    1.6519  -10.8056 H   0  0  0  0  0  0  0  0  0  0  0  0
   -7.4692    2.0131  -10.3359 H   0  0  0  0  0  0  0  0  0  0  0  0
   -6.6793    2.4446  -13.2609 H   0  0  0  0  0  0  0  0  0  0  0  0
    3.0660   -6.9425   -9.9404 H   0  0  0  0  0  0  0  0  0  0  0  0
    1.4705   -6.3222   -9.4875 H   0  0  0  0  0  0  0  0  0  0  0  0
    2.8375   -6.1540   -8.3841 H   0  0  0  0  0  0  0  0  0  0  0  0
    3.7964   -8.1902   -7.1763 H   0  0  0  0  0  0  0  0  0  0  0  0
    4.0365   -9.0367   -8.6973 H   0  0  0  0  0  0  0  0  0  0  0  0
    3.1056   -9.7990   -7.4037 H   0  0  0  0  0  0  0  0  0  0  0  0
    0.7996   -8.5292  -10.3032 H   0  0  0  0  0  0  0  0  0  0  0  0
    2.2792   -9.4756  -10.2744 H   0  0  0  0  0  0  0  0  0  0  0  0
   -0.8207   -8.5469   -5.2864 H   0  0  0  0  0  0  0  0  0  0  0  0
   -2.0886   -9.1092   -6.3596 H   0  0  0  0  0  0  0  0  0  0  0  0
   -1.5879   -7.4203   -6.4248 H   0  0  0  0  0  0  0  0  0  0  0  0
   -0.9313  -10.6628   -7.7369 H   0  0  0  0  0  0  0  0  0  0  0  0
   -1.3080   -9.4138   -8.9281 H   0  0  0  0  0  0  0  0  0  0  0  0
   -6.3691    0.0606  -12.6962 H   0  0  0  0  0  0  0  0  0  0  0  0
   -7.7437    0.2682  -13.7798 H   0  0  0  0  0  0  0  0  0  0  0  0
   -8.0202   -0.0288  -12.0546 H   0  0  0  0  0  0  0  0  0  0  0  0
   -8.7215    3.7035  -12.7095 H   0  0  0  0  0  0  0  0  0  0  0  0
   -9.1691    2.3182  -13.6866 H   0  0  0  0  0  0  0  0  0  0  0  0
   -9.4427    2.2811  -11.9376 H   0  0  0  0  0  0  0  0  0  0  0  0
    0.2486  -10.8762   -9.9860 H   0  0  0  0  0  0  0  0  0  0  0  0
    1.2794  -10.9832   -8.5545 H   0  0  0  0  0  0  0  0  0  0  0  0
  1  2  1  0  0  0  0 
  2  3  2  0  0  0  0 
  2  4  1  0  0  0  0 
  3  5  1  0  0  0  0 
  3  6  1  0  0  0  0 
  4  7  1  0  0  0  0 
  4  8  2  0  0  0  0 
  5  9  2  0  0  0  0 
  5 10  1  0  0  0  0 
 11  6  1  0  0  0  0 
  8  9  1  0  0  0  0 
  8 12  1  0  0  0  0 
  9 13  1  0  0  0  0 
 10 14  1  0  0  0  0 
 11 14  1  0  0  0  0 
 11 15  1  0  0  0  0 
 11 16  1  0  0  0  0 
 12 17  1  0  0  0  0 
 15 18  1  0  0  0  0 
 17 19  1  0  0  0  0 
 17 20  2  0  0  0  0 
 18 21  1  0  0  0  0 
 19 22  2  0  0  0  0 
 23 21  1  0  0  0  0 
 22 24  1  0  0  0  0 
 22 25  1  0  0  0  0 
 23 26  1  0  0  0  0 
 23 27  1  0  0  0  0 
 24 28  2  0  0  0  0 
 26 29  1  0  0  0  0 
 28 30  1  0  0  0  0 
 29 31  1  0  0  0  0 
 30 32  2  0  0  0  0 
 33 31  1  0  0  0  0 
 32 34  1  0  0  0  0 
 32 35  1  0  0  0  0 
 33 36  1  0  0  0  0 
 33 37  1  0  0  0  0 
 34 38  2  0  0  0  0 
 36 39  1  0  0  0  0 
 38 40  1  0  0  0  0 
 39 41  1  0  0  0  0 
 40 42  1  0  0  0  0 
 40 43  2  0  0  0  0 
 41 44  1  0  0  0  0 
 42 45  1  0  0  0  0 
 42 46  1  0  0  0  0 
 42 47  1  0  0  0  0 
 43 48  1  0  0  0  0 
 43 49  1  0  0  0  0 
 44 50  1  0  0  0  0 
 44 51  1  0  0  0  0 
 47 52  1  0  0  0  0 
 49 52  1  0  0  0  0 
  1 53  1  0  0  0  0 
  1 54  1  0  0  0  0 
  1 55  1  0  0  0  0 
  7 56  1  0  0  0  0 
  7 57  1  0  0  0  0 
  7 58  1  0  0  0  0 
 10 59  1  0  0  0  0 
 10 60  1  0  0  0  0 
 13 61  1  0  0  0  0 
 13 62  1  0  0  0  0 
 13 63  1  0  0  0  0 
 14 64  1  0  0  0  0 
 14 65  1  0  0  0  0 
 15 66  1  0  0  0  0 
 15 67  1  0  0  0  0 
 16 68  1  0  0  0  0 
 16 69  1  0  0  0  0 
 16 70  1  0  0  0  0 
 18 71  1  0  0  0  0 
 18 72  1  0  0  0  0 
 19 73  1  0  0  0  0 
 21 74  1  0  0  0  0 
 21 75  1  0  0  0  0 
 23 76  1  0  0  0  0 
 24 77  1  0  0  0  0 
 25 78  1  0  0  0  0 
 25 79  1  0  0  0  0 
 25 80  1  0  0  0  0 
 26 81  1  0  0  0  0 
 26 82  1  0  0  0  0 
 27 83  1  0  0  0  0 
 27 84  1  0  0  0  0 
 27 85  1  0  0  0  0 
 28 86  1  0  0  0  0 
 29 87  1  0  0  0  0 
 29 88  1  0  0  0  0 
 30 89  1  0  0  0  0 
 31 90  1  0  0  0  0 
 31 91  1  0  0  0  0 
 33 92  1  0  0  0  0 
 34 93  1  0  0  0  0 
 35 94  1  0  0  0  0 
 35 95  1  0  0  0  0 
 35 96  1  0  0  0  0 
 36 97  1  0  0  0  0 
 36 98  1  0  0  0  0 
 37 99  1  0  0  0  0 
 37100  1  0  0  0  0 
 37101  1  0  0  0  0 
 38102  1  0  0  0  0 
 39103  1  0  0  0  0 
 39104  1  0  0  0  0 
 41105  1  0  0  0  0 
 41106  1  0  0  0  0 
 44107  1  0  0  0  0 
 45108  1  0  0  0  0 
 45109  1  0  0  0  0 
 45110  1  0  0  0  0 
 46111  1  0  0  0  0 
 46112  1  0  0  0  0 
 46113  1  0  0  0  0 
 47114  1  0  0  0  0 
 47115  1  0  0  0  0 
 48116  1  0  0  0  0 
 48117  1  0  0  0  0 
 48118  1  0  0  0  0 
 49119  1  0  0  0  0 
 49120  1  0  0  0  0 
 50121  1  0  0  0  0 
 50122  1  0  0  0  0 
 50123  1  0  0  0  0 
 51124  1  0  0  0  0 
 51125  1  0  0  0  0 
 51126  1  0  0  0  0 
 52127  1  0  0  0  0 
 52128  1  0  0  0  0 
M  END
> <cdk:Title>
tretinoin tocoferil

> <Conformer>
1

> <SuperDrugID>
SD002452

$$$$
