nefopam
  CDK     0628171801

 38 40  0  0  0  0  0  0  0  0999 V2000
    0.0427    0.2136   -4.8009 C   0  0  0  0  0  0  0  0  0  0  0  0
   -0.5744   -0.4025   -3.5921 N   0  0  2  0  0  0  0  0  0  0  0  0
   -0.0063   -1.7325   -3.1940 C   0  0  1  0  0  0  0  0  0  0  0  0
   -2.0588   -0.2995   -3.5038 C   0  0  2  0  0  0  0  0  0  0  0  0
    0.9919   -1.5022   -2.1153 C   0  0  0  0  0  0  0  0  0  0  0  0
   -2.5032   -0.1033   -2.0374 C   0  0  2  0  0  0  0  0  0  0  0  0
    0.6443   -0.9754   -0.8257 C   0  0  0  0  0  0  0  0  0  0  0  0
    2.3537   -1.7698   -2.4207 C   0  0  0  0  0  0  0  0  0  0  0  0
   -1.8770   -1.0527   -1.1487 O   0  0  0  0  0  0  0  0  0  0  0  0
   -0.7486   -0.6338   -0.3412 C   0  0  1  0  0  0  0  0  0  0  0  0
    1.7113   -0.6751    0.0659 C   0  0  0  0  0  0  0  0  0  0  0  0
    3.3760   -1.4843   -1.5032 C   0  0  0  0  0  0  0  0  0  0  0  0
    3.0540   -0.9266   -0.2609 C   0  0  0  0  0  0  0  0  0  0  0  0
   -1.0905   -1.2155    0.9996 C   0  0  0  0  0  0  0  0  0  0  0  0
   -1.3287   -0.3765    2.1209 C   0  0  0  0  0  0  0  0  0  0  0  0
   -1.7059   -0.9167    3.3650 C   0  0  0  0  0  0  0  0  0  0  0  0
   -1.8419   -2.3077    3.5164 C   0  0  0  0  0  0  0  0  0  0  0  0
   -1.5986   -3.1561    2.4216 C   0  0  0  0  0  0  0  0  0  0  0  0
   -1.2261   -2.6148    1.1755 C   0  0  0  0  0  0  0  0  0  0  0  0
   -0.2630   -0.3190   -5.7041 H   0  0  0  0  0  0  0  0  0  0  0  0
    1.1318    0.1906   -4.7282 H   0  0  0  0  0  0  0  0  0  0  0  0
   -0.2570    1.2600   -4.8891 H   0  0  0  0  0  0  0  0  0  0  0  0
   -0.7556   -2.4349   -2.8205 H   0  0  0  0  0  0  0  0  0  0  0  0
    0.4275   -2.2302   -4.0683 H   0  0  0  0  0  0  0  0  0  0  0  0
   -2.5272   -1.1949   -3.9222 H   0  0  0  0  0  0  0  0  0  0  0  0
   -2.4321    0.5564   -4.0723 H   0  0  0  0  0  0  0  0  0  0  0  0
   -3.5798   -0.2790   -1.9769 H   0  0  0  0  0  0  0  0  0  0  0  0
   -2.3351    0.9336   -1.7342 H   0  0  0  0  0  0  0  0  0  0  0  0
    2.6251   -2.1638   -3.3270 H   0  0  0  0  0  0  0  0  0  0  0  0
   -0.7465    0.4561   -0.2476 H   0  0  0  0  0  0  0  0  0  0  0  0
    1.5222   -0.2552    0.9780 H   0  0  0  0  0  0  0  0  0  0  0  0
    4.3520   -1.6737   -1.7458 H   0  0  0  0  0  0  0  0  0  0  0  0
    3.7985   -0.6989    0.4028 H   0  0  0  0  0  0  0  0  0  0  0  0
   -1.2380    0.6415    2.0401 H   0  0  0  0  0  0  0  0  0  0  0  0
   -1.8816   -0.2964    4.1593 H   0  0  0  0  0  0  0  0  0  0  0  0
   -2.1147   -2.6995    4.4219 H   0  0  0  0  0  0  0  0  0  0  0  0
   -1.6969   -4.1675    2.5321 H   0  0  0  0  0  0  0  0  0  0  0  0
   -1.0669   -3.2489    0.3902 H   0  0  0  0  0  0  0  0  0  0  0  0
  1  2  1  0  0  0  0 
  2  3  1  0  0  0  0 
  2  4  1  0  0  0  0 
  3  5  1  0  0  0  0 
  4  6  1  0  0  0  0 
  5  7  2  0  0  0  0 
  5  8  1  0  0  0  0 
  6  9  1  0  0  0  0 
 10  7  1  0  0  0  0 
  7 11  1  0  0  0  0 
  8 12  2  0  0  0  0 
 10  9  1  0  0  0  0 
 11 13  2  0  0  0  0 
 12 13  1  0  0  0  0 
 10 14  1  0  0  0  0 
 14 15  2  0  0  0  0 
 14 19  1  0  0  0  0 
 15 16  1  0  0  0  0 
 16 17  2  0  0  0  0 
 17 18  1  0  0  0  0 
 18 19  2  0  0  0  0 
  1 20  1  0  0  0  0 
  1 21  1  0  0  0  0 
  1 22  1  0  0  0  0 
  3 23  1  0  0  0  0 
  3 24  1  0  0  0  0 
  4 25  1  0  0  0  0 
  4 26  1  0  0  0  0 
  6 27  1  0  0  0  0 
  6 28  1  0  0  0  0 
  8 29  1  0  0  0  0 
 10 30  1  0  0  0  0 
 11 31  1  0  0  0  0 
 12 32  1  0  0  0  0 
 13 33  1  0  0  0  0 
 15 34  1  0  0  0  0 
 16 35  1  0  0  0  0 
 17 36  1  0  0  0  0 
 18 37  1  0  0  0  0 
 19 38  1  0  0  0  0 
M  END
> <cdk:Title>
nefopam

> <Conformer>
1

> <SuperDrugID>
SD001686

$$$$
