bismuth subsalicylate
  CDK     0628171801

 17 18  0  0  0  0  0  0  0  0999 V2000
   -2.2428   -3.4464    2.1327 C   0  0  0  0  0  0  0  0  0  0  0  0
   -3.1520   -4.1380    1.3114 C   0  0  0  0  0  0  0  0  0  0  0  0
   -2.8324   -4.3915   -0.0315 C   0  0  0  0  0  0  0  0  0  0  0  0
   -1.6012   -3.9569   -0.5482 C   0  0  0  0  0  0  0  0  0  0  0  0
   -0.6924   -3.2471    0.2625 C   0  0  0  0  0  0  0  0  0  0  0  0
   -1.0086   -2.9672    1.6207 C   0  0  0  0  0  0  0  0  0  0  0  0
    0.4877   -2.9049   -0.3215 O   0  0  0  0  0  0  0  0  0  0  0  0
   -0.1321   -2.2331    2.4641 C   0  0  0  0  0  0  0  0  0  0  0  0
   -0.1221   -2.3977    3.7055 O   0  0  0  0  0  0  0  0  0  0  0  0
    0.7170   -1.2921    1.9896 O   0  0  0  0  0  0  0  0  0  0  0  0
    0.7269   -0.8003   -0.0806 Bi  0  0  0  0  0  0  0  0  0  0  0  0
    0.9229    0.9715   -1.2818 O   0  0  0  0  0  0  0  0  0  0  0  0
   -2.4983   -3.2902    3.1107 H   0  0  0  0  0  0  0  0  0  0  0  0
   -4.0471   -4.4552    1.6902 H   0  0  0  0  0  0  0  0  0  0  0  0
   -3.4914   -4.8965   -0.6291 H   0  0  0  0  0  0  0  0  0  0  0  0
   -1.3673   -4.1647   -1.5223 H   0  0  0  0  0  0  0  0  0  0  0  0
    0.0474    1.0781   -1.7082 H   0  0  0  0  0  0  0  0  0  0  0  0
  1  2  2  0  0  0  0 
  1  6  1  0  0  0  0 
  2  3  1  0  0  0  0 
  3  4  2  0  0  0  0 
  4  5  1  0  0  0  0 
  5  6  2  0  0  0  0 
  5  7  1  0  0  0  0 
  6  8  1  0  0  0  0 
  8  9  2  0  0  0  0 
  8 10  1  0  0  0  0 
 10 11  1  0  0  0  0 
  7 11  1  0  0  0  0 
 11 12  1  0  0  0  0 
  1 13  1  0  0  0  0 
  2 14  1  0  0  0  0 
  3 15  1  0  0  0  0 
  4 16  1  0  0  0  0 
 12 17  1  0  0  0  0 
M  END
> <cdk:Title>
bismuth subsalicylate

> <Conformer>
1

> <SuperDrugID>
SD003457

$$$$
