ambutonium
  CDK     0628171801

 50 51  0  0  0  0  0  0  0  0999 V2000
   -4.4081   -5.4403   -0.2108 C   0  0  2  0  0  0  0  0  0  0  0  0
   -4.5659   -3.8577   -0.1606 C   0  0  2  0  0  0  0  0  0  0  0  0
   -4.6018   -5.8704   -1.6489 C   0  0  0  0  0  0  0  0  0  0  0  0
   -5.4788   -6.2477    0.5194 C   0  0  0  0  0  0  0  0  0  0  0  0
   -2.9916   -5.7276    0.2946 C   0  0  0  0  0  0  0  0  0  0  0  0
   -4.2996   -3.1286    1.2049 C   0  0  2  0  0  0  0  0  0  0  0  0
   -5.5619   -5.3375   -2.4385 N   0  0  0  0  0  0  0  0  0  0  0  0
   -3.9145   -6.7805   -2.1696 O   0  0  0  0  0  0  0  0  0  0  0  0
   -6.6284   -5.6793    1.1369 C   0  0  0  0  0  0  0  0  0  0  0  0
   -5.3619   -7.6683    0.5952 C   0  0  0  0  0  0  0  0  0  0  0  0
   -2.7169   -6.2571    1.5887 C   0  0  0  0  0  0  0  0  0  0  0  0
   -1.8578   -5.3921   -0.4990 C   0  0  0  0  0  0  0  0  0  0  0  0
   -4.5223   -1.6150    1.2922 N   0  0  1  0  0  0  0  0  0  0  0  0
   -7.5591   -6.4670    1.8394 C   0  0  0  0  0  0  0  0  0  0  0  0
   -6.3009   -8.4617    1.2785 C   0  0  0  0  0  0  0  0  0  0  0  0
   -1.4032   -6.4876    2.0395 C   0  0  0  0  0  0  0  0  0  0  0  0
   -0.5407   -5.6126   -0.0540 C   0  0  0  0  0  0  0  0  0  0  0  0
   -5.9784   -1.2622    0.9978 C   0  0  2  0  0  0  0  0  0  0  0  0
   -4.1551   -1.1886    2.7025 C   0  0  0  0  0  0  0  0  0  0  0  0
   -3.5970   -0.9027    0.3279 C   0  0  0  0  0  0  0  0  0  0  0  0
   -7.3997   -7.8592    1.9072 C   0  0  0  0  0  0  0  0  0  0  0  0
   -0.3130   -6.1618    1.2166 C   0  0  0  0  0  0  0  0  0  0  0  0
   -6.4507    0.2049    1.1924 C   0  0  0  0  0  0  0  0  0  0  0  0
   -5.5680   -3.5930   -0.4939 H   0  0  0  0  0  0  0  0  0  0  0  0
   -3.8855   -3.4268   -0.9003 H   0  0  0  0  0  0  0  0  0  0  0  0
   -3.2613   -3.3417    1.4789 H   0  0  0  0  0  0  0  0  0  0  0  0
   -4.9100   -3.6217    1.9643 H   0  0  0  0  0  0  0  0  0  0  0  0
   -5.6704   -5.6306   -3.3551 H   0  0  0  0  0  0  0  0  0  0  0  0
   -6.1497   -4.6513   -2.0915 H   0  0  0  0  0  0  0  0  0  0  0  0
   -6.8264   -4.6809    1.0923 H   0  0  0  0  0  0  0  0  0  0  0  0
   -4.5724   -8.1484    0.1557 H   0  0  0  0  0  0  0  0  0  0  0  0
   -3.4724   -6.4725    2.2395 H   0  0  0  0  0  0  0  0  0  0  0  0
   -1.9821   -4.9695   -1.4217 H   0  0  0  0  0  0  0  0  0  0  0  0
   -8.3589   -6.0262    2.3000 H   0  0  0  0  0  0  0  0  0  0  0  0
   -6.1854   -9.4760    1.3214 H   0  0  0  0  0  0  0  0  0  0  0  0
   -1.2415   -6.8834    2.9707 H   0  0  0  0  0  0  0  0  0  0  0  0
    0.2499   -5.3664   -0.6540 H   0  0  0  0  0  0  0  0  0  0  0  0
   -6.6444   -1.8853    1.6053 H   0  0  0  0  0  0  0  0  0  0  0  0
   -6.2077   -1.4952   -0.0455 H   0  0  0  0  0  0  0  0  0  0  0  0
   -3.1305   -1.4743    2.9574 H   0  0  0  0  0  0  0  0  0  0  0  0
   -4.8169   -1.6415    3.4469 H   0  0  0  0  0  0  0  0  0  0  0  0
   -4.2100   -0.1063    2.8328 H   0  0  0  0  0  0  0  0  0  0  0  0
   -2.5626   -1.2362    0.4458 H   0  0  0  0  0  0  0  0  0  0  0  0
   -3.5981    0.1785    0.4830 H   0  0  0  0  0  0  0  0  0  0  0  0
   -3.8825   -1.0717   -0.7135 H   0  0  0  0  0  0  0  0  0  0  0  0
   -8.0831   -8.4315    2.4108 H   0  0  0  0  0  0  0  0  0  0  0  0
    0.6447   -6.3139    1.5416 H   0  0  0  0  0  0  0  0  0  0  0  0
   -7.4751    0.3071    0.8283 H   0  0  0  0  0  0  0  0  0  0  0  0
   -6.4450    0.4891    2.2456 H   0  0  0  0  0  0  0  0  0  0  0  0
   -5.8248    0.8991    0.6311 H   0  0  0  0  0  0  0  0  0  0  0  0
  1  2  1  0  0  0  0 
  1  3  1  0  0  0  0 
  1  4  1  0  0  0  0 
  1  5  1  0  0  0  0 
  2  6  1  0  0  0  0 
  3  7  1  0  0  0  0 
  3  8  2  0  0  0  0 
  4  9  2  0  0  0  0 
  4 10  1  0  0  0  0 
  5 11  2  0  0  0  0 
  5 12  1  0  0  0  0 
  6 13  1  0  0  0  0 
  9 14  1  0  0  0  0 
 10 15  2  0  0  0  0 
 11 16  1  0  0  0  0 
 12 17  2  0  0  0  0 
 13 18  1  0  0  0  0 
 13 19  1  0  0  0  0 
 13 20  1  0  0  0  0 
 14 21  2  0  0  0  0 
 15 21  1  0  0  0  0 
 16 22  2  0  0  0  0 
 17 22  1  0  0  0  0 
 18 23  1  0  0  0  0 
  2 24  1  0  0  0  0 
  2 25  1  0  0  0  0 
  6 26  1  0  0  0  0 
  6 27  1  0  0  0  0 
  7 28  1  0  0  0  0 
  7 29  1  0  0  0  0 
  9 30  1  0  0  0  0 
 10 31  1  0  0  0  0 
 11 32  1  0  0  0  0 
 12 33  1  0  0  0  0 
 14 34  1  0  0  0  0 
 15 35  1  0  0  0  0 
 16 36  1  0  0  0  0 
 17 37  1  0  0  0  0 
 18 38  1  0  0  0  0 
 18 39  1  0  0  0  0 
 19 40  1  0  0  0  0 
 19 41  1  0  0  0  0 
 19 42  1  0  0  0  0 
 20 43  1  0  0  0  0 
 20 44  1  0  0  0  0 
 20 45  1  0  0  0  0 
 21 46  1  0  0  0  0 
 22 47  1  0  0  0  0 
 23 48  1  0  0  0  0 
 23 49  1  0  0  0  0 
 23 50  1  0  0  0  0 
M  CHG  1  13   1
M  END
> <cdk:Title>
ambutonium

> <Conformer>
1

> <SuperDrugID>
SD000118

$$$$
