amineptine
  CDK     0628171801

 52 54  0  0  0  0  0  0  0  0999 V2000
   -0.3698   -0.3379   -1.7017 N   0  0  1  0  0  0  0  0  0  0  0  0
    0.1115   -0.4143   -0.3004 C   0  0  2  0  0  0  0  0  0  0  0  0
    0.6462   -0.4452   -2.7776 C   0  0  1  0  0  0  0  0  0  0  0  0
   -1.0753   -0.2323    0.6760 C   0  0  1  0  0  0  0  0  0  0  0  0
   -0.0708   -0.5502   -4.0954 C   0  0  0  0  0  0  0  0  0  0  0  0
    1.6735    0.6464   -2.7396 C   0  0  0  0  0  0  0  0  0  0  0  0
   -2.1226   -1.3758    0.5927 C   0  0  2  0  0  0  0  0  0  0  0  0
   -0.6554    0.5517   -4.8079 C   0  0  0  0  0  0  0  0  0  0  0  0
   -0.1914   -1.8491   -4.6619 C   0  0  0  0  0  0  0  0  0  0  0  0
    1.3063    2.0210   -2.8107 C   0  0  0  0  0  0  0  0  0  0  0  0
    3.0454    0.3162   -2.5919 C   0  0  0  0  0  0  0  0  0  0  0  0
   -3.2667   -1.2058    1.6249 C   0  0  2  0  0  0  0  0  0  0  0  0
   -0.6304    1.9989   -4.4189 C   0  0  1  0  0  0  0  0  0  0  0  0
   -1.3180    0.2983   -6.0379 C   0  0  0  0  0  0  0  0  0  0  0  0
   -0.8581   -2.0719   -5.8753 C   0  0  0  0  0  0  0  0  0  0  0  0
   -0.1057    2.4325   -3.0320 C   0  0  1  0  0  0  0  0  0  0  0  0
    2.3066    3.0159   -2.6834 C   0  0  0  0  0  0  0  0  0  0  0  0
    4.0261    1.3138   -2.4735 C   0  0  0  0  0  0  0  0  0  0  0  0
   -4.2859   -2.3736    1.5717 C   0  0  2  0  0  0  0  0  0  0  0  0
   -1.4250   -0.9948   -6.5635 C   0  0  0  0  0  0  0  0  0  0  0  0
    3.6536    2.6654   -2.5088 C   0  0  0  0  0  0  0  0  0  0  0  0
   -5.4486   -2.1932    2.5825 C   0  0  2  0  0  0  0  0  0  0  0  0
   -6.3850   -3.3324    2.5712 C   0  0  0  0  0  0  0  0  0  0  0  0
   -5.9474   -4.5765    2.8713 O   0  0  0  0  0  0  0  0  0  0  0  0
   -7.5945   -3.1683    2.2936 O   0  0  0  0  0  0  0  0  0  0  0  0
   -1.0203   -1.1136   -1.8323 H   0  0  0  0  0  0  0  0  0  0  0  0
    0.8388    0.3801   -0.1097 H   0  0  0  0  0  0  0  0  0  0  0  0
    0.5970   -1.3762   -0.1140 H   0  0  0  0  0  0  0  0  0  0  0  0
    1.1536   -1.3956   -2.5743 H   0  0  0  0  0  0  0  0  0  0  0  0
   -0.6800   -0.1852    1.6945 H   0  0  0  0  0  0  0  0  0  0  0  0
   -1.5633    0.7234    0.4631 H   0  0  0  0  0  0  0  0  0  0  0  0
   -1.6209   -2.3330    0.7627 H   0  0  0  0  0  0  0  0  0  0  0  0
   -2.5574   -1.3951   -0.4099 H   0  0  0  0  0  0  0  0  0  0  0  0
    0.2040   -2.6666   -4.1917 H   0  0  0  0  0  0  0  0  0  0  0  0
    3.3497   -0.6591   -2.5592 H   0  0  0  0  0  0  0  0  0  0  0  0
   -3.7869   -0.2647    1.4254 H   0  0  0  0  0  0  0  0  0  0  0  0
   -2.8372   -1.1558    2.6293 H   0  0  0  0  0  0  0  0  0  0  0  0
   -0.0404    2.5337   -5.1712 H   0  0  0  0  0  0  0  0  0  0  0  0
   -1.6527    2.3871   -4.4814 H   0  0  0  0  0  0  0  0  0  0  0  0
   -1.7390    1.0633   -6.5738 H   0  0  0  0  0  0  0  0  0  0  0  0
   -0.9329   -3.0169   -6.2571 H   0  0  0  0  0  0  0  0  0  0  0  0
   -0.7566    2.0487   -2.2475 H   0  0  0  0  0  0  0  0  0  0  0  0
   -0.2046    3.5211   -2.9798 H   0  0  0  0  0  0  0  0  0  0  0  0
    2.0642    4.0096   -2.7228 H   0  0  0  0  0  0  0  0  0  0  0  0
    5.0088    1.0575   -2.3582 H   0  0  0  0  0  0  0  0  0  0  0  0
   -3.7584   -3.3063    1.7931 H   0  0  0  0  0  0  0  0  0  0  0  0
   -4.6976   -2.4418    0.5603 H   0  0  0  0  0  0  0  0  0  0  0  0
   -1.9145   -1.1497   -7.4462 H   0  0  0  0  0  0  0  0  0  0  0  0
    4.3626    3.3952   -2.4107 H   0  0  0  0  0  0  0  0  0  0  0  0
   -5.9877   -1.2697    2.3490 H   0  0  0  0  0  0  0  0  0  0  0  0
   -5.0420   -2.0994    3.5919 H   0  0  0  0  0  0  0  0  0  0  0  0
   -6.5696   -5.3329    2.8575 H   0  0  0  0  0  0  0  0  0  0  0  0
  1  2  1  0  0  0  0 
  1  3  1  0  0  0  0 
  2  4  1  0  0  0  0 
  3  5  1  0  0  0  0 
  3  6  1  0  0  0  0 
  4  7  1  0  0  0  0 
  5  8  2  0  0  0  0 
  5  9  1  0  0  0  0 
  6 10  2  0  0  0  0 
  6 11  1  0  0  0  0 
  7 12  1  0  0  0  0 
  8 13  1  0  0  0  0 
  8 14  1  0  0  0  0 
  9 15  2  0  0  0  0 
 10 16  1  0  0  0  0 
 10 17  1  0  0  0  0 
 11 18  2  0  0  0  0 
 12 19  1  0  0  0  0 
 13 16  1  0  0  0  0 
 14 20  2  0  0  0  0 
 15 20  1  0  0  0  0 
 17 21  2  0  0  0  0 
 18 21  1  0  0  0  0 
 19 22  1  0  0  0  0 
 22 23  1  0  0  0  0 
 23 24  1  0  0  0  0 
 23 25  2  0  0  0  0 
  1 26  1  0  0  0  0 
  2 27  1  0  0  0  0 
  2 28  1  0  0  0  0 
  3 29  1  0  0  0  0 
  4 30  1  0  0  0  0 
  4 31  1  0  0  0  0 
  7 32  1  0  0  0  0 
  7 33  1  0  0  0  0 
  9 34  1  0  0  0  0 
 11 35  1  0  0  0  0 
 12 36  1  0  0  0  0 
 12 37  1  0  0  0  0 
 13 38  1  0  0  0  0 
 13 39  1  0  0  0  0 
 14 40  1  0  0  0  0 
 15 41  1  0  0  0  0 
 16 42  1  0  0  0  0 
 16 43  1  0  0  0  0 
 17 44  1  0  0  0  0 
 18 45  1  0  0  0  0 
 19 46  1  0  0  0  0 
 19 47  1  0  0  0  0 
 20 48  1  0  0  0  0 
 21 49  1  0  0  0  0 
 22 50  1  0  0  0  0 
 22 51  1  0  0  0  0 
 24 52  1  0  0  0  0 
M  END
> <cdk:Title>
amineptine

> <Conformer>
1

> <SuperDrugID>
SD000127

$$$$
