phenbenzamine
  CDK     0628171801

 41 42  0  0  0  0  0  0  0  0999 V2000
   -1.0585   -2.0784   -1.3973 N   0  0  0  0  0  0  0  0  0  0  0  0
   -1.7905   -2.3456   -2.6252 C   0  0  2  0  0  0  0  0  0  0  0  0
   -1.5708   -1.1706   -0.3820 C   0  0  2  0  0  0  0  0  0  0  0  0
    0.1309   -2.7340   -1.1735 C   0  0  0  0  0  0  0  0  0  0  0  0
   -3.1968   -2.7906   -2.4092 C   0  0  0  0  0  0  0  0  0  0  0  0
   -1.9891    0.2229   -0.9259 C   0  0  1  0  0  0  0  0  0  0  0  0
    0.2711   -3.5993   -0.0632 C   0  0  0  0  0  0  0  0  0  0  0  0
    1.2310   -2.5647   -2.0461 C   0  0  0  0  0  0  0  0  0  0  0  0
   -4.2810   -2.1330   -3.0396 C   0  0  0  0  0  0  0  0  0  0  0  0
   -3.4718   -3.8950   -1.5668 C   0  0  0  0  0  0  0  0  0  0  0  0
   -2.2696    1.2478    0.1333 N   0  0  1  0  0  0  0  0  0  0  0  0
    1.4813   -4.2768    0.1733 C   0  0  0  0  0  0  0  0  0  0  0  0
    2.4436   -3.2402   -1.8095 C   0  0  0  0  0  0  0  0  0  0  0  0
   -5.6023   -2.5677   -2.8287 C   0  0  0  0  0  0  0  0  0  0  0  0
   -4.7957   -4.3077   -1.3287 C   0  0  0  0  0  0  0  0  0  0  0  0
   -2.4113    2.6130   -0.4546 C   0  0  0  0  0  0  0  0  0  0  0  0
   -3.4207    0.9128    1.0259 C   0  0  0  0  0  0  0  0  0  0  0  0
    2.5678   -4.1002   -0.7024 C   0  0  0  0  0  0  0  0  0  0  0  0
   -5.8609   -3.6478   -1.9663 C   0  0  0  0  0  0  0  0  0  0  0  0
   -1.3084   -3.1306   -3.2156 H   0  0  0  0  0  0  0  0  0  0  0  0
   -1.7552   -1.4453   -3.2418 H   0  0  0  0  0  0  0  0  0  0  0  0
   -0.8284   -0.9979    0.4047 H   0  0  0  0  0  0  0  0  0  0  0  0
   -2.4292   -1.6474    0.0942 H   0  0  0  0  0  0  0  0  0  0  0  0
   -1.1623    0.5753   -1.5513 H   0  0  0  0  0  0  0  0  0  0  0  0
   -2.8678    0.1163   -1.5686 H   0  0  0  0  0  0  0  0  0  0  0  0
   -0.5127   -3.7436    0.5784 H   0  0  0  0  0  0  0  0  0  0  0  0
    1.1551   -1.9407   -2.8537 H   0  0  0  0  0  0  0  0  0  0  0  0
   -4.1175   -1.3378   -3.6618 H   0  0  0  0  0  0  0  0  0  0  0  0
   -2.7092   -4.4037   -1.1135 H   0  0  0  0  0  0  0  0  0  0  0  0
    1.5705   -4.8995    0.9811 H   0  0  0  0  0  0  0  0  0  0  0  0
    3.2361   -3.1073   -2.4410 H   0  0  0  0  0  0  0  0  0  0  0  0
   -6.3767   -2.0984   -3.3011 H   0  0  0  0  0  0  0  0  0  0  0  0
   -4.9803   -5.0900   -0.6952 H   0  0  0  0  0  0  0  0  0  0  0  0
   -2.5397    3.3608    0.3297 H   0  0  0  0  0  0  0  0  0  0  0  0
   -1.5127    2.8843   -1.0124 H   0  0  0  0  0  0  0  0  0  0  0  0
   -3.2684    2.6646   -1.1310 H   0  0  0  0  0  0  0  0  0  0  0  0
   -3.2296   -0.0063    1.5777 H   0  0  0  0  0  0  0  0  0  0  0  0
   -3.5733    1.6946    1.7712 H   0  0  0  0  0  0  0  0  0  0  0  0
   -4.3444    0.7927    0.4570 H   0  0  0  0  0  0  0  0  0  0  0  0
    3.4476   -4.5960   -0.5345 H   0  0  0  0  0  0  0  0  0  0  0  0
   -6.8218   -3.9559   -1.8059 H   0  0  0  0  0  0  0  0  0  0  0  0
  1  2  1  0  0  0  0 
  1  3  1  0  0  0  0 
  1  4  1  0  0  0  0 
  2  5  1  0  0  0  0 
  3  6  1  0  0  0  0 
  4  7  2  0  0  0  0 
  4  8  1  0  0  0  0 
  5  9  2  0  0  0  0 
  5 10  1  0  0  0  0 
  6 11  1  0  0  0  0 
  7 12  1  0  0  0  0 
  8 13  2  0  0  0  0 
  9 14  1  0  0  0  0 
 10 15  2  0  0  0  0 
 11 16  1  0  0  0  0 
 11 17  1  0  0  0  0 
 12 18  2  0  0  0  0 
 13 18  1  0  0  0  0 
 14 19  2  0  0  0  0 
 15 19  1  0  0  0  0 
  2 20  1  0  0  0  0 
  2 21  1  0  0  0  0 
  3 22  1  0  0  0  0 
  3 23  1  0  0  0  0 
  6 24  1  0  0  0  0 
  6 25  1  0  0  0  0 
  7 26  1  0  0  0  0 
  8 27  1  0  0  0  0 
  9 28  1  0  0  0  0 
 10 29  1  0  0  0  0 
 12 30  1  0  0  0  0 
 13 31  1  0  0  0  0 
 14 32  1  0  0  0  0 
 15 33  1  0  0  0  0 
 16 34  1  0  0  0  0 
 16 35  1  0  0  0  0 
 16 36  1  0  0  0  0 
 17 37  1  0  0  0  0 
 17 38  1  0  0  0  0 
 17 39  1  0  0  0  0 
 18 40  1  0  0  0  0 
 19 41  1  0  0  0  0 
M  END
> <cdk:Title>
phenbenzamine

> <Conformer>
1

> <SuperDrugID>
SD000187

$$$$
