unoprostone isopropyl
  CDK     0628171801

 74 74  0  0  0  0  0  0  0  0999 V2000
    1.7278   -8.8140   -4.2423 C   0  0  2  0  0  0  0  0  0  0  0  0
    2.3665   -9.5972   -5.4238 C   0  0  1  0  0  0  0  0  0  0  0  0
    0.2078   -9.1051   -4.0152 C   0  0  2  0  0  0  0  0  0  0  0  0
    3.8344   -9.3926   -5.5260 C   0  0  0  0  0  0  0  0  0  0  0  0
   -0.4253   -8.1577   -2.9349 C   0  0  1  0  0  0  0  0  0  0  0  0
   -0.0815  -10.5612   -3.5351 C   0  0  2  0  0  0  0  0  0  0  0  0
    4.4024   -8.0662   -5.8809 C   0  0  1  0  0  0  0  0  0  0  0  0
    4.5852  -10.3771   -5.3252 O   0  0  0  0  0  0  0  0  0  0  0  0
   -1.7327   -7.4382   -3.4189 C   0  0  1  0  0  0  0  0  0  0  0  0
   -0.6352   -9.0801   -1.7059 C   0  0  2  0  0  0  0  0  0  0  0  0
   -0.6832  -11.3525   -4.5600 O   0  0  0  0  0  0  0  0  0  0  0  0
   -1.0039  -10.4434   -2.3069 C   0  0  2  0  0  0  0  0  0  0  0  0
    5.9477   -8.0226   -6.0182 C   0  0  2  0  0  0  0  0  0  0  0  0
   -1.4837   -6.4336   -4.4460 C   0  0  0  0  0  0  0  0  0  0  0  0
   -1.6083   -8.6116   -0.7738 O   0  0  0  0  0  0  0  0  0  0  0  0
    6.4644   -6.6009   -6.3482 C   0  0  2  0  0  0  0  0  0  0  0  0
   -1.1233   -5.1542   -4.2328 C   0  0  0  0  0  0  0  0  0  0  0  0
    8.1040   -6.5660   -6.4695 C   0  0  1  0  0  0  0  0  0  0  0  0
   -0.9596   -4.5329   -2.9224 C   0  0  2  0  0  0  0  0  0  0  0  0
    8.7358   -5.1597   -6.8194 C   0  0  1  0  0  0  0  0  0  0  0  0
   -0.5729   -3.0288   -2.9709 C   0  0  2  0  0  0  0  0  0  0  0  0
   10.2832   -5.1776   -6.9373 C   0  0  2  0  0  0  0  0  0  0  0  0
   -0.5148   -2.3808   -1.5586 C   0  0  2  0  0  0  0  0  0  0  0  0
   10.8768   -3.7951   -7.2903 C   0  0  0  0  0  0  0  0  0  0  0  0
   -0.3094   -0.9204   -1.6079 C   0  0  0  0  0  0  0  0  0  0  0  0
    0.7694   -0.3672   -0.9780 O   0  0  0  0  0  0  0  0  0  0  0  0
   -1.1400   -0.2046   -2.2154 O   0  0  0  0  0  0  0  0  0  0  0  0
    1.1419    1.0209   -0.9093 C   0  0  2  0  0  0  0  0  0  0  0  0
    2.5543    1.1010   -0.2832 C   0  0  0  0  0  0  0  0  0  0  0  0
    0.1245    1.8611   -0.0946 C   0  0  0  0  0  0  0  0  0  0  0  0
    1.8348   -7.7458   -4.4505 H   0  0  0  0  0  0  0  0  0  0  0  0
    2.2771   -9.0304   -3.3196 H   0  0  0  0  0  0  0  0  0  0  0  0
    2.1601  -10.6638   -5.3053 H   0  0  0  0  0  0  0  0  0  0  0  0
    1.8998   -9.2802   -6.3597 H   0  0  0  0  0  0  0  0  0  0  0  0
   -0.2905   -8.9522   -4.9784 H   0  0  0  0  0  0  0  0  0  0  0  0
    0.2852   -7.3834   -2.6297 H   0  0  0  0  0  0  0  0  0  0  0  0
    0.8408  -11.0601   -3.2202 H   0  0  0  0  0  0  0  0  0  0  0  0
    3.9599   -7.7463   -6.8281 H   0  0  0  0  0  0  0  0  0  0  0  0
    4.1136   -7.3483   -5.1100 H   0  0  0  0  0  0  0  0  0  0  0  0
   -2.4327   -8.1796   -3.8159 H   0  0  0  0  0  0  0  0  0  0  0  0
   -2.2367   -6.9665   -2.5745 H   0  0  0  0  0  0  0  0  0  0  0  0
    0.3121   -9.1811   -1.1644 H   0  0  0  0  0  0  0  0  0  0  0  0
   -0.8137  -12.2360   -4.1564 H   0  0  0  0  0  0  0  0  0  0  0  0
   -0.8307  -11.2548   -1.5944 H   0  0  0  0  0  0  0  0  0  0  0  0
   -2.0559  -10.4533   -2.6060 H   0  0  0  0  0  0  0  0  0  0  0  0
    6.2601   -8.7090   -6.8108 H   0  0  0  0  0  0  0  0  0  0  0  0
    6.4028   -8.3521   -5.0793 H   0  0  0  0  0  0  0  0  0  0  0  0
   -1.5754   -6.7294   -5.3927 H   0  0  0  0  0  0  0  0  0  0  0  0
   -1.5888   -9.2559   -0.0367 H   0  0  0  0  0  0  0  0  0  0  0  0
    6.1620   -5.9054   -5.5592 H   0  0  0  0  0  0  0  0  0  0  0  0
    6.0369   -6.2617   -7.2966 H   0  0  0  0  0  0  0  0  0  0  0  0
   -0.9645   -4.5918   -5.0393 H   0  0  0  0  0  0  0  0  0  0  0  0
    8.6292   -6.8889   -5.5304 H   0  0  0  0  0  0  0  0  0  0  0  0
    8.5099   -7.2649   -7.2495 H   0  0  0  0  0  0  0  0  0  0  0  0
   -0.1904   -5.0666   -2.3603 H   0  0  0  0  0  0  0  0  0  0  0  0
   -1.9050   -4.6193   -2.3822 H   0  0  0  0  0  0  0  0  0  0  0  0
    8.3081   -4.8177   -7.7659 H   0  0  0  0  0  0  0  0  0  0  0  0
    8.4430   -4.4480   -6.0424 H   0  0  0  0  0  0  0  0  0  0  0  0
   -1.3094   -2.4988   -3.5827 H   0  0  0  0  0  0  0  0  0  0  0  0
    0.4046   -2.9270   -3.4515 H   0  0  0  0  0  0  0  0  0  0  0  0
   10.5773   -5.8901   -7.7126 H   0  0  0  0  0  0  0  0  0  0  0  0
   10.7130   -5.5096   -5.9884 H   0  0  0  0  0  0  0  0  0  0  0  0
    0.2977   -2.8423   -0.9885 H   0  0  0  0  0  0  0  0  0  0  0  0
   -1.4515   -2.5670   -1.0253 H   0  0  0  0  0  0  0  0  0  0  0  0
   11.9631   -3.8690   -7.3622 H   0  0  0  0  0  0  0  0  0  0  0  0
   10.4886   -3.4459   -8.2487 H   0  0  0  0  0  0  0  0  0  0  0  0
   10.6287   -3.0641   -6.5187 H   0  0  0  0  0  0  0  0  0  0  0  0
    1.2009    1.4178   -1.9265 H   0  0  0  0  0  0  0  0  0  0  0  0
    2.9124    2.1327   -0.2733 H   0  0  0  0  0  0  0  0  0  0  0  0
    3.2540    0.4990   -0.8652 H   0  0  0  0  0  0  0  0  0  0  0  0
    2.5420    0.7239    0.7410 H   0  0  0  0  0  0  0  0  0  0  0  0
    0.4512    2.9019   -0.0369 H   0  0  0  0  0  0  0  0  0  0  0  0
   -0.8571    1.8454   -0.5662 H   0  0  0  0  0  0  0  0  0  0  0  0
    0.0277    1.4633    0.9178 H   0  0  0  0  0  0  0  0  0  0  0  0
  1  2  1  0  0  0  0 
  2  4  1  0  0  0  0 
  3  1  1  0  0  0  0 
  5  3  1  0  0  0  0 
  3  6  1  0  0  0  0 
  4  7  1  0  0  0  0 
  4  8  2  0  0  0  0 
  5  9  1  0  0  0  0 
 10  5  1  0  0  0  0 
  6 11  1  0  0  0  0 
  6 12  1  0  0  0  0 
  7 13  1  0  0  0  0 
  9 14  1  0  0  0  0 
 10 12  1  0  0  0  0 
 10 15  1  0  0  0  0 
 13 16  1  0  0  0  0 
 14 17  2  0  0  0  0 
 16 18  1  0  0  0  0 
 17 19  1  0  0  0  0 
 18 20  1  0  0  0  0 
 19 21  1  0  0  0  0 
 20 22  1  0  0  0  0 
 21 23  1  0  0  0  0 
 22 24  1  0  0  0  0 
 23 25  1  0  0  0  0 
 25 26  1  0  0  0  0 
 25 27  2  0  0  0  0 
 26 28  1  0  0  0  0 
 28 29  1  0  0  0  0 
 28 30  1  0  0  0  0 
  1 31  1  0  0  0  0 
  1 32  1  0  0  0  0 
  2 33  1  0  0  0  0 
  2 34  1  0  0  0  0 
  3 35  1  0  0  0  0 
  5 36  1  0  0  0  0 
  6 37  1  0  0  0  0 
  7 38  1  0  0  0  0 
  7 39  1  0  0  0  0 
  9 40  1  0  0  0  0 
  9 41  1  0  0  0  0 
 10 42  1  0  0  0  0 
 11 43  1  0  0  0  0 
 12 44  1  0  0  0  0 
 12 45  1  0  0  0  0 
 13 46  1  0  0  0  0 
 13 47  1  0  0  0  0 
 14 48  1  0  0  0  0 
 15 49  1  0  0  0  0 
 16 50  1  0  0  0  0 
 16 51  1  0  0  0  0 
 17 52  1  0  0  0  0 
 18 53  1  0  0  0  0 
 18 54  1  0  0  0  0 
 19 55  1  0  0  0  0 
 19 56  1  0  0  0  0 
 20 57  1  0  0  0  0 
 20 58  1  0  0  0  0 
 21 59  1  0  0  0  0 
 21 60  1  0  0  0  0 
 22 61  1  0  0  0  0 
 22 62  1  0  0  0  0 
 23 63  1  0  0  0  0 
 23 64  1  0  0  0  0 
 24 65  1  0  0  0  0 
 24 66  1  0  0  0  0 
 24 67  1  0  0  0  0 
 28 68  1  0  0  0  0 
 29 69  1  0  0  0  0 
 29 70  1  0  0  0  0 
 29 71  1  0  0  0  0 
 30 72  1  0  0  0  0 
 30 73  1  0  0  0  0 
 30 74  1  0  0  0  0 
M  END
> <cdk:Title>
unoprostone isopropyl

> <Conformer>
1

> <SuperDrugID>
SD002519

$$$$
