riluzole
  CDK     0628171801

 20 21  0  0  0  0  0  0  0  0999 V2000
    3.6716    4.8591   -3.9165 N   0  0  0  0  0  0  0  0  0  0  0  0
    3.0666    3.8998   -3.2010 C   0  0  0  0  0  0  0  0  0  0  0  0
    1.9826    4.0612   -2.4071 N   0  0  0  0  0  0  0  0  0  0  0  0
    3.5543    2.2141   -3.0947 S   0  0  0  0  0  0  0  0  0  0  0  0
    1.5491    2.9476   -1.7511 C   0  0  0  0  0  0  0  0  0  0  0  0
    2.2757    1.7677   -1.9830 C   0  0  0  0  0  0  0  0  0  0  0  0
    0.4519    2.9037   -0.8710 C   0  0  0  0  0  0  0  0  0  0  0  0
    1.9483    0.5415   -1.3869 C   0  0  0  0  0  0  0  0  0  0  0  0
    0.1029    1.6829   -0.2536 C   0  0  0  0  0  0  0  0  0  0  0  0
    0.8316    0.4981   -0.5216 C   0  0  0  0  0  0  0  0  0  0  0  0
    0.4746   -0.6825    0.0790 O   0  0  0  0  0  0  0  0  0  0  0  0
   -0.4506   -1.4912   -0.6793 C   0  0  2  0  0  0  0  0  0  0  0  0
    0.0466   -1.8711   -1.9044 F   0  0  0  0  0  0  0  0  0  0  0  0
   -1.6711   -0.8815   -0.8531 F   0  0  0  0  0  0  0  0  0  0  0  0
   -0.6734   -2.6393    0.0348 F   0  0  0  0  0  0  0  0  0  0  0  0
    3.3362    5.7684   -3.8884 H   0  0  0  0  0  0  0  0  0  0  0  0
    4.4479    4.6468   -4.4582 H   0  0  0  0  0  0  0  0  0  0  0  0
   -0.0879    3.7508   -0.6791 H   0  0  0  0  0  0  0  0  0  0  0  0
    2.5042   -0.2941   -1.5803 H   0  0  0  0  0  0  0  0  0  0  0  0
   -0.6889    1.6571    0.3920 H   0  0  0  0  0  0  0  0  0  0  0  0
  1  2  1  0  0  0  0 
  2  3  2  0  0  0  0 
  2  4  1  0  0  0  0 
  3  5  1  0  0  0  0 
  4  6  1  0  0  0  0 
  5  6  1  0  0  0  0 
  5  7  2  0  0  0  0 
  6  8  2  0  0  0  0 
  7  9  1  0  0  0  0 
  8 10  1  0  0  0  0 
  9 10  2  0  0  0  0 
 10 11  1  0  0  0  0 
 11 12  1  0  0  0  0 
 12 13  1  0  0  0  0 
 12 14  1  0  0  0  0 
 12 15  1  0  0  0  0 
  1 16  1  0  0  0  0 
  1 17  1  0  0  0  0 
  7 18  1  0  0  0  0 
  8 19  1  0  0  0  0 
  9 20  1  0  0  0  0 
M  END
> <cdk:Title>
riluzole

> <Conformer>
1

> <SuperDrugID>
SD002143

$$$$
