terlipressin
  CDK     0628171801

159162  0  0  0  0  0  0  0  0999 V2000
    6.5409   -3.3168  -12.3914 H   0  0  0  0  0  0  0  0  0  0  0  0
    7.4067   -3.1287  -11.8817 N   0  0  2  0  0  0  0  0  0  0  0  0
    5.5117   -0.2967  -11.1252 N   0  0  0  0  0  0  0  0  0  0  0  0
    3.1908    2.2491  -10.5998 N   0  0  0  0  0  0  0  0  0  0  0  0
    1.3965    3.4485   -8.0521 N   0  0  0  0  0  0  0  0  0  0  0  0
    2.9380    4.6774   -5.6164 N   0  0  0  0  0  0  0  0  0  0  0  0
    3.3712    1.9608   -3.6585 N   0  0  0  0  0  0  0  0  0  0  0  0
    3.5754   -0.9866   -2.4782 N   0  0  0  0  0  0  0  0  0  0  0  0
    0.8361   -1.1964   -3.6094 N   0  0  0  0  0  0  0  0  0  0  0  0
   -1.3543    0.3311   -5.7632 N   0  0  0  0  0  0  0  0  0  0  0  0
    0.5089   -1.3375   -7.7345 N   0  0  0  0  0  0  0  0  0  0  0  0
    0.6571   -4.4733   -9.4228 N   0  0  0  0  0  0  0  0  0  0  0  0
    1.8373   -7.1802   -8.7963 N   0  0  0  0  0  0  0  0  0  0  0  0
    3.5813   -8.1701   -6.5727 N   0  0  0  0  0  0  0  0  0  0  0  0
    6.7269   -0.8530  -11.3927 C   0  0  0  0  0  0  0  0  0  0  0  0
    7.0875   -2.1656  -10.8231 C   0  0  2  0  0  0  0  0  0  0  0  0
    7.5699   -0.2597  -12.1070 O   0  0  0  0  0  0  0  0  0  0  0  0
    3.6311    1.1693  -11.3146 C   0  0  0  0  0  0  0  0  0  0  0  0
    5.0646    0.9729  -11.6106 C   0  0  2  0  0  0  0  0  0  0  0  0
    2.8243    0.3142  -11.7539 O   0  0  0  0  0  0  0  0  0  0  0  0
    1.6277    3.6493   -9.3825 C   0  0  0  0  0  0  0  0  0  0  0  0
    1.8193    2.4892  -10.2804 C   0  0  2  0  0  0  0  0  0  0  0  0
    1.6119    4.8010   -9.8781 O   0  0  0  0  0  0  0  0  0  0  0  0
    1.8298    5.1223   -6.2765 C   0  0  0  0  0  0  0  0  0  0  0  0
   -1.8189    3.4133   -7.0762 S   0  0  0  0  0  0  0  0  0  0  0  0
   -0.2224    3.6843   -6.2343 C   0  0  2  0  0  0  0  0  0  0  0  0
    0.8409    4.3926   -7.1249 C   0  0  2  0  0  0  0  0  0  0  0  0
    1.6111    6.3419   -6.0868 O   0  0  0  0  0  0  0  0  0  0  0  0
    3.9346    3.0638   -4.2388 C   0  0  0  0  0  0  0  0  0  0  0  0
    4.8949    3.6854   -6.5326 C   0  0  1  0  0  0  0  0  0  0  0  0
    5.9117    2.5984   -6.6206 C   0  0  0  0  0  0  0  0  0  0  0  0
    6.8830    2.4239   -5.6046 C   0  0  0  0  0  0  0  0  0  0  0  0
    7.9099    1.4712   -5.7400 C   0  0  0  0  0  0  0  0  0  0  0  0
    7.9912    0.6802   -6.8998 C   0  0  0  0  0  0  0  0  0  0  0  0
    9.0038   -0.2112   -7.0334 O   0  0  0  0  0  0  0  0  0  0  0  0
    7.0223    0.8300   -7.9086 C   0  0  0  0  0  0  0  0  0  0  0  0
    5.9893    1.7751   -7.7681 C   0  0  0  0  0  0  0  0  0  0  0  0
    3.6319    3.4232   -5.6525 C   0  0  2  0  0  0  0  0  0  0  0  0
    4.6647    3.8358   -3.5707 O   0  0  0  0  0  0  0  0  0  0  0  0
    3.7570    0.2153   -1.8636 C   0  0  0  0  0  0  0  0  0  0  0  0
    2.0070    2.0329   -1.6901 C   0  0  2  0  0  0  0  0  0  0  0  0
    1.7523    1.6772   -0.2652 C   0  0  0  0  0  0  0  0  0  0  0  0
    0.7947    0.6904    0.0694 C   0  0  0  0  0  0  0  0  0  0  0  0
    0.5674    0.3340    1.4104 C   0  0  0  0  0  0  0  0  0  0  0  0
    1.2877    0.9673    2.4384 C   0  0  0  0  0  0  0  0  0  0  0  0
    2.2429    1.9503    2.1226 C   0  0  0  0  0  0  0  0  0  0  0  0
    2.4781    2.2985    0.7791 C   0  0  0  0  0  0  0  0  0  0  0  0
    3.4018    1.6221   -2.2549 C   0  0  2  0  0  0  0  0  0  0  0  0
    4.2738    0.0627   -0.7313 O   0  0  0  0  0  0  0  0  0  0  0  0
    1.9171   -1.9487   -3.9383 C   0  0  0  0  0  0  0  0  0  0  0  0
    4.4215   -2.1558   -4.4059 C   0  0  1  0  0  0  0  0  0  0  0  0
    5.7575   -1.3707   -4.5260 C   0  0  1  0  0  0  0  0  0  0  0  0
    6.7638   -2.0885   -5.3336 C   0  0  0  0  0  0  0  0  0  0  0  0
    7.9311   -2.5011   -4.8110 N   0  0  0  0  0  0  0  0  0  0  0  0
    6.5576   -2.3062   -6.5495 O   0  0  0  0  0  0  0  0  0  0  0  0
    3.2520   -1.3024   -3.8288 C   0  0  2  0  0  0  0  0  0  0  0  0
    1.7745   -3.0960   -4.4254 O   0  0  0  0  0  0  0  0  0  0  0  0
   -0.9336   -0.0317   -4.5246 C   0  0  0  0  0  0  0  0  0  0  0  0
   -1.4115   -1.9163   -2.8952 C   0  0  1  0  0  0  0  0  0  0  0  0
   -2.7834   -2.2635   -3.3256 C   0  0  0  0  0  0  0  0  0  0  0  0
   -3.0052   -3.3108   -4.1413 N   0  0  0  0  0  0  0  0  0  0  0  0
   -3.7668   -1.6010   -2.9239 O   0  0  0  0  0  0  0  0  0  0  0  0
   -0.5190   -1.3796   -4.0501 C   0  0  2  0  0  0  0  0  0  0  0  0
   -0.8807    0.9320   -3.7246 O   0  0  0  0  0  0  0  0  0  0  0  0
   -0.8757   -1.3850   -7.6028 C   0  0  0  0  0  0  0  0  0  0  0  0
   -1.4749    1.8845   -8.4756 S   0  0  0  0  0  0  0  0  0  0  0  0
   -2.5119    0.5074   -7.8737 C   0  0  1  0  0  0  0  0  0  0  0  0
   -1.8009   -0.4561   -6.8717 C   0  0  2  0  0  0  0  0  0  0  0  0
   -1.4891   -2.2948   -8.2147 O   0  0  0  0  0  0  0  0  0  0  0  0
    0.9325   -3.7132   -8.3295 C   0  0  0  0  0  0  0  0  0  0  0  0
    1.2768   -2.2773   -8.5270 C   0  0  2  0  0  0  0  0  0  0  0  0
    2.7572   -1.9959   -8.2029 C   0  0  2  0  0  0  0  0  0  0  0  0
    2.7570   -0.5346   -7.7430 C   0  0  2  0  0  0  0  0  0  0  0  0
    1.3388   -0.3152   -7.1822 C   0  0  1  0  0  0  0  0  0  0  0  0
    0.8354   -4.1751   -7.1677 O   0  0  0  0  0  0  0  0  0  0  0  0
    0.9405   -6.8192   -9.7553 C   0  0  0  0  0  0  0  0  0  0  0  0
   -3.3882   -6.4616  -11.4735 C   0  0  1  0  0  0  0  0  0  0  0  0
   -2.2540   -6.6997  -10.4391 C   0  0  1  0  0  0  0  0  0  0  0  0
   -1.1962   -5.5639  -10.4661 C   0  0  1  0  0  0  0  0  0  0  0  0
   -0.0257   -5.7338   -9.4462 C   0  0  2  0  0  0  0  0  0  0  0  0
   -5.4997   -7.3168  -12.4573 N   0  0  1  0  0  0  0  0  0  0  0  0
   -4.4934   -7.5431  -11.4148 C   0  0  1  0  0  0  0  0  0  0  0  0
    0.9234   -7.4053  -10.8642 O   0  0  0  0  0  0  0  0  0  0  0  0
    2.9286   -8.8502   -7.5326 C   0  0  0  0  0  0  0  0  0  0  0  0
    2.7560   -8.2727   -8.8766 C   0  0  2  0  0  0  0  0  0  0  0  0
    2.4646   -9.9799   -7.2555 O   0  0  0  0  0  0  0  0  0  0  0  0
    7.6735   -4.0018  -11.4206 H   0  0  0  0  0  0  0  0  0  0  0  0
    4.9102   -0.7947  -10.5492 H   0  0  0  0  0  0  0  0  0  0  0  0
    3.8462    2.8988  -10.3007 H   0  0  0  0  0  0  0  0  0  0  0  0
    1.5463    2.5523   -7.7167 H   0  0  0  0  0  0  0  0  0  0  0  0
    3.3621    5.3437   -5.0501 H   0  0  0  0  0  0  0  0  0  0  0  0
    2.8154    1.4161   -4.2335 H   0  0  0  0  0  0  0  0  0  0  0  0
    3.7538   -1.7579   -1.9163 H   0  0  0  0  0  0  0  0  0  0  0  0
    1.0170   -0.3957   -3.0939 H   0  0  0  0  0  0  0  0  0  0  0  0
   -1.4453    1.2867   -5.8823 H   0  0  0  0  0  0  0  0  0  0  0  0
    0.8781   -4.0849  -10.2836 H   0  0  0  0  0  0  0  0  0  0  0  0
    1.8388   -6.6589   -7.9778 H   0  0  0  0  0  0  0  0  0  0  0  0
    3.9617   -7.2998   -6.7690 H   0  0  0  0  0  0  0  0  0  0  0  0
    3.6752   -8.5488   -5.6843 H   0  0  0  0  0  0  0  0  0  0  0  0
    7.9639   -2.0516  -10.1825 H   0  0  0  0  0  0  0  0  0  0  0  0
    6.2724   -2.5719  -10.2209 H   0  0  0  0  0  0  0  0  0  0  0  0
    5.1979    1.0241  -12.6948 H   0  0  0  0  0  0  0  0  0  0  0  0
    5.6638    1.7635  -11.1523 H   0  0  0  0  0  0  0  0  0  0  0  0
    1.3927    1.5982   -9.8146 H   0  0  0  0  0  0  0  0  0  0  0  0
    1.2621    2.6651  -11.2051 H   0  0  0  0  0  0  0  0  0  0  0  0
    0.1663    2.7407   -5.8464 H   0  0  0  0  0  0  0  0  0  0  0  0
   -0.4624    4.3152   -5.3736 H   0  0  0  0  0  0  0  0  0  0  0  0
    0.2900    5.1502   -7.6972 H   0  0  0  0  0  0  0  0  0  0  0  0
    5.4069    4.5883   -6.1815 H   0  0  0  0  0  0  0  0  0  0  0  0
    4.5432    3.9288   -7.5406 H   0  0  0  0  0  0  0  0  0  0  0  0
    6.8697    3.0075   -4.7664 H   0  0  0  0  0  0  0  0  0  0  0  0
    8.6052    1.3654   -4.9986 H   0  0  0  0  0  0  0  0  0  0  0  0
    8.9202   -0.5773   -7.9384 H   0  0  0  0  0  0  0  0  0  0  0  0
    7.0771    0.2604   -8.7516 H   0  0  0  0  0  0  0  0  0  0  0  0
    5.3043    1.8724   -8.5204 H   0  0  0  0  0  0  0  0  0  0  0  0
    3.0201    2.6419   -6.1101 H   0  0  0  0  0  0  0  0  0  0  0  0
    1.8888    3.1157   -1.7905 H   0  0  0  0  0  0  0  0  0  0  0  0
    1.2387    1.5842   -2.3214 H   0  0  0  0  0  0  0  0  0  0  0  0
    0.2571    0.2204   -0.6625 H   0  0  0  0  0  0  0  0  0  0  0  0
   -0.1227   -0.3839    1.6406 H   0  0  0  0  0  0  0  0  0  0  0  0
    1.1192    0.7082    3.4128 H   0  0  0  0  0  0  0  0  0  0  0  0
    2.7653    2.4134    2.8705 H   0  0  0  0  0  0  0  0  0  0  0  0
    3.1841    3.0093    0.5693 H   0  0  0  0  0  0  0  0  0  0  0  0
    4.1410    2.2607   -1.7574 H   0  0  0  0  0  0  0  0  0  0  0  0
    4.1378   -2.5071   -5.3961 H   0  0  0  0  0  0  0  0  0  0  0  0
    4.5774   -3.0376   -3.7771 H   0  0  0  0  0  0  0  0  0  0  0  0
    5.5810   -0.4040   -5.0035 H   0  0  0  0  0  0  0  0  0  0  0  0
    6.1464   -1.1829   -3.5213 H   0  0  0  0  0  0  0  0  0  0  0  0
    8.5649   -2.9742   -5.3720 H   0  0  0  0  0  0  0  0  0  0  0  0
    8.1395   -2.3315   -3.8776 H   0  0  0  0  0  0  0  0  0  0  0  0
    3.2020   -0.4091   -4.4419 H   0  0  0  0  0  0  0  0  0  0  0  0
   -1.4568   -1.1762   -2.0915 H   0  0  0  0  0  0  0  0  0  0  0  0
   -0.9534   -2.8176   -2.4799 H   0  0  0  0  0  0  0  0  0  0  0  0
   -2.2597   -3.8443   -4.4596 H   0  0  0  0  0  0  0  0  0  0  0  0
   -3.9102   -3.5367   -4.4099 H   0  0  0  0  0  0  0  0  0  0  0  0
   -0.5544   -2.0913   -4.8788 H   0  0  0  0  0  0  0  0  0  0  0  0
   -3.4141    0.9191   -7.4099 H   0  0  0  0  0  0  0  0  0  0  0  0
   -2.8459   -0.0427   -8.7563 H   0  0  0  0  0  0  0  0  0  0  0  0
   -2.5964   -1.0795   -6.4486 H   0  0  0  0  0  0  0  0  0  0  0  0
    1.1121   -2.0050   -9.5773 H   0  0  0  0  0  0  0  0  0  0  0  0
    3.3930   -2.1413   -9.0810 H   0  0  0  0  0  0  0  0  0  0  0  0
    3.1146   -2.6382   -7.3992 H   0  0  0  0  0  0  0  0  0  0  0  0
    2.9340    0.1133   -8.6026 H   0  0  0  0  0  0  0  0  0  0  0  0
    3.5269   -0.3377   -6.9925 H   0  0  0  0  0  0  0  0  0  0  0  0
    0.9857    0.6710   -7.4633 H   0  0  0  0  0  0  0  0  0  0  0  0
    1.3558   -0.3850   -6.1014 H   0  0  0  0  0  0  0  0  0  0  0  0
   -3.8457   -5.4839  -11.2941 H   0  0  0  0  0  0  0  0  0  0  0  0
   -2.9563   -6.4513  -12.4787 H   0  0  0  0  0  0  0  0  0  0  0  0
   -2.6874   -6.7549   -9.4365 H   0  0  0  0  0  0  0  0  0  0  0  0
   -1.7711   -7.6557  -10.6536 H   0  0  0  0  0  0  0  0  0  0  0  0
   -0.7825   -5.4716  -11.4761 H   0  0  0  0  0  0  0  0  0  0  0  0
   -1.7219   -4.6291  -10.2442 H   0  0  0  0  0  0  0  0  0  0  0  0
   -0.4742   -5.9568   -8.4710 H   0  0  0  0  0  0  0  0  0  0  0  0
   -6.2233   -8.0275  -12.3306 H   0  0  0  0  0  0  0  0  0  0  0  0
   -5.9357   -6.4140  -12.2611 H   0  0  0  0  0  0  0  0  0  0  0  0
   -4.0601   -8.5333  -11.5684 H   0  0  0  0  0  0  0  0  0  0  0  0
   -4.9890   -7.5226  -10.4408 H   0  0  0  0  0  0  0  0  0  0  0  0
    3.7178   -7.9117   -9.2457 H   0  0  0  0  0  0  0  0  0  0  0  0
    2.3974   -9.0470   -9.5616 H   0  0  0  0  0  0  0  0  0  0  0  0
  1  2  1  0  0  0  0 
 15  3  1  0  0  0  0 
 18  4  1  0  0  0  0 
 21  5  1  0  0  0  0 
 24  6  1  0  0  0  0 
 29  7  1  0  0  0  0 
 40  8  1  0  0  0  0 
 50  9  1  0  0  0  0 
 58 10  1  0  0  0  0 
 65 11  1  0  0  0  0 
 70 12  1  0  0  0  0 
 76 13  1  0  0  0  0 
 84 14  1  0  0  0  0 
 25 66  1  0  0  0  0 
  2 16  1  0  0  0  0 
 16 15  1  0  0  0  0 
 15 17  2  0  0  0  0 
  3 19  1  0  0  0  0 
 19 18  1  0  0  0  0 
 18 20  2  0  0  0  0 
  4 22  1  0  0  0  0 
 22 21  1  0  0  0  0 
 21 23  2  0  0  0  0 
 27  5  1  0  0  0  0 
 27 26  1  0  0  0  0 
 26 25  1  0  0  0  0 
 27 24  1  0  0  0  0 
 24 28  2  0  0  0  0 
 38  6  1  0  0  0  0 
 38 30  1  0  0  0  0 
 30 31  1  0  0  0  0 
 31 32  2  0  0  0  0 
 32 33  1  0  0  0  0 
 33 34  2  0  0  0  0 
 34 35  1  0  0  0  0 
 34 36  1  0  0  0  0 
 36 37  2  0  0  0  0 
 31 37  1  0  0  0  0 
 38 29  1  0  0  0  0 
 29 39  2  0  0  0  0 
 48  7  1  0  0  0  0 
 48 41  1  0  0  0  0 
 41 42  1  0  0  0  0 
 42 43  2  0  0  0  0 
 43 44  1  0  0  0  0 
 44 45  2  0  0  0  0 
 45 46  1  0  0  0  0 
 46 47  2  0  0  0  0 
 42 47  1  0  0  0  0 
 48 40  1  0  0  0  0 
 40 49  2  0  0  0  0 
 56  8  1  0  0  0  0 
 56 51  1  0  0  0  0 
 51 52  1  0  0  0  0 
 52 53  1  0  0  0  0 
 53 54  1  0  0  0  0 
 53 55  2  0  0  0  0 
 56 50  1  0  0  0  0 
 50 57  2  0  0  0  0 
 63  9  1  0  0  0  0 
 63 59  1  0  0  0  0 
 59 60  1  0  0  0  0 
 60 61  1  0  0  0  0 
 60 62  2  0  0  0  0 
 63 58  1  0  0  0  0 
 58 64  2  0  0  0  0 
 68 10  1  0  0  0  0 
 68 67  1  0  0  0  0 
 67 66  1  0  0  0  0 
 68 65  1  0  0  0  0 
 65 69  2  0  0  0  0 
 75 70  2  0  0  0  0 
 71 70  1  0  0  0  0 
 71 72  1  0  0  0  0 
 72 73  1  0  0  0  0 
 73 74  1  0  0  0  0 
 74 11  1  0  0  0  0 
 71 11  1  0  0  0  0 
 81 82  1  0  0  0  0 
 82 77  1  0  0  0  0 
 77 78  1  0  0  0  0 
 78 79  1  0  0  0  0 
 79 80  1  0  0  0  0 
 80 12  1  0  0  0  0 
 80 76  1  0  0  0  0 
 76 83  2  0  0  0  0 
 13 85  1  0  0  0  0 
 85 84  1  0  0  0  0 
 84 86  2  0  0  0  0 
  2 87  1  0  0  0  0 
  3 88  1  0  0  0  0 
  4 89  1  0  0  0  0 
  5 90  1  0  0  0  0 
  6 91  1  0  0  0  0 
  7 92  1  0  0  0  0 
  8 93  1  0  0  0  0 
  9 94  1  0  0  0  0 
 10 95  1  0  0  0  0 
 12 96  1  0  0  0  0 
 13 97  1  0  0  0  0 
 14 98  1  0  0  0  0 
 14 99  1  0  0  0  0 
 16100  1  0  0  0  0 
 16101  1  0  0  0  0 
 19102  1  0  0  0  0 
 19103  1  0  0  0  0 
 22104  1  0  0  0  0 
 22105  1  0  0  0  0 
 26106  1  0  0  0  0 
 26107  1  0  0  0  0 
 27108  1  0  0  0  0 
 30109  1  0  0  0  0 
 30110  1  0  0  0  0 
 32111  1  0  0  0  0 
 33112  1  0  0  0  0 
 35113  1  0  0  0  0 
 36114  1  0  0  0  0 
 37115  1  0  0  0  0 
 38116  1  0  0  0  0 
 41117  1  0  0  0  0 
 41118  1  0  0  0  0 
 43119  1  0  0  0  0 
 44120  1  0  0  0  0 
 45121  1  0  0  0  0 
 46122  1  0  0  0  0 
 47123  1  0  0  0  0 
 48124  1  0  0  0  0 
 51125  1  0  0  0  0 
 51126  1  0  0  0  0 
 52127  1  0  0  0  0 
 52128  1  0  0  0  0 
 54129  1  0  0  0  0 
 54130  1  0  0  0  0 
 56131  1  0  0  0  0 
 59132  1  0  0  0  0 
 59133  1  0  0  0  0 
 61134  1  0  0  0  0 
 61135  1  0  0  0  0 
 63136  1  0  0  0  0 
 67137  1  0  0  0  0 
 67138  1  0  0  0  0 
 68139  1  0  0  0  0 
 71140  1  0  0  0  0 
 72141  1  0  0  0  0 
 72142  1  0  0  0  0 
 73143  1  0  0  0  0 
 73144  1  0  0  0  0 
 74145  1  0  0  0  0 
 74146  1  0  0  0  0 
 77147  1  0  0  0  0 
 77148  1  0  0  0  0 
 78149  1  0  0  0  0 
 78150  1  0  0  0  0 
 79151  1  0  0  0  0 
 79152  1  0  0  0  0 
 80153  1  0  0  0  0 
 81154  1  0  0  0  0 
 81155  1  0  0  0  0 
 82156  1  0  0  0  0 
 82157  1  0  0  0  0 
 85158  1  0  0  0  0 
 85159  1  0  0  0  0 
M  END
> <cdk:Title>
terlipressin

> <Conformer>
1

> <SuperDrugID>
SD002603

$$$$
