tolrestat
  CDK     0628171801

 38 39  0  0  0  0  0  0  0  0999 V2000
    2.9682    2.2428    4.5804 C   0  0  0  0  0  0  0  0  0  0  0  0
    2.7832    1.7488    5.8268 N   0  0  0  0  0  0  0  0  0  0  0  0
    3.4916    3.8518    4.3620 S   0  0  0  0  0  0  0  0  0  0  0  0
    2.7789    1.4970    3.4211 C   0  0  0  0  0  0  0  0  0  0  0  0
    3.4070    0.5130    6.2550 C   0  0  1  0  0  0  0  0  0  0  0  0
    1.9950    2.4748    6.7989 C   0  0  0  0  0  0  0  0  0  0  0  0
    1.5238    1.4053    2.7428 C   0  0  0  0  0  0  0  0  0  0  0  0
    3.9065    0.8419    2.8833 C   0  0  0  0  0  0  0  0  0  0  0  0
    4.7198    0.7680    6.8733 C   0  0  0  0  0  0  0  0  0  0  0  0
    1.4092    0.6834    1.5056 C   0  0  0  0  0  0  0  0  0  0  0  0
    0.3692    2.0387    3.2587 C   0  0  0  0  0  0  0  0  0  0  0  0
    3.8004    0.0920    1.7088 C   0  0  0  0  0  0  0  0  0  0  0  0
    5.7529    1.2223    6.1283 O   0  0  0  0  0  0  0  0  0  0  0  0
    4.9078    0.5624    8.0933 O   0  0  0  0  0  0  0  0  0  0  0  0
    0.1653    0.6563    0.7809 C   0  0  0  0  0  0  0  0  0  0  0  0
    2.5753    0.0200    1.0324 C   0  0  0  0  0  0  0  0  0  0  0  0
   -0.8534    1.9794    2.5860 C   0  0  0  0  0  0  0  0  0  0  0  0
    0.0498    0.0042   -0.5749 C   0  0  2  0  0  0  0  0  0  0  0  0
   -0.9678    1.2915    1.3680 C   0  0  0  0  0  0  0  0  0  0  0  0
    0.2807   -1.3472   -0.4820 F   0  0  0  0  0  0  0  0  0  0  0  0
    0.9444    0.5763   -1.4482 F   0  0  0  0  0  0  0  0  0  0  0  0
   -1.1556    0.1165   -1.2291 F   0  0  0  0  0  0  0  0  0  0  0  0
   -2.2113    1.3128    0.7840 O   0  0  0  0  0  0  0  0  0  0  0  0
   -3.0785    0.2623    1.2522 C   0  0  0  0  0  0  0  0  0  0  0  0
    2.7658   -0.0089    6.9711 H   0  0  0  0  0  0  0  0  0  0  0  0
    3.5541   -0.1901    5.4339 H   0  0  0  0  0  0  0  0  0  0  0  0
    1.3115    1.8014    7.3199 H   0  0  0  0  0  0  0  0  0  0  0  0
    1.3819    3.2586    6.3509 H   0  0  0  0  0  0  0  0  0  0  0  0
    2.6548    2.9365    7.5346 H   0  0  0  0  0  0  0  0  0  0  0  0
    4.8213    0.9047    3.3410 H   0  0  0  0  0  0  0  0  0  0  0  0
    0.3941    2.5578    4.1370 H   0  0  0  0  0  0  0  0  0  0  0  0
    4.6203   -0.3967    1.3417 H   0  0  0  0  0  0  0  0  0  0  0  0
    6.6293    1.3640    6.5436 H   0  0  0  0  0  0  0  0  0  0  0  0
    2.5676   -0.5346    0.1776 H   0  0  0  0  0  0  0  0  0  0  0  0
   -1.6692    2.4497    2.9879 H   0  0  0  0  0  0  0  0  0  0  0  0
   -4.0118    0.3177    0.6899 H   0  0  0  0  0  0  0  0  0  0  0  0
   -2.6435   -0.7285    1.0917 H   0  0  0  0  0  0  0  0  0  0  0  0
   -3.3130    0.3889    2.3112 H   0  0  0  0  0  0  0  0  0  0  0  0
  1  2  1  0  0  0  0 
  1  3  2  0  0  0  0 
  1  4  1  0  0  0  0 
  2  5  1  0  0  0  0 
  2  6  1  0  0  0  0 
  4  7  2  0  0  0  0 
  4  8  1  0  0  0  0 
  5  9  1  0  0  0  0 
  7 10  1  0  0  0  0 
  7 11  1  0  0  0  0 
  8 12  2  0  0  0  0 
  9 13  1  0  0  0  0 
  9 14  2  0  0  0  0 
 10 15  1  0  0  0  0 
 10 16  2  0  0  0  0 
 11 17  2  0  0  0  0 
 12 16  1  0  0  0  0 
 15 18  1  0  0  0  0 
 15 19  2  0  0  0  0 
 17 19  1  0  0  0  0 
 18 20  1  0  0  0  0 
 18 21  1  0  0  0  0 
 18 22  1  0  0  0  0 
 19 23  1  0  0  0  0 
 23 24  1  0  0  0  0 
  5 25  1  0  0  0  0 
  5 26  1  0  0  0  0 
  6 27  1  0  0  0  0 
  6 28  1  0  0  0  0 
  6 29  1  0  0  0  0 
  8 30  1  0  0  0  0 
 11 31  1  0  0  0  0 
 12 32  1  0  0  0  0 
 13 33  1  0  0  0  0 
 16 34  1  0  0  0  0 
 17 35  1  0  0  0  0 
 24 36  1  0  0  0  0 
 24 37  1  0  0  0  0 
 24 38  1  0  0  0  0 
M  END
> <cdk:Title>
tolrestat

> <Conformer>
1

> <SuperDrugID>
SD002435

$$$$
