sertraline
  CDK     0628171801

 37 39  0  0  0  0  0  0  0  0999 V2000
   -0.1365   -0.5612   -0.4326 N   0  0  1  0  0  0  0  0  0  0  0  0
   -1.3717   -1.0593    0.2093 C   0  0  0  0  0  0  0  0  0  0  0  0
    0.2624    0.8371   -0.1101 C   0  0  2  0  0  0  0  0  0  0  0  0
    1.2599    1.3190   -1.1239 C   0  0  0  0  0  0  0  0  0  0  0  0
    0.7378    0.9351    1.3722 C   0  0  2  0  0  0  0  0  0  0  0  0
    2.4744    1.9714   -0.7547 C   0  0  0  0  0  0  0  0  0  0  0  0
    0.9662    1.1519   -2.5001 C   0  0  0  0  0  0  0  0  0  0  0  0
    1.5992    2.1924    1.6177 C   0  0  2  0  0  0  0  0  0  0  0  0
    2.8385    2.2239    0.6785 C   0  0  1  0  0  0  0  0  0  0  0  0
    3.3759    2.3807   -1.7673 C   0  0  0  0  0  0  0  0  0  0  0  0
    1.8635    1.5815   -3.4930 C   0  0  0  0  0  0  0  0  0  0  0  0
    3.9405    1.3238    1.1642 C   0  0  0  0  0  0  0  0  0  0  0  0
    3.0736    2.1880   -3.1257 C   0  0  0  0  0  0  0  0  0  0  0  0
    4.9004    1.8134    2.0829 C   0  0  0  0  0  0  0  0  0  0  0  0
    4.0623   -0.0203    0.7333 C   0  0  0  0  0  0  0  0  0  0  0  0
    5.9795    1.0139    2.5136 C   0  0  0  0  0  0  0  0  0  0  0  0
    5.1336   -0.8237    1.1526 C   0  0  0  0  0  0  0  0  0  0  0  0
    7.0996    1.6906    3.5938 Cl  0  0  0  0  0  0  0  0  0  0  0  0
    6.1036   -0.3108    2.0345 C   0  0  0  0  0  0  0  0  0  0  0  0
    7.3932   -1.3205    2.4763 Cl  0  0  0  0  0  0  0  0  0  0  0  0
    0.6290   -1.1840   -0.1624 H   0  0  0  0  0  0  0  0  0  0  0  0
   -1.6324   -2.0196   -0.2361 H   0  0  0  0  0  0  0  0  0  0  0  0
   -1.2213   -1.2061    1.2791 H   0  0  0  0  0  0  0  0  0  0  0  0
   -2.1996   -0.3655    0.0489 H   0  0  0  0  0  0  0  0  0  0  0  0
   -0.6100    1.4900   -0.2237 H   0  0  0  0  0  0  0  0  0  0  0  0
    1.3140    0.0472    1.6460 H   0  0  0  0  0  0  0  0  0  0  0  0
   -0.1338    0.9725    2.0317 H   0  0  0  0  0  0  0  0  0  0  0  0
    0.0894    0.7125   -2.7965 H   0  0  0  0  0  0  0  0  0  0  0  0
    1.9122    2.2308    2.6649 H   0  0  0  0  0  0  0  0  0  0  0  0
    0.9832    3.0791    1.4308 H   0  0  0  0  0  0  0  0  0  0  0  0
    3.1985    3.2594    0.7249 H   0  0  0  0  0  0  0  0  0  0  0  0
    4.2617    2.8301   -1.5213 H   0  0  0  0  0  0  0  0  0  0  0  0
    1.6357    1.4536   -4.4820 H   0  0  0  0  0  0  0  0  0  0  0  0
    3.7321    2.4918   -3.8462 H   0  0  0  0  0  0  0  0  0  0  0  0
    4.8109    2.7677    2.4420 H   0  0  0  0  0  0  0  0  0  0  0  0
    3.3732   -0.4322    0.1000 H   0  0  0  0  0  0  0  0  0  0  0  0
    5.2014   -1.7842    0.8052 H   0  0  0  0  0  0  0  0  0  0  0  0
  1  2  1  0  0  0  0 
  3  1  1  0  0  0  0 
  3  4  1  0  0  0  0 
  3  5  1  0  0  0  0 
  4  6  2  0  0  0  0 
  4  7  1  0  0  0  0 
  5  8  1  0  0  0  0 
  9  6  1  0  0  0  0 
  6 10  1  0  0  0  0 
  7 11  2  0  0  0  0 
  9  8  1  0  0  0  0 
  9 12  1  0  0  0  0 
 10 13  2  0  0  0  0 
 11 13  1  0  0  0  0 
 12 14  2  0  0  0  0 
 12 15  1  0  0  0  0 
 14 16  1  0  0  0  0 
 15 17  2  0  0  0  0 
 16 18  1  0  0  0  0 
 16 19  2  0  0  0  0 
 17 19  1  0  0  0  0 
 19 20  1  0  0  0  0 
  1 21  1  0  0  0  0 
  2 22  1  0  0  0  0 
  2 23  1  0  0  0  0 
  2 24  1  0  0  0  0 
  3 25  1  0  0  0  0 
  5 26  1  0  0  0  0 
  5 27  1  0  0  0  0 
  7 28  1  0  0  0  0 
  8 29  1  0  0  0  0 
  8 30  1  0  0  0  0 
  9 31  1  0  0  0  0 
 10 32  1  0  0  0  0 
 11 33  1  0  0  0  0 
 13 34  1  0  0  0  0 
 14 35  1  0  0  0  0 
 15 36  1  0  0  0  0 
 17 37  1  0  0  0  0 
M  END
> <cdk:Title>
sertraline

> <Conformer>
1

> <SuperDrugID>
SD002190

$$$$
