orazamide
  CDK     0628171801

 15 15  0  0  0  0  0  0  0  0999 V2000
    3.5712   -0.5810   -2.3176 N   0  0  0  0  0  0  0  0  0  0  0  0
    2.9208    0.5956   -2.3787 C   0  0  0  0  0  0  0  0  0  0  0  0
    3.3563    1.4603   -3.1709 O   0  0  0  0  0  0  0  0  0  0  0  0
    1.7894    0.8362   -1.5732 C   0  0  0  0  0  0  0  0  0  0  0  0
    0.9856    1.9767   -1.4984 C   0  0  0  0  0  0  0  0  0  0  0  0
    1.1161    3.1165   -2.2005 N   0  0  0  0  0  0  0  0  0  0  0  0
    0.0177    1.7686   -0.5912 N   0  0  0  0  0  0  0  0  0  0  0  0
    0.2023    0.5301   -0.1086 C   0  0  0  0  0  0  0  0  0  0  0  0
    1.2662   -0.0327   -0.6968 N   0  0  0  0  0  0  0  0  0  0  0  0
    4.3522   -0.7357   -2.8720 H   0  0  0  0  0  0  0  0  0  0  0  0
    3.2620   -1.2794   -1.7193 H   0  0  0  0  0  0  0  0  0  0  0  0
    0.4908    3.8446   -2.0617 H   0  0  0  0  0  0  0  0  0  0  0  0
    1.8324    3.2143   -2.8461 H   0  0  0  0  0  0  0  0  0  0  0  0
   -0.3823    0.0850    0.5992 H   0  0  0  0  0  0  0  0  0  0  0  0
    1.6034   -0.9243   -0.5183 H   0  0  0  0  0  0  0  0  0  0  0  0
  1  2  1  0  0  0  0 
  2  3  2  0  0  0  0 
  2  4  1  0  0  0  0 
  4  5  2  0  0  0  0 
  5  6  1  0  0  0  0 
  5  7  1  0  0  0  0 
  7  8  2  0  0  0  0 
  8  9  1  0  0  0  0 
  4  9  1  0  0  0  0 
 10  1  1  0  0  0  0 
 11  1  1  0  0  0  0 
 12  6  1  0  0  0  0 
 13  6  1  0  0  0  0 
 14  8  1  0  0  0  0 
 15  9  1  0  0  0  0 
M  END
> <cdk:Title>
orazamide

> <Conformer>
1

> <SuperDrugID>
SD001784

$$$$
