ajmaline
  CDK     0628171801

 50 55  0  0  0  0  0  0  0  0999 V2000
   -1.8313    0.9139    7.2376 O   0  0  0  0  0  0  0  0  0  0  0  0
   -1.3016    1.3586    5.9899 C   0  0  1  0  0  0  0  0  0  0  0  0
   -0.8311    0.1891    5.0635 C   0  0  1  0  0  0  0  0  0  0  0  0
   -2.4448    2.0342    5.1508 C   0  0  2  0  0  0  0  0  0  0  0  0
    0.0624    0.7134    3.8839 C   0  0  2  0  0  0  0  0  0  0  0  0
   -0.0197   -0.9593    5.5030 C   0  0  0  0  0  0  0  0  0  0  0  0
   -2.1765   -0.3574    4.5330 C   0  0  2  0  0  0  0  0  0  0  0  0
   -2.8064    0.9532    4.0674 C   0  0  2  0  0  0  0  0  0  0  0  0
   -2.0514    3.3607    4.3807 C   0  0  1  0  0  0  0  0  0  0  0  0
   -0.7266    1.7261    2.9534 C   0  0  1  0  0  0  0  0  0  0  0  0
    0.6842   -0.4849    3.3937 N   0  0  0  0  0  0  0  0  0  0  0  0
    0.8082   -1.3582    4.4412 C   0  0  0  0  0  0  0  0  0  0  0  0
   -0.0687   -1.6971    6.7036 C   0  0  0  0  0  0  0  0  0  0  0  0
   -2.1919    1.3361    2.7391 N   0  0  2  0  0  0  0  0  0  0  0  0
   -0.6917    3.1563    3.6281 C   0  0  2  0  0  0  0  0  0  0  0  0
   -3.1023    3.6690    3.2434 C   0  0  1  0  0  0  0  0  0  0  0  0
    1.1948   -0.6429    2.0614 C   0  0  0  0  0  0  0  0  0  0  0  0
    1.6096   -2.5117    4.5731 C   0  0  0  0  0  0  0  0  0  0  0  0
    0.7445   -2.8393    6.8362 C   0  0  0  0  0  0  0  0  0  0  0  0
   -3.0289    2.4757    2.2021 C   0  0  1  0  0  0  0  0  0  0  0  0
   -4.5362    3.9614    3.7943 C   0  0  1  0  0  0  0  0  0  0  0  0
    1.5730   -3.2499    5.7727 C   0  0  0  0  0  0  0  0  0  0  0  0
   -2.5061    2.9191    0.9498 O   0  0  0  0  0  0  0  0  0  0  0  0
   -5.5282    4.5037    2.7376 C   0  0  0  0  0  0  0  0  0  0  0  0
    0.9242    1.2563    4.2977 H   0  0  0  0  0  0  0  0  0  0  0  0
   -0.2251    1.7842    1.9846 H   0  0  0  0  0  0  0  0  0  0  0  0
   -3.8885    0.8003    3.9919 H   0  0  0  0  0  0  0  0  0  0  0  0
   -1.0555    0.6229    7.7576 H   0  0  0  0  0  0  0  0  0  0  0  0
   -0.4878    2.0497    6.2190 H   0  0  0  0  0  0  0  0  0  0  0  0
   -3.3098    2.2315    5.7912 H   0  0  0  0  0  0  0  0  0  0  0  0
   -2.7735   -0.8193    5.3291 H   0  0  0  0  0  0  0  0  0  0  0  0
   -2.0750   -1.0736    3.7076 H   0  0  0  0  0  0  0  0  0  0  0  0
   -1.9718    4.1965    5.0804 H   0  0  0  0  0  0  0  0  0  0  0  0
   -0.6912   -1.4309    7.4662 H   0  0  0  0  0  0  0  0  0  0  0  0
    0.1393    3.3006    4.3206 H   0  0  0  0  0  0  0  0  0  0  0  0
   -0.5476    3.9230    2.8602 H   0  0  0  0  0  0  0  0  0  0  0  0
   -2.7880    4.5968    2.7495 H   0  0  0  0  0  0  0  0  0  0  0  0
    1.7537    0.2479    1.7683 H   0  0  0  0  0  0  0  0  0  0  0  0
    1.8629   -1.4974    1.9624 H   0  0  0  0  0  0  0  0  0  0  0  0
    0.3634   -0.7822    1.3696 H   0  0  0  0  0  0  0  0  0  0  0  0
    2.2244   -2.8159    3.8198 H   0  0  0  0  0  0  0  0  0  0  0  0
    0.7292   -3.3766    7.7070 H   0  0  0  0  0  0  0  0  0  0  0  0
   -4.0266    2.0902    1.9782 H   0  0  0  0  0  0  0  0  0  0  0  0
   -4.9709    3.0588    4.2298 H   0  0  0  0  0  0  0  0  0  0  0  0
   -4.4586    4.7065    4.5912 H   0  0  0  0  0  0  0  0  0  0  0  0
    2.1470   -4.0913    5.8702 H   0  0  0  0  0  0  0  0  0  0  0  0
   -3.1116    3.6352    0.6642 H   0  0  0  0  0  0  0  0  0  0  0  0
   -6.4621    4.7838    3.2278 H   0  0  0  0  0  0  0  0  0  0  0  0
   -5.7514    3.7449    1.9862 H   0  0  0  0  0  0  0  0  0  0  0  0
   -5.1173    5.3832    2.2402 H   0  0  0  0  0  0  0  0  0  0  0  0
  2  1  1  0  0  0  0 
  2  3  1  0  0  0  0 
  4  2  1  0  0  0  0 
  5  3  1  0  0  0  0 
  3  6  1  0  0  0  0 
  3  7  1  0  0  0  0 
  8  4  1  0  0  0  0 
  4  9  1  0  0  0  0 
 10  5  1  0  0  0  0 
  5 11  1  0  0  0  0 
  5 25  1  0  0  0  0 
  6 12  2  0  0  0  0 
  6 13  1  0  0  0  0 
  8  7  1  0  0  0  0 
 14  8  1  0  0  0  0 
  8 27  1  0  0  0  0 
  9 15  1  0  0  0  0 
 16  9  1  0  0  0  0 
 14 10  1  0  0  0  0 
 10 15  1  0  0  0  0 
 10 26  1  0  0  0  0 
 11 12  1  0  0  0  0 
 11 17  1  0  0  0  0 
 12 18  1  0  0  0  0 
 13 19  2  0  0  0  0 
 14 20  1  0  0  0  0 
 20 16  1  0  0  0  0 
 16 21  1  0  0  0  0 
 18 22  2  0  0  0  0 
 19 22  1  0  0  0  0 
 20 23  1  0  0  0  0 
 21 24  1  0  0  0  0 
  1 28  1  0  0  0  0 
  2 29  1  0  0  0  0 
  4 30  1  0  0  0  0 
  7 31  1  0  0  0  0 
  7 32  1  0  0  0  0 
  9 33  1  0  0  0  0 
 13 34  1  0  0  0  0 
 15 35  1  0  0  0  0 
 15 36  1  0  0  0  0 
 16 37  1  0  0  0  0 
 17 38  1  0  0  0  0 
 17 39  1  0  0  0  0 
 17 40  1  0  0  0  0 
 18 41  1  0  0  0  0 
 19 42  1  0  0  0  0 
 20 43  1  0  0  0  0 
 21 44  1  0  0  0  0 
 21 45  1  0  0  0  0 
 22 46  1  0  0  0  0 
 23 47  1  0  0  0  0 
 24 48  1  0  0  0  0 
 24 49  1  0  0  0  0 
 24 50  1  0  0  0  0 
M  END
> <cdk:Title>
ajmaline

> <Conformer>
1

> <SuperDrugID>
SD000074

$$$$
