butoconazole
  CDK     0628171801

 42 44  0  0  0  0  0  0  0  0999 V2000
    2.0945   -1.4486   -0.3282 C   0  0  1  0  0  0  0  0  0  0  0  0
    0.8843   -1.0937    1.0064 S   0  0  0  0  0  0  0  0  0  0  0  0
    3.5090   -1.6263    0.3055 C   0  0  2  0  0  0  0  0  0  0  0  0
    1.6124   -2.6900   -1.1393 C   0  0  1  0  0  0  0  0  0  0  0  0
   -0.5281   -0.3842    0.2179 C   0  0  0  0  0  0  0  0  0  0  0  0
    3.9834   -0.4235    0.9331 N   0  0  0  0  0  0  0  0  0  0  0  0
    2.3755   -2.9589   -2.4660 C   0  0  2  0  0  0  0  0  0  0  0  0
   -1.7161   -1.1452    0.0535 C   0  0  0  0  0  0  0  0  0  0  0  0
   -0.5016    0.9634   -0.2318 C   0  0  0  0  0  0  0  0  0  0  0  0
    4.5411    0.6353    0.3182 C   0  0  0  0  0  0  0  0  0  0  0  0
    3.9428   -0.1268    2.2487 C   0  0  0  0  0  0  0  0  0  0  0  0
    1.7822   -4.1127   -3.1999 C   0  0  0  0  0  0  0  0  0  0  0  0
   -1.8520   -2.7580    0.5697 Cl  0  0  0  0  0  0  0  0  0  0  0  0
   -2.8467   -0.5662   -0.5591 C   0  0  0  0  0  0  0  0  0  0  0  0
    0.8518    1.9714   -0.0383 Cl  0  0  0  0  0  0  0  0  0  0  0  0
   -1.6360    1.5216   -0.8576 C   0  0  0  0  0  0  0  0  0  0  0  0
    4.8226    1.5838    1.2917 C   0  0  0  0  0  0  0  0  0  0  0  0
    4.4462    1.0972    2.4819 N   0  0  0  0  0  0  0  0  0  0  0  0
    1.9863   -5.4353   -2.7369 C   0  0  0  0  0  0  0  0  0  0  0  0
    0.9811   -3.9118   -4.3491 C   0  0  0  0  0  0  0  0  0  0  0  0
   -2.8056    0.7606   -1.0180 C   0  0  0  0  0  0  0  0  0  0  0  0
    1.3975   -6.5274   -3.4009 C   0  0  0  0  0  0  0  0  0  0  0  0
    0.3894   -5.0033   -5.0129 C   0  0  0  0  0  0  0  0  0  0  0  0
    0.5856   -6.3131   -4.5317 C   0  0  0  0  0  0  0  0  0  0  0  0
   -0.1665   -7.6253   -5.2937 Cl  0  0  0  0  0  0  0  0  0  0  0  0
    2.1253   -0.5869   -0.9993 H   0  0  0  0  0  0  0  0  0  0  0  0
    4.2344   -1.9153   -0.4587 H   0  0  0  0  0  0  0  0  0  0  0  0
    3.4767   -2.4439    1.0318 H   0  0  0  0  0  0  0  0  0  0  0  0
    1.6699   -3.5780   -0.5053 H   0  0  0  0  0  0  0  0  0  0  0  0
    0.5625   -2.5432   -1.4075 H   0  0  0  0  0  0  0  0  0  0  0  0
    3.4275   -3.1798   -2.2660 H   0  0  0  0  0  0  0  0  0  0  0  0
    2.3478   -2.0531   -3.0818 H   0  0  0  0  0  0  0  0  0  0  0  0
    4.7267    0.7354   -0.6830 H   0  0  0  0  0  0  0  0  0  0  0  0
    3.5694   -0.7379    2.9792 H   0  0  0  0  0  0  0  0  0  0  0  0
   -3.7094   -1.1055   -0.6756 H   0  0  0  0  0  0  0  0  0  0  0  0
   -1.6256    2.4866   -1.1999 H   0  0  0  0  0  0  0  0  0  0  0  0
    5.2408    2.5010    1.1306 H   0  0  0  0  0  0  0  0  0  0  0  0
    2.5596   -5.6134   -1.9087 H   0  0  0  0  0  0  0  0  0  0  0  0
    0.8112   -2.9679   -4.7030 H   0  0  0  0  0  0  0  0  0  0  0  0
   -3.6284    1.1715   -1.4662 H   0  0  0  0  0  0  0  0  0  0  0  0
    1.5566   -7.4759   -3.0509 H   0  0  0  0  0  0  0  0  0  0  0  0
   -0.1906   -4.8348   -5.8395 H   0  0  0  0  0  0  0  0  0  0  0  0
  1  2  1  0  0  0  0 
  1  3  1  0  0  0  0 
  1  4  1  0  0  0  0 
  2  5  1  0  0  0  0 
  3  6  1  0  0  0  0 
  4  7  1  0  0  0  0 
  5  8  2  0  0  0  0 
  5  9  1  0  0  0  0 
  6 10  1  0  0  0  0 
  6 11  1  0  0  0  0 
  7 12  1  0  0  0  0 
  8 13  1  0  0  0  0 
  8 14  1  0  0  0  0 
  9 15  1  0  0  0  0 
  9 16  2  0  0  0  0 
 10 17  2  0  0  0  0 
 11 18  2  0  0  0  0 
 12 19  2  0  0  0  0 
 12 20  1  0  0  0  0 
 14 21  2  0  0  0  0 
 16 21  1  0  0  0  0 
 17 18  1  0  0  0  0 
 19 22  1  0  0  0  0 
 20 23  2  0  0  0  0 
 22 24  2  0  0  0  0 
 23 24  1  0  0  0  0 
 24 25  1  0  0  0  0 
  1 26  1  0  0  0  0 
  3 27  1  0  0  0  0 
  3 28  1  0  0  0  0 
  4 29  1  0  0  0  0 
  4 30  1  0  0  0  0 
  7 31  1  0  0  0  0 
  7 32  1  0  0  0  0 
 10 33  1  0  0  0  0 
 11 34  1  0  0  0  0 
 14 35  1  0  0  0  0 
 16 36  1  0  0  0  0 
 17 37  1  0  0  0  0 
 19 38  1  0  0  0  0 
 20 39  1  0  0  0  0 
 21 40  1  0  0  0  0 
 22 41  1  0  0  0  0 
 23 42  1  0  0  0  0 
M  END
> <cdk:Title>
butoconazole

> <Conformer>
1

> <SuperDrugID>
SD000392

$$$$
