aceclidine
  CDK     0628171801

 27 28  0  0  0  0  0  0  0  0999 V2000
    1.7342    0.0372   -0.2446 O   0  0  0  0  0  0  0  0  0  0  0  0
    1.2702    1.3199   -0.2886 C   0  0  0  0  0  0  0  0  0  0  0  0
    2.5316   -0.6680   -1.2131 C   0  0  2  0  0  0  0  0  0  0  0  0
    0.4141    1.8053    0.8023 C   0  0  0  0  0  0  0  0  0  0  0  0
    1.5551    2.0962   -1.2305 O   0  0  0  0  0  0  0  0  0  0  0  0
    1.7539   -1.9419   -1.6823 C   0  0  1  0  0  0  0  0  0  0  0  0
    3.9001   -1.1128   -0.5841 C   0  0  2  0  0  0  0  0  0  0  0  0
    2.6430   -2.7048   -2.7159 C   0  0  2  0  0  0  0  0  0  0  0  0
    1.5376   -2.8826   -0.4517 C   0  0  2  0  0  0  0  0  0  0  0  0
    4.0528   -2.6107   -0.6118 N   0  0  2  0  0  0  0  0  0  0  0  0
    4.0013   -3.0935   -2.0375 C   0  0  2  0  0  0  0  0  0  0  0  0
    2.9304   -3.2426    0.1692 C   0  0  1  0  0  0  0  0  0  0  0  0
    2.7263   -0.0296   -2.0812 H   0  0  0  0  0  0  0  0  0  0  0  0
    0.2182    1.0084    1.5246 H   0  0  0  0  0  0  0  0  0  0  0  0
    0.9120    2.6302    1.3143 H   0  0  0  0  0  0  0  0  0  0  0  0
   -0.5410    2.1519    0.4015 H   0  0  0  0  0  0  0  0  0  0  0  0
    0.7955   -1.6632   -2.1300 H   0  0  0  0  0  0  0  0  0  0  0  0
    3.9828   -0.7576    0.4470 H   0  0  0  0  0  0  0  0  0  0  0  0
    4.7285   -0.6537   -1.1327 H   0  0  0  0  0  0  0  0  0  0  0  0
    2.8232   -2.0737   -3.5896 H   0  0  0  0  0  0  0  0  0  0  0  0
    2.1226   -3.6023   -3.0606 H   0  0  0  0  0  0  0  0  0  0  0  0
    1.0197   -3.7916   -0.7676 H   0  0  0  0  0  0  0  0  0  0  0  0
    0.9074   -2.3910    0.2950 H   0  0  0  0  0  0  0  0  0  0  0  0
    4.8357   -2.6684   -2.6017 H   0  0  0  0  0  0  0  0  0  0  0  0
    4.1306   -4.1800   -2.0609 H   0  0  0  0  0  0  0  0  0  0  0  0
    2.9726   -2.9092    1.2105 H   0  0  0  0  0  0  0  0  0  0  0  0
    3.0602   -4.3285    0.1843 H   0  0  0  0  0  0  0  0  0  0  0  0
  1  2  1  0  0  0  0 
  3  1  1  0  0  0  0 
  2  4  1  0  0  0  0 
  2  5  2  0  0  0  0 
  3  6  1  0  0  0  0 
  3  7  1  0  0  0  0 
  6  8  1  0  0  0  0 
  6  9  1  0  0  0  0 
  7 10  1  0  0  0  0 
  8 11  1  0  0  0  0 
  9 12  1  0  0  0  0 
 10 11  1  0  0  0  0 
 10 12  1  0  0  0  0 
  3 13  1  0  0  0  0 
  4 14  1  0  0  0  0 
  4 15  1  0  0  0  0 
  4 16  1  0  0  0  0 
  6 17  1  0  0  0  0 
  7 18  1  0  0  0  0 
  7 19  1  0  0  0  0 
  8 20  1  0  0  0  0 
  8 21  1  0  0  0  0 
  9 22  1  0  0  0  0 
  9 23  1  0  0  0  0 
 11 24  1  0  0  0  0 
 11 25  1  0  0  0  0 
 12 26  1  0  0  0  0 
 12 27  1  0  0  0  0 
M  END
> <cdk:Title>
aceclidine

> <Conformer>
1

> <SuperDrugID>
SD003494

$$$$
