decamethrin
  CDK     0628171801

 47 49  0  0  0  0  0  0  0  0999 V2000
    0.6613   -1.7105   -0.3138 C   0  0  0  0  0  0  0  0  0  0  0  0
   -0.0909   -2.0928    0.7683 O   0  0  0  0  0  0  0  0  0  0  0  0
    0.7200   -2.4395   -1.3305 O   0  0  0  0  0  0  0  0  0  0  0  0
    1.4272   -0.4435   -0.3671 C   0  0  2  0  0  0  0  0  0  0  0  0
   -0.8739   -3.2926    0.9066 C   0  0  2  0  0  0  0  0  0  0  0  0
    1.3898    0.6666    0.7166 C   0  0  1  0  0  0  0  0  0  0  0  0
    0.6245    0.8601   -0.6213 C   0  0  2  0  0  0  0  0  0  0  0  0
   -1.8824   -3.3615   -0.0256 C   0  0  0  0  0  0  0  0  0  0  0  0
   -1.4512   -3.3840    2.2793 C   0  0  0  0  0  0  0  0  0  0  0  0
    0.7387    0.3859    1.9871 C   0  0  0  0  0  0  0  0  0  0  0  0
   -0.9309    0.8232   -0.6281 C   0  0  0  0  0  0  0  0  0  0  0  0
    1.2543    1.8223   -1.6667 C   0  0  0  0  0  0  0  0  0  0  0  0
   -2.7182   -3.4249   -0.8105 N   0  0  0  0  0  0  0  0  0  0  0  0
   -2.2675   -2.3537    2.8184 C   0  0  0  0  0  0  0  0  0  0  0  0
   -1.2153   -4.5335    3.0711 C   0  0  0  0  0  0  0  0  0  0  0  0
    1.3305   -0.3162    2.9645 C   0  0  0  0  0  0  0  0  0  0  0  0
   -2.8776   -2.4923    4.0876 C   0  0  0  0  0  0  0  0  0  0  0  0
   -1.8352   -4.6884    4.3218 C   0  0  0  0  0  0  0  0  0  0  0  0
    0.4657   -0.6549    4.5419 Br  0  0  0  0  0  0  0  0  0  0  0  0
    3.0291   -0.9887    2.8120 Br  0  0  0  0  0  0  0  0  0  0  0  0
   -3.7149   -1.5244    4.5849 O   0  0  0  0  0  0  0  0  0  0  0  0
   -2.6786   -3.6821    4.8181 C   0  0  0  0  0  0  0  0  0  0  0  0
   -3.0756   -0.6208    5.3955 C   0  0  0  0  0  0  0  0  0  0  0  0
   -2.7910   -0.9137    6.7486 C   0  0  0  0  0  0  0  0  0  0  0  0
   -2.7369    0.6490    4.8813 C   0  0  0  0  0  0  0  0  0  0  0  0
   -2.1162    0.0220    7.5534 C   0  0  0  0  0  0  0  0  0  0  0  0
   -2.0717    1.5917    5.6888 C   0  0  0  0  0  0  0  0  0  0  0  0
   -1.7518    1.2725    7.0214 C   0  0  0  0  0  0  0  0  0  0  0  0
    2.3931   -0.5033   -0.8803 H   0  0  0  0  0  0  0  0  0  0  0  0
   -0.2114   -4.1418    0.7120 H   0  0  0  0  0  0  0  0  0  0  0  0
    2.3228    1.2327    0.7864 H   0  0  0  0  0  0  0  0  0  0  0  0
   -0.1754    0.7392    2.1428 H   0  0  0  0  0  0  0  0  0  0  0  0
   -1.3169    1.8299   -0.4631 H   0  0  0  0  0  0  0  0  0  0  0  0
   -1.2777    0.4686   -1.5994 H   0  0  0  0  0  0  0  0  0  0  0  0
   -1.3474    0.1714    0.1377 H   0  0  0  0  0  0  0  0  0  0  0  0
    0.8783    2.8348   -1.5089 H   0  0  0  0  0  0  0  0  0  0  0  0
    0.9766    1.4990   -2.6724 H   0  0  0  0  0  0  0  0  0  0  0  0
    2.3446    1.8475   -1.6026 H   0  0  0  0  0  0  0  0  0  0  0  0
   -2.4320   -1.4998    2.2773 H   0  0  0  0  0  0  0  0  0  0  0  0
   -0.6023   -5.2810    2.7364 H   0  0  0  0  0  0  0  0  0  0  0  0
   -1.6832   -5.5410    4.8642 H   0  0  0  0  0  0  0  0  0  0  0  0
   -3.1516   -3.8234    5.7120 H   0  0  0  0  0  0  0  0  0  0  0  0
   -3.0738   -1.8070    7.1520 H   0  0  0  0  0  0  0  0  0  0  0  0
   -2.9697    0.8850    3.9144 H   0  0  0  0  0  0  0  0  0  0  0  0
   -1.8957   -0.2056    8.5257 H   0  0  0  0  0  0  0  0  0  0  0  0
   -1.8170    2.5057    5.3069 H   0  0  0  0  0  0  0  0  0  0  0  0
   -1.2582    1.9506    7.6031 H   0  0  0  0  0  0  0  0  0  0  0  0
  1  2  1  0  0  0  0 
  1  3  2  0  0  0  0 
  5  2  1  0  0  0  0 
  4  1  1  0  0  0  0 
  6  4  1  0  0  0  0 
  4  7  1  0  0  0  0 
  5  8  1  0  0  0  0 
  5  9  1  0  0  0  0 
  6  7  1  0  0  0  0 
  6 10  1  0  0  0  0 
  7 11  1  0  0  0  0 
  7 12  1  0  0  0  0 
  8 13  3  0  0  0  0 
  9 14  2  0  0  0  0 
  9 15  1  0  0  0  0 
 10 16  2  0  0  0  0 
 14 17  1  0  0  0  0 
 15 18  2  0  0  0  0 
 16 19  1  0  0  0  0 
 16 20  1  0  0  0  0 
 17 21  1  0  0  0  0 
 17 22  2  0  0  0  0 
 18 22  1  0  0  0  0 
 21 23  1  0  0  0  0 
 23 24  2  0  0  0  0 
 23 25  1  0  0  0  0 
 24 26  1  0  0  0  0 
 25 27  2  0  0  0  0 
 26 28  2  0  0  0  0 
 27 28  1  0  0  0  0 
  4 29  1  0  0  0  0 
  5 30  1  0  0  0  0 
  6 31  1  0  0  0  0 
 10 32  1  0  0  0  0 
 11 33  1  0  0  0  0 
 11 34  1  0  0  0  0 
 11 35  1  0  0  0  0 
 12 36  1  0  0  0  0 
 12 37  1  0  0  0  0 
 12 38  1  0  0  0  0 
 14 39  1  0  0  0  0 
 15 40  1  0  0  0  0 
 18 41  1  0  0  0  0 
 22 42  1  0  0  0  0 
 24 43  1  0  0  0  0 
 25 44  1  0  0  0  0 
 26 45  1  0  0  0  0 
 27 46  1  0  0  0  0 
 28 47  1  0  0  0  0 
M  END
> <cdk:Title>
decamethrin

> <Conformer>
1

> <SuperDrugID>
SD003531

$$$$
