triacetyldiphenolisatin
  Mrv0541 09131710103D              87.97470

 54 57  0  0  0  0            999 V2000
   -3.6529   -2.1784   -0.8331 C   0  0  0  0  0  0  0  0  0  0  0  0
   -3.0150   -0.9639   -0.3082 C   0  0  0  0  0  0  0  0  0  0  0  0
   -3.6233   -0.2862    0.5529 O   0  0  0  0  0  0  0  0  0  0  0  0
   -1.7737   -0.6483   -0.7893 O   0  0  0  0  0  0  0  0  0  0  0  0
   -0.9314    0.4125   -0.5716 C   0  0  0  0  0  0  0  0  0  0  0  0
   -1.2166    1.5227    0.2518 C   0  0  0  0  0  0  0  0  0  0  0  0
   -0.2722    2.5493    0.4103 C   0  0  0  0  0  0  0  0  0  0  0  0
    0.9901    2.5186   -0.2395 C   0  0  0  0  0  0  0  0  0  0  0  0
    1.2439    1.4103   -1.0910 C   0  0  0  0  0  0  0  0  0  0  0  0
    0.3041    0.3736   -1.2452 C   0  0  0  0  0  0  0  0  0  0  0  0
    1.9886    3.6323    0.0384 C   0  0  2  0  0  0  0  0  0  0  0  0
    1.5183    4.8571   -0.6702 C   0  0  0  0  0  0  0  0  0  0  0  0
    0.3879    5.3406   -0.4184 O   0  0  0  0  0  0  0  0  0  0  0  0
    2.4175    5.3997   -1.5521 N   0  0  0  0  0  0  0  0  0  0  0  0
    2.2304    6.5510   -2.3086 C   0  0  0  0  0  0  0  0  0  0  0  0
    3.1198    6.9647   -3.0885 O   0  0  0  0  0  0  0  0  0  0  0  0
    1.0103    7.3912   -2.2575 C   0  0  0  0  0  0  0  0  0  0  0  0
    3.5210    4.5958   -1.5215 C   0  0  0  0  0  0  0  0  0  0  0  0
    4.7596    4.6926   -2.2004 C   0  0  0  0  0  0  0  0  0  0  0  0
    5.7539    3.7184   -1.9936 C   0  0  0  0  0  0  0  0  0  0  0  0
    5.5208    2.6450   -1.1140 C   0  0  0  0  0  0  0  0  0  0  0  0
    4.3010    2.5537   -0.4194 C   0  0  0  0  0  0  0  0  0  0  0  0
    3.3070    3.5355   -0.6291 C   0  0  0  0  0  0  0  0  0  0  0  0
    2.2555    3.8396    1.5197 C   0  0  0  0  0  0  0  0  0  0  0  0
    2.4977    5.1171    2.0937 C   0  0  0  0  0  0  0  0  0  0  0  0
    2.7311    5.2760    3.4735 C   0  0  0  0  0  0  0  0  0  0  0  0
    2.7473    4.1560    4.3332 C   0  0  0  0  0  0  0  0  0  0  0  0
    2.9375    4.2018    5.6919 O   0  0  0  0  0  0  0  0  0  0  0  0
    3.4181    5.1752    6.5250 C   0  0  0  0  0  0  0  0  0  0  0  0
    3.9277    6.2369    6.0977 O   0  0  0  0  0  0  0  0  0  0  0  0
    3.3837    4.9281    7.9762 C   0  0  0  0  0  0  0  0  0  0  0  0
    2.5290    2.8821    3.7775 C   0  0  0  0  0  0  0  0  0  0  0  0
    2.3093    2.7267    2.3983 C   0  0  0  0  0  0  0  0  0  0  0  0
   -4.6557   -2.3084   -0.4169 H   0  0  0  0  0  0  0  0  0  0  0  0
   -3.7329   -2.1125   -1.9211 H   0  0  0  0  0  0  0  0  0  0  0  0
   -3.0431   -3.0456   -0.5695 H   0  0  0  0  0  0  0  0  0  0  0  0
   -2.1049    1.6016    0.7443 H   0  0  0  0  0  0  0  0  0  0  0  0
   -0.5121    3.3261    1.0290 H   0  0  0  0  0  0  0  0  0  0  0  0
    2.1195    1.3317   -1.6073 H   0  0  0  0  0  0  0  0  0  0  0  0
    0.5219   -0.4181   -1.8553 H   0  0  0  0  0  0  0  0  0  0  0  0
    1.0789    8.2494   -2.9331 H   0  0  0  0  0  0  0  0  0  0  0  0
    0.8778    7.7711   -1.2412 H   0  0  0  0  0  0  0  0  0  0  0  0
    0.1373    6.8006   -2.5490 H   0  0  0  0  0  0  0  0  0  0  0  0
    4.9631    5.4570   -2.8403 H   0  0  0  0  0  0  0  0  0  0  0  0
    6.6477    3.7942   -2.4844 H   0  0  0  0  0  0  0  0  0  0  0  0
    6.2415    1.9337   -0.9773 H   0  0  0  0  0  0  0  0  0  0  0  0
    4.1428    1.7813    0.2310 H   0  0  0  0  0  0  0  0  0  0  0  0
    2.5112    5.9576    1.5130 H   0  0  0  0  0  0  0  0  0  0  0  0
    2.8737    6.2177    3.8407 H   0  0  0  0  0  0  0  0  0  0  0  0
    3.9121    4.0014    8.2074 H   0  0  0  0  0  0  0  0  0  0  0  0
    2.3464    4.8341    8.3012 H   0  0  0  0  0  0  0  0  0  0  0  0
    3.8521    5.7457    8.5304 H   0  0  0  0  0  0  0  0  0  0  0  0
    2.5304    2.0534    4.3786 H   0  0  0  0  0  0  0  0  0  0  0  0
    2.1844    1.7775    2.0404 H   0  0  0  0  0  0  0  0  0  0  0  0
  1  2  1  0  0  0  0
  2  3  2  0  0  0  0
  2  4  1  0  0  0  0
  4  5  1  0  0  0  0
  5  6  2  0  0  0  0
  6  7  1  0  0  0  0
  7  8  2  0  0  0  0
  8  9  1  0  0  0  0
  9 10  2  0  0  0  0
  8 11  1  0  0  0  0
 11 12  1  0  0  0  0
 12 13  2  0  0  0  0
 12 14  1  0  0  0  0
 14 15  1  0  0  0  0
 15 16  2  0  0  0  0
 15 17  1  0  0  0  0
 14 18  1  0  0  0  0
 18 19  2  0  0  0  0
 19 20  1  0  0  0  0
 20 21  2  0  0  0  0
 21 22  1  0  0  0  0
 22 23  2  0  0  0  0
 11 24  1  0  0  0  0
 24 25  2  0  0  0  0
 25 26  1  0  0  0  0
 26 27  2  0  0  0  0
 27 28  1  0  0  0  0
 28 29  1  0  0  0  0
 29 30  2  0  0  0  0
 29 31  1  0  0  0  0
 27 32  1  0  0  0  0
 32 33  2  0  0  0  0
 10  5  1  0  0  0  0
 23 11  1  0  0  0  0
 23 18  1  0  0  0  0
 33 24  1  0  0  0  0
  1 34  1  0  0  0  0
  1 35  1  0  0  0  0
  1 36  1  0  0  0  0
  6 37  1  0  0  0  0
  7 38  1  0  0  0  0
  9 39  1  0  0  0  0
 10 40  1  0  0  0  0
 17 41  1  0  0  0  0
 17 42  1  0  0  0  0
 17 43  1  0  0  0  0
 19 44  1  0  0  0  0
 20 45  1  0  0  0  0
 21 46  1  0  0  0  0
 22 47  1  0  0  0  0
 25 48  1  0  0  0  0
 26 49  1  0  0  0  0
 31 50  1  0  0  0  0
 31 51  1  0  0  0  0
 31 52  1  0  0  0  0
 32 53  1  0  0  0  0
 33 54  1  0  0  0  0
M  END
>  <SuperDrugID>
SD006034

>  <_MOLCOUNT>
1

$$$$
