tropatepine
  CDK     0628171801

 47 51  0  0  0  0  0  0  0  0999 V2000
   -4.7359    5.5486    2.9196 C   0  0  0  0  0  0  0  0  0  0  0  0
   -4.0755    4.4639    2.1502 N   0  0  2  0  0  0  0  0  0  0  0  0
   -4.8764    3.2400    1.9084 C   0  0  1  0  0  0  0  0  0  0  0  0
   -2.8405    3.8857    2.7365 C   0  0  2  0  0  0  0  0  0  0  0  0
   -4.2849    2.5788    0.6254 C   0  0  2  0  0  0  0  0  0  0  0  0
   -4.6910    2.3635    3.1752 C   0  0  2  0  0  0  0  0  0  0  0  0
   -2.0231    3.3009    1.5423 C   0  0  1  0  0  0  0  0  0  0  0  0
   -3.3170    2.7903    3.7262 C   0  0  1  0  0  0  0  0  0  0  0  0
   -2.8021    2.4933    0.5719 C   0  0  0  0  0  0  0  0  0  0  0  0
   -2.1798    1.7317   -0.3749 C   0  0  0  0  0  0  0  0  0  0  0  0
   -2.9042    0.9720   -1.2950 C   0  0  0  0  0  0  0  0  0  0  0  0
   -0.7879    1.6085   -0.4711 C   0  0  0  0  0  0  0  0  0  0  0  0
   -3.1550   -0.4056   -1.0509 C   0  0  0  0  0  0  0  0  0  0  0  0
   -3.4352    1.5871   -2.4537 C   0  0  0  0  0  0  0  0  0  0  0  0
   -0.0954    0.3953   -0.1782 C   0  0  0  0  0  0  0  0  0  0  0  0
   -0.0355    2.7482   -0.8540 C   0  0  0  0  0  0  0  0  0  0  0  0
   -2.6452   -1.0558    0.1838 C   0  0  1  0  0  0  0  0  0  0  0  0
   -3.9249   -1.1381   -1.9865 C   0  0  0  0  0  0  0  0  0  0  0  0
   -4.2016    0.8435   -3.3671 C   0  0  0  0  0  0  0  0  0  0  0  0
   -0.8279   -1.1618    0.2186 S   0  0  0  0  0  0  0  0  0  0  0  0
    1.3204    0.3841   -0.2036 C   0  0  0  0  0  0  0  0  0  0  0  0
    1.3682    2.7242   -0.8585 C   0  0  0  0  0  0  0  0  0  0  0  0
   -4.4427   -0.5195   -3.1363 C   0  0  0  0  0  0  0  0  0  0  0  0
    2.0475    1.5446   -0.5213 C   0  0  0  0  0  0  0  0  0  0  0  0
   -2.2312    4.6368    3.2502 H   0  0  0  0  0  0  0  0  0  0  0  0
   -5.9365    3.4589    1.7463 H   0  0  0  0  0  0  0  0  0  0  0  0
   -4.0565    6.3966    3.0113 H   0  0  0  0  0  0  0  0  0  0  0  0
   -5.6187    5.8919    2.3778 H   0  0  0  0  0  0  0  0  0  0  0  0
   -5.0297    5.2198    3.9174 H   0  0  0  0  0  0  0  0  0  0  0  0
   -4.6258    3.1608   -0.2347 H   0  0  0  0  0  0  0  0  0  0  0  0
   -4.7285    1.5830    0.5477 H   0  0  0  0  0  0  0  0  0  0  0  0
   -4.7213    1.2940    2.9465 H   0  0  0  0  0  0  0  0  0  0  0  0
   -5.4709    2.5829    3.9087 H   0  0  0  0  0  0  0  0  0  0  0  0
   -1.5843    4.1472    1.0072 H   0  0  0  0  0  0  0  0  0  0  0  0
   -1.2019    2.7063    1.9537 H   0  0  0  0  0  0  0  0  0  0  0  0
   -2.6211    1.9471    3.7748 H   0  0  0  0  0  0  0  0  0  0  0  0
   -3.4239    3.2118    4.7289 H   0  0  0  0  0  0  0  0  0  0  0  0
   -3.2777    2.5816   -2.6387 H   0  0  0  0  0  0  0  0  0  0  0  0
   -0.5050    3.6166   -1.1269 H   0  0  0  0  0  0  0  0  0  0  0  0
   -2.9928   -0.5092    1.0629 H   0  0  0  0  0  0  0  0  0  0  0  0
   -3.0250   -2.0751    0.2753 H   0  0  0  0  0  0  0  0  0  0  0  0
   -4.1176   -2.1309   -1.8379 H   0  0  0  0  0  0  0  0  0  0  0  0
   -4.5847    1.2936   -4.1997 H   0  0  0  0  0  0  0  0  0  0  0  0
    1.8458   -0.4715    0.0092 H   0  0  0  0  0  0  0  0  0  0  0  0
    1.8950    3.5665   -1.1021 H   0  0  0  0  0  0  0  0  0  0  0  0
   -4.9953   -1.0654   -3.8008 H   0  0  0  0  0  0  0  0  0  0  0  0
    3.0704    1.5302   -0.5118 H   0  0  0  0  0  0  0  0  0  0  0  0
  1  2  1  0  0  0  0 
  3  2  1  0  0  0  0 
  4  2  1  0  0  0  0 
  3  5  1  0  0  0  0 
  3  6  1  0  0  0  0 
  4  7  1  0  0  0  0 
  4  8  1  0  0  0  0 
  5  9  1  0  0  0  0 
  6  8  1  0  0  0  0 
  7  9  1  0  0  0  0 
  9 10  2  0  0  0  0 
 10 11  1  0  0  0  0 
 10 12  1  0  0  0  0 
 11 13  2  0  0  0  0 
 11 14  1  0  0  0  0 
 12 15  2  0  0  0  0 
 12 16  1  0  0  0  0 
 13 17  1  0  0  0  0 
 13 18  1  0  0  0  0 
 14 19  2  0  0  0  0 
 15 20  1  0  0  0  0 
 15 21  1  0  0  0  0 
 16 22  2  0  0  0  0 
 17 20  1  0  0  0  0 
 18 23  2  0  0  0  0 
 19 23  1  0  0  0  0 
 21 24  2  0  0  0  0 
 22 24  1  0  0  0  0 
  4 25  1  0  0  0  0 
  3 26  1  0  0  0  0 
  1 27  1  0  0  0  0 
  1 28  1  0  0  0  0 
  1 29  1  0  0  0  0 
  5 30  1  0  0  0  0 
  5 31  1  0  0  0  0 
  6 32  1  0  0  0  0 
  6 33  1  0  0  0  0 
  7 34  1  0  0  0  0 
  7 35  1  0  0  0  0 
  8 36  1  0  0  0  0 
  8 37  1  0  0  0  0 
 14 38  1  0  0  0  0 
 16 39  1  0  0  0  0 
 17 40  1  0  0  0  0 
 17 41  1  0  0  0  0 
 18 42  1  0  0  0  0 
 19 43  1  0  0  0  0 
 21 44  1  0  0  0  0 
 22 45  1  0  0  0  0 
 23 46  1  0  0  0  0 
 24 47  1  0  0  0  0 
M  END
> <cdk:Title>
tropatepine

> <Conformer>
1

> <SuperDrugID>
SD002501

$$$$
