crizotinib
  CDK     0628171801

 52 55  0  0  0  0  0  0  0  0999 V2000
    0.6619    5.4456    5.7160 N   0  0  0  0  0  0  0  0  0  0  0  0
    1.1800    5.1493    4.4959 C   0  0  0  0  0  0  0  0  0  0  0  0
    0.6166    5.7151    3.3302 C   0  0  0  0  0  0  0  0  0  0  0  0
   -0.4694    6.6027    3.4950 C   0  0  0  0  0  0  0  0  0  0  0  0
   -0.9382    6.9620    4.7718 C   0  0  0  0  0  0  0  0  0  0  0  0
   -0.3673    6.3159    5.8906 C   0  0  0  0  0  0  0  0  0  0  0  0
    1.1307    5.4817    2.0318 C   0  0  0  0  0  0  0  0  0  0  0  0
   -1.9140    7.9286    4.8835 O   0  0  0  0  0  0  0  0  0  0  0  0
   -0.8070    6.5524    7.1395 N   0  0  0  0  0  0  0  0  0  0  0  0
   -1.4129    9.2634    5.1711 C   0  0  1  0  0  0  0  0  0  0  0  0
   -0.5524    9.8314    4.0648 C   0  0  0  0  0  0  0  0  0  0  0  0
    0.7798   10.2774    4.3250 C   0  0  0  0  0  0  0  0  0  0  0  0
    1.6029   10.7316    3.2758 C   0  0  0  0  0  0  0  0  0  0  0  0
    1.1407   10.7320    1.9553 C   0  0  0  0  0  0  0  0  0  0  0  0
   -0.1699   10.3211    1.6735 C   0  0  0  0  0  0  0  0  0  0  0  0
   -1.0238    9.8910    2.7159 C   0  0  0  0  0  0  0  0  0  0  0  0
   -2.5952    9.4177    2.2563 Cl  0  0  0  0  0  0  0  0  0  0  0  0
    1.5067   10.2890    5.8628 Cl  0  0  0  0  0  0  0  0  0  0  0  0
   -0.5573   10.3402    0.4235 F   0  0  0  0  0  0  0  0  0  0  0  0
   -0.8532    9.1828    6.1042 H   0  0  0  0  0  0  0  0  0  0  0  0
   -2.5903   10.1987    5.5518 C   0  0  0  0  0  0  0  0  0  0  0  0
    0.4174    5.4147    0.8401 C   0  0  0  0  0  0  0  0  0  0  0  0
    1.2778    5.3466   -0.1833 N   0  0  0  0  0  0  0  0  0  0  0  0
    2.4911    5.3499    0.2815 N   0  0  0  0  0  0  0  0  0  0  0  0
    2.4587    5.3805    1.6318 C   0  0  0  0  0  0  0  0  0  0  0  0
    3.6637    5.4097   -0.5485 C   0  0  2  0  0  0  0  0  0  0  0  0
    3.7869    6.8414   -1.1518 C   0  0  2  0  0  0  0  0  0  0  0  0
    4.9884    6.9445   -2.1230 C   0  0  2  0  0  0  0  0  0  0  0  0
    4.9196    5.9031   -3.1744 N   0  0  1  0  0  0  0  0  0  0  0  0
    4.8603    4.5243   -2.6336 C   0  0  2  0  0  0  0  0  0  0  0  0
    3.6548    4.3367   -1.6777 C   0  0  1  0  0  0  0  0  0  0  0  0
    1.9709    4.5040    4.4378 H   0  0  0  0  0  0  0  0  0  0  0  0
   -0.9071    7.0319    2.6777 H   0  0  0  0  0  0  0  0  0  0  0  0
   -0.3904    6.1100    7.8971 H   0  0  0  0  0  0  0  0  0  0  0  0
   -1.5414    7.1685    7.2872 H   0  0  0  0  0  0  0  0  0  0  0  0
    2.5565   11.0532    3.4615 H   0  0  0  0  0  0  0  0  0  0  0  0
    1.7658   11.0329    1.2013 H   0  0  0  0  0  0  0  0  0  0  0  0
   -3.1088    9.7908    6.4222 H   0  0  0  0  0  0  0  0  0  0  0  0
   -2.2215   11.1948    5.8087 H   0  0  0  0  0  0  0  0  0  0  0  0
   -3.3162   10.2980    4.7476 H   0  0  0  0  0  0  0  0  0  0  0  0
   -0.5981    5.4359    0.7417 H   0  0  0  0  0  0  0  0  0  0  0  0
    3.2709    5.3918    2.2541 H   0  0  0  0  0  0  0  0  0  0  0  0
    4.5540    5.2338    0.0673 H   0  0  0  0  0  0  0  0  0  0  0  0
    3.9103    7.5736   -0.3483 H   0  0  0  0  0  0  0  0  0  0  0  0
    2.8752    7.0976   -1.6992 H   0  0  0  0  0  0  0  0  0  0  0  0
    5.9281    6.8521   -1.5714 H   0  0  0  0  0  0  0  0  0  0  0  0
    4.9794    7.9246   -2.6055 H   0  0  0  0  0  0  0  0  0  0  0  0
    4.0504    6.0600   -3.6913 H   0  0  0  0  0  0  0  0  0  0  0  0
    5.7937    4.2944   -2.1128 H   0  0  0  0  0  0  0  0  0  0  0  0
    4.7654    3.8330   -3.4729 H   0  0  0  0  0  0  0  0  0  0  0  0
    3.6909    3.3375   -1.2375 H   0  0  0  0  0  0  0  0  0  0  0  0
    2.7348    4.4133   -2.2636 H   0  0  0  0  0  0  0  0  0  0  0  0
  1  2  2  0  0  0  0 
  2  3  1  0  0  0  0 
  3  4  2  0  0  0  0 
  4  5  1  0  0  0  0 
  5  6  2  0  0  0  0 
  1  6  1  0  0  0  0 
  3  7  1  0  0  0  0 
  5  8  1  0  0  0  0 
  6  9  1  0  0  0  0 
  8 10  1  0  0  0  0 
 10 11  1  0  0  0  0 
 12 13  1  0  0  0  0 
 13 14  2  0  0  0  0 
 14 15  1  0  0  0  0 
 15 16  2  0  0  0  0 
 11 12  2  0  0  0  0 
 11 16  1  0  0  0  0 
 16 17  1  0  0  0  0 
 12 18  1  0  0  0  0 
 15 19  1  0  0  0  0 
 10 20  1  0  0  0  0 
 10 21  1  0  0  0  0 
 22 23  2  0  0  0  0 
 23 24  1  0  0  0  0 
 24 25  1  0  0  0  0 
  7 22  1  0  0  0  0 
  7 25  2  0  0  0  0 
 24 26  1  0  0  0  0 
 27 28  1  0  0  0  0 
 28 29  1  0  0  0  0 
 29 30  1  0  0  0  0 
 30 31  1  0  0  0  0 
 26 27  1  0  0  0  0 
 26 31  1  0  0  0  0 
  2 32  1  0  0  0  0 
  4 33  1  0  0  0  0 
  9 34  1  0  0  0  0 
  9 35  1  0  0  0  0 
 13 36  1  0  0  0  0 
 14 37  1  0  0  0  0 
 21 38  1  0  0  0  0 
 21 39  1  0  0  0  0 
 21 40  1  0  0  0  0 
 22 41  1  0  0  0  0 
 25 42  1  0  0  0  0 
 26 43  1  0  0  0  0 
 27 44  1  0  0  0  0 
 27 45  1  0  0  0  0 
 28 46  1  0  0  0  0 
 28 47  1  0  0  0  0 
 29 48  1  0  0  0  0 
 30 49  1  0  0  0  0 
 30 50  1  0  0  0  0 
 31 51  1  0  0  0  0 
 31 52  1  0  0  0  0 
M  END
> <cdk:Title>
crizotinib

> <Conformer>
1

> <SuperDrugID>
SD003417

$$$$
