pentamycin
  CDK     0628171801

105105  0  0  0  0  0  0  0  0999 V2000
    0.1801    1.1695   -0.8336 C   0  0  1  0  0  0  0  0  0  0  0  0
    1.0731    0.2816   -1.7522 C   0  0  2  0  0  0  0  0  0  0  0  0
   -1.2065    0.9572   -1.0982 O   0  0  0  0  0  0  0  0  0  0  0  0
    0.5010    1.0412    0.6989 C   0  0  2  0  0  0  0  0  0  0  0  0
    0.9740    0.6504   -3.2605 C   0  0  1  0  0  0  0  0  0  0  0  0
    0.3648   -0.3820    1.3507 C   0  0  1  0  0  0  0  0  0  0  0  0
   -0.1601    2.1393    1.4662 C   0  0  0  0  0  0  0  0  0  0  0  0
    2.1129    0.0286   -4.1130 C   0  0  1  0  0  0  0  0  0  0  0  0
    0.7398   -0.2827    2.7266 O   0  0  0  0  0  0  0  0  0  0  0  0
   -1.0258   -1.0682    1.2094 C   0  0  2  0  0  0  0  0  0  0  0  0
    0.3009    3.2959    1.3243 O   0  0  0  0  0  0  0  0  0  0  0  0
   -1.2409    1.9012    2.2807 O   0  0  0  0  0  0  0  0  0  0  0  0
    2.0637    0.4888   -5.5951 C   0  0  2  0  0  0  0  0  0  0  0  0
   -1.2056   -2.4246    1.9573 C   0  0  1  0  0  0  0  0  0  0  0  0
   -2.0167    2.7369    3.1747 C   0  0  2  0  0  0  0  0  0  0  0  0
    3.2138   -0.1019   -6.4407 C   0  0  0  0  0  0  0  0  0  0  0  0
   -1.1118   -2.2298    3.3712 O   0  0  0  0  0  0  0  0  0  0  0  0
   -2.5994   -3.0316    1.6292 C   0  0  1  0  0  0  0  0  0  0  0  0
   -1.3323    4.0766    3.5709 C   0  0  0  0  0  0  0  0  0  0  0  0
   -2.4259    1.8624    4.4139 C   0  0  1  0  0  0  0  0  0  0  0  0
   -2.9007   -4.4581    2.1883 C   0  0  1  0  0  0  0  0  0  0  0  0
   -3.0673    2.6479    5.4247 O   0  0  0  0  0  0  0  0  0  0  0  0
   -3.3598    0.7836    4.0878 C   0  0  0  0  0  0  0  0  0  0  0  0
   -2.5508   -4.5594    3.5680 O   0  0  0  0  0  0  0  0  0  0  0  0
   -4.4168   -4.7567    2.0177 C   0  0  1  0  0  0  0  0  0  0  0  0
   -3.7708   -0.1442    4.9756 C   0  0  0  0  0  0  0  0  0  0  0  0
   -4.9472   -6.1487    2.4722 C   0  0  1  0  0  0  0  0  0  0  0  0
   -4.7182   -1.0900    4.7040 C   0  0  0  0  0  0  0  0  0  0  0  0
   -4.5337   -6.4280    3.8087 O   0  0  0  0  0  0  0  0  0  0  0  0
   -6.5023   -6.1483    2.3737 C   0  0  1  0  0  0  0  0  0  0  0  0
   -5.1259   -2.0150    5.5998 C   0  0  0  0  0  0  0  0  0  0  0  0
   -7.2791   -7.4354    2.7893 C   0  0  1  0  0  0  0  0  0  0  0  0
   -6.1092   -2.9271    5.3461 C   0  0  0  0  0  0  0  0  0  0  0  0
   -6.7576   -7.9901    3.9963 O   0  0  0  0  0  0  0  0  0  0  0  0
   -8.7868   -7.0819    2.9775 C   0  0  1  0  0  0  0  0  0  0  0  0
   -6.7130   -3.6675    6.2977 C   0  0  0  0  0  0  0  0  0  0  0  0
   -9.7893   -8.2116    3.3602 C   0  0  1  0  0  0  0  0  0  0  0  0
   -7.6681   -4.5760    5.9830 C   0  0  0  0  0  0  0  0  0  0  0  0
   -9.2032   -9.2395    4.1569 O   0  0  0  0  0  0  0  0  0  0  0  0
  -11.0739   -7.6371    4.0599 C   0  0  1  0  0  0  0  0  0  0  0  0
   -8.9258   -4.5513    6.4605 C   0  0  0  0  0  0  0  0  0  0  0  0
  -12.1855   -8.4599    3.6995 O   0  0  0  0  0  0  0  0  0  0  0  0
  -11.0430   -7.5455    5.6262 C   0  0  2  0  0  0  0  0  0  0  0  0
   -9.8879   -5.4128    6.0270 C   0  0  0  0  0  0  0  0  0  0  0  0
  -12.2896   -7.0260    6.0963 O   0  0  0  0  0  0  0  0  0  0  0  0
   -9.9556   -6.7495    6.2407 C   0  0  0  0  0  0  0  0  0  0  0  0
   -9.0069   -7.4639    7.1034 C   0  0  0  0  0  0  0  0  0  0  0  0
    1.5723    1.2527    0.7859 H   0  0  0  0  0  0  0  0  0  0  0  0
    0.3836    2.2066   -1.1189 H   0  0  0  0  0  0  0  0  0  0  0  0
    0.8072   -0.7710   -1.6246 H   0  0  0  0  0  0  0  0  0  0  0  0
    2.1108    0.4080   -1.4341 H   0  0  0  0  0  0  0  0  0  0  0  0
   -1.3307    1.2084   -2.0372 H   0  0  0  0  0  0  0  0  0  0  0  0
    0.0076    0.3129   -3.6450 H   0  0  0  0  0  0  0  0  0  0  0  0
    1.0218    1.7371   -3.3730 H   0  0  0  0  0  0  0  0  0  0  0  0
    1.0982   -1.0441    0.8823 H   0  0  0  0  0  0  0  0  0  0  0  0
    3.0765    0.3237   -3.6875 H   0  0  0  0  0  0  0  0  0  0  0  0
    2.0401   -1.0609   -4.0656 H   0  0  0  0  0  0  0  0  0  0  0  0
    1.6584    0.0563    2.7134 H   0  0  0  0  0  0  0  0  0  0  0  0
   -1.1979   -1.2499    0.1468 H   0  0  0  0  0  0  0  0  0  0  0  0
   -1.8084   -0.3916    1.5487 H   0  0  0  0  0  0  0  0  0  0  0  0
    2.1286    1.5806   -5.6387 H   0  0  0  0  0  0  0  0  0  0  0  0
    1.1110    0.1870   -6.0401 H   0  0  0  0  0  0  0  0  0  0  0  0
   -0.4274   -3.1231    1.6388 H   0  0  0  0  0  0  0  0  0  0  0  0
   -2.9288    3.0031    2.6325 H   0  0  0  0  0  0  0  0  0  0  0  0
    3.1443    0.2664   -7.4669 H   0  0  0  0  0  0  0  0  0  0  0  0
    4.1818    0.1928   -6.0290 H   0  0  0  0  0  0  0  0  0  0  0  0
    3.1527   -1.1920   -6.4564 H   0  0  0  0  0  0  0  0  0  0  0  0
   -0.1654   -2.0540    3.5458 H   0  0  0  0  0  0  0  0  0  0  0  0
   -3.3504   -2.3296    2.0061 H   0  0  0  0  0  0  0  0  0  0  0  0
   -2.7154   -3.0773    0.5407 H   0  0  0  0  0  0  0  0  0  0  0  0
   -1.9460    4.6413    4.2749 H   0  0  0  0  0  0  0  0  0  0  0  0
   -0.3610    3.8819    4.0264 H   0  0  0  0  0  0  0  0  0  0  0  0
   -1.1930    4.7048    2.6887 H   0  0  0  0  0  0  0  0  0  0  0  0
   -1.5180    1.4360    4.8507 H   0  0  0  0  0  0  0  0  0  0  0  0
   -2.3186   -5.1980    1.6312 H   0  0  0  0  0  0  0  0  0  0  0  0
   -2.3680    3.2277    5.7901 H   0  0  0  0  0  0  0  0  0  0  0  0
   -3.7389    0.7615    3.1695 H   0  0  0  0  0  0  0  0  0  0  0  0
   -1.5749   -4.4757    3.5917 H   0  0  0  0  0  0  0  0  0  0  0  0
   -4.9559   -3.9900    2.5794 H   0  0  0  0  0  0  0  0  0  0  0  0
   -4.6734   -4.6315    0.9619 H   0  0  0  0  0  0  0  0  0  0  0  0
   -3.3745   -0.1216    5.8869 H   0  0  0  0  0  0  0  0  0  0  0  0
   -4.5408   -6.9243    1.8207 H   0  0  0  0  0  0  0  0  0  0  0  0
   -5.1468   -1.0758    3.8034 H   0  0  0  0  0  0  0  0  0  0  0  0
   -4.9158   -5.7067    4.3517 H   0  0  0  0  0  0  0  0  0  0  0  0
   -6.8561   -5.3186    2.9890 H   0  0  0  0  0  0  0  0  0  0  0  0
   -6.7842   -5.9159    1.3432 H   0  0  0  0  0  0  0  0  0  0  0  0
   -4.6956   -2.0328    6.5000 H   0  0  0  0  0  0  0  0  0  0  0  0
   -7.1714   -8.1865    2.0033 H   0  0  0  0  0  0  0  0  0  0  0  0
   -6.4059   -3.0507    4.4015 H   0  0  0  0  0  0  0  0  0  0  0  0
   -6.8662   -7.2927    4.6749 H   0  0  0  0  0  0  0  0  0  0  0  0
   -8.8336   -6.3077    3.7365 H   0  0  0  0  0  0  0  0  0  0  0  0
   -9.1573   -6.6271    2.0546 H   0  0  0  0  0  0  0  0  0  0  0  0
   -6.4588   -3.5598    7.2549 H   0  0  0  0  0  0  0  0  0  0  0  0
  -10.0867   -8.6981    2.4246 H   0  0  0  0  0  0  0  0  0  0  0  0
   -7.4082   -5.2833    5.3379 H   0  0  0  0  0  0  0  0  0  0  0  0
   -8.4870   -9.6176    3.6047 H   0  0  0  0  0  0  0  0  0  0  0  0
  -11.3031   -6.6471    3.6511 H   0  0  0  0  0  0  0  0  0  0  0  0
   -9.1933   -3.8482    7.1134 H   0  0  0  0  0  0  0  0  0  0  0  0
  -12.2592   -8.3724    2.7255 H   0  0  0  0  0  0  0  0  0  0  0  0
  -11.0076   -8.5751    5.9968 H   0  0  0  0  0  0  0  0  0  0  0  0
  -10.6016   -4.9872    5.4782 H   0  0  0  0  0  0  0  0  0  0  0  0
  -12.9770   -7.6335    5.7501 H   0  0  0  0  0  0  0  0  0  0  0  0
   -8.3126   -6.8132    7.6343 H   0  0  0  0  0  0  0  0  0  0  0  0
   -8.4181   -8.1630    6.5095 H   0  0  0  0  0  0  0  0  0  0  0  0
   -9.5539   -8.0223    7.8668 H   0  0  0  0  0  0  0  0  0  0  0  0
  1  2  1  0  0  0  0 
  1  3  1  0  0  0  0 
  4  1  1  0  0  0  0 
  2  5  1  0  0  0  0 
  6  4  1  0  0  0  0 
  4  7  1  0  0  0  0 
  4 48  1  0  0  0  0 
  5  8  1  0  0  0  0 
  6  9  1  0  0  0  0 
  6 10  1  0  0  0  0 
  7 11  2  0  0  0  0 
  7 12  1  0  0  0  0 
  8 13  1  0  0  0  0 
 14 10  1  0  0  0  0 
 15 12  1  0  0  0  0 
 13 16  1  0  0  0  0 
 14 17  1  0  0  0  0 
 14 18  1  0  0  0  0 
 15 19  1  0  0  0  0 
 15 20  1  0  0  0  0 
 21 18  1  0  0  0  0 
 20 22  1  0  0  0  0 
 20 23  1  0  0  0  0 
 21 24  1  0  0  0  0 
 21 25  1  0  0  0  0 
 23 26  2  0  0  0  0 
 27 25  1  0  0  0  0 
 26 28  1  0  0  0  0 
 27 29  1  0  0  0  0 
 27 30  1  0  0  0  0 
 28 31  2  0  0  0  0 
 32 30  1  0  0  0  0 
 31 33  1  0  0  0  0 
 32 34  1  0  0  0  0 
 32 35  1  0  0  0  0 
 33 36  2  0  0  0  0 
 37 35  1  0  0  0  0 
 36 38  1  0  0  0  0 
 37 39  1  0  0  0  0 
 40 37  1  0  0  0  0 
 38 41  2  0  0  0  0 
 40 42  1  0  0  0  0 
 40 43  1  0  0  0  0 
 41 44  1  0  0  0  0 
 43 45  1  0  0  0  0 
 43 46  1  0  0  0  0 
 44 46  2  0  0  0  0 
 46 47  1  0  0  0  0 
  1 49  1  0  0  0  0 
  2 50  1  0  0  0  0 
  2 51  1  0  0  0  0 
  3 52  1  0  0  0  0 
  5 53  1  0  0  0  0 
  5 54  1  0  0  0  0 
  6 55  1  0  0  0  0 
  8 56  1  0  0  0  0 
  8 57  1  0  0  0  0 
  9 58  1  0  0  0  0 
 10 59  1  0  0  0  0 
 10 60  1  0  0  0  0 
 13 61  1  0  0  0  0 
 13 62  1  0  0  0  0 
 14 63  1  0  0  0  0 
 15 64  1  0  0  0  0 
 16 65  1  0  0  0  0 
 16 66  1  0  0  0  0 
 16 67  1  0  0  0  0 
 17 68  1  0  0  0  0 
 18 69  1  0  0  0  0 
 18 70  1  0  0  0  0 
 19 71  1  0  0  0  0 
 19 72  1  0  0  0  0 
 19 73  1  0  0  0  0 
 20 74  1  0  0  0  0 
 21 75  1  0  0  0  0 
 22 76  1  0  0  0  0 
 23 77  1  0  0  0  0 
 24 78  1  0  0  0  0 
 25 79  1  0  0  0  0 
 25 80  1  0  0  0  0 
 26 81  1  0  0  0  0 
 27 82  1  0  0  0  0 
 28 83  1  0  0  0  0 
 29 84  1  0  0  0  0 
 30 85  1  0  0  0  0 
 30 86  1  0  0  0  0 
 31 87  1  0  0  0  0 
 32 88  1  0  0  0  0 
 33 89  1  0  0  0  0 
 34 90  1  0  0  0  0 
 35 91  1  0  0  0  0 
 35 92  1  0  0  0  0 
 36 93  1  0  0  0  0 
 37 94  1  0  0  0  0 
 38 95  1  0  0  0  0 
 39 96  1  0  0  0  0 
 40 97  1  0  0  0  0 
 41 98  1  0  0  0  0 
 42 99  1  0  0  0  0 
 43100  1  0  0  0  0 
 44101  1  0  0  0  0 
 45102  1  0  0  0  0 
 47103  1  0  0  0  0 
 47104  1  0  0  0  0 
 47105  1  0  0  0  0 
M  END
> <cdk:Title>
pentamycin

> <Conformer>
1

> <SuperDrugID>
SD002812

$$$$
