trimetazidine
  CDK     0628171801

 41 42  0  0  0  0  0  0  0  0999 V2000
    1.3423   -0.0907   -3.0745 C   0  0  2  0  0  0  0  0  0  0  0  0
    0.0896    0.7119   -3.2158 C   0  0  0  0  0  0  0  0  0  0  0  0
    1.5164   -0.6921   -1.7107 N   0  0  1  0  0  0  0  0  0  0  0  0
    0.0097    2.0725   -2.8111 C   0  0  0  0  0  0  0  0  0  0  0  0
   -1.0736    0.0940   -3.7358 C   0  0  0  0  0  0  0  0  0  0  0  0
    0.4134   -1.6218   -1.2925 C   0  0  1  0  0  0  0  0  0  0  0  0
    2.8708   -1.3097   -1.5220 C   0  0  1  0  0  0  0  0  0  0  0  0
    1.1190    2.7348   -2.3515 O   0  0  0  0  0  0  0  0  0  0  0  0
   -1.2130    2.7812   -2.9204 C   0  0  0  0  0  0  0  0  0  0  0  0
   -2.3037    0.7720   -3.7668 C   0  0  0  0  0  0  0  0  0  0  0  0
    0.6285   -2.1519    0.1430 C   0  0  1  0  0  0  0  0  0  0  0  0
    3.0519   -1.8254   -0.0748 C   0  0  2  0  0  0  0  0  0  0  0  0
    1.2326    2.7533   -0.9180 C   0  0  0  0  0  0  0  0  0  0  0  0
   -1.2724    4.1174   -2.6113 O   0  0  0  0  0  0  0  0  0  0  0  0
   -2.3857    2.1064   -3.3292 C   0  0  0  0  0  0  0  0  0  0  0  0
    1.9660   -2.7643    0.2733 N   0  0  1  0  0  0  0  0  0  0  0  0
   -1.0343    4.9586   -3.7573 C   0  0  0  0  0  0  0  0  0  0  0  0
   -3.5982    2.7443   -3.3361 O   0  0  0  0  0  0  0  0  0  0  0  0
   -4.2956    2.6516   -2.0768 C   0  0  0  0  0  0  0  0  0  0  0  0
    2.1912    0.5605   -3.2961 H   0  0  0  0  0  0  0  0  0  0  0  0
    1.3721   -0.8859   -3.8249 H   0  0  0  0  0  0  0  0  0  0  0  0
   -1.0407   -0.8715   -4.0715 H   0  0  0  0  0  0  0  0  0  0  0  0
   -0.5466   -1.1041   -1.2932 H   0  0  0  0  0  0  0  0  0  0  0  0
    0.3441   -2.4687   -1.9796 H   0  0  0  0  0  0  0  0  0  0  0  0
    3.0120   -2.1441   -2.2167 H   0  0  0  0  0  0  0  0  0  0  0  0
    3.6548   -0.5723   -1.7111 H   0  0  0  0  0  0  0  0  0  0  0  0
   -3.1411    0.2921   -4.1033 H   0  0  0  0  0  0  0  0  0  0  0  0
    0.5278   -1.3336    0.8597 H   0  0  0  0  0  0  0  0  0  0  0  0
   -0.1273   -2.9061    0.3699 H   0  0  0  0  0  0  0  0  0  0  0  0
    3.0550   -0.9835    0.6215 H   0  0  0  0  0  0  0  0  0  0  0  0
    4.0054   -2.3486    0.0154 H   0  0  0  0  0  0  0  0  0  0  0  0
    2.1320    3.3090   -0.6559 H   0  0  0  0  0  0  0  0  0  0  0  0
    0.3801    3.2502   -0.4512 H   0  0  0  0  0  0  0  0  0  0  0  0
    1.3301    1.7464   -0.5123 H   0  0  0  0  0  0  0  0  0  0  0  0
    2.0856   -3.0303    1.2541 H   0  0  0  0  0  0  0  0  0  0  0  0
   -1.1080    5.9980   -3.4420 H   0  0  0  0  0  0  0  0  0  0  0  0
   -0.0335    4.8030   -4.1668 H   0  0  0  0  0  0  0  0  0  0  0  0
   -1.7771    4.7945   -4.5420 H   0  0  0  0  0  0  0  0  0  0  0  0
   -5.2467    3.1761   -2.1773 H   0  0  0  0  0  0  0  0  0  0  0  0
   -4.5097    1.6132   -1.8067 H   0  0  0  0  0  0  0  0  0  0  0  0
   -3.7312    3.1267   -1.2694 H   0  0  0  0  0  0  0  0  0  0  0  0
  1  2  1  0  0  0  0 
  1  3  1  0  0  0  0 
  2  4  2  0  0  0  0 
  2  5  1  0  0  0  0 
  3  6  1  0  0  0  0 
  3  7  1  0  0  0  0 
  4  8  1  0  0  0  0 
  4  9  1  0  0  0  0 
  5 10  2  0  0  0  0 
  6 11  1  0  0  0  0 
  7 12  1  0  0  0  0 
  8 13  1  0  0  0  0 
  9 14  1  0  0  0  0 
  9 15  2  0  0  0  0 
 10 15  1  0  0  0  0 
 11 16  1  0  0  0  0 
 12 16  1  0  0  0  0 
 14 17  1  0  0  0  0 
 15 18  1  0  0  0  0 
 18 19  1  0  0  0  0 
  1 20  1  0  0  0  0 
  1 21  1  0  0  0  0 
  5 22  1  0  0  0  0 
  6 23  1  0  0  0  0 
  6 24  1  0  0  0  0 
  7 25  1  0  0  0  0 
  7 26  1  0  0  0  0 
 10 27  1  0  0  0  0 
 11 28  1  0  0  0  0 
 11 29  1  0  0  0  0 
 12 30  1  0  0  0  0 
 12 31  1  0  0  0  0 
 13 32  1  0  0  0  0 
 13 33  1  0  0  0  0 
 13 34  1  0  0  0  0 
 16 35  1  0  0  0  0 
 17 36  1  0  0  0  0 
 17 37  1  0  0  0  0 
 17 38  1  0  0  0  0 
 19 39  1  0  0  0  0 
 19 40  1  0  0  0  0 
 19 41  1  0  0  0  0 
M  END
> <cdk:Title>
trimetazidine

> <Conformer>
1

> <SuperDrugID>
SD002480

$$$$
