dihydroergocornine
  CDK     0628171801

 82 88  0  0  0  0  0  0  0  0999 V2000
   -2.7940    1.1518   -1.0249 O   0  0  0  0  0  0  0  0  0  0  0  0
   -2.2738    0.8465    0.2699 C   0  0  1  0  0  0  0  0  0  0  0  0
   -0.9603    1.3673    0.4315 N   0  0  0  0  0  0  0  0  0  0  0  0
   -3.1259    1.4503    1.4181 C   0  0  1  0  0  0  0  0  0  0  0  0
   -2.1705   -0.5818    0.3964 O   0  0  0  0  0  0  0  0  0  0  0  0
   -0.1152    0.3520    0.6781 C   0  0  0  0  0  0  0  0  0  0  0  0
   -0.6619    2.7926    0.4721 C   0  0  1  0  0  0  0  0  0  0  0  0
   -2.9070    2.8525    1.6070 N   0  0  0  0  0  0  0  0  0  0  0  0
   -4.6571    1.3377    1.2930 C   0  0  1  0  0  0  0  0  0  0  0  0
   -0.8297   -0.9380    0.7885 C   0  0  2  0  0  0  0  0  0  0  0  0
    1.1160    0.4953    0.8584 O   0  0  0  0  0  0  0  0  0  0  0  0
   -0.4795    3.4131   -0.9660 C   0  0  1  0  0  0  0  0  0  0  0  0
   -1.7259    3.4823    1.2745 C   0  0  0  0  0  0  0  0  0  0  0  0
   -4.0440    3.5154    2.1710 C   0  0  2  0  0  0  0  0  0  0  0  0
   -5.1201    2.4146    2.2894 C   0  0  1  0  0  0  0  0  0  0  0  0
   -0.4566   -2.0093   -0.0978 N   0  0  0  0  0  0  0  0  0  0  0  0
   -0.8193   -1.4749    2.2733 C   0  0  2  0  0  0  0  0  0  0  0  0
   -0.0558    4.9161   -0.9681 C   0  0  0  0  0  0  0  0  0  0  0  0
    0.5464    2.6070   -1.8146 C   0  0  0  0  0  0  0  0  0  0  0  0
   -1.5387    4.6635    1.6547 O   0  0  0  0  0  0  0  0  0  0  0  0
    0.4862   -2.0644   -1.0827 C   0  0  0  0  0  0  0  0  0  0  0  0
    0.5657   -2.0460    2.7094 C   0  0  0  0  0  0  0  0  0  0  0  0
   -1.9326   -2.5307    2.5449 C   0  0  0  0  0  0  0  0  0  0  0  0
    1.1705   -1.0718   -1.4243 O   0  0  0  0  0  0  0  0  0  0  0  0
    0.7398   -3.3684   -1.7554 C   0  0  2  0  0  0  0  0  0  0  0  0
    2.1343   -3.9456   -1.3635 C   0  0  1  0  0  0  0  0  0  0  0  0
    0.5850   -3.2634   -3.3020 C   0  0  2  0  0  0  0  0  0  0  0  0
    2.3037   -5.3565   -2.1329 C   0  0  2  0  0  0  0  0  0  0  0  0
    0.7947   -4.5880   -3.9806 N   0  0  2  0  0  0  0  0  0  0  0  0
    3.6774   -6.0731   -1.8459 C   0  0  0  0  0  0  0  0  0  0  0  0
    2.1892   -5.1249   -3.7439 C   0  0  2  0  0  0  0  0  0  0  0  0
    0.3358   -4.5620   -5.4036 C   0  0  0  0  0  0  0  0  0  0  0  0
    4.3343   -6.8326   -2.8731 C   0  0  0  0  0  0  0  0  0  0  0  0
    4.3984   -6.1102   -0.5956 C   0  0  0  0  0  0  0  0  0  0  0  0
    2.5963   -6.3865   -4.6470 C   0  0  1  0  0  0  0  0  0  0  0  0
    3.8542   -7.0001   -4.1585 C   0  0  0  0  0  0  0  0  0  0  0  0
    5.5241   -7.5267   -2.7391 C   0  0  0  0  0  0  0  0  0  0  0  0
    5.6265   -6.8009   -0.4407 C   0  0  0  0  0  0  0  0  0  0  0  0
    4.7815   -7.8342   -4.7865 C   0  0  0  0  0  0  0  0  0  0  0  0
    5.7760   -8.1223   -3.9171 N   0  0  0  0  0  0  0  0  0  0  0  0
    6.2032   -7.5126   -1.5145 C   0  0  0  0  0  0  0  0  0  0  0  0
   -2.1911    0.6943   -1.6467 H   0  0  0  0  0  0  0  0  0  0  0  0
   -2.8274    0.9540    2.3497 H   0  0  0  0  0  0  0  0  0  0  0  0
    0.2781    2.9364    1.0148 H   0  0  0  0  0  0  0  0  0  0  0  0
   -4.9967    1.5924    0.2839 H   0  0  0  0  0  0  0  0  0  0  0  0
   -5.0206    0.3440    1.5622 H   0  0  0  0  0  0  0  0  0  0  0  0
   -1.4385    3.3615   -1.4908 H   0  0  0  0  0  0  0  0  0  0  0  0
   -4.3862    4.3056    1.4957 H   0  0  0  0  0  0  0  0  0  0  0  0
   -3.8124    3.9489    3.1483 H   0  0  0  0  0  0  0  0  0  0  0  0
   -6.1162    2.7930    2.0511 H   0  0  0  0  0  0  0  0  0  0  0  0
   -5.1229    2.0041    3.3034 H   0  0  0  0  0  0  0  0  0  0  0  0
   -0.9380   -2.8392    0.0481 H   0  0  0  0  0  0  0  0  0  0  0  0
   -1.0339   -0.6378    2.9462 H   0  0  0  0  0  0  0  0  0  0  0  0
    0.1456    5.2653   -1.9835 H   0  0  0  0  0  0  0  0  0  0  0  0
   -0.8524    5.5480   -0.5752 H   0  0  0  0  0  0  0  0  0  0  0  0
    0.8432    5.0666   -0.3670 H   0  0  0  0  0  0  0  0  0  0  0  0
    0.6473    3.0388   -2.8131 H   0  0  0  0  0  0  0  0  0  0  0  0
    0.2204    1.5748   -1.9425 H   0  0  0  0  0  0  0  0  0  0  0  0
    1.5258    2.6083   -1.3328 H   0  0  0  0  0  0  0  0  0  0  0  0
    0.5348   -2.3794    3.7491 H   0  0  0  0  0  0  0  0  0  0  0  0
    1.3412   -1.2836    2.6388 H   0  0  0  0  0  0  0  0  0  0  0  0
    0.8545   -2.8958    2.0873 H   0  0  0  0  0  0  0  0  0  0  0  0
   -1.9028   -2.8552    3.5873 H   0  0  0  0  0  0  0  0  0  0  0  0
   -2.9219   -2.1077    2.3591 H   0  0  0  0  0  0  0  0  0  0  0  0
   -1.8029   -3.4080    1.9086 H   0  0  0  0  0  0  0  0  0  0  0  0
   -0.0154   -4.0851   -1.4091 H   0  0  0  0  0  0  0  0  0  0  0  0
    2.9080   -3.1664   -1.6077 H   0  0  0  0  0  0  0  0  0  0  0  0
    2.1472   -4.0085   -0.2403 H   0  0  0  0  0  0  0  0  0  0  0  0
    1.2995   -2.5343   -3.7004 H   0  0  0  0  0  0  0  0  0  0  0  0
   -0.4182   -2.8804   -3.5097 H   0  0  0  0  0  0  0  0  0  0  0  0
    1.5125   -6.0389   -1.8109 H   0  0  0  0  0  0  0  0  0  0  0  0
    2.8854   -4.3293   -4.1379 H   0  0  0  0  0  0  0  0  0  0  0  0
    0.2262   -5.5801   -5.7822 H   0  0  0  0  0  0  0  0  0  0  0  0
   -0.6460   -4.0918   -5.4999 H   0  0  0  0  0  0  0  0  0  0  0  0
    1.0445   -4.0193   -6.0332 H   0  0  0  0  0  0  0  0  0  0  0  0
    4.0109   -5.6248    0.2146 H   0  0  0  0  0  0  0  0  0  0  0  0
    1.8073   -7.1388   -4.6137 H   0  0  0  0  0  0  0  0  0  0  0  0
    2.7424   -6.0781   -5.6850 H   0  0  0  0  0  0  0  0  0  0  0  0
    6.1001   -6.7906    0.4634 H   0  0  0  0  0  0  0  0  0  0  0  0
    4.7221   -8.1736   -5.7481 H   0  0  0  0  0  0  0  0  0  0  0  0
    6.5457   -8.6789   -4.1116 H   0  0  0  0  0  0  0  0  0  0  0  0
    7.0873   -8.0123   -1.4036 H   0  0  0  0  0  0  0  0  0  0  0  0
  2  1  1  0  0  0  0 
  2  3  1  0  0  0  0 
  2  4  1  0  0  0  0 
  2  5  1  0  0  0  0 
  3  6  1  0  0  0  0 
  7  3  1  0  0  0  0 
  4  8  1  0  0  0  0 
  4  9  1  0  0  0  0 
 10  5  1  0  0  0  0 
 10  6  1  0  0  0  0 
  6 11  2  0  0  0  0 
  7 12  1  0  0  0  0 
  7 13  1  0  0  0  0 
  8 13  1  0  0  0  0 
  8 14  1  0  0  0  0 
  9 15  1  0  0  0  0 
 10 16  1  0  0  0  0 
 10 17  1  0  0  0  0 
 12 18  1  0  0  0  0 
 12 19  1  0  0  0  0 
 13 20  2  0  0  0  0 
 14 15  1  0  0  0  0 
 16 21  1  0  0  0  0 
 17 22  1  0  0  0  0 
 17 23  1  0  0  0  0 
 21 24  2  0  0  0  0 
 25 21  1  0  0  0  0 
 25 26  1  0  0  0  0 
 25 27  1  0  0  0  0 
 28 26  1  0  0  0  0 
 27 29  1  0  0  0  0 
 28 30  1  0  0  0  0 
 28 31  1  0  0  0  0 
 31 29  1  0  0  0  0 
 29 32  1  0  0  0  0 
 30 33  2  0  0  0  0 
 30 34  1  0  0  0  0 
 31 35  1  0  0  0  0 
 33 36  1  0  0  0  0 
 33 37  1  0  0  0  0 
 34 38  2  0  0  0  0 
 35 36  1  0  0  0  0 
 36 39  2  0  0  0  0 
 37 40  1  0  0  0  0 
 37 41  2  0  0  0  0 
 38 41  1  0  0  0  0 
 39 40  1  0  0  0  0 
 42  1  1  0  0  0  0 
  4 43  1  0  0  0  0 
  7 44  1  0  0  0  0 
 45  9  1  0  0  0  0 
 46  9  1  0  0  0  0 
 47 12  1  0  0  0  0 
 48 14  1  0  0  0  0 
 49 14  1  0  0  0  0 
 50 15  1  0  0  0  0 
 51 15  1  0  0  0  0 
 52 16  1  0  0  0  0 
 53 17  1  0  0  0  0 
 54 18  1  0  0  0  0 
 55 18  1  0  0  0  0 
 56 18  1  0  0  0  0 
 57 19  1  0  0  0  0 
 58 19  1  0  0  0  0 
 59 19  1  0  0  0  0 
 60 22  1  0  0  0  0 
 61 22  1  0  0  0  0 
 62 22  1  0  0  0  0 
 63 23  1  0  0  0  0 
 64 23  1  0  0  0  0 
 65 23  1  0  0  0  0 
 25 66  1  0  0  0  0 
 67 26  1  0  0  0  0 
 68 26  1  0  0  0  0 
 69 27  1  0  0  0  0 
 70 27  1  0  0  0  0 
 28 71  1  0  0  0  0 
 31 72  1  0  0  0  0 
 73 32  1  0  0  0  0 
 74 32  1  0  0  0  0 
 75 32  1  0  0  0  0 
 76 34  1  0  0  0  0 
 77 35  1  0  0  0  0 
 78 35  1  0  0  0  0 
 79 38  1  0  0  0  0 
 80 39  1  0  0  0  0 
 81 40  1  0  0  0  0 
 82 41  1  0  0  0  0 
M  END
> <cdk:Title>
dihydroergocornine

> <Conformer>
1

> <SuperDrugID>
SD002757

$$$$
