spironolactone
  CDK     0628171801

 61 65  0  0  0  0  0  0  0  0999 V2000
   -4.9774   -7.8872    3.4379 C   0  0  0  0  0  0  0  0  0  0  0  0
   -3.7541   -7.4996    4.3682 C   0  0  1  0  0  0  0  0  0  0  0  0
   -2.6093   -8.5717    4.1255 C   0  0  2  0  0  0  0  0  0  0  0  0
   -3.0363   -6.1656    3.9686 C   0  0  1  0  0  0  0  0  0  0  0  0
   -4.2812   -7.2829    5.8310 C   0  0  2  0  0  0  0  0  0  0  0  0
   -1.8661   -8.0139    2.8616 C   0  0  1  0  0  0  0  0  0  0  0  0
   -3.1092   -9.8822    3.8079 O   0  0  0  0  0  0  0  0  0  0  0  0
   -1.6339   -8.9172    5.3073 C   0  0  1  0  0  0  0  0  0  0  0  0
   -2.2924   -6.5359    2.6684 C   0  0  2  0  0  0  0  0  0  0  0  0
   -3.9877   -4.9153    3.9694 C   0  0  1  0  0  0  0  0  0  0  0  0
   -5.2545   -6.0759    5.9510 C   0  0  2  0  0  0  0  0  0  0  0  0
   -2.4189  -10.8951    4.3587 C   0  0  0  0  0  0  0  0  0  0  0  0
   -1.3300  -10.4278    5.2009 C   0  0  1  0  0  0  0  0  0  0  0  0
   -4.6663   -4.7311    5.3843 C   0  0  2  0  0  0  0  0  0  0  0  0
   -3.3413   -3.5671    3.4935 C   0  0  2  0  0  0  0  0  0  0  0  0
   -2.6758  -12.1005    4.1398 O   0  0  0  0  0  0  0  0  0  0  0  0
   -5.6758   -3.4949    5.4618 C   0  0  2  0  0  0  0  0  0  0  0  0
   -1.9358   -2.9430    4.4973 S   0  0  0  0  0  0  0  0  0  0  0  0
   -4.4403   -2.4684    3.4780 C   0  0  2  0  0  0  0  0  0  0  0  0
   -7.0467   -3.8038    4.7541 C   0  0  0  0  0  0  0  0  0  0  0  0
   -5.0921   -2.2930    4.7866 C   0  0  0  0  0  0  0  0  0  0  0  0
   -5.9576   -3.1821    6.9881 C   0  0  1  0  0  0  0  0  0  0  0  0
   -0.4687   -3.6365    3.8379 C   0  0  0  0  0  0  0  0  0  0  0  0
   -5.1795   -1.0488    5.3147 C   0  0  0  0  0  0  0  0  0  0  0  0
   -6.5910   -1.7932    7.2340 C   0  0  1  0  0  0  0  0  0  0  0  0
    0.1440   -3.1217    2.5989 C   0  0  0  0  0  0  0  0  0  0  0  0
    0.0851   -4.5519    4.4885 O   0  0  0  0  0  0  0  0  0  0  0  0
   -5.8463   -0.7559    6.4929 C   0  0  0  0  0  0  0  0  0  0  0  0
   -5.8600    0.4194    6.9293 O   0  0  0  0  0  0  0  0  0  0  0  0
   -5.4586   -8.7949    3.8087 H   0  0  0  0  0  0  0  0  0  0  0  0
   -4.6613   -8.0823    2.4122 H   0  0  0  0  0  0  0  0  0  0  0  0
   -5.7471   -7.1221    3.3852 H   0  0  0  0  0  0  0  0  0  0  0  0
   -2.2612   -5.9582    4.7169 H   0  0  0  0  0  0  0  0  0  0  0  0
   -3.4566   -7.0659    6.5144 H   0  0  0  0  0  0  0  0  0  0  0  0
   -4.7785   -8.1871    6.1910 H   0  0  0  0  0  0  0  0  0  0  0  0
   -0.7798   -8.0788    2.9622 H   0  0  0  0  0  0  0  0  0  0  0  0
   -2.1368   -8.5833    1.9671 H   0  0  0  0  0  0  0  0  0  0  0  0
   -0.7149   -8.3288    5.2915 H   0  0  0  0  0  0  0  0  0  0  0  0
   -2.1000   -8.7653    6.2772 H   0  0  0  0  0  0  0  0  0  0  0  0
   -1.4239   -5.8968    2.5068 H   0  0  0  0  0  0  0  0  0  0  0  0
   -2.9571   -6.4332    1.8071 H   0  0  0  0  0  0  0  0  0  0  0  0
   -4.7720   -5.1215    3.2399 H   0  0  0  0  0  0  0  0  0  0  0  0
   -5.4910   -5.9550    7.0107 H   0  0  0  0  0  0  0  0  0  0  0  0
   -6.1877   -6.3328    5.4532 H   0  0  0  0  0  0  0  0  0  0  0  0
   -0.3676  -10.6197    4.7200 H   0  0  0  0  0  0  0  0  0  0  0  0
   -1.3633  -10.9211    6.1761 H   0  0  0  0  0  0  0  0  0  0  0  0
   -3.8348   -4.4971    6.0571 H   0  0  0  0  0  0  0  0  0  0  0  0
   -2.9912   -3.6867    2.4660 H   0  0  0  0  0  0  0  0  0  0  0  0
   -5.2116   -2.7426    2.7544 H   0  0  0  0  0  0  0  0  0  0  0  0
   -3.9998   -1.5444    3.0921 H   0  0  0  0  0  0  0  0  0  0  0  0
   -7.6643   -2.9062    4.6734 H   0  0  0  0  0  0  0  0  0  0  0  0
   -6.8991   -4.1936    3.7472 H   0  0  0  0  0  0  0  0  0  0  0  0
   -7.6287   -4.5413    5.3094 H   0  0  0  0  0  0  0  0  0  0  0  0
   -6.6109   -3.9355    7.4371 H   0  0  0  0  0  0  0  0  0  0  0  0
   -5.0180   -3.2012    7.5510 H   0  0  0  0  0  0  0  0  0  0  0  0
   -4.7613   -0.2838    4.8342 H   0  0  0  0  0  0  0  0  0  0  0  0
   -7.6317   -1.7869    6.9030 H   0  0  0  0  0  0  0  0  0  0  0  0
   -6.5752   -1.5792    8.3059 H   0  0  0  0  0  0  0  0  0  0  0  0
    0.4673   -2.0616    2.8247 H   0  0  0  0  0  0  0  0  0  0  0  0
    1.1145   -3.6819    2.4364 H   0  0  0  0  0  0  0  0  0  0  0  0
   -0.6568   -3.2447    1.7530 H   0  0  0  0  0  0  0  0  0  0  0  0
  2  1  1  0  0  0  0 
  2  3  1  0  0  0  0 
  4  2  1  0  0  0  0 
  2  5  1  0  0  0  0 
  3  6  1  0  0  0  0 
  3  7  1  0  0  0  0 
  3  8  1  0  0  0  0 
  4  9  1  0  0  0  0 
 10  4  1  0  0  0  0 
  5 11  1  0  0  0  0 
  6  9  1  0  0  0  0 
  7 12  1  0  0  0  0 
  8 13  1  0  0  0  0 
 10 14  1  0  0  0  0 
 10 15  1  0  0  0  0 
 14 11  1  0  0  0  0 
 12 13  1  0  0  0  0 
 12 16  2  0  0  0  0 
 14 17  1  0  0  0  0 
 15 18  1  0  0  0  0 
 15 19  1  0  0  0  0 
 17 20  1  0  0  0  0 
 17 21  1  0  0  0  0 
 17 22  1  0  0  0  0 
 18 23  1  0  0  0  0 
 19 21  1  0  0  0  0 
 21 24  2  0  0  0  0 
 22 25  1  0  0  0  0 
 23 26  1  0  0  0  0 
 23 27  2  0  0  0  0 
 24 28  1  0  0  0  0 
 25 28  1  0  0  0  0 
 28 29  2  0  0  0  0 
 30  1  1  0  0  0  0 
 31  1  1  0  0  0  0 
 32  1  1  0  0  0  0 
  4 33  1  0  0  0  0 
 34  5  1  0  0  0  0 
 35  5  1  0  0  0  0 
 36  6  1  0  0  0  0 
 37  6  1  0  0  0  0 
 38  8  1  0  0  0  0 
 39  8  1  0  0  0  0 
 40  9  1  0  0  0  0 
 41  9  1  0  0  0  0 
 10 42  1  0  0  0  0 
 43 11  1  0  0  0  0 
 44 11  1  0  0  0  0 
 45 13  1  0  0  0  0 
 46 13  1  0  0  0  0 
 14 47  1  0  0  0  0 
 15 48  1  0  0  0  0 
 49 19  1  0  0  0  0 
 50 19  1  0  0  0  0 
 51 20  1  0  0  0  0 
 52 20  1  0  0  0  0 
 53 20  1  0  0  0  0 
 54 22  1  0  0  0  0 
 55 22  1  0  0  0  0 
 56 24  1  0  0  0  0 
 57 25  1  0  0  0  0 
 58 25  1  0  0  0  0 
 59 26  1  0  0  0  0 
 60 26  1  0  0  0  0 
 61 26  1  0  0  0  0 
M  END
> <cdk:Title>
spironolactone

> <Conformer>
1

> <SuperDrugID>
SD002223

$$$$
