fenalamide
  CDK     0628171801

 54 54  0  0  0  0  0  0  0  0999 V2000
    3.2747   -2.6929   -3.8600 C   0  0  2  0  0  0  0  0  0  0  0  0
    4.5960   -2.2281   -3.2965 C   0  0  0  0  0  0  0  0  0  0  0  0
    2.4934   -1.6682   -4.6426 C   0  0  0  0  0  0  0  0  0  0  0  0
    2.3285   -3.0929   -2.6547 C   0  0  1  0  0  0  0  0  0  0  0  0
    3.6348   -3.8203   -4.8174 C   0  0  0  0  0  0  0  0  0  0  0  0
    5.2592   -3.0348   -2.4173 N   0  0  0  0  0  0  0  0  0  0  0  0
    5.1210   -1.1381   -3.6331 O   0  0  0  0  0  0  0  0  0  0  0  0
    2.8235   -0.3414   -4.6172 O   0  0  0  0  0  0  0  0  0  0  0  0
    1.4907   -2.0342   -5.3052 O   0  0  0  0  0  0  0  0  0  0  0  0
    1.9679   -1.9507   -1.6667 C   0  0  0  0  0  0  0  0  0  0  0  0
    4.3548   -3.5247   -6.0101 C   0  0  0  0  0  0  0  0  0  0  0  0
    3.2986   -5.1848   -4.5968 C   0  0  0  0  0  0  0  0  0  0  0  0
    6.5240   -2.7578   -1.8206 C   0  0  1  0  0  0  0  0  0  0  0  0
    2.1806    0.7510   -5.2842 C   0  0  2  0  0  0  0  0  0  0  0  0
    4.6984   -4.5235   -6.9389 C   0  0  0  0  0  0  0  0  0  0  0  0
    3.6514   -6.1899   -5.5175 C   0  0  0  0  0  0  0  0  0  0  0  0
    6.8823   -3.8548   -0.7842 C   0  0  1  0  0  0  0  0  0  0  0  0
    3.1727    1.3788   -6.2767 C   0  0  0  0  0  0  0  0  0  0  0  0
    4.3488   -5.8598   -6.6905 C   0  0  0  0  0  0  0  0  0  0  0  0
    8.2727   -3.7784   -0.2290 N   0  0  1  0  0  0  0  0  0  0  0  0
    9.3996   -4.1643   -1.1445 C   0  0  2  0  0  0  0  0  0  0  0  0
    8.5498   -2.6222    0.6869 C   0  0  2  0  0  0  0  0  0  0  0  0
    9.4419   -5.6688   -1.4932 C   0  0  0  0  0  0  0  0  0  0  0  0
    9.1528   -3.1149    2.0191 C   0  0  0  0  0  0  0  0  0  0  0  0
    1.3908   -3.5066   -3.0390 H   0  0  0  0  0  0  0  0  0  0  0  0
    2.7889   -3.8827   -2.0563 H   0  0  0  0  0  0  0  0  0  0  0  0
    4.8387   -3.8790   -2.1892 H   0  0  0  0  0  0  0  0  0  0  0  0
    2.8690   -1.5134   -1.2323 H   0  0  0  0  0  0  0  0  0  0  0  0
    1.4066   -1.1625   -2.1694 H   0  0  0  0  0  0  0  0  0  0  0  0
    1.3504   -2.3456   -0.8572 H   0  0  0  0  0  0  0  0  0  0  0  0
    4.6328   -2.5618   -6.2183 H   0  0  0  0  0  0  0  0  0  0  0  0
    2.7959   -5.4772   -3.7593 H   0  0  0  0  0  0  0  0  0  0  0  0
    7.2694   -2.7277   -2.6143 H   0  0  0  0  0  0  0  0  0  0  0  0
    6.4960   -1.7844   -1.3248 H   0  0  0  0  0  0  0  0  0  0  0  0
    1.8934    1.4895   -4.5345 H   0  0  0  0  0  0  0  0  0  0  0  0
    1.2815    0.4363   -5.8195 H   0  0  0  0  0  0  0  0  0  0  0  0
    5.2025   -4.2772   -7.7943 H   0  0  0  0  0  0  0  0  0  0  0  0
    3.3966   -7.1634   -5.3345 H   0  0  0  0  0  0  0  0  0  0  0  0
    6.1703   -3.7946    0.0450 H   0  0  0  0  0  0  0  0  0  0  0  0
    6.7269   -4.8350   -1.2369 H   0  0  0  0  0  0  0  0  0  0  0  0
    3.4403    0.6489   -7.0430 H   0  0  0  0  0  0  0  0  0  0  0  0
    4.0788    1.6894   -5.7525 H   0  0  0  0  0  0  0  0  0  0  0  0
    2.7220    2.2485   -6.7571 H   0  0  0  0  0  0  0  0  0  0  0  0
    4.5994   -6.5888   -7.3613 H   0  0  0  0  0  0  0  0  0  0  0  0
   10.3578   -3.9372   -0.6699 H   0  0  0  0  0  0  0  0  0  0  0  0
    9.3616   -3.5853   -2.0690 H   0  0  0  0  0  0  0  0  0  0  0  0
    7.6373   -2.0726    0.9341 H   0  0  0  0  0  0  0  0  0  0  0  0
    9.2335   -1.9073    0.2210 H   0  0  0  0  0  0  0  0  0  0  0  0
   10.3266   -5.8819   -2.0969 H   0  0  0  0  0  0  0  0  0  0  0  0
    8.5634   -5.9723   -2.0621 H   0  0  0  0  0  0  0  0  0  0  0  0
    9.4910   -6.2606   -0.5784 H   0  0  0  0  0  0  0  0  0  0  0  0
    9.3287   -2.2661    2.6822 H   0  0  0  0  0  0  0  0  0  0  0  0
   10.1003   -3.6286    1.8498 H   0  0  0  0  0  0  0  0  0  0  0  0
    8.4620   -3.8029    2.5102 H   0  0  0  0  0  0  0  0  0  0  0  0
  1  2  1  0  0  0  0 
  1  3  1  0  0  0  0 
  1  4  1  0  0  0  0 
  1  5  1  0  0  0  0 
  2  6  1  0  0  0  0 
  2  7  2  0  0  0  0 
  3  8  1  0  0  0  0 
  3  9  2  0  0  0  0 
  4 10  1  0  0  0  0 
  5 11  2  0  0  0  0 
  5 12  1  0  0  0  0 
  6 13  1  0  0  0  0 
  8 14  1  0  0  0  0 
 11 15  1  0  0  0  0 
 12 16  2  0  0  0  0 
 13 17  1  0  0  0  0 
 14 18  1  0  0  0  0 
 15 19  2  0  0  0  0 
 16 19  1  0  0  0  0 
 17 20  1  0  0  0  0 
 20 21  1  0  0  0  0 
 20 22  1  0  0  0  0 
 21 23  1  0  0  0  0 
 22 24  1  0  0  0  0 
  4 25  1  0  0  0  0 
  4 26  1  0  0  0  0 
  6 27  1  0  0  0  0 
 10 28  1  0  0  0  0 
 10 29  1  0  0  0  0 
 10 30  1  0  0  0  0 
 11 31  1  0  0  0  0 
 12 32  1  0  0  0  0 
 13 33  1  0  0  0  0 
 13 34  1  0  0  0  0 
 14 35  1  0  0  0  0 
 14 36  1  0  0  0  0 
 15 37  1  0  0  0  0 
 16 38  1  0  0  0  0 
 17 39  1  0  0  0  0 
 17 40  1  0  0  0  0 
 18 41  1  0  0  0  0 
 18 42  1  0  0  0  0 
 18 43  1  0  0  0  0 
 19 44  1  0  0  0  0 
 21 45  1  0  0  0  0 
 21 46  1  0  0  0  0 
 22 47  1  0  0  0  0 
 22 48  1  0  0  0  0 
 23 49  1  0  0  0  0 
 23 50  1  0  0  0  0 
 23 51  1  0  0  0  0 
 24 52  1  0  0  0  0 
 24 53  1  0  0  0  0 
 24 54  1  0  0  0  0 
M  END
> <cdk:Title>
fenalamide

> <Conformer>
1

> <SuperDrugID>
SD001020

$$$$
