hexachlorophene
  CDK     0628171801

 27 28  0  0  0  0  0  0  0  0999 V2000
    0.0217   -0.6460    2.7965 C   0  0  2  0  0  0  0  0  0  0  0  0
    0.2913    0.6555    2.0910 C   0  0  0  0  0  0  0  0  0  0  0  0
    1.2553   -1.2553    3.4059 C   0  0  0  0  0  0  0  0  0  0  0  0
   -0.2186    1.9147    2.5359 C   0  0  0  0  0  0  0  0  0  0  0  0
    1.0799    0.6274    0.9083 C   0  0  0  0  0  0  0  0  0  0  0  0
    1.8336   -2.4829    2.9566 C   0  0  0  0  0  0  0  0  0  0  0  0
    1.8667   -0.5825    4.4990 C   0  0  0  0  0  0  0  0  0  0  0  0
   -1.2464    2.0378    3.8899 Cl  0  0  0  0  0  0  0  0  0  0  0  0
    0.1182    3.1064    1.8428 C   0  0  0  0  0  0  0  0  0  0  0  0
    1.5392   -0.5567    0.4213 O   0  0  0  0  0  0  0  0  0  0  0  0
    1.3961    1.8160    0.2161 C   0  0  0  0  0  0  0  0  0  0  0  0
    1.1221   -3.4070    1.7138 Cl  0  0  0  0  0  0  0  0  0  0  0  0
    3.0261   -2.9703    3.5519 C   0  0  0  0  0  0  0  0  0  0  0  0
    1.3170    0.5601    4.9918 O   0  0  0  0  0  0  0  0  0  0  0  0
    3.0433   -1.0835    5.0958 C   0  0  0  0  0  0  0  0  0  0  0  0
   -0.4219    4.6461    2.3240 Cl  0  0  0  0  0  0  0  0  0  0  0  0
    0.9293    3.0494    0.6959 C   0  0  0  0  0  0  0  0  0  0  0  0
    2.3351    1.7974   -1.1961 Cl  0  0  0  0  0  0  0  0  0  0  0  0
    3.7935   -4.4053    3.0562 Cl  0  0  0  0  0  0  0  0  0  0  0  0
    3.6263   -2.2634    4.6086 C   0  0  0  0  0  0  0  0  0  0  0  0
    3.7830   -0.2918    6.4007 Cl  0  0  0  0  0  0  0  0  0  0  0  0
   -0.4578   -1.3053    2.0739 H   0  0  0  0  0  0  0  0  0  0  0  0
   -0.7107   -0.5449    3.5965 H   0  0  0  0  0  0  0  0  0  0  0  0
    1.4023   -0.5133   -0.5472 H   0  0  0  0  0  0  0  0  0  0  0  0
    1.3635    0.4751    5.9661 H   0  0  0  0  0  0  0  0  0  0  0  0
    1.1754    3.9121    0.2007 H   0  0  0  0  0  0  0  0  0  0  0  0
    4.4903   -2.6148    5.0328 H   0  0  0  0  0  0  0  0  0  0  0  0
  1  2  1  0  0  0  0 
  1  3  1  0  0  0  0 
  2  4  2  0  0  0  0 
  2  5  1  0  0  0  0 
  3  6  2  0  0  0  0 
  3  7  1  0  0  0  0 
  4  8  1  0  0  0  0 
  4  9  1  0  0  0  0 
  5 10  1  0  0  0  0 
  5 11  2  0  0  0  0 
  6 12  1  0  0  0  0 
  6 13  1  0  0  0  0 
  7 14  1  0  0  0  0 
  7 15  2  0  0  0  0 
  9 16  1  0  0  0  0 
  9 17  2  0  0  0  0 
 11 17  1  0  0  0  0 
 11 18  1  0  0  0  0 
 13 19  1  0  0  0  0 
 13 20  2  0  0  0  0 
 15 20  1  0  0  0  0 
 15 21  1  0  0  0  0 
  1 22  1  0  0  0  0 
  1 23  1  0  0  0  0 
 10 24  1  0  0  0  0 
 14 25  1  0  0  0  0 
 17 26  1  0  0  0  0 
 20 27  1  0  0  0  0 
M  END
> <cdk:Title>
hexachlorophene

> <Conformer>
1

> <SuperDrugID>
SD001210

$$$$
