apomorphine
  CDK     0628171801

 37 40  0  0  0  0  0  0  0  0999 V2000
    1.6159   -0.2575    0.1354 C   0  0  0  0  0  0  0  0  0  0  0  0
    0.1808   -0.2959    0.5249 N   0  0  2  0  0  0  0  0  0  0  0  0
   -0.8282   -0.4626   -0.5732 C   0  0  1  0  0  0  0  0  0  0  0  0
   -0.2091    0.6235    1.6226 C   0  0  1  0  0  0  0  0  0  0  0  0
   -2.2571   -0.3909   -0.1263 C   0  0  0  0  0  0  0  0  0  0  0  0
   -0.7101    0.4865   -1.8102 C   0  0  1  0  0  0  0  0  0  0  0  0
   -1.5353    0.1319    2.2474 C   0  0  1  0  0  0  0  0  0  0  0  0
   -3.2801   -0.5160   -1.1159 C   0  0  0  0  0  0  0  0  0  0  0  0
   -2.5846   -0.1425    1.2331 C   0  0  0  0  0  0  0  0  0  0  0  0
   -1.6500    0.0106   -2.8767 C   0  0  0  0  0  0  0  0  0  0  0  0
   -2.8986   -0.5819   -2.5083 C   0  0  0  0  0  0  0  0  0  0  0  0
   -4.6291   -0.4582   -0.6898 C   0  0  0  0  0  0  0  0  0  0  0  0
   -3.9398   -0.1496    1.6228 C   0  0  0  0  0  0  0  0  0  0  0  0
   -1.2825    0.1016   -4.2375 C   0  0  0  0  0  0  0  0  0  0  0  0
   -3.6725   -1.2141   -3.5224 C   0  0  0  0  0  0  0  0  0  0  0  0
   -4.9546   -0.3121    0.6677 C   0  0  0  0  0  0  0  0  0  0  0  0
   -2.1016   -0.4542   -5.2309 C   0  0  0  0  0  0  0  0  0  0  0  0
   -4.7774   -1.9490   -3.2179 O   0  0  0  0  0  0  0  0  0  0  0  0
   -3.2759   -1.1389   -4.8754 C   0  0  0  0  0  0  0  0  0  0  0  0
   -4.0169   -1.7360   -5.8422 O   0  0  0  0  0  0  0  0  0  0  0  0
   -0.6646   -1.4880   -0.9261 H   0  0  0  0  0  0  0  0  0  0  0  0
    2.2486   -0.4146    1.0107 H   0  0  0  0  0  0  0  0  0  0  0  0
    1.8400   -1.0531   -0.5780 H   0  0  0  0  0  0  0  0  0  0  0  0
    1.8707    0.7050   -0.3105 H   0  0  0  0  0  0  0  0  0  0  0  0
    0.5517    0.6316    2.4096 H   0  0  0  0  0  0  0  0  0  0  0  0
   -0.3172    1.6430    1.2387 H   0  0  0  0  0  0  0  0  0  0  0  0
   -0.9627    1.5146   -1.5340 H   0  0  0  0  0  0  0  0  0  0  0  0
    0.3161    0.4745   -2.1803 H   0  0  0  0  0  0  0  0  0  0  0  0
   -1.3519   -0.7883    2.8080 H   0  0  0  0  0  0  0  0  0  0  0  0
   -1.8752    0.8954    2.9538 H   0  0  0  0  0  0  0  0  0  0  0  0
   -5.3986   -0.4911   -1.3578 H   0  0  0  0  0  0  0  0  0  0  0  0
   -4.1973   -0.0184    2.6042 H   0  0  0  0  0  0  0  0  0  0  0  0
   -0.4104    0.5595   -4.5159 H   0  0  0  0  0  0  0  0  0  0  0  0
   -5.9338   -0.3012    0.9613 H   0  0  0  0  0  0  0  0  0  0  0  0
   -1.8305   -0.3771   -6.2146 H   0  0  0  0  0  0  0  0  0  0  0  0
   -5.3213   -1.9860   -4.0302 H   0  0  0  0  0  0  0  0  0  0  0  0
   -3.4771   -1.6834   -6.6585 H   0  0  0  0  0  0  0  0  0  0  0  0
  1  2  1  0  0  0  0 
  3  2  1  0  0  0  0 
  2  4  1  0  0  0  0 
  3  5  1  0  0  0  0 
  3  6  1  0  0  0  0 
  3 21  1  0  0  0  0 
  4  7  1  0  0  0  0 
  5  8  2  0  0  0  0 
  5  9  1  0  0  0  0 
  6 10  1  0  0  0  0 
  7  9  1  0  0  0  0 
  8 11  1  0  0  0  0 
  8 12  1  0  0  0  0 
  9 13  2  0  0  0  0 
 10 11  2  0  0  0  0 
 10 14  1  0  0  0  0 
 11 15  1  0  0  0  0 
 12 16  2  0  0  0  0 
 13 16  1  0  0  0  0 
 14 17  2  0  0  0  0 
 15 18  1  0  0  0  0 
 15 19  2  0  0  0  0 
 17 19  1  0  0  0  0 
 19 20  1  0  0  0  0 
  1 22  1  0  0  0  0 
  1 23  1  0  0  0  0 
  1 24  1  0  0  0  0 
  4 25  1  0  0  0  0 
  4 26  1  0  0  0  0 
  6 27  1  0  0  0  0 
  6 28  1  0  0  0  0 
  7 29  1  0  0  0  0 
  7 30  1  0  0  0  0 
 12 31  1  0  0  0  0 
 13 32  1  0  0  0  0 
 14 33  1  0  0  0  0 
 16 34  1  0  0  0  0 
 17 35  1  0  0  0  0 
 18 36  1  0  0  0  0 
 20 37  1  0  0  0  0 
M  END
> <cdk:Title>
apomorphine

> <Conformer>
1

> <SuperDrugID>
SD000190

$$$$
