(2-benzhydryloxyethyl)diethyl-methylammonium iodide
  CDK     0628171801

 50 51  0  0  0  0  0  0  0  0999 V2000
   -0.6625   -2.3849   -0.0423 C   0  0  2  0  0  0  0  0  0  0  0  0
   -1.0499   -1.8638   -1.3401 O   0  0  0  0  0  0  0  0  0  0  0  0
   -0.6129   -3.8792   -0.0255 C   0  0  0  0  0  0  0  0  0  0  0  0
   -1.5828   -1.9042    1.0369 C   0  0  0  0  0  0  0  0  0  0  0  0
   -0.1617   -2.1350   -2.4473 C   0  0  2  0  0  0  0  0  0  0  0  0
   -1.7070   -4.6445   -0.4976 C   0  0  0  0  0  0  0  0  0  0  0  0
    0.5388   -4.5623    0.4329 C   0  0  0  0  0  0  0  0  0  0  0  0
   -2.9667   -1.7022    0.8062 C   0  0  0  0  0  0  0  0  0  0  0  0
   -1.0877   -1.6572    2.3424 C   0  0  0  0  0  0  0  0  0  0  0  0
   -0.6870   -1.5835   -3.8073 C   0  0  1  0  0  0  0  0  0  0  0  0
   -1.6544   -6.0491   -0.5104 C   0  0  0  0  0  0  0  0  0  0  0  0
    0.5849   -5.9679    0.4413 C   0  0  0  0  0  0  0  0  0  0  0  0
   -3.8169   -1.2408    1.8284 C   0  0  0  0  0  0  0  0  0  0  0  0
   -1.9356   -1.1956    3.3674 C   0  0  0  0  0  0  0  0  0  0  0  0
   -2.0319   -2.0475   -4.3660 N   0  0  2  0  0  0  0  0  0  0  0  0
   -0.5115   -6.7108   -0.0315 C   0  0  0  0  0  0  0  0  0  0  0  0
   -3.2991   -0.9784    3.1070 C   0  0  0  0  0  0  0  0  0  0  0  0
   -2.2734   -1.4058   -5.7368 C   0  0  2  0  0  0  0  0  0  0  0  0
   -3.2047   -1.6791   -3.4534 C   0  0  1  0  0  0  0  0  0  0  0  0
   -2.0251   -3.5560   -4.5214 C   0  0  0  0  0  0  0  0  0  0  0  0
   -1.3759   -1.8066   -6.9427 C   0  0  0  0  0  0  0  0  0  0  0  0
   -3.3816   -0.1973   -3.0158 C   0  0  0  0  0  0  0  0  0  0  0  0
    0.3297   -1.9702    0.1703 H   0  0  0  0  0  0  0  0  0  0  0  0
    0.0210   -3.2063   -2.5500 H   0  0  0  0  0  0  0  0  0  0  0  0
    0.8024   -1.6605   -2.2407 H   0  0  0  0  0  0  0  0  0  0  0  0
   -2.5475   -4.1836   -0.8487 H   0  0  0  0  0  0  0  0  0  0  0  0
    1.3535   -4.0415    0.7663 H   0  0  0  0  0  0  0  0  0  0  0  0
   -3.3716   -1.8901   -0.1102 H   0  0  0  0  0  0  0  0  0  0  0  0
   -0.0999   -1.8119    2.5585 H   0  0  0  0  0  0  0  0  0  0  0  0
   -0.6702   -0.4929   -3.7389 H   0  0  0  0  0  0  0  0  0  0  0  0
    0.0991   -1.8371   -4.5228 H   0  0  0  0  0  0  0  0  0  0  0  0
   -2.4468   -6.5871   -0.8692 H   0  0  0  0  0  0  0  0  0  0  0  0
    1.4155   -6.4497    0.7914 H   0  0  0  0  0  0  0  0  0  0  0  0
   -4.8122   -1.0967    1.6398 H   0  0  0  0  0  0  0  0  0  0  0  0
   -1.5622   -1.0171    4.3025 H   0  0  0  0  0  0  0  0  0  0  0  0
   -0.4774   -7.7315   -0.0294 H   0  0  0  0  0  0  0  0  0  0  0  0
   -3.9127   -0.6309    3.8473 H   0  0  0  0  0  0  0  0  0  0  0  0
   -2.1847   -0.3194   -5.6518 H   0  0  0  0  0  0  0  0  0  0  0  0
   -3.2994   -1.6068   -6.0676 H   0  0  0  0  0  0  0  0  0  0  0  0
   -4.1476   -1.9656   -3.9321 H   0  0  0  0  0  0  0  0  0  0  0  0
   -3.1703   -2.2674   -2.5354 H   0  0  0  0  0  0  0  0  0  0  0  0
   -2.8946   -3.9060   -5.0837 H   0  0  0  0  0  0  0  0  0  0  0  0
   -2.0397   -4.0690   -3.5569 H   0  0  0  0  0  0  0  0  0  0  0  0
   -1.1364   -3.9066   -5.0518 H   0  0  0  0  0  0  0  0  0  0  0  0
   -1.6871   -1.2540   -7.8329 H   0  0  0  0  0  0  0  0  0  0  0  0
   -0.3279   -1.5737   -6.7592 H   0  0  0  0  0  0  0  0  0  0  0  0
   -1.4706   -2.8697   -7.1646 H   0  0  0  0  0  0  0  0  0  0  0  0
   -4.2843   -0.0990   -2.4094 H   0  0  0  0  0  0  0  0  0  0  0  0
   -3.4849    0.4594   -3.8779 H   0  0  0  0  0  0  0  0  0  0  0  0
   -2.5437    0.1451   -2.4098 H   0  0  0  0  0  0  0  0  0  0  0  0
  1  2  1  0  0  0  0 
  1  3  1  0  0  0  0 
  1  4  1  0  0  0  0 
  2  5  1  0  0  0  0 
  3  6  2  0  0  0  0 
  3  7  1  0  0  0  0 
  4  8  2  0  0  0  0 
  4  9  1  0  0  0  0 
  5 10  1  0  0  0  0 
  6 11  1  0  0  0  0 
  7 12  2  0  0  0  0 
  8 13  1  0  0  0  0 
  9 14  2  0  0  0  0 
 10 15  1  0  0  0  0 
 11 16  2  0  0  0  0 
 12 16  1  0  0  0  0 
 13 17  2  0  0  0  0 
 14 17  1  0  0  0  0 
 15 18  1  0  0  0  0 
 15 19  1  0  0  0  0 
 15 20  1  0  0  0  0 
 18 21  1  0  0  0  0 
 19 22  1  0  0  0  0 
  1 23  1  0  0  0  0 
  5 24  1  0  0  0  0 
  5 25  1  0  0  0  0 
  6 26  1  0  0  0  0 
  7 27  1  0  0  0  0 
  8 28  1  0  0  0  0 
  9 29  1  0  0  0  0 
 10 30  1  0  0  0  0 
 10 31  1  0  0  0  0 
 11 32  1  0  0  0  0 
 12 33  1  0  0  0  0 
 13 34  1  0  0  0  0 
 14 35  1  0  0  0  0 
 16 36  1  0  0  0  0 
 17 37  1  0  0  0  0 
 18 38  1  0  0  0  0 
 18 39  1  0  0  0  0 
 19 40  1  0  0  0  0 
 19 41  1  0  0  0  0 
 20 42  1  0  0  0  0 
 20 43  1  0  0  0  0 
 20 44  1  0  0  0  0 
 21 45  1  0  0  0  0 
 21 46  1  0  0  0  0 
 21 47  1  0  0  0  0 
 22 48  1  0  0  0  0 
 22 49  1  0  0  0  0 
 22 50  1  0  0  0  0 
M  CHG  1  15   1
M  END
> <cdk:Title>
(2-benzhydryloxyethyl)diethyl-methylammonium iodide

> <Conformer>
1

> <SuperDrugID>
SD003500

$$$$
