alprostadil
  CDK     0628171801

 59 59  0  0  0  0  0  0  0  0999 V2000
    0.8316    1.0722   -7.9974 C   0  0  2  0  0  0  0  0  0  0  0  0
    2.3763    1.2441   -8.1059 C   0  0  1  0  0  0  0  0  0  0  0  0
    0.0588    2.3803   -7.6236 C   0  0  2  0  0  0  0  0  0  0  0  0
    3.1629   -0.0847   -8.3040 C   0  0  1  0  0  0  0  0  0  0  0  0
   -1.4210    2.1295   -7.1610 C   0  0  1  0  0  0  0  0  0  0  0  0
   -0.0986    3.3768   -8.6992 C   0  0  0  0  0  0  0  0  0  0  0  0
    3.2110   -1.0029   -7.0508 C   0  0  2  0  0  0  0  0  0  0  0  0
   -1.5824    2.3065   -5.7158 C   0  0  0  0  0  0  0  0  0  0  0  0
   -2.3069    3.0870   -8.0215 C   0  0  1  0  0  0  0  0  0  0  0  0
    0.7237    3.5741   -9.6250 O   0  0  0  0  0  0  0  0  0  0  0  0
   -1.3395    4.1403   -8.5884 C   0  0  1  0  0  0  0  0  0  0  0  0
    4.0269   -2.3049   -7.2850 C   0  0  2  0  0  0  0  0  0  0  0  0
   -1.1239    1.4095   -4.8244 C   0  0  0  0  0  0  0  0  0  0  0  0
   -2.9231    2.3768   -9.1005 O   0  0  0  0  0  0  0  0  0  0  0  0
    4.0041   -3.2322   -6.0398 C   0  0  2  0  0  0  0  0  0  0  0  0
   -1.2535    1.5793   -3.3850 C   0  0  2  0  0  0  0  0  0  0  0  0
    4.7017   -4.5153   -6.2463 C   0  0  0  0  0  0  0  0  0  0  0  0
   -0.2121    2.5944   -2.8311 C   0  0  1  0  0  0  0  0  0  0  0  0
   -1.0964    0.3002   -2.7639 O   0  0  0  0  0  0  0  0  0  0  0  0
    4.0186   -5.6830   -6.1937 O   0  0  0  0  0  0  0  0  0  0  0  0
    5.9343   -4.5499   -6.4552 O   0  0  0  0  0  0  0  0  0  0  0  0
   -0.3861    2.8965   -1.3166 C   0  0  2  0  0  0  0  0  0  0  0  0
    0.6340    3.9475   -0.7989 C   0  0  1  0  0  0  0  0  0  0  0  0
    0.4776    4.2503    0.7157 C   0  0  1  0  0  0  0  0  0  0  0  0
    1.5097    5.2818    1.2293 C   0  0  0  0  0  0  0  0  0  0  0  0
    0.6334    0.3417   -7.2111 H   0  0  0  0  0  0  0  0  0  0  0  0
    0.4412    0.6584   -8.9321 H   0  0  0  0  0  0  0  0  0  0  0  0
    2.6029    1.8871   -8.9585 H   0  0  0  0  0  0  0  0  0  0  0  0
    2.7511    1.7460   -7.2095 H   0  0  0  0  0  0  0  0  0  0  0  0
    0.6213    2.8819   -6.8264 H   0  0  0  0  0  0  0  0  0  0  0  0
    2.7244   -0.6325   -9.1427 H   0  0  0  0  0  0  0  0  0  0  0  0
    4.1913    0.1741   -8.5791 H   0  0  0  0  0  0  0  0  0  0  0  0
   -1.7339    1.1034   -7.3954 H   0  0  0  0  0  0  0  0  0  0  0  0
    2.1952   -1.2838   -6.7722 H   0  0  0  0  0  0  0  0  0  0  0  0
    3.6512   -0.4446   -6.2195 H   0  0  0  0  0  0  0  0  0  0  0  0
   -2.0242    3.1316   -5.3776 H   0  0  0  0  0  0  0  0  0  0  0  0
   -3.1070    3.5685   -7.4482 H   0  0  0  0  0  0  0  0  0  0  0  0
   -1.2044    4.9627   -7.8804 H   0  0  0  0  0  0  0  0  0  0  0  0
   -1.6738    4.5331   -9.5514 H   0  0  0  0  0  0  0  0  0  0  0  0
    5.0631   -2.0424   -7.5263 H   0  0  0  0  0  0  0  0  0  0  0  0
    3.6008   -2.8408   -8.1393 H   0  0  0  0  0  0  0  0  0  0  0  0
   -0.6588    0.5958   -5.1567 H   0  0  0  0  0  0  0  0  0  0  0  0
   -3.4090    3.0635   -9.6051 H   0  0  0  0  0  0  0  0  0  0  0  0
    2.9659   -3.4422   -5.7737 H   0  0  0  0  0  0  0  0  0  0  0  0
    4.4704   -2.7210   -5.1942 H   0  0  0  0  0  0  0  0  0  0  0  0
   -2.2632    1.9305   -3.1536 H   0  0  0  0  0  0  0  0  0  0  0  0
    0.7971    2.2093   -3.0064 H   0  0  0  0  0  0  0  0  0  0  0  0
   -0.3076    3.5366   -3.3783 H   0  0  0  0  0  0  0  0  0  0  0  0
   -1.2667    0.4392   -1.8089 H   0  0  0  0  0  0  0  0  0  0  0  0
    4.4825   -6.5395   -6.3053 H   0  0  0  0  0  0  0  0  0  0  0  0
   -0.2587    1.9712   -0.7500 H   0  0  0  0  0  0  0  0  0  0  0  0
   -1.3996    3.2665   -1.1413 H   0  0  0  0  0  0  0  0  0  0  0  0
    1.6462    3.5762   -0.9812 H   0  0  0  0  0  0  0  0  0  0  0  0
    0.5051    4.8777   -1.3597 H   0  0  0  0  0  0  0  0  0  0  0  0
   -0.5269    4.6383    0.9083 H   0  0  0  0  0  0  0  0  0  0  0  0
    0.6002    3.3254    1.2865 H   0  0  0  0  0  0  0  0  0  0  0  0
    1.3577    5.4562    2.2972 H   0  0  0  0  0  0  0  0  0  0  0  0
    2.5269    4.9113    1.0790 H   0  0  0  0  0  0  0  0  0  0  0  0
    1.3968    6.2325    0.7022 H   0  0  0  0  0  0  0  0  0  0  0  0
  1  2  1  0  0  0  0 
  2  4  1  0  0  0  0 
  3  1  1  0  0  0  0 
  5  3  1  0  0  0  0 
  3  6  1  0  0  0  0 
  4  7  1  0  0  0  0 
  5  8  1  0  0  0  0 
  9  5  1  0  0  0  0 
  6 10  2  0  0  0  0 
  6 11  1  0  0  0  0 
  7 12  1  0  0  0  0 
  8 13  2  0  0  0  0 
  9 11  1  0  0  0  0 
  9 14  1  0  0  0  0 
 12 15  1  0  0  0  0 
 16 13  1  0  0  0  0 
 15 17  1  0  0  0  0 
 16 18  1  0  0  0  0 
 16 19  1  0  0  0  0 
 17 20  1  0  0  0  0 
 17 21  2  0  0  0  0 
 18 22  1  0  0  0  0 
 22 23  1  0  0  0  0 
 23 24  1  0  0  0  0 
 24 25  1  0  0  0  0 
  1 26  1  0  0  0  0 
  1 27  1  0  0  0  0 
  2 28  1  0  0  0  0 
  2 29  1  0  0  0  0 
  3 30  1  0  0  0  0 
  4 31  1  0  0  0  0 
  4 32  1  0  0  0  0 
  5 33  1  0  0  0  0 
  7 34  1  0  0  0  0 
  7 35  1  0  0  0  0 
  8 36  1  0  0  0  0 
  9 37  1  0  0  0  0 
 11 38  1  0  0  0  0 
 11 39  1  0  0  0  0 
 12 40  1  0  0  0  0 
 12 41  1  0  0  0  0 
 13 42  1  0  0  0  0 
 14 43  1  0  0  0  0 
 15 44  1  0  0  0  0 
 15 45  1  0  0  0  0 
 16 46  1  0  0  0  0 
 18 47  1  0  0  0  0 
 18 48  1  0  0  0  0 
 19 49  1  0  0  0  0 
 20 50  1  0  0  0  0 
 22 51  1  0  0  0  0 
 22 52  1  0  0  0  0 
 23 53  1  0  0  0  0 
 23 54  1  0  0  0  0 
 24 55  1  0  0  0  0 
 24 56  1  0  0  0  0 
 25 57  1  0  0  0  0 
 25 58  1  0  0  0  0 
 25 59  1  0  0  0  0 
M  END
> <cdk:Title>
alprostadil

> <Conformer>
1

> <SuperDrugID>
SD000107

$$$$
