dienogest
  CDK     0628171802

 48 51  0  0  0  0  0  0  0  0999 V2000
   -3.5636    1.5638   -2.8124 C   0  0  0  0  0  0  0  0  0  0  0  0
   -3.3991    1.0156   -1.3340 C   0  0  2  0  0  0  0  0  0  0  0  0
   -4.0888    1.8879   -0.2275 C   0  0  2  0  0  0  0  0  0  0  0  0
   -1.8688    1.1213   -0.9187 C   0  0  1  0  0  0  0  0  0  0  0  0
   -4.1012   -0.3890   -1.2586 C   0  0  2  0  0  0  0  0  0  0  0  0
   -5.6368    2.0388   -0.4518 C   0  0  1  0  0  0  0  0  0  0  0  0
   -3.1891    3.1328   -0.1369 C   0  0  1  0  0  0  0  0  0  0  0  0
   -1.3501   -0.0008    0.0517 C   0  0  1  0  0  0  0  0  0  0  0  0
   -0.9971    1.0545   -2.0613 O   0  0  0  0  0  0  0  0  0  0  0  0
   -1.7608    2.5576   -0.2885 C   0  0  1  0  0  0  0  0  0  0  0  0
   -5.6598   -0.2982   -1.3478 C   0  0  2  0  0  0  0  0  0  0  0  0
   -6.2361    0.6715   -0.3796 C   0  0  0  0  0  0  0  0  0  0  0  0
   -6.3281    3.0907    0.4737 C   0  0  1  0  0  0  0  0  0  0  0  0
   -0.0213    0.1001    0.3815 C   0  0  0  0  0  0  0  0  0  0  0  0
   -7.2152    0.3596    0.5270 C   0  0  0  0  0  0  0  0  0  0  0  0
   -6.7868    2.4391    1.7896 C   0  0  1  0  0  0  0  0  0  0  0  0
    1.0922    0.1882    0.6474 N   0  0  0  0  0  0  0  0  0  0  0  0
   -7.6589    1.3091    1.4543 C   0  0  0  0  0  0  0  0  0  0  0  0
   -7.8850   -0.9629    0.5096 C   0  0  2  0  0  0  0  0  0  0  0  0
   -8.8841    1.2267    2.0229 C   0  0  0  0  0  0  0  0  0  0  0  0
   -9.0746   -1.1606    1.4942 C   0  0  1  0  0  0  0  0  0  0  0  0
   -9.6986    0.1275    1.8492 C   0  0  0  0  0  0  0  0  0  0  0  0
  -10.9304    0.1982    2.0665 O   0  0  0  0  0  0  0  0  0  0  0  0
   -4.5985    1.6595   -3.1302 H   0  0  0  0  0  0  0  0  0  0  0  0
   -3.0879    0.8799   -3.5211 H   0  0  0  0  0  0  0  0  0  0  0  0
   -3.0976    2.5436   -2.9365 H   0  0  0  0  0  0  0  0  0  0  0  0
   -3.9813    1.3868    0.7471 H   0  0  0  0  0  0  0  0  0  0  0  0
   -3.8707   -0.8778   -0.3082 H   0  0  0  0  0  0  0  0  0  0  0  0
   -3.7234   -1.0395   -2.0527 H   0  0  0  0  0  0  0  0  0  0  0  0
   -5.8115    2.4329   -1.4545 H   0  0  0  0  0  0  0  0  0  0  0  0
   -3.4187    3.8392   -0.9387 H   0  0  0  0  0  0  0  0  0  0  0  0
   -3.3064    3.6419    0.8230 H   0  0  0  0  0  0  0  0  0  0  0  0
   -1.9189    0.0002    0.9824 H   0  0  0  0  0  0  0  0  0  0  0  0
   -1.4681   -0.9770   -0.4220 H   0  0  0  0  0  0  0  0  0  0  0  0
   -1.1146    0.1505   -2.4232 H   0  0  0  0  0  0  0  0  0  0  0  0
   -1.2848    2.5333    0.6971 H   0  0  0  0  0  0  0  0  0  0  0  0
   -1.1682    3.2271   -0.9170 H   0  0  0  0  0  0  0  0  0  0  0  0
   -6.0225   -1.3174   -1.2232 H   0  0  0  0  0  0  0  0  0  0  0  0
   -5.9638   -0.0048   -2.3542 H   0  0  0  0  0  0  0  0  0  0  0  0
   -5.6798    3.9440    0.6798 H   0  0  0  0  0  0  0  0  0  0  0  0
   -7.2175    3.4881   -0.0307 H   0  0  0  0  0  0  0  0  0  0  0  0
   -5.9183    2.0797    2.3511 H   0  0  0  0  0  0  0  0  0  0  0  0
   -7.2799    3.2014    2.4024 H   0  0  0  0  0  0  0  0  0  0  0  0
   -7.1501   -1.7460    0.7222 H   0  0  0  0  0  0  0  0  0  0  0  0
   -8.2842   -1.1251   -0.4971 H   0  0  0  0  0  0  0  0  0  0  0  0
   -9.2236    1.9600    2.6014 H   0  0  0  0  0  0  0  0  0  0  0  0
   -9.8142   -1.8420    1.0599 H   0  0  0  0  0  0  0  0  0  0  0  0
   -8.7066   -1.6164    2.4184 H   0  0  0  0  0  0  0  0  0  0  0  0
  2  1  1  0  0  0  0 
  2  3  1  0  0  0  0 
  2  4  1  0  0  0  0 
  2  5  1  0  0  0  0 
  3  6  1  0  0  0  0 
  3  7  1  0  0  0  0 
  4  8  1  0  0  0  0 
  4  9  1  0  0  0  0 
  4 10  1  0  0  0  0 
  5 11  1  0  0  0  0 
  6 12  1  0  0  0  0 
  6 13  1  0  0  0  0 
  7 10  1  0  0  0  0 
  8 14  1  0  0  0  0 
 11 12  1  0  0  0  0 
 12 15  2  0  0  0  0 
 13 16  1  0  0  0  0 
 14 17  3  0  0  0  0 
 15 18  1  0  0  0  0 
 15 19  1  0  0  0  0 
 16 18  1  0  0  0  0 
 18 20  2  0  0  0  0 
 19 21  1  0  0  0  0 
 20 22  1  0  0  0  0 
 21 22  1  0  0  0  0 
 22 23  2  0  0  0  0 
 24  1  1  0  0  0  0 
 25  1  1  0  0  0  0 
 26  1  1  0  0  0  0 
  3 27  1  0  0  0  0 
 28  5  1  0  0  0  0 
 29  5  1  0  0  0  0 
  6 30  1  0  0  0  0 
 31  7  1  0  0  0  0 
 32  7  1  0  0  0  0 
 33  8  1  0  0  0  0 
 34  8  1  0  0  0  0 
 35  9  1  0  0  0  0 
 36 10  1  0  0  0  0 
 37 10  1  0  0  0  0 
 38 11  1  0  0  0  0 
 39 11  1  0  0  0  0 
 40 13  1  0  0  0  0 
 41 13  1  0  0  0  0 
 42 16  1  0  0  0  0 
 43 16  1  0  0  0  0 
 44 19  1  0  0  0  0 
 45 19  1  0  0  0  0 
 46 20  1  0  0  0  0 
 47 21  1  0  0  0  0 
 48 21  1  0  0  0  0 
M  END
> <cdk:Title>
dienogest

> <Conformer>
1

> <SuperDrugID>
SD000774

$$$$
