tiludronic acid
  CDK     0628171801

 26 26  0  0  0  0  0  0  0  0999 V2000
    2.1933   -1.5437   -0.4268 C   0  0  2  0  0  0  0  0  0  0  0  0
    1.1325   -0.6405    0.7556 S   0  0  0  0  0  0  0  0  0  0  0  0
    1.3284   -2.8162   -1.1924 P   0  0  1  0  0  0  0  0  0  0  0  0
    3.5918   -2.0833    0.4088 P   0  0  1  0  0  0  0  0  0  0  0  0
    0.1124    0.3816   -0.2399 C   0  0  0  0  0  0  0  0  0  0  0  0
    2.1951   -3.6323   -2.0547 O   0  0  0  0  0  0  0  0  0  0  0  0
    0.6370   -3.7477   -0.1059 O   0  0  0  0  0  0  0  0  0  0  0  0
    0.1573   -2.2154   -2.0831 O   0  0  0  0  0  0  0  0  0  0  0  0
    3.2749   -3.0406    1.4773 O   0  0  0  0  0  0  0  0  0  0  0  0
    4.6069   -2.7547   -0.6130 O   0  0  0  0  0  0  0  0  0  0  0  0
    4.3425   -0.8299    1.0380 O   0  0  0  0  0  0  0  0  0  0  0  0
   -1.2665    0.1086   -0.3387 C   0  0  0  0  0  0  0  0  0  0  0  0
    0.6616    1.4796   -0.9344 C   0  0  0  0  0  0  0  0  0  0  0  0
   -2.0913    0.9253   -1.1341 C   0  0  0  0  0  0  0  0  0  0  0  0
   -0.1654    2.2976   -1.7260 C   0  0  0  0  0  0  0  0  0  0  0  0
   -1.5431    2.0222   -1.8282 C   0  0  0  0  0  0  0  0  0  0  0  0
   -2.5377    3.0113   -2.7748 Cl  0  0  0  0  0  0  0  0  0  0  0  0
    2.5233   -0.8457   -1.1977 H   0  0  0  0  0  0  0  0  0  0  0  0
   -0.0142   -3.1699    0.3442 H   0  0  0  0  0  0  0  0  0  0  0  0
    0.6126   -1.7261   -2.7978 H   0  0  0  0  0  0  0  0  0  0  0  0
    4.7929   -2.0546   -1.2728 H   0  0  0  0  0  0  0  0  0  0  0  0
    4.4981   -0.2269    0.2813 H   0  0  0  0  0  0  0  0  0  0  0  0
   -1.6736   -0.6839    0.1623 H   0  0  0  0  0  0  0  0  0  0  0  0
    1.6609    1.6894   -0.8687 H   0  0  0  0  0  0  0  0  0  0  0  0
   -3.0888    0.7139   -1.2040 H   0  0  0  0  0  0  0  0  0  0  0  0
    0.2422    3.0913   -2.2248 H   0  0  0  0  0  0  0  0  0  0  0  0
  1  2  1  0  0  0  0 
  1  3  1  0  0  0  0 
  1  4  1  0  0  0  0 
  2  5  1  0  0  0  0 
  3  6  2  0  0  0  0 
  3  7  1  0  0  0  0 
  3  8  1  0  0  0  0 
  4  9  2  0  0  0  0 
  4 10  1  0  0  0  0 
  4 11  1  0  0  0  0 
  5 12  2  0  0  0  0 
  5 13  1  0  0  0  0 
 12 14  1  0  0  0  0 
 13 15  2  0  0  0  0 
 14 16  2  0  0  0  0 
 15 16  1  0  0  0  0 
 16 17  1  0  0  0  0 
 18  1  1  0  0  0  0 
 19  7  1  0  0  0  0 
 20  8  1  0  0  0  0 
 21 10  1  0  0  0  0 
 22 11  1  0  0  0  0 
 23 12  1  0  0  0  0 
 24 13  1  0  0  0  0 
 25 14  1  0  0  0  0 
 26 15  1  0  0  0  0 
M  END
> <cdk:Title>
tiludronic acid

> <Conformer>
1

> <SuperDrugID>
SD002399

$$$$
