cineole
  CDK     0628171801

 29 30  0  0  0  0  0  0  0  0999 V2000
    2.8916   -2.4608    2.5291 C   0  0  0  0  0  0  0  0  0  0  0  0
    2.4967   -1.9631    1.1131 C   0  0  1  0  0  0  0  0  0  0  0  0
    1.3534   -1.0625    1.2361 O   0  0  0  0  0  0  0  0  0  0  0  0
    3.6564   -1.1577    0.4284 C   0  0  2  0  0  0  0  0  0  0  0  0
    2.0734   -3.1410    0.1630 C   0  0  2  0  0  0  0  0  0  0  0  0
    0.8373   -0.4925   -0.0097 C   0  0  1  0  0  0  0  0  0  0  0  0
    3.2080   -0.6494   -0.9837 C   0  0  1  0  0  0  0  0  0  0  0  0
    1.6642   -2.5866   -1.2450 C   0  0  2  0  0  0  0  0  0  0  0  0
    1.7044   -1.0182   -1.2317 C   0  0  1  0  0  0  0  0  0  0  0  0
   -0.6663   -0.9048   -0.1182 C   0  0  0  0  0  0  0  0  0  0  0  0
    0.8845    1.0639    0.1377 C   0  0  0  0  0  0  0  0  0  0  0  0
    3.7657   -3.1130    2.4791 H   0  0  0  0  0  0  0  0  0  0  0  0
    2.0665   -3.0163    2.9788 H   0  0  0  0  0  0  0  0  0  0  0  0
    3.1262   -1.6124    3.1759 H   0  0  0  0  0  0  0  0  0  0  0  0
    4.5445   -1.7889    0.3320 H   0  0  0  0  0  0  0  0  0  0  0  0
    3.9260   -0.3038    1.0548 H   0  0  0  0  0  0  0  0  0  0  0  0
    1.2265   -3.6757    0.6024 H   0  0  0  0  0  0  0  0  0  0  0  0
    2.8972   -3.8524    0.0569 H   0  0  0  0  0  0  0  0  0  0  0  0
    3.3559    0.4278   -1.0694 H   0  0  0  0  0  0  0  0  0  0  0  0
    3.8383   -1.1002   -1.7552 H   0  0  0  0  0  0  0  0  0  0  0  0
    0.6714   -2.9458   -1.5256 H   0  0  0  0  0  0  0  0  0  0  0  0
    2.3467   -2.9735   -2.0090 H   0  0  0  0  0  0  0  0  0  0  0  0
    1.3548   -0.6126   -2.1862 H   0  0  0  0  0  0  0  0  0  0  0  0
   -0.7903   -1.9837   -0.0272 H   0  0  0  0  0  0  0  0  0  0  0  0
   -1.0869   -0.5851   -1.0742 H   0  0  0  0  0  0  0  0  0  0  0  0
   -1.2561   -0.4565    0.6845 H   0  0  0  0  0  0  0  0  0  0  0  0
    0.2111    1.4039    0.9275 H   0  0  0  0  0  0  0  0  0  0  0  0
    1.8811    1.4092    0.4111 H   0  0  0  0  0  0  0  0  0  0  0  0
    0.5917    1.5487   -0.7960 H   0  0  0  0  0  0  0  0  0  0  0  0
  1  2  1  0  0  0  0 
  2  3  1  0  0  0  0 
  2  4  1  0  0  0  0 
  2  5  1  0  0  0  0 
  3  6  1  0  0  0  0 
  4  7  1  0  0  0  0 
  5  8  1  0  0  0  0 
  6  9  1  0  0  0  0 
  7  9  1  0  0  0  0 
  8  9  1  0  0  0  0 
  6 10  1  0  0  0  0 
  6 11  1  0  0  0  0 
  1 12  1  0  0  0  0 
  1 13  1  0  0  0  0 
  1 14  1  0  0  0  0 
  4 15  1  0  0  0  0 
  4 16  1  0  0  0  0 
  5 17  1  0  0  0  0 
  5 18  1  0  0  0  0 
  7 19  1  0  0  0  0 
  7 20  1  0  0  0  0 
  8 21  1  0  0  0  0 
  8 22  1  0  0  0  0 
  9 23  1  0  0  0  0 
 10 24  1  0  0  0  0 
 10 25  1  0  0  0  0 
 10 26  1  0  0  0  0 
 11 27  1  0  0  0  0 
 11 28  1  0  0  0  0 
 11 29  1  0  0  0  0 
M  END
> <cdk:Title>
cineole

> <Conformer>
1

> <SuperDrugID>
SD003459

$$$$
