folic acid
  CDK     0628171801

 51 53  0  0  0  0  0  0  0  0999 V2000
   -1.6162   -8.1916    2.1117 N   0  0  0  0  0  0  0  0  0  0  0  0
   -1.5560   -6.8634    1.9366 C   0  0  0  0  0  0  0  0  0  0  0  0
   -2.6656   -6.1018    2.1324 N   0  0  0  0  0  0  0  0  0  0  0  0
   -2.6484   -4.7581    1.9365 C   0  0  0  0  0  0  0  0  0  0  0  0
   -3.6961   -4.0987    2.1213 O   0  0  0  0  0  0  0  0  0  0  0  0
   -1.4558   -4.1364    1.5238 C   0  0  0  0  0  0  0  0  0  0  0  0
   -1.3619   -2.8086    1.2703 N   0  0  0  0  0  0  0  0  0  0  0  0
   -0.2115   -2.2126    0.8589 C   0  0  0  0  0  0  0  0  0  0  0  0
   -0.2370   -0.7782    0.5238 C   0  0  2  0  0  0  0  0  0  0  0  0
    0.5680    0.0127    1.3979 N   0  0  0  0  0  0  0  0  0  0  0  0
    0.5890    1.3817    1.4204 C   0  0  0  0  0  0  0  0  0  0  0  0
    1.5092    2.0178    2.2785 C   0  0  0  0  0  0  0  0  0  0  0  0
    1.5657    3.4219    2.3587 C   0  0  0  0  0  0  0  0  0  0  0  0
    0.7004    4.2401    1.5878 C   0  0  0  0  0  0  0  0  0  0  0  0
   -0.2198    3.5905    0.7294 C   0  0  0  0  0  0  0  0  0  0  0  0
   -0.2650    2.1920    0.6353 C   0  0  0  0  0  0  0  0  0  0  0  0
    0.7646    5.6627    1.6601 C   0  0  0  0  0  0  0  0  0  0  0  0
    1.4876    6.2106    2.5276 O   0  0  0  0  0  0  0  0  0  0  0  0
    0.0720    6.4534    0.7842 N   0  0  0  0  0  0  0  0  0  0  0  0
    0.0976    7.8828    0.7213 C   0  0  1  0  0  0  0  0  0  0  0  0
   -0.5712    8.3610   -0.6060 C   0  0  2  0  0  0  0  0  0  0  0  0
    0.1508    7.8357   -1.8828 C   0  0  1  0  0  0  0  0  0  0  0  0
   -0.5265    8.2199   -3.1346 C   0  0  0  0  0  0  0  0  0  0  0  0
   -1.0734    7.2690   -3.9270 O   0  0  0  0  0  0  0  0  0  0  0  0
   -0.6061    9.4201   -3.4803 O   0  0  0  0  0  0  0  0  0  0  0  0
   -0.5969    8.4338    1.9060 C   0  0  0  0  0  0  0  0  0  0  0  0
   -1.9057    8.1691    2.1204 O   0  0  0  0  0  0  0  0  0  0  0  0
    0.0132    9.1358    2.7434 O   0  0  0  0  0  0  0  0  0  0  0  0
    0.9430   -3.0145    0.7230 C   0  0  0  0  0  0  0  0  0  0  0  0
    0.8551   -4.3496    0.9668 N   0  0  0  0  0  0  0  0  0  0  0  0
   -0.3054   -4.9427    1.3510 C   0  0  0  0  0  0  0  0  0  0  0  0
   -0.3875   -6.2808    1.5589 N   0  0  0  0  0  0  0  0  0  0  0  0
   -2.4495   -8.6083    2.3820 H   0  0  0  0  0  0  0  0  0  0  0  0
   -0.8296   -8.7390    1.9604 H   0  0  0  0  0  0  0  0  0  0  0  0
   -3.4913   -6.5275    2.4108 H   0  0  0  0  0  0  0  0  0  0  0  0
   -1.2742   -0.4317    0.5715 H   0  0  0  0  0  0  0  0  0  0  0  0
    0.1214   -0.6495   -0.5002 H   0  0  0  0  0  0  0  0  0  0  0  0
    1.1586   -0.4582    2.0086 H   0  0  0  0  0  0  0  0  0  0  0  0
    2.1510    1.4596    2.8487 H   0  0  0  0  0  0  0  0  0  0  0  0
    2.2556    3.8360    2.9897 H   0  0  0  0  0  0  0  0  0  0  0  0
   -0.8778    4.1229    0.1568 H   0  0  0  0  0  0  0  0  0  0  0  0
   -0.9352    1.7825   -0.0169 H   0  0  0  0  0  0  0  0  0  0  0  0
   -0.4951    6.0115    0.1355 H   0  0  0  0  0  0  0  0  0  0  0  0
    1.1423    8.2195    0.7175 H   0  0  0  0  0  0  0  0  0  0  0  0
   -0.5695    9.4567   -0.6247 H   0  0  0  0  0  0  0  0  0  0  0  0
   -1.6133    8.0221   -0.6320 H   0  0  0  0  0  0  0  0  0  0  0  0
    1.1732    8.2161   -1.9146 H   0  0  0  0  0  0  0  0  0  0  0  0
    0.1987    6.7441   -1.8494 H   0  0  0  0  0  0  0  0  0  0  0  0
   -1.5439    7.5140   -4.7505 H   0  0  0  0  0  0  0  0  0  0  0  0
   -2.3557    8.5356    2.9099 H   0  0  0  0  0  0  0  0  0  0  0  0
    1.8342   -2.6119    0.4275 H   0  0  0  0  0  0  0  0  0  0  0  0
  1  2  1  0  0  0  0 
  2  3  1  0  0  0  0 
  3  4  1  0  0  0  0 
  4  5  2  0  0  0  0 
  4  6  1  0  0  0  0 
  6  7  2  0  0  0  0 
  7  8  1  0  0  0  0 
  8  9  1  0  0  0  0 
  9 10  1  0  0  0  0 
 10 11  1  0  0  0  0 
 11 12  2  0  0  0  0 
 12 13  1  0  0  0  0 
 13 14  2  0  0  0  0 
 14 15  1  0  0  0  0 
 15 16  2  0  0  0  0 
 11 16  1  0  0  0  0 
 14 17  1  0  0  0  0 
 17 18  2  0  0  0  0 
 17 19  1  0  0  0  0 
 20 19  1  0  0  0  0 
 20 21  1  0  0  0  0 
 21 22  1  0  0  0  0 
 22 23  1  0  0  0  0 
 23 24  1  0  0  0  0 
 23 25  2  0  0  0  0 
 20 26  1  0  0  0  0 
 26 27  1  0  0  0  0 
 26 28  2  0  0  0  0 
  8 29  2  0  0  0  0 
 29 30  1  0  0  0  0 
 30 31  2  0  0  0  0 
  6 31  1  0  0  0  0 
 31 32  1  0  0  0  0 
  2 32  2  0  0  0  0 
 33  1  1  0  0  0  0 
 34  1  1  0  0  0  0 
 35  3  1  0  0  0  0 
 36  9  1  0  0  0  0 
 37  9  1  0  0  0  0 
 38 10  1  0  0  0  0 
 39 12  1  0  0  0  0 
 40 13  1  0  0  0  0 
 41 15  1  0  0  0  0 
 42 16  1  0  0  0  0 
 43 19  1  0  0  0  0 
 20 44  1  0  0  0  0 
 45 21  1  0  0  0  0 
 46 21  1  0  0  0  0 
 47 22  1  0  0  0  0 
 48 22  1  0  0  0  0 
 49 24  1  0  0  0  0 
 50 27  1  0  0  0  0 
 51 29  1  0  0  0  0 
M  END
> <cdk:Title>
folic acid

> <Conformer>
1

> <SuperDrugID>
SD001104

$$$$
