diethyltoluamide
  CDK     0628171801

 31 31  0  0  0  0  0  0  0  0999 V2000
    0.7278    2.5502    1.3796 C   0  0  0  0  0  0  0  0  0  0  0  0
    0.7990    3.4101    0.2827 N   0  0  0  0  0  0  0  0  0  0  0  0
    1.2387    1.4041    1.3271 O   0  0  0  0  0  0  0  0  0  0  0  0
    0.1101    2.8419    2.6237 C   0  0  0  0  0  0  0  0  0  0  0  0
    0.0998    4.6877    0.2532 C   0  0  1  0  0  0  0  0  0  0  0  0
    1.5459    3.0099   -0.9033 C   0  0  1  0  0  0  0  0  0  0  0  0
   -1.0277    2.1187    3.0535 C   0  0  0  0  0  0  0  0  0  0  0  0
    0.6397    3.8379    3.4744 C   0  0  0  0  0  0  0  0  0  0  0  0
    1.0514    5.9021    0.3330 C   0  0  0  0  0  0  0  0  0  0  0  0
    3.0831    3.0565   -0.7238 C   0  0  0  0  0  0  0  0  0  0  0  0
   -1.6459    2.3877    4.2992 C   0  0  0  0  0  0  0  0  0  0  0  0
    0.0330    4.1221    4.7111 C   0  0  0  0  0  0  0  0  0  0  0  0
   -2.8376    1.6089    4.7153 C   0  0  0  0  0  0  0  0  0  0  0  0
   -1.1013    3.3993    5.1222 C   0  0  0  0  0  0  0  0  0  0  0  0
   -0.4870    4.7637   -0.6666 H   0  0  0  0  0  0  0  0  0  0  0  0
   -0.6253    4.7846    1.0632 H   0  0  0  0  0  0  0  0  0  0  0  0
    1.2554    1.9972   -1.1985 H   0  0  0  0  0  0  0  0  0  0  0  0
    1.3079    3.6490   -1.7583 H   0  0  0  0  0  0  0  0  0  0  0  0
   -1.4156    1.3907    2.4500 H   0  0  0  0  0  0  0  0  0  0  0  0
    1.4783    4.3570    3.2040 H   0  0  0  0  0  0  0  0  0  0  0  0
    0.4767    6.8190    0.4791 H   0  0  0  0  0  0  0  0  0  0  0  0
    1.7405    5.7888    1.1700 H   0  0  0  0  0  0  0  0  0  0  0  0
    1.6261    6.0017   -0.5890 H   0  0  0  0  0  0  0  0  0  0  0  0
    3.5691    2.8378   -1.6780 H   0  0  0  0  0  0  0  0  0  0  0  0
    3.3995    4.0468   -0.3901 H   0  0  0  0  0  0  0  0  0  0  0  0
    3.4172    2.3147    0.0039 H   0  0  0  0  0  0  0  0  0  0  0  0
    0.4206    4.8502    5.3176 H   0  0  0  0  0  0  0  0  0  0  0  0
   -2.5615    0.5640    4.8684 H   0  0  0  0  0  0  0  0  0  0  0  0
   -3.6023    1.6621    3.9387 H   0  0  0  0  0  0  0  0  0  0  0  0
   -3.2738    1.9854    5.6433 H   0  0  0  0  0  0  0  0  0  0  0  0
   -1.5240    3.6146    6.0298 H   0  0  0  0  0  0  0  0  0  0  0  0
  1  2  1  0  0  0  0 
  1  3  2  0  0  0  0 
  1  4  1  0  0  0  0 
  2  5  1  0  0  0  0 
  2  6  1  0  0  0  0 
  4  7  2  0  0  0  0 
  4  8  1  0  0  0  0 
  5  9  1  0  0  0  0 
  6 10  1  0  0  0  0 
  7 11  1  0  0  0  0 
  8 12  2  0  0  0  0 
 11 13  1  0  0  0  0 
 11 14  2  0  0  0  0 
 12 14  1  0  0  0  0 
  5 15  1  0  0  0  0 
  5 16  1  0  0  0  0 
  6 17  1  0  0  0  0 
  6 18  1  0  0  0  0 
  7 19  1  0  0  0  0 
  8 20  1  0  0  0  0 
  9 21  1  0  0  0  0 
  9 22  1  0  0  0  0 
  9 23  1  0  0  0  0 
 10 24  1  0  0  0  0 
 10 25  1  0  0  0  0 
 10 26  1  0  0  0  0 
 12 27  1  0  0  0  0 
 13 28  1  0  0  0  0 
 13 29  1  0  0  0  0 
 13 30  1  0  0  0  0 
 14 31  1  0  0  0  0 
M  END
> <cdk:Title>
diethyltoluamide

> <Conformer>
1

> <SuperDrugID>
SD003557

$$$$
