bromindione
  CDK     0628171801

 27 29  0  0  0  0  0  0  0  0999 V2000
   -0.8818   -1.6982   -0.3771 Br  0  0  0  0  0  0  0  0  0  0  0  0
   -0.0179   -0.0711   -0.1072 C   0  0  0  0  0  0  0  0  0  0  0  0
   -0.7601    1.1228   -0.0547 C   0  0  0  0  0  0  0  0  0  0  0  0
   -0.1065    2.3522    0.1492 C   0  0  0  0  0  0  0  0  0  0  0  0
    1.3021    2.4111    0.3046 C   0  0  0  0  0  0  0  0  0  0  0  0
    2.0342    1.2000    0.2492 C   0  0  0  0  0  0  0  0  0  0  0  0
    1.3804   -0.0304    0.0452 C   0  0  0  0  0  0  0  0  0  0  0  0
    2.0062    3.7139    0.5219 C   0  0  1  0  0  0  0  0  0  0  0  0
    1.7518    4.6963   -0.5539 C   0  0  0  0  0  0  0  0  0  0  0  0
    2.0332    4.5133   -1.7599 O   0  0  0  0  0  0  0  0  0  0  0  0
    1.1638    5.8501   -0.0378 C   0  0  0  0  0  0  0  0  0  0  0  0
    0.7377    7.0251   -0.6863 C   0  0  0  0  0  0  0  0  0  0  0  0
    0.1663    8.0554    0.0887 C   0  0  0  0  0  0  0  0  0  0  0  0
    0.0187    7.9023    1.4854 C   0  0  0  0  0  0  0  0  0  0  0  0
    0.4407    6.7173    2.1226 C   0  0  0  0  0  0  0  0  0  0  0  0
    1.0181    5.6990    1.3399 C   0  0  0  0  0  0  0  0  0  0  0  0
    1.5127    4.4485    1.7069 C   0  0  0  0  0  0  0  0  0  0  0  0
    1.5429    4.0049    2.8771 O   0  0  0  0  0  0  0  0  0  0  0  0
   -1.7755    1.0975   -0.1649 H   0  0  0  0  0  0  0  0  0  0  0  0
   -0.6676    3.2072    0.1837 H   0  0  0  0  0  0  0  0  0  0  0  0
    3.0525    1.2033    0.3573 H   0  0  0  0  0  0  0  0  0  0  0  0
    1.9238   -0.8959    0.0077 H   0  0  0  0  0  0  0  0  0  0  0  0
    3.0891    3.5801    0.6217 H   0  0  0  0  0  0  0  0  0  0  0  0
    0.8350    7.1318   -1.6972 H   0  0  0  0  0  0  0  0  0  0  0  0
   -0.1440    8.9194   -0.3625 H   0  0  0  0  0  0  0  0  0  0  0  0
   -0.3977    8.6564    2.0371 H   0  0  0  0  0  0  0  0  0  0  0  0
    0.3246    6.6026    3.1307 H   0  0  0  0  0  0  0  0  0  0  0  0
  1  2  1  0  0  0  0 
  2  3  2  0  0  0  0 
  3  4  1  0  0  0  0 
  4  5  2  0  0  0  0 
  5  6  1  0  0  0  0 
  6  7  2  0  0  0  0 
  2  7  1  0  0  0  0 
  5  8  1  0  0  0  0 
  8  9  1  0  0  0  0 
  9 10  2  0  0  0  0 
  9 11  1  0  0  0  0 
 11 12  2  0  0  0  0 
 12 13  1  0  0  0  0 
 13 14  2  0  0  0  0 
 14 15  1  0  0  0  0 
 15 16  2  0  0  0  0 
 11 16  1  0  0  0  0 
 16 17  1  0  0  0  0 
  8 17  1  0  0  0  0 
 17 18  2  0  0  0  0 
  3 19  1  0  0  0  0 
  4 20  1  0  0  0  0 
  6 21  1  0  0  0  0 
  7 22  1  0  0  0  0 
  8 23  1  0  0  0  0 
 12 24  1  0  0  0  0 
 13 25  1  0  0  0  0 
 14 26  1  0  0  0  0 
 15 27  1  0  0  0  0 
M  END
> <cdk:Title>
bromindione

> <Conformer>
1

> <SuperDrugID>
SD002638

$$$$
