retinol acetate
  CDK     0628171801

 56 56  0  0  0  0  0  0  0  0999 V2000
   -3.2364   -9.2424   -3.0241 C   0  0  0  0  0  0  0  0  0  0  0  0
   -3.8330   -8.5743   -2.0214 C   0  0  0  0  0  0  0  0  0  0  0  0
   -3.5314  -10.5441   -3.3354 C   0  0  0  0  0  0  0  0  0  0  0  0
   -3.6181   -7.2534   -1.7645 C   0  0  0  0  0  0  0  0  0  0  0  0
   -2.7391  -11.6277   -2.6809 C   0  0  1  0  0  0  0  0  0  0  0  0
   -4.5390  -10.8029   -4.2202 C   0  0  0  0  0  0  0  0  0  0  0  0
   -2.4047   -6.8134   -1.3524 C   0  0  0  0  0  0  0  0  0  0  0  0
   -4.7607   -6.3549   -1.9424 C   0  0  0  0  0  0  0  0  0  0  0  0
   -1.2484  -11.2257   -2.3820 C   0  0  0  0  0  0  0  0  0  0  0  0
   -3.4157  -11.9868   -1.3110 C   0  0  0  0  0  0  0  0  0  0  0  0
   -2.6696  -12.8867   -3.6184 C   0  0  1  0  0  0  0  0  0  0  0  0
   -5.3533   -9.7276   -4.8094 C   0  0  0  0  0  0  0  0  0  0  0  0
   -4.8860  -12.1614   -4.6672 C   0  0  1  0  0  0  0  0  0  0  0  0
   -2.1077   -5.5111   -1.0894 C   0  0  0  0  0  0  0  0  0  0  0  0
   -4.0661  -13.3434   -4.0893 C   0  0  1  0  0  0  0  0  0  0  0  0
   -1.3714   -5.1130   -0.0362 C   0  0  0  0  0  0  0  0  0  0  0  0
   -1.1615   -3.7940    0.2566 C   0  0  0  0  0  0  0  0  0  0  0  0
    0.0877   -3.2862    0.1483 C   0  0  0  0  0  0  0  0  0  0  0  0
   -2.3051   -2.9887    0.6927 C   0  0  0  0  0  0  0  0  0  0  0  0
    0.4829   -1.9178    0.4411 C   0  0  1  0  0  0  0  0  0  0  0  0
   -0.1191   -0.9944   -0.4779 O   0  0  0  0  0  0  0  0  0  0  0  0
    0.1073    0.3526   -0.5203 C   0  0  0  0  0  0  0  0  0  0  0  0
   -0.6003    1.1608   -1.5232 C   0  0  0  0  0  0  0  0  0  0  0  0
    0.9070    0.9080    0.2704 O   0  0  0  0  0  0  0  0  0  0  0  0
   -2.5646   -8.7814   -3.5978 H   0  0  0  0  0  0  0  0  0  0  0  0
   -4.5069   -9.0413   -1.4583 H   0  0  0  0  0  0  0  0  0  0  0  0
   -1.6721   -7.4756   -1.2218 H   0  0  0  0  0  0  0  0  0  0  0  0
   -4.9560   -5.8157   -1.0134 H   0  0  0  0  0  0  0  0  0  0  0  0
   -5.6821   -6.8756   -2.2191 H   0  0  0  0  0  0  0  0  0  0  0  0
   -4.5440   -5.6337   -2.7322 H   0  0  0  0  0  0  0  0  0  0  0  0
   -0.6867  -12.0714   -1.9786 H   0  0  0  0  0  0  0  0  0  0  0  0
   -0.7505  -10.8882   -3.2940 H   0  0  0  0  0  0  0  0  0  0  0  0
   -1.1915  -10.4188   -1.6485 H   0  0  0  0  0  0  0  0  0  0  0  0
   -3.3911  -11.1364   -0.6278 H   0  0  0  0  0  0  0  0  0  0  0  0
   -2.8967  -12.8130   -0.8221 H   0  0  0  0  0  0  0  0  0  0  0  0
   -4.4617  -12.2724   -1.4371 H   0  0  0  0  0  0  0  0  0  0  0  0
   -2.0780  -12.6508   -4.5101 H   0  0  0  0  0  0  0  0  0  0  0  0
   -2.1818  -13.7239   -3.1116 H   0  0  0  0  0  0  0  0  0  0  0  0
   -4.7146   -9.0262   -5.3492 H   0  0  0  0  0  0  0  0  0  0  0  0
   -6.1031  -10.0954   -5.5120 H   0  0  0  0  0  0  0  0  0  0  0  0
   -5.8889   -9.1891   -4.0252 H   0  0  0  0  0  0  0  0  0  0  0  0
   -5.9413  -12.3414   -4.4433 H   0  0  0  0  0  0  0  0  0  0  0  0
   -4.7829  -12.1880   -5.7573 H   0  0  0  0  0  0  0  0  0  0  0  0
   -2.4755   -4.8175   -1.7017 H   0  0  0  0  0  0  0  0  0  0  0  0
   -3.9595  -14.1207   -4.8527 H   0  0  0  0  0  0  0  0  0  0  0  0
   -4.6032  -13.7984   -3.2537 H   0  0  0  0  0  0  0  0  0  0  0  0
   -0.9728   -5.7937    0.5742 H   0  0  0  0  0  0  0  0  0  0  0  0
    0.8193   -3.8895   -0.1606 H   0  0  0  0  0  0  0  0  0  0  0  0
   -2.1020   -2.5455    1.6674 H   0  0  0  0  0  0  0  0  0  0  0  0
   -3.2237   -3.5738    0.7904 H   0  0  0  0  0  0  0  0  0  0  0  0
   -2.5008   -2.1926   -0.0268 H   0  0  0  0  0  0  0  0  0  0  0  0
    0.2100   -1.6598    1.4682 H   0  0  0  0  0  0  0  0  0  0  0  0
    1.5703   -1.8350    0.3559 H   0  0  0  0  0  0  0  0  0  0  0  0
   -1.6680    1.1620   -1.2993 H   0  0  0  0  0  0  0  0  0  0  0  0
   -0.4442    0.7386   -2.5177 H   0  0  0  0  0  0  0  0  0  0  0  0
   -0.2398    2.1922   -1.5218 H   0  0  0  0  0  0  0  0  0  0  0  0
  1  2  2  0  0  0  0 
  1  3  1  0  0  0  0 
  2  4  1  0  0  0  0 
  3  5  1  0  0  0  0 
  3  6  2  0  0  0  0 
  4  7  2  0  0  0  0 
  4  8  1  0  0  0  0 
  5  9  1  0  0  0  0 
  5 10  1  0  0  0  0 
  5 11  1  0  0  0  0 
  6 12  1  0  0  0  0 
  6 13  1  0  0  0  0 
  7 14  1  0  0  0  0 
 11 15  1  0  0  0  0 
 13 15  1  0  0  0  0 
 14 16  2  0  0  0  0 
 16 17  1  0  0  0  0 
 17 18  2  0  0  0  0 
 17 19  1  0  0  0  0 
 18 20  1  0  0  0  0 
 20 21  1  0  0  0  0 
 21 22  1  0  0  0  0 
 22 23  1  0  0  0  0 
 22 24  2  0  0  0  0 
  1 25  1  0  0  0  0 
  2 26  1  0  0  0  0 
  7 27  1  0  0  0  0 
  8 28  1  0  0  0  0 
  8 29  1  0  0  0  0 
  8 30  1  0  0  0  0 
  9 31  1  0  0  0  0 
  9 32  1  0  0  0  0 
  9 33  1  0  0  0  0 
 10 34  1  0  0  0  0 
 10 35  1  0  0  0  0 
 10 36  1  0  0  0  0 
 11 37  1  0  0  0  0 
 11 38  1  0  0  0  0 
 12 39  1  0  0  0  0 
 12 40  1  0  0  0  0 
 12 41  1  0  0  0  0 
 13 42  1  0  0  0  0 
 13 43  1  0  0  0  0 
 14 44  1  0  0  0  0 
 15 45  1  0  0  0  0 
 15 46  1  0  0  0  0 
 16 47  1  0  0  0  0 
 18 48  1  0  0  0  0 
 19 49  1  0  0  0  0 
 19 50  1  0  0  0  0 
 19 51  1  0  0  0  0 
 20 52  1  0  0  0  0 
 20 53  1  0  0  0  0 
 23 54  1  0  0  0  0 
 23 55  1  0  0  0  0 
 23 56  1  0  0  0  0 
M  END
> <cdk:Title>
retinol acetate

> <Conformer>
1

> <SuperDrugID>
SD002134

$$$$
