clobenztropine
  CDK     0628171801

 48 51  0  0  0  0  0  0  0  0999 V2000
   -2.3759   -3.5788    6.3879 C   0  0  0  0  0  0  0  0  0  0  0  0
   -2.2596   -2.7719    5.2403 C   0  0  0  0  0  0  0  0  0  0  0  0
   -3.1505   -1.6928    5.0156 C   0  0  0  0  0  0  0  0  0  0  0  0
   -4.1732   -1.4626    5.9671 C   0  0  0  0  0  0  0  0  0  0  0  0
   -4.2926   -2.2667    7.1139 C   0  0  0  0  0  0  0  0  0  0  0  0
   -3.3897   -3.3240    7.3288 C   0  0  0  0  0  0  0  0  0  0  0  0
   -3.0421   -0.8160    3.8126 C   0  0  1  0  0  0  0  0  0  0  0  0
   -3.5216   -4.2792    8.7190 Cl  0  0  0  0  0  0  0  0  0  0  0  0
   -1.6507   -0.5509    3.5109 O   0  0  0  0  0  0  0  0  0  0  0  0
   -3.8150   -1.4189    2.6840 C   0  0  0  0  0  0  0  0  0  0  0  0
   -5.3004   -2.5303    0.5414 C   0  0  0  0  0  0  0  0  0  0  0  0
   -4.0203   -3.0284    0.8426 C   0  0  0  0  0  0  0  0  0  0  0  0
   -3.2856   -2.4787    1.9094 C   0  0  0  0  0  0  0  0  0  0  0  0
   -5.1054   -0.9294    2.3637 C   0  0  0  0  0  0  0  0  0  0  0  0
   -5.8420   -1.4812    1.3022 C   0  0  0  0  0  0  0  0  0  0  0  0
    0.4207    2.7343    2.1498 N   0  0  2  0  0  0  0  0  0  0  0  0
    0.7435    1.5071    1.3736 C   0  0  1  0  0  0  0  0  0  0  0  0
    0.1988    0.3036    2.2048 C   0  0  2  0  0  0  0  0  0  0  0  0
   -1.3388    0.3911    2.4554 C   0  0  2  0  0  0  0  0  0  0  0  0
   -1.7809    1.8615    2.7646 C   0  0  2  0  0  0  0  0  0  0  0  0
   -1.0310    2.9039    1.8745 C   0  0  2  0  0  0  0  0  0  0  0  0
    1.2794    3.9231    1.8789 C   0  0  0  0  0  0  0  0  0  0  0  0
   -1.1730    2.6270    0.3519 C   0  0  2  0  0  0  0  0  0  0  0  0
    0.0214    1.7034    0.0151 C   0  0  1  0  0  0  0  0  0  0  0  0
   -1.3880    3.9077    2.1289 H   0  0  0  0  0  0  0  0  0  0  0  0
    1.8203    1.3748    1.2325 H   0  0  0  0  0  0  0  0  0  0  0  0
   -1.7168   -4.3482    6.5314 H   0  0  0  0  0  0  0  0  0  0  0  0
   -1.5170   -2.9760    4.5701 H   0  0  0  0  0  0  0  0  0  0  0  0
   -4.8459   -0.7032    5.8314 H   0  0  0  0  0  0  0  0  0  0  0  0
   -5.0381   -2.0765    7.7885 H   0  0  0  0  0  0  0  0  0  0  0  0
   -3.4789    0.1519    4.0781 H   0  0  0  0  0  0  0  0  0  0  0  0
   -5.8350   -2.9273   -0.2328 H   0  0  0  0  0  0  0  0  0  0  0  0
   -3.6246   -3.7874    0.2850 H   0  0  0  0  0  0  0  0  0  0  0  0
   -2.3573   -2.8538    2.1114 H   0  0  0  0  0  0  0  0  0  0  0  0
   -5.5222   -0.1704    2.9085 H   0  0  0  0  0  0  0  0  0  0  0  0
   -6.7733   -1.1196    1.0848 H   0  0  0  0  0  0  0  0  0  0  0  0
    0.7167    0.2956    3.1692 H   0  0  0  0  0  0  0  0  0  0  0  0
    0.4342   -0.6335    1.6931 H   0  0  0  0  0  0  0  0  0  0  0  0
   -1.8350    0.0748    1.5329 H   0  0  0  0  0  0  0  0  0  0  0  0
   -1.5755    2.0834    3.8164 H   0  0  0  0  0  0  0  0  0  0  0  0
   -2.8574    1.9680    2.6033 H   0  0  0  0  0  0  0  0  0  0  0  0
    1.2092    4.2517    0.8394 H   0  0  0  0  0  0  0  0  0  0  0  0
    2.3210    3.6845    2.1037 H   0  0  0  0  0  0  0  0  0  0  0  0
    0.9792    4.7479    2.5280 H   0  0  0  0  0  0  0  0  0  0  0  0
   -1.0995    3.5625   -0.2079 H   0  0  0  0  0  0  0  0  0  0  0  0
   -2.1290    2.1573    0.1059 H   0  0  0  0  0  0  0  0  0  0  0  0
    0.6880    2.1949   -0.6995 H   0  0  0  0  0  0  0  0  0  0  0  0
   -0.3074    0.7551   -0.4153 H   0  0  0  0  0  0  0  0  0  0  0  0
  1  2  2  0  0  0  0 
  1  6  1  0  0  0  0 
  2  3  1  0  0  0  0 
  3  4  2  0  0  0  0 
  4  5  1  0  0  0  0 
  5  6  2  0  0  0  0 
  3  7  1  0  0  0  0 
  6  8  1  0  0  0  0 
  7  9  1  0  0  0  0 
  7 10  1  0  0  0  0 
 13 10  2  0  0  0  0 
 10 14  1  0  0  0  0 
 11 12  2  0  0  0  0 
 11 15  1  0  0  0  0 
 12 13  1  0  0  0  0 
 14 15  2  0  0  0  0 
  9 19  1  0  0  0  0 
 16 17  1  0  0  0  0 
 16 21  1  0  0  0  0 
 17 18  1  0  0  0  0 
 18 19  1  0  0  0  0 
 19 20  1  0  0  0  0 
 20 21  1  0  0  0  0 
 16 22  1  0  0  0  0 
 21 23  1  0  0  0  0 
 17 24  1  0  0  0  0 
 23 24  1  0  0  0  0 
 21 25  1  0  0  0  0 
 17 26  1  0  0  0  0 
  1 27  1  0  0  0  0 
  2 28  1  0  0  0  0 
  4 29  1  0  0  0  0 
  5 30  1  0  0  0  0 
  7 31  1  0  0  0  0 
 11 32  1  0  0  0  0 
 12 33  1  0  0  0  0 
 13 34  1  0  0  0  0 
 14 35  1  0  0  0  0 
 15 36  1  0  0  0  0 
 18 37  1  0  0  0  0 
 18 38  1  0  0  0  0 
 19 39  1  0  0  0  0 
 20 40  1  0  0  0  0 
 20 41  1  0  0  0  0 
 22 42  1  0  0  0  0 
 22 43  1  0  0  0  0 
 22 44  1  0  0  0  0 
 23 45  1  0  0  0  0 
 23 46  1  0  0  0  0 
 24 47  1  0  0  0  0 
 24 48  1  0  0  0  0 
M  END
> <cdk:Title>
clobenztropine

> <Conformer>
1

> <SuperDrugID>
SD003175

$$$$
