trientine
  CDK     0628171801

 28 27  0  0  0  0  0  0  0  0999 V2000
   -4.1151    5.8831   -6.4159 N   0  0  1  0  0  0  0  0  0  0  0  0
   -3.2125    4.9398   -5.7470 C   0  0  2  0  0  0  0  0  0  0  0  0
   -3.5992    3.4880   -6.1002 C   0  0  2  0  0  0  0  0  0  0  0  0
   -2.6829    2.5375   -5.4306 N   0  0  2  0  0  0  0  0  0  0  0  0
   -2.9877    1.1128   -5.6965 C   0  0  2  0  0  0  0  0  0  0  0  0
   -1.9937    0.2077   -4.9348 C   0  0  1  0  0  0  0  0  0  0  0  0
   -2.3004   -1.2169   -5.1983 N   0  0  2  0  0  0  0  0  0  0  0  0
   -1.3898   -2.1680   -4.5219 C   0  0  1  0  0  0  0  0  0  0  0  0
   -1.7777   -3.6199   -4.8726 C   0  0  2  0  0  0  0  0  0  0  0  0
   -0.8914   -4.5639   -4.1828 N   0  0  1  0  0  0  0  0  0  0  0  0
   -3.7770    6.8278   -6.2179 H   0  0  0  0  0  0  0  0  0  0  0  0
   -4.0153    5.7355   -7.4232 H   0  0  0  0  0  0  0  0  0  0  0  0
   -3.2826    5.0916   -4.6668 H   0  0  0  0  0  0  0  0  0  0  0  0
   -2.1856    5.1390   -6.0634 H   0  0  0  0  0  0  0  0  0  0  0  0
   -3.5376    3.3559   -7.1837 H   0  0  0  0  0  0  0  0  0  0  0  0
   -4.6275    3.3039   -5.7777 H   0  0  0  0  0  0  0  0  0  0  0  0
   -2.7875    2.6799   -4.4222 H   0  0  0  0  0  0  0  0  0  0  0  0
   -2.9062    0.9123   -6.7692 H   0  0  0  0  0  0  0  0  0  0  0  0
   -4.0058    0.8818   -5.3683 H   0  0  0  0  0  0  0  0  0  0  0  0
   -0.9752    0.4374   -5.2631 H   0  0  0  0  0  0  0  0  0  0  0  0
   -2.0751    0.4100   -3.8624 H   0  0  0  0  0  0  0  0  0  0  0  0
   -2.1900   -1.3623   -6.2058 H   0  0  0  0  0  0  0  0  0  0  0  0
   -0.3609   -1.9883   -4.8451 H   0  0  0  0  0  0  0  0  0  0  0  0
   -1.4514   -2.0308   -3.4390 H   0  0  0  0  0  0  0  0  0  0  0  0
   -1.6960   -3.7740   -5.9513 H   0  0  0  0  0  0  0  0  0  0  0  0
   -2.8087   -3.8170   -4.5671 H   0  0  0  0  0  0  0  0  0  0  0  0
   -1.1314   -5.5049   -4.5043 H   0  0  0  0  0  0  0  0  0  0  0  0
    0.0615   -4.3737   -4.5019 H   0  0  0  0  0  0  0  0  0  0  0  0
  1  2  1  0  0  0  0 
  2  3  1  0  0  0  0 
  3  4  1  0  0  0  0 
  4  5  1  0  0  0  0 
  5  6  1  0  0  0  0 
  6  7  1  0  0  0  0 
  7  8  1  0  0  0  0 
  8  9  1  0  0  0  0 
  9 10  1  0  0  0  0 
  1 11  1  0  0  0  0 
  1 12  1  0  0  0  0 
  2 13  1  0  0  0  0 
  2 14  1  0  0  0  0 
  3 15  1  0  0  0  0 
  3 16  1  0  0  0  0 
  4 17  1  0  0  0  0 
  5 18  1  0  0  0  0 
  5 19  1  0  0  0  0 
  6 20  1  0  0  0  0 
  6 21  1  0  0  0  0 
  7 22  1  0  0  0  0 
  8 23  1  0  0  0  0 
  8 24  1  0  0  0  0 
  9 25  1  0  0  0  0 
  9 26  1  0  0  0  0 
 10 27  1  0  0  0  0 
 10 28  1  0  0  0  0 
M  END
> <cdk:Title>
trientine

> <Conformer>
1

> <SuperDrugID>
SD002468

$$$$
