norgesterone
  CDK     0628171801

 50 53  0  0  0  0  0  0  0  0999 V2000
   -6.0022   -1.7383   -4.3519 C   0  0  0  0  0  0  0  0  0  0  0  0
   -6.5540   -1.0487   -3.0405 C   0  0  2  0  0  0  0  0  0  0  0  0
   -6.0780   -1.7186   -1.7098 C   0  0  2  0  0  0  0  0  0  0  0  0
   -8.1147   -1.2918   -2.9370 C   0  0  1  0  0  0  0  0  0  0  0  0
   -6.0479    0.4375   -3.0224 C   0  0  2  0  0  0  0  0  0  0  0  0
   -4.5272   -1.7189   -1.5156 C   0  0  1  0  0  0  0  0  0  0  0  0
   -6.8491   -3.0559   -1.6651 C   0  0  1  0  0  0  0  0  0  0  0  0
   -8.8233   -0.3587   -2.0353 C   0  0  0  0  0  0  0  0  0  0  0  0
   -8.7620   -1.2654   -4.2186 O   0  0  0  0  0  0  0  0  0  0  0  0
   -8.1894   -2.7601   -2.3889 C   0  0  2  0  0  0  0  0  0  0  0  0
   -4.5086    0.5592   -2.7890 C   0  0  2  0  0  0  0  0  0  0  0  0
   -3.9931   -0.2338   -1.5362 C   0  0  2  0  0  0  0  0  0  0  0  0
   -4.0804   -2.4801   -0.2150 C   0  0  2  0  0  0  0  0  0  0  0  0
   -9.4378    0.7671   -2.4252 C   0  0  0  0  0  0  0  0  0  0  0  0
   -2.5295   -0.2430   -1.2625 C   0  0  0  0  0  0  0  0  0  0  0  0
   -3.0207   -1.7189    0.6270 C   0  0  1  0  0  0  0  0  0  0  0  0
   -2.0714   -0.9739   -0.2065 C   0  0  0  0  0  0  0  0  0  0  0  0
   -1.5597    0.4541   -2.1225 C   0  0  2  0  0  0  0  0  0  0  0  0
   -0.6540   -1.0451    0.1757 C   0  0  1  0  0  0  0  0  0  0  0  0
   -0.3035    0.9668   -1.3742 C   0  0  2  0  0  0  0  0  0  0  0  0
    0.2408   -0.0690   -0.4796 C   0  0  0  0  0  0  0  0  0  0  0  0
    1.4672   -0.0882   -0.2213 O   0  0  0  0  0  0  0  0  0  0  0  0
   -4.0679   -2.2462   -2.3576 H   0  0  0  0  0  0  0  0  0  0  0  0
   -4.4470    0.2884   -0.6860 H   0  0  0  0  0  0  0  0  0  0  0  0
   -6.4605   -1.1358   -0.8605 H   0  0  0  0  0  0  0  0  0  0  0  0
   -6.2922   -2.7857   -4.4227 H   0  0  0  0  0  0  0  0  0  0  0  0
   -6.3893   -1.2317   -5.2371 H   0  0  0  0  0  0  0  0  0  0  0  0
   -4.9191   -1.7090   -4.4212 H   0  0  0  0  0  0  0  0  0  0  0  0
   -6.5346    0.9935   -2.2182 H   0  0  0  0  0  0  0  0  0  0  0  0
   -6.3146    0.9334   -3.9604 H   0  0  0  0  0  0  0  0  0  0  0  0
   -6.2890   -3.8414   -2.1783 H   0  0  0  0  0  0  0  0  0  0  0  0
   -7.0274   -3.3769   -0.6361 H   0  0  0  0  0  0  0  0  0  0  0  0
   -8.8433   -0.5578   -1.0590 H   0  0  0  0  0  0  0  0  0  0  0  0
   -9.6804   -1.5647   -4.0497 H   0  0  0  0  0  0  0  0  0  0  0  0
   -8.3144   -3.4707   -3.2114 H   0  0  0  0  0  0  0  0  0  0  0  0
   -9.0346   -2.9106   -1.7100 H   0  0  0  0  0  0  0  0  0  0  0  0
   -4.2906    1.6229   -2.6568 H   0  0  0  0  0  0  0  0  0  0  0  0
   -3.9735    0.2292   -3.6802 H   0  0  0  0  0  0  0  0  0  0  0  0
   -3.6675   -3.4526   -0.5010 H   0  0  0  0  0  0  0  0  0  0  0  0
   -4.9277   -2.6802    0.4436 H   0  0  0  0  0  0  0  0  0  0  0  0
   -9.4553    1.0425   -3.3763 H   0  0  0  0  0  0  0  0  0  0  0  0
   -9.8878    1.3505   -1.7596 H   0  0  0  0  0  0  0  0  0  0  0  0
   -3.5284   -0.9968    1.2721 H   0  0  0  0  0  0  0  0  0  0  0  0
   -2.5203   -2.4357    1.2864 H   0  0  0  0  0  0  0  0  0  0  0  0
   -1.9957    1.3275   -2.6063 H   0  0  0  0  0  0  0  0  0  0  0  0
   -1.2531   -0.2388   -2.9116 H   0  0  0  0  0  0  0  0  0  0  0  0
   -0.5669   -0.8815    1.2547 H   0  0  0  0  0  0  0  0  0  0  0  0
   -0.2897   -2.0515   -0.0488 H   0  0  0  0  0  0  0  0  0  0  0  0
   -0.5713    1.8393   -0.7716 H   0  0  0  0  0  0  0  0  0  0  0  0
    0.4517    1.2724   -2.1031 H   0  0  0  0  0  0  0  0  0  0  0  0
  2  1  1  0  0  0  0 
  3  2  1  0  0  0  0 
  2  4  1  0  0  0  0 
  2  5  1  0  0  0  0 
  6  3  1  0  0  0  0 
  3  7  1  0  0  0  0 
  3 25  1  0  0  0  0 
  4  8  1  0  0  0  0 
  4  9  1  0  0  0  0 
  4 10  1  0  0  0  0 
  5 11  1  0  0  0  0 
 12  6  1  0  0  0  0 
  6 13  1  0  0  0  0 
  6 23  1  0  0  0  0 
  7 10  1  0  0  0  0 
  8 14  2  0  0  0  0 
 12 11  1  0  0  0  0 
 12 15  1  0  0  0  0 
 12 24  1  0  0  0  0 
 13 16  1  0  0  0  0 
 15 17  2  0  0  0  0 
 15 18  1  0  0  0  0 
 16 17  1  0  0  0  0 
 17 19  1  0  0  0  0 
 18 20  1  0  0  0  0 
 19 21  1  0  0  0  0 
 20 21  1  0  0  0  0 
 21 22  2  0  0  0  0 
  1 26  1  0  0  0  0 
  1 27  1  0  0  0  0 
  1 28  1  0  0  0  0 
  5 29  1  0  0  0  0 
  5 30  1  0  0  0  0 
  7 31  1  0  0  0  0 
  7 32  1  0  0  0  0 
  8 33  1  0  0  0  0 
  9 34  1  0  0  0  0 
 10 35  1  0  0  0  0 
 10 36  1  0  0  0  0 
 11 37  1  0  0  0  0 
 11 38  1  0  0  0  0 
 13 39  1  0  0  0  0 
 13 40  1  0  0  0  0 
 14 41  1  0  0  0  0 
 14 42  1  0  0  0  0 
 16 43  1  0  0  0  0 
 16 44  1  0  0  0  0 
 18 45  1  0  0  0  0 
 18 46  1  0  0  0  0 
 19 47  1  0  0  0  0 
 19 48  1  0  0  0  0 
 20 49  1  0  0  0  0 
 20 50  1  0  0  0  0 
M  END
> <cdk:Title>
norgesterone

> <Conformer>
1

> <SuperDrugID>
SD002772

$$$$
