hexocyclium
  CDK     0628171801

 56 58  0  0  0  0  0  0  0  0999 V2000
    2.5617    0.9657   -0.9991 C   0  0  1  0  0  0  0  0  0  0  0  0
    2.0203   -0.4733   -0.6666 C   0  0  1  0  0  0  0  0  0  0  0  0
    1.5267    1.8662   -0.5725 O   0  0  0  0  0  0  0  0  0  0  0  0
    3.8747    1.4005   -0.2175 C   0  0  2  0  0  0  0  0  0  0  0  0
    2.7510    1.0473   -2.5011 C   0  0  0  0  0  0  0  0  0  0  0  0
    0.7397   -0.7243   -1.4081 N   0  0  1  0  0  0  0  0  0  0  0  0
    3.7513    1.3346    1.3439 C   0  0  1  0  0  0  0  0  0  0  0  0
    4.3481    2.8418   -0.6242 C   0  0  2  0  0  0  0  0  0  0  0  0
    1.9196    1.8534   -3.3244 C   0  0  0  0  0  0  0  0  0  0  0  0
    3.7550    0.2773   -3.1496 C   0  0  0  0  0  0  0  0  0  0  0  0
    0.7536   -1.7441   -2.4939 C   0  0  2  0  0  0  0  0  0  0  0  0
   -0.5265   -0.6888   -0.6234 C   0  0  1  0  0  0  0  0  0  0  0  0
    5.0306    1.8050    2.0889 C   0  0  2  0  0  0  0  0  0  0  0  0
    5.6355    3.3020    0.1085 C   0  0  2  0  0  0  0  0  0  0  0  0
    2.0742    1.8796   -4.7225 C   0  0  0  0  0  0  0  0  0  0  0  0
    3.9146    0.3027   -4.5473 C   0  0  0  0  0  0  0  0  0  0  0  0
   -0.4586   -1.5060   -3.4366 C   0  0  2  0  0  0  0  0  0  0  0  0
   -1.7335   -0.4833   -1.5799 C   0  0  1  0  0  0  0  0  0  0  0  0
    5.4811    3.2194    1.6466 C   0  0  2  0  0  0  0  0  0  0  0  0
    3.0711    1.1029   -5.3349 C   0  0  0  0  0  0  0  0  0  0  0  0
   -1.8007   -1.4717   -2.7298 N   0  0  1  0  0  0  0  0  0  0  0  0
   -2.8664   -1.0239   -3.7078 C   0  0  0  0  0  0  0  0  0  0  0  0
   -2.1943   -2.8485   -2.2405 C   0  0  0  0  0  0  0  0  0  0  0  0
    2.7726   -1.2294   -0.9104 H   0  0  0  0  0  0  0  0  0  0  0  0
    1.8381   -0.5755    0.4044 H   0  0  0  0  0  0  0  0  0  0  0  0
    1.3394    1.6392    0.3623 H   0  0  0  0  0  0  0  0  0  0  0  0
    4.6754    0.7052   -0.4869 H   0  0  0  0  0  0  0  0  0  0  0  0
    2.9151    1.9541    1.6772 H   0  0  0  0  0  0  0  0  0  0  0  0
    3.5568    0.3090    1.6613 H   0  0  0  0  0  0  0  0  0  0  0  0
    3.5532    3.5625   -0.4113 H   0  0  0  0  0  0  0  0  0  0  0  0
    4.5509    2.8827   -1.6964 H   0  0  0  0  0  0  0  0  0  0  0  0
    1.1772    2.4282   -2.9221 H   0  0  0  0  0  0  0  0  0  0  0  0
    4.3773   -0.3275   -2.6097 H   0  0  0  0  0  0  0  0  0  0  0  0
    0.7318   -2.7514   -2.0726 H   0  0  0  0  0  0  0  0  0  0  0  0
    1.6649   -1.6614   -3.0878 H   0  0  0  0  0  0  0  0  0  0  0  0
   -0.6372   -1.6091   -0.0465 H   0  0  0  0  0  0  0  0  0  0  0  0
   -0.5069    0.1404    0.0880 H   0  0  0  0  0  0  0  0  0  0  0  0
    5.8428    1.0957    1.9051 H   0  0  0  0  0  0  0  0  0  0  0  0
    4.8370    1.8160    3.1655 H   0  0  0  0  0  0  0  0  0  0  0  0
    5.8605    4.3341   -0.1752 H   0  0  0  0  0  0  0  0  0  0  0  0
    6.4764    2.6775   -0.2070 H   0  0  0  0  0  0  0  0  0  0  0  0
    1.4584    2.4628   -5.2946 H   0  0  0  0  0  0  0  0  0  0  0  0
    4.6412   -0.2652   -4.9911 H   0  0  0  0  0  0  0  0  0  0  0  0
   -0.4480   -2.2753   -4.2148 H   0  0  0  0  0  0  0  0  0  0  0  0
   -0.2791   -0.5484   -3.9416 H   0  0  0  0  0  0  0  0  0  0  0  0
   -2.6500   -0.5148   -0.9824 H   0  0  0  0  0  0  0  0  0  0  0  0
   -1.6480    0.5378   -1.9704 H   0  0  0  0  0  0  0  0  0  0  0  0
    6.4382    3.4624    2.1163 H   0  0  0  0  0  0  0  0  0  0  0  0
    4.7479    3.9603    1.9807 H   0  0  0  0  0  0  0  0  0  0  0  0
    3.1834    1.1211   -6.3505 H   0  0  0  0  0  0  0  0  0  0  0  0
   -2.6596   -0.0262   -4.1056 H   0  0  0  0  0  0  0  0  0  0  0  0
   -2.9360   -1.7051   -4.5618 H   0  0  0  0  0  0  0  0  0  0  0  0
   -3.8533   -0.9859   -3.2355 H   0  0  0  0  0  0  0  0  0  0  0  0
   -3.1758   -2.8345   -1.7583 H   0  0  0  0  0  0  0  0  0  0  0  0
   -1.4903   -3.2488   -1.5117 H   0  0  0  0  0  0  0  0  0  0  0  0
   -2.2416   -3.5644   -3.0662 H   0  0  0  0  0  0  0  0  0  0  0  0
  1  2  1  0  0  0  0 
  1  3  1  0  0  0  0 
  1  4  1  0  0  0  0 
  1  5  1  0  0  0  0 
  2  6  1  0  0  0  0 
  4  7  1  0  0  0  0 
  4  8  1  0  0  0  0 
  5  9  2  0  0  0  0 
  5 10  1  0  0  0  0 
  6 11  1  0  0  0  0 
  6 12  1  0  0  0  0 
  7 13  1  0  0  0  0 
  8 14  1  0  0  0  0 
  9 15  1  0  0  0  0 
 10 16  2  0  0  0  0 
 11 17  1  0  0  0  0 
 12 18  1  0  0  0  0 
 13 19  1  0  0  0  0 
 14 19  1  0  0  0  0 
 15 20  2  0  0  0  0 
 16 20  1  0  0  0  0 
 17 21  1  0  0  0  0 
 18 21  1  0  0  0  0 
 21 22  1  0  0  0  0 
 21 23  1  0  0  0  0 
  2 24  1  0  0  0  0 
  2 25  1  0  0  0  0 
  3 26  1  0  0  0  0 
  4 27  1  0  0  0  0 
  7 28  1  0  0  0  0 
  7 29  1  0  0  0  0 
  8 30  1  0  0  0  0 
  8 31  1  0  0  0  0 
  9 32  1  0  0  0  0 
 10 33  1  0  0  0  0 
 11 34  1  0  0  0  0 
 11 35  1  0  0  0  0 
 12 36  1  0  0  0  0 
 12 37  1  0  0  0  0 
 13 38  1  0  0  0  0 
 13 39  1  0  0  0  0 
 14 40  1  0  0  0  0 
 14 41  1  0  0  0  0 
 15 42  1  0  0  0  0 
 16 43  1  0  0  0  0 
 17 44  1  0  0  0  0 
 17 45  1  0  0  0  0 
 18 46  1  0  0  0  0 
 18 47  1  0  0  0  0 
 19 48  1  0  0  0  0 
 19 49  1  0  0  0  0 
 20 50  1  0  0  0  0 
 22 51  1  0  0  0  0 
 22 52  1  0  0  0  0 
 22 53  1  0  0  0  0 
 23 54  1  0  0  0  0 
 23 55  1  0  0  0  0 
 23 56  1  0  0  0  0 
M  CHG  1  21   1
M  END
> <cdk:Title>
hexocyclium

> <Conformer>
1

> <SuperDrugID>
SD001217

$$$$
