piperidione
  CDK     0628171801

 27 27  0  0  0  0  0  0  0  0999 V2000
   -1.2970   -2.1174   -0.8539 C   0  0  2  0  0  0  0  0  0  0  0  0
   -1.1513   -2.6513    0.5917 C   0  0  0  0  0  0  0  0  0  0  0  0
   -1.5354   -0.5675   -0.9979 C   0  0  1  0  0  0  0  0  0  0  0  0
   -1.5939   -0.2230   -2.5323 C   0  0  2  0  0  0  0  0  0  0  0  0
   -2.8493   -0.2275   -0.3466 C   0  0  0  0  0  0  0  0  0  0  0  0
   -0.3915    0.1868   -0.3767 C   0  0  0  0  0  0  0  0  0  0  0  0
   -1.8753    1.2604   -2.8828 C   0  0  0  0  0  0  0  0  0  0  0  0
   -3.9094   -0.7311   -0.7903 O   0  0  0  0  0  0  0  0  0  0  0  0
   -2.9511    0.6052    0.8733 C   0  0  2  0  0  0  0  0  0  0  0  0
    0.7920   -0.0744   -0.6951 O   0  0  0  0  0  0  0  0  0  0  0  0
   -0.5596    1.1794    0.5356 N   0  0  0  0  0  0  0  0  0  0  0  0
   -1.8296    1.6682    0.9547 C   0  0  2  0  0  0  0  0  0  0  0  0
   -2.1254   -2.6587   -1.3204 H   0  0  0  0  0  0  0  0  0  0  0  0
   -0.3974   -2.4044   -1.4056 H   0  0  0  0  0  0  0  0  0  0  0  0
   -0.9810   -3.7294    0.5689 H   0  0  0  0  0  0  0  0  0  0  0  0
   -0.3061   -2.1777    1.0928 H   0  0  0  0  0  0  0  0  0  0  0  0
   -2.0600   -2.4583    1.1628 H   0  0  0  0  0  0  0  0  0  0  0  0
   -2.3715   -0.8257   -3.0127 H   0  0  0  0  0  0  0  0  0  0  0  0
   -0.6483   -0.5017   -3.0102 H   0  0  0  0  0  0  0  0  0  0  0  0
   -1.9255    1.3721   -3.9668 H   0  0  0  0  0  0  0  0  0  0  0  0
   -2.8288    1.5834   -2.4623 H   0  0  0  0  0  0  0  0  0  0  0  0
   -1.0801    1.9063   -2.5056 H   0  0  0  0  0  0  0  0  0  0  0  0
   -2.8909   -0.0542    1.7428 H   0  0  0  0  0  0  0  0  0  0  0  0
   -3.9175    1.1158    0.8991 H   0  0  0  0  0  0  0  0  0  0  0  0
    0.2317    1.6032    0.9053 H   0  0  0  0  0  0  0  0  0  0  0  0
   -1.7422    2.0121    1.9885 H   0  0  0  0  0  0  0  0  0  0  0  0
   -2.0832    2.5283    0.3280 H   0  0  0  0  0  0  0  0  0  0  0  0
  1  2  1  0  0  0  0 
  1  3  1  0  0  0  0 
  3  4  1  0  0  0  0 
  3  5  1  0  0  0  0 
  3  6  1  0  0  0  0 
  4  7  1  0  0  0  0 
  5  8  2  0  0  0  0 
  5  9  1  0  0  0  0 
  6 10  2  0  0  0  0 
  6 11  1  0  0  0  0 
  9 12  1  0  0  0  0 
 11 12  1  0  0  0  0 
  1 13  1  0  0  0  0 
  1 14  1  0  0  0  0 
  2 15  1  0  0  0  0 
  2 16  1  0  0  0  0 
  2 17  1  0  0  0  0 
  4 18  1  0  0  0  0 
  4 19  1  0  0  0  0 
  7 20  1  0  0  0  0 
  7 21  1  0  0  0  0 
  7 22  1  0  0  0  0 
  9 23  1  0  0  0  0 
  9 24  1  0  0  0  0 
 11 25  1  0  0  0  0 
 12 26  1  0  0  0  0 
 12 27  1  0  0  0  0 
M  END
> <cdk:Title>
piperidione

> <Conformer>
1

> <SuperDrugID>
SD001964

$$$$
