levocarnitine propionate
  CDK     0628171801

 35 34  0  0  0  0  0  0  0  0999 V2000
   -0.4825    7.0898   -3.0530 C   0  0  0  0  0  0  0  0  0  0  0  0
   -0.8301    6.6527   -1.6145 C   0  0  1  0  0  0  0  0  0  0  0  0
   -0.2529    5.3368   -1.2685 C   0  0  0  0  0  0  0  0  0  0  0  0
   -0.9518    4.3033   -1.3987 O   0  0  0  0  0  0  0  0  0  0  0  0
    1.0316    5.2701   -0.7937 O   0  0  0  0  0  0  0  0  0  0  0  0
    1.7439    4.0947   -0.3589 C   0  0  2  0  0  0  0  0  0  0  0  0
    1.9163    4.1914    1.1891 C   0  0  2  0  0  0  0  0  0  0  0  0
    0.6423    4.2308    1.9335 C   0  0  0  0  0  0  0  0  0  0  0  0
    0.3312    5.2901    2.7158 O   0  0  0  0  0  0  0  0  0  0  0  0
   -0.1624    3.2730    1.8705 O   0  0  0  0  0  0  0  0  0  0  0  0
    3.1346    3.9651   -1.0658 C   0  0  2  0  0  0  0  0  0  0  0  0
    3.2262    3.7811   -2.5772 N   0  0  2  0  0  0  0  0  0  0  0  0
    2.6934    4.9778   -3.3274 C   0  0  0  0  0  0  0  0  0  0  0  0
    2.4811    2.5480   -3.0279 C   0  0  0  0  0  0  0  0  0  0  0  0
    4.6876    3.6180   -2.9410 C   0  0  0  0  0  0  0  0  0  0  0  0
   -0.7779    6.3250   -3.7743 H   0  0  0  0  0  0  0  0  0  0  0  0
   -1.0137    8.0107   -3.2966 H   0  0  0  0  0  0  0  0  0  0  0  0
    0.5882    7.2744   -3.1502 H   0  0  0  0  0  0  0  0  0  0  0  0
   -0.4647    7.4066   -0.9099 H   0  0  0  0  0  0  0  0  0  0  0  0
   -1.9185    6.6112   -1.5178 H   0  0  0  0  0  0  0  0  0  0  0  0
    1.1685    3.1891   -0.5674 H   0  0  0  0  0  0  0  0  0  0  0  0
    2.4988    5.0860    1.4277 H   0  0  0  0  0  0  0  0  0  0  0  0
    2.4803    3.3271    1.5501 H   0  0  0  0  0  0  0  0  0  0  0  0
   -0.5052    5.2946    3.2269 H   0  0  0  0  0  0  0  0  0  0  0  0
    3.6262    3.1077   -0.5915 H   0  0  0  0  0  0  0  0  0  0  0  0
    3.7207    4.8448   -0.7792 H   0  0  0  0  0  0  0  0  0  0  0  0
    3.1182    5.9104   -2.9460 H   0  0  0  0  0  0  0  0  0  0  0  0
    2.9217    4.9208   -4.3960 H   0  0  0  0  0  0  0  0  0  0  0  0
    1.6097    5.0401   -3.2539 H   0  0  0  0  0  0  0  0  0  0  0  0
    2.8232    1.6543   -2.4984 H   0  0  0  0  0  0  0  0  0  0  0  0
    2.6169    2.3686   -4.0986 H   0  0  0  0  0  0  0  0  0  0  0  0
    1.4058    2.6408   -2.8590 H   0  0  0  0  0  0  0  0  0  0  0  0
    5.1330    2.7515   -2.4440 H   0  0  0  0  0  0  0  0  0  0  0  0
    4.8305    3.4790   -4.0162 H   0  0  0  0  0  0  0  0  0  0  0  0
    5.2702    4.4959   -2.6500 H   0  0  0  0  0  0  0  0  0  0  0  0
  1  2  1  0  0  0  0 
  2  3  1  0  0  0  0 
  3  4  2  0  0  0  0 
  3  5  1  0  0  0  0 
  5  6  1  0  0  0  0 
  6  7  1  0  0  0  0 
  7  8  1  0  0  0  0 
  8  9  1  0  0  0  0 
  8 10  2  0  0  0  0 
  6 11  1  0  0  0  0 
 11 12  1  0  0  0  0 
 12 13  1  0  0  0  0 
 12 14  1  0  0  0  0 
 12 15  1  0  0  0  0 
  1 16  1  0  0  0  0 
  1 17  1  0  0  0  0 
  1 18  1  0  0  0  0 
  2 19  1  0  0  0  0 
  2 20  1  0  0  0  0 
  6 21  1  0  0  0  0 
  7 22  1  0  0  0  0 
  7 23  1  0  0  0  0 
  9 24  1  0  0  0  0 
 11 25  1  0  0  0  0 
 11 26  1  0  0  0  0 
 13 27  1  0  0  0  0 
 13 28  1  0  0  0  0 
 13 29  1  0  0  0  0 
 14 30  1  0  0  0  0 
 14 31  1  0  0  0  0 
 14 32  1  0  0  0  0 
 15 33  1  0  0  0  0 
 15 34  1  0  0  0  0 
 15 35  1  0  0  0  0 
M  CHG  1  12   1
M  END
> <cdk:Title>
levocarnitine propionate

> <Conformer>
1

> <SuperDrugID>
SD003336

$$$$
