ospemifene
  CDK     0628171802

 50 52  0  0  0  0  0  0  0  0999 V2000
   -3.0473    1.6778    2.8314 C   0  0  0  0  0  0  0  0  0  0  0  0
   -3.2150    3.0766    2.8760 C   0  0  0  0  0  0  0  0  0  0  0  0
   -2.4248    3.8555    3.7422 C   0  0  0  0  0  0  0  0  0  0  0  0
   -1.4443    3.2516    4.5653 C   0  0  0  0  0  0  0  0  0  0  0  0
   -1.2762    1.8470    4.5042 C   0  0  0  0  0  0  0  0  0  0  0  0
   -2.0730    1.0698    3.6458 C   0  0  0  0  0  0  0  0  0  0  0  0
   -0.6513    4.0256    5.4255 C   0  0  0  0  0  0  0  0  0  0  0  0
   -1.3173    4.5142    6.5463 C   0  0  0  0  0  0  0  0  0  0  0  0
    0.6719    4.2721    5.1967 C   0  0  0  0  0  0  0  0  0  0  0  0
   -1.6457    3.6465    7.6174 C   0  0  0  0  0  0  0  0  0  0  0  0
   -1.6660    5.8830    6.6385 C   0  0  0  0  0  0  0  0  0  0  0  0
   -2.2906    6.3795    7.7965 C   0  0  0  0  0  0  0  0  0  0  0  0
   -2.5824    5.5165    8.8683 C   0  0  0  0  0  0  0  0  0  0  0  0
   -2.2673    4.1482    8.7758 C   0  0  0  0  0  0  0  0  0  0  0  0
    1.5451    5.0475    6.1071 C   0  0  2  0  0  0  0  0  0  0  0  0
    1.2799    3.7861    4.0350 C   0  0  0  0  0  0  0  0  0  0  0  0
    1.7014    3.9360    1.6273 C   0  0  0  0  0  0  0  0  0  0  0  0
    2.4554    2.7487    1.6828 C   0  0  0  0  0  0  0  0  0  0  0  0
    2.6297    2.0818    2.9089 C   0  0  0  0  0  0  0  0  0  0  0  0
    2.0460    2.5978    4.0793 C   0  0  0  0  0  0  0  0  0  0  0  0
    1.1177    4.4550    2.7984 C   0  0  0  0  0  0  0  0  0  0  0  0
    1.8565    4.3443    7.4573 C   0  0  1  0  0  0  0  0  0  0  0  0
    3.1362    5.1664    8.3460 Cl  0  0  0  0  0  0  0  0  0  0  0  0
   -3.8420    0.8762    2.0579 O   0  0  0  0  0  0  0  0  0  0  0  0
   -3.5171    0.8713    0.6550 C   0  0  1  0  0  0  0  0  0  0  0  0
   -4.2075   -0.3550    0.0239 C   0  0  2  0  0  0  0  0  0  0  0  0
   -3.9657   -0.4143   -1.3768 O   0  0  0  0  0  0  0  0  0  0  0  0
   -3.9177    3.5275    2.2879 H   0  0  0  0  0  0  0  0  0  0  0  0
   -2.5752    4.8675    3.7732 H   0  0  0  0  0  0  0  0  0  0  0  0
   -0.5755    1.3783    5.0876 H   0  0  0  0  0  0  0  0  0  0  0  0
   -1.9465    0.0559    3.6191 H   0  0  0  0  0  0  0  0  0  0  0  0
   -1.4159    2.6495    7.5694 H   0  0  0  0  0  0  0  0  0  0  0  0
   -1.4654    6.5302    5.8702 H   0  0  0  0  0  0  0  0  0  0  0  0
   -2.5251    7.3716    7.8614 H   0  0  0  0  0  0  0  0  0  0  0  0
   -3.0202    5.8849    9.7161 H   0  0  0  0  0  0  0  0  0  0  0  0
   -2.4796    3.5174    9.5512 H   0  0  0  0  0  0  0  0  0  0  0  0
    1.0926    6.0214    6.3027 H   0  0  0  0  0  0  0  0  0  0  0  0
    2.5096    5.2618    5.6299 H   0  0  0  0  0  0  0  0  0  0  0  0
    1.5734    4.4187    0.7348 H   0  0  0  0  0  0  0  0  0  0  0  0
    2.8727    2.3680    0.8315 H   0  0  0  0  0  0  0  0  0  0  0  0
    3.1751    1.2179    2.9513 H   0  0  0  0  0  0  0  0  0  0  0  0
    2.1720    2.0898    4.9587 H   0  0  0  0  0  0  0  0  0  0  0  0
    0.5697    5.3181    2.7401 H   0  0  0  0  0  0  0  0  0  0  0  0
    0.9804    4.3335    8.1030 H   0  0  0  0  0  0  0  0  0  0  0  0
    2.1774    3.3149    7.2887 H   0  0  0  0  0  0  0  0  0  0  0  0
   -3.8928    1.7843    0.1823 H   0  0  0  0  0  0  0  0  0  0  0  0
   -2.4356    0.7935    0.4813 H   0  0  0  0  0  0  0  0  0  0  0  0
   -5.2857   -0.3081    0.1933 H   0  0  0  0  0  0  0  0  0  0  0  0
   -3.8209   -1.2696    0.4805 H   0  0  0  0  0  0  0  0  0  0  0  0
   -4.3974   -1.2461   -1.6687 H   0  0  0  0  0  0  0  0  0  0  0  0
  1  2  2  0  0  0  0 
  1  6  1  0  0  0  0 
  2  3  1  0  0  0  0 
  3  4  2  0  0  0  0 
  4  5  1  0  0  0  0 
  5  6  2  0  0  0  0 
  4  7  1  0  0  0  0 
  7  8  1  0  0  0  0 
  7  9  2  0  0  0  0 
 10  8  2  0  0  0  0 
  8 11  1  0  0  0  0 
 10 14  1  0  0  0  0 
 11 12  2  0  0  0  0 
 12 13  1  0  0  0  0 
 13 14  2  0  0  0  0 
  9 15  1  0  0  0  0 
  9 16  1  0  0  0  0 
 20 16  2  0  0  0  0 
 16 21  1  0  0  0  0 
 17 18  1  0  0  0  0 
 17 21  2  0  0  0  0 
 18 19  2  0  0  0  0 
 19 20  1  0  0  0  0 
 15 22  1  0  0  0  0 
 22 23  1  0  0  0  0 
  1 24  1  0  0  0  0 
 24 25  1  0  0  0  0 
 25 26  1  0  0  0  0 
 26 27  1  0  0  0  0 
  2 28  1  0  0  0  0 
  3 29  1  0  0  0  0 
  5 30  1  0  0  0  0 
  6 31  1  0  0  0  0 
 10 32  1  0  0  0  0 
 11 33  1  0  0  0  0 
 12 34  1  0  0  0  0 
 13 35  1  0  0  0  0 
 14 36  1  0  0  0  0 
 15 37  1  0  0  0  0 
 15 38  1  0  0  0  0 
 17 39  1  0  0  0  0 
 18 40  1  0  0  0  0 
 19 41  1  0  0  0  0 
 20 42  1  0  0  0  0 
 21 43  1  0  0  0  0 
 22 44  1  0  0  0  0 
 22 45  1  0  0  0  0 
 25 46  1  0  0  0  0 
 25 47  1  0  0  0  0 
 26 48  1  0  0  0  0 
 26 49  1  0  0  0  0 
 27 50  1  0  0  0  0 
M  END
> <cdk:Title>
ospemifene

> <Conformer>
1

> <SuperDrugID>
SD003745

$$$$
