suxamethonium
  CDK     0628171801

 50 49  0  0  0  0  0  0  0  0999 V2000
    3.3905   -3.4501   -2.8532 C   0  0  2  0  0  0  0  0  0  0  0  0
    2.1602   -4.1003   -2.2338 N   0  0  2  0  0  0  0  0  0  0  0  0
    4.8026   -3.9480   -2.4049 C   0  0  1  0  0  0  0  0  0  0  0  0
    0.9248   -3.5160   -2.8888 C   0  0  0  0  0  0  0  0  0  0  0  0
    2.0811   -3.8056   -0.7531 C   0  0  0  0  0  0  0  0  0  0  0  0
    2.1547   -5.5938   -2.4651 C   0  0  0  0  0  0  0  0  0  0  0  0
    5.4357   -4.7177   -3.4417 O   0  0  0  0  0  0  0  0  0  0  0  0
    6.6656   -4.5082   -4.0049 C   0  0  0  0  0  0  0  0  0  0  0  0
    7.1163   -5.4038   -5.0876 C   0  0  1  0  0  0  0  0  0  0  0  0
    7.4157   -3.5808   -3.6150 O   0  0  0  0  0  0  0  0  0  0  0  0
    7.2652   -6.8740   -4.6132 C   0  0  2  0  0  0  0  0  0  0  0  0
    7.6143   -7.7583   -5.7407 C   0  0  0  0  0  0  0  0  0  0  0  0
    6.6413   -8.5599   -6.2614 O   0  0  0  0  0  0  0  0  0  0  0  0
    8.7739   -7.7402   -6.2188 O   0  0  0  0  0  0  0  0  0  0  0  0
    6.7492   -9.4016   -7.4131 C   0  0  2  0  0  0  0  0  0  0  0  0
    5.3927  -10.0870   -7.7425 C   0  0  1  0  0  0  0  0  0  0  0  0
    4.2392   -9.2277   -8.2492 N   0  0  2  0  0  0  0  0  0  0  0  0
    3.8468   -8.1705   -7.2430 C   0  0  0  0  0  0  0  0  0  0  0  0
    3.0420  -10.1260   -8.4791 C   0  0  0  0  0  0  0  0  0  0  0  0
    4.5829   -8.5610   -9.5616 C   0  0  0  0  0  0  0  0  0  0  0  0
    3.3599   -2.3713   -2.6625 H   0  0  0  0  0  0  0  0  0  0  0  0
    3.3410   -3.5477   -3.9429 H   0  0  0  0  0  0  0  0  0  0  0  0
    5.4188   -3.0882   -2.1245 H   0  0  0  0  0  0  0  0  0  0  0  0
    4.7489   -4.5900   -1.5281 H   0  0  0  0  0  0  0  0  0  0  0  0
    0.8941   -3.7354   -3.9608 H   0  0  0  0  0  0  0  0  0  0  0  0
    0.8862   -2.4271   -2.7773 H   0  0  0  0  0  0  0  0  0  0  0  0
    0.0064   -3.9206   -2.4504 H   0  0  0  0  0  0  0  0  0  0  0  0
    2.1060   -2.7281   -0.5636 H   0  0  0  0  0  0  0  0  0  0  0  0
    1.1584   -4.1967   -0.3127 H   0  0  0  0  0  0  0  0  0  0  0  0
    2.9073   -4.2538   -0.1993 H   0  0  0  0  0  0  0  0  0  0  0  0
    1.2255   -6.0518   -2.1101 H   0  0  0  0  0  0  0  0  0  0  0  0
    2.2537   -5.8276   -3.5295 H   0  0  0  0  0  0  0  0  0  0  0  0
    2.9740   -6.0915   -1.9412 H   0  0  0  0  0  0  0  0  0  0  0  0
    6.3858   -5.3476   -5.9006 H   0  0  0  0  0  0  0  0  0  0  0  0
    8.0789   -5.0577   -5.4774 H   0  0  0  0  0  0  0  0  0  0  0  0
    6.3254   -7.2193   -4.1714 H   0  0  0  0  0  0  0  0  0  0  0  0
    8.0384   -6.9492   -3.8435 H   0  0  0  0  0  0  0  0  0  0  0  0
    7.4991  -10.1696   -7.2086 H   0  0  0  0  0  0  0  0  0  0  0  0
    7.0925   -8.8163   -8.2676 H   0  0  0  0  0  0  0  0  0  0  0  0
    5.6152  -10.8618   -8.4851 H   0  0  0  0  0  0  0  0  0  0  0  0
    5.0838  -10.6187   -6.8355 H   0  0  0  0  0  0  0  0  0  0  0  0
    4.6137   -7.3999   -7.1432 H   0  0  0  0  0  0  0  0  0  0  0  0
    2.9277   -7.6535   -7.5328 H   0  0  0  0  0  0  0  0  0  0  0  0
    3.6811   -8.6067   -6.2541 H   0  0  0  0  0  0  0  0  0  0  0  0
    3.2646  -10.9115   -9.2069 H   0  0  0  0  0  0  0  0  0  0  0  0
    2.1832   -9.5657   -8.8615 H   0  0  0  0  0  0  0  0  0  0  0  0
    2.7224  -10.6158   -7.5547 H   0  0  0  0  0  0  0  0  0  0  0  0
    4.9061   -9.2922  -10.3079 H   0  0  0  0  0  0  0  0  0  0  0  0
    3.7245   -8.0242   -9.9762 H   0  0  0  0  0  0  0  0  0  0  0  0
    5.3831   -7.8265   -9.4510 H   0  0  0  0  0  0  0  0  0  0  0  0
  1  2  1  0  0  0  0 
  1  3  1  0  0  0  0 
  2  4  1  0  0  0  0 
  2  5  1  0  0  0  0 
  2  6  1  0  0  0  0 
  3  7  1  0  0  0  0 
  7  8  1  0  0  0  0 
  8  9  1  0  0  0  0 
  8 10  2  0  0  0  0 
  9 11  1  0  0  0  0 
 11 12  1  0  0  0  0 
 12 13  1  0  0  0  0 
 12 14  2  0  0  0  0 
 13 15  1  0  0  0  0 
 15 16  1  0  0  0  0 
 16 17  1  0  0  0  0 
 17 18  1  0  0  0  0 
 17 19  1  0  0  0  0 
 17 20  1  0  0  0  0 
  1 21  1  0  0  0  0 
  1 22  1  0  0  0  0 
  3 23  1  0  0  0  0 
  3 24  1  0  0  0  0 
  4 25  1  0  0  0  0 
  4 26  1  0  0  0  0 
  4 27  1  0  0  0  0 
  5 28  1  0  0  0  0 
  5 29  1  0  0  0  0 
  5 30  1  0  0  0  0 
  6 31  1  0  0  0  0 
  6 32  1  0  0  0  0 
  6 33  1  0  0  0  0 
  9 34  1  0  0  0  0 
  9 35  1  0  0  0  0 
 11 36  1  0  0  0  0 
 11 37  1  0  0  0  0 
 15 38  1  0  0  0  0 
 15 39  1  0  0  0  0 
 16 40  1  0  0  0  0 
 16 41  1  0  0  0  0 
 18 42  1  0  0  0  0 
 18 43  1  0  0  0  0 
 18 44  1  0  0  0  0 
 19 45  1  0  0  0  0 
 19 46  1  0  0  0  0 
 19 47  1  0  0  0  0 
 20 48  1  0  0  0  0 
 20 49  1  0  0  0  0 
 20 50  1  0  0  0  0 
M  CHG  1   2   1
M  CHG  1  17   1
M  END
> <cdk:Title>
suxamethonium

> <Conformer>
1

> <SuperDrugID>
SD002236

$$$$
