etoposide
  CDK     0628171801

 74 80  0  0  0  0  0  0  0  0999 V2000
    1.5433   -2.5248    3.5357 O   0  0  0  0  0  0  0  0  0  0  0  0
    2.6758   -2.5006    3.0059 C   0  0  0  0  0  0  0  0  0  0  0  0
    3.6819   -1.4532    3.1987 C   0  0  2  0  0  0  0  0  0  0  0  0
    3.1753   -3.5222    2.2668 O   0  0  0  0  0  0  0  0  0  0  0  0
    3.3225    0.0636    3.3120 C   0  0  1  0  0  0  0  0  0  0  0  0
    4.5781   -1.7087    1.9714 C   0  0  2  0  0  0  0  0  0  0  0  0
    4.4859   -3.2392    1.7697 C   0  0  2  0  0  0  0  0  0  0  0  0
    4.5469    0.9291    3.1422 C   0  0  0  0  0  0  0  0  0  0  0  0
    2.2012    0.5065    2.4067 C   0  0  0  0  0  0  0  0  0  0  0  0
    5.9561   -1.0180    2.1748 C   0  0  1  0  0  0  0  0  0  0  0  0
    5.7560    0.4376    2.5361 C   0  0  0  0  0  0  0  0  0  0  0  0
    4.4698    2.2922    3.5388 C   0  0  0  0  0  0  0  0  0  0  0  0
    0.8681    0.5008    2.8832 C   0  0  0  0  0  0  0  0  0  0  0  0
    2.4163    0.9649    1.0807 C   0  0  0  0  0  0  0  0  0  0  0  0
    6.6983   -1.7654    3.1812 O   0  0  0  0  0  0  0  0  0  0  0  0
    6.7988    1.3594    2.2511 C   0  0  0  0  0  0  0  0  0  0  0  0
    5.5451    3.1543    3.2837 C   0  0  0  0  0  0  0  0  0  0  0  0
   -0.2063    0.9429    2.0844 C   0  0  0  0  0  0  0  0  0  0  0  0
    1.3564    1.4304    0.2753 C   0  0  0  0  0  0  0  0  0  0  0  0
    8.0645   -1.3745    3.4376 C   0  0  2  0  0  0  0  0  0  0  0  0
    6.6755    2.7020    2.6318 C   0  0  0  0  0  0  0  0  0  0  0  0
    5.6394    4.4628    3.5881 O   0  0  0  0  0  0  0  0  0  0  0  0
   -1.4830    0.9369    2.5780 O   0  0  0  0  0  0  0  0  0  0  0  0
    0.0435    1.4328    0.7880 C   0  0  0  0  0  0  0  0  0  0  0  0
    1.6091    1.9196   -0.9800 O   0  0  0  0  0  0  0  0  0  0  0  0
    8.8145   -1.3723    2.1968 O   0  0  0  0  0  0  0  0  0  0  0  0
    8.7316   -2.3275    4.4706 C   0  0  2  0  0  0  0  0  0  0  0  0
    7.5719    3.6875    2.4431 O   0  0  0  0  0  0  0  0  0  0  0  0
    7.0178    4.7292    3.2660 C   0  0  2  0  0  0  0  0  0  0  0  0
   -2.1275   -0.3426    2.4551 C   0  0  0  0  0  0  0  0  0  0  0  0
   -0.9831    1.9199    0.0503 O   0  0  0  0  0  0  0  0  0  0  0  0
    1.7453    0.8925   -1.9762 C   0  0  0  0  0  0  0  0  0  0  0  0
   10.1689   -0.9068    2.3573 C   0  0  1  0  0  0  0  0  0  0  0  0
    8.0507   -2.2573    5.7215 O   0  0  0  0  0  0  0  0  0  0  0  0
   10.2285   -1.9309    4.6663 C   0  0  2  0  0  0  0  0  0  0  0  0
   10.9602   -1.8548    3.2978 C   0  0  2  0  0  0  0  0  0  0  0  0
   10.9586   -0.8426    1.0023 C   0  0  1  0  0  0  0  0  0  0  0  0
   10.8842   -2.8511    5.5363 O   0  0  0  0  0  0  0  0  0  0  0  0
   12.3163   -1.3732    3.4385 O   0  0  0  0  0  0  0  0  0  0  0  0
   12.4143   -0.4551    1.1948 O   0  0  0  0  0  0  0  0  0  0  0  0
   13.0518   -1.3398    2.1862 C   0  0  1  0  0  0  0  0  0  0  0  0
   14.4384   -0.7287    2.4696 C   0  0  0  0  0  0  0  0  0  0  0  0
    4.2211   -1.7336    4.1121 H   0  0  0  0  0  0  0  0  0  0  0  0
    4.1157   -1.2671    1.0814 H   0  0  0  0  0  0  0  0  0  0  0  0
    8.0523   -0.3754    3.8839 H   0  0  0  0  0  0  0  0  0  0  0  0
   10.1682    0.1083    2.7738 H   0  0  0  0  0  0  0  0  0  0  0  0
   10.9708   -2.8663    2.8749 H   0  0  0  0  0  0  0  0  0  0  0  0
    2.9956    0.1971    4.3502 H   0  0  0  0  0  0  0  0  0  0  0  0
    4.5695   -3.5117    0.7148 H   0  0  0  0  0  0  0  0  0  0  0  0
    5.2287   -3.7894    2.3510 H   0  0  0  0  0  0  0  0  0  0  0  0
    6.4726   -1.0911    1.2107 H   0  0  0  0  0  0  0  0  0  0  0  0
    3.6338    2.6658    3.9961 H   0  0  0  0  0  0  0  0  0  0  0  0
    0.6632    0.1690    3.8283 H   0  0  0  0  0  0  0  0  0  0  0  0
    3.3578    0.9811    0.6840 H   0  0  0  0  0  0  0  0  0  0  0  0
    7.6520    1.0670    1.7728 H   0  0  0  0  0  0  0  0  0  0  0  0
    8.6608   -3.3549    4.1025 H   0  0  0  0  0  0  0  0  0  0  0  0
    7.5998    4.7990    4.1901 H   0  0  0  0  0  0  0  0  0  0  0  0
    7.0915    5.6821    2.7409 H   0  0  0  0  0  0  0  0  0  0  0  0
   -3.1522   -0.2311    2.8087 H   0  0  0  0  0  0  0  0  0  0  0  0
   -2.1590   -0.6841    1.4161 H   0  0  0  0  0  0  0  0  0  0  0  0
   -1.6319   -1.0960    3.0730 H   0  0  0  0  0  0  0  0  0  0  0  0
   -0.6007    2.6812   -0.4361 H   0  0  0  0  0  0  0  0  0  0  0  0
    1.9607    1.3778   -2.9271 H   0  0  0  0  0  0  0  0  0  0  0  0
    2.5711    0.2150   -1.7474 H   0  0  0  0  0  0  0  0  0  0  0  0
    0.8216    0.3201   -2.0836 H   0  0  0  0  0  0  0  0  0  0  0  0
    7.1192   -2.4848    5.5226 H   0  0  0  0  0  0  0  0  0  0  0  0
   10.2767   -0.9470    5.1449 H   0  0  0  0  0  0  0  0  0  0  0  0
   10.8169   -1.8326    0.5021 H   0  0  0  0  0  0  0  0  0  0  0  0
   10.3916   -0.1293    0.3576 H   0  0  0  0  0  0  0  0  0  0  0  0
   10.8187   -3.7192    5.0882 H   0  0  0  0  0  0  0  0  0  0  0  0
   13.2269   -2.3993    1.8612 H   0  0  0  0  0  0  0  0  0  0  0  0
   14.3347    0.3009    2.8199 H   0  0  0  0  0  0  0  0  0  0  0  0
   15.0375   -0.7299    1.5563 H   0  0  0  0  0  0  0  0  0  0  0  0
   14.9630   -1.3080    3.2320 H   0  0  0  0  0  0  0  0  0  0  0  0
  1  2  2  0  0  0  0 
  3  2  1  0  0  0  0 
  2  4  1  0  0  0  0 
  3  5  1  0  0  0  0 
  6  3  1  0  0  0  0 
  3 43  1  0  0  0  0 
  4  7  1  0  0  0  0 
  5  8  1  0  0  0  0 
  5  9  1  0  0  0  0 
  6  7  1  0  0  0  0 
 10  6  1  0  0  0  0 
  6 44  1  0  0  0  0 
  8 11  2  0  0  0  0 
  8 12  1  0  0  0  0 
  9 13  2  0  0  0  0 
  9 14  1  0  0  0  0 
 10 11  1  0  0  0  0 
 10 15  1  0  0  0  0 
 11 16  1  0  0  0  0 
 12 17  2  0  0  0  0 
 13 18  1  0  0  0  0 
 14 19  2  0  0  0  0 
 20 15  1  0  0  0  0 
 16 21  2  0  0  0  0 
 17 21  1  0  0  0  0 
 17 22  1  0  0  0  0 
 18 23  1  0  0  0  0 
 18 24  2  0  0  0  0 
 19 24  1  0  0  0  0 
 19 25  1  0  0  0  0 
 20 26  1  0  0  0  0 
 27 20  1  0  0  0  0 
 20 45  1  0  0  0  0 
 21 28  1  0  0  0  0 
 22 29  1  0  0  0  0 
 23 30  1  0  0  0  0 
 24 31  1  0  0  0  0 
 25 32  1  0  0  0  0 
 33 26  1  0  0  0  0 
 27 34  1  0  0  0  0 
 27 35  1  0  0  0  0 
 28 29  1  0  0  0  0 
 36 33  1  0  0  0  0 
 33 37  1  0  0  0  0 
 33 46  1  0  0  0  0 
 35 36  1  0  0  0  0 
 35 38  1  0  0  0  0 
 36 39  1  0  0  0  0 
 36 47  1  0  0  0  0 
 37 40  1  0  0  0  0 
 41 39  1  0  0  0  0 
 41 40  1  0  0  0  0 
 41 42  1  0  0  0  0 
  5 48  1  0  0  0  0 
  7 49  1  0  0  0  0 
  7 50  1  0  0  0  0 
 10 51  1  0  0  0  0 
 12 52  1  0  0  0  0 
 13 53  1  0  0  0  0 
 14 54  1  0  0  0  0 
 16 55  1  0  0  0  0 
 27 56  1  0  0  0  0 
 29 57  1  0  0  0  0 
 29 58  1  0  0  0  0 
 30 59  1  0  0  0  0 
 30 60  1  0  0  0  0 
 30 61  1  0  0  0  0 
 31 62  1  0  0  0  0 
 32 63  1  0  0  0  0 
 32 64  1  0  0  0  0 
 32 65  1  0  0  0  0 
 34 66  1  0  0  0  0 
 35 67  1  0  0  0  0 
 37 68  1  0  0  0  0 
 37 69  1  0  0  0  0 
 38 70  1  0  0  0  0 
 41 71  1  0  0  0  0 
 42 72  1  0  0  0  0 
 42 73  1  0  0  0  0 
 42 74  1  0  0  0  0 
M  END
> <cdk:Title>
etoposide

> <Conformer>
1

> <SuperDrugID>
SD000993

$$$$
