ibufenac
  CDK     0628171801

 30 30  0  0  0  0  0  0  0  0999 V2000
    1.6884   -4.3012   -2.0167 C   0  0  2  0  0  0  0  0  0  0  0  0
    1.4617   -4.7366   -3.5008 C   0  0  1  0  0  0  0  0  0  0  0  0
    2.3781   -2.9886   -1.8812 C   0  0  0  0  0  0  0  0  0  0  0  0
    2.7943   -4.8953   -4.2904 C   0  0  0  0  0  0  0  0  0  0  0  0
    0.6240   -6.0454   -3.5700 C   0  0  0  0  0  0  0  0  0  0  0  0
    1.6553   -1.7792   -1.9945 C   0  0  0  0  0  0  0  0  0  0  0  0
    3.7711   -2.9270   -1.6480 C   0  0  0  0  0  0  0  0  0  0  0  0
    2.3088   -0.5396   -1.8733 C   0  0  0  0  0  0  0  0  0  0  0  0
    4.4239   -1.6891   -1.5336 C   0  0  0  0  0  0  0  0  0  0  0  0
    3.7025   -0.4786   -1.6444 C   0  0  0  0  0  0  0  0  0  0  0  0
    4.4105    0.8204   -1.5098 C   0  0  2  0  0  0  0  0  0  0  0  0
    5.3755    1.0211   -2.6085 C   0  0  0  0  0  0  0  0  0  0  0  0
    6.7074    0.9329   -2.3754 O   0  0  0  0  0  0  0  0  0  0  0  0
    4.9797    1.2448   -3.7745 O   0  0  0  0  0  0  0  0  0  0  0  0
    2.2569   -5.0788   -1.4974 H   0  0  0  0  0  0  0  0  0  0  0  0
    0.7248   -4.2366   -1.5020 H   0  0  0  0  0  0  0  0  0  0  0  0
    0.8739   -3.9583   -4.0002 H   0  0  0  0  0  0  0  0  0  0  0  0
    2.6044   -5.2589   -5.3017 H   0  0  0  0  0  0  0  0  0  0  0  0
    3.4605   -5.5982   -3.7866 H   0  0  0  0  0  0  0  0  0  0  0  0
    3.3035   -3.9341   -4.3782 H   0  0  0  0  0  0  0  0  0  0  0  0
    0.4242   -6.3166   -4.6089 H   0  0  0  0  0  0  0  0  0  0  0  0
   -0.3367   -5.9094   -3.0688 H   0  0  0  0  0  0  0  0  0  0  0  0
    1.1543   -6.8707   -3.0901 H   0  0  0  0  0  0  0  0  0  0  0  0
    0.6478   -1.7932   -2.1639 H   0  0  0  0  0  0  0  0  0  0  0  0
    4.3239   -3.7856   -1.5686 H   0  0  0  0  0  0  0  0  0  0  0  0
    1.7577    0.3195   -1.9512 H   0  0  0  0  0  0  0  0  0  0  0  0
    5.4336   -1.6765   -1.3701 H   0  0  0  0  0  0  0  0  0  0  0  0
    4.9314    0.8289   -0.5487 H   0  0  0  0  0  0  0  0  0  0  0  0
    3.7137    1.6634   -1.5054 H   0  0  0  0  0  0  0  0  0  0  0  0
    7.3489    1.0412   -3.1106 H   0  0  0  0  0  0  0  0  0  0  0  0
  1  2  1  0  0  0  0 
  1  3  1  0  0  0  0 
  2  4  1  0  0  0  0 
  2  5  1  0  0  0  0 
  3  6  2  0  0  0  0 
  3  7  1  0  0  0  0 
  6  8  1  0  0  0  0 
  7  9  2  0  0  0  0 
  8 10  2  0  0  0  0 
  9 10  1  0  0  0  0 
 10 11  1  0  0  0  0 
 11 12  1  0  0  0  0 
 12 13  1  0  0  0  0 
 12 14  2  0  0  0  0 
  1 15  1  0  0  0  0 
  1 16  1  0  0  0  0 
  2 17  1  0  0  0  0 
  4 18  1  0  0  0  0 
  4 19  1  0  0  0  0 
  4 20  1  0  0  0  0 
  5 21  1  0  0  0  0 
  5 22  1  0  0  0  0 
  5 23  1  0  0  0  0 
  6 24  1  0  0  0  0 
  7 25  1  0  0  0  0 
  8 26  1  0  0  0  0 
  9 27  1  0  0  0  0 
 11 28  1  0  0  0  0 
 11 29  1  0  0  0  0 
 13 30  1  0  0  0  0 
M  END
> <cdk:Title>
ibufenac

> <Conformer>
1

> <SuperDrugID>
SD002844

$$$$
