pinacidil
  CDK     0628171801

 37 37  0  0  0  0  0  0  0  0999 V2000
   -6.0565    1.1829   -0.3516 C   0  0  0  0  0  0  0  0  0  0  0  0
   -6.2342    0.1344   -1.1954 N   0  0  0  0  0  0  0  0  0  0  0  0
   -5.2073   -0.4329   -1.8788 C   0  0  0  0  0  0  0  0  0  0  0  0
   -3.8994    0.0572   -1.7129 C   0  0  0  0  0  0  0  0  0  0  0  0
   -3.6692    1.1252   -0.8161 C   0  0  0  0  0  0  0  0  0  0  0  0
   -4.7677    1.7077   -0.1494 C   0  0  0  0  0  0  0  0  0  0  0  0
   -2.4745    1.6475   -0.5791 N   0  0  0  0  0  0  0  0  0  0  0  0
   -1.2983    1.1399   -0.4411 C   0  0  0  0  0  0  0  0  0  0  0  0
   -0.2657    1.9752   -0.2503 N   0  0  0  0  0  0  0  0  0  0  0  0
   -1.1099   -0.1894   -0.4566 N   0  0  0  0  0  0  0  0  0  0  0  0
   -0.0189   -0.7804   -0.2668 C   0  0  0  0  0  0  0  0  0  0  0  0
    0.9724   -1.3313   -0.0886 N   0  0  0  0  0  0  0  0  0  0  0  0
   -0.2855    3.4140   -0.1376 C   0  0  1  0  0  0  0  0  0  0  0  0
    0.7528    3.8971    0.9583 C   0  0  1  0  0  0  0  0  0  0  0  0
   -0.1194    3.9968   -1.5707 C   0  0  0  0  0  0  0  0  0  0  0  0
    0.3149    3.3300    2.3538 C   0  0  0  0  0  0  0  0  0  0  0  0
    2.2116    3.4103    0.6597 C   0  0  0  0  0  0  0  0  0  0  0  0
    0.7739    5.4584    1.0753 C   0  0  0  0  0  0  0  0  0  0  0  0
   -6.8585    1.5853    0.1369 H   0  0  0  0  0  0  0  0  0  0  0  0
   -5.3912   -1.2132   -2.5116 H   0  0  0  0  0  0  0  0  0  0  0  0
   -3.1337   -0.3550   -2.2487 H   0  0  0  0  0  0  0  0  0  0  0  0
   -4.6362    2.4973    0.4902 H   0  0  0  0  0  0  0  0  0  0  0  0
    0.6060    1.5576   -0.1944 H   0  0  0  0  0  0  0  0  0  0  0  0
   -1.8831   -0.7560   -0.6080 H   0  0  0  0  0  0  0  0  0  0  0  0
   -1.2746    3.7450    0.1998 H   0  0  0  0  0  0  0  0  0  0  0  0
   -0.9055    3.6097   -2.2249 H   0  0  0  0  0  0  0  0  0  0  0  0
   -0.2115    5.0838   -1.5632 H   0  0  0  0  0  0  0  0  0  0  0  0
    0.8436    3.7191   -2.0006 H   0  0  0  0  0  0  0  0  0  0  0  0
    0.2832    2.2382    2.3457 H   0  0  0  0  0  0  0  0  0  0  0  0
    1.0112    3.6360    3.1388 H   0  0  0  0  0  0  0  0  0  0  0  0
   -0.6800    3.6931    2.6259 H   0  0  0  0  0  0  0  0  0  0  0  0
    2.2758    2.3210    0.6632 H   0  0  0  0  0  0  0  0  0  0  0  0
    2.9074    3.7801    1.4163 H   0  0  0  0  0  0  0  0  0  0  0  0
    2.5562    3.7693   -0.3117 H   0  0  0  0  0  0  0  0  0  0  0  0
   -0.2310    5.8484    1.2536 H   0  0  0  0  0  0  0  0  0  0  0  0
    1.4139    5.7798    1.9011 H   0  0  0  0  0  0  0  0  0  0  0  0
    1.1649    5.9181    0.1658 H   0  0  0  0  0  0  0  0  0  0  0  0
  1  2  2  0  0  0  0 
  2  3  1  0  0  0  0 
  3  4  2  0  0  0  0 
  4  5  1  0  0  0  0 
  5  6  2  0  0  0  0 
  1  6  1  0  0  0  0 
  7  5  1  0  0  0  0 
  7  8  2  0  0  0  0 
  8  9  1  0  0  0  0 
  8 10  1  0  0  0  0 
 10 11  1  0  0  0  0 
 11 12  3  0  0  0  0 
 13  9  1  0  0  0  0 
 13 14  1  0  0  0  0 
 13 15  1  0  0  0  0 
 14 16  1  0  0  0  0 
 14 17  1  0  0  0  0 
 14 18  1  0  0  0  0 
 19  1  1  0  0  0  0 
 20  3  1  0  0  0  0 
 21  4  1  0  0  0  0 
 22  6  1  0  0  0  0 
 23  9  1  0  0  0  0 
 24 10  1  0  0  0  0 
 25 13  1  0  0  0  0 
 26 15  1  0  0  0  0 
 27 15  1  0  0  0  0 
 28 15  1  0  0  0  0 
 29 16  1  0  0  0  0 
 30 16  1  0  0  0  0 
 31 16  1  0  0  0  0 
 32 17  1  0  0  0  0 
 33 17  1  0  0  0  0 
 34 17  1  0  0  0  0 
 35 18  1  0  0  0  0 
 36 18  1  0  0  0  0 
 37 18  1  0  0  0  0 
M  END
> <cdk:Title>
pinacidil

> <Conformer>
1

> <SuperDrugID>
SD001950

$$$$
