taurosteine
  CDK     0628171801

 23 23  0  0  0  0  0  0  0  0999 V2000
    3.2412    2.0333   -0.1420 C   0  0  0  0  0  0  0  0  0  0  0  0
    2.5363    2.5302    0.9105 N   0  0  0  0  0  0  0  0  0  0  0  0
    4.4941    1.9872   -0.1046 O   0  0  0  0  0  0  0  0  0  0  0  0
    2.5783    1.5749   -1.2968 C   0  0  0  0  0  0  0  0  0  0  0  0
    3.1255    3.0743    2.0920 C   0  0  2  0  0  0  0  0  0  0  0  0
    3.1588    0.9721   -2.4240 C   0  0  0  0  0  0  0  0  0  0  0  0
    0.8566    1.6788   -1.6329 S   0  0  0  0  0  0  0  0  0  0  0  0
    2.0413    3.4028    3.1391 C   0  0  2  0  0  0  0  0  0  0  0  0
    2.2742    0.6488   -3.4686 C   0  0  0  0  0  0  0  0  0  0  0  0
    0.9366    0.9708   -3.2336 C   0  0  0  0  0  0  0  0  0  0  0  0
    2.7497    4.1216    4.6652 S   0  0  1  0  0  0  0  0  0  0  0  0
    3.8697    3.1580    5.2858 O   0  0  0  0  0  0  0  0  0  0  0  0
    3.3701    5.5687    4.3708 O   0  0  0  0  0  0  0  0  0  0  0  0
    1.4944    4.2969    5.8135 O   0  0  0  0  0  0  0  0  0  0  0  0
    1.5677    2.5300    0.8489 H   0  0  0  0  0  0  0  0  0  0  0  0
    3.6679    3.9862    1.8286 H   0  0  0  0  0  0  0  0  0  0  0  0
    3.8287    2.3543    2.5194 H   0  0  0  0  0  0  0  0  0  0  0  0
    4.1627    0.7832   -2.4889 H   0  0  0  0  0  0  0  0  0  0  0  0
    1.5064    2.4904    3.4078 H   0  0  0  0  0  0  0  0  0  0  0  0
    1.3279    4.1181    2.7234 H   0  0  0  0  0  0  0  0  0  0  0  0
    2.5880    0.2165   -4.3386 H   0  0  0  0  0  0  0  0  0  0  0  0
    0.1532    0.8253   -3.8715 H   0  0  0  0  0  0  0  0  0  0  0  0
    0.7291    4.6211    5.2947 H   0  0  0  0  0  0  0  0  0  0  0  0
  1  2  1  0  0  0  0 
  1  3  2  0  0  0  0 
  1  4  1  0  0  0  0 
  2  5  1  0  0  0  0 
  4  6  2  0  0  0  0 
  4  7  1  0  0  0  0 
  5  8  1  0  0  0  0 
  6  9  1  0  0  0  0 
  7 10  1  0  0  0  0 
  8 11  1  0  0  0  0 
  9 10  2  0  0  0  0 
 11 12  2  0  0  0  0 
 11 13  2  0  0  0  0 
 11 14  1  0  0  0  0 
  2 15  1  0  0  0  0 
  5 16  1  0  0  0  0 
  5 17  1  0  0  0  0 
  6 18  1  0  0  0  0 
  8 19  1  0  0  0  0 
  8 20  1  0  0  0  0 
  9 21  1  0  0  0  0 
 10 22  1  0  0  0  0 
 14 23  1  0  0  0  0 
M  END
> <cdk:Title>
taurosteine

> <Conformer>
1

> <SuperDrugID>
SD002311

$$$$
