clodantoin
  CDK     0628171801

 36 36  0  0  0  0  0  0  0  0999 V2000
    7.1353    0.1289   -6.9807 C   0  0  1  0  0  0  0  0  0  0  0  0
    7.2608    1.5334   -7.6608 C   0  0  2  0  0  0  0  0  0  0  0  0
    8.5341   -0.5368   -6.7789 C   0  0  1  0  0  0  0  0  0  0  0  0
    6.3901    0.2073   -5.6955 C   0  0  0  0  0  0  0  0  0  0  0  0
    5.9278    2.2874   -7.9532 C   0  0  2  0  0  0  0  0  0  0  0  0
    8.4772   -2.0103   -6.3065 C   0  0  0  0  0  0  0  0  0  0  0  0
    5.1617   -0.3761   -5.3895 C   0  0  0  0  0  0  0  0  0  0  0  0
    6.7826    0.8643   -4.5927 N   0  0  0  0  0  0  0  0  0  0  0  0
    4.9756    1.5796   -8.9569 C   0  0  1  0  0  0  0  0  0  0  0  0
    4.4128   -1.1432   -6.2174 O   0  0  0  0  0  0  0  0  0  0  0  0
    4.8561   -0.0486   -4.1227 N   0  0  0  0  0  0  0  0  0  0  0  0
    5.8572    0.7076   -3.6353 C   0  0  0  0  0  0  0  0  0  0  0  0
    3.6294    2.3208   -9.1269 C   0  0  0  0  0  0  0  0  0  0  0  0
    3.4532   -0.5335   -3.2890 S   0  0  0  0  0  0  0  0  0  0  0  0
    5.9348    1.1925   -2.4843 O   0  0  0  0  0  0  0  0  0  0  0  0
    2.2509    0.7954   -3.6156 C   0  0  2  0  0  0  0  0  0  0  0  0
    1.9080    0.9531   -5.3337 Cl  0  0  0  0  0  0  0  0  0  0  0  0
    2.8315    2.3351   -2.9966 Cl  0  0  0  0  0  0  0  0  0  0  0  0
    0.7587    0.3852   -2.7840 Cl  0  0  0  0  0  0  0  0  0  0  0  0
    6.5853   -0.5188   -7.6687 H   0  0  0  0  0  0  0  0  0  0  0  0
    7.7940    1.4167   -8.6091 H   0  0  0  0  0  0  0  0  0  0  0  0
    7.8777    2.1784   -7.0264 H   0  0  0  0  0  0  0  0  0  0  0  0
    9.0728   -0.5234   -7.7297 H   0  0  0  0  0  0  0  0  0  0  0  0
    9.1268    0.0390   -6.0627 H   0  0  0  0  0  0  0  0  0  0  0  0
    6.1859    3.2673   -8.3671 H   0  0  0  0  0  0  0  0  0  0  0  0
    5.4012    2.4616   -7.0112 H   0  0  0  0  0  0  0  0  0  0  0  0
    8.0427   -2.0782   -5.3070 H   0  0  0  0  0  0  0  0  0  0  0  0
    7.8756   -2.6060   -6.9965 H   0  0  0  0  0  0  0  0  0  0  0  0
    9.4867   -2.4277   -6.2751 H   0  0  0  0  0  0  0  0  0  0  0  0
    7.6046    1.3717   -4.4988 H   0  0  0  0  0  0  0  0  0  0  0  0
    5.4653    1.5074   -9.9319 H   0  0  0  0  0  0  0  0  0  0  0  0
    4.7519    0.5681   -8.6148 H   0  0  0  0  0  0  0  0  0  0  0  0
    3.8858   -0.5010   -6.7354 H   0  0  0  0  0  0  0  0  0  0  0  0
    2.9945    1.7778   -9.8306 H   0  0  0  0  0  0  0  0  0  0  0  0
    3.7931    3.3310   -9.5086 H   0  0  0  0  0  0  0  0  0  0  0  0
    3.1084    2.3809   -8.1683 H   0  0  0  0  0  0  0  0  0  0  0  0
  1  2  1  0  0  0  0 
  1  3  1  0  0  0  0 
  1  4  1  0  0  0  0 
  2  5  1  0  0  0  0 
  3  6  1  0  0  0  0 
  4  7  2  0  0  0  0 
  4  8  1  0  0  0  0 
  5  9  1  0  0  0  0 
  7 10  1  0  0  0  0 
  7 11  1  0  0  0  0 
  8 12  1  0  0  0  0 
  9 13  1  0  0  0  0 
 11 12  1  0  0  0  0 
 11 14  1  0  0  0  0 
 12 15  2  0  0  0  0 
 14 16  1  0  0  0  0 
 16 17  1  0  0  0  0 
 16 18  1  0  0  0  0 
 16 19  1  0  0  0  0 
 20  1  1  0  0  0  0 
 21  2  1  0  0  0  0 
 22  2  1  0  0  0  0 
 23  3  1  0  0  0  0 
 24  3  1  0  0  0  0 
 25  5  1  0  0  0  0 
 26  5  1  0  0  0  0 
 27  6  1  0  0  0  0 
 28  6  1  0  0  0  0 
 29  6  1  0  0  0  0 
 30  8  1  0  0  0  0 
 31  9  1  0  0  0  0 
 32  9  1  0  0  0  0 
 33 10  1  0  0  0  0 
 34 13  1  0  0  0  0 
 35 13  1  0  0  0  0 
 36 13  1  0  0  0  0 
M  END
> <cdk:Title>
clodantoin

> <Conformer>
1

> <SuperDrugID>
SD003539

$$$$
