amezinium metilsulfate
  CDK     0628171801

 27 28  0  0  0  0  0  0  0  0999 V2000
    0.2595   -1.3584   -2.0319 O   0  0  0  0  0  0  0  0  0  0  0  0
    1.6003   -1.8227   -2.2791 C   0  0  0  0  0  0  0  0  0  0  0  0
   -0.4558   -2.1840   -1.1990 C   0  0  0  0  0  0  0  0  0  0  0  0
   -1.0921   -3.3237   -1.6315 N   0  0  0  0  0  0  0  0  0  0  0  0
   -0.5434   -1.8357    0.1644 C   0  0  0  0  0  0  0  0  0  0  0  0
   -1.7422   -4.0890   -0.7801 N   0  0  0  0  0  0  0  0  0  0  0  0
   -1.0784   -3.7296   -2.9409 C   0  0  0  0  0  0  0  0  0  0  0  0
   -1.2344   -2.6741    1.0573 C   0  0  0  0  0  0  0  0  0  0  0  0
   -1.8488   -3.8309    0.5466 C   0  0  0  0  0  0  0  0  0  0  0  0
   -0.5470   -4.9951   -3.2885 C   0  0  0  0  0  0  0  0  0  0  0  0
   -1.5912   -2.9041   -3.9702 C   0  0  0  0  0  0  0  0  0  0  0  0
   -1.2858   -2.3834    2.3329 N   0  0  0  0  0  0  0  0  0  0  0  0
   -0.5241   -5.4216   -4.6294 C   0  0  0  0  0  0  0  0  0  0  0  0
   -1.5697   -3.3320   -5.3117 C   0  0  0  0  0  0  0  0  0  0  0  0
   -1.0363   -4.5909   -5.6420 C   0  0  0  0  0  0  0  0  0  0  0  0
    2.1150   -1.0647   -2.8703 H   0  0  0  0  0  0  0  0  0  0  0  0
    2.1625   -1.9684   -1.3522 H   0  0  0  0  0  0  0  0  0  0  0  0
    1.5989   -2.7529   -2.8509 H   0  0  0  0  0  0  0  0  0  0  0  0
   -0.0948   -0.9813    0.5031 H   0  0  0  0  0  0  0  0  0  0  0  0
   -2.3674   -4.4725    1.1503 H   0  0  0  0  0  0  0  0  0  0  0  0
   -0.1674   -5.6108   -2.5649 H   0  0  0  0  0  0  0  0  0  0  0  0
   -1.9928   -1.9898   -3.7468 H   0  0  0  0  0  0  0  0  0  0  0  0
   -0.8683   -1.6097    2.6537 H   0  0  0  0  0  0  0  0  0  0  0  0
   -1.7332   -2.9467    2.9304 H   0  0  0  0  0  0  0  0  0  0  0  0
   -0.1382   -6.3379   -4.8676 H   0  0  0  0  0  0  0  0  0  0  0  0
   -1.9473   -2.7300   -6.0462 H   0  0  0  0  0  0  0  0  0  0  0  0
   -1.0260   -4.9046   -6.6159 H   0  0  0  0  0  0  0  0  0  0  0  0
  1  2  1  0  0  0  0 
  1  3  1  0  0  0  0 
  3  4  1  0  0  0  0 
  3  5  2  0  0  0  0 
  4  6  1  0  0  0  0 
  4  7  1  0  0  0  0 
  5  8  1  0  0  0  0 
  6  9  2  0  0  0  0 
  7 10  2  0  0  0  0 
  7 11  1  0  0  0  0 
  8  9  1  0  0  0  0 
  8 12  2  0  0  0  0 
 10 13  1  0  0  0  0 
 11 14  2  0  0  0  0 
 13 15  2  0  0  0  0 
 14 15  1  0  0  0  0 
  2 16  1  0  0  0  0 
  2 17  1  0  0  0  0 
  2 18  1  0  0  0  0 
  5 19  1  0  0  0  0 
  9 20  1  0  0  0  0 
 10 21  1  0  0  0  0 
 11 22  1  0  0  0  0 
 12 23  1  0  0  0  0 
 12 24  1  0  0  0  0 
 13 25  1  0  0  0  0 
 14 26  1  0  0  0  0 
 15 27  1  0  0  0  0 
M  CHG  1  12   1
M  END
> <cdk:Title>
amezinium metilsulfate

> <Conformer>
1

> <SuperDrugID>
SD000120

$$$$
