befunolol
  CDK     0628171801

 42 43  0  0  0  0  0  0  0  0999 V2000
   -3.1740   -6.0413   -3.6387 O   0  0  0  0  0  0  0  0  0  0  0  0
   -2.9313   -5.5629   -2.2979 C   0  0  1  0  0  0  0  0  0  0  0  0
   -4.1281   -5.3243   -4.3031 C   0  0  0  0  0  0  0  0  0  0  0  0
   -1.9502   -6.5129   -1.5625 C   0  0  2  0  0  0  0  0  0  0  0  0
   -3.7838   -4.1649   -5.0188 C   0  0  0  0  0  0  0  0  0  0  0  0
   -5.4793   -5.7440   -4.3239 C   0  0  0  0  0  0  0  0  0  0  0  0
   -2.4481   -7.9817   -1.5481 C   0  0  2  0  0  0  0  0  0  0  0  0
   -1.7821   -6.0481   -0.2226 O   0  0  0  0  0  0  0  0  0  0  0  0
   -4.7427   -3.4365   -5.7164 C   0  0  0  0  0  0  0  0  0  0  0  0
   -2.5724   -3.5849   -5.1634 O   0  0  0  0  0  0  0  0  0  0  0  0
   -6.4516   -5.0041   -5.0357 C   0  0  0  0  0  0  0  0  0  0  0  0
   -1.5490   -8.8441   -0.7436 N   0  0  1  0  0  0  0  0  0  0  0  0
   -4.0832   -2.3676   -6.3028 C   0  0  0  0  0  0  0  0  0  0  0  0
   -6.0896   -3.8346   -5.7397 C   0  0  0  0  0  0  0  0  0  0  0  0
   -2.7361   -2.4835   -5.9445 C   0  0  0  0  0  0  0  0  0  0  0  0
   -1.8598  -10.2998   -0.7492 C   0  0  1  0  0  0  0  0  0  0  0  0
   -1.6789   -1.6281   -6.3170 C   0  0  0  0  0  0  0  0  0  0  0  0
   -0.6727  -11.0527   -0.1001 C   0  0  0  0  0  0  0  0  0  0  0  0
   -3.1877  -10.6205   -0.0134 C   0  0  0  0  0  0  0  0  0  0  0  0
   -0.3000   -1.9140   -5.8778 C   0  0  0  0  0  0  0  0  0  0  0  0
   -1.8985   -0.6251   -7.0345 O   0  0  0  0  0  0  0  0  0  0  0  0
   -2.4930   -4.5580   -2.3293 H   0  0  0  0  0  0  0  0  0  0  0  0
   -3.8654   -5.5155   -1.7248 H   0  0  0  0  0  0  0  0  0  0  0  0
   -0.9768   -6.4724   -2.0587 H   0  0  0  0  0  0  0  0  0  0  0  0
   -5.7559   -6.5906   -3.8225 H   0  0  0  0  0  0  0  0  0  0  0  0
   -2.4919   -8.3583   -2.5746 H   0  0  0  0  0  0  0  0  0  0  0  0
   -3.4558   -8.0049   -1.1273 H   0  0  0  0  0  0  0  0  0  0  0  0
   -1.4455   -5.1306   -0.3063 H   0  0  0  0  0  0  0  0  0  0  0  0
   -7.4240   -5.3172   -5.0419 H   0  0  0  0  0  0  0  0  0  0  0  0
   -0.6138   -8.7369   -1.1448 H   0  0  0  0  0  0  0  0  0  0  0  0
   -4.5041   -1.6431   -6.8894 H   0  0  0  0  0  0  0  0  0  0  0  0
   -6.7877   -3.2950   -6.2534 H   0  0  0  0  0  0  0  0  0  0  0  0
   -1.9437  -10.6521   -1.7827 H   0  0  0  0  0  0  0  0  0  0  0  0
    0.2438  -10.8594   -0.6611 H   0  0  0  0  0  0  0  0  0  0  0  0
   -0.5275  -10.7279    0.9325 H   0  0  0  0  0  0  0  0  0  0  0  0
   -0.8527  -12.1300   -0.1069 H   0  0  0  0  0  0  0  0  0  0  0  0
   -3.2083  -10.1409    0.9674 H   0  0  0  0  0  0  0  0  0  0  0  0
   -4.0347  -10.2654   -0.6011 H   0  0  0  0  0  0  0  0  0  0  0  0
   -3.3057  -11.6974    0.1185 H   0  0  0  0  0  0  0  0  0  0  0  0
    0.3975   -1.1554   -6.2379 H   0  0  0  0  0  0  0  0  0  0  0  0
   -0.2551   -1.9380   -4.7877 H   0  0  0  0  0  0  0  0  0  0  0  0
    0.0118   -2.8850   -6.2656 H   0  0  0  0  0  0  0  0  0  0  0  0
  1  2  1  0  0  0  0 
  1  3  1  0  0  0  0 
  4  2  1  0  0  0  0 
  3  5  2  0  0  0  0 
  3  6  1  0  0  0  0 
  4  7  1  0  0  0  0 
  4  8  1  0  0  0  0 
  5  9  1  0  0  0  0 
  5 10  1  0  0  0  0 
  6 11  2  0  0  0  0 
  7 12  1  0  0  0  0 
  9 13  1  0  0  0  0 
  9 14  2  0  0  0  0 
 10 15  1  0  0  0  0 
 11 14  1  0  0  0  0 
 12 16  1  0  0  0  0 
 13 15  2  0  0  0  0 
 15 17  1  0  0  0  0 
 16 18  1  0  0  0  0 
 16 19  1  0  0  0  0 
 17 20  1  0  0  0  0 
 17 21  2  0  0  0  0 
 22  2  1  0  0  0  0 
 23  2  1  0  0  0  0 
 24  4  1  0  0  0  0 
 25  6  1  0  0  0  0 
 26  7  1  0  0  0  0 
 27  7  1  0  0  0  0 
 28  8  1  0  0  0  0 
 29 11  1  0  0  0  0 
 30 12  1  0  0  0  0 
 31 13  1  0  0  0  0 
 32 14  1  0  0  0  0 
 33 16  1  0  0  0  0 
 34 18  1  0  0  0  0 
 35 18  1  0  0  0  0 
 36 18  1  0  0  0  0 
 37 19  1  0  0  0  0 
 38 19  1  0  0  0  0 
 39 19  1  0  0  0  0 
 40 20  1  0  0  0  0 
 41 20  1  0  0  0  0 
 42 20  1  0  0  0  0 
M  END
> <cdk:Title>
befunolol

> <Conformer>
1

> <SuperDrugID>
SD000247

$$$$
