tryparsamide
  CDK     0628171801

 26 26  0  0  0  0  0  0  0  0999 V2000
    1.7375   -2.8707    8.0313 As  0  0  1  0  0  0  0  0  0  0  0  0
    3.2953   -2.1229    7.6832 O   0  0  0  0  0  0  0  0  0  0  0  0
    0.5231   -1.5483    8.5317 O   0  0  0  0  0  0  0  0  0  0  0  0
    1.0844   -3.7060    6.4986 O   0  0  0  0  0  0  0  0  0  0  0  0
    1.8962   -4.1150    9.4740 C   0  0  0  0  0  0  0  0  0  0  0  0
    2.4246   -3.6939   10.7079 C   0  0  0  0  0  0  0  0  0  0  0  0
    1.4600   -5.4440    9.3236 C   0  0  0  0  0  0  0  0  0  0  0  0
    2.4809   -4.5853   11.7951 C   0  0  0  0  0  0  0  0  0  0  0  0
    1.5133   -6.3340   10.4111 C   0  0  0  0  0  0  0  0  0  0  0  0
    2.0109   -5.9118   11.6675 C   0  0  0  0  0  0  0  0  0  0  0  0
    2.0558   -6.7054   12.7781 N   0  0  0  0  0  0  0  0  0  0  0  0
    1.5458   -8.0360   12.8890 C   0  0  2  0  0  0  0  0  0  0  0  0
    1.7342   -8.5432   14.2584 C   0  0  0  0  0  0  0  0  0  0  0  0
    0.6882   -8.9117   15.0227 N   0  0  0  0  0  0  0  0  0  0  0  0
    2.8888   -8.6497   14.7308 O   0  0  0  0  0  0  0  0  0  0  0  0
    0.4585   -0.9616    7.7499 H   0  0  0  0  0  0  0  0  0  0  0  0
    1.0240   -2.9887    5.8330 H   0  0  0  0  0  0  0  0  0  0  0  0
    2.7640   -2.7369   10.8229 H   0  0  0  0  0  0  0  0  0  0  0  0
    1.0924   -5.7674    8.4267 H   0  0  0  0  0  0  0  0  0  0  0  0
    2.8616   -4.2527   12.6869 H   0  0  0  0  0  0  0  0  0  0  0  0
    1.1788   -7.2888   10.2750 H   0  0  0  0  0  0  0  0  0  0  0  0
    2.4585   -6.3213   13.5749 H   0  0  0  0  0  0  0  0  0  0  0  0
    2.0726   -8.7025   12.2016 H   0  0  0  0  0  0  0  0  0  0  0  0
    0.4834   -8.0341   12.6298 H   0  0  0  0  0  0  0  0  0  0  0  0
    0.8355   -9.2413   15.9245 H   0  0  0  0  0  0  0  0  0  0  0  0
   -0.2168   -8.8483   14.6751 H   0  0  0  0  0  0  0  0  0  0  0  0
  1  2  2  0  0  0  0 
  1  3  1  0  0  0  0 
  1  4  1  0  0  0  0 
  1  5  1  0  0  0  0 
  5  6  2  0  0  0  0 
  5  7  1  0  0  0  0 
  6  8  1  0  0  0  0 
  7  9  2  0  0  0  0 
  8 10  2  0  0  0  0 
  9 10  1  0  0  0  0 
 10 11  1  0  0  0  0 
 11 12  1  0  0  0  0 
 12 13  1  0  0  0  0 
 13 14  1  0  0  0  0 
 13 15  2  0  0  0  0 
  3 16  1  0  0  0  0 
  4 17  1  0  0  0  0 
  6 18  1  0  0  0  0 
  7 19  1  0  0  0  0 
  8 20  1  0  0  0  0 
  9 21  1  0  0  0  0 
 11 22  1  0  0  0  0 
 12 23  1  0  0  0  0 
 12 24  1  0  0  0  0 
 14 25  1  0  0  0  0 
 14 26  1  0  0  0  0 
M  END
> <cdk:Title>
tryparsamide

> <Conformer>
1

> <SuperDrugID>
SD003116

$$$$
