mecillinam
  CDK     0628171801

 45 47  0  0  0  0  0  0  0  0999 V2000
    4.6813    1.0016   -2.1902 C   0  0  0  0  0  0  0  0  0  0  0  0
    5.1811    0.6644   -3.4005 O   0  0  0  0  0  0  0  0  0  0  0  0
    3.7138    0.3349   -1.7591 O   0  0  0  0  0  0  0  0  0  0  0  0
    5.2344    2.1545   -1.4390 C   0  0  2  0  0  0  0  0  0  0  0  0
    5.4804    1.7949   -0.0828 N   0  0  0  0  0  0  0  0  0  0  0  0
    4.2781    3.3941   -1.2568 C   0  0  2  0  0  0  0  0  0  0  0  0
    4.5061    1.7006    0.9336 C   0  0  2  0  0  0  0  0  0  0  0  0
    6.5357    1.8310    0.7253 C   0  0  0  0  0  0  0  0  0  0  0  0
    3.4761    3.1003    0.3767 S   0  0  0  0  0  0  0  0  0  0  0  0
    5.7068    1.8099    1.9303 C   0  0  1  0  0  0  0  0  0  0  0  0
    7.7642    1.9683    0.5314 O   0  0  0  0  0  0  0  0  0  0  0  0
    5.7779    2.9920    2.6599 N   0  0  0  0  0  0  0  0  0  0  0  0
    5.2305    3.2310    3.7990 C   0  0  0  0  0  0  0  0  0  0  0  0
    5.3421    4.4281    4.4235 N   0  0  0  0  0  0  0  0  0  0  0  0
    4.9644    4.5673    5.8198 C   0  0  1  0  0  0  0  0  0  0  0  0
    5.7502    5.6272    3.7107 C   0  0  2  0  0  0  0  0  0  0  0  0
    3.5292    5.1284    6.0094 C   0  0  2  0  0  0  0  0  0  0  0  0
    4.5699    6.3166    2.9709 C   0  0  2  0  0  0  0  0  0  0  0  0
    3.2269    6.4451    5.2379 C   0  0  2  0  0  0  0  0  0  0  0  0
    3.1910    6.2754    3.6913 C   0  0  2  0  0  0  0  0  0  0  0  0
    3.9954    0.7335    0.9288 H   0  0  0  0  0  0  0  0  0  0  0  0
    3.2029    3.5595   -2.3730 C   0  0  0  0  0  0  0  0  0  0  0  0
    5.0859    4.7250   -1.1279 C   0  0  0  0  0  0  0  0  0  0  0  0
    4.7747   -0.0713   -3.9084 H   0  0  0  0  0  0  0  0  0  0  0  0
    6.1653    2.4609   -1.9266 H   0  0  0  0  0  0  0  0  0  0  0  0
    5.8889    0.9031    2.5130 H   0  0  0  0  0  0  0  0  0  0  0  0
    4.7057    2.5032    4.2313 H   0  0  0  0  0  0  0  0  0  0  0  0
    5.0231    3.6067    6.3407 H   0  0  0  0  0  0  0  0  0  0  0  0
    5.6711    5.2208    6.3423 H   0  0  0  0  0  0  0  0  0  0  0  0
    6.5466    5.4128    2.9913 H   0  0  0  0  0  0  0  0  0  0  0  0
    6.1878    6.3563    4.4008 H   0  0  0  0  0  0  0  0  0  0  0  0
    3.3753    5.3127    7.0771 H   0  0  0  0  0  0  0  0  0  0  0  0
    2.8051    4.3646    5.7130 H   0  0  0  0  0  0  0  0  0  0  0  0
    4.4480    5.8562    1.9882 H   0  0  0  0  0  0  0  0  0  0  0  0
    4.8466    7.3596    2.7966 H   0  0  0  0  0  0  0  0  0  0  0  0
    3.9474    7.2188    5.5195 H   0  0  0  0  0  0  0  0  0  0  0  0
    2.2408    6.7932    5.5594 H   0  0  0  0  0  0  0  0  0  0  0  0
    2.6885    5.3348    3.4489 H   0  0  0  0  0  0  0  0  0  0  0  0
    2.5742    7.0738    3.2714 H   0  0  0  0  0  0  0  0  0  0  0  0
    2.5907    4.4450   -2.1926 H   0  0  0  0  0  0  0  0  0  0  0  0
    3.6827    3.6617   -3.3502 H   0  0  0  0  0  0  0  0  0  0  0  0
    2.5354    2.6962   -2.4060 H   0  0  0  0  0  0  0  0  0  0  0  0
    4.4260    5.5561   -0.8626 H   0  0  0  0  0  0  0  0  0  0  0  0
    5.5786    4.9684   -2.0725 H   0  0  0  0  0  0  0  0  0  0  0  0
    5.8544    4.6511   -0.3554 H   0  0  0  0  0  0  0  0  0  0  0  0
  1  2  1  0  0  0  0 
  1  3  2  0  0  0  0 
  4  1  1  0  0  0  0 
  4  5  1  0  0  0  0 
  4  6  1  0  0  0  0 
  7  5  1  0  0  0  0 
  5  8  1  0  0  0  0 
  6  9  1  0  0  0  0 
  7  9  1  0  0  0  0 
 10  7  1  0  0  0  0 
  7 21  1  0  0  0  0 
 10  8  1  0  0  0  0 
  8 11  2  0  0  0  0 
 10 12  1  0  0  0  0 
 12 13  2  0  0  0  0 
 13 14  1  0  0  0  0 
 14 15  1  0  0  0  0 
 14 16  1  0  0  0  0 
 15 17  1  0  0  0  0 
 16 18  1  0  0  0  0 
 17 19  1  0  0  0  0 
 18 20  1  0  0  0  0 
 19 20  1  0  0  0  0 
  6 22  1  0  0  0  0 
  6 23  1  0  0  0  0 
  2 24  1  0  0  0  0 
  4 25  1  0  0  0  0 
 10 26  1  0  0  0  0 
 13 27  1  0  0  0  0 
 15 28  1  0  0  0  0 
 15 29  1  0  0  0  0 
 16 30  1  0  0  0  0 
 16 31  1  0  0  0  0 
 17 32  1  0  0  0  0 
 17 33  1  0  0  0  0 
 18 34  1  0  0  0  0 
 18 35  1  0  0  0  0 
 19 36  1  0  0  0  0 
 19 37  1  0  0  0  0 
 20 38  1  0  0  0  0 
 20 39  1  0  0  0  0 
 22 40  1  0  0  0  0 
 22 41  1  0  0  0  0 
 22 42  1  0  0  0  0 
 23 43  1  0  0  0  0 
 23 44  1  0  0  0  0 
 23 45  1  0  0  0  0 
M  END
> <cdk:Title>
mecillinam

> <Conformer>
1

> <SuperDrugID>
SD001458

$$$$
