flecainide
  CDK     0628171801

 48 49  0  0  0  0  0  0  0  0999 V2000
    0.2202   -1.8245   -0.3882 C   0  0  0  0  0  0  0  0  0  0  0  0
    1.3889   -1.1578   -0.1470 N   0  0  0  0  0  0  0  0  0  0  0  0
   -0.2854   -1.7771   -1.5362 O   0  0  0  0  0  0  0  0  0  0  0  0
   -0.4320   -2.5855    0.6238 C   0  0  0  0  0  0  0  0  0  0  0  0
    2.1007   -0.3536   -1.0947 C   0  0  2  0  0  0  0  0  0  0  0  0
   -1.8461   -2.7543    0.6309 C   0  0  0  0  0  0  0  0  0  0  0  0
    0.3206   -3.2217    1.6426 C   0  0  0  0  0  0  0  0  0  0  0  0
    1.3645    0.9798   -1.3818 C   0  0  2  0  0  0  0  0  0  0  0  0
   -2.6512   -2.1132   -0.2781 O   0  0  0  0  0  0  0  0  0  0  0  0
   -2.4594   -3.6073    1.5710 C   0  0  0  0  0  0  0  0  0  0  0  0
   -0.2946   -4.0727    2.5853 C   0  0  0  0  0  0  0  0  0  0  0  0
    2.0921    1.8671   -2.4310 C   0  0  2  0  0  0  0  0  0  0  0  0
    1.1963    1.7363   -0.1138 N   0  0  2  0  0  0  0  0  0  0  0  0
   -3.1278   -0.8317    0.1868 C   0  0  1  0  0  0  0  0  0  0  0  0
   -1.6877   -4.2646    2.5417 C   0  0  0  0  0  0  0  0  0  0  0  0
    0.4513   -4.7188    3.5366 O   0  0  0  0  0  0  0  0  0  0  0  0
    1.2875    3.1730   -2.6616 C   0  0  1  0  0  0  0  0  0  0  0  0
    0.3970    2.9725   -0.2592 C   0  0  1  0  0  0  0  0  0  0  0  0
   -3.8800   -0.1060   -0.9502 C   0  0  1  0  0  0  0  0  0  0  0  0
    1.0508   -5.9365    3.0412 C   0  0  1  0  0  0  0  0  0  0  0  0
    1.0104    3.9130   -1.3263 C   0  0  2  0  0  0  0  0  0  0  0  0
   -4.9465   -0.8555   -1.3863 F   0  0  0  0  0  0  0  0  0  0  0  0
   -4.3568    1.1036   -0.5051 F   0  0  0  0  0  0  0  0  0  0  0  0
   -3.0402    0.1272   -2.0134 F   0  0  0  0  0  0  0  0  0  0  0  0
    1.8857   -6.6120    4.1498 C   0  0  2  0  0  0  0  0  0  0  0  0
    2.8998   -5.7860    4.5703 F   0  0  0  0  0  0  0  0  0  0  0  0
    2.4454   -7.7730    3.6742 F   0  0  0  0  0  0  0  0  0  0  0  0
    1.0926   -6.9233    5.2270 F   0  0  0  0  0  0  0  0  0  0  0  0
    1.7566   -1.2037    0.7493 H   0  0  0  0  0  0  0  0  0  0  0  0
    2.2459   -0.9104   -2.0234 H   0  0  0  0  0  0  0  0  0  0  0  0
    3.0883   -0.1402   -0.6831 H   0  0  0  0  0  0  0  0  0  0  0  0
    1.3338   -3.1003    1.6979 H   0  0  0  0  0  0  0  0  0  0  0  0
    0.3759    0.7347   -1.7803 H   0  0  0  0  0  0  0  0  0  0  0  0
   -3.4723   -3.7500    1.5437 H   0  0  0  0  0  0  0  0  0  0  0  0
    2.1830    1.3316   -3.3793 H   0  0  0  0  0  0  0  0  0  0  0  0
    3.0991    2.1160   -2.0838 H   0  0  0  0  0  0  0  0  0  0  0  0
    2.1302    2.0208    0.1904 H   0  0  0  0  0  0  0  0  0  0  0  0
   -3.8110   -0.9764    1.0295 H   0  0  0  0  0  0  0  0  0  0  0  0
   -2.2986   -0.1933    0.5139 H   0  0  0  0  0  0  0  0  0  0  0  0
   -2.1446   -4.8870    3.2123 H   0  0  0  0  0  0  0  0  0  0  0  0
    1.8427    3.8323   -3.3333 H   0  0  0  0  0  0  0  0  0  0  0  0
    0.3363    2.9313   -3.1462 H   0  0  0  0  0  0  0  0  0  0  0  0
   -0.6323    2.7133   -0.5207 H   0  0  0  0  0  0  0  0  0  0  0  0
    0.3786    3.4797    0.7078 H   0  0  0  0  0  0  0  0  0  0  0  0
    0.2747   -6.6368    2.7126 H   0  0  0  0  0  0  0  0  0  0  0  0
    1.7091   -5.7224    2.1916 H   0  0  0  0  0  0  0  0  0  0  0  0
    0.3324    4.7501   -1.5036 H   0  0  0  0  0  0  0  0  0  0  0  0
    1.9486    4.3170   -0.9390 H   0  0  0  0  0  0  0  0  0  0  0  0
  1  2  1  0  0  0  0 
  1  3  2  0  0  0  0 
  1  4  1  0  0  0  0 
  2  5  1  0  0  0  0 
  4  6  2  0  0  0  0 
  4  7  1  0  0  0  0 
  8  5  1  0  0  0  0 
  6  9  1  0  0  0  0 
  6 10  1  0  0  0  0 
  7 11  2  0  0  0  0 
  8 12  1  0  0  0  0 
  8 13  1  0  0  0  0 
  9 14  1  0  0  0  0 
 10 15  2  0  0  0  0 
 11 15  1  0  0  0  0 
 11 16  1  0  0  0  0 
 12 17  1  0  0  0  0 
 13 18  1  0  0  0  0 
 14 19  1  0  0  0  0 
 16 20  1  0  0  0  0 
 17 21  1  0  0  0  0 
 18 21  1  0  0  0  0 
 19 22  1  0  0  0  0 
 19 23  1  0  0  0  0 
 19 24  1  0  0  0  0 
 20 25  1  0  0  0  0 
 25 26  1  0  0  0  0 
 25 27  1  0  0  0  0 
 25 28  1  0  0  0  0 
  2 29  1  0  0  0  0 
  5 30  1  0  0  0  0 
  5 31  1  0  0  0  0 
  7 32  1  0  0  0  0 
  8 33  1  0  0  0  0 
 10 34  1  0  0  0  0 
 12 35  1  0  0  0  0 
 12 36  1  0  0  0  0 
 13 37  1  0  0  0  0 
 14 38  1  0  0  0  0 
 14 39  1  0  0  0  0 
 15 40  1  0  0  0  0 
 17 41  1  0  0  0  0 
 17 42  1  0  0  0  0 
 18 43  1  0  0  0  0 
 18 44  1  0  0  0  0 
 20 45  1  0  0  0  0 
 20 46  1  0  0  0  0 
 21 47  1  0  0  0  0 
 21 48  1  0  0  0  0 
M  END
> <cdk:Title>
flecainide

> <Conformer>
1

> <SuperDrugID>
SD001052

$$$$
