sildenafil
  CDK     0628171801

 63 66  0  0  0  0  0  0  0  0999 V2000
   -2.4705    1.2788    1.3891 C   0  0  0  0  0  0  0  0  0  0  0  0
   -2.9391    0.1615    2.3540 C   0  0  2  0  0  0  0  0  0  0  0  0
   -2.5635   -1.2776    1.9067 C   0  0  1  0  0  0  0  0  0  0  0  0
   -1.1077   -1.5065    1.8701 C   0  0  0  0  0  0  0  0  0  0  0  0
   -0.3354   -1.9047    2.9018 N   0  0  0  0  0  0  0  0  0  0  0  0
    0.9167   -1.9398    2.5363 N   0  0  0  0  0  0  0  0  0  0  0  0
    1.9890   -2.3294    3.3906 C   0  0  0  0  0  0  0  0  0  0  0  0
    1.0152   -1.5550    1.2469 C   0  0  0  0  0  0  0  0  0  0  0  0
   -0.2664   -1.3061    0.7863 C   0  0  0  0  0  0  0  0  0  0  0  0
   -0.5111   -0.9215   -0.4883 N   0  0  0  0  0  0  0  0  0  0  0  0
    0.5329   -0.7512   -1.3477 C   0  0  0  0  0  0  0  0  0  0  0  0
    1.8117   -0.9671   -0.9156 N   0  0  0  0  0  0  0  0  0  0  0  0
    2.0892   -1.3663    0.3567 C   0  0  0  0  0  0  0  0  0  0  0  0
    3.2764   -1.5465    0.7079 O   0  0  0  0  0  0  0  0  0  0  0  0
    0.2893   -0.3343   -2.6713 C   0  0  0  0  0  0  0  0  0  0  0  0
    0.9165    0.8334   -3.1547 C   0  0  0  0  0  0  0  0  0  0  0  0
    0.6537    1.3133   -4.4518 C   0  0  0  0  0  0  0  0  0  0  0  0
   -0.2409    0.6137   -5.2844 C   0  0  0  0  0  0  0  0  0  0  0  0
   -0.8687   -0.5713   -4.8554 C   0  0  0  0  0  0  0  0  0  0  0  0
   -0.5791   -1.0551   -3.5243 C   0  0  0  0  0  0  0  0  0  0  0  0
   -1.1772   -2.2209   -3.1195 O   0  0  0  0  0  0  0  0  0  0  0  0
   -0.3705   -3.3918   -3.3709 C   0  0  1  0  0  0  0  0  0  0  0  0
   -1.0798   -4.6319   -2.7951 C   0  0  0  0  0  0  0  0  0  0  0  0
    1.4191    2.8012   -5.0351 S   0  0  2  0  0  0  0  0  0  0  0  0
    0.2836    3.8270   -5.5187 O   0  0  0  0  0  0  0  0  0  0  0  0
    2.3329    2.4497   -6.3067 O   0  0  0  0  0  0  0  0  0  0  0  0
    2.3992    3.5145   -3.7366 N   0  0  1  0  0  0  0  0  0  0  0  0
    3.8661    3.4861   -3.9824 C   0  0  2  0  0  0  0  0  0  0  0  0
    4.6311    3.8899   -2.6989 C   0  0  2  0  0  0  0  0  0  0  0  0
    4.1469    5.2059   -2.1832 N   0  0  2  0  0  0  0  0  0  0  0  0
    4.9327    5.6931   -1.0145 C   0  0  0  0  0  0  0  0  0  0  0  0
    2.6726    5.2236   -1.9383 C   0  0  1  0  0  0  0  0  0  0  0  0
    1.9009    4.8171   -3.2182 C   0  0  2  0  0  0  0  0  0  0  0  0
   -1.3816    1.3591    1.3886 H   0  0  0  0  0  0  0  0  0  0  0  0
   -2.8112    1.0744    0.3729 H   0  0  0  0  0  0  0  0  0  0  0  0
   -2.8846    2.2391    1.7036 H   0  0  0  0  0  0  0  0  0  0  0  0
   -4.0284    0.2216    2.4305 H   0  0  0  0  0  0  0  0  0  0  0  0
   -2.5275    0.3561    3.3491 H   0  0  0  0  0  0  0  0  0  0  0  0
   -3.0052   -1.9923    2.6033 H   0  0  0  0  0  0  0  0  0  0  0  0
   -2.9906   -1.4739    0.9213 H   0  0  0  0  0  0  0  0  0  0  0  0
    2.6378   -1.4702    3.5734 H   0  0  0  0  0  0  0  0  0  0  0  0
    1.6136   -2.7008    4.3483 H   0  0  0  0  0  0  0  0  0  0  0  0
    2.5674   -3.1252    2.9152 H   0  0  0  0  0  0  0  0  0  0  0  0
    2.5413   -0.8390   -1.5404 H   0  0  0  0  0  0  0  0  0  0  0  0
    1.5581    1.3461   -2.5455 H   0  0  0  0  0  0  0  0  0  0  0  0
   -0.4475    0.9702   -6.2211 H   0  0  0  0  0  0  0  0  0  0  0  0
   -1.5271   -1.0198   -5.5768 H   0  0  0  0  0  0  0  0  0  0  0  0
   -0.2268   -3.5329   -4.4476 H   0  0  0  0  0  0  0  0  0  0  0  0
    0.6114   -3.3064   -2.8916 H   0  0  0  0  0  0  0  0  0  0  0  0
   -0.4651   -5.5201   -2.9528 H   0  0  0  0  0  0  0  0  0  0  0  0
   -2.0426   -4.7757   -3.2889 H   0  0  0  0  0  0  0  0  0  0  0  0
   -1.2418   -4.5019   -1.7234 H   0  0  0  0  0  0  0  0  0  0  0  0
    4.1277    4.1717   -4.7941 H   0  0  0  0  0  0  0  0  0  0  0  0
    4.1788    2.4800   -4.2715 H   0  0  0  0  0  0  0  0  0  0  0  0
    5.6956    3.9532   -2.9406 H   0  0  0  0  0  0  0  0  0  0  0  0
    4.4999    3.1122   -1.9395 H   0  0  0  0  0  0  0  0  0  0  0  0
    5.9938    5.7544   -1.2665 H   0  0  0  0  0  0  0  0  0  0  0  0
    4.6093    6.6968   -0.7298 H   0  0  0  0  0  0  0  0  0  0  0  0
    4.8171    5.0314   -0.1514 H   0  0  0  0  0  0  0  0  0  0  0  0
    2.4113    4.5428   -1.1211 H   0  0  0  0  0  0  0  0  0  0  0  0
    2.3571    6.2309   -1.6520 H   0  0  0  0  0  0  0  0  0  0  0  0
    0.8386    4.7421   -2.9753 H   0  0  0  0  0  0  0  0  0  0  0  0
    2.0255    5.5953   -3.9767 H   0  0  0  0  0  0  0  0  0  0  0  0
  1  2  1  0  0  0  0 
  2  3  1  0  0  0  0 
  3  4  1  0  0  0  0 
  4  5  2  0  0  0  0 
  5  6  1  0  0  0  0 
  6  7  1  0  0  0  0 
  6  8  1  0  0  0  0 
  8  9  2  0  0  0  0 
  4  9  1  0  0  0  0 
  9 10  1  0  0  0  0 
 10 11  2  0  0  0  0 
 11 12  1  0  0  0  0 
 12 13  1  0  0  0  0 
  8 13  1  0  0  0  0 
 13 14  2  0  0  0  0 
 11 15  1  0  0  0  0 
 15 16  2  0  0  0  0 
 16 17  1  0  0  0  0 
 17 18  2  0  0  0  0 
 18 19  1  0  0  0  0 
 19 20  2  0  0  0  0 
 15 20  1  0  0  0  0 
 20 21  1  0  0  0  0 
 21 22  1  0  0  0  0 
 22 23  1  0  0  0  0 
 17 24  1  0  0  0  0 
 24 25  2  0  0  0  0 
 24 26  2  0  0  0  0 
 24 27  1  0  0  0  0 
 27 28  1  0  0  0  0 
 28 29  1  0  0  0  0 
 29 30  1  0  0  0  0 
 30 31  1  0  0  0  0 
 30 32  1  0  0  0  0 
 32 33  1  0  0  0  0 
 27 33  1  0  0  0  0 
  1 34  1  0  0  0  0 
  1 35  1  0  0  0  0 
  1 36  1  0  0  0  0 
  2 37  1  0  0  0  0 
  2 38  1  0  0  0  0 
  3 39  1  0  0  0  0 
  3 40  1  0  0  0  0 
  7 41  1  0  0  0  0 
  7 42  1  0  0  0  0 
  7 43  1  0  0  0  0 
 12 44  1  0  0  0  0 
 16 45  1  0  0  0  0 
 18 46  1  0  0  0  0 
 19 47  1  0  0  0  0 
 22 48  1  0  0  0  0 
 22 49  1  0  0  0  0 
 23 50  1  0  0  0  0 
 23 51  1  0  0  0  0 
 23 52  1  0  0  0  0 
 28 53  1  0  0  0  0 
 28 54  1  0  0  0  0 
 29 55  1  0  0  0  0 
 29 56  1  0  0  0  0 
 31 57  1  0  0  0  0 
 31 58  1  0  0  0  0 
 31 59  1  0  0  0  0 
 32 60  1  0  0  0  0 
 32 61  1  0  0  0  0 
 33 62  1  0  0  0  0 
 33 63  1  0  0  0  0 
M  END
> <cdk:Title>
sildenafil

> <Conformer>
1

> <SuperDrugID>
SD002195

$$$$
