flutrimazole
  CDK     0628171801

 42 45  0  0  0  0  0  0  0  0999 V2000
   -0.7480   -1.2266   -0.0236 C   0  0  1  0  0  0  0  0  0  0  0  0
   -1.8001   -1.3429   -1.1328 C   0  0  0  0  0  0  0  0  0  0  0  0
   -1.5985   -1.3879    1.2397 C   0  0  0  0  0  0  0  0  0  0  0  0
    0.3411   -2.2233   -0.1311 N   0  0  0  0  0  0  0  0  0  0  0  0
    0.0784    0.0617   -0.0643 C   0  0  0  0  0  0  0  0  0  0  0  0
   -2.7909   -0.3347   -1.3474 C   0  0  0  0  0  0  0  0  0  0  0  0
   -1.8801   -2.4850   -1.9782 C   0  0  0  0  0  0  0  0  0  0  0  0
   -1.9113   -0.3172    2.1250 C   0  0  0  0  0  0  0  0  0  0  0  0
   -2.1821   -2.6484    1.5494 C   0  0  0  0  0  0  0  0  0  0  0  0
    1.1528   -2.4124   -1.2012 C   0  0  0  0  0  0  0  0  0  0  0  0
    0.8176   -3.0869    0.8036 C   0  0  0  0  0  0  0  0  0  0  0  0
    0.9326    0.3808    1.0291 C   0  0  0  0  0  0  0  0  0  0  0  0
    0.1314    0.9378   -1.1844 C   0  0  0  0  0  0  0  0  0  0  0  0
   -2.8752    0.7241   -0.5860 F   0  0  0  0  0  0  0  0  0  0  0  0
   -3.7216   -0.4217   -2.4030 C   0  0  0  0  0  0  0  0  0  0  0  0
   -2.8058   -2.5747   -3.0327 C   0  0  0  0  0  0  0  0  0  0  0  0
   -2.6690   -0.5140    3.2942 C   0  0  0  0  0  0  0  0  0  0  0  0
   -2.9653   -2.8478    2.7018 C   0  0  0  0  0  0  0  0  0  0  0  0
    2.0702   -3.4071   -0.9044 C   0  0  0  0  0  0  0  0  0  0  0  0
    1.8522   -3.8126    0.3495 N   0  0  0  0  0  0  0  0  0  0  0  0
    1.7264    1.5418    1.0420 C   0  0  0  0  0  0  0  0  0  0  0  0
    0.9286    2.0983   -1.1829 C   0  0  0  0  0  0  0  0  0  0  0  0
   -3.7206   -1.5365   -3.2534 C   0  0  0  0  0  0  0  0  0  0  0  0
   -3.1970   -1.7817    3.5869 C   0  0  0  0  0  0  0  0  0  0  0  0
    1.7181    2.4059   -0.0638 C   0  0  0  0  0  0  0  0  0  0  0  0
   -3.9082   -1.9567    4.6683 F   0  0  0  0  0  0  0  0  0  0  0  0
   -1.2680   -3.2875   -1.8372 H   0  0  0  0  0  0  0  0  0  0  0  0
   -1.6062    0.6371    1.9266 H   0  0  0  0  0  0  0  0  0  0  0  0
   -2.0352   -3.4474    0.9285 H   0  0  0  0  0  0  0  0  0  0  0  0
    1.1080   -1.9102   -2.0919 H   0  0  0  0  0  0  0  0  0  0  0  0
    0.4644   -3.1894    1.7551 H   0  0  0  0  0  0  0  0  0  0  0  0
    0.9823   -0.2405    1.8406 H   0  0  0  0  0  0  0  0  0  0  0  0
   -0.3990    0.7391   -2.0325 H   0  0  0  0  0  0  0  0  0  0  0  0
   -4.4028    0.3257   -2.5604 H   0  0  0  0  0  0  0  0  0  0  0  0
   -2.8157   -3.3981   -3.6396 H   0  0  0  0  0  0  0  0  0  0  0  0
   -2.8408    0.2717    3.9275 H   0  0  0  0  0  0  0  0  0  0  0  0
   -3.3646   -3.7706    2.8923 H   0  0  0  0  0  0  0  0  0  0  0  0
    2.7928   -3.7673   -1.5297 H   0  0  0  0  0  0  0  0  0  0  0  0
    2.3115    1.7540    1.8543 H   0  0  0  0  0  0  0  0  0  0  0  0
    0.9387    2.7158   -1.9988 H   0  0  0  0  0  0  0  0  0  0  0  0
   -4.3883   -1.5967   -4.0258 H   0  0  0  0  0  0  0  0  0  0  0  0
    2.2921    3.2517   -0.0584 H   0  0  0  0  0  0  0  0  0  0  0  0
  1  2  1  0  0  0  0 
  1  3  1  0  0  0  0 
  1  4  1  0  0  0  0 
  1  5  1  0  0  0  0 
  2  6  2  0  0  0  0 
  2  7  1  0  0  0  0 
  3  8  2  0  0  0  0 
  3  9  1  0  0  0  0 
  4 10  1  0  0  0  0 
  4 11  1  0  0  0  0 
  5 12  2  0  0  0  0 
  5 13  1  0  0  0  0 
  6 14  1  0  0  0  0 
  6 15  1  0  0  0  0 
  7 16  2  0  0  0  0 
  8 17  1  0  0  0  0 
  9 18  2  0  0  0  0 
 10 19  2  0  0  0  0 
 11 20  2  0  0  0  0 
 12 21  1  0  0  0  0 
 13 22  2  0  0  0  0 
 15 23  2  0  0  0  0 
 16 23  1  0  0  0  0 
 17 24  2  0  0  0  0 
 18 24  1  0  0  0  0 
 19 20  1  0  0  0  0 
 21 25  2  0  0  0  0 
 22 25  1  0  0  0  0 
 24 26  1  0  0  0  0 
  7 27  1  0  0  0  0 
  8 28  1  0  0  0  0 
  9 29  1  0  0  0  0 
 10 30  1  0  0  0  0 
 11 31  1  0  0  0  0 
 12 32  1  0  0  0  0 
 13 33  1  0  0  0  0 
 15 34  1  0  0  0  0 
 16 35  1  0  0  0  0 
 17 36  1  0  0  0  0 
 18 37  1  0  0  0  0 
 19 38  1  0  0  0  0 
 21 39  1  0  0  0  0 
 22 40  1  0  0  0  0 
 23 41  1  0  0  0  0 
 25 42  1  0  0  0  0 
M  END
> <cdk:Title>
flutrimazole

> <Conformer>
1

> <SuperDrugID>
SD001100

$$$$
