eprosartan
  CDK     0628171801

 54 56  0  0  0  0  0  0  0  0999 V2000
    0.2995   -0.2838   -2.2278 C   0  0  2  0  0  0  0  0  0  0  0  0
    0.8297   -1.6302   -2.1754 N   0  0  0  0  0  0  0  0  0  0  0  0
   -1.0127   -0.0840   -1.5528 C   0  0  0  0  0  0  0  0  0  0  0  0
    1.0756   -2.3600   -1.0603 C   0  0  0  0  0  0  0  0  0  0  0  0
    1.2191   -2.4000   -3.2279 C   0  0  0  0  0  0  0  0  0  0  0  0
   -2.1626   -0.7452   -2.0330 C   0  0  0  0  0  0  0  0  0  0  0  0
   -1.1569    0.8062   -0.4630 C   0  0  0  0  0  0  0  0  0  0  0  0
    0.8384   -2.0350    0.2581 C   0  0  0  0  0  0  0  0  0  0  0  0
    1.5968   -3.5820   -1.4622 C   0  0  0  0  0  0  0  0  0  0  0  0
    1.1907   -2.0824   -4.6770 C   0  0  2  0  0  0  0  0  0  0  0  0
    1.6857   -3.5856   -2.7936 N   0  0  0  0  0  0  0  0  0  0  0  0
   -3.4308   -0.4732   -1.4897 C   0  0  0  0  0  0  0  0  0  0  0  0
   -2.4260    1.0788    0.0808 C   0  0  0  0  0  0  0  0  0  0  0  0
    1.5411   -1.1621    1.0208 C   0  0  0  0  0  0  0  0  0  0  0  0
   -0.1997   -2.2473   -5.3475 C   0  0  2  0  0  0  0  0  0  0  0  0
   -3.5915    0.4693   -0.4458 C   0  0  0  0  0  0  0  0  0  0  0  0
    2.7316   -0.4476    0.5206 C   0  0  2  0  0  0  0  0  0  0  0  0
    1.1268   -0.9203    2.3432 C   0  0  0  0  0  0  0  0  0  0  0  0
   -0.8106   -3.6653   -5.1744 C   0  0  1  0  0  0  0  0  0  0  0  0
   -4.8870    0.8080    0.0326 C   0  0  0  0  0  0  0  0  0  0  0  0
    3.9974   -1.0285    1.0074 C   0  0  0  0  0  0  0  0  0  0  0  0
    1.7281    0.0065    3.1290 O   0  0  0  0  0  0  0  0  0  0  0  0
    0.1654   -1.5158    2.8861 O   0  0  0  0  0  0  0  0  0  0  0  0
   -2.1499   -3.8388   -5.9228 C   0  0  0  0  0  0  0  0  0  0  0  0
   -6.0107    0.3368   -0.5628 O   0  0  0  0  0  0  0  0  0  0  0  0
   -5.0564    1.5782    1.0061 O   0  0  0  0  0  0  0  0  0  0  0  0
    4.8189   -1.9410    0.3308 C   0  0  0  0  0  0  0  0  0  0  0  0
    4.8287   -0.6297    2.5022 S   0  0  0  0  0  0  0  0  0  0  0  0
    6.0248   -2.2694    0.9764 C   0  0  0  0  0  0  0  0  0  0  0  0
    6.2329   -1.6349    2.2032 C   0  0  0  0  0  0  0  0  0  0  0  0
    0.1679    0.0461   -3.2588 H   0  0  0  0  0  0  0  0  0  0  0  0
    1.0463    0.3898   -1.8080 H   0  0  0  0  0  0  0  0  0  0  0  0
   -2.0879   -1.4174   -2.7982 H   0  0  0  0  0  0  0  0  0  0  0  0
   -0.3409    1.2789   -0.0659 H   0  0  0  0  0  0  0  0  0  0  0  0
    0.0668   -2.5240    0.6515 H   0  0  0  0  0  0  0  0  0  0  0  0
    1.8763   -4.3525   -0.8511 H   0  0  0  0  0  0  0  0  0  0  0  0
    1.8942   -2.7389   -5.1942 H   0  0  0  0  0  0  0  0  0  0  0  0
    1.5506   -1.0640   -4.8289 H   0  0  0  0  0  0  0  0  0  0  0  0
   -4.2382   -0.9659   -1.8797 H   0  0  0  0  0  0  0  0  0  0  0  0
   -2.4871    1.7443    0.8560 H   0  0  0  0  0  0  0  0  0  0  0  0
   -0.0820   -2.0458   -6.4166 H   0  0  0  0  0  0  0  0  0  0  0  0
   -0.8900   -1.5000   -4.9509 H   0  0  0  0  0  0  0  0  0  0  0  0
    2.6914    0.6068    0.8093 H   0  0  0  0  0  0  0  0  0  0  0  0
    2.7923   -0.4418   -0.5669 H   0  0  0  0  0  0  0  0  0  0  0  0
   -0.1038   -4.4129   -5.5470 H   0  0  0  0  0  0  0  0  0  0  0  0
   -0.9857   -3.8599   -4.1125 H   0  0  0  0  0  0  0  0  0  0  0  0
    1.4122    0.1559    4.0454 H   0  0  0  0  0  0  0  0  0  0  0  0
   -2.5409   -4.8431   -5.7458 H   0  0  0  0  0  0  0  0  0  0  0  0
   -2.0042   -3.7055   -6.9967 H   0  0  0  0  0  0  0  0  0  0  0  0
   -2.8822   -3.1106   -5.5671 H   0  0  0  0  0  0  0  0  0  0  0  0
   -6.8951    0.6092   -0.2397 H   0  0  0  0  0  0  0  0  0  0  0  0
    4.5690   -2.3298   -0.5801 H   0  0  0  0  0  0  0  0  0  0  0  0
    6.7030   -2.9191    0.5745 H   0  0  0  0  0  0  0  0  0  0  0  0
    7.0449   -1.7347    2.8142 H   0  0  0  0  0  0  0  0  0  0  0  0
  1  2  1  0  0  0  0 
  1  3  1  0  0  0  0 
  2  4  1  0  0  0  0 
  2  5  1  0  0  0  0 
  3  6  2  0  0  0  0 
  3  7  1  0  0  0  0 
  4  8  1  0  0  0  0 
  4  9  2  0  0  0  0 
  5 10  1  0  0  0  0 
  5 11  2  0  0  0  0 
  6 12  1  0  0  0  0 
  7 13  2  0  0  0  0 
  8 14  2  0  0  0  0 
  9 11  1  0  0  0  0 
 10 15  1  0  0  0  0 
 12 16  2  0  0  0  0 
 13 16  1  0  0  0  0 
 14 17  1  0  0  0  0 
 14 18  1  0  0  0  0 
 15 19  1  0  0  0  0 
 16 20  1  0  0  0  0 
 17 21  1  0  0  0  0 
 18 22  1  0  0  0  0 
 18 23  2  0  0  0  0 
 19 24  1  0  0  0  0 
 20 25  1  0  0  0  0 
 20 26  2  0  0  0  0 
 21 27  2  0  0  0  0 
 21 28  1  0  0  0  0 
 27 29  1  0  0  0  0 
 28 30  1  0  0  0  0 
 29 30  2  0  0  0  0 
  1 31  1  0  0  0  0 
  1 32  1  0  0  0  0 
  6 33  1  0  0  0  0 
  7 34  1  0  0  0  0 
  8 35  1  0  0  0  0 
  9 36  1  0  0  0  0 
 10 37  1  0  0  0  0 
 10 38  1  0  0  0  0 
 12 39  1  0  0  0  0 
 13 40  1  0  0  0  0 
 15 41  1  0  0  0  0 
 15 42  1  0  0  0  0 
 17 43  1  0  0  0  0 
 17 44  1  0  0  0  0 
 19 45  1  0  0  0  0 
 19 46  1  0  0  0  0 
 22 47  1  0  0  0  0 
 24 48  1  0  0  0  0 
 24 49  1  0  0  0  0 
 24 50  1  0  0  0  0 
 25 51  1  0  0  0  0 
 27 52  1  0  0  0  0 
 29 53  1  0  0  0  0 
 30 54  1  0  0  0  0 
M  END
> <cdk:Title>
eprosartan

> <Conformer>
1

> <SuperDrugID>
SD000923

$$$$
