nikethamide
  CDK     0628171801

 27 27  0  0  0  0  0  0  0  0999 V2000
    3.6383    0.7576   -0.7695 C   0  0  0  0  0  0  0  0  0  0  0  0
    2.5314    0.0307    0.0245 C   0  0  1  0  0  0  0  0  0  0  0  0
    1.7657   -0.8858   -0.8074 N   0  0  0  0  0  0  0  0  0  0  0  0
    2.2283   -2.2629   -0.9050 C   0  0  2  0  0  0  0  0  0  0  0  0
    1.6833   -3.1520    0.2347 C   0  0  0  0  0  0  0  0  0  0  0  0
    0.6349   -0.4330   -1.4836 C   0  0  0  0  0  0  0  0  0  0  0  0
    0.3166    0.7809   -1.4859 O   0  0  0  0  0  0  0  0  0  0  0  0
   -0.2688   -1.2661   -2.1766 C   0  0  0  0  0  0  0  0  0  0  0  0
   -0.1223   -1.5366   -3.5559 C   0  0  0  0  0  0  0  0  0  0  0  0
   -1.0289   -2.3966   -4.2042 C   0  0  0  0  0  0  0  0  0  0  0  0
   -2.0872   -2.9571   -3.4668 C   0  0  0  0  0  0  0  0  0  0  0  0
   -2.2179   -2.6651   -2.1475 N   0  0  0  0  0  0  0  0  0  0  0  0
   -1.3557   -1.8498   -1.4903 C   0  0  0  0  0  0  0  0  0  0  0  0
    4.3435    0.0349   -1.1839 H   0  0  0  0  0  0  0  0  0  0  0  0
    3.2057    1.3435   -1.5826 H   0  0  0  0  0  0  0  0  0  0  0  0
    4.1816    1.4312   -0.1050 H   0  0  0  0  0  0  0  0  0  0  0  0
    3.0022   -0.5010    0.8562 H   0  0  0  0  0  0  0  0  0  0  0  0
    1.8793    0.7797    0.4872 H   0  0  0  0  0  0  0  0  0  0  0  0
    3.3221   -2.2925   -0.8745 H   0  0  0  0  0  0  0  0  0  0  0  0
    1.9510   -2.7166   -1.8607 H   0  0  0  0  0  0  0  0  0  0  0  0
    2.0907   -4.1597    0.1449 H   0  0  0  0  0  0  0  0  0  0  0  0
    0.5970   -3.2116    0.1829 H   0  0  0  0  0  0  0  0  0  0  0  0
    1.9697   -2.7472    1.2056 H   0  0  0  0  0  0  0  0  0  0  0  0
    0.6413   -1.1139   -4.0913 H   0  0  0  0  0  0  0  0  0  0  0  0
   -0.9213   -2.6116   -5.1978 H   0  0  0  0  0  0  0  0  0  0  0  0
   -2.7588   -3.5835   -3.9155 H   0  0  0  0  0  0  0  0  0  0  0  0
   -1.5097   -1.6687   -0.4957 H   0  0  0  0  0  0  0  0  0  0  0  0
  1  2  1  0  0  0  0 
  2  3  1  0  0  0  0 
  3  4  1  0  0  0  0 
  4  5  1  0  0  0  0 
  3  6  1  0  0  0  0 
  6  7  2  0  0  0  0 
  6  8  1  0  0  0  0 
  8  9  2  0  0  0  0 
  9 10  1  0  0  0  0 
 10 11  2  0  0  0  0 
 11 12  1  0  0  0  0 
 12 13  2  0  0  0  0 
  8 13  1  0  0  0  0 
  1 14  1  0  0  0  0 
  1 15  1  0  0  0  0 
  1 16  1  0  0  0  0 
  2 17  1  0  0  0  0 
  2 18  1  0  0  0  0 
  4 19  1  0  0  0  0 
  4 20  1  0  0  0  0 
  5 21  1  0  0  0  0 
  5 22  1  0  0  0  0 
  5 23  1  0  0  0  0 
  9 24  1  0  0  0  0 
 10 25  1  0  0  0  0 
 11 26  1  0  0  0  0 
 13 27  1  0  0  0  0 
M  END
> <cdk:Title>
nikethamide

> <Conformer>
1

> <SuperDrugID>
SD002913

$$$$
