allomethadione
  CDK     0628171801

 20 20  0  0  0  0  0  0  0  0999 V2000
    3.2826   -1.9237   -3.1730 O   0  0  0  0  0  0  0  0  0  0  0  0
    2.0000   -2.2239   -3.4676 C   0  0  0  0  0  0  0  0  0  0  0  0
    1.2491   -2.0989   -2.3034 C   0  0  0  0  0  0  0  0  0  0  0  0
   -0.0820   -2.3346   -2.2083 O   0  0  0  0  0  0  0  0  0  0  0  0
    2.0783   -1.7127   -1.3146 N   0  0  0  0  0  0  0  0  0  0  0  0
    1.7124   -1.4333    0.0467 C   0  0  1  0  0  0  0  0  0  0  0  0
    1.1577   -0.0960    0.1655 C   0  0  0  0  0  0  0  0  0  0  0  0
   -0.0485    0.1707    0.6784 C   0  0  0  0  0  0  0  0  0  0  0  0
    3.3133   -1.6187   -1.8561 C   0  0  0  0  0  0  0  0  0  0  0  0
    4.3624   -1.2850   -1.2599 O   0  0  0  0  0  0  0  0  0  0  0  0
    1.5062   -2.6181   -4.7917 C   0  0  0  0  0  0  0  0  0  0  0  0
   -0.2192   -2.6826   -1.3028 H   0  0  0  0  0  0  0  0  0  0  0  0
    1.0177   -2.1995    0.4034 H   0  0  0  0  0  0  0  0  0  0  0  0
    2.5894   -1.4840    0.6967 H   0  0  0  0  0  0  0  0  0  0  0  0
    1.7139    0.6672   -0.1485 H   0  0  0  0  0  0  0  0  0  0  0  0
   -0.6398   -0.5525    1.0111 H   0  0  0  0  0  0  0  0  0  0  0  0
   -0.3684    1.1073    0.7398 H   0  0  0  0  0  0  0  0  0  0  0  0
    1.0847   -3.6228   -4.7411 H   0  0  0  0  0  0  0  0  0  0  0  0
    2.3252   -2.6123   -5.5119 H   0  0  0  0  0  0  0  0  0  0  0  0
    0.7368   -1.9197   -5.1239 H   0  0  0  0  0  0  0  0  0  0  0  0
  2  1  1  0  0  0  0 
  2  3  2  0  0  0  0 
  3  4  1  0  0  0  0 
  3  5  1  0  0  0  0 
  5  6  1  0  0  0  0 
  6  7  1  0  0  0  0 
  7  8  2  0  0  0  0 
  5  9  1  0  0  0  0 
  1  9  1  0  0  0  0 
  9 10  2  0  0  0  0 
  2 11  1  0  0  0  0 
 12  4  1  0  0  0  0 
 13  6  1  0  0  0  0 
 14  6  1  0  0  0  0 
 15  7  1  0  0  0  0 
 16  8  1  0  0  0  0 
 17  8  1  0  0  0  0 
 18 11  1  0  0  0  0 
 19 11  1  0  0  0  0 
 20 11  1  0  0  0  0 
M  END
> <cdk:Title>
allomethadione

> <Conformer>
1

> <SuperDrugID>
SD003136

$$$$
