spiperone
  CDK     0628171801

 55 58  0  0  0  0  0  0  0  0999 V2000
   -4.5720   -6.3479    1.9149 C   0  0  0  0  0  0  0  0  0  0  0  0
   -3.8800   -7.1012    0.9503 C   0  0  0  0  0  0  0  0  0  0  0  0
   -3.9410   -6.7256   -0.4025 C   0  0  0  0  0  0  0  0  0  0  0  0
   -4.6926   -5.5997   -0.7868 C   0  0  0  0  0  0  0  0  0  0  0  0
   -5.4067   -4.8214    0.1637 C   0  0  0  0  0  0  0  0  0  0  0  0
   -5.3228   -5.2221    1.5243 C   0  0  0  0  0  0  0  0  0  0  0  0
   -6.1845   -3.6788   -0.2256 C   0  0  0  0  0  0  0  0  0  0  0  0
   -6.5000   -3.3715   -1.6503 C   0  0  1  0  0  0  0  0  0  0  0  0
   -6.6215   -2.9028    0.6591 O   0  0  0  0  0  0  0  0  0  0  0  0
   -7.5050   -2.2132   -1.9215 C   0  0  1  0  0  0  0  0  0  0  0  0
   -7.8204   -2.0664   -3.4408 C   0  0  2  0  0  0  0  0  0  0  0  0
   -8.7158   -0.9170   -3.8129 N   0  0  2  0  0  0  0  0  0  0  0  0
  -10.1259   -0.9616   -3.3102 C   0  0  2  0  0  0  0  0  0  0  0  0
   -8.6845   -0.5496   -5.2651 C   0  0  1  0  0  0  0  0  0  0  0  0
   -9.5220   -1.5104   -6.1581 C   0  0  1  0  0  0  0  0  0  0  0  0
  -10.9993   -1.6991   -5.6641 C   0  0  1  0  0  0  0  0  0  0  0  0
  -11.0475   -1.9222   -4.1107 C   0  0  2  0  0  0  0  0  0  0  0  0
  -11.9215   -0.6813   -6.1535 N   0  0  0  0  0  0  0  0  0  0  0  0
  -11.5993   -2.8771   -6.3378 C   0  0  0  0  0  0  0  0  0  0  0  0
  -12.6738   -2.5657   -7.0521 N   0  0  0  0  0  0  0  0  0  0  0  0
  -12.9732   -1.1999   -6.9758 C   0  0  1  0  0  0  0  0  0  0  0  0
  -11.8811    0.6725   -5.9274 C   0  0  0  0  0  0  0  0  0  0  0  0
  -11.2293    1.5434   -6.8340 C   0  0  0  0  0  0  0  0  0  0  0  0
  -11.2669    2.9398   -6.6458 C   0  0  0  0  0  0  0  0  0  0  0  0
  -11.9515    3.4815   -5.5435 C   0  0  0  0  0  0  0  0  0  0  0  0
  -12.5937    2.6266   -4.6302 C   0  0  0  0  0  0  0  0  0  0  0  0
  -12.5746    1.2335   -4.8319 C   0  0  0  0  0  0  0  0  0  0  0  0
  -11.1855   -4.0562   -6.2538 O   0  0  0  0  0  0  0  0  0  0  0  0
   -3.1818   -8.1445    1.3081 F   0  0  0  0  0  0  0  0  0  0  0  0
   -4.5319   -6.6157    2.9025 H   0  0  0  0  0  0  0  0  0  0  0  0
   -3.4377   -7.2685   -1.1114 H   0  0  0  0  0  0  0  0  0  0  0  0
   -4.6999   -5.3597   -1.7799 H   0  0  0  0  0  0  0  0  0  0  0  0
   -5.8122   -4.6987    2.2535 H   0  0  0  0  0  0  0  0  0  0  0  0
   -5.5587   -3.1360   -2.1565 H   0  0  0  0  0  0  0  0  0  0  0  0
   -6.9197   -4.2782   -2.0972 H   0  0  0  0  0  0  0  0  0  0  0  0
   -8.4241   -2.4245   -1.3698 H   0  0  0  0  0  0  0  0  0  0  0  0
   -7.0833   -1.2739   -1.5513 H   0  0  0  0  0  0  0  0  0  0  0  0
   -8.2485   -3.0032   -3.8059 H   0  0  0  0  0  0  0  0  0  0  0  0
   -6.8553   -1.9309   -3.9407 H   0  0  0  0  0  0  0  0  0  0  0  0
  -10.5353    0.0464   -3.3631 H   0  0  0  0  0  0  0  0  0  0  0  0
  -10.1546   -1.2358   -2.2545 H   0  0  0  0  0  0  0  0  0  0  0  0
   -9.0607    0.4683   -5.3714 H   0  0  0  0  0  0  0  0  0  0  0  0
   -7.6547   -0.5274   -5.6333 H   0  0  0  0  0  0  0  0  0  0  0  0
   -9.5178   -1.1418   -7.1889 H   0  0  0  0  0  0  0  0  0  0  0  0
   -9.0060   -2.4777   -6.1614 H   0  0  0  0  0  0  0  0  0  0  0  0
  -12.0732   -1.8159   -3.7484 H   0  0  0  0  0  0  0  0  0  0  0  0
  -10.7289   -2.9393   -3.8637 H   0  0  0  0  0  0  0  0  0  0  0  0
  -13.1921   -3.2079   -7.5618 H   0  0  0  0  0  0  0  0  0  0  0  0
  -13.9529   -1.0599   -6.5138 H   0  0  0  0  0  0  0  0  0  0  0  0
  -12.9651   -0.7710   -7.9808 H   0  0  0  0  0  0  0  0  0  0  0  0
  -10.7328    1.1673   -7.6459 H   0  0  0  0  0  0  0  0  0  0  0  0
  -10.8009    3.5637   -7.3112 H   0  0  0  0  0  0  0  0  0  0  0  0
  -11.9834    4.4953   -5.4097 H   0  0  0  0  0  0  0  0  0  0  0  0
  -13.0798    3.0208   -3.8228 H   0  0  0  0  0  0  0  0  0  0  0  0
  -13.0786    0.6296   -4.1784 H   0  0  0  0  0  0  0  0  0  0  0  0
  1  2  2  0  0  0  0 
  2  3  1  0  0  0  0 
  3  4  2  0  0  0  0 
  4  5  1  0  0  0  0 
  5  6  2  0  0  0  0 
  1  6  1  0  0  0  0 
  5  7  1  0  0  0  0 
  7  8  1  0  0  0  0 
  7  9  2  0  0  0  0 
  8 10  1  0  0  0  0 
 10 11  1  0  0  0  0 
 11 12  1  0  0  0  0 
 14 15  1  0  0  0  0 
 15 16  1  0  0  0  0 
 16 17  1  0  0  0  0 
 13 17  1  0  0  0  0 
 13 12  1  0  0  0  0 
 12 14  1  0  0  0  0 
 19 20  1  0  0  0  0 
 20 21  1  0  0  0  0 
 18 21  1  0  0  0  0 
 18 16  1  0  0  0  0 
 16 19  1  0  0  0  0 
 18 22  1  0  0  0  0 
 23 24  1  0  0  0  0 
 24 25  2  0  0  0  0 
 25 26  1  0  0  0  0 
 26 27  2  0  0  0  0 
 22 23  2  0  0  0  0 
 22 27  1  0  0  0  0 
 19 28  2  0  0  0  0 
  2 29  1  0  0  0  0 
 30  1  1  0  0  0  0 
 31  3  1  0  0  0  0 
 32  4  1  0  0  0  0 
 33  6  1  0  0  0  0 
 34  8  1  0  0  0  0 
 35  8  1  0  0  0  0 
 36 10  1  0  0  0  0 
 37 10  1  0  0  0  0 
 38 11  1  0  0  0  0 
 39 11  1  0  0  0  0 
 40 13  1  0  0  0  0 
 41 13  1  0  0  0  0 
 42 14  1  0  0  0  0 
 43 14  1  0  0  0  0 
 44 15  1  0  0  0  0 
 45 15  1  0  0  0  0 
 46 17  1  0  0  0  0 
 47 17  1  0  0  0  0 
 48 20  1  0  0  0  0 
 49 21  1  0  0  0  0 
 50 21  1  0  0  0  0 
 51 23  1  0  0  0  0 
 52 24  1  0  0  0  0 
 53 25  1  0  0  0  0 
 54 26  1  0  0  0  0 
 55 27  1  0  0  0  0 
M  END
> <cdk:Title>
spiperone

> <Conformer>
1

> <SuperDrugID>
SD002218

$$$$
