cloprednol
  CDK     0628171802

 52 55  0  0  0  0  0  0  0  0999 V2000
    3.7277   -0.4698   -0.1702 C   0  0  0  0  0  0  0  0  0  0  0  0
    2.5860   -1.4089    0.3883 C   0  0  2  0  0  0  0  0  0  0  0  0
    2.8564   -2.9495    0.2323 C   0  0  2  0  0  0  0  0  0  0  0  0
    1.3062   -1.2622   -0.5308 C   0  0  2  0  0  0  0  0  0  0  0  0
    2.4070   -1.1372    1.9297 C   0  0  2  0  0  0  0  0  0  0  0  0
    4.1336   -3.4318    1.0000 C   0  0  1  0  0  0  0  0  0  0  0  0
    2.7286   -3.2018   -1.2856 C   0  0  1  0  0  0  0  0  0  0  0  0
    0.9065    0.1354   -0.9195 C   0  0  0  0  0  0  0  0  0  0  0  0
    0.1536   -1.8199    0.1182 O   0  0  0  0  0  0  0  0  0  0  0  0
    1.6395   -2.2016   -1.7469 C   0  0  2  0  0  0  0  0  0  0  0  0
    3.5780   -1.6673    2.8264 C   0  0  1  0  0  0  0  0  0  0  0  0
    3.9360   -3.1722    2.5436 C   0  0  2  0  0  0  0  0  0  0  0  0
    4.5264   -4.8116    0.7205 C   0  0  0  0  0  0  0  0  0  0  0  0
    0.3374    1.1260    0.0220 C   0  0  1  0  0  0  0  0  0  0  0  0
    0.9851    0.5139   -2.1128 O   0  0  0  0  0  0  0  0  0  0  0  0
    4.7177   -0.8213    2.7196 O   0  0  0  0  0  0  0  0  0  0  0  0
    5.1090   -3.8600    3.3691 C   0  0  2  0  0  0  0  0  0  0  0  0
    4.9967   -5.6655    1.6529 C   0  0  0  0  0  0  0  0  0  0  0  0
    1.0607    2.3527   -0.0469 O   0  0  0  0  0  0  0  0  0  0  0  0
    6.5479   -3.3168    3.0435 C   0  0  0  0  0  0  0  0  0  0  0  0
    5.0682   -5.3181    2.9953 C   0  0  0  0  0  0  0  0  0  0  0  0
    4.9446   -3.6259    4.8230 C   0  0  0  0  0  0  0  0  0  0  0  0
    5.5281   -7.1511    1.0889 Cl  0  0  0  0  0  0  0  0  0  0  0  0
    5.0642   -6.2619    3.9689 C   0  0  0  0  0  0  0  0  0  0  0  0
    4.9730   -4.6183    5.7258 C   0  0  0  0  0  0  0  0  0  0  0  0
    5.1043   -5.9309    5.3163 C   0  0  0  0  0  0  0  0  0  0  0  0
    5.2552   -6.8295    6.1767 O   0  0  0  0  0  0  0  0  0  0  0  0
    4.9805   -2.8439    0.6466 H   0  0  0  0  0  0  0  0  0  0  0  0
    3.0232   -3.7121    2.8387 H   0  0  0  0  0  0  0  0  0  0  0  0
    2.0234   -3.5131    0.6786 H   0  0  0  0  0  0  0  0  0  0  0  0
    4.7038   -0.6889    0.2479 H   0  0  0  0  0  0  0  0  0  0  0  0
    3.8312   -0.5450   -1.2518 H   0  0  0  0  0  0  0  0  0  0  0  0
    3.5064    0.5722    0.0655 H   0  0  0  0  0  0  0  0  0  0  0  0
    1.4884   -1.6168    2.2785 H   0  0  0  0  0  0  0  0  0  0  0  0
    2.2902   -0.0677    2.1137 H   0  0  0  0  0  0  0  0  0  0  0  0
    3.6814   -3.0029   -1.7861 H   0  0  0  0  0  0  0  0  0  0  0  0
    2.4293   -4.2314   -1.5021 H   0  0  0  0  0  0  0  0  0  0  0  0
   -0.5729   -1.7631   -0.5388 H   0  0  0  0  0  0  0  0  0  0  0  0
    2.0425   -1.6480   -2.5982 H   0  0  0  0  0  0  0  0  0  0  0  0
    0.7449   -2.7281   -2.0954 H   0  0  0  0  0  0  0  0  0  0  0  0
    3.2382   -1.5782    3.8604 H   0  0  0  0  0  0  0  0  0  0  0  0
    4.4910   -5.1086   -0.2277 H   0  0  0  0  0  0  0  0  0  0  0  0
   -0.7020    1.3207   -0.2515 H   0  0  0  0  0  0  0  0  0  0  0  0
    0.3560    0.7690    1.0512 H   0  0  0  0  0  0  0  0  0  0  0  0
    4.4073    0.0678    2.9887 H   0  0  0  0  0  0  0  0  0  0  0  0
    0.5569    2.9794    0.5152 H   0  0  0  0  0  0  0  0  0  0  0  0
    6.6551   -2.2610    3.2932 H   0  0  0  0  0  0  0  0  0  0  0  0
    6.8086   -3.4344    1.9910 H   0  0  0  0  0  0  0  0  0  0  0  0
    7.2970   -3.8574    3.6286 H   0  0  0  0  0  0  0  0  0  0  0  0
    4.8496   -2.6953    5.1601 H   0  0  0  0  0  0  0  0  0  0  0  0
    5.0239   -7.2290    3.7409 H   0  0  0  0  0  0  0  0  0  0  0  0
    4.9058   -4.4046    6.6955 H   0  0  0  0  0  0  0  0  0  0  0  0
  2  1  1  0  0  0  0 
  3  2  1  0  0  0  0 
  2  4  1  0  0  0  0 
  2  5  1  0  0  0  0 
  6  3  1  0  0  0  0 
  3  7  1  0  0  0  0 
  3 30  1  0  0  0  0 
  4  8  1  0  0  0  0 
  4  9  1  0  0  0  0 
  4 10  1  0  0  0  0 
 11  5  1  0  0  0  0 
 12  6  1  0  0  0  0 
  6 13  1  0  0  0  0 
  6 28  1  0  0  0  0 
  7 10  1  0  0  0  0 
  8 14  1  0  0  0  0 
  8 15  2  0  0  0  0 
 12 11  1  0  0  0  0 
 11 16  1  0  0  0  0 
 12 17  1  0  0  0  0 
 12 29  1  0  0  0  0 
 13 18  2  0  0  0  0 
 14 19  1  0  0  0  0 
 17 20  1  0  0  0  0 
 17 21  1  0  0  0  0 
 17 22  1  0  0  0  0 
 18 21  1  0  0  0  0 
 18 23  1  0  0  0  0 
 21 24  2  0  0  0  0 
 22 25  2  0  0  0  0 
 24 26  1  0  0  0  0 
 25 26  1  0  0  0  0 
 26 27  2  0  0  0  0 
  1 31  1  0  0  0  0 
  1 32  1  0  0  0  0 
  1 33  1  0  0  0  0 
  5 34  1  0  0  0  0 
  5 35  1  0  0  0  0 
  7 36  1  0  0  0  0 
  7 37  1  0  0  0  0 
  9 38  1  0  0  0  0 
 10 39  1  0  0  0  0 
 10 40  1  0  0  0  0 
 11 41  1  0  0  0  0 
 13 42  1  0  0  0  0 
 14 43  1  0  0  0  0 
 14 44  1  0  0  0  0 
 16 45  1  0  0  0  0 
 19 46  1  0  0  0  0 
 20 47  1  0  0  0  0 
 20 48  1  0  0  0  0 
 20 49  1  0  0  0  0 
 22 50  1  0  0  0  0 
 24 51  1  0  0  0  0 
 25 52  1  0  0  0  0 
M  END
> <cdk:Title>
cloprednol

> <Conformer>
1

> <SuperDrugID>
SD000626

$$$$
