bupranolol
  CDK     0628171801

 40 40  0  0  0  0  0  0  0  0999 V2000
   -3.0582   -0.2131    2.2994 O   0  0  0  0  0  0  0  0  0  0  0  0
   -2.9699   -0.3218    0.8620 C   0  0  1  0  0  0  0  0  0  0  0  0
   -3.3020    1.0776    2.6999 C   0  0  0  0  0  0  0  0  0  0  0  0
   -2.6404   -1.7778    0.4509 C   0  0  1  0  0  0  0  0  0  0  0  0
   -2.2455    1.9716    2.9880 C   0  0  0  0  0  0  0  0  0  0  0  0
   -4.6357    1.5227    2.8084 C   0  0  0  0  0  0  0  0  0  0  0  0
   -2.6023   -1.9760   -1.0880 C   0  0  1  0  0  0  0  0  0  0  0  0
   -1.3884   -2.1560    1.0235 O   0  0  0  0  0  0  0  0  0  0  0  0
   -0.6308    1.4612    2.9254 Cl  0  0  0  0  0  0  0  0  0  0  0  0
   -2.5317    3.3095    3.3226 C   0  0  0  0  0  0  0  0  0  0  0  0
   -4.9335    2.8652    3.1343 C   0  0  0  0  0  0  0  0  0  0  0  0
   -1.5709   -1.1077   -1.7150 N   0  0  2  0  0  0  0  0  0  0  0  0
   -3.8644    3.7531    3.3898 C   0  0  0  0  0  0  0  0  0  0  0  0
   -6.3402    3.3244    3.2087 C   0  0  0  0  0  0  0  0  0  0  0  0
   -1.3949   -1.1053   -3.2002 C   0  0  2  0  0  0  0  0  0  0  0  0
   -2.6658   -0.5564   -3.9225 C   0  0  0  0  0  0  0  0  0  0  0  0
   -1.0163   -2.5232   -3.7341 C   0  0  0  0  0  0  0  0  0  0  0  0
   -0.2079   -0.1311   -3.4830 C   0  0  0  0  0  0  0  0  0  0  0  0
   -3.9196   -0.0312    0.4008 H   0  0  0  0  0  0  0  0  0  0  0  0
   -2.1794    0.3337    0.4835 H   0  0  0  0  0  0  0  0  0  0  0  0
   -3.4068   -2.4421    0.8595 H   0  0  0  0  0  0  0  0  0  0  0  0
   -5.3934    0.8591    2.6319 H   0  0  0  0  0  0  0  0  0  0  0  0
   -2.3787   -3.0261   -1.2914 H   0  0  0  0  0  0  0  0  0  0  0  0
   -3.5907   -1.7504   -1.4954 H   0  0  0  0  0  0  0  0  0  0  0  0
   -1.2775   -3.1033    0.7971 H   0  0  0  0  0  0  0  0  0  0  0  0
   -1.7734    3.9699    3.5121 H   0  0  0  0  0  0  0  0  0  0  0  0
   -0.6752   -1.3874   -1.3115 H   0  0  0  0  0  0  0  0  0  0  0  0
   -4.0486    4.7306    3.6250 H   0  0  0  0  0  0  0  0  0  0  0  0
   -6.4192    4.3924    2.9972 H   0  0  0  0  0  0  0  0  0  0  0  0
   -6.9607    2.7941    2.4832 H   0  0  0  0  0  0  0  0  0  0  0  0
   -6.7293    3.1342    4.2095 H   0  0  0  0  0  0  0  0  0  0  0  0
   -2.9486    0.4152   -3.5091 H   0  0  0  0  0  0  0  0  0  0  0  0
   -3.5116   -1.2366   -3.8106 H   0  0  0  0  0  0  0  0  0  0  0  0
   -2.4777   -0.4326   -4.9922 H   0  0  0  0  0  0  0  0  0  0  0  0
   -1.8486   -3.2205   -3.6268 H   0  0  0  0  0  0  0  0  0  0  0  0
   -0.7528   -2.4806   -4.7935 H   0  0  0  0  0  0  0  0  0  0  0  0
   -0.1612   -2.9219   -3.1827 H   0  0  0  0  0  0  0  0  0  0  0  0
   -0.0032   -0.0694   -4.5554 H   0  0  0  0  0  0  0  0  0  0  0  0
   -0.4377    0.8746   -3.1222 H   0  0  0  0  0  0  0  0  0  0  0  0
    0.7016   -0.4714   -2.9820 H   0  0  0  0  0  0  0  0  0  0  0  0
  1  2  1  0  0  0  0 
  1  3  1  0  0  0  0 
  4  2  1  0  0  0  0 
  3  5  2  0  0  0  0 
  3  6  1  0  0  0  0 
  4  7  1  0  0  0  0 
  4  8  1  0  0  0  0 
  5  9  1  0  0  0  0 
  5 10  1  0  0  0  0 
  6 11  2  0  0  0  0 
  7 12  1  0  0  0  0 
 10 13  2  0  0  0  0 
 11 13  1  0  0  0  0 
 11 14  1  0  0  0  0 
 12 15  1  0  0  0  0 
 15 16  1  0  0  0  0 
 15 17  1  0  0  0  0 
 15 18  1  0  0  0  0 
  2 19  1  0  0  0  0 
  2 20  1  0  0  0  0 
  4 21  1  0  0  0  0 
  6 22  1  0  0  0  0 
  7 23  1  0  0  0  0 
  7 24  1  0  0  0  0 
  8 25  1  0  0  0  0 
 10 26  1  0  0  0  0 
 12 27  1  0  0  0  0 
 13 28  1  0  0  0  0 
 14 29  1  0  0  0  0 
 14 30  1  0  0  0  0 
 14 31  1  0  0  0  0 
 16 32  1  0  0  0  0 
 16 33  1  0  0  0  0 
 16 34  1  0  0  0  0 
 17 35  1  0  0  0  0 
 17 36  1  0  0  0  0 
 17 37  1  0  0  0  0 
 18 38  1  0  0  0  0 
 18 39  1  0  0  0  0 
 18 40  1  0  0  0  0 
M  END
> <cdk:Title>
bupranolol

> <Conformer>
1

> <SuperDrugID>
SD000375

$$$$
