perflubron
  CDK     0628171801

 26 25  0  0  0  0  0  0  0  0999 V2000
   -2.8645   -2.6975   -4.8043 C   0  0  2  0  0  0  0  0  0  0  0  0
   -2.9540   -2.9313   -6.3627 C   0  0  2  0  0  0  0  0  0  0  0  0
   -3.1427   -1.2195   -4.3219 C   0  0  2  0  0  0  0  0  0  0  0  0
   -1.6106   -3.0747   -4.3821 F   0  0  0  0  0  0  0  0  0  0  0  0
   -3.7667   -3.5296   -4.1789 F   0  0  0  0  0  0  0  0  0  0  0  0
   -2.3950   -4.2825   -6.9585 C   0  0  1  0  0  0  0  0  0  0  0  0
   -2.2666   -1.9180   -7.0008 F   0  0  0  0  0  0  0  0  0  0  0  0
   -4.2631   -2.7751   -6.7704 F   0  0  0  0  0  0  0  0  0  0  0  0
   -3.2558   -0.9558   -2.7730 C   0  0  2  0  0  0  0  0  0  0  0  0
   -4.3217   -0.7870   -4.8938 F   0  0  0  0  0  0  0  0  0  0  0  0
   -2.1758   -0.3762   -4.8279 F   0  0  0  0  0  0  0  0  0  0  0  0
   -3.0549   -5.6292   -6.4838 C   0  0  2  0  0  0  0  0  0  0  0  0
   -2.5280   -4.1940   -8.3302 F   0  0  0  0  0  0  0  0  0  0  0  0
   -1.0346   -4.3473   -6.7425 F   0  0  0  0  0  0  0  0  0  0  0  0
   -1.9917   -1.2563   -1.9025 C   0  0  1  0  0  0  0  0  0  0  0  0
   -4.3308   -1.6406   -2.2488 F   0  0  0  0  0  0  0  0  0  0  0  0
   -3.5754    0.3755   -2.5959 F   0  0  0  0  0  0  0  0  0  0  0  0
   -2.5789   -6.9100   -7.2475 C   0  0  2  0  0  0  0  0  0  0  0  0
   -4.4253   -5.5479   -6.6050 F   0  0  0  0  0  0  0  0  0  0  0  0
   -2.7877   -5.8410   -5.1492 F   0  0  0  0  0  0  0  0  0  0  0  0
   -2.1578   -0.5429   -0.1143 Br  0  0  0  0  0  0  0  0  0  0  0  0
   -1.7809   -2.6035   -1.7386 F   0  0  0  0  0  0  0  0  0  0  0  0
   -0.8544   -0.7015   -2.4401 F   0  0  0  0  0  0  0  0  0  0  0  0
   -3.2089   -8.0333   -6.7629 F   0  0  0  0  0  0  0  0  0  0  0  0
   -1.2265   -7.1167   -7.1077 F   0  0  0  0  0  0  0  0  0  0  0  0
   -2.8606   -6.8592   -8.5922 F   0  0  0  0  0  0  0  0  0  0  0  0
  1  2  1  0  0  0  0 
  1  3  1  0  0  0  0 
  1  4  1  0  0  0  0 
  1  5  1  0  0  0  0 
  2  6  1  0  0  0  0 
  2  7  1  0  0  0  0 
  2  8  1  0  0  0  0 
  3  9  1  0  0  0  0 
  3 10  1  0  0  0  0 
  3 11  1  0  0  0  0 
  6 12  1  0  0  0  0 
  6 13  1  0  0  0  0 
  6 14  1  0  0  0  0 
  9 15  1  0  0  0  0 
  9 16  1  0  0  0  0 
  9 17  1  0  0  0  0 
 12 18  1  0  0  0  0 
 12 19  1  0  0  0  0 
 12 20  1  0  0  0  0 
 15 21  1  0  0  0  0 
 15 22  1  0  0  0  0 
 15 23  1  0  0  0  0 
 18 24  1  0  0  0  0 
 18 25  1  0  0  0  0 
 18 26  1  0  0  0  0 
M  END
> <cdk:Title>
perflubron

> <Conformer>
1

> <SuperDrugID>
SD001884

$$$$
