cinepazide
  CDK     0628171802

 61 63  0  0  0  0  0  0  0  0999 V2000
    3.3174   -0.5606   -3.4017 O   0  0  0  0  0  0  0  0  0  0  0  0
    3.0901    0.1628   -2.1776 C   0  0  0  0  0  0  0  0  0  0  0  0
    2.5905   -1.7193   -3.5003 C   0  0  0  0  0  0  0  0  0  0  0  0
    1.2801   -1.6985   -4.0286 C   0  0  0  0  0  0  0  0  0  0  0  0
    3.1707   -2.9460   -3.1141 C   0  0  0  0  0  0  0  0  0  0  0  0
    0.6978   -0.5111   -4.3835 O   0  0  0  0  0  0  0  0  0  0  0  0
    0.5546   -2.9029   -4.1550 C   0  0  0  0  0  0  0  0  0  0  0  0
    2.4493   -4.1623   -3.2127 C   0  0  0  0  0  0  0  0  0  0  0  0
    0.8780   -0.1792   -5.7706 C   0  0  0  0  0  0  0  0  0  0  0  0
   -0.7006   -2.9065   -4.7006 O   0  0  0  0  0  0  0  0  0  0  0  0
    1.1431   -4.1183   -3.7607 C   0  0  0  0  0  0  0  0  0  0  0  0
    3.0383   -5.3600   -2.7972 C   0  0  0  0  0  0  0  0  0  0  0  0
   -1.7484   -2.8327   -3.7192 C   0  0  0  0  0  0  0  0  0  0  0  0
    2.3722   -6.3786   -2.2122 C   0  0  0  0  0  0  0  0  0  0  0  0
    2.9292   -7.6068   -1.8409 C   0  0  0  0  0  0  0  0  0  0  0  0
    4.1632   -7.5932   -1.5957 O   0  0  0  0  0  0  0  0  0  0  0  0
    2.2294   -8.8179   -1.7455 N   0  0  0  0  0  0  0  0  0  0  0  0
    0.7986   -8.9654   -1.9788 C   0  0  2  0  0  0  0  0  0  0  0  0
    2.9039  -10.0715   -1.4272 C   0  0  1  0  0  0  0  0  0  0  0  0
    0.1199   -9.6102   -0.7447 C   0  0  2  0  0  0  0  0  0  0  0  0
    2.2260  -10.8136   -0.2453 C   0  0  2  0  0  0  0  0  0  0  0  0
    0.7515  -10.9362   -0.4662 N   0  0  1  0  0  0  0  0  0  0  0  0
    0.0284  -11.7494    0.5602 C   0  0  1  0  0  0  0  0  0  0  0  0
    0.3600  -13.1960    0.4697 C   0  0  0  0  0  0  0  0  0  0  0  0
    0.8963  -13.7138    1.4804 O   0  0  0  0  0  0  0  0  0  0  0  0
    0.1154  -13.9761   -0.6480 N   0  0  0  0  0  0  0  0  0  0  0  0
    0.4302  -15.3741   -0.7016 C   0  0  1  0  0  0  0  0  0  0  0  0
   -0.4609  -13.4973   -1.8683 C   0  0  1  0  0  0  0  0  0  0  0  0
    0.1040  -15.8304   -2.1361 C   0  0  1  0  0  0  0  0  0  0  0  0
   -0.8678  -14.7596   -2.6476 C   0  0  1  0  0  0  0  0  0  0  0  0
    3.6818    1.0791   -2.2067 H   0  0  0  0  0  0  0  0  0  0  0  0
    2.0398    0.4448   -2.0646 H   0  0  0  0  0  0  0  0  0  0  0  0
    3.4079   -0.4188   -1.3082 H   0  0  0  0  0  0  0  0  0  0  0  0
    4.1294   -2.9441   -2.7523 H   0  0  0  0  0  0  0  0  0  0  0  0
    0.3931    0.7798   -5.9545 H   0  0  0  0  0  0  0  0  0  0  0  0
    1.9362   -0.0796   -6.0246 H   0  0  0  0  0  0  0  0  0  0  0  0
    0.4141   -0.9240   -6.4216 H   0  0  0  0  0  0  0  0  0  0  0  0
    0.6049   -4.9787   -3.8922 H   0  0  0  0  0  0  0  0  0  0  0  0
    4.0190   -5.4574   -2.9462 H   0  0  0  0  0  0  0  0  0  0  0  0
   -2.7011   -2.8075   -4.2485 H   0  0  0  0  0  0  0  0  0  0  0  0
   -1.7440   -3.7079   -3.0639 H   0  0  0  0  0  0  0  0  0  0  0  0
   -1.6710   -1.9246   -3.1163 H   0  0  0  0  0  0  0  0  0  0  0  0
    1.4112   -6.2384   -2.0311 H   0  0  0  0  0  0  0  0  0  0  0  0
    0.6425   -9.6077   -2.8503 H   0  0  0  0  0  0  0  0  0  0  0  0
    0.2722   -8.0398   -2.1949 H   0  0  0  0  0  0  0  0  0  0  0  0
    2.8660  -10.7157   -2.3094 H   0  0  0  0  0  0  0  0  0  0  0  0
    3.9607   -9.9500   -1.1793 H   0  0  0  0  0  0  0  0  0  0  0  0
   -0.9433   -9.7325   -0.9661 H   0  0  0  0  0  0  0  0  0  0  0  0
    0.2129   -8.9426    0.1190 H   0  0  0  0  0  0  0  0  0  0  0  0
    2.4297  -10.2777    0.6862 H   0  0  0  0  0  0  0  0  0  0  0  0
    2.6752  -11.8066   -0.1666 H   0  0  0  0  0  0  0  0  0  0  0  0
    0.2465  -11.3595    1.5599 H   0  0  0  0  0  0  0  0  0  0  0  0
   -1.0529  -11.6652    0.4254 H   0  0  0  0  0  0  0  0  0  0  0  0
    1.4859  -15.5542   -0.4780 H   0  0  0  0  0  0  0  0  0  0  0  0
   -0.1860  -15.9220    0.0160 H   0  0  0  0  0  0  0  0  0  0  0  0
   -1.3407  -12.8725   -1.6967 H   0  0  0  0  0  0  0  0  0  0  0  0
    0.2859  -12.9287   -2.4313 H   0  0  0  0  0  0  0  0  0  0  0  0
    1.0123  -15.8350   -2.7456 H   0  0  0  0  0  0  0  0  0  0  0  0
   -0.3469  -16.8269   -2.1554 H   0  0  0  0  0  0  0  0  0  0  0  0
   -1.8973  -15.0380   -2.3989 H   0  0  0  0  0  0  0  0  0  0  0  0
   -0.7810  -14.6181   -3.7278 H   0  0  0  0  0  0  0  0  0  0  0  0
  1  2  1  0  0  0  0 
  1  3  1  0  0  0  0 
  3  4  2  0  0  0  0 
  3  5  1  0  0  0  0 
  4  6  1  0  0  0  0 
  4  7  1  0  0  0  0 
  5  8  2  0  0  0  0 
  6  9  1  0  0  0  0 
  7 10  1  0  0  0  0 
  7 11  2  0  0  0  0 
  8 11  1  0  0  0  0 
  8 12  1  0  0  0  0 
 10 13  1  0  0  0  0 
 12 14  2  0  0  0  0 
 14 15  1  0  0  0  0 
 15 16  2  0  0  0  0 
 15 17  1  0  0  0  0 
 17 18  1  0  0  0  0 
 17 19  1  0  0  0  0 
 18 20  1  0  0  0  0 
 19 21  1  0  0  0  0 
 20 22  1  0  0  0  0 
 21 22  1  0  0  0  0 
 22 23  1  0  0  0  0 
 23 24  1  0  0  0  0 
 24 25  2  0  0  0  0 
 24 26  1  0  0  0  0 
 26 27  1  0  0  0  0 
 26 28  1  0  0  0  0 
 27 29  1  0  0  0  0 
 28 30  1  0  0  0  0 
 29 30  1  0  0  0  0 
  2 31  1  0  0  0  0 
  2 32  1  0  0  0  0 
  2 33  1  0  0  0  0 
  5 34  1  0  0  0  0 
  9 35  1  0  0  0  0 
  9 36  1  0  0  0  0 
  9 37  1  0  0  0  0 
 11 38  1  0  0  0  0 
 12 39  1  0  0  0  0 
 13 40  1  0  0  0  0 
 13 41  1  0  0  0  0 
 13 42  1  0  0  0  0 
 14 43  1  0  0  0  0 
 18 44  1  0  0  0  0 
 18 45  1  0  0  0  0 
 19 46  1  0  0  0  0 
 19 47  1  0  0  0  0 
 20 48  1  0  0  0  0 
 20 49  1  0  0  0  0 
 21 50  1  0  0  0  0 
 21 51  1  0  0  0  0 
 23 52  1  0  0  0  0 
 23 53  1  0  0  0  0 
 27 54  1  0  0  0  0 
 27 55  1  0  0  0  0 
 28 56  1  0  0  0  0 
 28 57  1  0  0  0  0 
 29 58  1  0  0  0  0 
 29 59  1  0  0  0  0 
 30 60  1  0  0  0  0 
 30 61  1  0  0  0  0 
M  END
> <cdk:Title>
cinepazide

> <Conformer>
1

> <SuperDrugID>
SD000571

$$$$
