eseridine
  CDK     0628171801

 42 44  0  0  0  0  0  0  0  0999 V2000
   -2.4078    1.3692    0.2966 C   0  0  0  0  0  0  0  0  0  0  0  0
   -1.5272    0.9104   -0.9114 C   0  0  2  0  0  0  0  0  0  0  0  0
   -2.1222    1.3018   -2.2092 C   0  0  0  0  0  0  0  0  0  0  0  0
   -1.5456   -0.6600   -1.0630 C   0  0  1  0  0  0  0  0  0  0  0  0
   -0.0834    1.5274   -0.8198 C   0  0  2  0  0  0  0  0  0  0  0  0
   -2.3642    0.2008   -3.0329 C   0  0  0  0  0  0  0  0  0  0  0  0
   -2.3604    2.6133   -2.6690 C   0  0  0  0  0  0  0  0  0  0  0  0
   -2.0097   -0.9422   -2.3909 N   0  0  0  0  0  0  0  0  0  0  0  0
   -0.3386   -1.3731   -0.6927 O   0  0  0  0  0  0  0  0  0  0  0  0
    0.9206    0.5660   -0.1592 C   0  0  2  0  0  0  0  0  0  0  0  0
   -2.8957    0.3956   -4.3276 C   0  0  0  0  0  0  0  0  0  0  0  0
   -2.8144    2.8267   -3.9914 C   0  0  0  0  0  0  0  0  0  0  0  0
   -2.1158   -2.2878   -2.8845 C   0  0  0  0  0  0  0  0  0  0  0  0
    0.8772   -0.7488   -0.8427 N   0  0  2  0  0  0  0  0  0  0  0  0
   -3.1148    1.7069   -4.7977 C   0  0  0  0  0  0  0  0  0  0  0  0
   -2.9659    4.0709   -4.5520 O   0  0  0  0  0  0  0  0  0  0  0  0
    1.4382   -0.8296   -2.2157 C   0  0  0  0  0  0  0  0  0  0  0  0
   -2.3085    5.2422   -4.2820 C   0  0  0  0  0  0  0  0  0  0  0  0
   -2.7284    6.3570   -4.9382 N   0  0  0  0  0  0  0  0  0  0  0  0
   -1.3289    5.2779   -3.4981 O   0  0  0  0  0  0  0  0  0  0  0  0
   -2.1616    7.6636   -4.8185 C   0  0  0  0  0  0  0  0  0  0  0  0
   -2.4802    2.4578    0.3397 H   0  0  0  0  0  0  0  0  0  0  0  0
   -1.9654    1.0196    1.2319 H   0  0  0  0  0  0  0  0  0  0  0  0
   -3.4216    0.9669    0.2262 H   0  0  0  0  0  0  0  0  0  0  0  0
   -2.3046   -1.0899   -0.4022 H   0  0  0  0  0  0  0  0  0  0  0  0
   -0.0955    2.4670   -0.2627 H   0  0  0  0  0  0  0  0  0  0  0  0
    0.3160    1.7703   -1.8100 H   0  0  0  0  0  0  0  0  0  0  0  0
   -2.1814    3.4034   -2.0476 H   0  0  0  0  0  0  0  0  0  0  0  0
    0.6606    0.4268    0.8922 H   0  0  0  0  0  0  0  0  0  0  0  0
    1.9263    0.9900   -0.1956 H   0  0  0  0  0  0  0  0  0  0  0  0
   -3.1160   -0.3939   -4.9346 H   0  0  0  0  0  0  0  0  0  0  0  0
   -2.7967   -2.8567   -2.2473 H   0  0  0  0  0  0  0  0  0  0  0  0
   -2.4870   -2.3447   -3.9077 H   0  0  0  0  0  0  0  0  0  0  0  0
   -1.1367   -2.7686   -2.8612 H   0  0  0  0  0  0  0  0  0  0  0  0
   -3.4761    1.8455   -5.7443 H   0  0  0  0  0  0  0  0  0  0  0  0
    2.4124   -0.3384   -2.2594 H   0  0  0  0  0  0  0  0  0  0  0  0
    1.5757   -1.8763   -2.4902 H   0  0  0  0  0  0  0  0  0  0  0  0
    0.7760   -0.3629   -2.9459 H   0  0  0  0  0  0  0  0  0  0  0  0
   -3.4843    6.2592   -5.5419 H   0  0  0  0  0  0  0  0  0  0  0  0
   -1.8722    8.0161   -5.8098 H   0  0  0  0  0  0  0  0  0  0  0  0
   -2.9142    8.3406   -4.4146 H   0  0  0  0  0  0  0  0  0  0  0  0
   -1.2831    7.6972   -4.1693 H   0  0  0  0  0  0  0  0  0  0  0  0
  2  1  1  0  0  0  0 
  2  3  1  0  0  0  0 
  2  4  1  0  0  0  0 
  2  5  1  0  0  0  0 
  3  6  2  0  0  0  0 
  3  7  1  0  0  0  0 
  4  8  1  0  0  0  0 
  4  9  1  0  0  0  0 
  5 10  1  0  0  0  0 
  6  8  1  0  0  0  0 
  6 11  1  0  0  0  0 
  7 12  2  0  0  0  0 
  8 13  1  0  0  0  0 
  9 14  1  0  0  0  0 
 10 14  1  0  0  0  0 
 11 15  2  0  0  0  0 
 12 15  1  0  0  0  0 
 12 16  1  0  0  0  0 
 14 17  1  0  0  0  0 
 16 18  1  0  0  0  0 
 18 19  1  0  0  0  0 
 18 20  2  0  0  0  0 
 19 21  1  0  0  0  0 
 22  1  1  0  0  0  0 
 23  1  1  0  0  0  0 
 24  1  1  0  0  0  0 
  4 25  1  0  0  0  0 
 26  5  1  0  0  0  0 
 27  5  1  0  0  0  0 
 28  7  1  0  0  0  0 
 29 10  1  0  0  0  0 
 30 10  1  0  0  0  0 
 31 11  1  0  0  0  0 
 32 13  1  0  0  0  0 
 33 13  1  0  0  0  0 
 34 13  1  0  0  0  0 
 35 15  1  0  0  0  0 
 36 17  1  0  0  0  0 
 37 17  1  0  0  0  0 
 38 17  1  0  0  0  0 
 39 19  1  0  0  0  0 
 40 21  1  0  0  0  0 
 41 21  1  0  0  0  0 
 42 21  1  0  0  0  0 
M  END
> <cdk:Title>
eseridine

> <Conformer>
1

> <SuperDrugID>
SD002758

$$$$
