pifoxime
  Mrv0541 09131710093D              55.12225

 40 41  0  0  0  0            999 V2000
   -3.9287   -3.1755   -7.5077 C   0  0  0  0  0  0  0  0  0  0  0  0
   -2.6244   -2.5574   -7.2421 C   0  0  0  0  0  0  0  0  0  0  0  0
   -2.1845   -1.6312   -8.0249 N   0  0  0  0  0  0  0  0  0  0  0  0
   -2.7460   -1.1414   -9.0542 O   0  0  0  0  0  0  0  0  0  0  0  0
   -1.8172   -2.9399   -6.1378 C   0  0  0  0  0  0  0  0  0  0  0  0
   -0.5203   -2.3886   -5.9292 C   0  0  0  0  0  0  0  0  0  0  0  0
    0.2868   -2.7640   -4.8395 C   0  0  0  0  0  0  0  0  0  0  0  0
   -0.1798   -3.7022   -3.9020 C   0  0  0  0  0  0  0  0  0  0  0  0
    0.6109   -4.0645   -2.8421 O   0  0  0  0  0  0  0  0  0  0  0  0
    0.3931   -3.2523   -1.6697 C   0  0  2  0  0  0  0  0  0  0  0  0
    1.3606   -3.6223   -0.6028 C   0  0  0  0  0  0  0  0  0  0  0  0
    0.8571   -4.2248    0.3779 O   0  0  0  0  0  0  0  0  0  0  0  0
    2.7202   -3.3034   -0.6064 N   0  0  0  0  0  0  0  0  0  0  0  0
    3.5645   -3.5789    0.5531 C   0  0  2  0  0  0  0  0  0  0  0  0
    4.9390   -4.2042    0.1920 C   0  0  1  0  0  0  0  0  0  0  0  0
    5.6482   -3.3905   -0.9161 C   0  0  1  0  0  0  0  0  0  0  0  0
    4.7146   -3.2156   -2.1349 C   0  0  2  0  0  0  0  0  0  0  0  0
    3.3590   -2.5973   -1.7083 C   0  0  2  0  0  0  0  0  0  0  0  0
   -1.4530   -4.2719   -4.0810 C   0  0  0  0  0  0  0  0  0  0  0  0
   -2.2524   -3.8950   -5.1766 C   0  0  0  0  0  0  0  0  0  0  0  0
   -4.4231   -2.7889   -8.4004 H   0  0  0  0  0  0  0  0  0  0  0  0
   -3.8130   -4.2524   -7.6492 H   0  0  0  0  0  0  0  0  0  0  0  0
   -4.5984   -2.9920   -6.6661 H   0  0  0  0  0  0  0  0  0  0  0  0
   -2.1317   -0.4401   -9.3540 H   0  0  0  0  0  0  0  0  0  0  0  0
   -0.1319   -1.6989   -6.5772 H   0  0  0  0  0  0  0  0  0  0  0  0
    1.2157   -2.3501   -4.7258 H   0  0  0  0  0  0  0  0  0  0  0  0
   -0.6339   -3.3978   -1.3152 H   0  0  0  0  0  0  0  0  0  0  0  0
    0.5113   -2.1860   -1.8865 H   0  0  0  0  0  0  0  0  0  0  0  0
    3.0947   -4.2519    1.2753 H   0  0  0  0  0  0  0  0  0  0  0  0
    3.7396   -2.6315    1.0724 H   0  0  0  0  0  0  0  0  0  0  0  0
    5.5761   -4.2292    1.0820 H   0  0  0  0  0  0  0  0  0  0  0  0
    4.7928   -5.2340   -0.1484 H   0  0  0  0  0  0  0  0  0  0  0  0
    5.9235   -2.4052   -0.5287 H   0  0  0  0  0  0  0  0  0  0  0  0
    6.5663   -3.8984   -1.2206 H   0  0  0  0  0  0  0  0  0  0  0  0
    4.5444   -4.1864   -2.6092 H   0  0  0  0  0  0  0  0  0  0  0  0
    5.1950   -2.5624   -2.8681 H   0  0  0  0  0  0  0  0  0  0  0  0
    3.5318   -1.5658   -1.3886 H   0  0  0  0  0  0  0  0  0  0  0  0
    2.7491   -2.5553   -2.6101 H   0  0  0  0  0  0  0  0  0  0  0  0
   -1.8010   -4.9634   -3.4121 H   0  0  0  0  0  0  0  0  0  0  0  0
   -3.1677   -4.3401   -5.2528 H   0  0  0  0  0  0  0  0  0  0  0  0
  1  2  1  0  0  0  0
  2  3  2  0  0  0  0
  3  4  1  0  0  0  0
  2  5  1  0  0  0  0
  5  6  2  0  0  0  0
  6  7  1  0  0  0  0
  7  8  2  0  0  0  0
  8  9  1  0  0  0  0
  9 10  1  0  0  0  0
 10 11  1  0  0  0  0
 11 12  2  0  0  0  0
 11 13  1  0  0  0  0
 13 14  1  0  0  0  0
 14 15  1  0  0  0  0
 15 16  1  0  0  0  0
 16 17  1  0  0  0  0
 17 18  1  0  0  0  0
  8 19  1  0  0  0  0
 19 20  2  0  0  0  0
 20  5  1  0  0  0  0
 18 13  1  0  0  0  0
  1 21  1  0  0  0  0
  1 22  1  0  0  0  0
  1 23  1  0  0  0  0
  4 24  1  0  0  0  0
  6 25  1  0  0  0  0
  7 26  1  0  0  0  0
 10 27  1  0  0  0  0
 10 28  1  0  0  0  0
 14 29  1  0  0  0  0
 14 30  1  0  0  0  0
 15 31  1  0  0  0  0
 15 32  1  0  0  0  0
 16 33  1  0  0  0  0
 16 34  1  0  0  0  0
 17 35  1  0  0  0  0
 17 36  1  0  0  0  0
 18 37  1  0  0  0  0
 18 38  1  0  0  0  0
 19 39  1  0  0  0  0
 20 40  1  0  0  0  0
M  END
>  <SuperDrugID>
SD006030

>  <_MOLCOUNT>
1

$$$$
