fosfosal
  CDK     0628171801

 21 21  0  0  0  0  0  0  0  0999 V2000
    1.7892   -1.2622   -2.2959 C   0  0  0  0  0  0  0  0  0  0  0  0
    2.5674   -2.1976   -2.8868 O   0  0  0  0  0  0  0  0  0  0  0  0
    2.4004   -0.3027   -1.7715 O   0  0  0  0  0  0  0  0  0  0  0  0
    0.3696   -1.3573   -2.2993 C   0  0  0  0  0  0  0  0  0  0  0  0
   -0.4458   -0.5749   -1.4317 C   0  0  0  0  0  0  0  0  0  0  0  0
   -0.2689   -2.2467   -3.2016 C   0  0  0  0  0  0  0  0  0  0  0  0
    0.0867    0.2804   -0.4988 O   0  0  0  0  0  0  0  0  0  0  0  0
   -1.8534   -0.6351   -1.5427 C   0  0  0  0  0  0  0  0  0  0  0  0
   -1.6706   -2.3333   -3.2688 C   0  0  0  0  0  0  0  0  0  0  0  0
    0.2986   -0.3871    0.9391 P   0  0  2  0  0  0  0  0  0  0  0  0
   -2.4649   -1.5170   -2.4478 C   0  0  0  0  0  0  0  0  0  0  0  0
    1.1880   -1.5510    0.8706 O   0  0  0  0  0  0  0  0  0  0  0  0
   -1.1045   -0.8022    1.5463 O   0  0  0  0  0  0  0  0  0  0  0  0
    0.9334    0.7141    1.8865 O   0  0  0  0  0  0  0  0  0  0  0  0
    3.5430   -2.1031   -2.8768 H   0  0  0  0  0  0  0  0  0  0  0  0
    0.2791   -2.8374   -3.8331 H   0  0  0  0  0  0  0  0  0  0  0  0
   -2.4376   -0.0390   -0.9536 H   0  0  0  0  0  0  0  0  0  0  0  0
   -2.1138   -2.9827   -3.9223 H   0  0  0  0  0  0  0  0  0  0  0  0
   -3.4846   -1.5672   -2.5075 H   0  0  0  0  0  0  0  0  0  0  0  0
   -1.6305    0.0242    1.5475 H   0  0  0  0  0  0  0  0  0  0  0  0
    0.2881    1.4515    1.8805 H   0  0  0  0  0  0  0  0  0  0  0  0
  1  2  1  0  0  0  0 
  1  3  2  0  0  0  0 
  1  4  1  0  0  0  0 
  4  5  2  0  0  0  0 
  4  6  1  0  0  0  0 
  5  7  1  0  0  0  0 
  5  8  1  0  0  0  0 
  6  9  2  0  0  0  0 
  7 10  1  0  0  0  0 
  8 11  2  0  0  0  0 
  9 11  1  0  0  0  0 
 10 12  2  0  0  0  0 
 10 13  1  0  0  0  0 
 10 14  1  0  0  0  0 
  2 15  1  0  0  0  0 
  6 16  1  0  0  0  0 
  8 17  1  0  0  0  0 
  9 18  1  0  0  0  0 
 11 19  1  0  0  0  0 
 13 20  1  0  0  0  0 
 14 21  1  0  0  0  0 
M  END
> <cdk:Title>
fosfosal

> <Conformer>
1

> <SuperDrugID>
SD001117

$$$$
