valine
  CDK     0628171801

 19 18  0  0  0  0  0  0  0  0999 V2000
    1.7139    1.5427    1.4236 C   0  0  0  0  0  0  0  0  0  0  0  0
    0.7245    0.3403    1.3725 C   0  0  2  0  0  0  0  0  0  0  0  0
    1.4635   -0.9652    1.7935 C   0  0  0  0  0  0  0  0  0  0  0  0
    0.0311    0.1991   -0.0291 C   0  0  1  0  0  0  0  0  0  0  0  0
   -1.0180   -0.8427   -0.0674 C   0  0  0  0  0  0  0  0  0  0  0  0
   -0.8979   -1.8506   -0.7999 O   0  0  0  0  0  0  0  0  0  0  0  0
   -2.1402   -0.7341    0.6819 O   0  0  0  0  0  0  0  0  0  0  0  0
   -0.6150    1.4463   -0.4618 N   0  0  1  0  0  0  0  0  0  0  0  0
    1.1860    2.4828    1.2591 H   0  0  0  0  0  0  0  0  0  0  0  0
    2.4887    1.4374    0.6614 H   0  0  0  0  0  0  0  0  0  0  0  0
    2.1941    1.6051    2.4021 H   0  0  0  0  0  0  0  0  0  0  0  0
   -0.0512    0.5338    2.1221 H   0  0  0  0  0  0  0  0  0  0  0  0
    1.9302   -0.8456    2.7735 H   0  0  0  0  0  0  0  0  0  0  0  0
    2.2401   -1.2191    1.0694 H   0  0  0  0  0  0  0  0  0  0  0  0
    0.7642   -1.7998    1.8619 H   0  0  0  0  0  0  0  0  0  0  0  0
    0.7940   -0.0375   -0.7756 H   0  0  0  0  0  0  0  0  0  0  0  0
   -2.8318   -1.4282    0.6264 H   0  0  0  0  0  0  0  0  0  0  0  0
   -1.2723    1.7145    0.2705 H   0  0  0  0  0  0  0  0  0  0  0  0
    0.0998    2.1737   -0.5038 H   0  0  0  0  0  0  0  0  0  0  0  0
  1  2  1  0  0  0  0 
  2  3  1  0  0  0  0 
  4  2  1  0  0  0  0 
  4  5  1  0  0  0  0 
  5  6  2  0  0  0  0 
  5  7  1  0  0  0  0 
  4  8  1  0  0  0  0 
  1  9  1  0  0  0  0 
  1 10  1  0  0  0  0 
  1 11  1  0  0  0  0 
  2 12  1  0  0  0  0 
  3 13  1  0  0  0  0 
  3 14  1  0  0  0  0 
  3 15  1  0  0  0  0 
  4 16  1  0  0  0  0 
  7 17  1  0  0  0  0 
  8 18  1  0  0  0  0 
  8 19  1  0  0  0  0 
M  END
> <cdk:Title>
valine

> <Conformer>
1

> <SuperDrugID>
SD003371

$$$$
