clinafloxacin
  CDK     0628171802

 42 45  0  0  0  0  0  0  0  0999 V2000
    1.8597   -0.5050   -2.0477 Cl  0  0  0  0  0  0  0  0  0  0  0  0
    2.1939    0.3126   -0.5907 C   0  0  0  0  0  0  0  0  0  0  0  0
    3.5260    0.5906   -0.1236 C   0  0  0  0  0  0  0  0  0  0  0  0
    1.0531    0.6383    0.1955 C   0  0  0  0  0  0  0  0  0  0  0  0
    4.6922    0.4533   -0.8686 N   0  0  0  0  0  0  0  0  0  0  0  0
    3.6618    1.0396    1.2323 C   0  0  0  0  0  0  0  0  0  0  0  0
    1.2263    1.1800    1.4820 C   0  0  0  0  0  0  0  0  0  0  0  0
   -0.2347    0.4342   -0.2395 N   0  0  0  0  0  0  0  0  0  0  0  0
    5.9243    0.4766   -0.2692 C   0  0  0  0  0  0  0  0  0  0  0  0
    4.7301    0.3354   -2.3139 C   0  0  1  0  0  0  0  0  0  0  0  0
    4.9521    1.1671    1.8123 C   0  0  0  0  0  0  0  0  0  0  0  0
    2.5140    1.3543    1.9985 C   0  0  0  0  0  0  0  0  0  0  0  0
    0.1997    1.5170    2.2219 F   0  0  0  0  0  0  0  0  0  0  0  0
   -0.9837   -0.7388    0.0815 C   0  0  1  0  0  0  0  0  0  0  0  0
   -0.9439    1.3903   -1.0262 C   0  0  1  0  0  0  0  0  0  0  0  0
    6.1148    0.8477    1.0765 C   0  0  0  0  0  0  0  0  0  0  0  0
    4.1546    1.5287   -3.1085 C   0  0  2  0  0  0  0  0  0  0  0  0
    5.6551    1.2550   -3.1489 C   0  0  1  0  0  0  0  0  0  0  0  0
    5.0689    1.5566    3.0009 O   0  0  0  0  0  0  0  0  0  0  0  0
   -2.2172   -0.6583   -0.8423 C   0  0  2  0  0  0  0  0  0  0  0  0
   -2.3860    0.8534   -1.0822 C   0  0  1  0  0  0  0  0  0  0  0  0
    7.4361    0.9110    1.6226 C   0  0  0  0  0  0  0  0  0  0  0  0
   -3.4162   -1.2927   -0.2751 N   0  0  1  0  0  0  0  0  0  0  0  0
    7.6978    1.3616    2.8731 O   0  0  0  0  0  0  0  0  0  0  0  0
    8.4455    0.5589    0.9688 O   0  0  0  0  0  0  0  0  0  0  0  0
    6.7576    0.2528   -0.8265 H   0  0  0  0  0  0  0  0  0  0  0  0
    4.5931   -0.6528   -2.7623 H   0  0  0  0  0  0  0  0  0  0  0  0
    2.5989    1.7216    2.9513 H   0  0  0  0  0  0  0  0  0  0  0  0
   -0.4144   -1.6531   -0.1170 H   0  0  0  0  0  0  0  0  0  0  0  0
   -1.2739   -0.7153    1.1377 H   0  0  0  0  0  0  0  0  0  0  0  0
   -0.9193    2.3861   -0.5730 H   0  0  0  0  0  0  0  0  0  0  0  0
   -0.5134    1.4396   -2.0295 H   0  0  0  0  0  0  0  0  0  0  0  0
    3.8595    2.4075   -2.5305 H   0  0  0  0  0  0  0  0  0  0  0  0
    3.6071    1.2872   -4.0196 H   0  0  0  0  0  0  0  0  0  0  0  0
    6.2701    1.9782   -2.6116 H   0  0  0  0  0  0  0  0  0  0  0  0
    6.0302    0.8363   -4.0829 H   0  0  0  0  0  0  0  0  0  0  0  0
   -1.9877   -1.1516   -1.7933 H   0  0  0  0  0  0  0  0  0  0  0  0
   -2.9837    1.3088   -0.2855 H   0  0  0  0  0  0  0  0  0  0  0  0
   -2.8535    1.0623   -2.0478 H   0  0  0  0  0  0  0  0  0  0  0  0
   -4.1577   -1.2032   -0.9736 H   0  0  0  0  0  0  0  0  0  0  0  0
   -3.2133   -2.2918   -0.1966 H   0  0  0  0  0  0  0  0  0  0  0  0
    8.6225    1.3949    3.1982 H   0  0  0  0  0  0  0  0  0  0  0  0
  1  2  1  0  0  0  0 
  2  3  2  0  0  0  0 
  2  4  1  0  0  0  0 
  3  5  1  0  0  0  0 
  3  6  1  0  0  0  0 
  4  7  2  0  0  0  0 
  4  8  1  0  0  0  0 
  5  9  1  0  0  0  0 
  5 10  1  0  0  0  0 
  6 11  1  0  0  0  0 
  6 12  2  0  0  0  0 
  7 12  1  0  0  0  0 
  7 13  1  0  0  0  0 
  8 14  1  0  0  0  0 
  8 15  1  0  0  0  0 
  9 16  2  0  0  0  0 
 10 17  1  0  0  0  0 
 10 18  1  0  0  0  0 
 11 16  1  0  0  0  0 
 11 19  2  0  0  0  0 
 20 14  1  0  0  0  0 
 15 21  1  0  0  0  0 
 16 22  1  0  0  0  0 
 17 18  1  0  0  0  0 
 20 21  1  0  0  0  0 
 20 23  1  0  0  0  0 
 22 24  1  0  0  0  0 
 22 25  2  0  0  0  0 
  9 26  1  0  0  0  0 
 10 27  1  0  0  0  0 
 12 28  1  0  0  0  0 
 14 29  1  0  0  0  0 
 14 30  1  0  0  0  0 
 15 31  1  0  0  0  0 
 15 32  1  0  0  0  0 
 17 33  1  0  0  0  0 
 17 34  1  0  0  0  0 
 18 35  1  0  0  0  0 
 18 36  1  0  0  0  0 
 20 37  1  0  0  0  0 
 21 38  1  0  0  0  0 
 21 39  1  0  0  0  0 
 23 40  1  0  0  0  0 
 23 41  1  0  0  0  0 
 24 42  1  0  0  0  0 
M  END
> <cdk:Title>
clinafloxacin

> <Conformer>
1

> <SuperDrugID>
SD000596

$$$$
