drometrizole
  CDK     0628171801

 28 30  0  0  0  0  0  0  0  0999 V2000
   -1.1051    2.3882    2.0822 O   0  0  0  0  0  0  0  0  0  0  0  0
   -2.1193    2.1685    1.2080 C   0  0  0  0  0  0  0  0  0  0  0  0
   -2.1220    1.0311    0.3681 C   0  0  0  0  0  0  0  0  0  0  0  0
   -3.1865    3.0845    1.1625 C   0  0  0  0  0  0  0  0  0  0  0  0
   -1.0975    0.1373    0.3996 N   0  0  0  0  0  0  0  0  0  0  0  0
   -3.2083    0.8300   -0.5119 C   0  0  0  0  0  0  0  0  0  0  0  0
   -4.2590    2.8770    0.2764 C   0  0  0  0  0  0  0  0  0  0  0  0
   -1.2505   -1.1333    0.6542 N   0  0  0  0  0  0  0  0  0  0  0  0
    0.1473    0.4591    0.1832 N   0  0  0  0  0  0  0  0  0  0  0  0
   -4.2796    1.7491   -0.5756 C   0  0  0  0  0  0  0  0  0  0  0  0
   -0.0311   -1.6808    0.6143 C   0  0  0  0  0  0  0  0  0  0  0  0
    0.8585   -0.6667    0.2987 C   0  0  0  0  0  0  0  0  0  0  0  0
   -5.3847    1.5170   -1.5320 C   0  0  0  0  0  0  0  0  0  0  0  0
    0.4088   -2.9969    0.8334 C   0  0  0  0  0  0  0  0  0  0  0  0
    2.2332   -0.9156    0.1586 C   0  0  0  0  0  0  0  0  0  0  0  0
    1.7901   -3.2664    0.7089 C   0  0  0  0  0  0  0  0  0  0  0  0
    2.6954   -2.2341    0.3674 C   0  0  0  0  0  0  0  0  0  0  0  0
   -1.3355    1.8584    2.8757 H   0  0  0  0  0  0  0  0  0  0  0  0
   -3.1859    3.9016    1.7788 H   0  0  0  0  0  0  0  0  0  0  0  0
   -3.2121    0.0086   -1.1243 H   0  0  0  0  0  0  0  0  0  0  0  0
   -5.0233    3.5565    0.2596 H   0  0  0  0  0  0  0  0  0  0  0  0
   -4.9911    1.4946   -2.5506 H   0  0  0  0  0  0  0  0  0  0  0  0
   -6.1458    2.2972   -1.4776 H   0  0  0  0  0  0  0  0  0  0  0  0
   -5.8611    0.5591   -1.3169 H   0  0  0  0  0  0  0  0  0  0  0  0
   -0.2510   -3.7363    1.0805 H   0  0  0  0  0  0  0  0  0  0  0  0
    2.8805   -0.1648   -0.0872 H   0  0  0  0  0  0  0  0  0  0  0  0
    2.1375   -4.2144    0.8668 H   0  0  0  0  0  0  0  0  0  0  0  0
    3.6912   -2.4434    0.2725 H   0  0  0  0  0  0  0  0  0  0  0  0
  1  2  1  0  0  0  0 
  2  3  2  0  0  0  0 
  2  4  1  0  0  0  0 
  3  5  1  0  0  0  0 
  3  6  1  0  0  0  0 
  4  7  2  0  0  0  0 
  5  8  1  0  0  0  0 
  5  9  1  0  0  0  0 
  6 10  2  0  0  0  0 
  7 10  1  0  0  0  0 
  8 11  2  0  0  0  0 
  9 12  2  0  0  0  0 
 10 13  1  0  0  0  0 
 11 12  1  0  0  0  0 
 11 14  1  0  0  0  0 
 12 15  1  0  0  0  0 
 14 16  2  0  0  0  0 
 15 17  2  0  0  0  0 
 16 17  1  0  0  0  0 
  1 18  1  0  0  0  0 
  4 19  1  0  0  0  0 
  6 20  1  0  0  0  0 
  7 21  1  0  0  0  0 
 13 22  1  0  0  0  0 
 13 23  1  0  0  0  0 
 13 24  1  0  0  0  0 
 14 25  1  0  0  0  0 
 15 26  1  0  0  0  0 
 16 27  1  0  0  0  0 
 17 28  1  0  0  0  0 
M  END
> <cdk:Title>
drometrizole

> <Conformer>
1

> <SuperDrugID>
SD002741

$$$$
