granisetron
  CDK     0628171801

 47 50  0  0  0  0  0  0  0  0999 V2000
   -0.8538   -1.4924    2.8174 C   0  0  1  0  0  0  0  0  0  0  0  0
   -0.8141   -1.6388    4.3821 C   0  0  2  0  0  0  0  0  0  0  0  0
    1.7236   -0.9180    2.9984 C   0  0  2  0  0  0  0  0  0  0  0  0
    2.4300   -0.1896    2.5809 H   0  0  0  0  0  0  0  0  0  0  0  0
    0.5883   -1.6004    5.0754 C   0  0  1  0  0  0  0  0  0  0  0  0
    0.3940   -0.7788    2.1960 C   0  0  2  0  0  0  0  0  0  0  0  0
    1.3399   -2.9625    5.1160 C   0  0  1  0  0  0  0  0  0  0  0  0
    2.4289   -2.3070    2.8733 C   0  0  1  0  0  0  0  0  0  0  0  0
    1.5122   -0.6101    4.4463 N   0  0  2  0  0  0  0  0  0  0  0  0
   -1.7021   -0.8369    2.5852 H   0  0  0  0  0  0  0  0  0  0  0  0
   -1.1555   -2.7078    2.1052 N   0  0  0  0  0  0  0  0  0  0  0  0
   -2.3533   -3.3669    2.1286 C   0  0  0  0  0  0  0  0  0  0  0  0
    1.2870    0.8190    4.8042 C   0  0  0  0  0  0  0  0  0  0  0  0
    0.4269   -1.3301    6.1247 H   0  0  0  0  0  0  0  0  0  0  0  0
    1.7785   -3.4440    3.7109 C   0  0  1  0  0  0  0  0  0  0  0  0
   -2.6601   -4.4094    1.2281 C   0  0  0  0  0  0  0  0  0  0  0  0
   -3.2413   -3.0408    2.9503 O   0  0  0  0  0  0  0  0  0  0  0  0
   -3.5911   -5.3585    1.4659 N   0  0  0  0  0  0  0  0  0  0  0  0
   -3.7069   -6.1662    0.4510 N   0  0  0  0  0  0  0  0  0  0  0  0
   -2.8632   -5.7691   -0.5235 C   0  0  0  0  0  0  0  0  0  0  0  0
   -2.1724   -4.6514   -0.0571 C   0  0  0  0  0  0  0  0  0  0  0  0
   -2.6394   -6.2754   -1.8195 C   0  0  0  0  0  0  0  0  0  0  0  0
   -1.7014   -5.6216   -2.6449 C   0  0  0  0  0  0  0  0  0  0  0  0
   -1.0028   -4.4871   -2.1748 C   0  0  0  0  0  0  0  0  0  0  0  0
   -1.2321   -3.9905   -0.8742 C   0  0  0  0  0  0  0  0  0  0  0  0
   -4.6040   -7.2784    0.4072 C   0  0  0  0  0  0  0  0  0  0  0  0
   -1.3279   -2.5524    4.6900 H   0  0  0  0  0  0  0  0  0  0  0  0
   -1.3959   -0.8120    4.8010 H   0  0  0  0  0  0  0  0  0  0  0  0
    0.1728    0.2912    2.1217 H   0  0  0  0  0  0  0  0  0  0  0  0
    0.5601   -1.1124    1.1681 H   0  0  0  0  0  0  0  0  0  0  0  0
    2.2360   -2.8435    5.7371 H   0  0  0  0  0  0  0  0  0  0  0  0
    0.7152   -3.7261    5.5886 H   0  0  0  0  0  0  0  0  0  0  0  0
    2.4753   -2.6076    1.8233 H   0  0  0  0  0  0  0  0  0  0  0  0
    3.4591   -2.1889    3.2229 H   0  0  0  0  0  0  0  0  0  0  0  0
   -0.4606   -3.0653    1.5330 H   0  0  0  0  0  0  0  0  0  0  0  0
    0.3150    1.1723    4.4572 H   0  0  0  0  0  0  0  0  0  0  0  0
    2.0685    1.4418    4.3656 H   0  0  0  0  0  0  0  0  0  0  0  0
    1.3391    0.9422    5.8874 H   0  0  0  0  0  0  0  0  0  0  0  0
    2.4957   -4.2618    3.8271 H   0  0  0  0  0  0  0  0  0  0  0  0
    0.9161   -3.8531    3.1849 H   0  0  0  0  0  0  0  0  0  0  0  0
   -3.1484   -7.0950   -2.1586 H   0  0  0  0  0  0  0  0  0  0  0  0
   -1.5331   -5.9673   -3.5920 H   0  0  0  0  0  0  0  0  0  0  0  0
   -0.3319   -4.0174   -2.7864 H   0  0  0  0  0  0  0  0  0  0  0  0
   -0.7270   -3.1661   -0.5491 H   0  0  0  0  0  0  0  0  0  0  0  0
   -5.2683   -7.1934   -0.4573 H   0  0  0  0  0  0  0  0  0  0  0  0
   -4.0337   -8.2075    0.3342 H   0  0  0  0  0  0  0  0  0  0  0  0
   -5.2207   -7.3225    1.3075 H   0  0  0  0  0  0  0  0  0  0  0  0
  3  4  1  0  0  0  0 
  1  6  1  0  0  0  0 
  1  2  1  0  0  0  0 
  3  6  1  0  0  0  0 
  2  5  1  0  0  0  0 
  3  8  1  0  0  0  0 
  3  9  1  0  0  0  0 
  5  7  1  0  0  0  0 
  5  9  1  0  0  0  0 
  1 10  1  0  0  0  0 
  1 11  1  0  0  0  0 
 11 12  1  0  0  0  0 
  9 13  1  0  0  0  0 
  5 14  1  0  0  0  0 
  7 15  1  0  0  0  0 
 15  8  1  0  0  0  0 
 12 16  1  0  0  0  0 
 12 17  2  0  0  0  0 
 16 18  2  0  0  0  0 
 18 19  1  0  0  0  0 
 19 20  1  0  0  0  0 
 20 21  1  0  0  0  0 
 21 16  1  0  0  0  0 
 20 22  2  0  0  0  0 
 22 23  1  0  0  0  0 
 23 24  2  0  0  0  0 
 24 25  1  0  0  0  0 
 25 21  2  0  0  0  0 
 19 26  1  0  0  0  0 
  2 27  1  0  0  0  0 
  2 28  1  0  0  0  0 
  6 29  1  0  0  0  0 
  6 30  1  0  0  0  0 
  7 31  1  0  0  0  0 
  7 32  1  0  0  0  0 
  8 33  1  0  0  0  0 
  8 34  1  0  0  0  0 
 11 35  1  0  0  0  0 
 13 36  1  0  0  0  0 
 13 37  1  0  0  0  0 
 13 38  1  0  0  0  0 
 15 39  1  0  0  0  0 
 15 40  1  0  0  0  0 
 22 41  1  0  0  0  0 
 23 42  1  0  0  0  0 
 24 43  1  0  0  0  0 
 25 44  1  0  0  0  0 
 26 45  1  0  0  0  0 
 26 46  1  0  0  0  0 
 26 47  1  0  0  0  0 
M  END
> <cdk:Title>
granisetron

> <Conformer>
1

> <SuperDrugID>
SD001180

$$$$
