periciazine
  CDK     0628171801

 49 52  0  0  0  0  0  0  0  0999 V2000
   -3.0761   -1.4374   -1.4135 O   0  0  0  0  0  0  0  0  0  0  0  0
   -1.9143   -0.6988   -1.0414 C   0  0  2  0  0  0  0  0  0  0  0  0
   -1.1318   -0.2816   -2.3158 C   0  0  2  0  0  0  0  0  0  0  0  0
    0.2476    0.3350   -1.9579 C   0  0  2  0  0  0  0  0  0  0  0  0
    1.0690   -0.5530   -1.0703 N   0  0  2  0  0  0  0  0  0  0  0  0
    1.6853   -1.7584   -1.7232 C   0  0  1  0  0  0  0  0  0  0  0  0
    2.7553   -1.4742   -2.8125 C   0  0  2  0  0  0  0  0  0  0  0  0
    3.9347   -0.5567   -2.3793 C   0  0  2  0  0  0  0  0  0  0  0  0
    4.6695   -0.9716   -1.1886 N   0  0  0  0  0  0  0  0  0  0  0  0
    5.1352   -2.2787   -1.0603 C   0  0  0  0  0  0  0  0  0  0  0  0
    5.7556   -2.9617   -2.1361 C   0  0  0  0  0  0  0  0  0  0  0  0
    6.1720   -4.2990   -2.0057 C   0  0  0  0  0  0  0  0  0  0  0  0
    5.9795   -4.9824   -0.7930 C   0  0  0  0  0  0  0  0  0  0  0  0
    5.3935   -4.3184    0.2987 C   0  0  0  0  0  0  0  0  0  0  0  0
    4.9891   -2.9757    0.1684 C   0  0  0  0  0  0  0  0  0  0  0  0
    4.3176   -2.1233    1.5559 S   0  0  0  0  0  0  0  0  0  0  0  0
    4.7149   -0.4467    1.1977 C   0  0  0  0  0  0  0  0  0  0  0  0
    4.9000    0.4732    2.2472 C   0  0  0  0  0  0  0  0  0  0  0  0
    5.2852    1.7948    1.9637 C   0  0  0  0  0  0  0  0  0  0  0  0
    5.4954    2.1973    0.6287 C   0  0  0  0  0  0  0  0  0  0  0  0
    5.2927    1.2713   -0.4187 C   0  0  0  0  0  0  0  0  0  0  0  0
    4.8824   -0.0611   -0.1558 C   0  0  0  0  0  0  0  0  0  0  0  0
    5.8886    3.4128    0.3688 C   0  0  0  0  0  0  0  0  0  0  0  0
    6.2450    4.4807    0.1422 N   0  0  0  0  0  0  0  0  0  0  0  0
    0.3283   -0.8649    0.1979 C   0  0  2  0  0  0  0  0  0  0  0  0
   -1.0483   -1.5375   -0.0622 C   0  0  1  0  0  0  0  0  0  0  0  0
   -2.7355   -2.2238   -1.8909 H   0  0  0  0  0  0  0  0  0  0  0  0
   -2.2531    0.2051   -0.5260 H   0  0  0  0  0  0  0  0  0  0  0  0
   -1.7191    0.4477   -2.8798 H   0  0  0  0  0  0  0  0  0  0  0  0
   -0.9836   -1.1518   -2.9596 H   0  0  0  0  0  0  0  0  0  0  0  0
    0.0857    1.2881   -1.4435 H   0  0  0  0  0  0  0  0  0  0  0  0
    0.7816    0.5768   -2.8777 H   0  0  0  0  0  0  0  0  0  0  0  0
    2.1660   -2.3737   -0.9597 H   0  0  0  0  0  0  0  0  0  0  0  0
    0.9078   -2.3800   -2.1740 H   0  0  0  0  0  0  0  0  0  0  0  0
    2.2728   -1.0258   -3.6840 H   0  0  0  0  0  0  0  0  0  0  0  0
    3.1533   -2.4337   -3.1506 H   0  0  0  0  0  0  0  0  0  0  0  0
    3.5072    0.4433   -2.2579 H   0  0  0  0  0  0  0  0  0  0  0  0
    4.6346   -0.4869   -3.2158 H   0  0  0  0  0  0  0  0  0  0  0  0
    5.9149   -2.4905   -3.0282 H   0  0  0  0  0  0  0  0  0  0  0  0
    6.6136   -4.7766   -2.7948 H   0  0  0  0  0  0  0  0  0  0  0  0
    6.2713   -5.9589   -0.7029 H   0  0  0  0  0  0  0  0  0  0  0  0
    5.2703   -4.8147    1.1839 H   0  0  0  0  0  0  0  0  0  0  0  0
    4.7676    0.1864    3.2198 H   0  0  0  0  0  0  0  0  0  0  0  0
    5.4203    2.4503    2.7408 H   0  0  0  0  0  0  0  0  0  0  0  0
    5.4583    1.5632   -1.3880 H   0  0  0  0  0  0  0  0  0  0  0  0
    0.1718    0.0629    0.7583 H   0  0  0  0  0  0  0  0  0  0  0  0
    0.9265   -1.5110    0.8446 H   0  0  0  0  0  0  0  0  0  0  0  0
   -1.5810   -1.6488    0.8861 H   0  0  0  0  0  0  0  0  0  0  0  0
   -0.8921   -2.5393   -0.4713 H   0  0  0  0  0  0  0  0  0  0  0  0
  1  2  1  0  0  0  0 
  2  3  1  0  0  0  0 
  3  4  1  0  0  0  0 
  4  5  1  0  0  0  0 
  5  6  1  0  0  0  0 
  6  7  1  0  0  0  0 
  7  8  1  0  0  0  0 
  8  9  1  0  0  0  0 
  9 10  1  0  0  0  0 
 10 11  2  0  0  0  0 
 11 12  1  0  0  0  0 
 12 13  2  0  0  0  0 
 13 14  1  0  0  0  0 
 14 15  2  0  0  0  0 
 10 15  1  0  0  0  0 
 15 16  1  0  0  0  0 
 16 17  1  0  0  0  0 
 17 18  2  0  0  0  0 
 18 19  1  0  0  0  0 
 19 20  2  0  0  0  0 
 20 21  1  0  0  0  0 
 21 22  2  0  0  0  0 
  9 22  1  0  0  0  0 
 17 22  1  0  0  0  0 
 20 23  1  0  0  0  0 
 23 24  3  0  0  0  0 
  5 25  1  0  0  0  0 
 25 26  1  0  0  0  0 
  2 26  1  0  0  0  0 
  1 27  1  0  0  0  0 
  2 28  1  0  0  0  0 
  3 29  1  0  0  0  0 
  3 30  1  0  0  0  0 
  4 31  1  0  0  0  0 
  4 32  1  0  0  0  0 
  6 33  1  0  0  0  0 
  6 34  1  0  0  0  0 
  7 35  1  0  0  0  0 
  7 36  1  0  0  0  0 
  8 37  1  0  0  0  0 
  8 38  1  0  0  0  0 
 11 39  1  0  0  0  0 
 12 40  1  0  0  0  0 
 13 41  1  0  0  0  0 
 14 42  1  0  0  0  0 
 18 43  1  0  0  0  0 
 19 44  1  0  0  0  0 
 21 45  1  0  0  0  0 
 25 46  1  0  0  0  0 
 25 47  1  0  0  0  0 
 26 48  1  0  0  0  0 
 26 49  1  0  0  0  0 
M  END
> <cdk:Title>
periciazine

> <Conformer>
1

> <SuperDrugID>
SD001889

$$$$
