tibolone
  CDK     0628171801

 51 54  0  0  0  0  0  0  0  0999 V2000
   -5.3221   -0.4882    0.2299 C   0  0  0  0  0  0  0  0  0  0  0  0
   -4.6195    0.1373   -1.0113 C   0  0  1  0  0  0  0  0  0  0  0  0
   -4.4241    1.6826   -0.9725 C   0  0  1  0  0  0  0  0  0  0  0  0
   -3.2137   -0.4768   -1.2679 C   0  0  2  0  0  0  0  0  0  0  0  0
   -5.7351    2.5230   -0.8603 C   0  0  1  0  0  0  0  0  0  0  0  0
   -3.4334    2.0955    0.1778 C   0  0  1  0  0  0  0  0  0  0  0  0
   -2.1236    0.0529   -0.4332 C   0  0  0  0  0  0  0  0  0  0  0  0
   -5.4952    4.0602   -1.0556 C   0  0  1  0  0  0  0  0  0  0  0  0
   -6.9092    2.1994   -1.7991 C   0  0  2  0  0  0  0  0  0  0  0  0
   -2.2237    1.2305    0.2527 C   0  0  0  0  0  0  0  0  0  0  0  0
   -3.1772    3.6488    0.1204 C   0  0  1  0  0  0  0  0  0  0  0  0
   -0.9125   -0.7862   -0.4134 C   0  0  1  0  0  0  0  0  0  0  0  0
   -4.8688    4.4751   -2.4489 C   0  0  0  0  0  0  0  0  0  0  0  0
   -6.9897    4.5876   -1.0115 C   0  0  1  0  0  0  0  0  0  0  0  0
   -4.4912    4.4991    0.0775 C   0  0  2  0  0  0  0  0  0  0  0  0
   -7.8451    3.4150   -1.6101 C   0  0  1  0  0  0  0  0  0  0  0  0
   -1.1295    1.6611    1.1470 C   0  0  2  0  0  0  0  0  0  0  0  0
    0.2102   -0.2429    0.3727 C   0  0  0  0  0  0  0  0  0  0  0  0
   -7.4347    4.9637    0.2401 C   0  0  0  0  0  0  0  0  0  0  0  0
   -7.2142    5.7656   -1.7941 O   0  0  0  0  0  0  0  0  0  0  0  0
   -0.1082    0.5676    1.5538 C   0  0  2  0  0  0  0  0  0  0  0  0
    1.3969   -0.4585    0.0362 O   0  0  0  0  0  0  0  0  0  0  0  0
   -7.8369    5.3183    1.3073 C   0  0  0  0  0  0  0  0  0  0  0  0
   -3.9542    1.9332   -1.9283 H   0  0  0  0  0  0  0  0  0  0  0  0
   -3.9494    1.9241    1.1284 H   0  0  0  0  0  0  0  0  0  0  0  0
   -6.1219    2.3516    0.1560 H   0  0  0  0  0  0  0  0  0  0  0  0
   -5.4795   -1.5551    0.0625 H   0  0  0  0  0  0  0  0  0  0  0  0
   -4.7173   -0.3656    1.1295 H   0  0  0  0  0  0  0  0  0  0  0  0
   -6.2986   -0.0329    0.3974 H   0  0  0  0  0  0  0  0  0  0  0  0
   -5.2379   -0.1044   -1.8821 H   0  0  0  0  0  0  0  0  0  0  0  0
   -2.9374   -0.2897   -2.3103 H   0  0  0  0  0  0  0  0  0  0  0  0
   -3.2948   -1.5613   -1.1553 H   0  0  0  0  0  0  0  0  0  0  0  0
   -7.4113    1.2695   -1.5239 H   0  0  0  0  0  0  0  0  0  0  0  0
   -6.5671    2.1145   -2.8328 H   0  0  0  0  0  0  0  0  0  0  0  0
   -2.6325    3.9690    1.0117 H   0  0  0  0  0  0  0  0  0  0  0  0
   -2.5480    3.8895   -0.7403 H   0  0  0  0  0  0  0  0  0  0  0  0
   -1.1559   -1.7637    0.0104 H   0  0  0  0  0  0  0  0  0  0  0  0
   -0.5745   -0.9407   -1.4421 H   0  0  0  0  0  0  0  0  0  0  0  0
   -4.7657    5.5610   -2.5065 H   0  0  0  0  0  0  0  0  0  0  0  0
   -5.4952    4.1677   -3.2871 H   0  0  0  0  0  0  0  0  0  0  0  0
   -3.8776    4.0614   -2.6185 H   0  0  0  0  0  0  0  0  0  0  0  0
   -4.9682    4.4002    1.0557 H   0  0  0  0  0  0  0  0  0  0  0  0
   -4.2371    5.5555   -0.0411 H   0  0  0  0  0  0  0  0  0  0  0  0
   -8.2798    3.6827   -2.5774 H   0  0  0  0  0  0  0  0  0  0  0  0
   -8.6689    3.1242   -0.9483 H   0  0  0  0  0  0  0  0  0  0  0  0
   -1.5516    2.0446    2.0798 H   0  0  0  0  0  0  0  0  0  0  0  0
   -0.5879    2.4762    0.6581 H   0  0  0  0  0  0  0  0  0  0  0  0
   -8.1840    5.9153   -1.7631 H   0  0  0  0  0  0  0  0  0  0  0  0
   -0.5465   -0.0871    2.3109 H   0  0  0  0  0  0  0  0  0  0  0  0
    0.7915    1.0236    1.9782 H   0  0  0  0  0  0  0  0  0  0  0  0
   -8.1509    5.6016    2.1236 H   0  0  0  0  0  0  0  0  0  0  0  0
  2  1  1  0  0  0  0 
  3  2  1  0  0  0  0 
  2  4  1  0  0  0  0 
  5  3  1  0  0  0  0 
  3  6  1  0  0  0  0 
  3 24  1  0  0  0  0 
  4  7  1  0  0  0  0 
  8  5  1  0  0  0  0 
  5  9  1  0  0  0  0 
  5 26  1  0  0  0  0 
  6 10  1  0  0  0  0 
  6 11  1  0  0  0  0 
  6 25  1  0  0  0  0 
  7 10  2  0  0  0  0 
  7 12  1  0  0  0  0 
  8 13  1  0  0  0  0 
 14  8  1  0  0  0  0 
  8 15  1  0  0  0  0 
  9 16  1  0  0  0  0 
 10 17  1  0  0  0  0 
 11 15  1  0  0  0  0 
 12 18  1  0  0  0  0 
 14 16  1  0  0  0  0 
 14 19  1  0  0  0  0 
 14 20  1  0  0  0  0 
 17 21  1  0  0  0  0 
 18 21  1  0  0  0  0 
 18 22  2  0  0  0  0 
 19 23  3  0  0  0  0 
  1 27  1  0  0  0  0 
  1 28  1  0  0  0  0 
  1 29  1  0  0  0  0 
  2 30  1  0  0  0  0 
  4 31  1  0  0  0  0 
  4 32  1  0  0  0  0 
  9 33  1  0  0  0  0 
  9 34  1  0  0  0  0 
 11 35  1  0  0  0  0 
 11 36  1  0  0  0  0 
 12 37  1  0  0  0  0 
 12 38  1  0  0  0  0 
 13 39  1  0  0  0  0 
 13 40  1  0  0  0  0 
 13 41  1  0  0  0  0 
 15 42  1  0  0  0  0 
 15 43  1  0  0  0  0 
 16 44  1  0  0  0  0 
 16 45  1  0  0  0  0 
 17 46  1  0  0  0  0 
 17 47  1  0  0  0  0 
 20 48  1  0  0  0  0 
 21 49  1  0  0  0  0 
 21 50  1  0  0  0  0 
 23 51  1  0  0  0  0 
M  END
> <cdk:Title>
tibolone

> <Conformer>
1

> <SuperDrugID>
SD002388

$$$$
