mexenone
  CDK     0628171801

 32 33  0  0  0  0  0  0  0  0999 V2000
    2.2839    3.3425   -0.0376 C   0  0  0  0  0  0  0  0  0  0  0  0
    1.4053    4.2016   -0.2960 O   0  0  0  0  0  0  0  0  0  0  0  0
    3.6381    3.7423   -0.2520 C   0  0  0  0  0  0  0  0  0  0  0  0
    1.8537    2.0671    0.4463 C   0  0  0  0  0  0  0  0  0  0  0  0
    4.1051    5.0143    0.1751 C   0  0  0  0  0  0  0  0  0  0  0  0
    4.5415    2.8956   -0.9430 C   0  0  0  0  0  0  0  0  0  0  0  0
    2.7028    1.2399    1.2219 C   0  0  0  0  0  0  0  0  0  0  0  0
    0.5348    1.6053    0.2033 C   0  0  0  0  0  0  0  0  0  0  0  0
    3.3122    5.8503    0.8963 O   0  0  0  0  0  0  0  0  0  0  0  0
    5.4108    5.4396   -0.1382 C   0  0  0  0  0  0  0  0  0  0  0  0
    5.8533    3.3175   -1.2331 C   0  0  0  0  0  0  0  0  0  0  0  0
    2.2475    0.0159    1.7481 C   0  0  0  0  0  0  0  0  0  0  0  0
    0.0774    0.3820    0.7265 C   0  0  0  0  0  0  0  0  0  0  0  0
    6.2921    4.5969   -0.8433 C   0  0  0  0  0  0  0  0  0  0  0  0
    0.9266   -0.4256    1.5136 C   0  0  0  0  0  0  0  0  0  0  0  0
    7.5505    5.0159   -1.1933 O   0  0  0  0  0  0  0  0  0  0  0  0
    0.4578   -1.7038    2.0965 C   0  0  0  0  0  0  0  0  0  0  0  0
    8.4688    5.0874   -0.0893 C   0  0  0  0  0  0  0  0  0  0  0  0
    4.2453    1.9675   -1.2592 H   0  0  0  0  0  0  0  0  0  0  0  0
    3.6620    1.5281    1.4294 H   0  0  0  0  0  0  0  0  0  0  0  0
   -0.1163    2.1602   -0.3591 H   0  0  0  0  0  0  0  0  0  0  0  0
    3.8908    6.5804    1.2014 H   0  0  0  0  0  0  0  0  0  0  0  0
    5.7232    6.3714    0.1436 H   0  0  0  0  0  0  0  0  0  0  0  0
    6.4878    2.6970   -1.7408 H   0  0  0  0  0  0  0  0  0  0  0  0
    2.8856   -0.5498    2.3150 H   0  0  0  0  0  0  0  0  0  0  0  0
   -0.8844    0.0883    0.5338 H   0  0  0  0  0  0  0  0  0  0  0  0
    1.0762   -2.5238    1.7275 H   0  0  0  0  0  0  0  0  0  0  0  0
   -0.5810   -1.9187    1.8380 H   0  0  0  0  0  0  0  0  0  0  0  0
    0.5318   -1.6602    3.1852 H   0  0  0  0  0  0  0  0  0  0  0  0
    9.4570    5.3173   -0.4846 H   0  0  0  0  0  0  0  0  0  0  0  0
    8.1897    5.8855    0.6026 H   0  0  0  0  0  0  0  0  0  0  0  0
    8.5267    4.1360    0.4450 H   0  0  0  0  0  0  0  0  0  0  0  0
  1  2  2  0  0  0  0 
  1  3  1  0  0  0  0 
  1  4  1  0  0  0  0 
  3  5  2  0  0  0  0 
  3  6  1  0  0  0  0 
  4  7  2  0  0  0  0 
  4  8  1  0  0  0  0 
  5  9  1  0  0  0  0 
  5 10  1  0  0  0  0 
  6 11  2  0  0  0  0 
  7 12  1  0  0  0  0 
  8 13  2  0  0  0  0 
 10 14  2  0  0  0  0 
 11 14  1  0  0  0  0 
 12 15  2  0  0  0  0 
 13 15  1  0  0  0  0 
 14 16  1  0  0  0  0 
 15 17  1  0  0  0  0 
 16 18  1  0  0  0  0 
  6 19  1  0  0  0  0 
  7 20  1  0  0  0  0 
  8 21  1  0  0  0  0 
  9 22  1  0  0  0  0 
 10 23  1  0  0  0  0 
 11 24  1  0  0  0  0 
 12 25  1  0  0  0  0 
 13 26  1  0  0  0  0 
 17 27  1  0  0  0  0 
 17 28  1  0  0  0  0 
 17 29  1  0  0  0  0 
 18 30  1  0  0  0  0 
 18 31  1  0  0  0  0 
 18 32  1  0  0  0  0 
M  END
> <cdk:Title>
mexenone

> <Conformer>
1

> <SuperDrugID>
SD002898

$$$$
