mequinol
  CDK     0628171801

 17 17  0  0  0  0  0  0  0  0999 V2000
    2.6653    0.1159   -0.4846 C   0  0  0  0  0  0  0  0  0  0  0  0
    3.8191    0.0805    0.3210 C   0  0  0  0  0  0  0  0  0  0  0  0
    3.7156   -0.2194    1.6937 C   0  0  0  0  0  0  0  0  0  0  0  0
    2.4491   -0.4757    2.2569 C   0  0  0  0  0  0  0  0  0  0  0  0
    1.2958   -0.4407    1.4513 C   0  0  0  0  0  0  0  0  0  0  0  0
    1.3987   -0.1560    0.0726 C   0  0  0  0  0  0  0  0  0  0  0  0
    4.8201   -0.2609    2.4817 O   0  0  0  0  0  0  0  0  0  0  0  0
    0.2766   -0.1162   -0.7096 O   0  0  0  0  0  0  0  0  0  0  0  0
   -0.0286   -1.3842   -1.3184 C   0  0  0  0  0  0  0  0  0  0  0  0
    2.7476    0.3385   -1.4788 H   0  0  0  0  0  0  0  0  0  0  0  0
    4.7319    0.2761   -0.0951 H   0  0  0  0  0  0  0  0  0  0  0  0
    2.3627   -0.6861    3.2550 H   0  0  0  0  0  0  0  0  0  0  0  0
    0.3785   -0.6235    1.8662 H   0  0  0  0  0  0  0  0  0  0  0  0
    5.5811   -0.1024    1.8860 H   0  0  0  0  0  0  0  0  0  0  0  0
   -0.9337   -1.2647   -1.9132 H   0  0  0  0  0  0  0  0  0  0  0  0
    0.7736   -1.7125   -1.9841 H   0  0  0  0  0  0  0  0  0  0  0  0
   -0.2161   -2.1544   -0.5661 H   0  0  0  0  0  0  0  0  0  0  0  0
  1  2  2  0  0  0  0 
  1  6  1  0  0  0  0 
  2  3  1  0  0  0  0 
  3  4  2  0  0  0  0 
  4  5  1  0  0  0  0 
  5  6  2  0  0  0  0 
  3  7  1  0  0  0  0 
  6  8  1  0  0  0  0 
  8  9  1  0  0  0  0 
  1 10  1  0  0  0  0 
  2 11  1  0  0  0  0 
  4 12  1  0  0  0  0 
  5 13  1  0  0  0  0 
  7 14  1  0  0  0  0 
  9 15  1  0  0  0  0 
  9 16  1  0  0  0  0 
  9 17  1  0  0  0  0 
M  END
> <cdk:Title>
mequinol

> <Conformer>
1

> <SuperDrugID>
SD003433

$$$$
