cicrotoic acid
  CDK     0628171801

 28 28  0  0  0  0  0  0  0  0999 V2000
    2.4185   -3.9574    3.5986 C   0  0  1  0  0  0  0  0  0  0  0  0
    2.7045   -5.2234    2.7556 C   0  0  1  0  0  0  0  0  0  0  0  0
    3.0988   -4.8459    1.3075 C   0  0  1  0  0  0  0  0  0  0  0  0
    2.0030   -3.9846    0.6257 C   0  0  2  0  0  0  0  0  0  0  0  0
    1.6168   -2.7179    1.4610 C   0  0  2  0  0  0  0  0  0  0  0  0
    1.3119   -3.0821    2.9529 C   0  0  2  0  0  0  0  0  0  0  0  0
    0.5162   -1.9335    0.8299 C   0  0  0  0  0  0  0  0  0  0  0  0
    0.7344   -0.6617    0.4015 C   0  0  0  0  0  0  0  0  0  0  0  0
   -0.8040   -2.5572    0.6797 C   0  0  0  0  0  0  0  0  0  0  0  0
   -0.1463    0.2306   -0.2061 C   0  0  0  0  0  0  0  0  0  0  0  0
   -1.3453   -0.0163   -0.4664 O   0  0  0  0  0  0  0  0  0  0  0  0
    0.2857    1.4653   -0.5566 O   0  0  0  0  0  0  0  0  0  0  0  0
    2.1021   -4.2640    4.5981 H   0  0  0  0  0  0  0  0  0  0  0  0
    3.3365   -3.3729    3.7013 H   0  0  0  0  0  0  0  0  0  0  0  0
    3.5124   -5.7967    3.2179 H   0  0  0  0  0  0  0  0  0  0  0  0
    1.8126   -5.8562    2.7361 H   0  0  0  0  0  0  0  0  0  0  0  0
    4.0441   -4.2970    1.3185 H   0  0  0  0  0  0  0  0  0  0  0  0
    3.2499   -5.7628    0.7333 H   0  0  0  0  0  0  0  0  0  0  0  0
    1.1324   -4.6237    0.4643 H   0  0  0  0  0  0  0  0  0  0  0  0
    2.3684   -3.6710   -0.3557 H   0  0  0  0  0  0  0  0  0  0  0  0
    2.5312   -2.1132    1.4980 H   0  0  0  0  0  0  0  0  0  0  0  0
    1.2129   -2.1622    3.5350 H   0  0  0  0  0  0  0  0  0  0  0  0
    0.3691   -3.6269    3.0348 H   0  0  0  0  0  0  0  0  0  0  0  0
    1.6449   -0.2861    0.5262 H   0  0  0  0  0  0  0  0  0  0  0  0
   -1.5541   -1.9810    1.2275 H   0  0  0  0  0  0  0  0  0  0  0  0
   -0.8474   -3.5760    1.0620 H   0  0  0  0  0  0  0  0  0  0  0  0
   -1.0775   -2.6034   -0.3775 H   0  0  0  0  0  0  0  0  0  0  0  0
   -0.3309    2.0955   -0.9841 H   0  0  0  0  0  0  0  0  0  0  0  0
  1  2  1  0  0  0  0 
  2  3  1  0  0  0  0 
  3  4  1  0  0  0  0 
  4  5  1  0  0  0  0 
  5  6  1  0  0  0  0 
  1  6  1  0  0  0  0 
  5  7  1  0  0  0  0 
  7  8  2  0  0  0  0 
  7  9  1  0  0  0  0 
  8 10  1  0  0  0  0 
 10 11  2  0  0  0  0 
 10 12  1  0  0  0  0 
  1 13  1  0  0  0  0 
  1 14  1  0  0  0  0 
  2 15  1  0  0  0  0 
  2 16  1  0  0  0  0 
  3 17  1  0  0  0  0 
  3 18  1  0  0  0  0 
  4 19  1  0  0  0  0 
  4 20  1  0  0  0  0 
  5 21  1  0  0  0  0 
  6 22  1  0  0  0  0 
  6 23  1  0  0  0  0 
  8 24  1  0  0  0  0 
  9 25  1  0  0  0  0 
  9 26  1  0  0  0  0 
  9 27  1  0  0  0  0 
 12 28  1  0  0  0  0 
M  END
> <cdk:Title>
cicrotoic acid

> <Conformer>
1

> <SuperDrugID>
SD003170

$$$$
