aminitrozole
  CDK     0628171801

 17 17  0  0  0  0  0  0  0  0999 V2000
    4.2637   -2.0023    1.5762 N   0  0  0  0  0  0  0  0  0  0  0  0
    4.6176   -3.2544    1.9768 C   0  0  0  0  0  0  0  0  0  0  0  0
    3.0186   -1.5884    1.2348 C   0  0  0  0  0  0  0  0  0  0  0  0
    6.0282   -3.5310    2.2987 C   0  0  0  0  0  0  0  0  0  0  0  0
    3.7822   -4.1841    2.0822 O   0  0  0  0  0  0  0  0  0  0  0  0
    2.6306    0.0415    0.7230 S   0  0  0  0  0  0  0  0  0  0  0  0
    1.8615   -2.2874    1.2056 N   0  0  0  0  0  0  0  0  0  0  0  0
    0.9156   -0.2545    0.4905 C   0  0  0  0  0  0  0  0  0  0  0  0
    0.7484   -1.6096    0.8184 C   0  0  0  0  0  0  0  0  0  0  0  0
    0.0048    0.6200    0.0938 N   0  0  0  0  0  0  0  0  0  0  0  0
    0.3154    1.6692   -0.3119 O   0  0  0  0  0  0  0  0  0  0  0  0
   -1.2350    0.3565    0.1399 O   0  0  0  0  0  0  0  0  0  0  0  0
    4.9690   -1.3383    1.5231 H   0  0  0  0  0  0  0  0  0  0  0  0
    6.1604   -4.5684    2.6152 H   0  0  0  0  0  0  0  0  0  0  0  0
    6.6513   -3.3597    1.4195 H   0  0  0  0  0  0  0  0  0  0  0  0
    6.3596   -2.8773    3.1079 H   0  0  0  0  0  0  0  0  0  0  0  0
   -0.1576   -2.0796    0.7669 H   0  0  0  0  0  0  0  0  0  0  0  0
  1  2  1  0  0  0  0 
  1  3  1  0  0  0  0 
  2  4  1  0  0  0  0 
  2  5  2  0  0  0  0 
  3  6  1  0  0  0  0 
  3  7  2  0  0  0  0 
  6  8  1  0  0  0  0 
  7  9  1  0  0  0  0 
  8  9  2  0  0  0  0 
  8 10  1  0  0  0  0 
 10 11  2  0  0  0  0 
 10 12  1  0  0  0  0 
  1 13  1  0  0  0  0 
  4 14  1  0  0  0  0 
  4 15  1  0  0  0  0 
  4 16  1  0  0  0  0 
  9 17  1  0  0  0  0 
M  CHG  1  10   1
M  CHG  1  12  -1
M  END
> <cdk:Title>
aminitrozole

> <Conformer>
1

> <SuperDrugID>
SD000128

$$$$
