aminopromazine
  CDK     0628171801

 48 50  0  0  0  0  0  0  0  0999 V2000
   -5.8341   -0.8156    2.0948 C   0  0  2  0  0  0  0  0  0  0  0  0
   -4.9248    0.1714    1.5151 N   0  0  0  0  0  0  0  0  0  0  0  0
   -3.5651    0.1415    1.8144 C   0  0  0  0  0  0  0  0  0  0  0  0
   -3.1051   -0.0621    3.1406 C   0  0  0  0  0  0  0  0  0  0  0  0
   -1.7305   -0.1059    3.4407 C   0  0  0  0  0  0  0  0  0  0  0  0
   -0.7832    0.0636    2.4158 C   0  0  0  0  0  0  0  0  0  0  0  0
   -1.2117    0.2907    1.0967 C   0  0  0  0  0  0  0  0  0  0  0  0
   -2.5895    0.3535    0.8066 C   0  0  0  0  0  0  0  0  0  0  0  0
   -3.1153    0.7643   -0.8217 S   0  0  0  0  0  0  0  0  0  0  0  0
   -4.7077    1.4628   -0.5480 C   0  0  0  0  0  0  0  0  0  0  0  0
   -5.4115    1.1421    0.6428 C   0  0  0  0  0  0  0  0  0  0  0  0
   -6.6322    1.8229    0.8868 C   0  0  0  0  0  0  0  0  0  0  0  0
   -7.1632    2.7275   -0.0500 C   0  0  0  0  0  0  0  0  0  0  0  0
   -6.4810    2.9761   -1.2536 C   0  0  0  0  0  0  0  0  0  0  0  0
   -5.2516    2.3421   -1.5041 C   0  0  0  0  0  0  0  0  0  0  0  0
   -6.7076   -1.6329    1.0757 C   0  0  1  0  0  0  0  0  0  0  0  0
   -5.8750   -2.6648    0.2419 C   0  0  1  0  0  0  0  0  0  0  0  0
   -7.9017   -2.3042    1.7128 N   0  0  1  0  0  0  0  0  0  0  0  0
   -7.6303   -3.2486    2.8368 C   0  0  0  0  0  0  0  0  0  0  0  0
   -9.0651   -1.4084    1.9939 C   0  0  0  0  0  0  0  0  0  0  0  0
   -5.1091   -2.0371   -0.8876 N   0  0  1  0  0  0  0  0  0  0  0  0
   -3.8168   -2.7126   -1.2029 C   0  0  0  0  0  0  0  0  0  0  0  0
   -5.9169   -1.8260   -2.1276 C   0  0  0  0  0  0  0  0  0  0  0  0
   -7.1158   -0.9275    0.3513 H   0  0  0  0  0  0  0  0  0  0  0  0
   -6.4894   -0.2944    2.7935 H   0  0  0  0  0  0  0  0  0  0  0  0
   -5.2949   -1.5518    2.6958 H   0  0  0  0  0  0  0  0  0  0  0  0
   -3.7729   -0.1628    3.9081 H   0  0  0  0  0  0  0  0  0  0  0  0
   -1.4189   -0.2536    4.4049 H   0  0  0  0  0  0  0  0  0  0  0  0
    0.2165    0.0321    2.6339 H   0  0  0  0  0  0  0  0  0  0  0  0
   -0.5202    0.4283    0.3555 H   0  0  0  0  0  0  0  0  0  0  0  0
   -7.1559    1.6630    1.7493 H   0  0  0  0  0  0  0  0  0  0  0  0
   -8.0493    3.2016    0.1439 H   0  0  0  0  0  0  0  0  0  0  0  0
   -6.8774    3.6195   -1.9428 H   0  0  0  0  0  0  0  0  0  0  0  0
   -4.7539    2.5290   -2.3788 H   0  0  0  0  0  0  0  0  0  0  0  0
   -5.1932   -3.1760    0.9265 H   0  0  0  0  0  0  0  0  0  0  0  0
   -6.5404   -3.4382   -0.1576 H   0  0  0  0  0  0  0  0  0  0  0  0
   -6.8226   -3.9382    2.5898 H   0  0  0  0  0  0  0  0  0  0  0  0
   -8.5178   -3.8516    3.0412 H   0  0  0  0  0  0  0  0  0  0  0  0
   -7.3620   -2.7092    3.7483 H   0  0  0  0  0  0  0  0  0  0  0  0
   -9.3178   -0.8119    1.1159 H   0  0  0  0  0  0  0  0  0  0  0  0
   -9.9475   -1.9997    2.2454 H   0  0  0  0  0  0  0  0  0  0  0  0
   -8.8538   -0.7323    2.8246 H   0  0  0  0  0  0  0  0  0  0  0  0
   -3.9804   -3.7316   -1.5595 H   0  0  0  0  0  0  0  0  0  0  0  0
   -3.2713   -2.1589   -1.9695 H   0  0  0  0  0  0  0  0  0  0  0  0
   -3.1827   -2.7465   -0.3176 H   0  0  0  0  0  0  0  0  0  0  0  0
   -6.8350   -1.2768   -1.9200 H   0  0  0  0  0  0  0  0  0  0  0  0
   -5.3508   -1.2401   -2.8545 H   0  0  0  0  0  0  0  0  0  0  0  0
   -6.1839   -2.7829   -2.5844 H   0  0  0  0  0  0  0  0  0  0  0  0
  1  2  1  0  0  0  0 
  2  3  1  0  0  0  0 
  3  4  2  0  0  0  0 
  4  5  1  0  0  0  0 
  5  6  2  0  0  0  0 
  6  7  1  0  0  0  0 
  7  8  2  0  0  0  0 
  3  8  1  0  0  0  0 
  8  9  1  0  0  0  0 
  9 10  1  0  0  0  0 
 10 11  2  0  0  0  0 
  2 11  1  0  0  0  0 
 11 12  1  0  0  0  0 
 12 13  2  0  0  0  0 
 13 14  1  0  0  0  0 
 14 15  2  0  0  0  0 
 10 15  1  0  0  0  0 
 16  1  1  0  0  0  0 
 16 17  1  0  0  0  0 
 16 18  1  0  0  0  0 
 18 19  1  0  0  0  0 
 18 20  1  0  0  0  0 
 17 21  1  0  0  0  0 
 21 22  1  0  0  0  0 
 21 23  1  0  0  0  0 
 16 24  1  0  0  0  0 
  1 25  1  0  0  0  0 
  1 26  1  0  0  0  0 
  4 27  1  0  0  0  0 
  5 28  1  0  0  0  0 
  6 29  1  0  0  0  0 
  7 30  1  0  0  0  0 
 12 31  1  0  0  0  0 
 13 32  1  0  0  0  0 
 14 33  1  0  0  0  0 
 15 34  1  0  0  0  0 
 17 35  1  0  0  0  0 
 17 36  1  0  0  0  0 
 19 37  1  0  0  0  0 
 19 38  1  0  0  0  0 
 19 39  1  0  0  0  0 
 20 40  1  0  0  0  0 
 20 41  1  0  0  0  0 
 20 42  1  0  0  0  0 
 22 43  1  0  0  0  0 
 22 44  1  0  0  0  0 
 22 45  1  0  0  0  0 
 23 46  1  0  0  0  0 
 23 47  1  0  0  0  0 
 23 48  1  0  0  0  0 
M  END
> <cdk:Title>
aminopromazine

> <Conformer>
1

> <SuperDrugID>
SD000139

$$$$
