ormeloxifene
  CDK     0628171802

 69 73  0  0  0  0  0  0  0  0999 V2000
   -6.1510   -3.9587    0.3941 C   0  0  1  0  0  0  0  0  0  0  0  0
   -6.8250   -2.5229    0.3627 C   0  0  2  0  0  0  0  0  0  0  0  0
   -6.7791   -4.7686    1.4135 O   0  0  0  0  0  0  0  0  0  0  0  0
   -6.8894   -1.8476    1.7980 C   0  0  1  0  0  0  0  0  0  0  0  0
   -8.1744   -2.4704   -0.3157 C   0  0  0  0  0  0  0  0  0  0  0  0
   -6.8422   -4.2357    2.6785 C   0  0  0  0  0  0  0  0  0  0  0  0
   -6.9469   -2.8405    2.9241 C   0  0  0  0  0  0  0  0  0  0  0  0
   -5.8220   -0.7871    1.9336 C   0  0  0  0  0  0  0  0  0  0  0  0
   -9.2946   -3.1788    0.1882 C   0  0  0  0  0  0  0  0  0  0  0  0
   -8.3584   -1.7022   -1.4956 C   0  0  0  0  0  0  0  0  0  0  0  0
   -6.8037   -5.1465    3.7525 C   0  0  0  0  0  0  0  0  0  0  0  0
   -7.0786   -2.4016    4.2647 C   0  0  0  0  0  0  0  0  0  0  0  0
   -4.6604   -0.9339    2.7343 C   0  0  0  0  0  0  0  0  0  0  0  0
   -5.9616    0.4212    1.2038 C   0  0  0  0  0  0  0  0  0  0  0  0
  -10.5360   -3.1468   -0.4784 C   0  0  0  0  0  0  0  0  0  0  0  0
   -9.5988   -1.6609   -2.1570 C   0  0  0  0  0  0  0  0  0  0  0  0
   -6.8852   -4.6929    5.0824 C   0  0  0  0  0  0  0  0  0  0  0  0
   -7.0354   -3.3151    5.3336 C   0  0  0  0  0  0  0  0  0  0  0  0
   -3.6772    0.0716    2.7912 C   0  0  0  0  0  0  0  0  0  0  0  0
   -4.9797    1.4281    1.2564 C   0  0  0  0  0  0  0  0  0  0  0  0
  -10.6882   -2.3867   -1.6519 C   0  0  0  0  0  0  0  0  0  0  0  0
   -6.7756   -5.5939    6.1086 O   0  0  0  0  0  0  0  0  0  0  0  0
   -3.8221    1.2509    2.0377 C   0  0  0  0  0  0  0  0  0  0  0  0
   -8.0427   -5.9878    6.6641 C   0  0  0  0  0  0  0  0  0  0  0  0
   -2.8525    2.2178    2.1025 O   0  0  0  0  0  0  0  0  0  0  0  0
   -1.9971    2.3191    0.9408 C   0  0  2  0  0  0  0  0  0  0  0  0
   -1.0921    1.0807    0.7084 C   0  0  2  0  0  0  0  0  0  0  0  0
    0.0727    1.3432   -0.1934 N   0  0  1  0  0  0  0  0  0  0  0  0
    1.0323    0.2169   -0.2576 C   0  0  1  0  0  0  0  0  0  0  0  0
   -0.2352    1.6555   -1.6110 C   0  0  1  0  0  0  0  0  0  0  0  0
    1.9599    0.5667   -1.4287 C   0  0  1  0  0  0  0  0  0  0  0  0
    1.0640    1.3644   -2.3951 C   0  0  1  0  0  0  0  0  0  0  0  0
   -6.3603   -4.7417   -0.9428 C   0  0  0  0  0  0  0  0  0  0  0  0
   -4.5987   -3.9029    0.6482 C   0  0  0  0  0  0  0  0  0  0  0  0
   -6.1514   -1.9302   -0.2653 H   0  0  0  0  0  0  0  0  0  0  0  0
   -7.8370   -1.3032    1.8935 H   0  0  0  0  0  0  0  0  0  0  0  0
   -9.2153   -3.7301    1.0435 H   0  0  0  0  0  0  0  0  0  0  0  0
   -7.5855   -1.1621   -1.8896 H   0  0  0  0  0  0  0  0  0  0  0  0
   -6.7067   -6.1490    3.5682 H   0  0  0  0  0  0  0  0  0  0  0  0
   -7.1784   -1.4041    4.4689 H   0  0  0  0  0  0  0  0  0  0  0  0
   -4.5120   -1.7804    3.2841 H   0  0  0  0  0  0  0  0  0  0  0  0
   -6.7857    0.5742    0.6156 H   0  0  0  0  0  0  0  0  0  0  0  0
  -11.3302   -3.6785   -0.1104 H   0  0  0  0  0  0  0  0  0  0  0  0
   -9.7100   -1.1047   -3.0065 H   0  0  0  0  0  0  0  0  0  0  0  0
   -7.1055   -2.9777    6.2965 H   0  0  0  0  0  0  0  0  0  0  0  0
   -2.8495   -0.0556    3.3786 H   0  0  0  0  0  0  0  0  0  0  0  0
   -5.1022    2.2908    0.7213 H   0  0  0  0  0  0  0  0  0  0  0  0
  -11.5884   -2.3589   -2.1384 H   0  0  0  0  0  0  0  0  0  0  0  0
   -7.8587   -6.7750    7.3961 H   0  0  0  0  0  0  0  0  0  0  0  0
   -8.5234   -5.1511    7.1775 H   0  0  0  0  0  0  0  0  0  0  0  0
   -8.7172   -6.3857    5.9003 H   0  0  0  0  0  0  0  0  0  0  0  0
   -1.3540    3.1827    1.1161 H   0  0  0  0  0  0  0  0  0  0  0  0
   -2.5843    2.5270    0.0423 H   0  0  0  0  0  0  0  0  0  0  0  0
   -1.6999    0.2605    0.3136 H   0  0  0  0  0  0  0  0  0  0  0  0
   -0.7098    0.7702    1.6849 H   0  0  0  0  0  0  0  0  0  0  0  0
    1.5952    0.1185    0.6741 H   0  0  0  0  0  0  0  0  0  0  0  0
    0.5186   -0.7274   -0.4673 H   0  0  0  0  0  0  0  0  0  0  0  0
   -1.0404    1.0163   -1.9833 H   0  0  0  0  0  0  0  0  0  0  0  0
   -0.5354    2.7003   -1.7253 H   0  0  0  0  0  0  0  0  0  0  0  0
    2.7883    1.1863   -1.0758 H   0  0  0  0  0  0  0  0  0  0  0  0
    2.3649   -0.3337   -1.8975 H   0  0  0  0  0  0  0  0  0  0  0  0
    0.8511    0.7798   -3.2955 H   0  0  0  0  0  0  0  0  0  0  0  0
    1.5566    2.2945   -2.6908 H   0  0  0  0  0  0  0  0  0  0  0  0
   -5.9342   -4.1888   -1.7827 H   0  0  0  0  0  0  0  0  0  0  0  0
   -7.4182   -4.9126   -1.1460 H   0  0  0  0  0  0  0  0  0  0  0  0
   -5.8879   -5.7257   -0.8967 H   0  0  0  0  0  0  0  0  0  0  0  0
   -4.4170   -3.5614    1.7068 H   0  0  0  0  0  0  0  0  0  0  0  0
   -4.2146   -4.9678    0.6691 H   0  0  0  0  0  0  0  0  0  0  0  0
   -4.1341   -3.2200   -0.1855 H   0  0  0  0  0  0  0  0  0  0  0  0
  2  1  1  0  0  0  0 
  1  3  1  0  0  0  0 
  4  2  1  0  0  0  0 
  2  5  1  0  0  0  0 
  3  6  1  0  0  0  0 
  4  7  1  0  0  0  0 
  4  8  1  0  0  0  0 
  5  9  2  0  0  0  0 
  5 10  1  0  0  0  0 
  6  7  2  0  0  0  0 
  6 11  1  0  0  0  0 
  7 12  1  0  0  0  0 
  8 13  2  0  0  0  0 
  8 14  1  0  0  0  0 
  9 15  1  0  0  0  0 
 10 16  2  0  0  0  0 
 11 17  2  0  0  0  0 
 12 18  2  0  0  0  0 
 13 19  1  0  0  0  0 
 14 20  2  0  0  0  0 
 15 21  2  0  0  0  0 
 16 21  1  0  0  0  0 
 17 18  1  0  0  0  0 
 17 22  1  0  0  0  0 
 19 23  2  0  0  0  0 
 20 23  1  0  0  0  0 
 22 24  1  0  0  0  0 
 23 25  1  0  0  0  0 
 25 26  1  0  0  0  0 
 26 27  1  0  0  0  0 
 27 28  1  0  0  0  0 
 28 29  1  0  0  0  0 
 28 30  1  0  0  0  0 
 29 31  1  0  0  0  0 
 30 32  1  0  0  0  0 
 31 32  1  0  0  0  0 
  1 33  1  0  0  0  0 
  1 34  1  0  0  0  0 
  2 35  1  0  0  0  0 
  4 36  1  0  0  0  0 
  9 37  1  0  0  0  0 
 10 38  1  0  0  0  0 
 11 39  1  0  0  0  0 
 12 40  1  0  0  0  0 
 13 41  1  0  0  0  0 
 14 42  1  0  0  0  0 
 15 43  1  0  0  0  0 
 16 44  1  0  0  0  0 
 18 45  1  0  0  0  0 
 19 46  1  0  0  0  0 
 20 47  1  0  0  0  0 
 21 48  1  0  0  0  0 
 24 49  1  0  0  0  0 
 24 50  1  0  0  0  0 
 24 51  1  0  0  0  0 
 26 52  1  0  0  0  0 
 26 53  1  0  0  0  0 
 27 54  1  0  0  0  0 
 27 55  1  0  0  0  0 
 29 56  1  0  0  0  0 
 29 57  1  0  0  0  0 
 30 58  1  0  0  0  0 
 30 59  1  0  0  0  0 
 31 60  1  0  0  0  0 
 31 61  1  0  0  0  0 
 32 62  1  0  0  0  0 
 32 63  1  0  0  0  0 
 33 64  1  0  0  0  0 
 33 65  1  0  0  0  0 
 33 66  1  0  0  0  0 
 34 67  1  0  0  0  0 
 34 68  1  0  0  0  0 
 34 69  1  0  0  0  0 
M  END
> <cdk:Title>
ormeloxifene

> <Conformer>
1

> <SuperDrugID>
SD000497

$$$$
