mequitazine
  CDK     0628171801

 45 49  0  0  0  0  0  0  0  0999 V2000
    0.4693   -1.9304   -0.8823 C   0  0  2  0  0  0  0  0  0  0  0  0
   -0.4565   -0.9410   -0.3280 N   0  0  0  0  0  0  0  0  0  0  0  0
   -0.0508    0.3879   -0.1936 C   0  0  0  0  0  0  0  0  0  0  0  0
    1.2330    0.7235    0.3098 C   0  0  0  0  0  0  0  0  0  0  0  0
    1.6394    2.0642    0.4466 C   0  0  0  0  0  0  0  0  0  0  0  0
    0.7657    3.1010    0.0788 C   0  0  0  0  0  0  0  0  0  0  0  0
   -0.5153    2.7991   -0.4109 C   0  0  0  0  0  0  0  0  0  0  0  0
   -0.9195    1.4559   -0.5352 C   0  0  0  0  0  0  0  0  0  0  0  0
   -2.5524    1.0855   -1.0741 S   0  0  0  0  0  0  0  0  0  0  0  0
   -2.8593   -0.4802   -0.3296 C   0  0  0  0  0  0  0  0  0  0  0  0
   -4.1856   -0.8855   -0.0845 C   0  0  0  0  0  0  0  0  0  0  0  0
   -4.4369   -2.1119    0.5528 C   0  0  0  0  0  0  0  0  0  0  0  0
   -3.3642   -2.9253    0.9542 C   0  0  0  0  0  0  0  0  0  0  0  0
   -2.0404   -2.5267    0.6896 C   0  0  0  0  0  0  0  0  0  0  0  0
   -1.7588   -1.3083    0.0194 C   0  0  0  0  0  0  0  0  0  0  0  0
   -0.0933   -2.8303   -2.0356 C   0  0  1  0  0  0  0  0  0  0  0  0
   -0.8517   -2.0579   -3.1806 C   0  0  1  0  0  0  0  0  0  0  0  0
    1.0153   -3.7308   -2.7097 C   0  0  1  0  0  0  0  0  0  0  0  0
    0.9260   -3.6799   -4.2116 N   0  0  2  0  0  0  0  0  0  0  0  0
    1.1940   -2.2706   -4.6760 C   0  0  1  0  0  0  0  0  0  0  0  0
    0.1624   -1.2661   -4.0637 C   0  0  2  0  0  0  0  0  0  0  0  0
   -1.5394   -3.1153   -4.1050 C   0  0  2  0  0  0  0  0  0  0  0  0
   -0.4528   -4.1086   -4.6394 C   0  0  1  0  0  0  0  0  0  0  0  0
    0.8097   -2.5877   -0.0755 H   0  0  0  0  0  0  0  0  0  0  0  0
    1.3663   -1.4433   -1.2767 H   0  0  0  0  0  0  0  0  0  0  0  0
    1.8869   -0.0084    0.5932 H   0  0  0  0  0  0  0  0  0  0  0  0
    2.5677    2.2884    0.8155 H   0  0  0  0  0  0  0  0  0  0  0  0
    1.0557    4.0759    0.1752 H   0  0  0  0  0  0  0  0  0  0  0  0
   -1.1524    3.5581   -0.6620 H   0  0  0  0  0  0  0  0  0  0  0  0
   -4.9699   -0.2922   -0.3622 H   0  0  0  0  0  0  0  0  0  0  0  0
   -5.4000   -2.4102    0.7288 H   0  0  0  0  0  0  0  0  0  0  0  0
   -3.5470   -3.8109    1.4303 H   0  0  0  0  0  0  0  0  0  0  0  0
   -1.2798   -3.1406    0.9867 H   0  0  0  0  0  0  0  0  0  0  0  0
   -0.8178   -3.5098   -1.5749 H   0  0  0  0  0  0  0  0  0  0  0  0
   -1.6090   -1.3817   -2.7842 H   0  0  0  0  0  0  0  0  0  0  0  0
    2.0219   -3.4222   -2.4116 H   0  0  0  0  0  0  0  0  0  0  0  0
    0.9121   -4.7674   -2.3750 H   0  0  0  0  0  0  0  0  0  0  0  0
    2.2084   -1.9749   -4.3936 H   0  0  0  0  0  0  0  0  0  0  0  0
    1.1489   -2.2296   -5.7689 H   0  0  0  0  0  0  0  0  0  0  0  0
    0.6693   -0.5058   -3.4674 H   0  0  0  0  0  0  0  0  0  0  0  0
   -0.3721   -0.7417   -4.8605 H   0  0  0  0  0  0  0  0  0  0  0  0
   -2.0335   -2.6130   -4.9435 H   0  0  0  0  0  0  0  0  0  0  0  0
   -2.3095   -3.6535   -3.5463 H   0  0  0  0  0  0  0  0  0  0  0  0
   -0.5006   -4.1651   -5.7303 H   0  0  0  0  0  0  0  0  0  0  0  0
   -0.6554   -5.1183   -4.2666 H   0  0  0  0  0  0  0  0  0  0  0  0
  1  2  1  0  0  0  0 
  2  3  1  0  0  0  0 
  3  4  2  0  0  0  0 
  4  5  1  0  0  0  0 
  5  6  2  0  0  0  0 
  6  7  1  0  0  0  0 
  7  8  2  0  0  0  0 
  3  8  1  0  0  0  0 
  8  9  1  0  0  0  0 
  9 10  1  0  0  0  0 
 10 11  2  0  0  0  0 
 11 12  1  0  0  0  0 
 12 13  2  0  0  0  0 
 13 14  1  0  0  0  0 
 14 15  2  0  0  0  0 
  2 15  1  0  0  0  0 
 10 15  1  0  0  0  0 
 16  1  1  0  0  0  0 
 18 19  1  0  0  0  0 
 19 20  1  0  0  0  0 
 20 21  1  0  0  0  0 
 17 21  1  0  0  0  0 
 16 17  1  0  0  0  0 
 16 18  1  0  0  0  0 
 17 22  1  0  0  0  0 
 19 23  1  0  0  0  0 
 22 23  1  0  0  0  0 
  1 24  1  0  0  0  0 
  1 25  1  0  0  0  0 
  4 26  1  0  0  0  0 
  5 27  1  0  0  0  0 
  6 28  1  0  0  0  0 
  7 29  1  0  0  0  0 
 11 30  1  0  0  0  0 
 12 31  1  0  0  0  0 
 13 32  1  0  0  0  0 
 14 33  1  0  0  0  0 
 16 34  1  0  0  0  0 
 17 35  1  0  0  0  0 
 18 36  1  0  0  0  0 
 18 37  1  0  0  0  0 
 20 38  1  0  0  0  0 
 20 39  1  0  0  0  0 
 21 40  1  0  0  0  0 
 21 41  1  0  0  0  0 
 22 42  1  0  0  0  0 
 22 43  1  0  0  0  0 
 23 44  1  0  0  0  0 
 23 45  1  0  0  0  0 
M  END
> <cdk:Title>
mequitazine

> <Conformer>
1

> <SuperDrugID>
SD001510

$$$$
