etofenamate
  CDK     0628171801

 44 45  0  0  0  0  0  0  0  0999 V2000
   -0.9628    3.0046   -0.2125 N   0  0  0  0  0  0  0  0  0  0  0  0
   -2.1702    3.2911   -0.8005 C   0  0  0  0  0  0  0  0  0  0  0  0
   -0.2659    1.8321   -0.2427 C   0  0  0  0  0  0  0  0  0  0  0  0
   -2.3648    4.5516   -1.4553 C   0  0  0  0  0  0  0  0  0  0  0  0
   -3.2452    2.3671   -0.7522 C   0  0  0  0  0  0  0  0  0  0  0  0
   -0.6619    0.6647    0.4483 C   0  0  0  0  0  0  0  0  0  0  0  0
    0.9525    1.8198   -0.9543 C   0  0  0  0  0  0  0  0  0  0  0  0
   -1.3356    5.5378   -1.6269 C   0  0  0  0  0  0  0  0  0  0  0  0
   -3.6474    4.8308   -2.0022 C   0  0  0  0  0  0  0  0  0  0  0  0
   -4.5018    2.6766   -1.2938 C   0  0  0  0  0  0  0  0  0  0  0  0
    0.0938   -0.5328    0.3729 C   0  0  0  0  0  0  0  0  0  0  0  0
    1.7359    0.6552   -1.0083 C   0  0  0  0  0  0  0  0  0  0  0  0
   -1.5743    6.6735   -2.3562 O   0  0  0  0  0  0  0  0  0  0  0  0
   -0.1819    5.3950   -1.1580 O   0  0  0  0  0  0  0  0  0  0  0  0
   -4.7035    3.9109   -1.9207 C   0  0  0  0  0  0  0  0  0  0  0  0
   -0.3396   -1.7981    1.0327 C   0  0  1  0  0  0  0  0  0  0  0  0
    1.3074   -0.5120   -0.3554 C   0  0  0  0  0  0  0  0  0  0  0  0
   -0.6560    7.7297   -2.6682 C   0  0  2  0  0  0  0  0  0  0  0  0
    0.5904   -2.1650    1.9730 F   0  0  0  0  0  0  0  0  0  0  0  0
   -1.5555   -1.7213    1.6704 F   0  0  0  0  0  0  0  0  0  0  0  0
   -0.4451   -2.8082    0.1056 F   0  0  0  0  0  0  0  0  0  0  0  0
   -1.3562    8.7666   -3.5649 C   0  0  1  0  0  0  0  0  0  0  0  0
   -2.4960    9.3008   -2.8654 O   0  0  0  0  0  0  0  0  0  0  0  0
   -3.2706   10.2384   -3.6326 C   0  0  2  0  0  0  0  0  0  0  0  0
   -4.4562   10.7422   -2.7909 C   0  0  2  0  0  0  0  0  0  0  0  0
   -5.1724   11.7404   -3.5094 O   0  0  0  0  0  0  0  0  0  0  0  0
   -0.4854    3.7583    0.1644 H   0  0  0  0  0  0  0  0  0  0  0  0
   -3.1461    1.4562   -0.3103 H   0  0  0  0  0  0  0  0  0  0  0  0
   -1.4979    0.6972    1.0301 H   0  0  0  0  0  0  0  0  0  0  0  0
    1.2779    2.6583   -1.4438 H   0  0  0  0  0  0  0  0  0  0  0  0
   -3.8389    5.7162   -2.4797 H   0  0  0  0  0  0  0  0  0  0  0  0
   -5.2698    2.0047   -1.2301 H   0  0  0  0  0  0  0  0  0  0  0  0
    2.6188    0.6555   -1.5202 H   0  0  0  0  0  0  0  0  0  0  0  0
   -5.6162    4.1408   -2.3225 H   0  0  0  0  0  0  0  0  0  0  0  0
    1.8914   -1.3521   -0.4134 H   0  0  0  0  0  0  0  0  0  0  0  0
    0.2053    7.3225   -3.2029 H   0  0  0  0  0  0  0  0  0  0  0  0
   -0.3114    8.2061   -1.7472 H   0  0  0  0  0  0  0  0  0  0  0  0
   -0.6467    9.5636   -3.8079 H   0  0  0  0  0  0  0  0  0  0  0  0
   -1.6648    8.2732   -4.4912 H   0  0  0  0  0  0  0  0  0  0  0  0
   -3.6616    9.7569   -4.5322 H   0  0  0  0  0  0  0  0  0  0  0  0
   -2.6522   11.0918   -3.9220 H   0  0  0  0  0  0  0  0  0  0  0  0
   -4.0956   11.1704   -1.8544 H   0  0  0  0  0  0  0  0  0  0  0  0
   -5.1300    9.9138   -2.5661 H   0  0  0  0  0  0  0  0  0  0  0  0
   -5.8876   12.0238   -2.9025 H   0  0  0  0  0  0  0  0  0  0  0  0
  1  2  1  0  0  0  0 
  1  3  1  0  0  0  0 
  2  4  2  0  0  0  0 
  2  5  1  0  0  0  0 
  3  6  2  0  0  0  0 
  3  7  1  0  0  0  0 
  4  8  1  0  0  0  0 
  4  9  1  0  0  0  0 
  5 10  2  0  0  0  0 
  6 11  1  0  0  0  0 
  7 12  2  0  0  0  0 
  8 13  1  0  0  0  0 
  8 14  2  0  0  0  0 
  9 15  2  0  0  0  0 
 10 15  1  0  0  0  0 
 11 16  1  0  0  0  0 
 11 17  2  0  0  0  0 
 12 17  1  0  0  0  0 
 13 18  1  0  0  0  0 
 16 19  1  0  0  0  0 
 16 20  1  0  0  0  0 
 16 21  1  0  0  0  0 
 18 22  1  0  0  0  0 
 22 23  1  0  0  0  0 
 23 24  1  0  0  0  0 
 24 25  1  0  0  0  0 
 25 26  1  0  0  0  0 
  1 27  1  0  0  0  0 
  5 28  1  0  0  0  0 
  6 29  1  0  0  0  0 
  7 30  1  0  0  0  0 
  9 31  1  0  0  0  0 
 10 32  1  0  0  0  0 
 12 33  1  0  0  0  0 
 15 34  1  0  0  0  0 
 17 35  1  0  0  0  0 
 18 36  1  0  0  0  0 
 18 37  1  0  0  0  0 
 22 38  1  0  0  0  0 
 22 39  1  0  0  0  0 
 24 40  1  0  0  0  0 
 24 41  1  0  0  0  0 
 25 42  1  0  0  0  0 
 25 43  1  0  0  0  0 
 26 44  1  0  0  0  0 
M  END
> <cdk:Title>
etofenamate

> <Conformer>
1

> <SuperDrugID>
SD002779

$$$$
