difenoxin
  CDK     0628171802

 60 63  0  0  0  0  0  0  0  0999 V2000
   -1.3900    0.1759    0.2183 C   0  0  1  0  0  0  0  0  0  0  0  0
   -1.5602   -1.2898   -0.3582 C   0  0  1  0  0  0  0  0  0  0  0  0
   -0.0263    0.3473    0.4312 C   0  0  0  0  0  0  0  0  0  0  0  0
   -1.9808    1.1602   -0.7838 C   0  0  0  0  0  0  0  0  0  0  0  0
   -2.0041    0.4074    1.5963 C   0  0  0  0  0  0  0  0  0  0  0  0
   -0.8869   -1.6180   -1.7267 C   0  0  2  0  0  0  0  0  0  0  0  0
    1.1010    0.4930    0.6028 N   0  0  0  0  0  0  0  0  0  0  0  0
   -3.3918    1.3286   -0.8729 C   0  0  0  0  0  0  0  0  0  0  0  0
   -1.1888    1.9302   -1.6845 C   0  0  0  0  0  0  0  0  0  0  0  0
   -1.9680    1.7021    2.1916 C   0  0  0  0  0  0  0  0  0  0  0  0
   -2.6497   -0.6153    2.3485 C   0  0  0  0  0  0  0  0  0  0  0  0
   -1.3712   -2.8980   -2.3461 N   0  0  2  0  0  0  0  0  0  0  0  0
   -3.9742    2.2441   -1.7703 C   0  0  0  0  0  0  0  0  0  0  0  0
   -1.7678    2.8266   -2.6014 C   0  0  0  0  0  0  0  0  0  0  0  0
   -2.5227    1.9544    3.4596 C   0  0  0  0  0  0  0  0  0  0  0  0
   -3.1949   -0.3721    3.6217 C   0  0  0  0  0  0  0  0  0  0  0  0
   -0.9806   -4.1395   -1.6074 C   0  0  2  0  0  0  0  0  0  0  0  0
   -1.0340   -2.9700   -3.8032 C   0  0  1  0  0  0  0  0  0  0  0  0
   -3.1621    2.9893   -2.6404 C   0  0  0  0  0  0  0  0  0  0  0  0
   -3.1308    0.9134    4.1795 C   0  0  0  0  0  0  0  0  0  0  0  0
   -1.6497   -5.3856   -2.2454 C   0  0  2  0  0  0  0  0  0  0  0  0
   -1.5902   -4.2534   -4.4828 C   0  0  1  0  0  0  0  0  0  0  0  0
   -1.2575   -5.6113   -3.7545 C   0  0  1  0  0  0  0  0  0  0  0  0
    0.1967   -5.9817   -3.8005 C   0  0  0  0  0  0  0  0  0  0  0  0
   -2.0038   -6.7354   -4.4639 C   0  0  0  0  0  0  0  0  0  0  0  0
    1.1215   -5.2518   -4.4697 O   0  0  0  0  0  0  0  0  0  0  0  0
    0.6130   -7.0126   -3.2218 O   0  0  0  0  0  0  0  0  0  0  0  0
   -2.9957   -7.5430   -3.8414 C   0  0  0  0  0  0  0  0  0  0  0  0
   -1.7104   -7.0309   -5.8264 C   0  0  0  0  0  0  0  0  0  0  0  0
   -3.6598   -8.5714   -4.5368 C   0  0  0  0  0  0  0  0  0  0  0  0
   -2.3614   -8.0662   -6.5228 C   0  0  0  0  0  0  0  0  0  0  0  0
   -3.3396   -8.8375   -5.8771 C   0  0  0  0  0  0  0  0  0  0  0  0
   -1.1569   -2.0025    0.3659 H   0  0  0  0  0  0  0  0  0  0  0  0
   -2.6275   -1.5069   -0.4606 H   0  0  0  0  0  0  0  0  0  0  0  0
    0.2005   -1.6486   -1.6032 H   0  0  0  0  0  0  0  0  0  0  0  0
   -1.1125   -0.7951   -2.4075 H   0  0  0  0  0  0  0  0  0  0  0  0
   -4.0157    0.7868   -0.2704 H   0  0  0  0  0  0  0  0  0  0  0  0
   -0.1713    1.8423   -1.6978 H   0  0  0  0  0  0  0  0  0  0  0  0
   -1.5333    2.4833    1.6949 H   0  0  0  0  0  0  0  0  0  0  0  0
   -2.7417   -1.5634    1.9874 H   0  0  0  0  0  0  0  0  0  0  0  0
   -4.9893    2.3647   -1.7926 H   0  0  0  0  0  0  0  0  0  0  0  0
   -1.1749    3.3605   -3.2416 H   0  0  0  0  0  0  0  0  0  0  0  0
   -2.4875    2.8946    3.8587 H   0  0  0  0  0  0  0  0  0  0  0  0
   -3.6419   -1.1321    4.1415 H   0  0  0  0  0  0  0  0  0  0  0  0
   -1.3249   -4.0888   -0.5738 H   0  0  0  0  0  0  0  0  0  0  0  0
    0.1064   -4.2569   -1.5888 H   0  0  0  0  0  0  0  0  0  0  0  0
   -1.5850   -2.1123   -4.3112 H   0  0  0  0  0  0  0  0  0  0  0  0
    0.0989   -2.9800   -3.9029 H   0  0  0  0  0  0  0  0  0  0  0  0
   -3.5820    3.6456   -3.3030 H   0  0  0  0  0  0  0  0  0  0  0  0
   -3.5302    1.0903    5.1031 H   0  0  0  0  0  0  0  0  0  0  0  0
   -2.7291   -5.2294   -2.1638 H   0  0  0  0  0  0  0  0  0  0  0  0
   -1.4002   -6.2631   -1.6410 H   0  0  0  0  0  0  0  0  0  0  0  0
   -2.6779   -4.1491   -4.5422 H   0  0  0  0  0  0  0  0  0  0  0  0
   -1.2145   -4.2596   -5.5084 H   0  0  0  0  0  0  0  0  0  0  0  0
    2.0629   -5.5242   -4.4727 H   0  0  0  0  0  0  0  0  0  0  0  0
   -3.2586   -7.4022   -2.8677 H   0  0  0  0  0  0  0  0  0  0  0  0
   -1.0059   -6.4901   -6.3332 H   0  0  0  0  0  0  0  0  0  0  0  0
   -4.3730   -9.1313   -4.0636 H   0  0  0  0  0  0  0  0  0  0  0  0
   -2.1200   -8.2626   -7.4962 H   0  0  0  0  0  0  0  0  0  0  0  0
   -3.8147   -9.5911   -6.3796 H   0  0  0  0  0  0  0  0  0  0  0  0
  1  2  1  0  0  0  0 
  1  3  1  0  0  0  0 
  1  4  1  0  0  0  0 
  1  5  1  0  0  0  0 
  2  6  1  0  0  0  0 
  3  7  3  0  0  0  0 
  4  8  2  0  0  0  0 
  4  9  1  0  0  0  0 
  5 10  2  0  0  0  0 
  5 11  1  0  0  0  0 
  6 12  1  0  0  0  0 
  8 13  1  0  0  0  0 
  9 14  2  0  0  0  0 
 10 15  1  0  0  0  0 
 11 16  2  0  0  0  0 
 12 17  1  0  0  0  0 
 12 18  1  0  0  0  0 
 13 19  2  0  0  0  0 
 14 19  1  0  0  0  0 
 15 20  2  0  0  0  0 
 16 20  1  0  0  0  0 
 17 21  1  0  0  0  0 
 18 22  1  0  0  0  0 
 21 23  1  0  0  0  0 
 22 23  1  0  0  0  0 
 23 24  1  0  0  0  0 
 23 25  1  0  0  0  0 
 24 26  1  0  0  0  0 
 24 27  2  0  0  0  0 
 25 28  2  0  0  0  0 
 25 29  1  0  0  0  0 
 28 30  1  0  0  0  0 
 29 31  2  0  0  0  0 
 30 32  2  0  0  0  0 
 31 32  1  0  0  0  0 
  2 33  1  0  0  0  0 
  2 34  1  0  0  0  0 
  6 35  1  0  0  0  0 
  6 36  1  0  0  0  0 
  8 37  1  0  0  0  0 
  9 38  1  0  0  0  0 
 10 39  1  0  0  0  0 
 11 40  1  0  0  0  0 
 13 41  1  0  0  0  0 
 14 42  1  0  0  0  0 
 15 43  1  0  0  0  0 
 16 44  1  0  0  0  0 
 17 45  1  0  0  0  0 
 17 46  1  0  0  0  0 
 18 47  1  0  0  0  0 
 18 48  1  0  0  0  0 
 19 49  1  0  0  0  0 
 20 50  1  0  0  0  0 
 21 51  1  0  0  0  0 
 21 52  1  0  0  0  0 
 22 53  1  0  0  0  0 
 22 54  1  0  0  0  0 
 26 55  1  0  0  0  0 
 28 56  1  0  0  0  0 
 29 57  1  0  0  0  0 
 30 58  1  0  0  0  0 
 31 59  1  0  0  0  0 
 32 60  1  0  0  0  0 
M  END
> <cdk:Title>
difenoxin

> <Conformer>
1

> <SuperDrugID>
SD000781

$$$$
