methoxsalen
  CDK     0628171801

 24 26  0  0  0  0  0  0  0  0999 V2000
    0.3278   -0.0447   -0.7002 O   0  0  0  0  0  0  0  0  0  0  0  0
   -0.6424   -1.0086   -1.1519 C   0  0  0  0  0  0  0  0  0  0  0  0
    0.6660   -0.2298    0.6111 C   0  0  0  0  0  0  0  0  0  0  0  0
    1.7398   -1.0724    0.9821 C   0  0  0  0  0  0  0  0  0  0  0  0
   -0.0612    0.4102    1.6315 C   0  0  0  0  0  0  0  0  0  0  0  0
    2.0524   -1.2948    2.3554 C   0  0  0  0  0  0  0  0  0  0  0  0
    2.4775   -1.7038    0.0201 O   0  0  0  0  0  0  0  0  0  0  0  0
    0.2435    0.1931    2.9738 C   0  0  0  0  0  0  0  0  0  0  0  0
   -1.1134    1.2582    1.5304 O   0  0  0  0  0  0  0  0  0  0  0  0
    1.2913   -0.6569    3.3645 C   0  0  0  0  0  0  0  0  0  0  0  0
    3.1172   -2.1693    2.6623 C   0  0  0  0  0  0  0  0  0  0  0  0
    3.5084   -2.5526    0.3041 C   0  0  0  0  0  0  0  0  0  0  0  0
   -0.6640    0.9335    3.7169 C   0  0  0  0  0  0  0  0  0  0  0  0
   -1.4864    1.5771    2.7967 C   0  0  0  0  0  0  0  0  0  0  0  0
    3.8513   -2.8017    1.6436 C   0  0  0  0  0  0  0  0  0  0  0  0
    4.1296   -3.1040   -0.6312 O   0  0  0  0  0  0  0  0  0  0  0  0
   -0.8669   -0.8110   -2.2007 H   0  0  0  0  0  0  0  0  0  0  0  0
   -0.2570   -2.0290   -1.0736 H   0  0  0  0  0  0  0  0  0  0  0  0
   -1.5735   -0.9286   -0.5847 H   0  0  0  0  0  0  0  0  0  0  0  0
    1.4863   -0.8104    4.3562 H   0  0  0  0  0  0  0  0  0  0  0  0
    3.3660   -2.3583    3.6363 H   0  0  0  0  0  0  0  0  0  0  0  0
   -0.7248    0.9916    4.7357 H   0  0  0  0  0  0  0  0  0  0  0  0
   -2.2632    2.1944    3.0368 H   0  0  0  0  0  0  0  0  0  0  0  0
    4.6198   -3.4344    1.8767 H   0  0  0  0  0  0  0  0  0  0  0  0
  1  2  1  0  0  0  0 
  1  3  1  0  0  0  0 
  3  4  2  0  0  0  0 
  3  5  1  0  0  0  0 
  4  6  1  0  0  0  0 
  4  7  1  0  0  0  0 
  5  8  2  0  0  0  0 
  5  9  1  0  0  0  0 
  6 10  2  0  0  0  0 
  6 11  1  0  0  0  0 
  7 12  1  0  0  0  0 
  8 10  1  0  0  0  0 
  8 13  1  0  0  0  0 
  9 14  1  0  0  0  0 
 11 15  2  0  0  0  0 
 12 15  1  0  0  0  0 
 12 16  2  0  0  0  0 
 13 14  2  0  0  0  0 
  2 17  1  0  0  0  0 
  2 18  1  0  0  0  0 
  2 19  1  0  0  0  0 
 10 20  1  0  0  0  0 
 11 21  1  0  0  0  0 
 13 22  1  0  0  0  0 
 14 23  1  0  0  0  0 
 15 24  1  0  0  0  0 
M  END
> <cdk:Title>
methoxsalen

> <Conformer>
1

> <SuperDrugID>
SD000011

$$$$
