tamsulosin
  CDK     0628171801

 56 57  0  0  0  0  0  0  0  0999 V2000
   -7.1971    2.9835   -6.1544 S   0  0  2  0  0  0  0  0  0  0  0  0
   -7.8944    1.6561   -5.2370 N   0  0  1  0  0  0  0  0  0  0  0  0
   -7.1951    4.2898   -5.2229 O   0  0  0  0  0  0  0  0  0  0  0  0
   -8.1379    3.2448   -7.4269 O   0  0  0  0  0  0  0  0  0  0  0  0
   -5.5359    2.5961   -6.6421 C   0  0  0  0  0  0  0  0  0  0  0  0
   -4.9506    3.1838   -7.7878 C   0  0  0  0  0  0  0  0  0  0  0  0
   -4.7716    1.7059   -5.8564 C   0  0  0  0  0  0  0  0  0  0  0  0
   -5.6412    4.0695   -8.5735 O   0  0  0  0  0  0  0  0  0  0  0  0
   -3.6361    2.8359   -8.1559 C   0  0  0  0  0  0  0  0  0  0  0  0
   -3.4381    1.3830   -6.1991 C   0  0  0  0  0  0  0  0  0  0  0  0
   -5.3575    5.4452   -8.2585 C   0  0  0  0  0  0  0  0  0  0  0  0
   -2.8828    1.9480   -7.3684 C   0  0  0  0  0  0  0  0  0  0  0  0
   -2.6480    0.4588   -5.3389 C   0  0  2  0  0  0  0  0  0  0  0  0
   -2.9734   -1.0500   -5.5859 C   0  0  2  0  0  0  0  0  0  0  0  0
   -2.2763   -1.9399   -4.6204 N   0  0  1  0  0  0  0  0  0  0  0  0
   -2.5111   -1.5018   -6.9995 C   0  0  0  0  0  0  0  0  0  0  0  0
   -2.7778   -1.9602   -3.2259 C   0  0  2  0  0  0  0  0  0  0  0  0
   -1.9654   -2.9817   -2.4080 C   0  0  2  0  0  0  0  0  0  0  0  0
   -0.5664   -2.6240   -2.4532 O   0  0  0  0  0  0  0  0  0  0  0  0
    0.2134   -3.4477   -1.6891 C   0  0  0  0  0  0  0  0  0  0  0  0
    0.7332   -4.6531   -2.2173 C   0  0  0  0  0  0  0  0  0  0  0  0
    0.5041   -3.0795   -0.3588 C   0  0  0  0  0  0  0  0  0  0  0  0
    0.5087   -4.9980   -3.5262 O   0  0  0  0  0  0  0  0  0  0  0  0
    1.4551   -5.5232   -1.3728 C   0  0  0  0  0  0  0  0  0  0  0  0
    1.2472   -3.9398    0.4691 C   0  0  0  0  0  0  0  0  0  0  0  0
    1.4974   -4.4747   -4.4389 C   0  0  1  0  0  0  0  0  0  0  0  0
    1.7019   -5.1734   -0.0311 C   0  0  0  0  0  0  0  0  0  0  0  0
    1.1216   -4.8660   -5.8806 C   0  0  0  0  0  0  0  0  0  0  0  0
   -8.8535    1.9250   -5.0078 H   0  0  0  0  0  0  0  0  0  0  0  0
   -7.9579    0.8619   -5.8771 H   0  0  0  0  0  0  0  0  0  0  0  0
   -5.1826    1.2948   -5.0136 H   0  0  0  0  0  0  0  0  0  0  0  0
   -3.2236    3.2391   -8.9991 H   0  0  0  0  0  0  0  0  0  0  0  0
   -5.9262    6.0710   -8.9461 H   0  0  0  0  0  0  0  0  0  0  0  0
   -5.6623    5.6932   -7.2386 H   0  0  0  0  0  0  0  0  0  0  0  0
   -4.2973    5.6794   -8.3880 H   0  0  0  0  0  0  0  0  0  0  0  0
   -1.9304    1.7109   -7.6554 H   0  0  0  0  0  0  0  0  0  0  0  0
   -2.8432    0.7276   -4.2995 H   0  0  0  0  0  0  0  0  0  0  0  0
   -1.5765    0.6162   -5.4851 H   0  0  0  0  0  0  0  0  0  0  0  0
   -4.0542   -1.2199   -5.5033 H   0  0  0  0  0  0  0  0  0  0  0  0
   -2.4128   -2.8924   -4.9692 H   0  0  0  0  0  0  0  0  0  0  0  0
   -2.6425   -2.5782   -7.1237 H   0  0  0  0  0  0  0  0  0  0  0  0
   -3.0933   -1.0062   -7.7766 H   0  0  0  0  0  0  0  0  0  0  0  0
   -1.4544   -1.2645   -7.1450 H   0  0  0  0  0  0  0  0  0  0  0  0
   -3.8322   -2.2497   -3.2030 H   0  0  0  0  0  0  0  0  0  0  0  0
   -2.6730   -0.9798   -2.7589 H   0  0  0  0  0  0  0  0  0  0  0  0
   -2.1259   -3.9781   -2.8341 H   0  0  0  0  0  0  0  0  0  0  0  0
   -2.3427   -2.9762   -1.3796 H   0  0  0  0  0  0  0  0  0  0  0  0
    0.1657   -2.1888    0.0116 H   0  0  0  0  0  0  0  0  0  0  0  0
    1.8050   -6.4129   -1.7341 H   0  0  0  0  0  0  0  0  0  0  0  0
    1.4514   -3.6719    1.4350 H   0  0  0  0  0  0  0  0  0  0  0  0
    1.5466   -3.3822   -4.3830 H   0  0  0  0  0  0  0  0  0  0  0  0
    2.4870   -4.8854   -4.2140 H   0  0  0  0  0  0  0  0  0  0  0  0
    2.2152   -5.8133    0.5803 H   0  0  0  0  0  0  0  0  0  0  0  0
    1.0359   -5.9508   -5.9692 H   0  0  0  0  0  0  0  0  0  0  0  0
    0.1685   -4.4107   -6.1566 H   0  0  0  0  0  0  0  0  0  0  0  0
    1.8920   -4.5166   -6.5712 H   0  0  0  0  0  0  0  0  0  0  0  0
  1  2  1  0  0  0  0 
  1  3  2  0  0  0  0 
  1  4  2  0  0  0  0 
  1  5  1  0  0  0  0 
  5  6  2  0  0  0  0 
  5  7  1  0  0  0  0 
  6  8  1  0  0  0  0 
  6  9  1  0  0  0  0 
  7 10  2  0  0  0  0 
  8 11  1  0  0  0  0 
  9 12  2  0  0  0  0 
 10 12  1  0  0  0  0 
 10 13  1  0  0  0  0 
 14 13  1  0  0  0  0 
 14 15  1  0  0  0  0 
 14 16  1  0  0  0  0 
 15 17  1  0  0  0  0 
 17 18  1  0  0  0  0 
 18 19  1  0  0  0  0 
 19 20  1  0  0  0  0 
 20 21  2  0  0  0  0 
 20 22  1  0  0  0  0 
 21 23  1  0  0  0  0 
 21 24  1  0  0  0  0 
 22 25  2  0  0  0  0 
 23 26  1  0  0  0  0 
 24 27  2  0  0  0  0 
 25 27  1  0  0  0  0 
 26 28  1  0  0  0  0 
  2 29  1  0  0  0  0 
  2 30  1  0  0  0  0 
  7 31  1  0  0  0  0 
  9 32  1  0  0  0  0 
 11 33  1  0  0  0  0 
 11 34  1  0  0  0  0 
 11 35  1  0  0  0  0 
 12 36  1  0  0  0  0 
 13 37  1  0  0  0  0 
 13 38  1  0  0  0  0 
 14 39  1  0  0  0  0 
 15 40  1  0  0  0  0 
 16 41  1  0  0  0  0 
 16 42  1  0  0  0  0 
 16 43  1  0  0  0  0 
 17 44  1  0  0  0  0 
 17 45  1  0  0  0  0 
 18 46  1  0  0  0  0 
 18 47  1  0  0  0  0 
 22 48  1  0  0  0  0 
 24 49  1  0  0  0  0 
 25 50  1  0  0  0  0 
 26 51  1  0  0  0  0 
 26 52  1  0  0  0  0 
 27 53  1  0  0  0  0 
 28 54  1  0  0  0  0 
 28 55  1  0  0  0  0 
 28 56  1  0  0  0  0 
M  END
> <cdk:Title>
tamsulosin

> <Conformer>
1

> <SuperDrugID>
SD002306

$$$$
