irsogladine
  CDK     0628171801

 23 24  0  0  0  0  0  0  0  0999 V2000
    1.6971    0.2563   -0.2184 Cl  0  0  0  0  0  0  0  0  0  0  0  0
    0.0066    0.0993   -0.1481 C   0  0  0  0  0  0  0  0  0  0  0  0
   -0.6640   -1.1422   -0.3252 C   0  0  0  0  0  0  0  0  0  0  0  0
   -0.7377    1.2775    0.0711 C   0  0  0  0  0  0  0  0  0  0  0  0
    0.0235   -2.3608   -0.5393 C   0  0  0  0  0  0  0  0  0  0  0  0
   -2.0796   -1.1631   -0.2804 C   0  0  0  0  0  0  0  0  0  0  0  0
   -2.1411    1.2393    0.1158 C   0  0  0  0  0  0  0  0  0  0  0  0
    1.0166   -2.7598    0.2999 N   0  0  0  0  0  0  0  0  0  0  0  0
   -0.3140   -3.1645   -1.5842 N   0  0  0  0  0  0  0  0  0  0  0  0
   -2.8144    0.0175   -0.0588 C   0  0  0  0  0  0  0  0  0  0  0  0
    1.6636   -3.9352    0.1014 C   0  0  0  0  0  0  0  0  0  0  0  0
    0.3339   -4.3372   -1.7973 C   0  0  0  0  0  0  0  0  0  0  0  0
   -4.5047   -0.0303    0.0017 Cl  0  0  0  0  0  0  0  0  0  0  0  0
    2.6380   -4.3130    0.9452 N   0  0  0  0  0  0  0  0  0  0  0  0
    1.3200   -4.7234   -0.9484 N   0  0  0  0  0  0  0  0  0  0  0  0
    0.0028   -5.1073   -2.8480 N   0  0  0  0  0  0  0  0  0  0  0  0
   -0.2634    2.1755    0.1952 H   0  0  0  0  0  0  0  0  0  0  0  0
   -2.5851   -2.0473   -0.3946 H   0  0  0  0  0  0  0  0  0  0  0  0
   -2.6654    2.1050    0.2736 H   0  0  0  0  0  0  0  0  0  0  0  0
    2.8790   -3.7459    1.6950 H   0  0  0  0  0  0  0  0  0  0  0  0
    3.1035   -5.1536    0.8108 H   0  0  0  0  0  0  0  0  0  0  0  0
    0.4744   -5.9389   -3.0083 H   0  0  0  0  0  0  0  0  0  0  0  0
   -0.6991   -4.8298   -3.4589 H   0  0  0  0  0  0  0  0  0  0  0  0
  1  2  1  0  0  0  0 
  2  3  2  0  0  0  0 
  2  4  1  0  0  0  0 
  3  5  1  0  0  0  0 
  3  6  1  0  0  0  0 
  4  7  2  0  0  0  0 
  5  8  2  0  0  0  0 
  5  9  1  0  0  0  0 
  6 10  2  0  0  0  0 
  7 10  1  0  0  0  0 
  8 11  1  0  0  0  0 
  9 12  2  0  0  0  0 
 10 13  1  0  0  0  0 
 11 14  1  0  0  0  0 
 11 15  2  0  0  0  0 
 12 15  1  0  0  0  0 
 12 16  1  0  0  0  0 
  4 17  1  0  0  0  0 
  6 18  1  0  0  0  0 
  7 19  1  0  0  0  0 
 14 20  1  0  0  0  0 
 14 21  1  0  0  0  0 
 16 22  1  0  0  0  0 
 16 23  1  0  0  0  0 
M  END
> <cdk:Title>
irsogladine

> <Conformer>
1

> <SuperDrugID>
SD001315

$$$$
