levonorgestrel
  CDK     0628171801

 51 54  0  0  0  0  0  0  0  0999 V2000
   -2.2254   -0.8228   -0.7924 C   0  0  1  0  0  0  0  0  0  0  0  0
   -0.7115   -0.7441   -1.0906 C   0  0  1  0  0  0  0  0  0  0  0  0
   -0.0462    0.1579   -0.1293 C   0  0  0  0  0  0  0  0  0  0  0  0
   -0.4818    0.2505    1.1831 C   0  0  0  0  0  0  0  0  0  0  0  0
   -1.6238   -0.3182    1.6315 C   0  0  0  0  0  0  0  0  0  0  0  0
   -2.5339   -1.0721    0.7267 C   0  0  1  0  0  0  0  0  0  0  0  0
   -4.0591   -0.8117    1.0415 C   0  0  2  0  0  0  0  0  0  0  0  0
   -1.9400   -0.2558    3.0678 C   0  0  2  0  0  0  0  0  0  0  0  0
   -3.4330    0.0344    3.3641 C   0  0  2  0  0  0  0  0  0  0  0  0
   -4.3443   -0.9546    2.5830 C   0  0  1  0  0  0  0  0  0  0  0  0
   -6.5403   -1.5165    0.5706 C   0  0  1  0  0  0  0  0  0  0  0  0
   -5.0398   -1.6876    0.1808 C   0  0  1  0  0  0  0  0  0  0  0  0
   -5.8680   -0.7455    2.8641 C   0  0  1  0  0  0  0  0  0  0  0  0
   -6.8058   -1.7551    2.1036 C   0  0  1  0  0  0  0  0  0  0  0  0
   -6.3808   -0.7687    4.3231 C   0  0  2  0  0  0  0  0  0  0  0  0
   -7.9001   -1.0661    4.2008 C   0  0  1  0  0  0  0  0  0  0  0  0
   -8.2005   -1.2735    2.6817 C   0  0  1  0  0  0  0  0  0  0  0  0
    0.9556    0.8133   -0.5017 O   0  0  0  0  0  0  0  0  0  0  0  0
   -6.5104   -3.2780    2.4896 C   0  0  1  0  0  0  0  0  0  0  0  0
   -7.2855   -4.4076    1.7626 C   0  0  0  0  0  0  0  0  0  0  0  0
   -8.6935   -0.0976    2.1359 C   0  0  0  0  0  0  0  0  0  0  0  0
   -9.1117    0.9252    1.6816 C   0  0  0  0  0  0  0  0  0  0  0  0
   -9.2725   -2.2000    2.5219 O   0  0  0  0  0  0  0  0  0  0  0  0
   -2.6863    0.1162   -1.1150 H   0  0  0  0  0  0  0  0  0  0  0  0
   -2.6462   -1.6287   -1.3997 H   0  0  0  0  0  0  0  0  0  0  0  0
   -0.2685   -1.7395   -1.0029 H   0  0  0  0  0  0  0  0  0  0  0  0
   -0.5612   -0.3904   -2.1146 H   0  0  0  0  0  0  0  0  0  0  0  0
    0.1004    0.7511    1.8174 H   0  0  0  0  0  0  0  0  0  0  0  0
   -2.3336   -2.1308    0.9233 H   0  0  0  0  0  0  0  0  0  0  0  0
   -4.2720    0.2299    0.7686 H   0  0  0  0  0  0  0  0  0  0  0  0
   -1.3525    0.5048    3.5926 H   0  0  0  0  0  0  0  0  0  0  0  0
   -1.6750   -1.2202    3.5117 H   0  0  0  0  0  0  0  0  0  0  0  0
   -3.6671    1.0708    3.0982 H   0  0  0  0  0  0  0  0  0  0  0  0
   -3.6016   -0.0798    4.4388 H   0  0  0  0  0  0  0  0  0  0  0  0
   -4.0595   -1.9537    2.9170 H   0  0  0  0  0  0  0  0  0  0  0  0
   -6.8225   -0.4994    0.2866 H   0  0  0  0  0  0  0  0  0  0  0  0
   -7.1573   -2.1803   -0.0376 H   0  0  0  0  0  0  0  0  0  0  0  0
   -4.9515   -1.4035   -0.8718 H   0  0  0  0  0  0  0  0  0  0  0  0
   -4.7557   -2.7394    0.2547 H   0  0  0  0  0  0  0  0  0  0  0  0
   -6.0712    0.2750    2.5078 H   0  0  0  0  0  0  0  0  0  0  0  0
   -6.2062    0.1917    4.8180 H   0  0  0  0  0  0  0  0  0  0  0  0
   -5.8764   -1.5544    4.8923 H   0  0  0  0  0  0  0  0  0  0  0  0
   -8.1306   -1.9836    4.7498 H   0  0  0  0  0  0  0  0  0  0  0  0
   -8.4951   -0.2670    4.6560 H   0  0  0  0  0  0  0  0  0  0  0  0
   -5.4628   -3.5159    2.3199 H   0  0  0  0  0  0  0  0  0  0  0  0
   -6.6660   -3.4385    3.5562 H   0  0  0  0  0  0  0  0  0  0  0  0
   -6.8978   -5.3743    2.0916 H   0  0  0  0  0  0  0  0  0  0  0  0
   -7.1593   -4.3483    0.6822 H   0  0  0  0  0  0  0  0  0  0  0  0
   -8.3458   -4.3938    2.0013 H   0  0  0  0  0  0  0  0  0  0  0  0
   -9.4303    1.7181    1.3347 H   0  0  0  0  0  0  0  0  0  0  0  0
   -9.3759   -2.3145    1.5542 H   0  0  0  0  0  0  0  0  0  0  0  0
  1  2  1  0  0  0  0 
  2  3  1  0  0  0  0 
  3  4  1  0  0  0  0 
  4  5  2  0  0  0  0 
  6  5  1  0  0  0  0 
  6  1  1  0  0  0  0 
  8  9  1  0  0  0  0 
 10  9  1  0  0  0  0 
  7 10  1  0  0  0  0 
  5  8  1  0  0  0  0 
  7  6  1  0  0  0  0 
 11 12  1  0  0  0  0 
 13 14  1  0  0  0  0 
 14 11  1  0  0  0  0 
 10 13  1  0  0  0  0 
  7 12  1  0  0  0  0 
 15 16  1  0  0  0  0 
 17 16  1  0  0  0  0 
 13 15  1  0  0  0  0 
 14 17  1  0  0  0  0 
  3 18  2  0  0  0  0 
 14 19  1  0  0  0  0 
 19 20  1  0  0  0  0 
 17 21  1  0  0  0  0 
 21 22  3  0  0  0  0 
 17 23  1  0  0  0  0 
 24  1  1  0  0  0  0 
 25  1  1  0  0  0  0 
 26  2  1  0  0  0  0 
 27  2  1  0  0  0  0 
 28  4  1  0  0  0  0 
  6 29  1  0  0  0  0 
  7 30  1  0  0  0  0 
 31  8  1  0  0  0  0 
 32  8  1  0  0  0  0 
 33  9  1  0  0  0  0 
 34  9  1  0  0  0  0 
 10 35  1  0  0  0  0 
 36 11  1  0  0  0  0 
 37 11  1  0  0  0  0 
 38 12  1  0  0  0  0 
 39 12  1  0  0  0  0 
 13 40  1  0  0  0  0 
 41 15  1  0  0  0  0 
 42 15  1  0  0  0  0 
 43 16  1  0  0  0  0 
 44 16  1  0  0  0  0 
 45 19  1  0  0  0  0 
 46 19  1  0  0  0  0 
 47 20  1  0  0  0  0 
 48 20  1  0  0  0  0 
 49 20  1  0  0  0  0 
 50 22  1  0  0  0  0 
 51 23  1  0  0  0  0 
M  END
> <cdk:Title>
levonorgestrel

> <Conformer>
1

> <SuperDrugID>
SD001387

$$$$
