sulfanilic acid
  CDK     0628171801

 18 18  0  0  0  0  0  0  0  0999 V2000
    0.3138   -0.0442    6.3214 N   0  0  0  0  0  0  0  0  0  0  0  0
    0.4629    0.4031    7.5835 C   0  0  0  0  0  0  0  0  0  0  0  0
    0.3009    1.7717    7.8762 C   0  0  0  0  0  0  0  0  0  0  0  0
    0.4501    2.2353    9.1977 C   0  0  0  0  0  0  0  0  0  0  0  0
    0.7633    1.3354   10.2381 C   0  0  0  0  0  0  0  0  0  0  0  0
    0.9326   -0.0318    9.9400 C   0  0  0  0  0  0  0  0  0  0  0  0
    0.7836   -0.4962    8.6196 C   0  0  0  0  0  0  0  0  0  0  0  0
    0.9424    1.9169   11.9002 S   0  0  1  0  0  0  0  0  0  0  0  0
   -0.3383    2.9963   12.2571 O   0  0  0  0  0  0  0  0  0  0  0  0
    0.8814    0.7145   12.9589 O   0  0  0  0  0  0  0  0  0  0  0  0
    2.3230    2.7133   12.0742 O   0  0  0  0  0  0  0  0  0  0  0  0
    0.0937    0.5757    5.6104 H   0  0  0  0  0  0  0  0  0  0  0  0
    0.4272   -0.9860    6.1209 H   0  0  0  0  0  0  0  0  0  0  0  0
    0.0732    2.4332    7.1296 H   0  0  0  0  0  0  0  0  0  0  0  0
    0.3277    3.2316    9.3934 H   0  0  0  0  0  0  0  0  0  0  0  0
    1.1635   -0.6983   10.6788 H   0  0  0  0  0  0  0  0  0  0  0  0
    0.9084   -1.4923    8.4201 H   0  0  0  0  0  0  0  0  0  0  0  0
   -0.1528    3.3040   13.1682 H   0  0  0  0  0  0  0  0  0  0  0  0
  1  2  1  0  0  0  0 
  2  3  2  0  0  0  0 
  3  4  1  0  0  0  0 
  4  5  2  0  0  0  0 
  5  6  1  0  0  0  0 
  6  7  2  0  0  0  0 
  2  7  1  0  0  0  0 
  5  8  1  0  0  0  0 
  8  9  1  0  0  0  0 
  8 10  2  0  0  0  0 
  8 11  2  0  0  0  0 
  1 12  1  0  0  0  0 
  1 13  1  0  0  0  0 
  3 14  1  0  0  0  0 
  4 15  1  0  0  0  0 
  6 16  1  0  0  0  0 
  7 17  1  0  0  0  0 
  9 18  1  0  0  0  0 
M  END
> <cdk:Title>
sulfanilic acid

> <Conformer>
1

> <SuperDrugID>
SD003063

$$$$
