nafiverine
  CDK     0628171801

 78 82  0  0  0  0  0  0  0  0999 V2000
   -0.7715    6.5458    1.0449 C   0  0  1  0  0  0  0  0  0  0  0  0
   -1.2904    5.5096    1.9747 C   0  0  0  0  0  0  0  0  0  0  0  0
    0.7845    6.4663    1.0604 C   0  0  0  0  0  0  0  0  0  0  0  0
   -1.4868    6.4689   -0.2905 C   0  0  0  0  0  0  0  0  0  0  0  0
   -1.3307    4.1959    1.5930 O   0  0  0  0  0  0  0  0  0  0  0  0
   -1.6948    5.8543    3.1114 O   0  0  0  0  0  0  0  0  0  0  0  0
   -2.9044    6.6764   -0.4221 C   0  0  0  0  0  0  0  0  0  0  0  0
   -0.7555    6.1668   -1.4708 C   0  0  0  0  0  0  0  0  0  0  0  0
   -2.2423    3.2190    2.1174 C   0  0  2  0  0  0  0  0  0  0  0  0
   -3.5358    6.5005   -1.6962 C   0  0  0  0  0  0  0  0  0  0  0  0
   -3.7436    7.0605    0.6608 C   0  0  0  0  0  0  0  0  0  0  0  0
   -1.3752    6.0512   -2.7223 C   0  0  0  0  0  0  0  0  0  0  0  0
   -1.7576    1.7552    1.9223 C   0  0  2  0  0  0  0  0  0  0  0  0
   -2.7604    6.1998   -2.8337 C   0  0  0  0  0  0  0  0  0  0  0  0
   -4.9376    6.6295   -1.8369 C   0  0  0  0  0  0  0  0  0  0  0  0
   -5.1361    7.1987    0.5106 C   0  0  0  0  0  0  0  0  0  0  0  0
   -0.8809    1.1356    2.9855 N   0  0  1  0  0  0  0  0  0  0  0  0
   -5.7356    6.9668   -0.7347 C   0  0  0  0  0  0  0  0  0  0  0  0
   -1.4665    1.2095    4.3649 C   0  0  2  0  0  0  0  0  0  0  0  0
   -0.4967   -0.2680    2.5900 C   0  0  1  0  0  0  0  0  0  0  0  0
   -0.6971    0.3860    5.4190 C   0  0  2  0  0  0  0  0  0  0  0  0
    0.2507   -1.0694    3.6908 C   0  0  2  0  0  0  0  0  0  0  0  0
   -0.5453   -1.0224    4.9539 N   0  0  1  0  0  0  0  0  0  0  0  0
   -0.1580   -1.9822    6.0398 C   0  0  2  0  0  0  0  0  0  0  0  0
   -1.4003   -2.6726    6.6666 C   0  0  1  0  0  0  0  0  0  0  0  0
   -2.5466   -1.8094    6.7278 O   0  0  0  0  0  0  0  0  0  0  0  0
   -3.7579   -2.0678    7.3109 C   0  0  0  0  0  0  0  0  0  0  0  0
   -4.8738   -1.1014    7.1333 C   0  0  1  0  0  0  0  0  0  0  0  0
   -3.9210   -3.1048    7.9962 O   0  0  0  0  0  0  0  0  0  0  0  0
   -6.0804   -1.7604    6.4057 C   0  0  0  0  0  0  0  0  0  0  0  0
   -5.2490   -0.4142    8.4171 C   0  0  0  0  0  0  0  0  0  0  0  0
   -4.8969    0.9898    8.6026 C   0  0  0  0  0  0  0  0  0  0  0  0
   -5.9744   -1.1933    9.4205 C   0  0  0  0  0  0  0  0  0  0  0  0
   -5.3645    1.5726    9.8941 C   0  0  0  0  0  0  0  0  0  0  0  0
   -4.1615    1.9578    7.7570 C   0  0  0  0  0  0  0  0  0  0  0  0
   -6.3753   -0.5589   10.6143 C   0  0  0  0  0  0  0  0  0  0  0  0
   -6.0980    0.7973   10.8823 C   0  0  0  0  0  0  0  0  0  0  0  0
   -5.1239    2.9599   10.2654 C   0  0  0  0  0  0  0  0  0  0  0  0
   -3.9300    3.3379    8.1310 C   0  0  0  0  0  0  0  0  0  0  0  0
   -4.4212    3.7947    9.3715 C   0  0  0  0  0  0  0  0  0  0  0  0
   -0.9999    7.5359    1.4557 H   0  0  0  0  0  0  0  0  0  0  0  0
    1.2072    7.2301    0.4037 H   0  0  0  0  0  0  0  0  0  0  0  0
    1.1388    5.4850    0.7343 H   0  0  0  0  0  0  0  0  0  0  0  0
    1.1659    6.6478    2.0686 H   0  0  0  0  0  0  0  0  0  0  0  0
    0.2540    6.0223   -1.4489 H   0  0  0  0  0  0  0  0  0  0  0  0
   -3.1670    3.3516    1.5491 H   0  0  0  0  0  0  0  0  0  0  0  0
   -2.4923    3.4192    3.1575 H   0  0  0  0  0  0  0  0  0  0  0  0
   -3.3592    7.2533    1.5846 H   0  0  0  0  0  0  0  0  0  0  0  0
   -0.8163    5.8524   -3.5555 H   0  0  0  0  0  0  0  0  0  0  0  0
   -1.2291    1.7225    0.9644 H   0  0  0  0  0  0  0  0  0  0  0  0
   -2.6571    1.1402    1.8117 H   0  0  0  0  0  0  0  0  0  0  0  0
   -3.1948    6.0877   -3.7540 H   0  0  0  0  0  0  0  0  0  0  0  0
   -5.3931    6.4743   -2.7409 H   0  0  0  0  0  0  0  0  0  0  0  0
   -5.7163    7.4688    1.3093 H   0  0  0  0  0  0  0  0  0  0  0  0
   -6.7500    7.0491   -0.8412 H   0  0  0  0  0  0  0  0  0  0  0  0
   -2.5037    0.8612    4.3555 H   0  0  0  0  0  0  0  0  0  0  0  0
   -1.4491    2.2428    4.7183 H   0  0  0  0  0  0  0  0  0  0  0  0
   -1.3894   -0.8429    2.3205 H   0  0  0  0  0  0  0  0  0  0  0  0
    0.1469   -0.2235    1.7073 H   0  0  0  0  0  0  0  0  0  0  0  0
   -1.2570    0.4294    6.3579 H   0  0  0  0  0  0  0  0  0  0  0  0
    0.2854    0.8361    5.5906 H   0  0  0  0  0  0  0  0  0  0  0  0
    1.2560   -0.6615    3.8394 H   0  0  0  0  0  0  0  0  0  0  0  0
    0.3601   -2.1022    3.3478 H   0  0  0  0  0  0  0  0  0  0  0  0
    0.4038   -1.4717    6.8273 H   0  0  0  0  0  0  0  0  0  0  0  0
    0.4999   -2.7687    5.6574 H   0  0  0  0  0  0  0  0  0  0  0  0
   -1.6726   -3.5340    6.0512 H   0  0  0  0  0  0  0  0  0  0  0  0
   -1.1461   -3.0273    7.6695 H   0  0  0  0  0  0  0  0  0  0  0  0
   -4.5257   -0.3549    6.4186 H   0  0  0  0  0  0  0  0  0  0  0  0
   -6.8938   -1.0413    6.2961 H   0  0  0  0  0  0  0  0  0  0  0  0
   -6.4594   -2.6277    6.9488 H   0  0  0  0  0  0  0  0  0  0  0  0
   -5.7853   -2.0915    5.4078 H   0  0  0  0  0  0  0  0  0  0  0  0
   -6.2084   -2.1779    9.2792 H   0  0  0  0  0  0  0  0  0  0  0  0
   -3.7334    1.7432    6.8028 H   0  0  0  0  0  0  0  0  0  0  0  0
   -6.8879   -1.1022   11.3127 H   0  0  0  0  0  0  0  0  0  0  0  0
   -6.4231    1.2114   11.7590 H   0  0  0  0  0  0  0  0  0  0  0  0
   -5.4511    3.3452   11.1568 H   0  0  0  0  0  0  0  0  0  0  0  0
   -3.4192    3.9700    7.5103 H   0  0  0  0  0  0  0  0  0  0  0  0
   -4.2631    4.7689    9.6347 H   0  0  0  0  0  0  0  0  0  0  0  0
  1  2  1  0  0  0  0 
  1  3  1  0  0  0  0 
  1  4  1  0  0  0  0 
  2  5  1  0  0  0  0 
  2  6  2  0  0  0  0 
  4  7  2  0  0  0  0 
  4  8  1  0  0  0  0 
  5  9  1  0  0  0  0 
  7 10  1  0  0  0  0 
  7 11  1  0  0  0  0 
  8 12  2  0  0  0  0 
  9 13  1  0  0  0  0 
 10 14  2  0  0  0  0 
 10 15  1  0  0  0  0 
 11 16  2  0  0  0  0 
 12 14  1  0  0  0  0 
 13 17  1  0  0  0  0 
 15 18  2  0  0  0  0 
 16 18  1  0  0  0  0 
 17 19  1  0  0  0  0 
 17 20  1  0  0  0  0 
 19 21  1  0  0  0  0 
 20 22  1  0  0  0  0 
 21 23  1  0  0  0  0 
 22 23  1  0  0  0  0 
 23 24  1  0  0  0  0 
 24 25  1  0  0  0  0 
 25 26  1  0  0  0  0 
 26 27  1  0  0  0  0 
 27 28  1  0  0  0  0 
 27 29  2  0  0  0  0 
 28 30  1  0  0  0  0 
 28 31  1  0  0  0  0 
 31 32  2  0  0  0  0 
 31 33  1  0  0  0  0 
 32 34  1  0  0  0  0 
 32 35  1  0  0  0  0 
 33 36  2  0  0  0  0 
 34 37  2  0  0  0  0 
 34 38  1  0  0  0  0 
 35 39  2  0  0  0  0 
 36 37  1  0  0  0  0 
 38 40  2  0  0  0  0 
 39 40  1  0  0  0  0 
  1 41  1  0  0  0  0 
  3 42  1  0  0  0  0 
  3 43  1  0  0  0  0 
  3 44  1  0  0  0  0 
  8 45  1  0  0  0  0 
  9 46  1  0  0  0  0 
  9 47  1  0  0  0  0 
 11 48  1  0  0  0  0 
 12 49  1  0  0  0  0 
 13 50  1  0  0  0  0 
 13 51  1  0  0  0  0 
 14 52  1  0  0  0  0 
 15 53  1  0  0  0  0 
 16 54  1  0  0  0  0 
 18 55  1  0  0  0  0 
 19 56  1  0  0  0  0 
 19 57  1  0  0  0  0 
 20 58  1  0  0  0  0 
 20 59  1  0  0  0  0 
 21 60  1  0  0  0  0 
 21 61  1  0  0  0  0 
 22 62  1  0  0  0  0 
 22 63  1  0  0  0  0 
 24 64  1  0  0  0  0 
 24 65  1  0  0  0  0 
 25 66  1  0  0  0  0 
 25 67  1  0  0  0  0 
 28 68  1  0  0  0  0 
 30 69  1  0  0  0  0 
 30 70  1  0  0  0  0 
 30 71  1  0  0  0  0 
 33 72  1  0  0  0  0 
 35 73  1  0  0  0  0 
 36 74  1  0  0  0  0 
 37 75  1  0  0  0  0 
 38 76  1  0  0  0  0 
 39 77  1  0  0  0  0 
 40 78  1  0  0  0  0 
M  END
> <cdk:Title>
nafiverine

> <Conformer>
1

> <SuperDrugID>
SD003232

$$$$
