opipramol
  CDK     0628171801

 56 59  0  0  0  0  0  0  0  0999 V2000
   -4.5634   -1.6303    8.6277 C   0  0  1  0  0  0  0  0  0  0  0  0
   -5.2606   -0.2504    8.8094 C   0  0  1  0  0  0  0  0  0  0  0  0
   -5.0136   -2.4104    7.4880 N   0  0  0  0  0  0  0  0  0  0  0  0
   -4.9724    0.7961    7.6986 C   0  0  2  0  0  0  0  0  0  0  0  0
   -6.3465   -2.7024    7.3082 C   0  0  0  0  0  0  0  0  0  0  0  0
   -4.1122   -2.9358    6.5890 C   0  0  0  0  0  0  0  0  0  0  0  0
   -3.5290    1.0045    7.3516 N   0  0  1  0  0  0  0  0  0  0  0  0
   -7.0328   -2.3223    6.1180 C   0  0  0  0  0  0  0  0  0  0  0  0
   -7.0553   -3.3759    8.3343 C   0  0  0  0  0  0  0  0  0  0  0  0
   -4.1684   -2.6267    5.2004 C   0  0  0  0  0  0  0  0  0  0  0  0
   -3.1113   -3.8215    7.0600 C   0  0  0  0  0  0  0  0  0  0  0  0
   -3.3556    1.8656    6.1408 C   0  0  1  0  0  0  0  0  0  0  0  0
   -2.6689    1.4944    8.4747 C   0  0  1  0  0  0  0  0  0  0  0  0
   -6.4123   -1.6603    5.0557 C   0  0  0  0  0  0  0  0  0  0  0  0
   -8.4184   -2.6030    6.0096 C   0  0  0  0  0  0  0  0  0  0  0  0
   -8.4245   -3.6531    8.2012 C   0  0  0  0  0  0  0  0  0  0  0  0
   -5.1368   -1.7908    4.6488 C   0  0  0  0  0  0  0  0  0  0  0  0
   -3.2001   -3.1907    4.3303 C   0  0  0  0  0  0  0  0  0  0  0  0
   -2.1791   -4.3953    6.1777 C   0  0  0  0  0  0  0  0  0  0  0  0
   -1.8769    1.8804    5.6921 C   0  0  1  0  0  0  0  0  0  0  0  0
   -1.1785    1.5608    8.0509 C   0  0  2  0  0  0  0  0  0  0  0  0
   -9.1080   -3.2634    7.0404 C   0  0  0  0  0  0  0  0  0  0  0  0
   -2.2194   -4.0732    4.8129 C   0  0  0  0  0  0  0  0  0  0  0  0
   -0.9809    2.3514    6.7940 N   0  0  1  0  0  0  0  0  0  0  0  0
    0.4449    2.4590    6.3411 C   0  0  2  0  0  0  0  0  0  0  0  0
    1.3821    3.1896    7.3315 C   0  0  2  0  0  0  0  0  0  0  0  0
    2.6115    3.5294    6.6970 O   0  0  0  0  0  0  0  0  0  0  0  0
   -3.4841   -1.4577    8.5807 H   0  0  0  0  0  0  0  0  0  0  0  0
   -4.7308   -2.2131    9.5362 H   0  0  0  0  0  0  0  0  0  0  0  0
   -6.3428   -0.3983    8.8739 H   0  0  0  0  0  0  0  0  0  0  0  0
   -4.9519    0.1667    9.7706 H   0  0  0  0  0  0  0  0  0  0  0  0
   -5.4162    1.7498    7.9998 H   0  0  0  0  0  0  0  0  0  0  0  0
   -5.5074    0.4637    6.8067 H   0  0  0  0  0  0  0  0  0  0  0  0
   -6.5825   -3.6743    9.1907 H   0  0  0  0  0  0  0  0  0  0  0  0
   -3.0607   -4.0630    8.0532 H   0  0  0  0  0  0  0  0  0  0  0  0
   -3.9559    1.4862    5.3095 H   0  0  0  0  0  0  0  0  0  0  0  0
   -3.6760    2.8913    6.3512 H   0  0  0  0  0  0  0  0  0  0  0  0
   -3.0025    2.4822    8.8098 H   0  0  0  0  0  0  0  0  0  0  0  0
   -2.7257    0.8181    9.3295 H   0  0  0  0  0  0  0  0  0  0  0  0
   -6.9783   -1.0433    4.5149 H   0  0  0  0  0  0  0  0  0  0  0  0
   -8.9440   -2.3334    5.1720 H   0  0  0  0  0  0  0  0  0  0  0  0
   -8.9229   -4.1354    8.9516 H   0  0  0  0  0  0  0  0  0  0  0  0
   -4.8753   -1.2608    3.8453 H   0  0  0  0  0  0  0  0  0  0  0  0
   -3.2053   -2.9763    3.3277 H   0  0  0  0  0  0  0  0  0  0  0  0
   -1.4714   -5.0466    6.5275 H   0  0  0  0  0  0  0  0  0  0  0  0
   -1.5907    0.8748    5.3670 H   0  0  0  0  0  0  0  0  0  0  0  0
   -1.7973    2.5522    4.8316 H   0  0  0  0  0  0  0  0  0  0  0  0
   -0.7922    0.5435    7.9260 H   0  0  0  0  0  0  0  0  0  0  0  0
   -0.6358    2.0280    8.8751 H   0  0  0  0  0  0  0  0  0  0  0  0
  -10.1071   -3.4603    6.9458 H   0  0  0  0  0  0  0  0  0  0  0  0
   -1.5368   -4.4826    4.1695 H   0  0  0  0  0  0  0  0  0  0  0  0
    0.4755    3.0282    5.4072 H   0  0  0  0  0  0  0  0  0  0  0  0
    0.8501    1.4647    6.1311 H   0  0  0  0  0  0  0  0  0  0  0  0
    1.6095    2.5457    8.1839 H   0  0  0  0  0  0  0  0  0  0  0  0
    0.9065    4.1075    7.6858 H   0  0  0  0  0  0  0  0  0  0  0  0
    3.1324    3.9873    7.3900 H   0  0  0  0  0  0  0  0  0  0  0  0
  1  2  1  0  0  0  0 
  1  3  1  0  0  0  0 
  2  4  1  0  0  0  0 
  3  5  1  0  0  0  0 
  3  6  1  0  0  0  0 
  4  7  1  0  0  0  0 
  5  8  2  0  0  0  0 
  5  9  1  0  0  0  0 
  6 10  2  0  0  0  0 
  6 11  1  0  0  0  0 
  7 12  1  0  0  0  0 
  7 13  1  0  0  0  0 
  8 14  1  0  0  0  0 
  8 15  1  0  0  0  0 
  9 16  2  0  0  0  0 
 10 17  1  0  0  0  0 
 10 18  1  0  0  0  0 
 11 19  2  0  0  0  0 
 12 20  1  0  0  0  0 
 13 21  1  0  0  0  0 
 14 17  2  0  0  0  0 
 15 22  2  0  0  0  0 
 16 22  1  0  0  0  0 
 18 23  2  0  0  0  0 
 19 23  1  0  0  0  0 
 20 24  1  0  0  0  0 
 21 24  1  0  0  0  0 
 24 25  1  0  0  0  0 
 25 26  1  0  0  0  0 
 26 27  1  0  0  0  0 
  1 28  1  0  0  0  0 
  1 29  1  0  0  0  0 
  2 30  1  0  0  0  0 
  2 31  1  0  0  0  0 
  4 32  1  0  0  0  0 
  4 33  1  0  0  0  0 
  9 34  1  0  0  0  0 
 11 35  1  0  0  0  0 
 12 36  1  0  0  0  0 
 12 37  1  0  0  0  0 
 13 38  1  0  0  0  0 
 13 39  1  0  0  0  0 
 14 40  1  0  0  0  0 
 15 41  1  0  0  0  0 
 16 42  1  0  0  0  0 
 17 43  1  0  0  0  0 
 18 44  1  0  0  0  0 
 19 45  1  0  0  0  0 
 20 46  1  0  0  0  0 
 20 47  1  0  0  0  0 
 21 48  1  0  0  0  0 
 21 49  1  0  0  0  0 
 22 50  1  0  0  0  0 
 23 51  1  0  0  0  0 
 25 52  1  0  0  0  0 
 25 53  1  0  0  0  0 
 26 54  1  0  0  0  0 
 26 55  1  0  0  0  0 
 27 56  1  0  0  0  0 
M  END
> <cdk:Title>
opipramol

> <Conformer>
1

> <SuperDrugID>
SD001783

$$$$
