alimemazine
  CDK     0628171801

 43 45  0  0  0  0  0  0  0  0999 V2000
    2.5872    1.5846   -6.6416 C   0  0  0  0  0  0  0  0  0  0  0  0
    2.1077    0.6754   -5.4709 C   0  0  1  0  0  0  0  0  0  0  0  0
    0.8294   -0.1284   -5.8887 C   0  0  2  0  0  0  0  0  0  0  0  0
   -0.0144   -0.6034   -4.7410 N   0  0  1  0  0  0  0  0  0  0  0  0
   -0.9092    0.4539   -4.1774 C   0  0  0  0  0  0  0  0  0  0  0  0
   -0.7579   -1.8616   -5.0472 C   0  0  0  0  0  0  0  0  0  0  0  0
    3.2803   -0.2549   -4.9998 C   0  0  2  0  0  0  0  0  0  0  0  0
    3.0642   -0.9368   -3.7257 N   0  0  0  0  0  0  0  0  0  0  0  0
    2.8101   -0.1928   -2.5726 C   0  0  0  0  0  0  0  0  0  0  0  0
    3.5253    0.9960   -2.2752 C   0  0  0  0  0  0  0  0  0  0  0  0
    3.2124    1.7737   -1.1466 C   0  0  0  0  0  0  0  0  0  0  0  0
    2.1922    1.3674   -0.2719 C   0  0  0  0  0  0  0  0  0  0  0  0
    1.4943    0.1741   -0.5174 C   0  0  0  0  0  0  0  0  0  0  0  0
    1.8124   -0.6013   -1.6481 C   0  0  0  0  0  0  0  0  0  0  0  0
    0.9824   -2.1304   -1.8957 S   0  0  0  0  0  0  0  0  0  0  0  0
    2.1377   -3.0337   -2.8646 C   0  0  0  0  0  0  0  0  0  0  0  0
    3.0845   -2.3298   -3.6549 C   0  0  0  0  0  0  0  0  0  0  0  0
    4.0613   -3.0975   -4.3409 C   0  0  0  0  0  0  0  0  0  0  0  0
    4.0650   -4.5029   -4.2741 C   0  0  0  0  0  0  0  0  0  0  0  0
    3.0980   -5.1736   -3.5065 C   0  0  0  0  0  0  0  0  0  0  0  0
    2.1300   -4.4399   -2.8034 C   0  0  0  0  0  0  0  0  0  0  0  0
    2.8424    0.9842   -7.5177 H   0  0  0  0  0  0  0  0  0  0  0  0
    3.4673    2.1613   -6.3459 H   0  0  0  0  0  0  0  0  0  0  0  0
    1.8040    2.2944   -6.9198 H   0  0  0  0  0  0  0  0  0  0  0  0
    1.8488    1.3561   -4.6575 H   0  0  0  0  0  0  0  0  0  0  0  0
    1.1671   -0.9758   -6.4913 H   0  0  0  0  0  0  0  0  0  0  0  0
    0.2045    0.4742   -6.5564 H   0  0  0  0  0  0  0  0  0  0  0  0
   -1.5255    0.0600   -3.3676 H   0  0  0  0  0  0  0  0  0  0  0  0
   -0.3210    1.2679   -3.7566 H   0  0  0  0  0  0  0  0  0  0  0  0
   -1.5738    0.8627   -4.9426 H   0  0  0  0  0  0  0  0  0  0  0  0
   -0.0520   -2.6696   -5.2487 H   0  0  0  0  0  0  0  0  0  0  0  0
   -1.3669   -2.1764   -4.1983 H   0  0  0  0  0  0  0  0  0  0  0  0
   -1.4088   -1.7357   -5.9148 H   0  0  0  0  0  0  0  0  0  0  0  0
    4.2016    0.3268   -4.9214 H   0  0  0  0  0  0  0  0  0  0  0  0
    3.4613   -0.9609   -5.8156 H   0  0  0  0  0  0  0  0  0  0  0  0
    4.2911    1.3100   -2.8726 H   0  0  0  0  0  0  0  0  0  0  0  0
    3.7322    2.6332   -0.9607 H   0  0  0  0  0  0  0  0  0  0  0  0
    1.9650    1.9345    0.5472 H   0  0  0  0  0  0  0  0  0  0  0  0
    0.7645   -0.1286    0.1327 H   0  0  0  0  0  0  0  0  0  0  0  0
    4.7935   -2.6384   -4.8872 H   0  0  0  0  0  0  0  0  0  0  0  0
    4.7760   -5.0365   -4.7787 H   0  0  0  0  0  0  0  0  0  0  0  0
    3.1016   -6.1943   -3.4522 H   0  0  0  0  0  0  0  0  0  0  0  0
    1.4331   -4.9347   -2.2413 H   0  0  0  0  0  0  0  0  0  0  0  0
  2  1  1  0  0  0  0 
  2  3  1  0  0  0  0 
  3  4  1  0  0  0  0 
  4  5  1  0  0  0  0 
  4  6  1  0  0  0  0 
  2  7  1  0  0  0  0 
  7  8  1  0  0  0  0 
  8  9  1  0  0  0  0 
  9 10  2  0  0  0  0 
 10 11  1  0  0  0  0 
 11 12  2  0  0  0  0 
 12 13  1  0  0  0  0 
 13 14  2  0  0  0  0 
  9 14  1  0  0  0  0 
 14 15  1  0  0  0  0 
 15 16  1  0  0  0  0 
 16 17  2  0  0  0  0 
  8 17  1  0  0  0  0 
 17 18  1  0  0  0  0 
 18 19  2  0  0  0  0 
 19 20  1  0  0  0  0 
 20 21  2  0  0  0  0 
 16 21  1  0  0  0  0 
  1 22  1  0  0  0  0 
  1 23  1  0  0  0  0 
  1 24  1  0  0  0  0 
  2 25  1  0  0  0  0 
  3 26  1  0  0  0  0 
  3 27  1  0  0  0  0 
  5 28  1  0  0  0  0 
  5 29  1  0  0  0  0 
  5 30  1  0  0  0  0 
  6 31  1  0  0  0  0 
  6 32  1  0  0  0  0 
  6 33  1  0  0  0  0 
  7 34  1  0  0  0  0 
  7 35  1  0  0  0  0 
 10 36  1  0  0  0  0 
 11 37  1  0  0  0  0 
 12 38  1  0  0  0  0 
 13 39  1  0  0  0  0 
 18 40  1  0  0  0  0 
 19 41  1  0  0  0  0 
 20 42  1  0  0  0  0 
 21 43  1  0  0  0  0 
M  END
> <cdk:Title>
alimemazine

> <Conformer>
1

> <SuperDrugID>
SD002479

$$$$
