triamterene
  CDK     0628171801

 30 32  0  0  0  0  0  0  0  0999 V2000
    1.8038    0.3138   -4.7339 N   0  0  0  0  0  0  0  0  0  0  0  0
    2.5964    1.0090   -3.8991 C   0  0  0  0  0  0  0  0  0  0  0  0
    2.4339    0.9631   -2.4997 C   0  0  0  0  0  0  0  0  0  0  0  0
    3.5801    1.7796   -4.4311 N   0  0  0  0  0  0  0  0  0  0  0  0
    3.3254    1.7277   -1.7101 C   0  0  0  0  0  0  0  0  0  0  0  0
    1.4786    0.2298   -1.8718 N   0  0  0  0  0  0  0  0  0  0  0  0
    4.4182    2.5139   -3.6545 C   0  0  0  0  0  0  0  0  0  0  0  0
    3.1953    1.6911   -0.3604 N   0  0  0  0  0  0  0  0  0  0  0  0
    4.2863    2.4815   -2.3026 N   0  0  0  0  0  0  0  0  0  0  0  0
    1.3447    0.1848   -0.5168 C   0  0  0  0  0  0  0  0  0  0  0  0
    5.3775    3.2645   -4.2188 N   0  0  0  0  0  0  0  0  0  0  0  0
    2.2446    0.9509    0.2676 C   0  0  0  0  0  0  0  0  0  0  0  0
    0.3101   -0.6099    0.0275 C   0  0  0  0  0  0  0  0  0  0  0  0
    2.1984    1.0075    1.6134 N   0  0  0  0  0  0  0  0  0  0  0  0
    0.5806   -1.6173    0.9843 C   0  0  0  0  0  0  0  0  0  0  0  0
   -1.0291   -0.4005   -0.3807 C   0  0  0  0  0  0  0  0  0  0  0  0
   -0.4683   -2.3740    1.5402 C   0  0  0  0  0  0  0  0  0  0  0  0
   -2.0752   -1.1556    0.1818 C   0  0  0  0  0  0  0  0  0  0  0  0
   -1.7972   -2.1391    1.1470 C   0  0  0  0  0  0  0  0  0  0  0  0
    1.9368    0.3772   -5.6927 H   0  0  0  0  0  0  0  0  0  0  0  0
    1.0961   -0.2475   -4.3826 H   0  0  0  0  0  0  0  0  0  0  0  0
    5.4754    3.2953   -5.1854 H   0  0  0  0  0  0  0  0  0  0  0  0
    5.9731    3.7858   -3.6596 H   0  0  0  0  0  0  0  0  0  0  0  0
    1.5294    0.5059    2.1049 H   0  0  0  0  0  0  0  0  0  0  0  0
    2.8397    1.5529    2.0957 H   0  0  0  0  0  0  0  0  0  0  0  0
    1.5414   -1.8101    1.2797 H   0  0  0  0  0  0  0  0  0  0  0  0
   -1.2560    0.3122   -1.0803 H   0  0  0  0  0  0  0  0  0  0  0  0
   -0.2625   -3.0961    2.2319 H   0  0  0  0  0  0  0  0  0  0  0  0
   -3.0405   -0.9872   -0.1092 H   0  0  0  0  0  0  0  0  0  0  0  0
   -2.5597   -2.6835    1.5605 H   0  0  0  0  0  0  0  0  0  0  0  0
  1  2  1  0  0  0  0 
  2  3  2  0  0  0  0 
  2  4  1  0  0  0  0 
  3  5  1  0  0  0  0 
  3  6  1  0  0  0  0 
  4  7  2  0  0  0  0 
  5  8  1  0  0  0  0 
  5  9  2  0  0  0  0 
  6 10  2  0  0  0  0 
  7  9  1  0  0  0  0 
  7 11  1  0  0  0  0 
  8 12  2  0  0  0  0 
 10 12  1  0  0  0  0 
 10 13  1  0  0  0  0 
 12 14  1  0  0  0  0 
 13 15  2  0  0  0  0 
 13 16  1  0  0  0  0 
 15 17  1  0  0  0  0 
 16 18  2  0  0  0  0 
 17 19  2  0  0  0  0 
 18 19  1  0  0  0  0 
  1 20  1  0  0  0  0 
  1 21  1  0  0  0  0 
 11 22  1  0  0  0  0 
 11 23  1  0  0  0  0 
 14 24  1  0  0  0  0 
 14 25  1  0  0  0  0 
 15 26  1  0  0  0  0 
 16 27  1  0  0  0  0 
 17 28  1  0  0  0  0 
 18 29  1  0  0  0  0 
 19 30  1  0  0  0  0 
M  END
> <cdk:Title>
triamterene

> <Conformer>
1

> <SuperDrugID>
SD002458

$$$$
