thiamphenicol
  CDK     0628171801

 36 36  0  0  0  0  0  0  0  0999 V2000
    3.3632   -0.0364    0.6089 C   0  0  2  0  0  0  0  0  0  0  0  0
    2.3832   -0.2635   -0.5897 C   0  0  2  0  0  0  0  0  0  0  0  0
    3.7968    1.3246    0.6258 O   0  0  0  0  0  0  0  0  0  0  0  0
    4.5234   -0.9782    0.6696 C   0  0  0  0  0  0  0  0  0  0  0  0
    1.6439   -1.4831   -0.4409 N   0  0  0  0  0  0  0  0  0  0  0  0
    3.0540   -0.2512   -1.9918 C   0  0  1  0  0  0  0  0  0  0  0  0
    4.4074   -2.2308    1.3221 C   0  0  0  0  0  0  0  0  0  0  0  0
    5.7740   -0.6425    0.0964 C   0  0  0  0  0  0  0  0  0  0  0  0
    0.6187   -1.6928    0.4377 C   0  0  0  0  0  0  0  0  0  0  0  0
    3.7280    0.9796   -2.2369 O   0  0  0  0  0  0  0  0  0  0  0  0
    5.5134   -3.0961    1.4258 C   0  0  0  0  0  0  0  0  0  0  0  0
    6.8788   -1.5081    0.1982 C   0  0  0  0  0  0  0  0  0  0  0  0
   -0.0759   -2.9946    0.4631 C   0  0  1  0  0  0  0  0  0  0  0  0
    0.2440   -0.7953    1.2310 O   0  0  0  0  0  0  0  0  0  0  0  0
    6.7600   -2.7367    0.8763 C   0  0  0  0  0  0  0  0  0  0  0  0
   -0.8685   -3.3013   -1.0786 Cl  0  0  0  0  0  0  0  0  0  0  0  0
    1.0549   -4.2996    0.8081 Cl  0  0  0  0  0  0  0  0  0  0  0  0
    8.1829   -3.7823    1.0521 S   0  0  2  0  0  0  0  0  0  0  0  0
    8.7230   -4.4463   -0.5675 C   0  0  0  0  0  0  0  0  0  0  0  0
    7.8849   -5.0124    2.0374 O   0  0  0  0  0  0  0  0  0  0  0  0
    9.3912   -2.9257    1.6715 O   0  0  0  0  0  0  0  0  0  0  0  0
    2.7998   -0.1382    1.5387 H   0  0  0  0  0  0  0  0  0  0  0  0
    1.6586    0.5582   -0.5889 H   0  0  0  0  0  0  0  0  0  0  0  0
    2.9772    1.8617    0.6668 H   0  0  0  0  0  0  0  0  0  0  0  0
    1.8922   -2.2276   -1.0120 H   0  0  0  0  0  0  0  0  0  0  0  0
    3.7682   -1.0720   -2.0890 H   0  0  0  0  0  0  0  0  0  0  0  0
    2.2912   -0.3724   -2.7661 H   0  0  0  0  0  0  0  0  0  0  0  0
    3.5178   -2.5175    1.7402 H   0  0  0  0  0  0  0  0  0  0  0  0
    5.8954    0.2448   -0.3969 H   0  0  0  0  0  0  0  0  0  0  0  0
    4.1345    0.8770   -3.1234 H   0  0  0  0  0  0  0  0  0  0  0  0
    5.4047   -3.9845    1.9180 H   0  0  0  0  0  0  0  0  0  0  0  0
    7.7717   -1.2283   -0.2143 H   0  0  0  0  0  0  0  0  0  0  0  0
   -0.8452   -3.0052    1.2398 H   0  0  0  0  0  0  0  0  0  0  0  0
    7.9168   -5.0271   -1.0144 H   0  0  0  0  0  0  0  0  0  0  0  0
    9.5936   -5.0882   -0.4276 H   0  0  0  0  0  0  0  0  0  0  0  0
    8.9893   -3.6248   -1.2309 H   0  0  0  0  0  0  0  0  0  0  0  0
  2  1  1  0  0  0  0 
  1  3  1  0  0  0  0 
  1  4  1  0  0  0  0 
  2  5  1  0  0  0  0 
  2  6  1  0  0  0  0 
  4  7  2  0  0  0  0 
  4  8  1  0  0  0  0 
  5  9  1  0  0  0  0 
  6 10  1  0  0  0  0 
  7 11  1  0  0  0  0 
  8 12  2  0  0  0  0 
  9 13  1  0  0  0  0 
  9 14  2  0  0  0  0 
 11 15  2  0  0  0  0 
 12 15  1  0  0  0  0 
 13 16  1  0  0  0  0 
 13 17  1  0  0  0  0 
 15 18  1  0  0  0  0 
 18 19  1  0  0  0  0 
 18 20  2  0  0  0  0 
 18 21  2  0  0  0  0 
  1 22  1  0  0  0  0 
  2 23  1  0  0  0  0 
  3 24  1  0  0  0  0 
  5 25  1  0  0  0  0 
  6 26  1  0  0  0  0 
  6 27  1  0  0  0  0 
  7 28  1  0  0  0  0 
  8 29  1  0  0  0  0 
 10 30  1  0  0  0  0 
 11 31  1  0  0  0  0 
 12 32  1  0  0  0  0 
 13 33  1  0  0  0  0 
 19 34  1  0  0  0  0 
 19 35  1  0  0  0  0 
 19 36  1  0  0  0  0 
M  END
> <cdk:Title>
thiamphenicol

> <Conformer>
1

> <SuperDrugID>
SD002360

$$$$
