bialamicol
  CDK     0628171801

 72 73  0  0  0  0  0  0  0  0999 V2000
    7.9425    4.3947   -2.5724 C   0  0  2  0  0  0  0  0  0  0  0  0
    7.7347    5.7635   -3.1662 N   0  0  1  0  0  0  0  0  0  0  0  0
    7.2296    3.3016   -3.3023 C   0  0  0  0  0  0  0  0  0  0  0  0
    6.2907    6.2005   -3.0891 C   0  0  2  0  0  0  0  0  0  0  0  0
    8.6899    6.7845   -2.6094 C   0  0  2  0  0  0  0  0  0  0  0  0
    6.0326    2.7846   -2.7612 C   0  0  0  0  0  0  0  0  0  0  0  0
    7.7056    2.7721   -4.5277 C   0  0  0  0  0  0  0  0  0  0  0  0
    5.9273    7.4971   -3.8552 C   0  0  0  0  0  0  0  0  0  0  0  0
   10.1754    6.5559   -2.9812 C   0  0  0  0  0  0  0  0  0  0  0  0
    5.3065    1.7649   -3.4105 C   0  0  0  0  0  0  0  0  0  0  0  0
    8.8408    3.2948   -5.0679 O   0  0  0  0  0  0  0  0  0  0  0  0
    7.0200    1.7091   -5.1785 C   0  0  0  0  0  0  0  0  0  0  0  0
    5.8083    1.2411   -4.6185 C   0  0  0  0  0  0  0  0  0  0  0  0
    4.1044    1.2705   -2.8394 C   0  0  0  0  0  0  0  0  0  0  0  0
    7.5569    1.0495   -6.4067 C   0  0  1  0  0  0  0  0  0  0  0  0
    4.0884    0.8168   -1.5043 C   0  0  0  0  0  0  0  0  0  0  0  0
    2.9053    1.2374   -3.5792 C   0  0  0  0  0  0  0  0  0  0  0  0
    8.7104    0.2232   -6.0873 C   0  0  0  0  0  0  0  0  0  0  0  0
    2.9122    0.3149   -0.9063 C   0  0  0  0  0  0  0  0  0  0  0  0
    1.6979    0.7710   -3.0081 C   0  0  0  0  0  0  0  0  0  0  0  0
    9.9238    0.3810   -6.6307 C   0  0  0  0  0  0  0  0  0  0  0  0
    2.9675   -0.1653    0.5095 C   0  0  1  0  0  0  0  0  0  0  0  0
    1.7225    0.2735   -1.6757 C   0  0  0  0  0  0  0  0  0  0  0  0
    0.4368    0.8517   -3.8045 C   0  0  1  0  0  0  0  0  0  0  0  0
    3.0143   -1.6657    0.6449 N   0  0  1  0  0  0  0  0  0  0  0  0
    0.5970   -0.2434   -1.1100 O   0  0  0  0  0  0  0  0  0  0  0  0
   -0.4239    1.9116   -3.3041 C   0  0  0  0  0  0  0  0  0  0  0  0
    4.2767   -2.2480    0.0530 C   0  0  1  0  0  0  0  0  0  0  0  0
    2.7658   -2.1218    2.0585 C   0  0  1  0  0  0  0  0  0  0  0  0
   -1.6748    1.7227   -2.8669 C   0  0  0  0  0  0  0  0  0  0  0  0
    4.3287   -3.7907   -0.0697 C   0  0  0  0  0  0  0  0  0  0  0  0
    1.3340   -1.8530    2.5853 C   0  0  0  0  0  0  0  0  0  0  0  0
    7.6427    4.4216   -1.5191 H   0  0  0  0  0  0  0  0  0  0  0  0
    8.9990    4.1222   -2.5638 H   0  0  0  0  0  0  0  0  0  0  0  0
    5.9843    6.3099   -2.0442 H   0  0  0  0  0  0  0  0  0  0  0  0
    5.6581    5.4276   -3.5285 H   0  0  0  0  0  0  0  0  0  0  0  0
    8.5926    6.8374   -1.5214 H   0  0  0  0  0  0  0  0  0  0  0  0
    8.4456    7.7718   -3.0024 H   0  0  0  0  0  0  0  0  0  0  0  0
    5.6707    3.1743   -1.8866 H   0  0  0  0  0  0  0  0  0  0  0  0
    4.8420    7.5316   -3.9909 H   0  0  0  0  0  0  0  0  0  0  0  0
    6.1869    8.3888   -3.2055 H   0  0  0  0  0  0  0  0  0  0  0  0
    6.3844    7.4362   -4.8901 H   0  0  0  0  0  0  0  0  0  0  0  0
   10.7482    7.4697   -2.8091 H   0  0  0  0  0  0  0  0  0  0  0  0
   10.6137    5.7688   -2.3668 H   0  0  0  0  0  0  0  0  0  0  0  0
   10.2651    6.2845   -4.0348 H   0  0  0  0  0  0  0  0  0  0  0  0
    8.7638    3.1633   -6.0355 H   0  0  0  0  0  0  0  0  0  0  0  0
    5.2910    0.4902   -5.0852 H   0  0  0  0  0  0  0  0  0  0  0  0
    6.8152    0.3816   -6.8540 H   0  0  0  0  0  0  0  0  0  0  0  0
    7.7781    1.8053   -7.1668 H   0  0  0  0  0  0  0  0  0  0  0  0
    4.9571    0.8323   -0.9623 H   0  0  0  0  0  0  0  0  0  0  0  0
    2.9098    1.5801   -4.5442 H   0  0  0  0  0  0  0  0  0  0  0  0
    8.5884   -0.5118   -5.4261 H   0  0  0  0  0  0  0  0  0  0  0  0
   10.1012    1.0947   -7.2973 H   0  0  0  0  0  0  0  0  0  0  0  0
   10.6678   -0.2233   -6.3711 H   0  0  0  0  0  0  0  0  0  0  0  0
    3.8304    0.2619    1.0337 H   0  0  0  0  0  0  0  0  0  0  0  0
    2.0916    0.2505    1.0107 H   0  0  0  0  0  0  0  0  0  0  0  0
    0.6445    1.0923   -4.8506 H   0  0  0  0  0  0  0  0  0  0  0  0
   -0.0585   -0.1240   -3.8132 H   0  0  0  0  0  0  0  0  0  0  0  0
    0.0640   -0.5995   -1.8504 H   0  0  0  0  0  0  0  0  0  0  0  0
   -0.0618    2.8392   -3.2922 H   0  0  0  0  0  0  0  0  0  0  0  0
    4.3966   -1.8832   -0.9680 H   0  0  0  0  0  0  0  0  0  0  0  0
    5.1518   -1.9111    0.6171 H   0  0  0  0  0  0  0  0  0  0  0  0
    2.8967   -3.2027    2.1263 H   0  0  0  0  0  0  0  0  0  0  0  0
    3.4928   -1.6655    2.7379 H   0  0  0  0  0  0  0  0  0  0  0  0
   -2.2106    2.4930   -2.5435 H   0  0  0  0  0  0  0  0  0  0  0  0
   -2.0876    0.8208   -2.8598 H   0  0  0  0  0  0  0  0  0  0  0  0
    5.1028   -4.0837   -0.7843 H   0  0  0  0  0  0  0  0  0  0  0  0
    4.5731   -4.2471    0.8917 H   0  0  0  0  0  0  0  0  0  0  0  0
    3.3689   -4.1731   -0.4217 H   0  0  0  0  0  0  0  0  0  0  0  0
    1.1412   -2.4643    3.4705 H   0  0  0  0  0  0  0  0  0  0  0  0
    1.2143   -0.8068    2.8718 H   0  0  0  0  0  0  0  0  0  0  0  0
    0.5955   -2.1061    1.8210 H   0  0  0  0  0  0  0  0  0  0  0  0
  1  2  1  0  0  0  0 
  1  3  1  0  0  0  0 
  2  4  1  0  0  0  0 
  2  5  1  0  0  0  0 
  3  6  2  0  0  0  0 
  3  7  1  0  0  0  0 
  4  8  1  0  0  0  0 
  5  9  1  0  0  0  0 
  6 10  1  0  0  0  0 
  7 11  1  0  0  0  0 
  7 12  2  0  0  0  0 
 10 13  2  0  0  0  0 
 10 14  1  0  0  0  0 
 12 13  1  0  0  0  0 
 12 15  1  0  0  0  0 
 14 16  2  0  0  0  0 
 14 17  1  0  0  0  0 
 15 18  1  0  0  0  0 
 16 19  1  0  0  0  0 
 17 20  2  0  0  0  0 
 18 21  2  0  0  0  0 
 19 22  1  0  0  0  0 
 19 23  2  0  0  0  0 
 20 23  1  0  0  0  0 
 20 24  1  0  0  0  0 
 22 25  1  0  0  0  0 
 23 26  1  0  0  0  0 
 24 27  1  0  0  0  0 
 25 28  1  0  0  0  0 
 25 29  1  0  0  0  0 
 27 30  2  0  0  0  0 
 28 31  1  0  0  0  0 
 29 32  1  0  0  0  0 
  1 33  1  0  0  0  0 
  1 34  1  0  0  0  0 
  4 35  1  0  0  0  0 
  4 36  1  0  0  0  0 
  5 37  1  0  0  0  0 
  5 38  1  0  0  0  0 
  6 39  1  0  0  0  0 
  8 40  1  0  0  0  0 
  8 41  1  0  0  0  0 
  8 42  1  0  0  0  0 
  9 43  1  0  0  0  0 
  9 44  1  0  0  0  0 
  9 45  1  0  0  0  0 
 11 46  1  0  0  0  0 
 13 47  1  0  0  0  0 
 15 48  1  0  0  0  0 
 15 49  1  0  0  0  0 
 16 50  1  0  0  0  0 
 17 51  1  0  0  0  0 
 18 52  1  0  0  0  0 
 21 53  1  0  0  0  0 
 21 54  1  0  0  0  0 
 22 55  1  0  0  0  0 
 22 56  1  0  0  0  0 
 24 57  1  0  0  0  0 
 24 58  1  0  0  0  0 
 26 59  1  0  0  0  0 
 27 60  1  0  0  0  0 
 28 61  1  0  0  0  0 
 28 62  1  0  0  0  0 
 29 63  1  0  0  0  0 
 29 64  1  0  0  0  0 
 30 65  1  0  0  0  0 
 30 66  1  0  0  0  0 
 31 67  1  0  0  0  0 
 31 68  1  0  0  0  0 
 31 69  1  0  0  0  0 
 32 70  1  0  0  0  0 
 32 71  1  0  0  0  0 
 32 72  1  0  0  0  0 
M  END
> <cdk:Title>
bialamicol

> <Conformer>
1

> <SuperDrugID>
SD000309

$$$$
