halcinonide
  CDK     0628171801

 63 67  0  0  0  0  0  0  0  0999 V2000
   -1.4587    2.6729   -0.2482 C   0  0  0  0  0  0  0  0  0  0  0  0
   -0.2058    1.9374   -0.5476 C   0  0  2  0  0  0  0  0  0  0  0  0
   -1.7561    3.6292   -1.0039 O   0  0  0  0  0  0  0  0  0  0  0  0
   -2.3640    2.2983    0.8927 C   0  0  2  0  0  0  0  0  0  0  0  0
    1.1862    3.0168   -0.5593 Cl  0  0  0  0  0  0  0  0  0  0  0  0
   -3.2238    0.9889    0.6732 C   0  0  2  0  0  0  0  0  0  0  0  0
   -3.4219    3.3571    1.3439 C   0  0  1  0  0  0  0  0  0  0  0  0
   -1.5210    2.1991    2.0475 O   0  0  0  0  0  0  0  0  0  0  0  0
   -4.2880    1.1499    1.8084 C   0  0  1  0  0  0  0  0  0  0  0  0
   -2.5022   -0.3783    0.9429 C   0  0  1  0  0  0  0  0  0  0  0  0
   -4.7429    2.6112    1.6647 C   0  0  1  0  0  0  0  0  0  0  0  0
   -2.9341    3.9738    2.5381 O   0  0  0  0  0  0  0  0  0  0  0  0
   -1.6586    3.3956    2.8231 C   0  0  2  0  0  0  0  0  0  0  0  0
   -5.3586    0.0081    1.8770 C   0  0  1  0  0  0  0  0  0  0  0  0
   -3.4771   -1.6009    1.0582 C   0  0  1  0  0  0  0  0  0  0  0  0
   -4.6616   -1.3945    2.0905 C   0  0  1  0  0  0  0  0  0  0  0  0
   -6.4055    0.2535    3.0056 C   0  0  1  0  0  0  0  0  0  0  0  0
   -3.9342   -1.9342   -0.2503 O   0  0  0  0  0  0  0  0  0  0  0  0
   -4.0190   -1.3082    3.3200 F   0  0  0  0  0  0  0  0  0  0  0  0
   -5.7258   -2.5958    2.2133 C   0  0  2  0  0  0  0  0  0  0  0  0
   -7.4370   -0.8949    3.0805 C   0  0  2  0  0  0  0  0  0  0  0  0
   -6.4375   -2.9333    0.8488 C   0  0  0  0  0  0  0  0  0  0  0  0
   -6.8387   -2.2394    3.1544 C   0  0  0  0  0  0  0  0  0  0  0  0
   -4.9851   -3.9054    2.7167 C   0  0  1  0  0  0  0  0  0  0  0  0
   -7.3985   -3.1528    3.9854 C   0  0  0  0  0  0  0  0  0  0  0  0
   -5.9461   -5.0292    3.1781 C   0  0  1  0  0  0  0  0  0  0  0  0
   -7.0192   -4.4865    4.0375 C   0  0  0  0  0  0  0  0  0  0  0  0
   -7.6317   -5.2707    4.8010 O   0  0  0  0  0  0  0  0  0  0  0  0
   -3.8259    1.0057   -0.7889 C   0  0  0  0  0  0  0  0  0  0  0  0
   -0.5571    4.4373    2.4869 C   0  0  0  0  0  0  0  0  0  0  0  0
   -1.5995    2.9554    4.3074 C   0  0  0  0  0  0  0  0  0  0  0  0
   -0.2884    1.4653   -1.5282 H   0  0  0  0  0  0  0  0  0  0  0  0
   -0.0113    1.1599    0.1933 H   0  0  0  0  0  0  0  0  0  0  0  0
   -3.6204    4.1268    0.5937 H   0  0  0  0  0  0  0  0  0  0  0  0
   -3.7793    1.1091    2.7806 H   0  0  0  0  0  0  0  0  0  0  0  0
   -1.7736   -0.5743    0.1539 H   0  0  0  0  0  0  0  0  0  0  0  0
   -1.9345   -0.3161    1.8745 H   0  0  0  0  0  0  0  0  0  0  0  0
   -5.1984    2.9780    2.5875 H   0  0  0  0  0  0  0  0  0  0  0  0
   -5.4660    2.7143    0.8513 H   0  0  0  0  0  0  0  0  0  0  0  0
   -5.9102    0.0054    0.9377 H   0  0  0  0  0  0  0  0  0  0  0  0
   -2.8718   -2.4524    1.3823 H   0  0  0  0  0  0  0  0  0  0  0  0
   -5.9090    0.3519    3.9763 H   0  0  0  0  0  0  0  0  0  0  0  0
   -6.9474    1.1848    2.8149 H   0  0  0  0  0  0  0  0  0  0  0  0
   -3.1303   -2.1856   -0.7531 H   0  0  0  0  0  0  0  0  0  0  0  0
   -8.0561   -0.8554    2.1807 H   0  0  0  0  0  0  0  0  0  0  0  0
   -8.1023   -0.6824    3.9244 H   0  0  0  0  0  0  0  0  0  0  0  0
   -7.3194   -3.5641    0.9965 H   0  0  0  0  0  0  0  0  0  0  0  0
   -5.7789   -3.4815    0.1736 H   0  0  0  0  0  0  0  0  0  0  0  0
   -6.7715   -2.0305    0.3368 H   0  0  0  0  0  0  0  0  0  0  0  0
   -4.3241   -4.3097    1.9436 H   0  0  0  0  0  0  0  0  0  0  0  0
   -4.3550   -3.6765    3.5818 H   0  0  0  0  0  0  0  0  0  0  0  0
   -8.1509   -2.8776    4.5788 H   0  0  0  0  0  0  0  0  0  0  0  0
   -6.3977   -5.5123    2.3092 H   0  0  0  0  0  0  0  0  0  0  0  0
   -5.3760   -5.7844    3.7282 H   0  0  0  0  0  0  0  0  0  0  0  0
   -4.1359    2.0075   -1.0932 H   0  0  0  0  0  0  0  0  0  0  0  0
   -3.0804    0.6680   -1.5121 H   0  0  0  0  0  0  0  0  0  0  0  0
   -4.6964    0.3641   -0.8941 H   0  0  0  0  0  0  0  0  0  0  0  0
   -0.6746    4.8056    1.4663 H   0  0  0  0  0  0  0  0  0  0  0  0
    0.4320    3.9883    2.5809 H   0  0  0  0  0  0  0  0  0  0  0  0
   -0.6217    5.2938    3.1613 H   0  0  0  0  0  0  0  0  0  0  0  0
   -2.3911    2.2333    4.5166 H   0  0  0  0  0  0  0  0  0  0  0  0
   -0.6397    2.4796    4.5221 H   0  0  0  0  0  0  0  0  0  0  0  0
   -1.7290    3.8093    4.9743 H   0  0  0  0  0  0  0  0  0  0  0  0
  1  2  1  0  0  0  0 
  1  3  2  0  0  0  0 
  2  5  1  0  0  0  0 
  4  1  1  0  0  0  0 
  6  4  1  0  0  0  0 
  4  7  1  0  0  0  0 
  4  8  1  0  0  0  0 
  9  6  1  0  0  0  0 
  6 10  1  0  0  0  0 
  7 11  1  0  0  0  0 
  7 12  1  0  0  0  0 
  8 13  1  0  0  0  0 
  9 11  1  0  0  0  0 
 14  9  1  0  0  0  0 
 15 10  1  0  0  0  0 
 12 13  1  0  0  0  0 
 16 14  1  0  0  0  0 
 14 17  1  0  0  0  0 
 16 15  1  0  0  0  0 
 15 18  1  0  0  0  0 
 16 19  1  0  0  0  0 
 16 20  1  0  0  0  0 
 17 21  1  0  0  0  0 
 20 22  1  0  0  0  0 
 20 23  1  0  0  0  0 
 20 24  1  0  0  0  0 
 21 23  1  0  0  0  0 
 23 25  2  0  0  0  0 
 24 26  1  0  0  0  0 
 25 27  1  0  0  0  0 
 26 27  1  0  0  0  0 
 27 28  2  0  0  0  0 
  6 29  1  0  0  0  0 
 13 30  1  0  0  0  0 
 13 31  1  0  0  0  0 
 32  2  1  0  0  0  0 
 33  2  1  0  0  0  0 
  7 34  1  0  0  0  0 
  9 35  1  0  0  0  0 
 36 10  1  0  0  0  0 
 37 10  1  0  0  0  0 
 38 11  1  0  0  0  0 
 39 11  1  0  0  0  0 
 14 40  1  0  0  0  0 
 15 41  1  0  0  0  0 
 42 17  1  0  0  0  0 
 43 17  1  0  0  0  0 
 44 18  1  0  0  0  0 
 45 21  1  0  0  0  0 
 46 21  1  0  0  0  0 
 47 22  1  0  0  0  0 
 48 22  1  0  0  0  0 
 49 22  1  0  0  0  0 
 50 24  1  0  0  0  0 
 51 24  1  0  0  0  0 
 52 25  1  0  0  0  0 
 53 26  1  0  0  0  0 
 54 26  1  0  0  0  0 
 55 29  1  0  0  0  0 
 56 29  1  0  0  0  0 
 57 29  1  0  0  0  0 
 58 30  1  0  0  0  0 
 59 30  1  0  0  0  0 
 60 30  1  0  0  0  0 
 61 31  1  0  0  0  0 
 62 31  1  0  0  0  0 
 63 31  1  0  0  0  0 
M  END
> <cdk:Title>
halcinonide

> <Conformer>
1

> <SuperDrugID>
SD003603

$$$$
