oxomemazine
  CDK     0628171801

 45 47  0  0  0  0  0  0  0  0999 V2000
    0.0125    1.5258    1.7545 C   0  0  0  0  0  0  0  0  0  0  0  0
   -0.8664    0.8488    0.6633 C   0  0  2  0  0  0  0  0  0  0  0  0
   -2.3815    0.9390    1.0567 C   0  0  2  0  0  0  0  0  0  0  0  0
   -3.3292    0.1929    0.1634 N   0  0  1  0  0  0  0  0  0  0  0  0
   -4.6670   -0.0442    0.7870 C   0  0  0  0  0  0  0  0  0  0  0  0
   -3.4549    0.7550   -1.2140 C   0  0  0  0  0  0  0  0  0  0  0  0
   -0.4166   -0.6270    0.3917 C   0  0  2  0  0  0  0  0  0  0  0  0
    0.9877   -0.8371    0.0152 N   0  0  0  0  0  0  0  0  0  0  0  0
    1.5507   -0.1073   -1.0439 C   0  0  0  0  0  0  0  0  0  0  0  0
    0.8160    0.1819   -2.2232 C   0  0  0  0  0  0  0  0  0  0  0  0
    1.3566    0.9674   -3.2576 C   0  0  0  0  0  0  0  0  0  0  0  0
    2.6656    1.4644   -3.1531 C   0  0  0  0  0  0  0  0  0  0  0  0
    3.4381    1.1634   -2.0210 C   0  0  0  0  0  0  0  0  0  0  0  0
    2.8823    0.3852   -0.9854 C   0  0  0  0  0  0  0  0  0  0  0  0
    3.8603   -0.0469    0.4222 S   0  0  2  0  0  0  0  0  0  0  0  0
    3.8108    1.1223    1.5189 O   0  0  0  0  0  0  0  0  0  0  0  0
    5.3848   -0.3150   -0.0028 O   0  0  0  0  0  0  0  0  0  0  0  0
    3.1176   -1.5168    1.0638 C   0  0  0  0  0  0  0  0  0  0  0  0
    1.7575   -1.7631    0.7367 C   0  0  0  0  0  0  0  0  0  0  0  0
    1.2138   -3.0017    1.1696 C   0  0  0  0  0  0  0  0  0  0  0  0
    1.9544   -3.9055    1.9524 C   0  0  0  0  0  0  0  0  0  0  0  0
    3.2811   -3.6068    2.2978 C   0  0  0  0  0  0  0  0  0  0  0  0
    3.8723   -2.4181    1.8394 C   0  0  0  0  0  0  0  0  0  0  0  0
   -0.3151    2.5536    1.9219 H   0  0  0  0  0  0  0  0  0  0  0  0
    1.0571    1.5549    1.4455 H   0  0  0  0  0  0  0  0  0  0  0  0
   -0.0543    0.9828    2.6992 H   0  0  0  0  0  0  0  0  0  0  0  0
   -0.7343    1.4318   -0.2498 H   0  0  0  0  0  0  0  0  0  0  0  0
   -2.6809    1.9901    1.0987 H   0  0  0  0  0  0  0  0  0  0  0  0
   -2.4743    0.5465    2.0741 H   0  0  0  0  0  0  0  0  0  0  0  0
   -5.2830   -0.6842    0.1507 H   0  0  0  0  0  0  0  0  0  0  0  0
   -4.5664   -0.5566    1.7463 H   0  0  0  0  0  0  0  0  0  0  0  0
   -5.1999    0.8955    0.9502 H   0  0  0  0  0  0  0  0  0  0  0  0
   -2.4840    0.8100   -1.7063 H   0  0  0  0  0  0  0  0  0  0  0  0
   -4.0824    0.1082   -1.8325 H   0  0  0  0  0  0  0  0  0  0  0  0
   -3.8963    1.7550   -1.1942 H   0  0  0  0  0  0  0  0  0  0  0  0
   -1.0398   -1.0582   -0.3955 H   0  0  0  0  0  0  0  0  0  0  0  0
   -0.6742   -1.1684    1.3070 H   0  0  0  0  0  0  0  0  0  0  0  0
   -0.1295   -0.1800   -2.3476 H   0  0  0  0  0  0  0  0  0  0  0  0
    0.7964    1.1762   -4.0875 H   0  0  0  0  0  0  0  0  0  0  0  0
    3.0581    2.0341   -3.9071 H   0  0  0  0  0  0  0  0  0  0  0  0
    4.4002    1.5058   -1.9595 H   0  0  0  0  0  0  0  0  0  0  0  0
    0.2617   -3.2642    0.9128 H   0  0  0  0  0  0  0  0  0  0  0  0
    1.5310   -4.7813    2.2694 H   0  0  0  0  0  0  0  0  0  0  0  0
    3.8195   -4.2585    2.8737 H   0  0  0  0  0  0  0  0  0  0  0  0
    4.8486   -2.2223    2.0711 H   0  0  0  0  0  0  0  0  0  0  0  0
  2  1  1  0  0  0  0 
  2  3  1  0  0  0  0 
  3  4  1  0  0  0  0 
  4  5  1  0  0  0  0 
  4  6  1  0  0  0  0 
  2  7  1  0  0  0  0 
  7  8  1  0  0  0  0 
  8  9  1  0  0  0  0 
  9 10  2  0  0  0  0 
 10 11  1  0  0  0  0 
 11 12  2  0  0  0  0 
 12 13  1  0  0  0  0 
 13 14  2  0  0  0  0 
  9 14  1  0  0  0  0 
 14 15  1  0  0  0  0 
 15 16  2  0  0  0  0 
 15 17  2  0  0  0  0 
 15 18  1  0  0  0  0 
 18 19  2  0  0  0  0 
  8 19  1  0  0  0  0 
 19 20  1  0  0  0  0 
 20 21  2  0  0  0  0 
 21 22  1  0  0  0  0 
 22 23  2  0  0  0  0 
 18 23  1  0  0  0  0 
  1 24  1  0  0  0  0 
  1 25  1  0  0  0  0 
  1 26  1  0  0  0  0 
  2 27  1  0  0  0  0 
  3 28  1  0  0  0  0 
  3 29  1  0  0  0  0 
  5 30  1  0  0  0  0 
  5 31  1  0  0  0  0 
  5 32  1  0  0  0  0 
  6 33  1  0  0  0  0 
  6 34  1  0  0  0  0 
  6 35  1  0  0  0  0 
  7 36  1  0  0  0  0 
  7 37  1  0  0  0  0 
 10 38  1  0  0  0  0 
 11 39  1  0  0  0  0 
 12 40  1  0  0  0  0 
 13 41  1  0  0  0  0 
 20 42  1  0  0  0  0 
 21 43  1  0  0  0  0 
 22 44  1  0  0  0  0 
 23 45  1  0  0  0  0 
M  END
> <cdk:Title>
oxomemazine

> <Conformer>
1

> <SuperDrugID>
SD001812

$$$$
