oxilofrine
  CDK     0628171801

 28 28  0  0  0  0  0  0  0  0999 V2000
    1.0313    0.4669   -4.5388 C   0  0  0  0  0  0  0  0  0  0  0  0
    1.7867   -0.0971   -5.5836 C   0  0  0  0  0  0  0  0  0  0  0  0
    2.7509   -1.0842   -5.3041 C   0  0  0  0  0  0  0  0  0  0  0  0
    2.9507   -1.5093   -3.9804 C   0  0  0  0  0  0  0  0  0  0  0  0
    2.1974   -0.9422   -2.9361 C   0  0  0  0  0  0  0  0  0  0  0  0
    1.2200    0.0508   -3.1973 C   0  0  0  0  0  0  0  0  0  0  0  0
    3.4900   -1.6200   -6.3037 O   0  0  0  0  0  0  0  0  0  0  0  0
    0.4023    0.6203   -2.0818 C   0  0  2  0  0  0  0  0  0  0  0  0
   -1.0022   -0.0484   -1.9052 C   0  0  1  0  0  0  0  0  0  0  0  0
   -1.8601   -0.0222   -3.1199 N   0  0  1  0  0  0  0  0  0  0  0  0
   -2.5658    1.2384   -3.4229 C   0  0  0  0  0  0  0  0  0  0  0  0
   -0.8933   -1.5304   -1.4638 C   0  0  0  0  0  0  0  0  0  0  0  0
   -1.5196    0.4724   -1.0924 H   0  0  0  0  0  0  0  0  0  0  0  0
    0.2809    2.0367   -2.2178 O   0  0  0  0  0  0  0  0  0  0  0  0
    0.9474    0.4906   -1.1410 H   0  0  0  0  0  0  0  0  0  0  0  0
    0.3437    1.1883   -4.7674 H   0  0  0  0  0  0  0  0  0  0  0  0
    1.6347    0.2162   -6.5446 H   0  0  0  0  0  0  0  0  0  0  0  0
    3.6470   -2.2281   -3.7700 H   0  0  0  0  0  0  0  0  0  0  0  0
    2.3654   -1.2638   -1.9788 H   0  0  0  0  0  0  0  0  0  0  0  0
    4.1784   -0.9461   -6.4868 H   0  0  0  0  0  0  0  0  0  0  0  0
   -1.2880   -0.2749   -3.9286 H   0  0  0  0  0  0  0  0  0  0  0  0
   -3.2453    1.0621   -4.2584 H   0  0  0  0  0  0  0  0  0  0  0  0
   -1.8627    2.0194   -3.7122 H   0  0  0  0  0  0  0  0  0  0  0  0
   -3.1500    1.5725   -2.5628 H   0  0  0  0  0  0  0  0  0  0  0  0
   -0.2853   -1.6165   -0.5602 H   0  0  0  0  0  0  0  0  0  0  0  0
   -1.8870   -1.9297   -1.2485 H   0  0  0  0  0  0  0  0  0  0  0  0
   -0.4448   -2.1375   -2.2533 H   0  0  0  0  0  0  0  0  0  0  0  0
   -0.1465    2.3347   -1.3858 H   0  0  0  0  0  0  0  0  0  0  0  0
  1  2  2  0  0  0  0 
  1  6  1  0  0  0  0 
  2  3  1  0  0  0  0 
  3  4  2  0  0  0  0 
  4  5  1  0  0  0  0 
  5  6  2  0  0  0  0 
  3  7  1  0  0  0  0 
  6  8  1  0  0  0  0 
  8  9  1  0  0  0  0 
  9 10  1  0  0  0  0 
 10 11  1  0  0  0  0 
  9 12  1  0  0  0  0 
  9 13  1  0  0  0  0 
  8 14  1  0  0  0  0 
  8 15  1  0  0  0  0 
  1 16  1  0  0  0  0 
  2 17  1  0  0  0  0 
  4 18  1  0  0  0  0 
  5 19  1  0  0  0  0 
  7 20  1  0  0  0  0 
 10 21  1  0  0  0  0 
 11 22  1  0  0  0  0 
 11 23  1  0  0  0  0 
 11 24  1  0  0  0  0 
 12 25  1  0  0  0  0 
 12 26  1  0  0  0  0 
 12 27  1  0  0  0  0 
 14 28  1  0  0  0  0 
M  END
> <cdk:Title>
oxilofrine

> <Conformer>
1

> <SuperDrugID>
SD002838

$$$$
