ioglicic acid
  CDK     0628171801

 36 36  0  0  0  0  0  0  0  0999 V2000
   -3.7749   -1.5776    3.4142 C   0  0  0  0  0  0  0  0  0  0  0  0
   -4.7896   -2.4857    3.4158 N   0  0  0  0  0  0  0  0  0  0  0  0
   -3.0612   -1.3839    4.4274 O   0  0  0  0  0  0  0  0  0  0  0  0
   -3.5205   -0.8244    2.2519 C   0  0  0  0  0  0  0  0  0  0  0  0
   -5.1958   -3.2775    4.5314 C   0  0  1  0  0  0  0  0  0  0  0  0
   -2.2872   -0.9648    1.5690 C   0  0  0  0  0  0  0  0  0  0  0  0
   -4.4908    0.0911    1.7727 C   0  0  0  0  0  0  0  0  0  0  0  0
   -4.5551   -4.6050    4.4763 C   0  0  0  0  0  0  0  0  0  0  0  0
   -0.8757   -2.3358    2.1951 I   0  0  0  0  0  0  0  0  0  0  0  0
   -2.0113   -0.1694    0.4346 C   0  0  0  0  0  0  0  0  0  0  0  0
   -6.2390    0.4054    2.8291 I   0  0  0  0  0  0  0  0  0  0  0  0
   -4.2445    0.8317    0.5912 C   0  0  0  0  0  0  0  0  0  0  0  0
   -3.7002   -4.9808    5.4653 N   0  0  0  0  0  0  0  0  0  0  0  0
   -4.8280   -5.3621    3.5148 O   0  0  0  0  0  0  0  0  0  0  0  0
   -0.7869   -0.2807   -0.1528 N   0  0  0  0  0  0  0  0  0  0  0  0
   -3.0054    0.6981   -0.0795 C   0  0  0  0  0  0  0  0  0  0  0  0
   -5.2266    1.7034    0.0841 C   0  0  0  0  0  0  0  0  0  0  0  0
   -3.0625   -6.2463    5.5983 C   0  0  0  0  0  0  0  0  0  0  0  0
    0.1422    0.7121   -0.2336 C   0  0  0  0  0  0  0  0  0  0  0  0
   -2.6746    1.6894   -1.8606 I   0  0  0  0  0  0  0  0  0  0  0  0
   -4.9996    3.0378    0.0542 O   0  0  0  0  0  0  0  0  0  0  0  0
   -6.3181    1.2600   -0.3400 O   0  0  0  0  0  0  0  0  0  0  0  0
    1.4219    0.4399   -0.9066 C   0  0  0  0  0  0  0  0  0  0  0  0
   -0.0612    1.8474    0.2621 O   0  0  0  0  0  0  0  0  0  0  0  0
   -5.2834   -2.6059    2.5876 H   0  0  0  0  0  0  0  0  0  0  0  0
   -4.9756   -2.7710    5.4754 H   0  0  0  0  0  0  0  0  0  0  0  0
   -6.2787   -3.4074    4.4832 H   0  0  0  0  0  0  0  0  0  0  0  0
   -3.5134   -4.3274    6.1589 H   0  0  0  0  0  0  0  0  0  0  0  0
   -0.5335   -1.1533   -0.4953 H   0  0  0  0  0  0  0  0  0  0  0  0
   -1.9827   -6.1035    5.5636 H   0  0  0  0  0  0  0  0  0  0  0  0
   -3.3295   -6.6590    6.5705 H   0  0  0  0  0  0  0  0  0  0  0  0
   -3.3543   -6.9607    4.8262 H   0  0  0  0  0  0  0  0  0  0  0  0
   -5.6840    3.6517   -0.2847 H   0  0  0  0  0  0  0  0  0  0  0  0
    1.2394    0.1581   -1.9450 H   0  0  0  0  0  0  0  0  0  0  0  0
    1.9368   -0.3781   -0.4017 H   0  0  0  0  0  0  0  0  0  0  0  0
    2.0686    1.3197   -0.8945 H   0  0  0  0  0  0  0  0  0  0  0  0
  1  2  1  0  0  0  0 
  1  3  2  0  0  0  0 
  1  4  1  0  0  0  0 
  2  5  1  0  0  0  0 
  4  6  2  0  0  0  0 
  4  7  1  0  0  0  0 
  5  8  1  0  0  0  0 
  6  9  1  0  0  0  0 
  6 10  1  0  0  0  0 
  7 11  1  0  0  0  0 
  7 12  2  0  0  0  0 
  8 13  1  0  0  0  0 
  8 14  2  0  0  0  0 
 10 15  1  0  0  0  0 
 10 16  2  0  0  0  0 
 12 16  1  0  0  0  0 
 12 17  1  0  0  0  0 
 13 18  1  0  0  0  0 
 15 19  1  0  0  0  0 
 16 20  1  0  0  0  0 
 17 21  1  0  0  0  0 
 17 22  2  0  0  0  0 
 19 23  1  0  0  0  0 
 19 24  2  0  0  0  0 
  2 25  1  0  0  0  0 
  5 26  1  0  0  0  0 
  5 27  1  0  0  0  0 
 13 28  1  0  0  0  0 
 15 29  1  0  0  0  0 
 18 30  1  0  0  0  0 
 18 31  1  0  0  0  0 
 18 32  1  0  0  0  0 
 21 33  1  0  0  0  0 
 23 34  1  0  0  0  0 
 23 35  1  0  0  0  0 
 23 36  1  0  0  0  0 
M  END
> <cdk:Title>
ioglicic acid

> <Conformer>
1

> <SuperDrugID>
SD003636

$$$$
