felbamate
  CDK     0628171801

 31 31  0  0  0  0  0  0  0  0999 V2000
   -3.0239   -8.1415    2.9591 C   0  0  1  0  0  0  0  0  0  0  0  0
   -3.8459   -8.0493    4.2763 C   0  0  2  0  0  0  0  0  0  0  0  0
   -2.3125   -6.7988    2.6078 C   0  0  1  0  0  0  0  0  0  0  0  0
   -2.0698   -9.3045    2.9937 C   0  0  0  0  0  0  0  0  0  0  0  0
   -4.6729   -9.2126    4.4240 O   0  0  0  0  0  0  0  0  0  0  0  0
   -1.4341   -7.0048    1.4941 O   0  0  0  0  0  0  0  0  0  0  0  0
   -0.9066   -9.2801    3.8043 C   0  0  0  0  0  0  0  0  0  0  0  0
   -2.2921  -10.4510    2.1894 C   0  0  0  0  0  0  0  0  0  0  0  0
   -5.5205   -9.4769    5.4584 C   0  0  0  0  0  0  0  0  0  0  0  0
   -0.5666   -6.1146    0.9525 C   0  0  0  0  0  0  0  0  0  0  0  0
    0.0237  -10.3360    3.7743 C   0  0  0  0  0  0  0  0  0  0  0  0
   -1.3656  -11.5111    2.1630 C   0  0  0  0  0  0  0  0  0  0  0  0
   -6.2479  -10.6047    5.4223 N   0  0  0  0  0  0  0  0  0  0  0  0
   -5.6360   -8.7056    6.4390 O   0  0  0  0  0  0  0  0  0  0  0  0
    0.2251   -6.5417   -0.0417 N   0  0  0  0  0  0  0  0  0  0  0  0
   -0.4804   -4.9315    1.3524 O   0  0  0  0  0  0  0  0  0  0  0  0
   -0.2012  -11.4490    2.9474 C   0  0  0  0  0  0  0  0  0  0  0  0
   -3.7541   -8.2980    2.1551 H   0  0  0  0  0  0  0  0  0  0  0  0
   -4.4926   -7.1692    4.2530 H   0  0  0  0  0  0  0  0  0  0  0  0
   -3.1788   -7.9626    5.1374 H   0  0  0  0  0  0  0  0  0  0  0  0
   -3.0503   -6.0329    2.3492 H   0  0  0  0  0  0  0  0  0  0  0  0
   -1.7345   -6.4392    3.4628 H   0  0  0  0  0  0  0  0  0  0  0  0
   -0.7178   -8.4832    4.4148 H   0  0  0  0  0  0  0  0  0  0  0  0
   -3.1317  -10.5230    1.6092 H   0  0  0  0  0  0  0  0  0  0  0  0
    0.8661  -10.2933    4.3524 H   0  0  0  0  0  0  0  0  0  0  0  0
   -1.5373  -12.3277    1.5715 H   0  0  0  0  0  0  0  0  0  0  0  0
   -6.8491  -10.8215    6.1497 H   0  0  0  0  0  0  0  0  0  0  0  0
   -6.1717  -11.2084    4.6665 H   0  0  0  0  0  0  0  0  0  0  0  0
    0.1632   -7.4622   -0.3459 H   0  0  0  0  0  0  0  0  0  0  0  0
    0.8608   -5.9369   -0.4547 H   0  0  0  0  0  0  0  0  0  0  0  0
    0.4783  -12.2116    2.9174 H   0  0  0  0  0  0  0  0  0  0  0  0
  1  2  1  0  0  0  0 
  1  3  1  0  0  0  0 
  1  4  1  0  0  0  0 
  2  5  1  0  0  0  0 
  3  6  1  0  0  0  0 
  4  7  2  0  0  0  0 
  4  8  1  0  0  0  0 
  5  9  1  0  0  0  0 
  6 10  1  0  0  0  0 
  7 11  1  0  0  0  0 
  8 12  2  0  0  0  0 
  9 13  1  0  0  0  0 
  9 14  2  0  0  0  0 
 10 15  1  0  0  0  0 
 10 16  2  0  0  0  0 
 11 17  2  0  0  0  0 
 12 17  1  0  0  0  0 
 18  1  1  0  0  0  0 
 19  2  1  0  0  0  0 
 20  2  1  0  0  0  0 
 21  3  1  0  0  0  0 
 22  3  1  0  0  0  0 
 23  7  1  0  0  0  0 
 24  8  1  0  0  0  0 
 25 11  1  0  0  0  0 
 26 12  1  0  0  0  0 
 27 13  1  0  0  0  0 
 28 13  1  0  0  0  0 
 29 15  1  0  0  0  0 
 30 15  1  0  0  0  0 
 31 17  1  0  0  0  0 
M  END
> <cdk:Title>
felbamate

> <Conformer>
1

> <SuperDrugID>
SD001017

$$$$
