pirifibrate
  CDK     0628171801

 41 42  0  0  0  0  0  0  0  0999 V2000
    4.9989    3.6135   -2.2370 O   0  0  0  0  0  0  0  0  0  0  0  0
    5.4317    2.2395   -2.4855 C   0  0  2  0  0  0  0  0  0  0  0  0
    5.3744    4.6418   -3.0754 C   0  0  0  0  0  0  0  0  0  0  0  0
    6.9058    2.0171   -2.3611 C   0  0  0  0  0  0  0  0  0  0  0  0
    4.9376    1.7004   -3.8650 C   0  0  0  0  0  0  0  0  0  0  0  0
    4.7329    1.4271   -1.3534 C   0  0  0  0  0  0  0  0  0  0  0  0
    4.7418    4.8682   -4.3187 C   0  0  0  0  0  0  0  0  0  0  0  0
    6.3595    5.5564   -2.6480 C   0  0  0  0  0  0  0  0  0  0  0  0
    7.7413    3.0205   -1.9796 O   0  0  0  0  0  0  0  0  0  0  0  0
    7.3881    0.8796   -2.5849 O   0  0  0  0  0  0  0  0  0  0  0  0
    5.1531    5.9210   -5.1561 C   0  0  0  0  0  0  0  0  0  0  0  0
    6.7659    6.6189   -3.4742 C   0  0  0  0  0  0  0  0  0  0  0  0
    9.1662    2.9569   -1.8800 C   0  0  1  0  0  0  0  0  0  0  0  0
    6.1762    6.7950   -4.7398 C   0  0  0  0  0  0  0  0  0  0  0  0
    9.6404    4.2760   -1.4262 C   0  0  0  0  0  0  0  0  0  0  0  0
    6.6823    8.0572   -5.7487 Cl  0  0  0  0  0  0  0  0  0  0  0  0
   10.0539    5.1845   -2.3490 N   0  0  0  0  0  0  0  0  0  0  0  0
    9.6478    4.6359   -0.0613 C   0  0  0  0  0  0  0  0  0  0  0  0
   10.4840    6.4376   -2.0383 C   0  0  0  0  0  0  0  0  0  0  0  0
   10.0908    5.9197    0.3046 C   0  0  0  0  0  0  0  0  0  0  0  0
   10.9170    7.3467   -3.1176 C   0  0  1  0  0  0  0  0  0  0  0  0
   10.5090    6.8279   -0.6823 C   0  0  0  0  0  0  0  0  0  0  0  0
   10.0974    8.5097   -3.1530 O   0  0  0  0  0  0  0  0  0  0  0  0
    5.4809    2.1786   -4.6816 H   0  0  0  0  0  0  0  0  0  0  0  0
    3.8707    1.8905   -3.9896 H   0  0  0  0  0  0  0  0  0  0  0  0
    5.0980    0.6235   -3.9462 H   0  0  0  0  0  0  0  0  0  0  0  0
    5.0734    1.7641   -0.3707 H   0  0  0  0  0  0  0  0  0  0  0  0
    3.6496    1.5610   -1.4005 H   0  0  0  0  0  0  0  0  0  0  0  0
    4.9449    0.3579   -1.4400 H   0  0  0  0  0  0  0  0  0  0  0  0
    3.9737    4.2676   -4.6239 H   0  0  0  0  0  0  0  0  0  0  0  0
    6.7853    5.4542   -1.7252 H   0  0  0  0  0  0  0  0  0  0  0  0
    4.7012    6.0458   -6.0662 H   0  0  0  0  0  0  0  0  0  0  0  0
    7.4882    7.2632   -3.1456 H   0  0  0  0  0  0  0  0  0  0  0  0
    9.4652    2.1734   -1.1776 H   0  0  0  0  0  0  0  0  0  0  0  0
    9.5843    2.7161   -2.8623 H   0  0  0  0  0  0  0  0  0  0  0  0
    9.3402    3.9785    0.6584 H   0  0  0  0  0  0  0  0  0  0  0  0
   10.1081    6.1916    1.2899 H   0  0  0  0  0  0  0  0  0  0  0  0
   11.9540    7.6427   -2.9491 H   0  0  0  0  0  0  0  0  0  0  0  0
   10.8512    6.8538   -4.0910 H   0  0  0  0  0  0  0  0  0  0  0  0
   10.8286    7.7606   -0.4135 H   0  0  0  0  0  0  0  0  0  0  0  0
   10.4205    9.0209   -3.9253 H   0  0  0  0  0  0  0  0  0  0  0  0
  1  2  1  0  0  0  0 
  1  3  1  0  0  0  0 
  2  4  1  0  0  0  0 
  2  5  1  0  0  0  0 
  2  6  1  0  0  0  0 
  3  7  2  0  0  0  0 
  3  8  1  0  0  0  0 
  4  9  1  0  0  0  0 
  4 10  2  0  0  0  0 
  7 11  1  0  0  0  0 
  8 12  2  0  0  0  0 
  9 13  1  0  0  0  0 
 11 14  2  0  0  0  0 
 12 14  1  0  0  0  0 
 13 15  1  0  0  0  0 
 14 16  1  0  0  0  0 
 15 17  2  0  0  0  0 
 15 18  1  0  0  0  0 
 17 19  1  0  0  0  0 
 18 20  2  0  0  0  0 
 19 21  1  0  0  0  0 
 19 22  2  0  0  0  0 
 20 22  1  0  0  0  0 
 21 23  1  0  0  0  0 
  5 24  1  0  0  0  0 
  5 25  1  0  0  0  0 
  5 26  1  0  0  0  0 
  6 27  1  0  0  0  0 
  6 28  1  0  0  0  0 
  6 29  1  0  0  0  0 
  7 30  1  0  0  0  0 
  8 31  1  0  0  0  0 
 11 32  1  0  0  0  0 
 12 33  1  0  0  0  0 
 13 34  1  0  0  0  0 
 13 35  1  0  0  0  0 
 18 36  1  0  0  0  0 
 20 37  1  0  0  0  0 
 21 38  1  0  0  0  0 
 21 39  1  0  0  0  0 
 22 40  1  0  0  0  0 
 23 41  1  0  0  0  0 
M  END
> <cdk:Title>
pirifibrate

> <Conformer>
1

> <SuperDrugID>
SD001978

$$$$
