propofol
  CDK     0628171801

 31 31  0  0  0  0  0  0  0  0999 V2000
   -0.9530    1.6274    1.9637 C   0  0  0  0  0  0  0  0  0  0  0  0
    0.5069    1.3660    2.4246 C   0  0  2  0  0  0  0  0  0  0  0  0
    0.9619    2.4095    3.4867 C   0  0  0  0  0  0  0  0  0  0  0  0
    1.4117    1.2163    1.2284 C   0  0  0  0  0  0  0  0  0  0  0  0
    2.0604    2.3401    0.6624 C   0  0  0  0  0  0  0  0  0  0  0  0
    2.8945    2.2130   -0.4561 C   0  0  0  0  0  0  0  0  0  0  0  0
    3.0772    0.9580   -1.0516 C   0  0  0  0  0  0  0  0  0  0  0  0
    2.4285   -0.1960   -0.5502 C   0  0  0  0  0  0  0  0  0  0  0  0
    2.6209   -1.5203   -1.2398 C   0  0  2  0  0  0  0  0  0  0  0  0
    4.0977   -1.9969   -1.1667 C   0  0  0  0  0  0  0  0  0  0  0  0
    2.0826   -1.4992   -2.6986 C   0  0  0  0  0  0  0  0  0  0  0  0
    1.6019   -0.0466    0.5993 C   0  0  0  0  0  0  0  0  0  0  0  0
    0.9607   -1.1330    1.1025 O   0  0  0  0  0  0  0  0  0  0  0  0
   -1.6163    1.6897    2.8301 H   0  0  0  0  0  0  0  0  0  0  0  0
   -1.0226    2.5617    1.4022 H   0  0  0  0  0  0  0  0  0  0  0  0
   -1.3049    0.8096    1.3290 H   0  0  0  0  0  0  0  0  0  0  0  0
    0.4968    0.4180    2.9723 H   0  0  0  0  0  0  0  0  0  0  0  0
    2.0069    2.2469    3.7560 H   0  0  0  0  0  0  0  0  0  0  0  0
    0.8463    3.4311    3.1233 H   0  0  0  0  0  0  0  0  0  0  0  0
    0.3602    2.3079    4.3922 H   0  0  0  0  0  0  0  0  0  0  0  0
    1.9336    3.2726    1.0544 H   0  0  0  0  0  0  0  0  0  0  0  0
    3.3673    3.0348   -0.8404 H   0  0  0  0  0  0  0  0  0  0  0  0
    3.6903    0.9005   -1.8659 H   0  0  0  0  0  0  0  0  0  0  0  0
    2.0430   -2.3007   -0.7367 H   0  0  0  0  0  0  0  0  0  0  0  0
    4.1948   -2.9919   -1.6057 H   0  0  0  0  0  0  0  0  0  0  0  0
    4.7637   -1.3194   -1.7037 H   0  0  0  0  0  0  0  0  0  0  0  0
    4.4226   -2.0520   -0.1249 H   0  0  0  0  0  0  0  0  0  0  0  0
    2.1694   -2.4908   -3.1477 H   0  0  0  0  0  0  0  0  0  0  0  0
    2.6365   -0.7946   -3.3211 H   0  0  0  0  0  0  0  0  0  0  0  0
    1.0273   -1.2154   -2.7081 H   0  0  0  0  0  0  0  0  0  0  0  0
    0.1190   -1.1788    0.6019 H   0  0  0  0  0  0  0  0  0  0  0  0
  1  2  1  0  0  0  0 
  2  3  1  0  0  0  0 
  2  4  1  0  0  0  0 
  4  5  2  0  0  0  0 
  5  6  1  0  0  0  0 
  6  7  2  0  0  0  0 
  7  8  1  0  0  0  0 
  8  9  1  0  0  0  0 
  9 10  1  0  0  0  0 
  9 11  1  0  0  0  0 
  8 12  2  0  0  0  0 
  4 12  1  0  0  0  0 
 12 13  1  0  0  0  0 
  1 14  1  0  0  0  0 
  1 15  1  0  0  0  0 
  1 16  1  0  0  0  0 
  2 17  1  0  0  0  0 
  3 18  1  0  0  0  0 
  3 19  1  0  0  0  0 
  3 20  1  0  0  0  0 
  5 21  1  0  0  0  0 
  6 22  1  0  0  0  0 
  7 23  1  0  0  0  0 
  9 24  1  0  0  0  0 
 10 25  1  0  0  0  0 
 10 26  1  0  0  0  0 
 10 27  1  0  0  0  0 
 11 28  1  0  0  0  0 
 11 29  1  0  0  0  0 
 11 30  1  0  0  0  0 
 13 31  1  0  0  0  0 
M  END
> <cdk:Title>
propofol

> <Conformer>
1

> <SuperDrugID>
SD002067

$$$$
