meprednisone
  CDK     0628171801

 55 58  0  0  0  0  0  0  0  0999 V2000
   -2.7898    1.9038   -0.6737 C   0  0  0  0  0  0  0  0  0  0  0  0
   -1.3400    2.4739   -0.3976 C   0  0  2  0  0  0  0  0  0  0  0  0
   -1.1583    3.9869   -0.7573 C   0  0  2  0  0  0  0  0  0  0  0  0
   -0.2959    1.8244   -1.3901 C   0  0  2  0  0  0  0  0  0  0  0  0
   -1.0564    2.3548    1.1441 C   0  0  2  0  0  0  0  0  0  0  0  0
   -2.1548    4.9143    0.0122 C   0  0  1  0  0  0  0  0  0  0  0  0
   -1.1656    4.0056   -2.2976 C   0  0  1  0  0  0  0  0  0  0  0  0
   -0.3756    0.3241   -1.4664 C   0  0  0  0  0  0  0  0  0  0  0  0
    1.0324    2.0835   -0.9035 O   0  0  0  0  0  0  0  0  0  0  0  0
   -0.4296    2.6958   -2.7147 C   0  0  2  0  0  0  0  0  0  0  0  0
   -1.9375    3.2767    1.9207 C   0  0  0  0  0  0  0  0  0  0  0  0
   -1.9957    4.7424    1.5769 C   0  0  2  0  0  0  0  0  0  0  0  0
   -1.9929    6.4116   -0.3751 C   0  0  1  0  0  0  0  0  0  0  0  0
    0.0645   -0.5774   -0.3764 C   0  0  1  0  0  0  0  0  0  0  0  0
   -0.8792   -0.2586   -2.4525 O   0  0  0  0  0  0  0  0  0  0  0  0
   -1.0869    2.0901   -3.9885 C   0  0  0  0  0  0  0  0  0  0  0  0
   -2.6406    2.7699    2.8245 O   0  0  0  0  0  0  0  0  0  0  0  0
   -3.0099    5.6765    2.3831 C   0  0  2  0  0  0  0  0  0  0  0  0
   -3.0068    7.2941    0.3900 C   0  0  2  0  0  0  0  0  0  0  0  0
   -1.0677   -1.1931    0.2255 O   0  0  0  0  0  0  0  0  0  0  0  0
   -4.5054    5.2127    2.2557 C   0  0  0  0  0  0  0  0  0  0  0  0
   -2.9050    7.0759    1.8391 C   0  0  0  0  0  0  0  0  0  0  0  0
   -2.7133    5.6325    3.8396 C   0  0  0  0  0  0  0  0  0  0  0  0
   -2.6929    8.1377    2.6502 C   0  0  0  0  0  0  0  0  0  0  0  0
   -2.5077    6.7295    4.5863 C   0  0  0  0  0  0  0  0  0  0  0  0
   -2.5326    7.9856    4.0144 C   0  0  0  0  0  0  0  0  0  0  0  0
   -2.3964    8.9974    4.7411 O   0  0  0  0  0  0  0  0  0  0  0  0
   -3.1636    4.6261   -0.2861 H   0  0  0  0  0  0  0  0  0  0  0  0
   -0.9918    5.1077    1.8260 H   0  0  0  0  0  0  0  0  0  0  0  0
   -0.1525    4.3168   -0.4597 H   0  0  0  0  0  0  0  0  0  0  0  0
   -3.5470    2.3714   -0.0453 H   0  0  0  0  0  0  0  0  0  0  0  0
   -3.1000    2.0495   -1.7059 H   0  0  0  0  0  0  0  0  0  0  0  0
   -2.8311    0.8338   -0.4654 H   0  0  0  0  0  0  0  0  0  0  0  0
   -0.0216    2.6186    1.3735 H   0  0  0  0  0  0  0  0  0  0  0  0
   -1.2042    1.3233    1.4734 H   0  0  0  0  0  0  0  0  0  0  0  0
   -2.1971    4.0295   -2.6570 H   0  0  0  0  0  0  0  0  0  0  0  0
   -0.6568    4.8923   -2.6870 H   0  0  0  0  0  0  0  0  0  0  0  0
    1.6433    1.6939   -1.5650 H   0  0  0  0  0  0  0  0  0  0  0  0
    0.5731    2.9882   -3.0455 H   0  0  0  0  0  0  0  0  0  0  0  0
   -0.9761    6.7485   -0.1521 H   0  0  0  0  0  0  0  0  0  0  0  0
   -2.1613    6.5428   -1.4466 H   0  0  0  0  0  0  0  0  0  0  0  0
    0.7164   -1.3541   -0.7832 H   0  0  0  0  0  0  0  0  0  0  0  0
    0.6164   -0.0455    0.3986 H   0  0  0  0  0  0  0  0  0  0  0  0
   -0.4654    1.2932   -4.3974 H   0  0  0  0  0  0  0  0  0  0  0  0
   -2.0793    1.6962   -3.7731 H   0  0  0  0  0  0  0  0  0  0  0  0
   -1.1848    2.8524   -4.7643 H   0  0  0  0  0  0  0  0  0  0  0  0
   -4.0201    7.0572    0.0589 H   0  0  0  0  0  0  0  0  0  0  0  0
   -2.8224    8.3339    0.1005 H   0  0  0  0  0  0  0  0  0  0  0  0
   -0.6939   -1.7705    0.9234 H   0  0  0  0  0  0  0  0  0  0  0  0
   -4.6672    4.2307    2.7006 H   0  0  0  0  0  0  0  0  0  0  0  0
   -4.8307    5.1505    1.2190 H   0  0  0  0  0  0  0  0  0  0  0  0
   -5.1720    5.9123    2.7667 H   0  0  0  0  0  0  0  0  0  0  0  0
   -2.6878    4.7593    4.3110 H   0  0  0  0  0  0  0  0  0  0  0  0
   -2.6406    9.0576    2.2768 H   0  0  0  0  0  0  0  0  0  0  0  0
   -2.3415    6.6374    5.5645 H   0  0  0  0  0  0  0  0  0  0  0  0
  2  1  1  0  0  0  0 
  3  2  1  0  0  0  0 
  2  4  1  0  0  0  0 
  2  5  1  0  0  0  0 
  6  3  1  0  0  0  0 
  3  7  1  0  0  0  0 
  3 30  1  0  0  0  0 
  4  8  1  0  0  0  0 
  4  9  1  0  0  0  0 
  4 10  1  0  0  0  0 
  5 11  1  0  0  0  0 
 12  6  1  0  0  0  0 
  6 13  1  0  0  0  0 
  6 28  1  0  0  0  0 
 10  7  1  0  0  0  0 
  8 14  1  0  0  0  0 
  8 15  2  0  0  0  0 
 10 16  1  0  0  0  0 
 12 11  1  0  0  0  0 
 11 17  2  0  0  0  0 
 12 18  1  0  0  0  0 
 12 29  1  0  0  0  0 
 13 19  1  0  0  0  0 
 14 20  1  0  0  0  0 
 18 21  1  0  0  0  0 
 18 22  1  0  0  0  0 
 18 23  1  0  0  0  0 
 19 22  1  0  0  0  0 
 22 24  2  0  0  0  0 
 23 25  2  0  0  0  0 
 24 26  1  0  0  0  0 
 25 26  1  0  0  0  0 
 26 27  2  0  0  0  0 
  1 31  1  0  0  0  0 
  1 32  1  0  0  0  0 
  1 33  1  0  0  0  0 
  5 34  1  0  0  0  0 
  5 35  1  0  0  0  0 
  7 36  1  0  0  0  0 
  7 37  1  0  0  0  0 
  9 38  1  0  0  0  0 
 10 39  1  0  0  0  0 
 13 40  1  0  0  0  0 
 13 41  1  0  0  0  0 
 14 42  1  0  0  0  0 
 14 43  1  0  0  0  0 
 16 44  1  0  0  0  0 
 16 45  1  0  0  0  0 
 16 46  1  0  0  0  0 
 19 47  1  0  0  0  0 
 19 48  1  0  0  0  0 
 20 49  1  0  0  0  0 
 21 50  1  0  0  0  0 
 21 51  1  0  0  0  0 
 21 52  1  0  0  0  0 
 23 53  1  0  0  0  0 
 24 54  1  0  0  0  0 
 25 55  1  0  0  0  0 
M  END
> <cdk:Title>
meprednisone

> <Conformer>
1

> <SuperDrugID>
SD001506

$$$$
