cisatracurium
  CDK     0628171802

139144  0  0  0  0  0  0  0  0999 V2000
    9.3782   -7.9608    8.4033 C   0  0  1  0  0  0  0  0  0  0  0  0
    8.9306   -6.7947    9.3703 C   0  0  2  0  0  0  0  0  0  0  0  0
   10.8325   -7.9830    8.0710 C   0  0  0  0  0  0  0  0  0  0  0  0
    9.7022   -6.9312   10.6554 C   0  0  0  0  0  0  0  0  0  0  0  0
    7.4163   -6.6502    9.6090 N   0  0  2  0  0  0  0  0  0  0  0  0
   11.3680   -7.1200    7.0851 C   0  0  0  0  0  0  0  0  0  0  0  0
   11.7097   -8.8550    8.7558 C   0  0  0  0  0  0  0  0  0  0  0  0
    9.1372   -7.6244   11.7578 C   0  0  0  0  0  0  0  0  0  0  0  0
   11.0079   -6.3903   10.7790 C   0  0  0  0  0  0  0  0  0  0  0  0
    6.5920   -6.5965    8.3141 C   0  0  2  0  0  0  0  0  0  0  0  0
    7.1192   -5.3786   10.3980 C   0  0  0  0  0  0  0  0  0  0  0  0
    6.9430   -7.8510   10.4189 C   0  0  1  0  0  0  0  0  0  0  0  0
   12.7490   -7.1154    6.7959 C   0  0  0  0  0  0  0  0  0  0  0  0
   13.0869   -8.8436    8.4841 C   0  0  0  0  0  0  0  0  0  0  0  0
    9.9032   -7.7967   12.9349 C   0  0  0  0  0  0  0  0  0  0  0  0
    7.7357   -8.1269   11.7350 C   0  0  1  0  0  0  0  0  0  0  0  0
   11.7657   -6.5684   11.9512 C   0  0  0  0  0  0  0  0  0  0  0  0
    6.9467   -5.5088    7.2478 C   0  0  2  0  0  0  0  0  0  0  0  0
   13.2423   -6.2976    5.8139 O   0  0  0  0  0  0  0  0  0  0  0  0
   13.6129   -7.9806    7.5028 C   0  0  0  0  0  0  0  0  0  0  0  0
   11.2020   -7.2631   13.0406 C   0  0  0  0  0  0  0  0  0  0  0  0
   13.0287   -6.0432   12.0511 O   0  0  0  0  0  0  0  0  0  0  0  0
    6.1920   -5.6459    5.9815 C   0  0  0  0  0  0  0  0  0  0  0  0
   13.5173   -4.9630    6.2692 C   0  0  0  0  0  0  0  0  0  0  0  0
   14.9622   -7.9536    7.2726 O   0  0  0  0  0  0  0  0  0  0  0  0
   11.9184   -7.4350   14.1943 O   0  0  0  0  0  0  0  0  0  0  0  0
   14.0556   -6.9350   11.5850 C   0  0  0  0  0  0  0  0  0  0  0  0
    6.8755   -5.8665    4.8207 O   0  0  0  0  0  0  0  0  0  0  0  0
    4.9451   -5.5233    5.9796 O   0  0  0  0  0  0  0  0  0  0  0  0
   15.4051   -8.9816    6.3713 C   0  0  0  0  0  0  0  0  0  0  0  0
   11.7978   -6.3189   15.0953 C   0  0  0  0  0  0  0  0  0  0  0  0
    6.3421   -5.9920    3.4960 C   0  0  1  0  0  0  0  0  0  0  0  0
    7.4967   -6.0806    2.4657 C   0  0  1  0  0  0  0  0  0  0  0  0
    8.4142   -4.8291    2.5249 C   0  0  2  0  0  0  0  0  0  0  0  0
    9.5020   -4.7429    1.4226 C   0  0  1  0  0  0  0  0  0  0  0  0
   10.3234   -3.4370    1.5664 C   0  0  1  0  0  0  0  0  0  0  0  0
   11.2913   -3.3197    0.5220 O   0  0  0  0  0  0  0  0  0  0  0  0
   12.1302   -2.2595    0.3268 C   0  0  0  0  0  0  0  0  0  0  0  0
   13.0531   -2.2797   -0.8216 C   0  0  1  0  0  0  0  0  0  0  0  0
   12.1080   -1.2613    1.0848 O   0  0  0  0  0  0  0  0  0  0  0  0
   14.5592   -2.2055   -0.4117 C   0  0  2  0  0  0  0  0  0  0  0  0
   15.6036   -2.4036   -1.5145 N   0  0  2  0  0  0  0  0  0  0  0  0
   15.4785   -1.2273   -2.4795 C   0  0  0  0  0  0  0  0  0  0  0  0
   15.4477   -3.7413   -2.2601 C   0  0  2  0  0  0  0  0  0  0  0  0
   16.9838   -2.3694   -0.8724 C   0  0  1  0  0  0  0  0  0  0  0  0
   15.3585   -5.0423   -1.3670 C   0  0  2  0  0  0  0  0  0  0  0  0
   16.5254   -3.9451   -3.2850 C   0  0  0  0  0  0  0  0  0  0  0  0
   18.1723   -2.6480   -1.8444 C   0  0  2  0  0  0  0  0  0  0  0  0
   15.0589   -6.3014   -2.1095 C   0  0  0  0  0  0  0  0  0  0  0  0
   17.8391   -3.4646   -3.0451 C   0  0  0  0  0  0  0  0  0  0  0  0
   16.2476   -4.6284   -4.4962 C   0  0  0  0  0  0  0  0  0  0  0  0
   13.7343   -6.6288   -2.4865 C   0  0  0  0  0  0  0  0  0  0  0  0
   16.1028   -7.1834   -2.4710 C   0  0  0  0  0  0  0  0  0  0  0  0
   18.8501   -3.7156   -4.0014 C   0  0  0  0  0  0  0  0  0  0  0  0
   17.2590   -4.8776   -5.4404 C   0  0  0  0  0  0  0  0  0  0  0  0
   13.4564   -7.8006   -3.2220 C   0  0  0  0  0  0  0  0  0  0  0  0
   15.8348   -8.3423   -3.2166 C   0  0  0  0  0  0  0  0  0  0  0  0
   18.5641   -4.4044   -5.1960 C   0  0  0  0  0  0  0  0  0  0  0  0
   16.9741   -5.5440   -6.6044 O   0  0  0  0  0  0  0  0  0  0  0  0
   12.1641   -8.1169   -3.5487 O   0  0  0  0  0  0  0  0  0  0  0  0
   14.5146   -8.6596   -3.5917 C   0  0  0  0  0  0  0  0  0  0  0  0
   19.5579   -4.6241   -6.1098 O   0  0  0  0  0  0  0  0  0  0  0  0
   17.1067   -6.9707   -6.4886 C   0  0  0  0  0  0  0  0  0  0  0  0
   11.7063   -7.4731   -4.7488 C   0  0  0  0  0  0  0  0  0  0  0  0
   14.2715   -9.7732   -4.3502 O   0  0  0  0  0  0  0  0  0  0  0  0
   19.5929   -3.6196   -7.1396 C   0  0  0  0  0  0  0  0  0  0  0  0
   14.1663  -10.9778   -3.5735 C   0  0  0  0  0  0  0  0  0  0  0  0
    9.0944   -8.9223    8.8399 H   0  0  0  0  0  0  0  0  0  0  0  0
    8.8494   -7.8980    7.4532 H   0  0  0  0  0  0  0  0  0  0  0  0
    9.2663   -5.8639    8.9020 H   0  0  0  0  0  0  0  0  0  0  0  0
   10.7537   -6.4837    6.5715 H   0  0  0  0  0  0  0  0  0  0  0  0
   11.3522   -9.4923    9.4709 H   0  0  0  0  0  0  0  0  0  0  0  0
   11.4273   -5.8753   10.0014 H   0  0  0  0  0  0  0  0  0  0  0  0
    5.5334   -6.4531    8.5630 H   0  0  0  0  0  0  0  0  0  0  0  0
    6.6310   -7.5666    7.8089 H   0  0  0  0  0  0  0  0  0  0  0  0
    6.0452   -5.2262   10.5408 H   0  0  0  0  0  0  0  0  0  0  0  0
    7.5593   -5.3830   11.3982 H   0  0  0  0  0  0  0  0  0  0  0  0
    7.5127   -4.4940    9.8944 H   0  0  0  0  0  0  0  0  0  0  0  0
    5.8827   -7.7512   10.6792 H   0  0  0  0  0  0  0  0  0  0  0  0
    7.0001   -8.7602    9.8129 H   0  0  0  0  0  0  0  0  0  0  0  0
   13.7091   -9.4657    9.0032 H   0  0  0  0  0  0  0  0  0  0  0  0
    9.5133   -8.3061   13.7329 H   0  0  0  0  0  0  0  0  0  0  0  0
    7.7418   -9.2025   11.9369 H   0  0  0  0  0  0  0  0  0  0  0  0
    7.1964   -7.6457   12.5571 H   0  0  0  0  0  0  0  0  0  0  0  0
    8.0076   -5.5601    7.0049 H   0  0  0  0  0  0  0  0  0  0  0  0
    6.7517   -4.5145    7.6540 H   0  0  0  0  0  0  0  0  0  0  0  0
   13.9117   -4.3947    5.4275 H   0  0  0  0  0  0  0  0  0  0  0  0
   12.6092   -4.4661    6.6178 H   0  0  0  0  0  0  0  0  0  0  0  0
   14.2661   -4.9602    7.0642 H   0  0  0  0  0  0  0  0  0  0  0  0
   15.0233   -6.5159   11.8603 H   0  0  0  0  0  0  0  0  0  0  0  0
   13.9784   -7.9289   12.0351 H   0  0  0  0  0  0  0  0  0  0  0  0
   14.0219   -7.0203   10.4995 H   0  0  0  0  0  0  0  0  0  0  0  0
   16.4831   -8.8813    6.2519 H   0  0  0  0  0  0  0  0  0  0  0  0
   15.1997   -9.9795    6.7664 H   0  0  0  0  0  0  0  0  0  0  0  0
   14.9406   -8.8747    5.3887 H   0  0  0  0  0  0  0  0  0  0  0  0
   12.4113   -6.5258   15.9717 H   0  0  0  0  0  0  0  0  0  0  0  0
   12.1589   -5.3910   14.6433 H   0  0  0  0  0  0  0  0  0  0  0  0
   10.7646   -6.1838   15.4254 H   0  0  0  0  0  0  0  0  0  0  0  0
    5.7169   -6.8861    3.4335 H   0  0  0  0  0  0  0  0  0  0  0  0
    5.7221   -5.1219    3.2657 H   0  0  0  0  0  0  0  0  0  0  0  0
    8.0871   -6.9799    2.6645 H   0  0  0  0  0  0  0  0  0  0  0  0
    7.0637   -6.1723    1.4660 H   0  0  0  0  0  0  0  0  0  0  0  0
    8.9143   -4.8128    3.4962 H   0  0  0  0  0  0  0  0  0  0  0  0
    7.7857   -3.9385    2.4513 H   0  0  0  0  0  0  0  0  0  0  0  0
   10.1745   -5.6017    1.4954 H   0  0  0  0  0  0  0  0  0  0  0  0
    9.0294   -4.7625    0.4366 H   0  0  0  0  0  0  0  0  0  0  0  0
    9.6525   -2.5752    1.5161 H   0  0  0  0  0  0  0  0  0  0  0  0
   10.8370   -3.4275    2.5318 H   0  0  0  0  0  0  0  0  0  0  0  0
   12.8586   -3.1943   -1.3798 H   0  0  0  0  0  0  0  0  0  0  0  0
   12.8032   -1.4387   -1.4705 H   0  0  0  0  0  0  0  0  0  0  0  0
   14.7208   -2.9314    0.3914 H   0  0  0  0  0  0  0  0  0  0  0  0
   14.7082   -1.2278    0.0629 H   0  0  0  0  0  0  0  0  0  0  0  0
   14.5371   -1.2594   -3.0304 H   0  0  0  0  0  0  0  0  0  0  0  0
   16.2696   -1.2029   -3.2320 H   0  0  0  0  0  0  0  0  0  0  0  0
   15.5232   -0.2652   -1.9602 H   0  0  0  0  0  0  0  0  0  0  0  0
   14.5064   -3.6868   -2.8151 H   0  0  0  0  0  0  0  0  0  0  0  0
   17.1640   -1.4036   -0.3856 H   0  0  0  0  0  0  0  0  0  0  0  0
   17.0445   -3.1073   -0.0667 H   0  0  0  0  0  0  0  0  0  0  0  0
   14.5770   -4.9417   -0.6150 H   0  0  0  0  0  0  0  0  0  0  0  0
   16.2925   -5.1658   -0.8120 H   0  0  0  0  0  0  0  0  0  0  0  0
   18.9842   -3.1357   -1.2964 H   0  0  0  0  0  0  0  0  0  0  0  0
   18.5503   -1.6816   -2.1932 H   0  0  0  0  0  0  0  0  0  0  0  0
   15.3027   -4.9680   -4.6919 H   0  0  0  0  0  0  0  0  0  0  0  0
   12.9600   -6.0115   -2.2303 H   0  0  0  0  0  0  0  0  0  0  0  0
   17.0689   -6.9770   -2.2083 H   0  0  0  0  0  0  0  0  0  0  0  0
   19.8051   -3.3848   -3.8383 H   0  0  0  0  0  0  0  0  0  0  0  0
   16.6042   -8.9570   -3.4880 H   0  0  0  0  0  0  0  0  0  0  0  0
   17.0379   -7.4020   -7.4869 H   0  0  0  0  0  0  0  0  0  0  0  0
   18.0691   -7.2643   -6.0597 H   0  0  0  0  0  0  0  0  0  0  0  0
   16.2964   -7.3814   -5.8872 H   0  0  0  0  0  0  0  0  0  0  0  0
   10.6804   -7.7914   -4.9315 H   0  0  0  0  0  0  0  0  0  0  0  0
   11.7102   -6.3860   -4.6436 H   0  0  0  0  0  0  0  0  0  0  0  0
   12.3119   -7.7611   -5.6109 H   0  0  0  0  0  0  0  0  0  0  0  0
   20.3933   -3.8775   -7.8320 H   0  0  0  0  0  0  0  0  0  0  0  0
   18.6571   -3.5839   -7.7044 H   0  0  0  0  0  0  0  0  0  0  0  0
   19.8042   -2.6307   -6.7245 H   0  0  0  0  0  0  0  0  0  0  0  0
   13.9761  -11.8030   -4.2585 H   0  0  0  0  0  0  0  0  0  0  0  0
   15.0925  -11.1918   -3.0347 H   0  0  0  0  0  0  0  0  0  0  0  0
   13.3362  -10.9221   -2.8660 H   0  0  0  0  0  0  0  0  0  0  0  0
  1  3  1  0  0  0  0 
  2  1  1  0  0  0  0 
  2  4  1  0  0  0  0 
  5  2  1  0  0  0  0 
  3  6  2  0  0  0  0 
  3  7  1  0  0  0  0 
  4  8  2  0  0  0  0 
  4  9  1  0  0  0  0 
  5 10  1  0  0  0  0 
  5 11  1  0  0  0  0 
  5 12  1  0  0  0  0 
  6 13  1  0  0  0  0 
  7 14  2  0  0  0  0 
  8 15  1  0  0  0  0 
  8 16  1  0  0  0  0 
  9 17  2  0  0  0  0 
 10 18  1  0  0  0  0 
 12 16  1  0  0  0  0 
 13 19  1  0  0  0  0 
 13 20  2  0  0  0  0 
 14 20  1  0  0  0  0 
 15 21  2  0  0  0  0 
 17 21  1  0  0  0  0 
 17 22  1  0  0  0  0 
 18 23  1  0  0  0  0 
 19 24  1  0  0  0  0 
 20 25  1  0  0  0  0 
 21 26  1  0  0  0  0 
 22 27  1  0  0  0  0 
 23 28  1  0  0  0  0 
 23 29  2  0  0  0  0 
 25 30  1  0  0  0  0 
 26 31  1  0  0  0  0 
 28 32  1  0  0  0  0 
 32 33  1  0  0  0  0 
 33 34  1  0  0  0  0 
 34 35  1  0  0  0  0 
 35 36  1  0  0  0  0 
 36 37  1  0  0  0  0 
 37 38  1  0  0  0  0 
 38 39  1  0  0  0  0 
 38 40  2  0  0  0  0 
 39 41  1  0  0  0  0 
 42 41  1  0  0  0  0 
 42 43  1  0  0  0  0 
 44 42  1  0  0  0  0 
 42 45  1  0  0  0  0 
 44 46  1  0  0  0  0 
 44 47  1  0  0  0  0 
 45 48  1  0  0  0  0 
 46 49  1  0  0  0  0 
 47 50  2  0  0  0  0 
 47 51  1  0  0  0  0 
 48 50  1  0  0  0  0 
 49 52  2  0  0  0  0 
 49 53  1  0  0  0  0 
 50 54  1  0  0  0  0 
 51 55  2  0  0  0  0 
 52 56  1  0  0  0  0 
 53 57  2  0  0  0  0 
 54 58  2  0  0  0  0 
 55 58  1  0  0  0  0 
 55 59  1  0  0  0  0 
 56 60  1  0  0  0  0 
 56 61  2  0  0  0  0 
 57 61  1  0  0  0  0 
 58 62  1  0  0  0  0 
 59 63  1  0  0  0  0 
 60 64  1  0  0  0  0 
 61 65  1  0  0  0  0 
 62 66  1  0  0  0  0 
 65 67  1  0  0  0  0 
  1 68  1  0  0  0  0 
  1 69  1  0  0  0  0 
  2 70  1  0  0  0  0 
  6 71  1  0  0  0  0 
  7 72  1  0  0  0  0 
  9 73  1  0  0  0  0 
 10 74  1  0  0  0  0 
 10 75  1  0  0  0  0 
 11 76  1  0  0  0  0 
 11 77  1  0  0  0  0 
 11 78  1  0  0  0  0 
 12 79  1  0  0  0  0 
 12 80  1  0  0  0  0 
 14 81  1  0  0  0  0 
 15 82  1  0  0  0  0 
 16 83  1  0  0  0  0 
 16 84  1  0  0  0  0 
 18 85  1  0  0  0  0 
 18 86  1  0  0  0  0 
 24 87  1  0  0  0  0 
 24 88  1  0  0  0  0 
 24 89  1  0  0  0  0 
 27 90  1  0  0  0  0 
 27 91  1  0  0  0  0 
 27 92  1  0  0  0  0 
 30 93  1  0  0  0  0 
 30 94  1  0  0  0  0 
 30 95  1  0  0  0  0 
 31 96  1  0  0  0  0 
 31 97  1  0  0  0  0 
 31 98  1  0  0  0  0 
 32 99  1  0  0  0  0 
 32100  1  0  0  0  0 
 33101  1  0  0  0  0 
 33102  1  0  0  0  0 
 34103  1  0  0  0  0 
 34104  1  0  0  0  0 
 35105  1  0  0  0  0 
 35106  1  0  0  0  0 
 36107  1  0  0  0  0 
 36108  1  0  0  0  0 
 39109  1  0  0  0  0 
 39110  1  0  0  0  0 
 41111  1  0  0  0  0 
 41112  1  0  0  0  0 
 43113  1  0  0  0  0 
 43114  1  0  0  0  0 
 43115  1  0  0  0  0 
 44116  1  0  0  0  0 
 45117  1  0  0  0  0 
 45118  1  0  0  0  0 
 46119  1  0  0  0  0 
 46120  1  0  0  0  0 
 48121  1  0  0  0  0 
 48122  1  0  0  0  0 
 51123  1  0  0  0  0 
 52124  1  0  0  0  0 
 53125  1  0  0  0  0 
 54126  1  0  0  0  0 
 57127  1  0  0  0  0 
 63128  1  0  0  0  0 
 63129  1  0  0  0  0 
 63130  1  0  0  0  0 
 64131  1  0  0  0  0 
 64132  1  0  0  0  0 
 64133  1  0  0  0  0 
 66134  1  0  0  0  0 
 66135  1  0  0  0  0 
 66136  1  0  0  0  0 
 67137  1  0  0  0  0 
 67138  1  0  0  0  0 
 67139  1  0  0  0  0 
M  CHG  1   5   1
M  CHG  1  42   1
M  END
> <cdk:Title>
cisatracurium

> <Conformer>
1

> <SuperDrugID>
SD000581

$$$$
