oxyclipine
  CDK     0628171801

 53 55  0  0  0  0  0  0  0  0999 V2000
   -1.9679   -1.4234   -0.5254 C   0  0  2  0  0  0  0  0  0  0  0  0
   -1.1353   -1.8992   -1.6739 C   0  0  0  0  0  0  0  0  0  0  0  0
   -2.8956   -0.4563   -1.0490 O   0  0  0  0  0  0  0  0  0  0  0  0
   -1.0546   -0.6443    0.5112 C   0  0  2  0  0  0  0  0  0  0  0  0
   -2.7042   -2.6049    0.0721 C   0  0  0  0  0  0  0  0  0  0  0  0
    0.0352   -2.5567   -1.4077 O   0  0  0  0  0  0  0  0  0  0  0  0
   -1.4776   -1.6852   -2.8619 O   0  0  0  0  0  0  0  0  0  0  0  0
   -1.7880   -0.2676    1.8407 C   0  0  1  0  0  0  0  0  0  0  0  0
   -0.4006    0.6487   -0.0928 C   0  0  2  0  0  0  0  0  0  0  0  0
   -4.1239   -2.6919    0.0616 C   0  0  0  0  0  0  0  0  0  0  0  0
   -2.0000   -3.6774    0.6833 C   0  0  0  0  0  0  0  0  0  0  0  0
    1.1606   -2.8030   -2.2664 C   0  0  1  0  0  0  0  0  0  0  0  0
   -0.8429    0.4355    2.8520 C   0  0  2  0  0  0  0  0  0  0  0  0
    0.5574    1.3552    0.9014 C   0  0  2  0  0  0  0  0  0  0  0  0
   -4.8017   -3.7772    0.6473 C   0  0  0  0  0  0  0  0  0  0  0  0
   -2.6744   -4.7699    1.2607 C   0  0  0  0  0  0  0  0  0  0  0  0
    2.4260   -2.2675   -1.5346 C   0  0  1  0  0  0  0  0  0  0  0  0
    1.2977   -4.3200   -2.5630 C   0  0  1  0  0  0  0  0  0  0  0  0
   -0.1402    1.6791    2.2479 C   0  0  2  0  0  0  0  0  0  0  0  0
   -4.0770   -4.8171    1.2498 C   0  0  0  0  0  0  0  0  0  0  0  0
    3.7127   -2.6147   -2.2143 N   0  0  2  0  0  0  0  0  0  0  0  0
    2.6501   -4.6668   -3.2435 C   0  0  2  0  0  0  0  0  0  0  0  0
    4.0536   -1.7533   -3.3823 C   0  0  0  0  0  0  0  0  0  0  0  0
    3.8504   -4.0841   -2.4504 C   0  0  2  0  0  0  0  0  0  0  0  0
   -3.4171   -0.1432   -0.2803 H   0  0  0  0  0  0  0  0  0  0  0  0
   -0.2305   -1.3101    0.7941 H   0  0  0  0  0  0  0  0  0  0  0  0
   -2.6388    0.3858    1.6251 H   0  0  0  0  0  0  0  0  0  0  0  0
   -2.1724   -1.1694    2.3264 H   0  0  0  0  0  0  0  0  0  0  0  0
   -1.1801    1.3584   -0.3861 H   0  0  0  0  0  0  0  0  0  0  0  0
    0.1693    0.3989   -0.9899 H   0  0  0  0  0  0  0  0  0  0  0  0
   -4.6916   -1.9624   -0.3734 H   0  0  0  0  0  0  0  0  0  0  0  0
   -0.9796   -3.6753    0.7183 H   0  0  0  0  0  0  0  0  0  0  0  0
    1.0423   -2.2679   -3.2128 H   0  0  0  0  0  0  0  0  0  0  0  0
   -0.0826   -0.2775    3.1859 H   0  0  0  0  0  0  0  0  0  0  0  0
   -1.4221    0.7394    3.7270 H   0  0  0  0  0  0  0  0  0  0  0  0
    0.9181    2.2839    0.4518 H   0  0  0  0  0  0  0  0  0  0  0  0
    1.4257    0.7172    1.0846 H   0  0  0  0  0  0  0  0  0  0  0  0
   -5.8237   -3.8110    0.6355 H   0  0  0  0  0  0  0  0  0  0  0  0
   -2.1438   -5.5301    1.6923 H   0  0  0  0  0  0  0  0  0  0  0  0
    2.3419   -1.1861   -1.4072 H   0  0  0  0  0  0  0  0  0  0  0  0
    2.4583   -2.6962   -0.5279 H   0  0  0  0  0  0  0  0  0  0  0  0
    1.2121   -4.8844   -1.6303 H   0  0  0  0  0  0  0  0  0  0  0  0
    0.4798   -4.6324   -3.2174 H   0  0  0  0  0  0  0  0  0  0  0  0
    0.6061    2.0474    2.9586 H   0  0  0  0  0  0  0  0  0  0  0  0
   -0.8772    2.4737    2.0965 H   0  0  0  0  0  0  0  0  0  0  0  0
   -4.5687   -5.6083    1.6715 H   0  0  0  0  0  0  0  0  0  0  0  0
    2.6609   -4.2592   -4.2579 H   0  0  0  0  0  0  0  0  0  0  0  0
    2.7562   -5.7521   -3.3175 H   0  0  0  0  0  0  0  0  0  0  0  0
    4.1093   -0.7099   -3.0694 H   0  0  0  0  0  0  0  0  0  0  0  0
    5.0291   -2.0238   -3.7876 H   0  0  0  0  0  0  0  0  0  0  0  0
    3.3138   -1.8409   -4.1784 H   0  0  0  0  0  0  0  0  0  0  0  0
    3.9186   -4.5855   -1.4810 H   0  0  0  0  0  0  0  0  0  0  0  0
    4.7824   -4.3072   -2.9781 H   0  0  0  0  0  0  0  0  0  0  0  0
  1  2  1  0  0  0  0 
  1  3  1  0  0  0  0 
  1  4  1  0  0  0  0 
  1  5  1  0  0  0  0 
  2  6  1  0  0  0  0 
  2  7  2  0  0  0  0 
  4  8  1  0  0  0  0 
  4  9  1  0  0  0  0 
  5 10  2  0  0  0  0 
  5 11  1  0  0  0  0 
 12  6  1  0  0  0  0 
  8 13  1  0  0  0  0 
  9 14  1  0  0  0  0 
 10 15  1  0  0  0  0 
 11 16  2  0  0  0  0 
 12 17  1  0  0  0  0 
 12 18  1  0  0  0  0 
 13 19  1  0  0  0  0 
 14 19  1  0  0  0  0 
 15 20  2  0  0  0  0 
 16 20  1  0  0  0  0 
 17 21  1  0  0  0  0 
 18 22  1  0  0  0  0 
 21 23  1  0  0  0  0 
 21 24  1  0  0  0  0 
 22 24  1  0  0  0  0 
  3 25  1  0  0  0  0 
  4 26  1  0  0  0  0 
  8 27  1  0  0  0  0 
  8 28  1  0  0  0  0 
  9 29  1  0  0  0  0 
  9 30  1  0  0  0  0 
 10 31  1  0  0  0  0 
 11 32  1  0  0  0  0 
 12 33  1  0  0  0  0 
 13 34  1  0  0  0  0 
 13 35  1  0  0  0  0 
 14 36  1  0  0  0  0 
 14 37  1  0  0  0  0 
 15 38  1  0  0  0  0 
 16 39  1  0  0  0  0 
 17 40  1  0  0  0  0 
 17 41  1  0  0  0  0 
 18 42  1  0  0  0  0 
 18 43  1  0  0  0  0 
 19 44  1  0  0  0  0 
 19 45  1  0  0  0  0 
 20 46  1  0  0  0  0 
 22 47  1  0  0  0  0 
 22 48  1  0  0  0  0 
 23 49  1  0  0  0  0 
 23 50  1  0  0  0  0 
 23 51  1  0  0  0  0 
 24 52  1  0  0  0  0 
 24 53  1  0  0  0  0 
M  END
> <cdk:Title>
oxyclipine

> <Conformer>
1

> <SuperDrugID>
SD003260

$$$$
