procodazole
  CDK     0628171801

 24 25  0  0  0  0  0  0  0  0999 V2000
   -0.9780   -1.9889    0.0152 C   0  0  1  0  0  0  0  0  0  0  0  0
   -0.4992   -0.9059    1.0156 C   0  0  2  0  0  0  0  0  0  0  0  0
   -1.8734   -2.9574    0.6741 C   0  0  0  0  0  0  0  0  0  0  0  0
    0.3922    0.0851    0.3842 C   0  0  0  0  0  0  0  0  0  0  0  0
   -3.2173   -2.8382    0.7535 N   0  0  0  0  0  0  0  0  0  0  0  0
   -1.4671   -4.0759    1.3036 N   0  0  0  0  0  0  0  0  0  0  0  0
    0.0365    1.3889    0.3086 O   0  0  0  0  0  0  0  0  0  0  0  0
    1.4974   -0.2605   -0.0929 O   0  0  0  0  0  0  0  0  0  0  0  0
   -3.6460   -3.9013    1.4510 C   0  0  0  0  0  0  0  0  0  0  0  0
   -2.5496   -4.6856    1.7967 C   0  0  0  0  0  0  0  0  0  0  0  0
   -4.9465   -4.2715    1.8356 C   0  0  0  0  0  0  0  0  0  0  0  0
   -2.6978   -5.8724    2.5339 C   0  0  0  0  0  0  0  0  0  0  0  0
   -5.1172   -5.4654    2.5707 C   0  0  0  0  0  0  0  0  0  0  0  0
   -4.0001   -6.2611    2.9168 C   0  0  0  0  0  0  0  0  0  0  0  0
   -1.5092   -1.5174   -0.8158 H   0  0  0  0  0  0  0  0  0  0  0  0
   -0.1192   -2.5279   -0.3938 H   0  0  0  0  0  0  0  0  0  0  0  0
    0.0393   -1.3763    1.8433 H   0  0  0  0  0  0  0  0  0  0  0  0
   -1.3707   -0.3894    1.4293 H   0  0  0  0  0  0  0  0  0  0  0  0
   -0.5496   -4.3793    1.3873 H   0  0  0  0  0  0  0  0  0  0  0  0
    0.6287    2.0344   -0.1327 H   0  0  0  0  0  0  0  0  0  0  0  0
   -5.7484   -3.6904    1.5878 H   0  0  0  0  0  0  0  0  0  0  0  0
   -1.8866   -6.4410    2.7839 H   0  0  0  0  0  0  0  0  0  0  0  0
   -6.0546   -5.7546    2.8552 H   0  0  0  0  0  0  0  0  0  0  0  0
   -4.1380   -7.1231    3.4475 H   0  0  0  0  0  0  0  0  0  0  0  0
  1  2  1  0  0  0  0 
  1  3  1  0  0  0  0 
  2  4  1  0  0  0  0 
  3  5  2  0  0  0  0 
  3  6  1  0  0  0  0 
  4  7  1  0  0  0  0 
  4  8  2  0  0  0  0 
  5  9  1  0  0  0  0 
  6 10  1  0  0  0  0 
  9 10  1  0  0  0  0 
  9 11  2  0  0  0  0 
 10 12  2  0  0  0  0 
 11 13  1  0  0  0  0 
 12 14  1  0  0  0  0 
 13 14  2  0  0  0  0 
  1 15  1  0  0  0  0 
  1 16  1  0  0  0  0 
  2 17  1  0  0  0  0 
  2 18  1  0  0  0  0 
  6 19  1  0  0  0  0 
  7 20  1  0  0  0  0 
 11 21  1  0  0  0  0 
 12 22  1  0  0  0  0 
 13 23  1  0  0  0  0 
 14 24  1  0  0  0  0 
M  END
> <cdk:Title>
procodazole

> <Conformer>
1

> <SuperDrugID>
SD002041

$$$$
