haloprogin
  CDK     0628171801

 18 18  0  0  0  0  0  0  0  0999 V2000
   -3.1103    0.5225   -0.8071 O   0  0  0  0  0  0  0  0  0  0  0  0
   -2.3152    1.0604    0.2665 C   0  0  1  0  0  0  0  0  0  0  0  0
   -4.3878    1.0200   -0.8397 C   0  0  0  0  0  0  0  0  0  0  0  0
   -1.0383    0.5936    0.1448 C   0  0  0  0  0  0  0  0  0  0  0  0
   -4.7296    2.0643   -1.7267 C   0  0  0  0  0  0  0  0  0  0  0  0
   -5.3827    0.4624   -0.0102 C   0  0  0  0  0  0  0  0  0  0  0  0
    0.0817    0.1909    0.0425 C   0  0  0  0  0  0  0  0  0  0  0  0
   -3.5690    2.7404   -2.7620 Cl  0  0  0  0  0  0  0  0  0  0  0  0
   -6.0498    2.5552   -1.7600 C   0  0  0  0  0  0  0  0  0  0  0  0
   -6.7067    0.9472   -0.0466 C   0  0  0  0  0  0  0  0  0  0  0  0
    1.9181   -0.4496   -0.1306 I   0  0  0  0  0  0  0  0  0  0  0  0
   -7.0430    2.0013   -0.9275 C   0  0  0  0  0  0  0  0  0  0  0  0
   -7.8580    0.2331    0.9744 Cl  0  0  0  0  0  0  0  0  0  0  0  0
   -8.6200    2.6213   -1.0274 Cl  0  0  0  0  0  0  0  0  0  0  0  0
   -2.2746    2.1531    0.2306 H   0  0  0  0  0  0  0  0  0  0  0  0
   -2.7046    0.7444    1.2377 H   0  0  0  0  0  0  0  0  0  0  0  0
   -5.1326   -0.3011    0.6242 H   0  0  0  0  0  0  0  0  0  0  0  0
   -6.2873    3.3153   -2.4017 H   0  0  0  0  0  0  0  0  0  0  0  0
  1  2  1  0  0  0  0 
  1  3  1  0  0  0  0 
  2  4  1  0  0  0  0 
  3  5  2  0  0  0  0 
  3  6  1  0  0  0  0 
  4  7  3  0  0  0  0 
  5  8  1  0  0  0  0 
  5  9  1  0  0  0  0 
  6 10  2  0  0  0  0 
  7 11  1  0  0  0  0 
  9 12  2  0  0  0  0 
 10 12  1  0  0  0  0 
 10 13  1  0  0  0  0 
 12 14  1  0  0  0  0 
  2 15  1  0  0  0  0 
  2 16  1  0  0  0  0 
  6 17  1  0  0  0  0 
  9 18  1  0  0  0  0 
M  END
> <cdk:Title>
haloprogin

> <Conformer>
1

> <SuperDrugID>
SD001202

$$$$
