loxiglumide
  CDK     0628171801

 60 60  0  0  0  0  0  0  0  0999 V2000
    0.9366   -2.0043    0.5533 C   0  0  2  0  0  0  0  0  0  0  0  0
   -0.1742   -2.4780   -0.3396 C   0  0  0  0  0  0  0  0  0  0  0  0
    1.2659   -0.6201    0.3972 N   0  0  0  0  0  0  0  0  0  0  0  0
    2.1987   -2.9048    0.3743 C   0  0  2  0  0  0  0  0  0  0  0  0
   -0.2800   -2.3358   -1.7302 N   0  0  0  0  0  0  0  0  0  0  0  0
   -1.0793   -3.1031    0.2673 O   0  0  0  0  0  0  0  0  0  0  0  0
    0.5239    0.4522    0.8006 C   0  0  0  0  0  0  0  0  0  0  0  0
    3.3637   -2.5855    1.3537 C   0  0  1  0  0  0  0  0  0  0  0  0
    0.5223   -1.3955   -2.4976 C   0  0  2  0  0  0  0  0  0  0  0  0
   -1.2629   -3.1216   -2.4693 C   0  0  2  0  0  0  0  0  0  0  0  0
   -0.5957    0.2480    1.3313 O   0  0  0  0  0  0  0  0  0  0  0  0
    1.0046    1.7846    0.6098 C   0  0  0  0  0  0  0  0  0  0  0  0
    4.4924   -3.5217    1.1838 C   0  0  0  0  0  0  0  0  0  0  0  0
   -0.2344   -0.0460   -2.6730 C   0  0  2  0  0  0  0  0  0  0  0  0
   -0.9633   -4.6474   -2.4902 C   0  0  1  0  0  0  0  0  0  0  0  0
    2.3552    2.0429    0.2565 C   0  0  0  0  0  0  0  0  0  0  0  0
    0.1468    2.9010    0.7733 C   0  0  0  0  0  0  0  0  0  0  0  0
    5.2206   -3.5203    0.0434 O   0  0  0  0  0  0  0  0  0  0  0  0
    4.7924   -4.3395    2.0828 O   0  0  0  0  0  0  0  0  0  0  0  0
    0.6643    1.1079   -3.1898 C   0  0  1  0  0  0  0  0  0  0  0  0
    0.4699   -5.0207   -2.9370 C   0  0  1  0  0  0  0  0  0  0  0  0
    2.8370    3.3558    0.0792 C   0  0  0  0  0  0  0  0  0  0  0  0
    0.6152    4.2142    0.5914 C   0  0  0  0  0  0  0  0  0  0  0  0
   -0.1016    2.4537   -3.2978 C   0  0  1  0  0  0  0  0  0  0  0  0
    0.5685   -6.4571   -3.0194 O   0  0  0  0  0  0  0  0  0  0  0  0
    4.4732    3.5634   -0.3228 Cl  0  0  0  0  0  0  0  0  0  0  0  0
    1.9587    4.4509    0.2441 C   0  0  0  0  0  0  0  0  0  0  0  0
    0.8272    3.6262   -3.6814 C   0  0  0  0  0  0  0  0  0  0  0  0
    1.9103   -6.9530   -3.1553 C   0  0  0  0  0  0  0  0  0  0  0  0
    2.4660    6.0563    0.0337 Cl  0  0  0  0  0  0  0  0  0  0  0  0
    0.6356   -2.1379    1.6011 H   0  0  0  0  0  0  0  0  0  0  0  0
    2.1043   -0.4350   -0.0507 H   0  0  0  0  0  0  0  0  0  0  0  0
    2.5676   -2.8345   -0.6508 H   0  0  0  0  0  0  0  0  0  0  0  0
    1.9017   -3.9448    0.5447 H   0  0  0  0  0  0  0  0  0  0  0  0
    3.7318   -1.5710    1.1866 H   0  0  0  0  0  0  0  0  0  0  0  0
    2.9943   -2.6414    2.3825 H   0  0  0  0  0  0  0  0  0  0  0  0
    0.7510   -1.7972   -3.4908 H   0  0  0  0  0  0  0  0  0  0  0  0
    1.4941   -1.2185   -2.0418 H   0  0  0  0  0  0  0  0  0  0  0  0
   -1.3489   -2.7961   -3.5118 H   0  0  0  0  0  0  0  0  0  0  0  0
   -2.2528   -2.9702   -2.0310 H   0  0  0  0  0  0  0  0  0  0  0  0
   -0.6644    0.2541   -1.7154 H   0  0  0  0  0  0  0  0  0  0  0  0
   -1.0649   -0.1893   -3.3701 H   0  0  0  0  0  0  0  0  0  0  0  0
   -1.1314   -5.0678   -1.4959 H   0  0  0  0  0  0  0  0  0  0  0  0
   -1.6732   -5.1282   -3.1675 H   0  0  0  0  0  0  0  0  0  0  0  0
    3.0132    1.2690    0.1279 H   0  0  0  0  0  0  0  0  0  0  0  0
   -0.8352    2.7702    1.0285 H   0  0  0  0  0  0  0  0  0  0  0  0
    5.9729   -4.1421   -0.0569 H   0  0  0  0  0  0  0  0  0  0  0  0
    1.5067    1.2338   -2.5065 H   0  0  0  0  0  0  0  0  0  0  0  0
    1.0626    0.8448   -4.1717 H   0  0  0  0  0  0  0  0  0  0  0  0
    0.6776   -4.5826   -3.9177 H   0  0  0  0  0  0  0  0  0  0  0  0
    1.1842   -4.6233   -2.2087 H   0  0  0  0  0  0  0  0  0  0  0  0
   -0.0320    4.9986    0.7143 H   0  0  0  0  0  0  0  0  0  0  0  0
   -0.8922    2.3652   -4.0494 H   0  0  0  0  0  0  0  0  0  0  0  0
   -0.5716    2.6868   -2.3390 H   0  0  0  0  0  0  0  0  0  0  0  0
    0.2536    4.5542   -3.7272 H   0  0  0  0  0  0  0  0  0  0  0  0
    1.6181    3.7418   -2.9373 H   0  0  0  0  0  0  0  0  0  0  0  0
    1.2790    3.4420   -4.6577 H   0  0  0  0  0  0  0  0  0  0  0  0
    1.8636   -8.0265   -3.3446 H   0  0  0  0  0  0  0  0  0  0  0  0
    2.4682   -6.7914   -2.2301 H   0  0  0  0  0  0  0  0  0  0  0  0
    2.4333   -6.4763   -3.9882 H   0  0  0  0  0  0  0  0  0  0  0  0
  1  2  1  0  0  0  0 
  1  3  1  0  0  0  0 
  1  4  1  0  0  0  0 
  2  5  1  0  0  0  0 
  2  6  2  0  0  0  0 
  3  7  1  0  0  0  0 
  4  8  1  0  0  0  0 
  5  9  1  0  0  0  0 
  5 10  1  0  0  0  0 
  7 11  2  0  0  0  0 
  7 12  1  0  0  0  0 
  8 13  1  0  0  0  0 
  9 14  1  0  0  0  0 
 10 15  1  0  0  0  0 
 12 16  2  0  0  0  0 
 12 17  1  0  0  0  0 
 13 18  1  0  0  0  0 
 13 19  2  0  0  0  0 
 14 20  1  0  0  0  0 
 15 21  1  0  0  0  0 
 16 22  1  0  0  0  0 
 17 23  2  0  0  0  0 
 20 24  1  0  0  0  0 
 21 25  1  0  0  0  0 
 22 26  1  0  0  0  0 
 22 27  2  0  0  0  0 
 23 27  1  0  0  0  0 
 24 28  1  0  0  0  0 
 25 29  1  0  0  0  0 
 27 30  1  0  0  0  0 
  1 31  1  0  0  0  0 
  3 32  1  0  0  0  0 
  4 33  1  0  0  0  0 
  4 34  1  0  0  0  0 
  8 35  1  0  0  0  0 
  8 36  1  0  0  0  0 
  9 37  1  0  0  0  0 
  9 38  1  0  0  0  0 
 10 39  1  0  0  0  0 
 10 40  1  0  0  0  0 
 14 41  1  0  0  0  0 
 14 42  1  0  0  0  0 
 15 43  1  0  0  0  0 
 15 44  1  0  0  0  0 
 16 45  1  0  0  0  0 
 17 46  1  0  0  0  0 
 18 47  1  0  0  0  0 
 20 48  1  0  0  0  0 
 20 49  1  0  0  0  0 
 21 50  1  0  0  0  0 
 21 51  1  0  0  0  0 
 23 52  1  0  0  0  0 
 24 53  1  0  0  0  0 
 24 54  1  0  0  0  0 
 28 55  1  0  0  0  0 
 28 56  1  0  0  0  0 
 28 57  1  0  0  0  0 
 29 58  1  0  0  0  0 
 29 59  1  0  0  0  0 
 29 60  1  0  0  0  0 
M  END
> <cdk:Title>
loxiglumide

> <Conformer>
1

> <SuperDrugID>
SD001428

$$$$
