ceftibuten
  CDK     0628171802

 41 43  0  0  0  0  0  0  0  0999 V2000
    3.6776   -0.2123    2.4065 O   0  0  0  0  0  0  0  0  0  0  0  0
    4.3550   -0.6930    1.4697 C   0  0  0  0  0  0  0  0  0  0  0  0
    5.6099   -1.1590    1.3759 N   0  0  0  0  0  0  0  0  0  0  0  0
    4.0570   -0.8664    0.0491 C   0  0  2  0  0  0  0  0  0  0  0  0
    5.4931   -1.4644   -0.0089 C   0  0  1  0  0  0  0  0  0  0  0  0
    6.6829   -1.2300    2.1956 C   0  0  0  0  0  0  0  0  0  0  0  0
    3.8714    0.3915   -0.5996 N   0  0  0  0  0  0  0  0  0  0  0  0
    6.8573   -0.5775   -0.8289 S   0  0  0  0  0  0  0  0  0  0  0  0
    6.5211   -1.2843    3.5825 C   0  0  0  0  0  0  0  0  0  0  0  0
    7.9222   -1.2361    1.6488 C   0  0  0  0  0  0  0  0  0  0  0  0
    2.8044    0.7566   -1.3630 C   0  0  0  0  0  0  0  0  0  0  0  0
    8.2408   -1.1523    0.2239 C   0  0  1  0  0  0  0  0  0  0  0  0
    7.5309   -0.9925    4.4404 O   0  0  0  0  0  0  0  0  0  0  0  0
    5.4355   -1.6210    4.1086 O   0  0  0  0  0  0  0  0  0  0  0  0
    2.7344    2.0710   -1.8197 C   0  0  0  0  0  0  0  0  0  0  0  0
    1.8909   -0.0604   -1.6310 O   0  0  0  0  0  0  0  0  0  0  0  0
    1.6446    2.8588   -1.6684 C   0  0  0  0  0  0  0  0  0  0  0  0
    3.8699    2.5930   -2.4309 C   0  0  0  0  0  0  0  0  0  0  0  0
    0.3812    2.4915   -1.0373 C   0  0  1  0  0  0  0  0  0  0  0  0
    4.4521    2.0221   -3.5750 C   0  0  0  0  0  0  0  0  0  0  0  0
    4.5066    3.6965   -1.9373 N   0  0  0  0  0  0  0  0  0  0  0  0
    0.5098    2.1272    0.3886 C   0  0  0  0  0  0  0  0  0  0  0  0
    5.8610    3.0007   -3.9308 S   0  0  0  0  0  0  0  0  0  0  0  0
    5.6197    4.1005   -2.5861 C   0  0  0  0  0  0  0  0  0  0  0  0
    0.9724    3.0276    1.2869 O   0  0  0  0  0  0  0  0  0  0  0  0
    0.1844    0.9883    0.7944 O   0  0  0  0  0  0  0  0  0  0  0  0
    6.4028    5.1379   -2.2578 N   0  0  0  0  0  0  0  0  0  0  0  0
    5.5211   -2.5437   -0.1921 H   0  0  0  0  0  0  0  0  0  0  0  0
    3.2718   -1.6098   -0.1141 H   0  0  0  0  0  0  0  0  0  0  0  0
    4.5608    1.0603   -0.4601 H   0  0  0  0  0  0  0  0  0  0  0  0
    8.7142   -1.3106    2.2478 H   0  0  0  0  0  0  0  0  0  0  0  0
    8.5401   -2.1445   -0.1190 H   0  0  0  0  0  0  0  0  0  0  0  0
    9.0801   -0.4706    0.0736 H   0  0  0  0  0  0  0  0  0  0  0  0
    7.3888   -1.0511    5.4085 H   0  0  0  0  0  0  0  0  0  0  0  0
    1.6855    3.7910   -2.0230 H   0  0  0  0  0  0  0  0  0  0  0  0
   -0.3105    3.3368   -1.0954 H   0  0  0  0  0  0  0  0  0  0  0  0
   -0.0727    1.6738   -1.6016 H   0  0  0  0  0  0  0  0  0  0  0  0
    4.1277    1.2095   -4.1030 H   0  0  0  0  0  0  0  0  0  0  0  0
    1.0412    2.7874    2.2351 H   0  0  0  0  0  0  0  0  0  0  0  0
    6.1920    5.6783   -1.4799 H   0  0  0  0  0  0  0  0  0  0  0  0
    7.1842    5.3432   -2.7950 H   0  0  0  0  0  0  0  0  0  0  0  0
  1  2  2  0  0  0  0 
  2  3  1  0  0  0  0 
  4  2  1  0  0  0  0 
  5  3  1  0  0  0  0 
  3  6  1  0  0  0  0 
  5  4  1  0  0  0  0 
  4  7  1  0  0  0  0 
  5  8  1  0  0  0  0 
  5 28  1  0  0  0  0 
  6  9  1  0  0  0  0 
  6 10  2  0  0  0  0 
  7 11  1  0  0  0  0 
  8 12  1  0  0  0  0 
  9 13  1  0  0  0  0 
  9 14  2  0  0  0  0 
 10 12  1  0  0  0  0 
 11 15  1  0  0  0  0 
 11 16  2  0  0  0  0 
 15 17  2  0  0  0  0 
 15 18  1  0  0  0  0 
 17 19  1  0  0  0  0 
 18 20  2  0  0  0  0 
 18 21  1  0  0  0  0 
 19 22  1  0  0  0  0 
 20 23  1  0  0  0  0 
 21 24  2  0  0  0  0 
 22 25  1  0  0  0  0 
 22 26  2  0  0  0  0 
 23 24  1  0  0  0  0 
 24 27  1  0  0  0  0 
  4 29  1  0  0  0  0 
  7 30  1  0  0  0  0 
 10 31  1  0  0  0  0 
 12 32  1  0  0  0  0 
 12 33  1  0  0  0  0 
 13 34  1  0  0  0  0 
 17 35  1  0  0  0  0 
 19 36  1  0  0  0  0 
 19 37  1  0  0  0  0 
 20 38  1  0  0  0  0 
 25 39  1  0  0  0  0 
 27 40  1  0  0  0  0 
 27 41  1  0  0  0  0 
M  END
> <cdk:Title>
ceftibuten

> <Conformer>
1

> <SuperDrugID>
SD000489

$$$$
