bromocriptine
  CDK     0628171801

 83 89  0  0  0  0  0  0  0  0999 V2000
   -1.6152   -1.9672   -2.8275 C   0  0  0  0  0  0  0  0  0  0  0  0
   -2.2654   -1.4406   -1.6983 C   0  0  0  0  0  0  0  0  0  0  0  0
   -3.6889   -1.4610   -1.7836 C   0  0  0  0  0  0  0  0  0  0  0  0
   -4.3622   -1.9908   -2.9142 C   0  0  0  0  0  0  0  0  0  0  0  0
   -3.6403   -2.5296   -4.0022 C   0  0  0  0  0  0  0  0  0  0  0  0
   -2.2402   -2.5042   -3.9422 C   0  0  0  0  0  0  0  0  0  0  0  0
   -0.2577   -2.0155   -3.0336 C   0  0  0  0  0  0  0  0  0  0  0  0
    0.6672   -1.4427   -2.0483 C   0  0  1  0  0  0  0  0  0  0  0  0
    0.0133   -1.3065   -0.6182 C   0  0  2  0  0  0  0  0  0  0  0  0
   -1.4485   -0.9565   -0.6378 C   0  0  0  0  0  0  0  0  0  0  0  0
    0.8360   -0.3978    0.2696 N   0  0  1  0  0  0  0  0  0  0  0  0
    0.2168   -0.2855    1.6214 C   0  0  1  0  0  0  0  0  0  0  0  0
   -1.2028    0.3287    1.4839 C   0  0  1  0  0  0  0  0  0  0  0  0
   -1.9671   -0.2100    0.3640 C   0  0  0  0  0  0  0  0  0  0  0  0
   -1.2835   -2.9051   -4.7974 N   0  0  0  0  0  0  0  0  0  0  0  0
   -0.0718   -2.6227   -4.2744 C   0  0  0  0  0  0  0  0  0  0  0  0
    2.2945   -0.7107    0.3568 C   0  0  0  0  0  0  0  0  0  0  0  0
   -1.9587    0.2467    2.7639 C   0  0  0  0  0  0  0  0  0  0  0  0
   -2.1091   -0.9553    3.3992 N   0  0  0  0  0  0  0  0  0  0  0  0
   -2.8785   -1.2400    4.5779 C   0  0  1  0  0  0  0  0  0  0  0  0
   -2.1042   -2.1128    5.4791 C   0  0  0  0  0  0  0  0  0  0  0  0
   -2.0936   -1.6370    6.7341 N   0  0  0  0  0  0  0  0  0  0  0  0
   -2.6748   -0.3408    6.7465 C   0  0  1  0  0  0  0  0  0  0  0  0
   -3.0852   -0.0687    5.3977 O   0  0  0  0  0  0  0  0  0  0  0  0
   -1.7142   -2.3516    7.9409 C   0  0  2  0  0  0  0  0  0  0  0  0
   -2.8222   -2.2208    8.9363 C   0  0  0  0  0  0  0  0  0  0  0  0
   -3.7499   -1.2065    8.8509 N   0  0  0  0  0  0  0  0  0  0  0  0
   -3.9032   -0.3680    7.7003 C   0  0  1  0  0  0  0  0  0  0  0  0
   -2.4775    1.2965    3.2138 O   0  0  0  0  0  0  0  0  0  0  0  0
   -1.5683   -3.1920    5.1340 O   0  0  0  0  0  0  0  0  0  0  0  0
   -4.6603   -0.8556    9.8964 C   0  0  2  0  0  0  0  0  0  0  0  0
   -5.2766    0.4916    9.4534 C   0  0  2  0  0  0  0  0  0  0  0  0
   -4.3518    0.9701    8.3197 C   0  0  1  0  0  0  0  0  0  0  0  0
   -2.8856   -3.0431    9.8813 O   0  0  0  0  0  0  0  0  0  0  0  0
   -1.7111    0.6513    7.1017 O   0  0  0  0  0  0  0  0  0  0  0  0
   -4.2674   -1.8702    4.1804 C   0  0  2  0  0  0  0  0  0  0  0  0
    1.5625   -2.9794   -5.0828 Br  0  0  0  0  0  0  0  0  0  0  0  0
   -4.1620   -3.1450    3.2897 C   0  0  0  0  0  0  0  0  0  0  0  0
   -5.2120   -0.8357    3.5010 C   0  0  0  0  0  0  0  0  0  0  0  0
   -0.3529   -1.8265    8.5081 C   0  0  2  0  0  0  0  0  0  0  0  0
    0.2526   -2.5466    9.7635 C   0  0  1  0  0  0  0  0  0  0  0  0
    0.7639   -3.9858    9.4679 C   0  0  0  0  0  0  0  0  0  0  0  0
    1.3923   -1.6948   10.3898 C   0  0  0  0  0  0  0  0  0  0  0  0
   -4.2670   -1.0933   -1.0292 H   0  0  0  0  0  0  0  0  0  0  0  0
   -5.3834   -1.9872   -2.9470 H   0  0  0  0  0  0  0  0  0  0  0  0
   -4.1210   -2.9229   -4.8133 H   0  0  0  0  0  0  0  0  0  0  0  0
    1.5436   -2.0925   -1.9947 H   0  0  0  0  0  0  0  0  0  0  0  0
    0.9809   -0.4637   -2.4156 H   0  0  0  0  0  0  0  0  0  0  0  0
    0.0531   -2.3152   -0.1864 H   0  0  0  0  0  0  0  0  0  0  0  0
    0.1772   -1.2775    2.0872 H   0  0  0  0  0  0  0  0  0  0  0  0
    0.8064    0.3647    2.2774 H   0  0  0  0  0  0  0  0  0  0  0  0
   -1.0591    1.3855    1.2380 H   0  0  0  0  0  0  0  0  0  0  0  0
   -2.9273    0.0367    0.3441 H   0  0  0  0  0  0  0  0  0  0  0  0
   -1.4379   -3.3250   -5.6559 H   0  0  0  0  0  0  0  0  0  0  0  0
    2.7755   -0.5204   -0.6018 H   0  0  0  0  0  0  0  0  0  0  0  0
    2.7972   -0.0678    1.0811 H   0  0  0  0  0  0  0  0  0  0  0  0
    2.4573   -1.7528    0.6390 H   0  0  0  0  0  0  0  0  0  0  0  0
   -1.6701   -1.7162    2.9883 H   0  0  0  0  0  0  0  0  0  0  0  0
   -1.6026   -3.4133    7.7056 H   0  0  0  0  0  0  0  0  0  0  0  0
   -4.7482   -0.7739    7.1302 H   0  0  0  0  0  0  0  0  0  0  0  0
   -4.1226   -0.7264   10.8392 H   0  0  0  0  0  0  0  0  0  0  0  0
   -5.4276   -1.6255   10.0170 H   0  0  0  0  0  0  0  0  0  0  0  0
   -5.3155    1.2143   10.2731 H   0  0  0  0  0  0  0  0  0  0  0  0
   -6.2894    0.3371    9.0643 H   0  0  0  0  0  0  0  0  0  0  0  0
   -3.5045    1.5184    8.7410 H   0  0  0  0  0  0  0  0  0  0  0  0
   -4.8738    1.6016    7.5977 H   0  0  0  0  0  0  0  0  0  0  0  0
   -1.0209    0.5963    6.4054 H   0  0  0  0  0  0  0  0  0  0  0  0
   -4.7704   -2.1786    5.1011 H   0  0  0  0  0  0  0  0  0  0  0  0
   -3.6064   -3.9314    3.7993 H   0  0  0  0  0  0  0  0  0  0  0  0
   -5.1559   -3.5425    3.0731 H   0  0  0  0  0  0  0  0  0  0  0  0
   -3.6641   -2.9254    2.3419 H   0  0  0  0  0  0  0  0  0  0  0  0
   -5.3754    0.0258    4.1493 H   0  0  0  0  0  0  0  0  0  0  0  0
   -6.1865   -1.2824    3.2969 H   0  0  0  0  0  0  0  0  0  0  0  0
   -4.7953   -0.4849    2.5558 H   0  0  0  0  0  0  0  0  0  0  0  0
   -0.5006   -0.7791    8.7774 H   0  0  0  0  0  0  0  0  0  0  0  0
    0.3894   -1.8556    7.7049 H   0  0  0  0  0  0  0  0  0  0  0  0
   -0.5166   -2.6218   10.5330 H   0  0  0  0  0  0  0  0  0  0  0  0
    1.6166   -3.9569    8.7850 H   0  0  0  0  0  0  0  0  0  0  0  0
    1.0758   -4.4717   10.3967 H   0  0  0  0  0  0  0  0  0  0  0  0
   -0.0209   -4.5982    9.0238 H   0  0  0  0  0  0  0  0  0  0  0  0
    2.2210   -1.5833    9.6874 H   0  0  0  0  0  0  0  0  0  0  0  0
    1.7632   -2.1652   11.3037 H   0  0  0  0  0  0  0  0  0  0  0  0
    1.0235   -0.7004   10.6528 H   0  0  0  0  0  0  0  0  0  0  0  0
  1  2  2  0  0  0  0 
  2  3  1  0  0  0  0 
  3  4  2  0  0  0  0 
  4  5  1  0  0  0  0 
  5  6  2  0  0  0  0 
  1  6  1  0  0  0  0 
  1  7  1  0  0  0  0 
  7  8  1  0  0  0  0 
  9  8  1  0  0  0  0 
  9 10  1  0  0  0  0 
  2 10  1  0  0  0  0 
  9 11  1  0  0  0  0 
 11 12  1  0  0  0  0 
 13 12  1  0  0  0  0 
 13 14  1  0  0  0  0 
 10 14  2  0  0  0  0 
  6 15  1  0  0  0  0 
 15 16  1  0  0  0  0 
  7 16  2  0  0  0  0 
 11 17  1  0  0  0  0 
 13 18  1  0  0  0  0 
 18 19  1  0  0  0  0 
 20 19  1  0  0  0  0 
 20 21  1  0  0  0  0 
 21 22  1  0  0  0  0 
 23 22  1  0  0  0  0 
 23 24  1  0  0  0  0 
 20 24  1  0  0  0  0 
 25 22  1  0  0  0  0 
 25 26  1  0  0  0  0 
 26 27  1  0  0  0  0 
 28 27  1  0  0  0  0 
 23 28  1  0  0  0  0 
 18 29  2  0  0  0  0 
 21 30  2  0  0  0  0 
 27 31  1  0  0  0  0 
 31 32  1  0  0  0  0 
 32 33  1  0  0  0  0 
 28 33  1  0  0  0  0 
 26 34  2  0  0  0  0 
 23 35  1  0  0  0  0 
 20 36  1  0  0  0  0 
 16 37  1  0  0  0  0 
 36 38  1  0  0  0  0 
 36 39  1  0  0  0  0 
 25 40  1  0  0  0  0 
 40 41  1  0  0  0  0 
 41 42  1  0  0  0  0 
 41 43  1  0  0  0  0 
 44  3  1  0  0  0  0 
 45  4  1  0  0  0  0 
 46  5  1  0  0  0  0 
 47  8  1  0  0  0  0 
 48  8  1  0  0  0  0 
  9 49  1  0  0  0  0 
 50 12  1  0  0  0  0 
 51 12  1  0  0  0  0 
 13 52  1  0  0  0  0 
 53 14  1  0  0  0  0 
 54 15  1  0  0  0  0 
 55 17  1  0  0  0  0 
 56 17  1  0  0  0  0 
 57 17  1  0  0  0  0 
 58 19  1  0  0  0  0 
 25 59  1  0  0  0  0 
 28 60  1  0  0  0  0 
 61 31  1  0  0  0  0 
 62 31  1  0  0  0  0 
 63 32  1  0  0  0  0 
 64 32  1  0  0  0  0 
 65 33  1  0  0  0  0 
 66 33  1  0  0  0  0 
 67 35  1  0  0  0  0 
 68 36  1  0  0  0  0 
 69 38  1  0  0  0  0 
 70 38  1  0  0  0  0 
 71 38  1  0  0  0  0 
 72 39  1  0  0  0  0 
 73 39  1  0  0  0  0 
 74 39  1  0  0  0  0 
 75 40  1  0  0  0  0 
 76 40  1  0  0  0  0 
 77 41  1  0  0  0  0 
 78 42  1  0  0  0  0 
 79 42  1  0  0  0  0 
 80 42  1  0  0  0  0 
 81 43  1  0  0  0  0 
 82 43  1  0  0  0  0 
 83 43  1  0  0  0  0 
M  END
> <cdk:Title>
bromocriptine

> <Conformer>
1

> <SuperDrugID>
SD000345

$$$$
