ranolazine
  CDK     0628171801

 64 66  0  0  0  0  0  0  0  0999 V2000
    4.3996   -6.7016    0.1887 O   0  0  0  0  0  0  0  0  0  0  0  0
    3.2480   -5.9213   -0.1918 C   0  0  1  0  0  0  0  0  0  0  0  0
    4.6921   -7.7395   -0.6543 C   0  0  0  0  0  0  0  0  0  0  0  0
    3.0152   -4.8457    0.8994 C   0  0  2  0  0  0  0  0  0  0  0  0
    5.7235   -7.6186   -1.6136 C   0  0  0  0  0  0  0  0  0  0  0  0
    4.0062   -8.9641   -0.5217 C   0  0  0  0  0  0  0  0  0  0  0  0
    1.7376   -3.9951    0.6553 C   0  0  2  0  0  0  0  0  0  0  0  0
    4.1530   -3.9867    0.9673 O   0  0  0  0  0  0  0  0  0  0  0  0
    6.4101   -6.4438   -1.7508 O   0  0  0  0  0  0  0  0  0  0  0  0
    6.0405   -8.7127   -2.4466 C   0  0  0  0  0  0  0  0  0  0  0  0
    4.3230  -10.0511   -1.3562 C   0  0  0  0  0  0  0  0  0  0  0  0
    1.5916   -2.8208    1.5796 N   0  0  1  0  0  0  0  0  0  0  0  0
    7.6210   -6.4090   -0.9748 C   0  0  0  0  0  0  0  0  0  0  0  0
    5.3393   -9.9249   -2.3199 C   0  0  0  0  0  0  0  0  0  0  0  0
    0.5808   -1.8266    1.1033 C   0  0  1  0  0  0  0  0  0  0  0  0
    1.3739   -3.1667    3.0185 C   0  0  1  0  0  0  0  0  0  0  0  0
    0.5530   -0.5623    1.9984 C   0  0  1  0  0  0  0  0  0  0  0  0
    1.3874   -1.8951    3.9003 C   0  0  2  0  0  0  0  0  0  0  0  0
    0.3720   -0.8868    3.4514 N   0  0  1  0  0  0  0  0  0  0  0  0
    0.3100    0.3514    4.3090 C   0  0  1  0  0  0  0  0  0  0  0  0
   -0.3903    0.1654    5.6062 C   0  0  0  0  0  0  0  0  0  0  0  0
   -1.4744    0.9351    5.9268 N   0  0  0  0  0  0  0  0  0  0  0  0
    0.0308   -0.6952    6.4140 O   0  0  0  0  0  0  0  0  0  0  0  0
   -2.2164    0.8632    7.0785 C   0  0  0  0  0  0  0  0  0  0  0  0
   -3.6238    0.6818    6.9326 C   0  0  0  0  0  0  0  0  0  0  0  0
   -1.6443    0.9714    8.3846 C   0  0  0  0  0  0  0  0  0  0  0  0
   -4.2758    0.6335    5.5940 C   0  0  0  0  0  0  0  0  0  0  0  0
   -4.4239    0.5316    8.0885 C   0  0  0  0  0  0  0  0  0  0  0  0
   -0.2162    1.3043    8.6488 C   0  0  0  0  0  0  0  0  0  0  0  0
   -2.4756    0.7851    9.5143 C   0  0  0  0  0  0  0  0  0  0  0  0
   -3.8518    0.5631    9.3679 C   0  0  0  0  0  0  0  0  0  0  0  0
    3.4188   -5.4377   -1.1590 H   0  0  0  0  0  0  0  0  0  0  0  0
    2.3553   -6.5515   -0.2676 H   0  0  0  0  0  0  0  0  0  0  0  0
    2.9174   -5.3622    1.8559 H   0  0  0  0  0  0  0  0  0  0  0  0
    3.2768   -9.0636    0.1868 H   0  0  0  0  0  0  0  0  0  0  0  0
    0.8534   -4.6366    0.7218 H   0  0  0  0  0  0  0  0  0  0  0  0
    1.7978   -3.6270   -0.3723 H   0  0  0  0  0  0  0  0  0  0  0  0
    4.9033   -4.5712    1.2035 H   0  0  0  0  0  0  0  0  0  0  0  0
    6.7889   -8.6307   -3.1385 H   0  0  0  0  0  0  0  0  0  0  0  0
    3.8139  -10.9323   -1.2612 H   0  0  0  0  0  0  0  0  0  0  0  0
    8.1249   -5.4638   -1.1768 H   0  0  0  0  0  0  0  0  0  0  0  0
    7.4072   -6.4614    0.0958 H   0  0  0  0  0  0  0  0  0  0  0  0
    8.3005   -7.2193   -1.2521 H   0  0  0  0  0  0  0  0  0  0  0  0
    5.5714  -10.7154   -2.9245 H   0  0  0  0  0  0  0  0  0  0  0  0
    0.8280   -1.5030    0.0890 H   0  0  0  0  0  0  0  0  0  0  0  0
   -0.4162   -2.2765    1.0797 H   0  0  0  0  0  0  0  0  0  0  0  0
    0.4251   -3.6967    3.1526 H   0  0  0  0  0  0  0  0  0  0  0  0
    2.1727   -3.8144    3.3825 H   0  0  0  0  0  0  0  0  0  0  0  0
    1.4825   -0.0028    1.8493 H   0  0  0  0  0  0  0  0  0  0  0  0
   -0.2758    0.0641    1.6551 H   0  0  0  0  0  0  0  0  0  0  0  0
    2.3907   -1.4596    3.8788 H   0  0  0  0  0  0  0  0  0  0  0  0
    1.1871   -2.2194    4.9200 H   0  0  0  0  0  0  0  0  0  0  0  0
    1.3211    0.7196    4.5105 H   0  0  0  0  0  0  0  0  0  0  0  0
   -0.2076    1.1508    3.7649 H   0  0  0  0  0  0  0  0  0  0  0  0
   -1.7879    1.5537    5.2469 H   0  0  0  0  0  0  0  0  0  0  0  0
   -4.0978    1.5729    5.0694 H   0  0  0  0  0  0  0  0  0  0  0  0
   -5.3572    0.4873    5.6523 H   0  0  0  0  0  0  0  0  0  0  0  0
   -3.8620   -0.1866    5.0045 H   0  0  0  0  0  0  0  0  0  0  0  0
   -5.4356    0.3957    8.0109 H   0  0  0  0  0  0  0  0  0  0  0  0
   -0.1398    2.0572    9.4363 H   0  0  0  0  0  0  0  0  0  0  0  0
    0.3211    0.4111    8.9740 H   0  0  0  0  0  0  0  0  0  0  0  0
    0.2851    1.7168    7.7734 H   0  0  0  0  0  0  0  0  0  0  0  0
   -2.0895    0.8278   10.4617 H   0  0  0  0  0  0  0  0  0  0  0  0
   -4.4422    0.4408   10.1948 H   0  0  0  0  0  0  0  0  0  0  0  0
  1  2  1  0  0  0  0 
  1  3  1  0  0  0  0 
  4  2  1  0  0  0  0 
  3  5  2  0  0  0  0 
  3  6  1  0  0  0  0 
  4  7  1  0  0  0  0 
  4  8  1  0  0  0  0 
  5  9  1  0  0  0  0 
  5 10  1  0  0  0  0 
  6 11  2  0  0  0  0 
  7 12  1  0  0  0  0 
  9 13  1  0  0  0  0 
 10 14  2  0  0  0  0 
 11 14  1  0  0  0  0 
 12 15  1  0  0  0  0 
 12 16  1  0  0  0  0 
 15 17  1  0  0  0  0 
 16 18  1  0  0  0  0 
 17 19  1  0  0  0  0 
 18 19  1  0  0  0  0 
 19 20  1  0  0  0  0 
 20 21  1  0  0  0  0 
 21 22  1  0  0  0  0 
 21 23  2  0  0  0  0 
 22 24  1  0  0  0  0 
 24 25  2  0  0  0  0 
 24 26  1  0  0  0  0 
 25 27  1  0  0  0  0 
 25 28  1  0  0  0  0 
 26 29  1  0  0  0  0 
 26 30  2  0  0  0  0 
 28 31  2  0  0  0  0 
 30 31  1  0  0  0  0 
  2 32  1  0  0  0  0 
  2 33  1  0  0  0  0 
  4 34  1  0  0  0  0 
  6 35  1  0  0  0  0 
  7 36  1  0  0  0  0 
  7 37  1  0  0  0  0 
  8 38  1  0  0  0  0 
 10 39  1  0  0  0  0 
 11 40  1  0  0  0  0 
 13 41  1  0  0  0  0 
 13 42  1  0  0  0  0 
 13 43  1  0  0  0  0 
 14 44  1  0  0  0  0 
 15 45  1  0  0  0  0 
 15 46  1  0  0  0  0 
 16 47  1  0  0  0  0 
 16 48  1  0  0  0  0 
 17 49  1  0  0  0  0 
 17 50  1  0  0  0  0 
 18 51  1  0  0  0  0 
 18 52  1  0  0  0  0 
 20 53  1  0  0  0  0 
 20 54  1  0  0  0  0 
 22 55  1  0  0  0  0 
 27 56  1  0  0  0  0 
 27 57  1  0  0  0  0 
 27 58  1  0  0  0  0 
 28 59  1  0  0  0  0 
 29 60  1  0  0  0  0 
 29 61  1  0  0  0  0 
 29 62  1  0  0  0  0 
 30 63  1  0  0  0  0 
 31 64  1  0  0  0  0 
M  END
> <cdk:Title>
ranolazine

> <Conformer>
1

> <SuperDrugID>
SD002122

$$$$
