cefbuperazone
  CDK     0628171801

 71 74  0  0  0  0  0  0  0  0999 V2000
    1.7337   -9.3160    1.0647 N   0  0  0  0  0  0  0  0  0  0  0  0
    2.9713   -9.8832    1.1888 C   0  0  0  0  0  0  0  0  0  0  0  0
    1.1634   -8.3988    2.0129 C   0  0  1  0  0  0  0  0  0  0  0  0
    3.4454  -10.9348    0.2473 C   0  0  2  0  0  0  0  0  0  0  0  0
    3.7329   -9.5326    2.1226 O   0  0  0  0  0  0  0  0  0  0  0  0
    1.0917   -8.9106    3.3669 O   0  0  0  0  0  0  0  0  0  0  0  0
    1.7363   -6.9391    2.0215 C   0  0  2  0  0  0  0  0  0  0  0  0
   -0.0654   -7.7319    1.5643 C   0  0  0  0  0  0  0  0  0  0  0  0
    3.4392  -10.4066   -1.0916 N   0  0  0  0  0  0  0  0  0  0  0  0
    2.6044  -12.2505    0.3174 C   0  0  2  0  0  0  0  0  0  0  0  0
    0.1899  -10.0065    3.6056 C   0  0  0  0  0  0  0  0  0  0  0  0
    0.4504   -6.4936    1.6173 N   0  0  0  0  0  0  0  0  0  0  0  0
    2.7797   -6.3117    0.6408 S   0  0  0  0  0  0  0  0  0  0  0  0
   -1.1921   -8.1765    1.2489 O   0  0  0  0  0  0  0  0  0  0  0  0
    4.4418  -10.5213   -2.0242 C   0  0  0  0  0  0  0  0  0  0  0  0
    2.7117  -12.9814    1.6805 C   0  0  0  0  0  0  0  0  0  0  0  0
    3.0411  -13.1750   -0.6812 O   0  0  0  0  0  0  0  0  0  0  0  0
    0.0010   -5.2415    1.3728 C   0  0  0  0  0  0  0  0  0  0  0  0
    2.3192   -4.4866    0.8026 C   0  0  1  0  0  0  0  0  0  0  0  0
    5.4347  -11.2185   -1.6917 O   0  0  0  0  0  0  0  0  0  0  0  0
    4.4040   -9.9603   -3.3052 N   0  0  0  0  0  0  0  0  0  0  0  0
   -1.3764   -5.0505    1.4480 C   0  0  0  0  0  0  0  0  0  0  0  0
    0.8833   -4.2369    1.0895 C   0  0  0  0  0  0  0  0  0  0  0  0
    3.3697   -9.1483   -3.7662 C   0  0  0  0  0  0  0  0  0  0  0  0
    5.4711  -10.3038   -4.2350 C   0  0  1  0  0  0  0  0  0  0  0  0
   -2.1105   -5.6164    2.4341 O   0  0  0  0  0  0  0  0  0  0  0  0
   -1.9907   -4.3674    0.5971 O   0  0  0  0  0  0  0  0  0  0  0  0
    0.4821   -2.8128    1.1270 C   0  0  2  0  0  0  0  0  0  0  0  0
    2.4489   -8.7462   -3.0160 O   0  0  0  0  0  0  0  0  0  0  0  0
    3.2954   -8.7482   -5.1311 C   0  0  0  0  0  0  0  0  0  0  0  0
    5.6388   -9.3336   -5.4307 C   0  0  1  0  0  0  0  0  0  0  0  0
    0.1604   -2.0774   -0.5138 S   0  0  0  0  0  0  0  0  0  0  0  0
    2.2042   -8.2821   -5.5478 O   0  0  0  0  0  0  0  0  0  0  0  0
    4.3788   -8.8939   -5.9808 N   0  0  0  0  0  0  0  0  0  0  0  0
   -0.3988   -0.4559   -0.1238 C   0  0  0  0  0  0  0  0  0  0  0  0
    4.3229   -8.5416   -7.3896 C   0  0  1  0  0  0  0  0  0  0  0  0
    0.2329    0.7112   -0.3269 N   0  0  0  0  0  0  0  0  0  0  0  0
   -1.5646   -0.1754    0.4691 N   0  0  0  0  0  0  0  0  0  0  0  0
    4.3239   -9.7821   -8.3154 C   0  0  0  0  0  0  0  0  0  0  0  0
    1.5098    0.9160   -0.9242 C   0  0  0  0  0  0  0  0  0  0  0  0
   -0.5330    1.6469    0.1303 N   0  0  0  0  0  0  0  0  0  0  0  0
   -1.6111    1.1098    0.6070 N   0  0  0  0  0  0  0  0  0  0  0  0
    1.9723   -6.5772    3.0511 H   0  0  0  0  0  0  0  0  0  0  0  0
    4.4706  -11.1975    0.5312 H   0  0  0  0  0  0  0  0  0  0  0  0
    1.1910   -9.5735    0.3033 H   0  0  0  0  0  0  0  0  0  0  0  0
    2.6355   -9.9407   -1.3551 H   0  0  0  0  0  0  0  0  0  0  0  0
    1.5525  -12.0319    0.1109 H   0  0  0  0  0  0  0  0  0  0  0  0
    0.3392  -10.3466    4.6310 H   0  0  0  0  0  0  0  0  0  0  0  0
    0.3800  -10.8442    2.9335 H   0  0  0  0  0  0  0  0  0  0  0  0
   -0.8486   -9.6874    3.5036 H   0  0  0  0  0  0  0  0  0  0  0  0
    2.3701  -12.3436    2.4953 H   0  0  0  0  0  0  0  0  0  0  0  0
    2.0920  -13.8797    1.6700 H   0  0  0  0  0  0  0  0  0  0  0  0
    3.7444  -13.2772    1.8788 H   0  0  0  0  0  0  0  0  0  0  0  0
    2.8191  -12.7545   -1.5382 H   0  0  0  0  0  0  0  0  0  0  0  0
    2.8845   -3.9839    1.6208 H   0  0  0  0  0  0  0  0  0  0  0  0
    2.5728   -3.9100   -0.1172 H   0  0  0  0  0  0  0  0  0  0  0  0
    6.4447  -10.3256   -3.7362 H   0  0  0  0  0  0  0  0  0  0  0  0
    5.2710  -11.3100   -4.6152 H   0  0  0  0  0  0  0  0  0  0  0  0
   -3.0801   -5.4751    2.4679 H   0  0  0  0  0  0  0  0  0  0  0  0
    1.2659   -2.2202    1.6017 H   0  0  0  0  0  0  0  0  0  0  0  0
   -0.4037   -2.6471    1.7442 H   0  0  0  0  0  0  0  0  0  0  0  0
    6.1803   -8.4453   -5.0949 H   0  0  0  0  0  0  0  0  0  0  0  0
    6.2656   -9.8336   -6.1748 H   0  0  0  0  0  0  0  0  0  0  0  0
    3.4293   -7.9583   -7.6249 H   0  0  0  0  0  0  0  0  0  0  0  0
    5.1720   -7.9005   -7.6484 H   0  0  0  0  0  0  0  0  0  0  0  0
    3.9415   -9.5110   -9.3008 H   0  0  0  0  0  0  0  0  0  0  0  0
    5.3340  -10.1758   -8.4396 H   0  0  0  0  0  0  0  0  0  0  0  0
    3.6893  -10.5687   -7.9056 H   0  0  0  0  0  0  0  0  0  0  0  0
    1.7666    1.9780   -0.9434 H   0  0  0  0  0  0  0  0  0  0  0  0
    1.5010    0.5397   -1.9489 H   0  0  0  0  0  0  0  0  0  0  0  0
    2.2737    0.3859   -0.3531 H   0  0  0  0  0  0  0  0  0  0  0  0
  1  2  1  0  0  0  0 
  3  1  1  0  0  0  0 
  4  2  1  0  0  0  0 
  2  5  2  0  0  0  0 
  3  6  1  0  0  0  0 
  7  3  1  0  0  0  0 
  3  8  1  0  0  0  0 
  4  9  1  0  0  0  0 
 10  4  1  0  0  0  0 
  4 44  1  0  0  0  0 
  6 11  1  0  0  0  0 
  7 12  1  0  0  0  0 
  7 13  1  0  0  0  0 
  7 43  1  0  0  0  0 
  8 12  1  0  0  0  0 
  8 14  2  0  0  0  0 
  9 15  1  0  0  0  0 
 10 16  1  0  0  0  0 
 10 17  1  0  0  0  0 
 12 18  1  0  0  0  0 
 13 19  1  0  0  0  0 
 15 20  2  0  0  0  0 
 15 21  1  0  0  0  0 
 18 22  1  0  0  0  0 
 18 23  2  0  0  0  0 
 19 23  1  0  0  0  0 
 21 24  1  0  0  0  0 
 21 25  1  0  0  0  0 
 22 26  1  0  0  0  0 
 22 27  2  0  0  0  0 
 23 28  1  0  0  0  0 
 24 29  2  0  0  0  0 
 24 30  1  0  0  0  0 
 25 31  1  0  0  0  0 
 28 32  1  0  0  0  0 
 30 33  2  0  0  0  0 
 30 34  1  0  0  0  0 
 31 34  1  0  0  0  0 
 32 35  1  0  0  0  0 
 34 36  1  0  0  0  0 
 35 37  1  0  0  0  0 
 35 38  2  0  0  0  0 
 36 39  1  0  0  0  0 
 37 40  1  0  0  0  0 
 37 41  1  0  0  0  0 
 38 42  1  0  0  0  0 
 41 42  2  0  0  0  0 
  1 45  1  0  0  0  0 
  9 46  1  0  0  0  0 
 10 47  1  0  0  0  0 
 11 48  1  0  0  0  0 
 11 49  1  0  0  0  0 
 11 50  1  0  0  0  0 
 16 51  1  0  0  0  0 
 16 52  1  0  0  0  0 
 16 53  1  0  0  0  0 
 17 54  1  0  0  0  0 
 19 55  1  0  0  0  0 
 19 56  1  0  0  0  0 
 25 57  1  0  0  0  0 
 25 58  1  0  0  0  0 
 26 59  1  0  0  0  0 
 28 60  1  0  0  0  0 
 28 61  1  0  0  0  0 
 31 62  1  0  0  0  0 
 31 63  1  0  0  0  0 
 36 64  1  0  0  0  0 
 36 65  1  0  0  0  0 
 39 66  1  0  0  0  0 
 39 67  1  0  0  0  0 
 39 68  1  0  0  0  0 
 40 69  1  0  0  0  0 
 40 70  1  0  0  0  0 
 40 71  1  0  0  0  0 
M  END
> <cdk:Title>
cefbuperazone

> <Conformer>
1

> <SuperDrugID>
SD002668

$$$$
