dexamethasone phosphate
  CDK     0628171801

 62 65  0  0  0  0  0  0  0  0999 V2000
   -7.5484   -0.5445    1.2274 C   0  0  0  0  0  0  0  0  0  0  0  0
   -6.6512   -0.1016    2.4513 C   0  0  2  0  0  0  0  0  0  0  0  0
   -5.4284   -1.0398    2.7258 C   0  0  2  0  0  0  0  0  0  0  0  0
   -7.4536   -0.2957    3.8076 C   0  0  2  0  0  0  0  0  0  0  0  0
   -6.0322    1.3200    2.1742 C   0  0  2  0  0  0  0  0  0  0  0  0
   -4.4241   -1.1512    1.5281 C   0  0  1  0  0  0  0  0  0  0  0  0
   -6.0473   -2.3273    3.3064 C   0  0  1  0  0  0  0  0  0  0  0  0
   -8.8728    0.2154    3.8257 C   0  0  0  0  0  0  0  0  0  0  0  0
   -6.7770    0.4014    4.8661 O   0  0  0  0  0  0  0  0  0  0  0  0
   -7.3165   -1.8501    4.0728 C   0  0  1  0  0  0  0  0  0  0  0  0
   -4.9671    1.3596    1.0240 C   0  0  1  0  0  0  0  0  0  0  0  0
   -3.8264    0.2661    1.1469 C   0  0  1  0  0  0  0  0  0  0  0  0
   -3.2776   -2.1685    1.8214 C   0  0  1  0  0  0  0  0  0  0  0  0
   -9.2324    1.6549    3.8229 C   0  0  2  0  0  0  0  0  0  0  0  0
   -9.8364   -0.5861    3.8804 O   0  0  0  0  0  0  0  0  0  0  0  0
   -7.3282   -2.2892    5.5641 C   0  0  0  0  0  0  0  0  0  0  0  0
   -5.6369    1.3345   -0.2330 O   0  0  0  0  0  0  0  0  0  0  0  0
   -3.0892    0.6985    2.2431 F   0  0  0  0  0  0  0  0  0  0  0  0
   -2.7791    0.1529   -0.0615 C   0  0  2  0  0  0  0  0  0  0  0  0
   -2.2426   -2.2399    0.6708 C   0  0  2  0  0  0  0  0  0  0  0  0
   -9.2744    2.1101    2.4611 O   0  0  0  0  0  0  0  0  0  0  0  0
   -3.4008   -0.2503   -1.4514 C   0  0  0  0  0  0  0  0  0  0  0  0
   -1.7666   -0.9018    0.2935 C   0  0  0  0  0  0  0  0  0  0  0  0
   -2.1449    1.4706   -0.3162 C   0  0  0  0  0  0  0  0  0  0  0  0
   -9.5843    3.6607    2.2511 P   0  0  2  0  0  0  0  0  0  0  0  0
   -0.4388   -0.6359    0.2944 C   0  0  0  0  0  0  0  0  0  0  0  0
   -0.8176    1.6683   -0.2913 C   0  0  0  0  0  0  0  0  0  0  0  0
  -10.9942    3.9595    2.5213 O   0  0  0  0  0  0  0  0  0  0  0  0
   -9.2379    4.0004    0.7430 O   0  0  0  0  0  0  0  0  0  0  0  0
   -8.6403    4.5358    3.1737 O   0  0  0  0  0  0  0  0  0  0  0  0
    0.0457    0.6255   -0.0138 C   0  0  0  0  0  0  0  0  0  0  0  0
    1.2822    0.8304   -0.0428 O   0  0  0  0  0  0  0  0  0  0  0  0
   -6.9870   -0.6369    0.3009 H   0  0  0  0  0  0  0  0  0  0  0  0
   -8.0331   -1.5064    1.3943 H   0  0  0  0  0  0  0  0  0  0  0  0
   -8.3363    0.1855    1.0429 H   0  0  0  0  0  0  0  0  0  0  0  0
   -4.8409   -0.6222    3.5548 H   0  0  0  0  0  0  0  0  0  0  0  0
   -5.5489    1.6943    3.0792 H   0  0  0  0  0  0  0  0  0  0  0  0
   -6.8195    2.0339    1.9366 H   0  0  0  0  0  0  0  0  0  0  0  0
   -4.9735   -1.5535    0.6779 H   0  0  0  0  0  0  0  0  0  0  0  0
   -6.3153   -3.0140    2.4975 H   0  0  0  0  0  0  0  0  0  0  0  0
   -5.3306   -2.8366    3.9589 H   0  0  0  0  0  0  0  0  0  0  0  0
   -7.2752    0.1932    5.6845 H   0  0  0  0  0  0  0  0  0  0  0  0
   -8.1596   -2.3737    3.6124 H   0  0  0  0  0  0  0  0  0  0  0  0
   -4.5071    2.3508    1.0658 H   0  0  0  0  0  0  0  0  0  0  0  0
   -2.7642   -1.8928    2.7482 H   0  0  0  0  0  0  0  0  0  0  0  0
   -3.6991   -3.1684    1.9616 H   0  0  0  0  0  0  0  0  0  0  0  0
   -8.4979    2.2124    4.4100 H   0  0  0  0  0  0  0  0  0  0  0  0
  -10.2137    1.7902    4.2944 H   0  0  0  0  0  0  0  0  0  0  0  0
   -7.3261   -3.3788    5.6335 H   0  0  0  0  0  0  0  0  0  0  0  0
   -8.2250   -1.9169    6.0605 H   0  0  0  0  0  0  0  0  0  0  0  0
   -6.4489   -1.9107    6.0869 H   0  0  0  0  0  0  0  0  0  0  0  0
   -6.2481    2.1035   -0.2225 H   0  0  0  0  0  0  0  0  0  0  0  0
   -2.7034   -2.7160   -0.1965 H   0  0  0  0  0  0  0  0  0  0  0  0
   -1.4335   -2.9049    0.9928 H   0  0  0  0  0  0  0  0  0  0  0  0
   -2.6134   -0.4892   -2.1746 H   0  0  0  0  0  0  0  0  0  0  0  0
   -3.9941    0.5529   -1.8911 H   0  0  0  0  0  0  0  0  0  0  0  0
   -4.0492   -1.1212   -1.3719 H   0  0  0  0  0  0  0  0  0  0  0  0
   -2.7193    2.2509   -0.5379 H   0  0  0  0  0  0  0  0  0  0  0  0
    0.2182   -1.3478    0.5227 H   0  0  0  0  0  0  0  0  0  0  0  0
   -0.4544    2.5758   -0.4806 H   0  0  0  0  0  0  0  0  0  0  0  0
   -8.2924    3.7595    0.6424 H   0  0  0  0  0  0  0  0  0  0  0  0
   -7.7317    4.2268    2.9766 H   0  0  0  0  0  0  0  0  0  0  0  0
  2  1  1  0  0  0  0 
  3  2  1  0  0  0  0 
  2  4  1  0  0  0  0 
  2  5  1  0  0  0  0 
  6  3  1  0  0  0  0 
  3  7  1  0  0  0  0 
  4  8  1  0  0  0  0 
  4  9  1  0  0  0  0 
  4 10  1  0  0  0  0 
 11  5  1  0  0  0  0 
 12  6  1  0  0  0  0 
  6 13  1  0  0  0  0 
 10  7  1  0  0  0  0 
  8 14  1  0  0  0  0 
  8 15  2  0  0  0  0 
 10 16  1  0  0  0  0 
 12 11  1  0  0  0  0 
 11 17  1  0  0  0  0 
 12 18  1  0  0  0  0 
 12 19  1  0  0  0  0 
 13 20  1  0  0  0  0 
 14 21  1  0  0  0  0 
 19 22  1  0  0  0  0 
 19 23  1  0  0  0  0 
 19 24  1  0  0  0  0 
 20 23  1  0  0  0  0 
 21 25  1  0  0  0  0 
 23 26  2  0  0  0  0 
 24 27  2  0  0  0  0 
 25 28  2  0  0  0  0 
 25 29  1  0  0  0  0 
 25 30  1  0  0  0  0 
 26 31  1  0  0  0  0 
 27 31  1  0  0  0  0 
 31 32  2  0  0  0  0 
 33  1  1  0  0  0  0 
 34  1  1  0  0  0  0 
 35  1  1  0  0  0  0 
  3 36  1  0  0  0  0 
 37  5  1  0  0  0  0 
 38  5  1  0  0  0  0 
  6 39  1  0  0  0  0 
 40  7  1  0  0  0  0 
 41  7  1  0  0  0  0 
 42  9  1  0  0  0  0 
 10 43  1  0  0  0  0 
 11 44  1  0  0  0  0 
 45 13  1  0  0  0  0 
 46 13  1  0  0  0  0 
 47 14  1  0  0  0  0 
 48 14  1  0  0  0  0 
 49 16  1  0  0  0  0 
 50 16  1  0  0  0  0 
 51 16  1  0  0  0  0 
 52 17  1  0  0  0  0 
 53 20  1  0  0  0  0 
 54 20  1  0  0  0  0 
 55 22  1  0  0  0  0 
 56 22  1  0  0  0  0 
 57 22  1  0  0  0  0 
 58 24  1  0  0  0  0 
 59 26  1  0  0  0  0 
 60 27  1  0  0  0  0 
 61 29  1  0  0  0  0 
 62 30  1  0  0  0  0 
M  END
> <cdk:Title>
dexamethasone phosphate

> <Conformer>
1

> <SuperDrugID>
SD003299

$$$$
