doxylamine
  CDK     0628171802

 42 43  0  0  0  0  0  0  0  0999 V2000
    0.0804    1.2152    2.5763 C   0  0  0  0  0  0  0  0  0  0  0  0
   -0.1325    0.2269    3.5511 C   0  0  0  0  0  0  0  0  0  0  0  0
   -0.8627   -0.9232    3.2041 C   0  0  0  0  0  0  0  0  0  0  0  0
   -1.3705   -1.0660    1.8996 C   0  0  0  0  0  0  0  0  0  0  0  0
   -1.1387   -0.0511    0.9412 C   0  0  0  0  0  0  0  0  0  0  0  0
   -0.4192    1.0415    1.3269 N   0  0  0  0  0  0  0  0  0  0  0  0
   -1.6769   -0.1618   -0.4568 C   0  0  1  0  0  0  0  0  0  0  0  0
   -1.2553   -1.4471   -1.0115 O   0  0  0  0  0  0  0  0  0  0  0  0
   -3.1871   -0.0930   -0.3727 C   0  0  0  0  0  0  0  0  0  0  0  0
   -3.8209    1.0427    0.2037 C   0  0  0  0  0  0  0  0  0  0  0  0
   -5.2197    1.1488    0.2804 C   0  0  0  0  0  0  0  0  0  0  0  0
   -6.0269    0.1120   -0.2111 C   0  0  0  0  0  0  0  0  0  0  0  0
   -5.4321   -1.0293   -0.7727 C   0  0  0  0  0  0  0  0  0  0  0  0
   -4.0300   -1.1309   -0.8522 C   0  0  0  0  0  0  0  0  0  0  0  0
    0.1454   -1.7126   -1.2608 C   0  0  2  0  0  0  0  0  0  0  0  0
   -1.2062    0.9894   -1.4123 C   0  0  0  0  0  0  0  0  0  0  0  0
    0.3262   -3.1799   -1.7168 C   0  0  1  0  0  0  0  0  0  0  0  0
   -0.1845   -4.2155   -0.7588 N   0  0  2  0  0  0  0  0  0  0  0  0
    0.5532   -4.2774    0.5388 C   0  0  0  0  0  0  0  0  0  0  0  0
   -0.2610   -5.5619   -1.3998 C   0  0  0  0  0  0  0  0  0  0  0  0
    0.6071    2.0614    2.7980 H   0  0  0  0  0  0  0  0  0  0  0  0
    0.2414    0.3405    4.4965 H   0  0  0  0  0  0  0  0  0  0  0  0
   -1.0249   -1.6552    3.8993 H   0  0  0  0  0  0  0  0  0  0  0  0
   -1.9052   -1.9035    1.6535 H   0  0  0  0  0  0  0  0  0  0  0  0
   -3.2626    1.8128    0.5775 H   0  0  0  0  0  0  0  0  0  0  0  0
   -5.6477    1.9796    0.6942 H   0  0  0  0  0  0  0  0  0  0  0  0
   -7.0452    0.1873   -0.1588 H   0  0  0  0  0  0  0  0  0  0  0  0
   -6.0206   -1.7872   -1.1241 H   0  0  0  0  0  0  0  0  0  0  0  0
   -3.6375   -1.9767   -1.2684 H   0  0  0  0  0  0  0  0  0  0  0  0
    0.7553   -1.5174   -0.3786 H   0  0  0  0  0  0  0  0  0  0  0  0
    0.5082   -1.0749   -2.0685 H   0  0  0  0  0  0  0  0  0  0  0  0
   -0.1197    1.0652   -1.4339 H   0  0  0  0  0  0  0  0  0  0  0  0
   -1.5577    0.7997   -2.4273 H   0  0  0  0  0  0  0  0  0  0  0  0
   -1.5772    1.9659   -1.1000 H   0  0  0  0  0  0  0  0  0  0  0  0
   -0.2171   -3.2673   -2.6644 H   0  0  0  0  0  0  0  0  0  0  0  0
    1.3861   -3.3546   -1.9316 H   0  0  0  0  0  0  0  0  0  0  0  0
    0.4983   -3.3258    1.0647 H   0  0  0  0  0  0  0  0  0  0  0  0
    0.1055   -5.0274    1.1942 H   0  0  0  0  0  0  0  0  0  0  0  0
    1.6055   -4.5334    0.3909 H   0  0  0  0  0  0  0  0  0  0  0  0
   -0.8782   -5.5205   -2.2987 H   0  0  0  0  0  0  0  0  0  0  0  0
   -0.7215   -6.2840   -0.7231 H   0  0  0  0  0  0  0  0  0  0  0  0
    0.7335   -5.9238   -1.6735 H   0  0  0  0  0  0  0  0  0  0  0  0
  1  2  2  0  0  0  0 
  2  3  1  0  0  0  0 
  3  4  2  0  0  0  0 
  4  5  1  0  0  0  0 
  5  6  2  0  0  0  0 
  1  6  1  0  0  0  0 
  7  5  1  0  0  0  0 
  7  8  1  0  0  0  0 
  7  9  1  0  0  0  0 
 10 11  1  0  0  0  0 
 11 12  2  0  0  0  0 
 12 13  1  0  0  0  0 
 13 14  2  0  0  0  0 
  9 10  2  0  0  0  0 
  9 14  1  0  0  0  0 
  8 15  1  0  0  0  0 
  7 16  1  0  0  0  0 
 15 17  1  0  0  0  0 
 17 18  1  0  0  0  0 
 18 19  1  0  0  0  0 
 18 20  1  0  0  0  0 
  1 21  1  0  0  0  0 
  2 22  1  0  0  0  0 
  3 23  1  0  0  0  0 
  4 24  1  0  0  0  0 
 10 25  1  0  0  0  0 
 11 26  1  0  0  0  0 
 12 27  1  0  0  0  0 
 13 28  1  0  0  0  0 
 14 29  1  0  0  0  0 
 15 30  1  0  0  0  0 
 15 31  1  0  0  0  0 
 16 32  1  0  0  0  0 
 16 33  1  0  0  0  0 
 16 34  1  0  0  0  0 
 17 35  1  0  0  0  0 
 17 36  1  0  0  0  0 
 19 37  1  0  0  0  0 
 19 38  1  0  0  0  0 
 19 39  1  0  0  0  0 
 20 40  1  0  0  0  0 
 20 41  1  0  0  0  0 
 20 42  1  0  0  0  0 
M  END
> <cdk:Title>
doxylamine

> <Conformer>
1

> <SuperDrugID>
SD000854

$$$$
