dimethylphthalate
  CDK     0628171802

 24 24  0  0  0  0  0  0  0  0999 V2000
   -2.9878    0.0880    3.2078 C   0  0  0  0  0  0  0  0  0  0  0  0
   -3.1839    0.9060    4.2846 O   0  0  0  0  0  0  0  0  0  0  0  0
   -3.0821   -1.1539    3.3656 O   0  0  0  0  0  0  0  0  0  0  0  0
   -2.7325    0.6258    1.9140 C   0  0  0  0  0  0  0  0  0  0  0  0
   -3.4334    0.4790    5.6286 C   0  0  0  0  0  0  0  0  0  0  0  0
   -1.9618    1.8078    1.6696 C   0  0  0  0  0  0  0  0  0  0  0  0
   -3.3156   -0.0482    0.8080 C   0  0  0  0  0  0  0  0  0  0  0  0
   -1.2763    2.5414    2.6797 C   0  0  0  0  0  0  0  0  0  0  0  0
   -1.8346    2.2743    0.3341 C   0  0  0  0  0  0  0  0  0  0  0  0
   -3.1686    0.4298   -0.5029 C   0  0  0  0  0  0  0  0  0  0  0  0
   -0.6826    1.9045    3.7327 O   0  0  0  0  0  0  0  0  0  0  0  0
   -1.1696    3.7891    2.5883 O   0  0  0  0  0  0  0  0  0  0  0  0
   -2.4269    1.5935   -0.7403 C   0  0  0  0  0  0  0  0  0  0  0  0
    0.0189    2.5373    4.8090 C   0  0  0  0  0  0  0  0  0  0  0  0
   -2.5838   -0.0924    6.0057 H   0  0  0  0  0  0  0  0  0  0  0  0
   -3.5775    1.3555    6.2571 H   0  0  0  0  0  0  0  0  0  0  0  0
   -4.3302   -0.1415    5.6740 H   0  0  0  0  0  0  0  0  0  0  0  0
   -3.8726   -0.8979    0.9413 H   0  0  0  0  0  0  0  0  0  0  0  0
   -1.2930    3.1169    0.1183 H   0  0  0  0  0  0  0  0  0  0  0  0
   -3.6062   -0.0663   -1.2831 H   0  0  0  0  0  0  0  0  0  0  0  0
   -2.3133    1.9421   -1.6952 H   0  0  0  0  0  0  0  0  0  0  0  0
    0.8530    3.1293    4.4281 H   0  0  0  0  0  0  0  0  0  0  0  0
    0.4053    1.7711    5.4781 H   0  0  0  0  0  0  0  0  0  0  0  0
   -0.6562    3.1882    5.3669 H   0  0  0  0  0  0  0  0  0  0  0  0
  1  2  1  0  0  0  0 
  1  3  2  0  0  0  0 
  1  4  1  0  0  0  0 
  2  5  1  0  0  0  0 
  4  6  2  0  0  0  0 
  4  7  1  0  0  0  0 
  6  8  1  0  0  0  0 
  6  9  1  0  0  0  0 
  7 10  2  0  0  0  0 
  8 11  1  0  0  0  0 
  8 12  2  0  0  0  0 
  9 13  2  0  0  0  0 
 10 13  1  0  0  0  0 
 11 14  1  0  0  0  0 
  5 15  1  0  0  0  0 
  5 16  1  0  0  0  0 
  5 17  1  0  0  0  0 
  7 18  1  0  0  0  0 
  9 19  1  0  0  0  0 
 10 20  1  0  0  0  0 
 13 21  1  0  0  0  0 
 14 22  1  0  0  0  0 
 14 23  1  0  0  0  0 
 14 24  1  0  0  0  0 
M  END
> <cdk:Title>
dimethylphthalate

> <Conformer>
1

> <SuperDrugID>
SD003753

$$$$
