dapsone
  CDK     0628171802

 29 30  0  0  0  0  0  0  0  0999 V2000
    2.6565    3.9343    0.0893 S   0  0  1  0  0  0  0  0  0  0  0  0
    2.3739    4.8294    1.3922 O   0  0  0  0  0  0  0  0  0  0  0  0
    2.2986    4.8236   -1.2001 O   0  0  0  0  0  0  0  0  0  0  0  0
    4.3710    3.4716    0.0368 C   0  0  0  0  0  0  0  0  0  0  0  0
    1.6385    2.4782    0.1091 C   0  0  0  0  0  0  0  0  0  0  0  0
    5.0393    3.3275   -1.1968 C   0  0  0  0  0  0  0  0  0  0  0  0
    5.0749    3.2343    1.2347 C   0  0  0  0  0  0  0  0  0  0  0  0
    1.2161    1.8968    1.3236 C   0  0  0  0  0  0  0  0  0  0  0  0
    1.2599    1.8804   -1.1091 C   0  0  0  0  0  0  0  0  0  0  0  0
    6.4011    2.9709   -1.2310 C   0  0  0  0  0  0  0  0  0  0  0  0
    6.4363    2.8777    1.2017 C   0  0  0  0  0  0  0  0  0  0  0  0
    0.4294    0.7281    1.3147 C   0  0  0  0  0  0  0  0  0  0  0  0
    0.4800    0.7093   -1.1187 C   0  0  0  0  0  0  0  0  0  0  0  0
    7.1066    2.7434   -0.0314 C   0  0  0  0  0  0  0  0  0  0  0  0
    0.0652    0.1235    0.0943 C   0  0  0  0  0  0  0  0  0  0  0  0
    8.4118    2.4007   -0.0624 N   0  0  0  0  0  0  0  0  0  0  0  0
   -0.6683   -1.0095    0.0902 N   0  0  0  0  0  0  0  0  0  0  0  0
    4.5393    3.4808   -2.0757 H   0  0  0  0  0  0  0  0  0  0  0  0
    4.6001    3.3198    2.1364 H   0  0  0  0  0  0  0  0  0  0  0  0
    1.4814    2.3152    2.2180 H   0  0  0  0  0  0  0  0  0  0  0  0
    1.5546    2.2918   -1.9965 H   0  0  0  0  0  0  0  0  0  0  0  0
    6.8734    2.8772   -2.1338 H   0  0  0  0  0  0  0  0  0  0  0  0
    6.9336    2.7160    2.0808 H   0  0  0  0  0  0  0  0  0  0  0  0
    0.1271    0.3170    2.2024 H   0  0  0  0  0  0  0  0  0  0  0  0
    0.2201    0.2877   -2.0130 H   0  0  0  0  0  0  0  0  0  0  0  0
    8.8735    2.3103   -0.9122 H   0  0  0  0  0  0  0  0  0  0  0  0
    8.8958    2.2461    0.7656 H   0  0  0  0  0  0  0  0  0  0  0  0
   -0.8959   -1.4410   -0.7511 H   0  0  0  0  0  0  0  0  0  0  0  0
   -0.9644   -1.4028    0.9279 H   0  0  0  0  0  0  0  0  0  0  0  0
  1  2  2  0  0  0  0 
  1  3  2  0  0  0  0 
  1  4  1  0  0  0  0 
  1  5  1  0  0  0  0 
  4  6  2  0  0  0  0 
  4  7  1  0  0  0  0 
  5  8  2  0  0  0  0 
  5  9  1  0  0  0  0 
  6 10  1  0  0  0  0 
  7 11  2  0  0  0  0 
  8 12  1  0  0  0  0 
  9 13  2  0  0  0  0 
 10 14  2  0  0  0  0 
 11 14  1  0  0  0  0 
 12 15  2  0  0  0  0 
 13 15  1  0  0  0  0 
 14 16  1  0  0  0  0 
 15 17  1  0  0  0  0 
  6 18  1  0  0  0  0 
  7 19  1  0  0  0  0 
  8 20  1  0  0  0  0 
  9 21  1  0  0  0  0 
 10 22  1  0  0  0  0 
 11 23  1  0  0  0  0 
 12 24  1  0  0  0  0 
 13 25  1  0  0  0  0 
 16 26  1  0  0  0  0 
 16 27  1  0  0  0  0 
 17 28  1  0  0  0  0 
 17 29  1  0  0  0  0 
M  END
> <cdk:Title>
dapsone

> <Conformer>
1

> <SuperDrugID>
SD000689

$$$$
