zolpidem
  CDK     0628171801

 44 46  0  0  0  0  0  0  0  0999 V2000
    2.4765   -6.1408   -1.9906 C   0  0  0  0  0  0  0  0  0  0  0  0
    3.3915   -5.0762   -1.8319 C   0  0  0  0  0  0  0  0  0  0  0  0
    2.9013   -3.8264   -1.3914 C   0  0  0  0  0  0  0  0  0  0  0  0
    1.5365   -3.6513   -1.0987 C   0  0  0  0  0  0  0  0  0  0  0  0
    0.6273   -4.7253   -1.2289 C   0  0  0  0  0  0  0  0  0  0  0  0
    1.1115   -5.9682   -1.6963 C   0  0  0  0  0  0  0  0  0  0  0  0
   -0.7425   -4.5813   -0.9034 C   0  0  0  0  0  0  0  0  0  0  0  0
   -1.7264   -4.9641   -1.7368 N   0  0  0  0  0  0  0  0  0  0  0  0
   -2.8816   -4.6817   -1.1215 C   0  0  0  0  0  0  0  0  0  0  0  0
   -2.6611   -4.1339    0.0930 N   0  0  0  0  0  0  0  0  0  0  0  0
   -1.3226   -4.0776    0.2758 C   0  0  0  0  0  0  0  0  0  0  0  0
   -4.1809   -4.8931   -1.6061 C   0  0  0  0  0  0  0  0  0  0  0  0
   -5.2564   -4.5037   -0.7853 C   0  0  0  0  0  0  0  0  0  0  0  0
   -5.0263   -3.9194    0.4855 C   0  0  0  0  0  0  0  0  0  0  0  0
   -3.6854   -3.7456    0.9079 C   0  0  0  0  0  0  0  0  0  0  0  0
   -0.6191   -3.6136    1.5018 C   0  0  1  0  0  0  0  0  0  0  0  0
   -1.0004   -4.3597    2.7323 C   0  0  0  0  0  0  0  0  0  0  0  0
   -0.8059   -5.7241    2.9410 N   0  0  0  0  0  0  0  0  0  0  0  0
   -1.5063   -3.6543    3.6415 O   0  0  0  0  0  0  0  0  0  0  0  0
   -0.1956   -6.5748    1.9384 C   0  0  0  0  0  0  0  0  0  0  0  0
   -1.1817   -6.3238    4.2034 C   0  0  0  0  0  0  0  0  0  0  0  0
   -6.1405   -3.4914    1.3629 C   0  0  0  0  0  0  0  0  0  0  0  0
    4.8275   -5.2911   -2.1275 C   0  0  0  0  0  0  0  0  0  0  0  0
    2.7983   -7.0559   -2.3164 H   0  0  0  0  0  0  0  0  0  0  0  0
    3.5352   -3.0330   -1.2777 H   0  0  0  0  0  0  0  0  0  0  0  0
    1.2132   -2.7318   -0.7878 H   0  0  0  0  0  0  0  0  0  0  0  0
    0.4791   -6.7675   -1.8076 H   0  0  0  0  0  0  0  0  0  0  0  0
   -4.3390   -5.3101   -2.5260 H   0  0  0  0  0  0  0  0  0  0  0  0
   -6.2101   -4.6524   -1.1221 H   0  0  0  0  0  0  0  0  0  0  0  0
   -3.4950   -3.3209    1.8167 H   0  0  0  0  0  0  0  0  0  0  0  0
    0.4616   -3.7060    1.4022 H   0  0  0  0  0  0  0  0  0  0  0  0
   -0.8360   -2.5466    1.6101 H   0  0  0  0  0  0  0  0  0  0  0  0
    0.0567   -7.5668    2.3227 H   0  0  0  0  0  0  0  0  0  0  0  0
    0.7335   -6.1377    1.5678 H   0  0  0  0  0  0  0  0  0  0  0  0
   -0.8841   -6.7157    1.1032 H   0  0  0  0  0  0  0  0  0  0  0  0
   -1.3425   -7.3996    4.1185 H   0  0  0  0  0  0  0  0  0  0  0  0
   -0.3873   -6.1506    4.9320 H   0  0  0  0  0  0  0  0  0  0  0  0
   -2.1105   -5.9010    4.5902 H   0  0  0  0  0  0  0  0  0  0  0  0
   -6.0147   -2.4404    1.6318 H   0  0  0  0  0  0  0  0  0  0  0  0
   -6.1386   -4.0935    2.2734 H   0  0  0  0  0  0  0  0  0  0  0  0
   -7.1102   -3.6046    0.8734 H   0  0  0  0  0  0  0  0  0  0  0  0
    5.4199   -4.3863   -1.9738 H   0  0  0  0  0  0  0  0  0  0  0  0
    5.2257   -6.0758   -1.4805 H   0  0  0  0  0  0  0  0  0  0  0  0
    4.9423   -5.6029   -3.1666 H   0  0  0  0  0  0  0  0  0  0  0  0
  1  2  2  0  0  0  0 
  1  6  1  0  0  0  0 
  2  3  1  0  0  0  0 
  3  4  2  0  0  0  0 
  4  5  1  0  0  0  0 
  5  6  2  0  0  0  0 
  5  7  1  0  0  0  0 
  8  9  2  0  0  0  0 
  9 10  1  0  0  0  0 
 10 11  1  0  0  0  0 
  7  8  1  0  0  0  0 
  7 11  2  0  0  0  0 
 12 13  2  0  0  0  0 
 13 14  1  0  0  0  0 
 14 15  2  0  0  0  0 
  9 12  1  0  0  0  0 
 10 15  1  0  0  0  0 
 11 16  1  0  0  0  0 
 16 17  1  0  0  0  0 
 17 18  1  0  0  0  0 
 17 19  2  0  0  0  0 
 18 20  1  0  0  0  0 
 18 21  1  0  0  0  0 
 14 22  1  0  0  0  0 
  2 23  1  0  0  0  0 
  1 24  1  0  0  0  0 
  3 25  1  0  0  0  0 
  4 26  1  0  0  0  0 
  6 27  1  0  0  0  0 
 12 28  1  0  0  0  0 
 13 29  1  0  0  0  0 
 15 30  1  0  0  0  0 
 16 31  1  0  0  0  0 
 16 32  1  0  0  0  0 
 20 33  1  0  0  0  0 
 20 34  1  0  0  0  0 
 20 35  1  0  0  0  0 
 21 36  1  0  0  0  0 
 21 37  1  0  0  0  0 
 21 38  1  0  0  0  0 
 22 39  1  0  0  0  0 
 22 40  1  0  0  0  0 
 22 41  1  0  0  0  0 
 23 42  1  0  0  0  0 
 23 43  1  0  0  0  0 
 23 44  1  0  0  0  0 
M  END
> <cdk:Title>
zolpidem

> <Conformer>
1

> <SuperDrugID>
SD002586

$$$$
