meclozine
  CDK     0628171801

 55 58  0  0  0  0  0  0  0  0999 V2000
   -0.8689   -1.0972   -0.1575 C   0  0  2  0  0  0  0  0  0  0  0  0
   -0.1085   -2.1068    0.6774 N   0  0  1  0  0  0  0  0  0  0  0  0
   -1.0854   -1.5598   -1.5690 C   0  0  0  0  0  0  0  0  0  0  0  0
   -0.2561    0.2774   -0.1804 C   0  0  0  0  0  0  0  0  0  0  0  0
    0.0646   -1.6737    2.1033 C   0  0  2  0  0  0  0  0  0  0  0  0
   -0.6726   -3.5017    0.6526 C   0  0  1  0  0  0  0  0  0  0  0  0
    0.0041   -1.7762   -2.4487 C   0  0  0  0  0  0  0  0  0  0  0  0
   -2.3887   -1.8461   -2.0458 C   0  0  0  0  0  0  0  0  0  0  0  0
    1.1501    0.4604   -0.2093 C   0  0  0  0  0  0  0  0  0  0  0  0
   -1.0719    1.4376   -0.1467 C   0  0  0  0  0  0  0  0  0  0  0  0
    0.9574   -2.6555    2.8878 C   0  0  2  0  0  0  0  0  0  0  0  0
    0.1830   -4.5047    1.4693 C   0  0  2  0  0  0  0  0  0  0  0  0
   -0.2013   -2.2323   -3.7624 C   0  0  0  0  0  0  0  0  0  0  0  0
   -2.5961   -2.3191   -3.3546 C   0  0  0  0  0  0  0  0  0  0  0  0
    1.7190    1.7460   -0.1799 C   0  0  0  0  0  0  0  0  0  0  0  0
   -0.5054    2.7258   -0.1140 C   0  0  0  0  0  0  0  0  0  0  0  0
    0.3788   -4.0369    2.8762 N   0  0  1  0  0  0  0  0  0  0  0  0
   -1.5035   -2.5047   -4.2210 C   0  0  0  0  0  0  0  0  0  0  0  0
    0.8916    2.8809   -0.1261 C   0  0  0  0  0  0  0  0  0  0  0  0
    1.0972   -5.0402    3.7327 C   0  0  2  0  0  0  0  0  0  0  0  0
   -1.7517   -3.0648   -5.8001 Cl  0  0  0  0  0  0  0  0  0  0  0  0
    1.1853   -4.6098    5.1559 C   0  0  0  0  0  0  0  0  0  0  0  0
    2.3019   -3.8630    5.5997 C   0  0  0  0  0  0  0  0  0  0  0  0
    0.1251   -4.8490    6.0602 C   0  0  0  0  0  0  0  0  0  0  0  0
    2.3247   -3.2725    6.8817 C   0  0  0  0  0  0  0  0  0  0  0  0
    0.1624   -4.3150    7.3612 C   0  0  0  0  0  0  0  0  0  0  0  0
    3.4200   -2.3577    7.2694 C   0  0  0  0  0  0  0  0  0  0  0  0
    1.2468   -3.5148    7.7628 C   0  0  0  0  0  0  0  0  0  0  0  0
   -1.8454   -1.0004    0.3320 H   0  0  0  0  0  0  0  0  0  0  0  0
   -0.9076   -1.6011    2.6016 H   0  0  0  0  0  0  0  0  0  0  0  0
    0.5468   -0.6978    2.1733 H   0  0  0  0  0  0  0  0  0  0  0  0
   -1.6917   -3.4994    1.0523 H   0  0  0  0  0  0  0  0  0  0  0  0
   -0.7097   -3.8854   -0.3689 H   0  0  0  0  0  0  0  0  0  0  0  0
    0.9628   -1.6090   -2.1416 H   0  0  0  0  0  0  0  0  0  0  0  0
   -3.2039   -1.7238   -1.4402 H   0  0  0  0  0  0  0  0  0  0  0  0
    1.7773   -0.3454   -0.2326 H   0  0  0  0  0  0  0  0  0  0  0  0
   -2.0923    1.3539   -0.1368 H   0  0  0  0  0  0  0  0  0  0  0  0
    1.0114   -2.2594    3.9030 H   0  0  0  0  0  0  0  0  0  0  0  0
    1.9646   -2.6565    2.4590 H   0  0  0  0  0  0  0  0  0  0  0  0
    1.1508   -4.6332    0.9724 H   0  0  0  0  0  0  0  0  0  0  0  0
   -0.3360   -5.4679    1.4619 H   0  0  0  0  0  0  0  0  0  0  0  0
    0.6037   -2.3717   -4.3777 H   0  0  0  0  0  0  0  0  0  0  0  0
   -3.5465   -2.5324   -3.6676 H   0  0  0  0  0  0  0  0  0  0  0  0
    2.7354    1.8560   -0.1860 H   0  0  0  0  0  0  0  0  0  0  0  0
   -1.1099    3.5513   -0.0834 H   0  0  0  0  0  0  0  0  0  0  0  0
    1.3058    3.8151   -0.0933 H   0  0  0  0  0  0  0  0  0  0  0  0
    2.0962   -5.2283    3.3278 H   0  0  0  0  0  0  0  0  0  0  0  0
    0.5659   -5.9955    3.6959 H   0  0  0  0  0  0  0  0  0  0  0  0
    3.0837   -3.7034    4.9586 H   0  0  0  0  0  0  0  0  0  0  0  0
   -0.6861   -5.4033    5.7764 H   0  0  0  0  0  0  0  0  0  0  0  0
   -0.6062   -4.4967    8.0120 H   0  0  0  0  0  0  0  0  0  0  0  0
    3.6683   -2.4767    8.3237 H   0  0  0  0  0  0  0  0  0  0  0  0
    4.3243   -2.5345    6.6851 H   0  0  0  0  0  0  0  0  0  0  0  0
    3.0931   -1.3321    7.0953 H   0  0  0  0  0  0  0  0  0  0  0  0
    1.2412   -3.1074    8.7020 H   0  0  0  0  0  0  0  0  0  0  0  0
  1  2  1  0  0  0  0 
  1  3  1  0  0  0  0 
  1  4  1  0  0  0  0 
  2  5  1  0  0  0  0 
  2  6  1  0  0  0  0 
  3  7  2  0  0  0  0 
  3  8  1  0  0  0  0 
  4  9  2  0  0  0  0 
  4 10  1  0  0  0  0 
  5 11  1  0  0  0  0 
  6 12  1  0  0  0  0 
  7 13  1  0  0  0  0 
  8 14  2  0  0  0  0 
  9 15  1  0  0  0  0 
 10 16  2  0  0  0  0 
 11 17  1  0  0  0  0 
 12 17  1  0  0  0  0 
 13 18  2  0  0  0  0 
 14 18  1  0  0  0  0 
 15 19  2  0  0  0  0 
 16 19  1  0  0  0  0 
 17 20  1  0  0  0  0 
 18 21  1  0  0  0  0 
 20 22  1  0  0  0  0 
 22 23  2  0  0  0  0 
 22 24  1  0  0  0  0 
 23 25  1  0  0  0  0 
 24 26  2  0  0  0  0 
 25 27  1  0  0  0  0 
 25 28  2  0  0  0  0 
 26 28  1  0  0  0  0 
  1 29  1  0  0  0  0 
  5 30  1  0  0  0  0 
  5 31  1  0  0  0  0 
  6 32  1  0  0  0  0 
  6 33  1  0  0  0  0 
  7 34  1  0  0  0  0 
  8 35  1  0  0  0  0 
  9 36  1  0  0  0  0 
 10 37  1  0  0  0  0 
 11 38  1  0  0  0  0 
 11 39  1  0  0  0  0 
 12 40  1  0  0  0  0 
 12 41  1  0  0  0  0 
 13 42  1  0  0  0  0 
 14 43  1  0  0  0  0 
 15 44  1  0  0  0  0 
 16 45  1  0  0  0  0 
 19 46  1  0  0  0  0 
 20 47  1  0  0  0  0 
 20 48  1  0  0  0  0 
 23 49  1  0  0  0  0 
 24 50  1  0  0  0  0 
 26 51  1  0  0  0  0 
 27 52  1  0  0  0  0 
 27 53  1  0  0  0  0 
 27 54  1  0  0  0  0 
 28 55  1  0  0  0  0 
M  END
> <cdk:Title>
meclozine

> <Conformer>
1

> <SuperDrugID>
SD001459

$$$$
