delmadinone acetate
  CDK     0628171801

 55 58  0  0  0  0  0  0  0  0999 V2000
   -7.4251    1.1612    4.3636 O   0  0  0  0  0  0  0  0  0  0  0  0
   -7.8265    1.6112    5.5947 C   0  0  0  0  0  0  0  0  0  0  0  0
   -7.9905    0.1397    3.5035 C   0  0  1  0  0  0  0  0  0  0  0  0
   -7.0645    2.6800    6.2542 C   0  0  0  0  0  0  0  0  0  0  0  0
   -8.8318    1.1413    6.1759 O   0  0  0  0  0  0  0  0  0  0  0  0
   -9.4286    0.5106    3.2526 C   0  0  0  0  0  0  0  0  0  0  0  0
   -7.0869    0.0218    2.2035 C   0  0  2  0  0  0  0  0  0  0  0  0
   -7.7851   -1.2614    4.1955 C   0  0  2  0  0  0  0  0  0  0  0  0
   -9.8531    1.8414    2.7714 C   0  0  0  0  0  0  0  0  0  0  0  0
  -10.3538   -0.3120    3.4549 O   0  0  0  0  0  0  0  0  0  0  0  0
   -7.8597   -0.7572    1.0621 C   0  0  0  0  0  0  0  0  0  0  0  0
   -5.8565   -0.7475    2.8037 C   0  0  1  0  0  0  0  0  0  0  0  0
   -6.5242    1.3601    1.5870 C   0  0  2  0  0  0  0  0  0  0  0  0
   -6.4830   -1.8813    3.6357 C   0  0  1  0  0  0  0  0  0  0  0  0
   -4.7655   -1.0906    1.7383 C   0  0  1  0  0  0  0  0  0  0  0  0
   -5.3484    1.1465    0.5756 C   0  0  2  0  0  0  0  0  0  0  0  0
   -4.1904    0.2546    1.1492 C   0  0  2  0  0  0  0  0  0  0  0  0
   -3.7122   -2.0065    2.1812 C   0  0  0  0  0  0  0  0  0  0  0  0
   -2.9363   -0.0453    0.2239 C   0  0  2  0  0  0  0  0  0  0  0  0
   -2.4174   -1.8857    1.8219 C   0  0  0  0  0  0  0  0  0  0  0  0
   -3.2705   -0.9273   -1.0322 C   0  0  0  0  0  0  0  0  0  0  0  0
   -1.9666   -0.7880    1.1032 C   0  0  0  0  0  0  0  0  0  0  0  0
   -2.3785    1.2132   -0.3230 C   0  0  0  0  0  0  0  0  0  0  0  0
   -1.3953   -3.1419    2.2572 Cl  0  0  0  0  0  0  0  0  0  0  0  0
   -0.6972   -0.3359    1.2538 C   0  0  0  0  0  0  0  0  0  0  0  0
   -1.1011    1.5835   -0.1392 C   0  0  0  0  0  0  0  0  0  0  0  0
   -0.2426    0.8044    0.6128 C   0  0  0  0  0  0  0  0  0  0  0  0
    0.9565    1.1490    0.7345 O   0  0  0  0  0  0  0  0  0  0  0  0
   -6.2105    2.9699    5.6403 H   0  0  0  0  0  0  0  0  0  0  0  0
   -7.7008    3.5547    6.4051 H   0  0  0  0  0  0  0  0  0  0  0  0
   -6.6967    2.3332    7.2242 H   0  0  0  0  0  0  0  0  0  0  0  0
   -8.6024   -1.9558    3.9861 H   0  0  0  0  0  0  0  0  0  0  0  0
   -7.7154   -1.1671    5.2828 H   0  0  0  0  0  0  0  0  0  0  0  0
  -10.2836    1.7506    1.7730 H   0  0  0  0  0  0  0  0  0  0  0  0
   -9.0204    2.5448    2.7359 H   0  0  0  0  0  0  0  0  0  0  0  0
  -10.6133    2.2474    3.4418 H   0  0  0  0  0  0  0  0  0  0  0  0
   -8.6961   -0.1632    0.6910 H   0  0  0  0  0  0  0  0  0  0  0  0
   -8.2611   -1.7056    1.4159 H   0  0  0  0  0  0  0  0  0  0  0  0
   -7.2349   -0.9751    0.1987 H   0  0  0  0  0  0  0  0  0  0  0  0
   -5.3510   -0.1044    3.5383 H   0  0  0  0  0  0  0  0  0  0  0  0
   -6.1572    2.0149    2.3814 H   0  0  0  0  0  0  0  0  0  0  0  0
   -7.3225    1.9074    1.0780 H   0  0  0  0  0  0  0  0  0  0  0  0
   -5.8127   -2.2010    4.4395 H   0  0  0  0  0  0  0  0  0  0  0  0
   -6.7038   -2.7442    3.0024 H   0  0  0  0  0  0  0  0  0  0  0  0
   -5.2497   -1.6446    0.9348 H   0  0  0  0  0  0  0  0  0  0  0  0
   -4.9587    2.1366    0.3249 H   0  0  0  0  0  0  0  0  0  0  0  0
   -5.7349    0.7142   -0.3473 H   0  0  0  0  0  0  0  0  0  0  0  0
   -3.7987    0.8364    1.9938 H   0  0  0  0  0  0  0  0  0  0  0  0
   -3.9901   -2.7960    2.7196 H   0  0  0  0  0  0  0  0  0  0  0  0
   -2.3850   -1.0616   -1.6611 H   0  0  0  0  0  0  0  0  0  0  0  0
   -3.6159   -1.9243   -0.7573 H   0  0  0  0  0  0  0  0  0  0  0  0
   -4.0485   -0.4655   -1.6431 H   0  0  0  0  0  0  0  0  0  0  0  0
   -2.9563    1.8051   -0.8761 H   0  0  0  0  0  0  0  0  0  0  0  0
   -0.0579   -0.8038    1.8544 H   0  0  0  0  0  0  0  0  0  0  0  0
   -0.7693    2.4262   -0.5528 H   0  0  0  0  0  0  0  0  0  0  0  0
  1  2  1  0  0  0  0 
  2  4  1  0  0  0  0 
  2  5  2  0  0  0  0 
  3  1  1  0  0  0  0 
  3  6  1  0  0  0  0 
  7  3  1  0  0  0  0 
  3  8  1  0  0  0  0 
  6  9  1  0  0  0  0 
  6 10  2  0  0  0  0 
  7 11  1  0  0  0  0 
  7 12  1  0  0  0  0 
  7 13  1  0  0  0  0 
  8 14  1  0  0  0  0 
 12 14  1  0  0  0  0 
 12 15  1  0  0  0  0 
 13 16  1  0  0  0  0 
 15 17  1  0  0  0  0 
 15 18  1  0  0  0  0 
 17 16  1  0  0  0  0 
 17 19  1  0  0  0  0 
 18 20  2  0  0  0  0 
 19 21  1  0  0  0  0 
 19 22  1  0  0  0  0 
 19 23  1  0  0  0  0 
 20 22  1  0  0  0  0 
 20 24  1  0  0  0  0 
 22 25  2  0  0  0  0 
 23 26  2  0  0  0  0 
 25 27  1  0  0  0  0 
 26 27  1  0  0  0  0 
 27 28  2  0  0  0  0 
 29  4  1  0  0  0  0 
 30  4  1  0  0  0  0 
 31  4  1  0  0  0  0 
 32  8  1  0  0  0  0 
 33  8  1  0  0  0  0 
 34  9  1  0  0  0  0 
 35  9  1  0  0  0  0 
 36  9  1  0  0  0  0 
 37 11  1  0  0  0  0 
 38 11  1  0  0  0  0 
 39 11  1  0  0  0  0 
 12 40  1  0  0  0  0 
 41 13  1  0  0  0  0 
 42 13  1  0  0  0  0 
 43 14  1  0  0  0  0 
 44 14  1  0  0  0  0 
 15 45  1  0  0  0  0 
 46 16  1  0  0  0  0 
 47 16  1  0  0  0  0 
 17 48  1  0  0  0  0 
 49 18  1  0  0  0  0 
 50 21  1  0  0  0  0 
 51 21  1  0  0  0  0 
 52 21  1  0  0  0  0 
 53 23  1  0  0  0  0 
 54 25  1  0  0  0  0 
 55 26  1  0  0  0  0 
M  END
> <cdk:Title>
delmadinone acetate

> <Conformer>
1

> <SuperDrugID>
SD002714

$$$$
