glucurolactone
  CDK     0628171801

 20 20  0  0  0  0  0  0  0  0999 V2000
    0.0397    1.2289   -0.7478 C   0  0  2  0  0  0  0  0  0  0  0  0
    0.2005   -0.0577   -0.0469 C   0  0  0  0  0  0  0  0  0  0  0  0
   -0.9177    1.9834   -0.0089 O   0  0  0  0  0  0  0  0  0  0  0  0
   -0.4406    1.0445   -2.2165 C   0  0  2  0  0  0  0  0  0  0  0  0
    1.3195   -0.4323    0.3691 O   0  0  0  0  0  0  0  0  0  0  0  0
    0.5638    0.3891   -3.2179 C   0  0  2  0  0  0  0  0  0  0  0  0
   -0.7223    2.3176   -2.7910 O   0  0  0  0  0  0  0  0  0  0  0  0
    1.7985   -0.0080   -2.6175 O   0  0  0  0  0  0  0  0  0  0  0  0
    0.7784    1.4279   -4.3497 C   0  0  1  0  0  0  0  0  0  0  0  0
   -0.0745    2.5390   -3.9461 C   0  0  0  0  0  0  0  0  0  0  0  0
    2.1269    1.8739   -4.4755 O   0  0  0  0  0  0  0  0  0  0  0  0
   -0.2133    3.5937   -4.6051 O   0  0  0  0  0  0  0  0  0  0  0  0
   -1.3786    0.4802   -2.2164 H   0  0  0  0  0  0  0  0  0  0  0  0
    0.9816    1.7859   -0.7360 H   0  0  0  0  0  0  0  0  0  0  0  0
   -0.6101   -0.6590    0.1120 H   0  0  0  0  0  0  0  0  0  0  0  0
   -0.9900    2.8396   -0.4800 H   0  0  0  0  0  0  0  0  0  0  0  0
    0.1102   -0.5133   -3.6402 H   0  0  0  0  0  0  0  0  0  0  0  0
    2.3286   -0.3910   -3.3479 H   0  0  0  0  0  0  0  0  0  0  0  0
    0.4410    1.0369   -5.3132 H   0  0  0  0  0  0  0  0  0  0  0  0
    2.6226    1.0922   -4.7969 H   0  0  0  0  0  0  0  0  0  0  0  0
  1  2  1  0  0  0  0 
  1  3  1  0  0  0  0 
  4  1  1  0  0  0  0 
  2  5  2  0  0  0  0 
  6  4  1  0  0  0  0 
  4  7  1  0  0  0  0 
  4 13  1  0  0  0  0 
  6  8  1  0  0  0  0 
  9  6  1  0  0  0  0 
  7 10  1  0  0  0  0 
  9 10  1  0  0  0  0 
  9 11  1  0  0  0  0 
 10 12  2  0  0  0  0 
  1 14  1  0  0  0  0 
  2 15  1  0  0  0  0 
  3 16  1  0  0  0  0 
  6 17  1  0  0  0  0 
  8 18  1  0  0  0  0 
  9 19  1  0  0  0  0 
 11 20  1  0  0  0  0 
M  END
> <cdk:Title>
glucurolactone

> <Conformer>
1

> <SuperDrugID>
SD002821

$$$$
