bepotastine
  CDK     0628171801

 52 54  0  0  0  0  0  0  0  0999 V2000
    1.8628    3.7549    0.1400 C   0  0  1  0  0  0  0  0  0  0  0  0
    3.1621    3.7170   -0.5104 O   0  0  0  0  0  0  0  0  0  0  0  0
    1.2276    2.4011    0.1081 C   0  0  0  0  0  0  0  0  0  0  0  0
    1.8966    4.2752    1.5363 C   0  0  0  0  0  0  0  0  0  0  0  0
    3.9431    4.9359   -0.6320 C   0  0  2  0  0  0  0  0  0  0  0  0
    1.9951    1.2247    0.2935 C   0  0  0  0  0  0  0  0  0  0  0  0
   -0.1672    2.2572   -0.1104 C   0  0  0  0  0  0  0  0  0  0  0  0
    2.8092    3.7966    2.5064 C   0  0  0  0  0  0  0  0  0  0  0  0
    1.0289    5.2645    1.8934 N   0  0  0  0  0  0  0  0  0  0  0  0
    3.2282    6.0371   -1.4699 C   0  0  2  0  0  0  0  0  0  0  0  0
    5.3122    4.5382   -1.2607 C   0  0  1  0  0  0  0  0  0  0  0  0
    1.3961   -0.0473    0.2453 C   0  0  0  0  0  0  0  0  0  0  0  0
   -0.7706    0.9860   -0.1566 C   0  0  0  0  0  0  0  0  0  0  0  0
    2.8043    4.3460    3.8009 C   0  0  0  0  0  0  0  0  0  0  0  0
    0.9960    5.8126    3.1361 C   0  0  0  0  0  0  0  0  0  0  0  0
    4.1897    7.2029   -1.8178 C   0  0  1  0  0  0  0  0  0  0  0  0
    6.1728    5.7661   -1.6782 C   0  0  1  0  0  0  0  0  0  0  0  0
    0.0123   -0.1706    0.0194 C   0  0  0  0  0  0  0  0  0  0  0  0
    1.8897    5.3628    4.1239 C   0  0  0  0  0  0  0  0  0  0  0  0
    5.4157    6.7344   -2.5386 N   0  0  1  0  0  0  0  0  0  0  0  0
   -0.7056   -1.7031   -0.0332 Cl  0  0  0  0  0  0  0  0  0  0  0  0
    5.2310    6.2517   -3.9505 C   0  0  2  0  0  0  0  0  0  0  0  0
    4.5239    7.2236   -4.9328 C   0  0  1  0  0  0  0  0  0  0  0  0
    4.4669    6.6226   -6.3621 C   0  0  1  0  0  0  0  0  0  0  0  0
    3.7172    7.4614   -7.3131 C   0  0  0  0  0  0  0  0  0  0  0  0
    4.1624    8.6960   -7.6348 O   0  0  0  0  0  0  0  0  0  0  0  0
    2.6673    7.0454   -7.8528 O   0  0  0  0  0  0  0  0  0  0  0  0
    1.2356    4.4162   -0.4641 H   0  0  0  0  0  0  0  0  0  0  0  0
    4.1484    5.3392    0.3651 H   0  0  0  0  0  0  0  0  0  0  0  0
    3.0026    1.2835    0.4589 H   0  0  0  0  0  0  0  0  0  0  0  0
   -0.7596    3.0808   -0.2417 H   0  0  0  0  0  0  0  0  0  0  0  0
    3.4808    3.0621    2.2782 H   0  0  0  0  0  0  0  0  0  0  0  0
    2.3897    6.4430   -0.8998 H   0  0  0  0  0  0  0  0  0  0  0  0
    2.8251    5.5965   -2.3851 H   0  0  0  0  0  0  0  0  0  0  0  0
    5.8765    3.9373   -0.5450 H   0  0  0  0  0  0  0  0  0  0  0  0
    5.1378    3.9055   -2.1348 H   0  0  0  0  0  0  0  0  0  0  0  0
    1.9768   -0.8796    0.3738 H   0  0  0  0  0  0  0  0  0  0  0  0
   -1.7793    0.9124   -0.3193 H   0  0  0  0  0  0  0  0  0  0  0  0
    3.4642    4.0063    4.5062 H   0  0  0  0  0  0  0  0  0  0  0  0
    0.3236    6.5484    3.3497 H   0  0  0  0  0  0  0  0  0  0  0  0
    3.6562    7.9587   -2.3933 H   0  0  0  0  0  0  0  0  0  0  0  0
    4.4938    7.6961   -0.8885 H   0  0  0  0  0  0  0  0  0  0  0  0
    6.5237    6.2863   -0.7824 H   0  0  0  0  0  0  0  0  0  0  0  0
    7.0678    5.4154   -2.1960 H   0  0  0  0  0  0  0  0  0  0  0  0
    1.8760    5.7698    5.0615 H   0  0  0  0  0  0  0  0  0  0  0  0
    4.6743    5.3128   -3.9573 H   0  0  0  0  0  0  0  0  0  0  0  0
    6.2212    6.0409   -4.3661 H   0  0  0  0  0  0  0  0  0  0  0  0
    3.5015    7.4101   -4.5954 H   0  0  0  0  0  0  0  0  0  0  0  0
    5.0670    8.1727   -4.9475 H   0  0  0  0  0  0  0  0  0  0  0  0
    5.4824    6.4940   -6.7443 H   0  0  0  0  0  0  0  0  0  0  0  0
    3.9958    5.6368   -6.3121 H   0  0  0  0  0  0  0  0  0  0  0  0
    3.6661    9.2402   -8.2797 H   0  0  0  0  0  0  0  0  0  0  0  0
  1  2  1  0  0  0  0 
  1  3  1  0  0  0  0 
  1  4  1  0  0  0  0 
  2  5  1  0  0  0  0 
  3  6  2  0  0  0  0 
  3  7  1  0  0  0  0 
  4  8  2  0  0  0  0 
  4  9  1  0  0  0  0 
  5 10  1  0  0  0  0 
  5 11  1  0  0  0  0 
  6 12  1  0  0  0  0 
  7 13  2  0  0  0  0 
  8 14  1  0  0  0  0 
  9 15  2  0  0  0  0 
 10 16  1  0  0  0  0 
 11 17  1  0  0  0  0 
 12 18  2  0  0  0  0 
 13 18  1  0  0  0  0 
 14 19  2  0  0  0  0 
 15 19  1  0  0  0  0 
 16 20  1  0  0  0  0 
 17 20  1  0  0  0  0 
 18 21  1  0  0  0  0 
 20 22  1  0  0  0  0 
 22 23  1  0  0  0  0 
 23 24  1  0  0  0  0 
 24 25  1  0  0  0  0 
 25 26  1  0  0  0  0 
 25 27  2  0  0  0  0 
  1 28  1  0  0  0  0 
  5 29  1  0  0  0  0 
  6 30  1  0  0  0  0 
  7 31  1  0  0  0  0 
  8 32  1  0  0  0  0 
 10 33  1  0  0  0  0 
 10 34  1  0  0  0  0 
 11 35  1  0  0  0  0 
 11 36  1  0  0  0  0 
 12 37  1  0  0  0  0 
 13 38  1  0  0  0  0 
 14 39  1  0  0  0  0 
 15 40  1  0  0  0  0 
 16 41  1  0  0  0  0 
 16 42  1  0  0  0  0 
 17 43  1  0  0  0  0 
 17 44  1  0  0  0  0 
 19 45  1  0  0  0  0 
 22 46  1  0  0  0  0 
 22 47  1  0  0  0  0 
 23 48  1  0  0  0  0 
 23 49  1  0  0  0  0 
 24 50  1  0  0  0  0 
 24 51  1  0  0  0  0 
 26 52  1  0  0  0  0 
M  END
> <cdk:Title>
bepotastine

> <Conformer>
1

> <SuperDrugID>
SD000287

$$$$
