tranilast
  CDK     0628171801

 41 42  0  0  0  0  0  0  0  0999 V2000
    2.8958    3.6547    6.0386 N   0  0  0  0  0  0  0  0  0  0  0  0
    2.5495    4.5482    5.0580 C   0  0  0  0  0  0  0  0  0  0  0  0
    3.2980    3.9220    7.3231 C   0  0  0  0  0  0  0  0  0  0  0  0
    2.0825    4.1412    3.8145 C   0  0  0  0  0  0  0  0  0  0  0  0
    2.6362    5.7854    5.2530 O   0  0  0  0  0  0  0  0  0  0  0  0
    4.3183    3.1388    7.9479 C   0  0  0  0  0  0  0  0  0  0  0  0
    2.6559    4.9455    8.0666 C   0  0  0  0  0  0  0  0  0  0  0  0
    2.1917    2.8990    3.2981 C   0  0  0  0  0  0  0  0  0  0  0  0
    5.0089    2.0760    7.2924 C   0  0  0  0  0  0  0  0  0  0  0  0
    4.6775    3.4463    9.2866 C   0  0  0  0  0  0  0  0  0  0  0  0
    3.0254    5.2218    9.3916 C   0  0  0  0  0  0  0  0  0  0  0  0
    1.6672    2.4487    2.0747 C   0  0  0  0  0  0  0  0  0  0  0  0
    5.7401    1.1655    7.9835 O   0  0  0  0  0  0  0  0  0  0  0  0
    4.9932    1.9209    6.0507 O   0  0  0  0  0  0  0  0  0  0  0  0
    4.0389    4.4724   10.0020 C   0  0  0  0  0  0  0  0  0  0  0  0
    0.6780    3.1542    1.3388 C   0  0  0  0  0  0  0  0  0  0  0  0
    2.1033    1.2055    1.5455 C   0  0  0  0  0  0  0  0  0  0  0  0
    0.1131    2.6277    0.1586 C   0  0  0  0  0  0  0  0  0  0  0  0
    1.5609    0.6834    0.3548 C   0  0  0  0  0  0  0  0  0  0  0  0
   -0.8705    3.3256   -0.4915 O   0  0  0  0  0  0  0  0  0  0  0  0
    0.5633    1.3889   -0.3447 C   0  0  0  0  0  0  0  0  0  0  0  0
   -2.1849    3.0509    0.0259 C   0  0  0  0  0  0  0  0  0  0  0  0
   -0.0052    0.8478   -1.4693 O   0  0  0  0  0  0  0  0  0  0  0  0
    0.6393    1.2411   -2.6932 C   0  0  0  0  0  0  0  0  0  0  0  0
    2.8728    2.7171    5.7924 H   0  0  0  0  0  0  0  0  0  0  0  0
    1.6336    4.8435    3.2759 H   0  0  0  0  0  0  0  0  0  0  0  0
    1.8950    5.4910    7.6562 H   0  0  0  0  0  0  0  0  0  0  0  0
    2.6975    2.2335    3.8365 H   0  0  0  0  0  0  0  0  0  0  0  0
    5.4220    2.9303    9.7636 H   0  0  0  0  0  0  0  0  0  0  0  0
    2.5560    5.9678    9.9098 H   0  0  0  0  0  0  0  0  0  0  0  0
    6.2191    0.4504    7.5132 H   0  0  0  0  0  0  0  0  0  0  0  0
    4.3112    4.6713   10.9682 H   0  0  0  0  0  0  0  0  0  0  0  0
    0.3252    4.0564    1.6597 H   0  0  0  0  0  0  0  0  0  0  0  0
    2.8220    0.6561    2.0255 H   0  0  0  0  0  0  0  0  0  0  0  0
    1.8875   -0.2189    0.0042 H   0  0  0  0  0  0  0  0  0  0  0  0
   -2.9014    3.6517   -0.5336 H   0  0  0  0  0  0  0  0  0  0  0  0
   -2.4509    1.9982   -0.0990 H   0  0  0  0  0  0  0  0  0  0  0  0
   -2.2636    3.3233    1.0817 H   0  0  0  0  0  0  0  0  0  0  0  0
    0.0946    0.7879   -3.5221 H   0  0  0  0  0  0  0  0  0  0  0  0
    0.6210    2.3256   -2.8278 H   0  0  0  0  0  0  0  0  0  0  0  0
    1.6708    0.8834   -2.7295 H   0  0  0  0  0  0  0  0  0  0  0  0
  1  2  1  0  0  0  0 
  1  3  1  0  0  0  0 
  2  4  1  0  0  0  0 
  2  5  2  0  0  0  0 
  3  6  2  0  0  0  0 
  3  7  1  0  0  0  0 
  4  8  2  0  0  0  0 
  6  9  1  0  0  0  0 
  6 10  1  0  0  0  0 
  7 11  2  0  0  0  0 
  8 12  1  0  0  0  0 
  9 13  1  0  0  0  0 
  9 14  2  0  0  0  0 
 10 15  2  0  0  0  0 
 11 15  1  0  0  0  0 
 12 16  2  0  0  0  0 
 12 17  1  0  0  0  0 
 16 18  1  0  0  0  0 
 17 19  2  0  0  0  0 
 18 20  1  0  0  0  0 
 18 21  2  0  0  0  0 
 19 21  1  0  0  0  0 
 20 22  1  0  0  0  0 
 21 23  1  0  0  0  0 
 23 24  1  0  0  0  0 
  1 25  1  0  0  0  0 
  4 26  1  0  0  0  0 
  7 27  1  0  0  0  0 
  8 28  1  0  0  0  0 
 10 29  1  0  0  0  0 
 11 30  1  0  0  0  0 
 13 31  1  0  0  0  0 
 15 32  1  0  0  0  0 
 16 33  1  0  0  0  0 
 17 34  1  0  0  0  0 
 19 35  1  0  0  0  0 
 22 36  1  0  0  0  0 
 22 37  1  0  0  0  0 
 22 38  1  0  0  0  0 
 24 39  1  0  0  0  0 
 24 40  1  0  0  0  0 
 24 41  1  0  0  0  0 
M  END
> <cdk:Title>
tranilast

> <Conformer>
1

> <SuperDrugID>
SD002445

$$$$
