disopyramide
  CDK     0628171802

 54 55  0  0  0  0  0  0  0  0999 V2000
    0.0792    1.0517    0.4801 C   0  0  1  0  0  0  0  0  0  0  0  0
   -0.8952    2.2918    0.3060 C   0  0  2  0  0  0  0  0  0  0  0  0
    1.4897    1.5838    0.3529 C   0  0  0  0  0  0  0  0  0  0  0  0
   -0.2005    0.4255    1.8423 C   0  0  0  0  0  0  0  0  0  0  0  0
   -0.0338    0.0446   -0.6465 C   0  0  0  0  0  0  0  0  0  0  0  0
   -2.4006    2.1398    0.7032 C   0  0  1  0  0  0  0  0  0  0  0  0
    1.8667    2.3438   -0.6980 N   0  0  0  0  0  0  0  0  0  0  0  0
    2.3931    1.3224    1.1796 O   0  0  0  0  0  0  0  0  0  0  0  0
   -0.8544   -0.8299    1.9981 C   0  0  0  0  0  0  0  0  0  0  0  0
    0.1281    1.1187    3.0408 C   0  0  0  0  0  0  0  0  0  0  0  0
    0.9025   -1.0119   -0.8137 C   0  0  0  0  0  0  0  0  0  0  0  0
   -1.0678    0.1012   -1.5337 N   0  0  0  0  0  0  0  0  0  0  0  0
   -3.3164    3.0610   -0.0775 N   0  0  2  0  0  0  0  0  0  0  0  0
   -1.1376   -1.3723    3.2628 C   0  0  0  0  0  0  0  0  0  0  0  0
   -0.1484    0.5801    4.3117 C   0  0  0  0  0  0  0  0  0  0  0  0
    0.7653   -1.9209   -1.8770 C   0  0  0  0  0  0  0  0  0  0  0  0
   -1.2474   -0.7696   -2.5586 C   0  0  0  0  0  0  0  0  0  0  0  0
   -3.5118    4.4855    0.4419 C   0  0  1  0  0  0  0  0  0  0  0  0
   -4.5591    2.3859   -0.6355 C   0  0  1  0  0  0  0  0  0  0  0  0
   -0.7833   -0.6676    4.4221 C   0  0  0  0  0  0  0  0  0  0  0  0
   -0.3209   -1.8054   -2.7596 C   0  0  0  0  0  0  0  0  0  0  0  0
   -2.2494    5.1632    1.0565 C   0  0  0  0  0  0  0  0  0  0  0  0
   -4.0633    5.4519   -0.6571 C   0  0  0  0  0  0  0  0  0  0  0  0
   -4.2378    1.2711   -1.6705 C   0  0  0  0  0  0  0  0  0  0  0  0
   -5.5492    1.8805    0.4524 C   0  0  0  0  0  0  0  0  0  0  0  0
   -0.8635    2.6263   -0.7351 H   0  0  0  0  0  0  0  0  0  0  0  0
   -0.4927    3.1123    0.8989 H   0  0  0  0  0  0  0  0  0  0  0  0
   -2.6647    1.0950    0.5476 H   0  0  0  0  0  0  0  0  0  0  0  0
   -2.5244    2.3113    1.7764 H   0  0  0  0  0  0  0  0  0  0  0  0
    1.2287    2.5673   -1.3931 H   0  0  0  0  0  0  0  0  0  0  0  0
    2.7788    2.6681   -0.7599 H   0  0  0  0  0  0  0  0  0  0  0  0
   -1.1489   -1.3736    1.1869 H   0  0  0  0  0  0  0  0  0  0  0  0
    0.5768    2.0360    2.9989 H   0  0  0  0  0  0  0  0  0  0  0  0
    1.6892   -1.1204   -0.1698 H   0  0  0  0  0  0  0  0  0  0  0  0
   -1.6048   -2.2798    3.3404 H   0  0  0  0  0  0  0  0  0  0  0  0
    0.1062    1.0964    5.1572 H   0  0  0  0  0  0  0  0  0  0  0  0
    1.4564   -2.6628   -2.0068 H   0  0  0  0  0  0  0  0  0  0  0  0
   -2.0546   -0.6661   -3.1750 H   0  0  0  0  0  0  0  0  0  0  0  0
   -4.2475    4.4547    1.2508 H   0  0  0  0  0  0  0  0  0  0  0  0
   -5.1147    3.1099   -1.2295 H   0  0  0  0  0  0  0  0  0  0  0  0
   -0.9880   -1.0628    5.3417 H   0  0  0  0  0  0  0  0  0  0  0  0
   -0.4319   -2.4607   -3.5352 H   0  0  0  0  0  0  0  0  0  0  0  0
   -2.4709    6.1759    1.4000 H   0  0  0  0  0  0  0  0  0  0  0  0
   -1.8987    4.6180    1.9326 H   0  0  0  0  0  0  0  0  0  0  0  0
   -1.4509    5.2234    0.3149 H   0  0  0  0  0  0  0  0  0  0  0  0
   -3.9609    6.5011   -0.3731 H   0  0  0  0  0  0  0  0  0  0  0  0
   -5.1279    5.2891   -0.8201 H   0  0  0  0  0  0  0  0  0  0  0  0
   -3.5320    5.2983   -1.5988 H   0  0  0  0  0  0  0  0  0  0  0  0
   -5.1257    1.0383   -2.2626 H   0  0  0  0  0  0  0  0  0  0  0  0
   -3.4531    1.6102   -2.3489 H   0  0  0  0  0  0  0  0  0  0  0  0
   -3.9162    0.3494   -1.1857 H   0  0  0  0  0  0  0  0  0  0  0  0
   -6.4451    1.4649   -0.0139 H   0  0  0  0  0  0  0  0  0  0  0  0
   -5.8610    2.7012    1.0989 H   0  0  0  0  0  0  0  0  0  0  0  0
   -5.0939    1.1056    1.0703 H   0  0  0  0  0  0  0  0  0  0  0  0
  1  2  1  0  0  0  0 
  1  3  1  0  0  0  0 
  1  4  1  0  0  0  0 
  1  5  1  0  0  0  0 
  2  6  1  0  0  0  0 
  3  7  1  0  0  0  0 
  3  8  2  0  0  0  0 
  4  9  2  0  0  0  0 
  4 10  1  0  0  0  0 
  5 11  2  0  0  0  0 
  5 12  1  0  0  0  0 
  6 13  1  0  0  0  0 
  9 14  1  0  0  0  0 
 10 15  2  0  0  0  0 
 11 16  1  0  0  0  0 
 12 17  2  0  0  0  0 
 13 18  1  0  0  0  0 
 13 19  1  0  0  0  0 
 14 20  2  0  0  0  0 
 15 20  1  0  0  0  0 
 16 21  2  0  0  0  0 
 17 21  1  0  0  0  0 
 18 22  1  0  0  0  0 
 18 23  1  0  0  0  0 
 19 24  1  0  0  0  0 
 19 25  1  0  0  0  0 
  2 26  1  0  0  0  0 
  2 27  1  0  0  0  0 
  6 28  1  0  0  0  0 
  6 29  1  0  0  0  0 
  7 30  1  0  0  0  0 
  7 31  1  0  0  0  0 
  9 32  1  0  0  0  0 
 10 33  1  0  0  0  0 
 11 34  1  0  0  0  0 
 14 35  1  0  0  0  0 
 15 36  1  0  0  0  0 
 16 37  1  0  0  0  0 
 17 38  1  0  0  0  0 
 18 39  1  0  0  0  0 
 19 40  1  0  0  0  0 
 20 41  1  0  0  0  0 
 21 42  1  0  0  0  0 
 22 43  1  0  0  0  0 
 22 44  1  0  0  0  0 
 22 45  1  0  0  0  0 
 23 46  1  0  0  0  0 
 23 47  1  0  0  0  0 
 23 48  1  0  0  0  0 
 24 49  1  0  0  0  0 
 24 50  1  0  0  0  0 
 24 51  1  0  0  0  0 
 25 52  1  0  0  0  0 
 25 53  1  0  0  0  0 
 25 54  1  0  0  0  0 
M  END
> <cdk:Title>
disopyramide

> <Conformer>
1

> <SuperDrugID>
SD000823

$$$$
