diclofenac
  CDK     0628171802

 30 31  0  0  0  0  0  0  0  0999 V2000
   -0.7242   -2.7348   -0.6658 N   0  0  0  0  0  0  0  0  0  0  0  0
   -0.6233   -3.1241   -1.9774 C   0  0  0  0  0  0  0  0  0  0  0  0
   -0.9236   -1.4854   -0.1567 C   0  0  0  0  0  0  0  0  0  0  0  0
   -0.2622   -4.4721   -2.2689 C   0  0  0  0  0  0  0  0  0  0  0  0
   -0.8974   -2.2390   -3.0505 C   0  0  0  0  0  0  0  0  0  0  0  0
   -2.0684   -1.2703    0.6529 C   0  0  0  0  0  0  0  0  0  0  0  0
    0.0010   -0.4250   -0.3523 C   0  0  0  0  0  0  0  0  0  0  0  0
   -0.0038   -5.4710   -1.1898 C   0  0  1  0  0  0  0  0  0  0  0  0
   -0.1603   -4.8817   -3.6215 C   0  0  0  0  0  0  0  0  0  0  0  0
   -0.7750   -2.6606   -4.3842 C   0  0  0  0  0  0  0  0  0  0  0  0
   -3.2125   -2.4937    0.9357 Cl  0  0  0  0  0  0  0  0  0  0  0  0
   -2.2847   -0.0118    1.2511 C   0  0  0  0  0  0  0  0  0  0  0  0
    1.4298   -0.6145   -1.2520 Cl  0  0  0  0  0  0  0  0  0  0  0  0
   -0.2308    0.8274    0.2514 C   0  0  0  0  0  0  0  0  0  0  0  0
   -1.2581   -5.8772   -0.5265 C   0  0  0  0  0  0  0  0  0  0  0  0
   -0.4058   -3.9824   -4.6715 C   0  0  0  0  0  0  0  0  0  0  0  0
   -1.3664    1.0325    1.0536 C   0  0  0  0  0  0  0  0  0  0  0  0
   -1.4597   -5.6210    0.7870 O   0  0  0  0  0  0  0  0  0  0  0  0
   -2.1586   -6.4644   -1.1677 O   0  0  0  0  0  0  0  0  0  0  0  0
   -0.7013   -3.4452   -0.0055 H   0  0  0  0  0  0  0  0  0  0  0  0
   -1.1932   -1.2771   -2.8732 H   0  0  0  0  0  0  0  0  0  0  0  0
    0.4743   -6.3714   -1.5846 H   0  0  0  0  0  0  0  0  0  0  0  0
    0.6902   -5.0451   -0.4586 H   0  0  0  0  0  0  0  0  0  0  0  0
    0.0832   -5.8482   -3.8571 H   0  0  0  0  0  0  0  0  0  0  0  0
   -0.9609   -2.0048   -5.1460 H   0  0  0  0  0  0  0  0  0  0  0  0
   -3.1076    0.1538    1.8361 H   0  0  0  0  0  0  0  0  0  0  0  0
    0.4340    1.5948    0.1186 H   0  0  0  0  0  0  0  0  0  0  0  0
   -0.3248   -4.2940   -5.6436 H   0  0  0  0  0  0  0  0  0  0  0  0
   -1.5227    1.9422    1.4943 H   0  0  0  0  0  0  0  0  0  0  0  0
   -2.3024   -5.8769    1.2164 H   0  0  0  0  0  0  0  0  0  0  0  0
  1  2  1  0  0  0  0 
  1  3  1  0  0  0  0 
  2  4  2  0  0  0  0 
  2  5  1  0  0  0  0 
  3  6  2  0  0  0  0 
  3  7  1  0  0  0  0 
  4  8  1  0  0  0  0 
  4  9  1  0  0  0  0 
  5 10  2  0  0  0  0 
  6 11  1  0  0  0  0 
  6 12  1  0  0  0  0 
  7 13  1  0  0  0  0 
  7 14  2  0  0  0  0 
  8 15  1  0  0  0  0 
  9 16  2  0  0  0  0 
 10 16  1  0  0  0  0 
 12 17  2  0  0  0  0 
 14 17  1  0  0  0  0 
 15 18  1  0  0  0  0 
 15 19  2  0  0  0  0 
  1 20  1  0  0  0  0 
  5 21  1  0  0  0  0 
  8 22  1  0  0  0  0 
  8 23  1  0  0  0  0 
  9 24  1  0  0  0  0 
 10 25  1  0  0  0  0 
 12 26  1  0  0  0  0 
 14 27  1  0  0  0  0 
 16 28  1  0  0  0  0 
 17 29  1  0  0  0  0 
 18 30  1  0  0  0  0 
M  END
> <cdk:Title>
diclofenac

> <Conformer>
1

> <SuperDrugID>
SD000768

$$$$
