bivalirudin
  CDK     0628171801

293298  0  0  0  0  0  0  0  0999 V2000
   -2.2572   -8.0176    1.5958 N   0  0  1  0  0  0  0  0  0  0  0  0
   -4.2833   -7.9392   -0.6243 N   0  0  0  0  0  0  0  0  0  0  0  0
   -3.8138   -5.1960   -1.4166 N   0  0  0  0  0  0  0  0  0  0  0  0
   -3.0429   -4.0008   -4.1852 N   0  0  0  0  0  0  0  0  0  0  0  0
   -4.8062   -1.7509   -6.2140 N   0  0  0  0  0  0  0  0  0  0  0  0
   -6.7709   -2.0435   -8.5451 N   0  0  0  0  0  0  0  0  0  0  0  0
   -9.4631   -1.3252   -9.4624 N   0  0  0  0  0  0  0  0  0  0  0  0
  -12.1754   -0.1006  -11.0675 N   0  0  0  0  0  0  0  0  0  0  0  0
  -12.2714    0.5412  -13.9382 N   0  0  0  0  0  0  0  0  0  0  0  0
  -12.6885   -1.7505  -16.5466 N   0  0  0  0  0  0  0  0  0  0  0  0
  -13.5625   -4.4022  -15.6233 N   0  0  0  0  0  0  0  0  0  0  0  0
  -16.7501   -5.2935  -15.7528 N   0  0  0  0  0  0  0  0  0  0  0  0
  -20.0014   -6.3769  -16.0541 N   0  0  0  0  0  0  0  0  0  0  0  0
  -23.1502   -6.7548  -15.7911 N   0  0  0  0  0  0  0  0  0  0  0  0
  -25.9623   -8.8311  -14.9689 N   0  0  0  0  0  0  0  0  0  0  0  0
  -24.0300  -11.0910  -14.2254 N   0  0  0  0  0  0  0  0  0  0  0  0
  -21.6011  -10.1826  -12.9365 N   0  0  0  0  0  0  0  0  0  0  0  0
  -21.6773   -7.9576  -11.0775 N   0  0  0  0  0  0  0  0  0  0  0  0
  -20.7269   -4.7614  -10.2980 N   0  0  0  0  0  0  0  0  0  0  0  0
  -21.1496   -2.0589   -9.3355 N   0  0  0  0  0  0  0  0  0  0  0  0
  -22.5012   -0.8089   -7.0855 O   0  0  0  0  0  0  0  0  0  0  0  0
   -2.9042   -8.0194   -0.7831 C   0  0  0  0  0  0  0  0  0  0  0  0
   -0.4404   -8.0561    0.0260 C   0  0  2  0  0  0  0  0  0  0  0  0
    0.2564   -8.6445   -1.1528 C   0  0  0  0  0  0  0  0  0  0  0  0
    0.6634   -7.8328   -2.2402 C   0  0  0  0  0  0  0  0  0  0  0  0
   -1.9238   -8.5052    0.2449 C   0  0  1  0  0  0  0  0  0  0  0  0
   -2.4380   -7.6709   -1.8937 O   0  0  0  0  0  0  0  0  0  0  0  0
    1.2609  -10.5789   -2.2789 C   0  0  0  0  0  0  0  0  0  0  0  0
    0.5637  -10.0256   -1.1888 C   0  0  0  0  0  0  0  0  0  0  0  0
    1.3567   -8.3866   -3.3321 C   0  0  0  0  0  0  0  0  0  0  0  0
    1.6565   -9.7599   -3.3514 C   0  0  0  0  0  0  0  0  0  0  0  0
   -4.9126   -5.8509   -1.8904 C   0  0  0  0  0  0  0  0  0  0  0  0
   -5.1783   -7.2834   -1.5617 C   0  0  2  0  0  0  0  0  0  0  0  0
   -6.5886   -7.4516   -0.9368 C   0  0  2  0  0  0  0  0  0  0  0  0
   -6.4426   -8.6808   -0.0365 C   0  0  2  0  0  0  0  0  0  0  0  0
   -4.9960   -8.5510    0.4584 C   0  0  1  0  0  0  0  0  0  0  0  0
   -5.7222   -5.2612   -2.6462 O   0  0  0  0  0  0  0  0  0  0  0  0
   -3.5157   -3.3491   -3.0498 C   0  0  0  0  0  0  0  0  0  0  0  0
   -2.0648   -3.5434   -0.9785 C   0  0  2  0  0  0  0  0  0  0  0  0
   -1.7410   -2.0318   -0.8269 C   0  0  2  0  0  0  0  0  0  0  0  0
   -0.3929   -1.7809   -0.1105 C   0  0  2  0  0  0  0  0  0  0  0  0
   -0.1819   -0.4106    0.0228 N   0  0  0  0  0  0  0  0  0  0  0  0
    0.8031    0.1989    0.5751 C   0  0  0  0  0  0  0  0  0  0  0  0
    0.7893    1.5114    0.5568 N   0  0  0  0  0  0  0  0  0  0  0  0
    1.8183   -0.4172    1.1467 N   0  0  0  0  0  0  0  0  0  0  0  0
   -3.4551   -3.8249   -1.6286 C   0  0  2  0  0  0  0  0  0  0  0  0
   -4.0519   -2.2228   -3.1913 O   0  0  0  0  0  0  0  0  0  0  0  0
   -4.5589   -3.0479   -5.8736 C   0  0  0  0  0  0  0  0  0  0  0  0
   -3.1711   -3.4602   -5.5214 C   0  0  2  0  0  0  0  0  0  0  0  0
   -2.6175   -4.5501   -6.4710 C   0  0  2  0  0  0  0  0  0  0  0  0
   -1.7014   -5.3811   -5.5666 C   0  0  2  0  0  0  0  0  0  0  0  0
   -2.3667   -5.2643   -4.1854 C   0  0  1  0  0  0  0  0  0  0  0  0
   -5.4875   -3.8877   -5.7956 O   0  0  0  0  0  0  0  0  0  0  0  0
   -6.4230   -0.9590   -7.8011 C   0  0  0  0  0  0  0  0  0  0  0  0
   -6.0917   -1.1479   -6.3774 C   0  0  1  0  0  0  0  0  0  0  0  0
   -6.4146    0.1990   -8.2827 O   0  0  0  0  0  0  0  0  0  0  0  0
   -8.6223   -2.2509  -10.0059 C   0  0  0  0  0  0  0  0  0  0  0  0
   -7.1672   -2.0286   -9.9175 C   0  0  1  0  0  0  0  0  0  0  0  0
   -9.0480   -3.2907  -10.5631 O   0  0  0  0  0  0  0  0  0  0  0  0
  -11.4651   -0.1289   -9.9037 C   0  0  0  0  0  0  0  0  0  0  0  0
  -10.8913   -1.3981   -9.4082 C   0  0  1  0  0  0  0  0  0  0  0  0
  -11.2918    0.9121   -9.2247 O   0  0  0  0  0  0  0  0  0  0  0  0
  -13.2202    0.8365  -13.0051 C   0  0  0  0  0  0  0  0  0  0  0  0
  -12.8155    1.0569  -11.6045 C   0  0  1  0  0  0  0  0  0  0  0  0
  -14.4289    0.9606  -13.3107 O   0  0  0  0  0  0  0  0  0  0  0  0
  -11.9111   -0.9071  -15.8062 C   0  0  0  0  0  0  0  0  0  0  0  0
  -11.8290    1.6117  -16.0667 C   0  0  2  0  0  0  0  0  0  0  0  0
  -11.9858    1.6050  -17.5387 C   0  0  0  0  0  0  0  0  0  0  0  0
  -12.7707    2.4973  -18.1667 N   0  0  0  0  0  0  0  0  0  0  0  0
  -11.3819    0.7635  -18.2420 O   0  0  0  0  0  0  0  0  0  0  0  0
  -12.4775    0.3898  -15.3517 C   0  0  2  0  0  0  0  0  0  0  0  0
  -10.7155   -1.1836  -15.5423 O   0  0  0  0  0  0  0  0  0  0  0  0
  -13.2778   -4.0379  -16.9021 C   0  0  0  0  0  0  0  0  0  0  0  0
  -12.2730   -2.9855  -17.1327 C   0  0  1  0  0  0  0  0  0  0  0  0
  -13.8313   -4.5886  -17.8837 O   0  0  0  0  0  0  0  0  0  0  0  0
  -15.7221   -5.0590  -14.8833 C   0  0  0  0  0  0  0  0  0  0  0  0
  -13.5946   -6.2038  -14.0349 C   0  0  2  0  0  0  0  0  0  0  0  0
  -14.1257   -7.5236  -13.6526 C   0  0  0  0  0  0  0  0  0  0  0  0
  -14.7337   -7.7234  -12.4589 O   0  0  0  0  0  0  0  0  0  0  0  0
  -13.9861   -8.4989  -14.4247 O   0  0  0  0  0  0  0  0  0  0  0  0
  -14.3523   -5.5260  -15.2179 C   0  0  2  0  0  0  0  0  0  0  0  0
  -15.9147   -4.4222  -13.8191 O   0  0  0  0  0  0  0  0  0  0  0  0
  -18.9752   -5.6107  -16.5289 C   0  0  0  0  0  0  0  0  0  0  0  0
  -18.2101   -3.3084  -15.8446 C   0  0  1  0  0  0  0  0  0  0  0  0
  -19.5194   -2.7245  -15.4416 C   0  0  0  0  0  0  0  0  0  0  0  0
  -19.7277   -2.2867  -14.1113 C   0  0  0  0  0  0  0  0  0  0  0  0
  -20.9502   -1.7052  -13.7311 C   0  0  0  0  0  0  0  0  0  0  0  0
  -21.9884   -1.5654  -14.6683 C   0  0  0  0  0  0  0  0  0  0  0  0
  -21.8003   -2.0090  -15.9904 C   0  0  0  0  0  0  0  0  0  0  0  0
  -20.5737   -2.5821  -16.3749 C   0  0  0  0  0  0  0  0  0  0  0  0
  -18.1067   -4.8472  -15.5927 C   0  0  2  0  0  0  0  0  0  0  0  0
  -18.7564   -5.5213  -17.7615 O   0  0  0  0  0  0  0  0  0  0  0  0
  -22.0420   -7.5302  -15.9306 C   0  0  0  0  0  0  0  0  0  0  0  0
  -20.2580   -8.3345  -17.5621 C   0  0  2  0  0  0  0  0  0  0  0  0
  -21.2113   -9.1690  -18.4590 C   0  0  1  0  0  0  0  0  0  0  0  0
  -20.4994  -10.2922  -19.0956 C   0  0  0  0  0  0  0  0  0  0  0  0
  -19.9562  -11.2711  -18.3335 O   0  0  0  0  0  0  0  0  0  0  0  0
  -20.3709  -10.3585  -20.3381 O   0  0  0  0  0  0  0  0  0  0  0  0
  -20.9404   -7.1265  -16.8435 C   0  0  2  0  0  0  0  0  0  0  0  0
  -21.9387   -8.5835  -15.2651 O   0  0  0  0  0  0  0  0  0  0  0  0
  -25.3062   -7.7509  -15.4926 C   0  0  0  0  0  0  0  0  0  0  0  0
  -24.6770   -5.5322  -14.3956 C   0  0  1  0  0  0  0  0  0  0  0  0
  -25.7630   -5.5067  -13.2830 C   0  0  1  0  0  0  0  0  0  0  0  0
  -26.0895   -4.1620  -12.7616 C   0  0  0  0  0  0  0  0  0  0  0  0
  -27.0446   -4.0334  -11.8115 O   0  0  0  0  0  0  0  0  0  0  0  0
  -25.5117   -3.1217  -13.1527 O   0  0  0  0  0  0  0  0  0  0  0  0
  -24.2241   -6.9524  -14.8505 C   0  0  2  0  0  0  0  0  0  0  0  0
  -25.6837   -7.4217  -16.6409 O   0  0  0  0  0  0  0  0  0  0  0  0
  -24.7285  -10.2675  -13.3468 C   0  0  0  0  0  0  0  0  0  0  0  0
  -27.2888  -10.0578  -13.2885 C   0  0  2  0  0  0  0  0  0  0  0  0
  -27.6168  -11.3013  -14.1709 C   0  0  0  0  0  0  0  0  0  0  0  0
  -25.9049   -9.3835  -13.6408 C   0  0  2  0  0  0  0  0  0  0  0  0
  -27.4265   -9.2787  -10.7674 C   0  0  0  0  0  0  0  0  0  0  0  0
  -27.4926  -10.4446  -11.7818 C   0  0  2  0  0  0  0  0  0  0  0  0
  -24.3860  -10.2774  -12.1385 O   0  0  0  0  0  0  0  0  0  0  0  0
  -21.8317  -11.5162  -13.0412 C   0  0  0  0  0  0  0  0  0  0  0  0
  -23.0087  -12.0310  -13.7956 C   0  0  2  0  0  0  0  0  0  0  0  0
  -22.5277  -12.7287  -15.0941 C   0  0  2  0  0  0  0  0  0  0  0  0
  -23.6901  -12.5351  -16.0682 C   0  0  2  0  0  0  0  0  0  0  0  0
  -24.2754  -11.1840  -15.6364 C   0  0  1  0  0  0  0  0  0  0  0  0
  -21.0284  -12.3434  -12.5469 O   0  0  0  0  0  0  0  0  0  0  0  0
  -20.8317   -8.1497  -12.1297 C   0  0  0  0  0  0  0  0  0  0  0  0
  -19.2952   -9.7113  -13.5246 C   0  0  2  0  0  0  0  0  0  0  0  0
  -17.9357   -9.0173  -13.2474 C   0  0  1  0  0  0  0  0  0  0  0  0
  -17.0259   -9.2255  -14.3895 C   0  0  0  0  0  0  0  0  0  0  0  0
  -16.8960   -8.2728  -15.3422 O   0  0  0  0  0  0  0  0  0  0  0  0
  -16.3925  -10.2978  -14.5146 O   0  0  0  0  0  0  0  0  0  0  0  0
  -20.4148   -9.5424  -12.4471 C   0  0  2  0  0  0  0  0  0  0  0  0
  -20.4630   -7.1738  -12.8253 O   0  0  0  0  0  0  0  0  0  0  0  0
  -21.1748   -5.9738   -9.8628 C   0  0  0  0  0  0  0  0  0  0  0  0
  -23.4931   -7.0042   -9.7843 C   0  0  1  0  0  0  0  0  0  0  0  0
  -24.2489   -5.7433   -9.2808 C   0  0  1  0  0  0  0  0  0  0  0  0
  -25.5108   -6.1008   -8.6023 C   0  0  0  0  0  0  0  0  0  0  0  0
  -25.4959   -6.8520   -7.4742 O   0  0  0  0  0  0  0  0  0  0  0  0
  -26.6147   -5.7234   -9.0564 O   0  0  0  0  0  0  0  0  0  0  0  0
  -22.2168   -6.7057  -10.6280 C   0  0  2  0  0  0  0  0  0  0  0  0
  -20.7018   -6.5031   -8.8278 O   0  0  0  0  0  0  0  0  0  0  0  0
  -20.0026   -2.5520   -9.8865 C   0  0  0  0  0  0  0  0  0  0  0  0
  -18.3003   -4.4536  -10.2622 C   0  0  2  0  0  0  0  0  0  0  0  0
  -17.1095   -3.9296   -9.5307 C   0  0  0  0  0  0  0  0  0  0  0  0
  -16.2163   -3.0129  -10.1362 C   0  0  0  0  0  0  0  0  0  0  0  0
  -15.0779   -2.5538   -9.4473 C   0  0  0  0  0  0  0  0  0  0  0  0
  -14.8076   -3.0031   -8.1413 C   0  0  0  0  0  0  0  0  0  0  0  0
  -13.7025   -2.5487   -7.4916 O   0  0  0  0  0  0  0  0  0  0  0  0
  -15.6838   -3.9210   -7.5294 C   0  0  0  0  0  0  0  0  0  0  0  0
  -16.8239   -4.3773   -8.2179 C   0  0  0  0  0  0  0  0  0  0  0  0
  -19.6809   -3.9895   -9.6878 C   0  0  2  0  0  0  0  0  0  0  0  0
  -19.2353   -1.8064  -10.5413 O   0  0  0  0  0  0  0  0  0  0  0  0
  -21.6915   -0.2165   -7.9961 C   0  0  0  0  0  0  0  0  0  0  0  0
  -25.1083    0.6409  -10.8166 C   0  0  0  0  0  0  0  0  0  0  0  0
  -22.9924   -0.6465  -10.1290 C   0  0  2  0  0  0  0  0  0  0  0  0
  -21.6180   -0.7036   -9.3919 C   0  0  2  0  0  0  0  0  0  0  0  0
  -22.8460    1.7906  -11.0500 C   0  0  0  0  0  0  0  0  0  0  0  0
  -23.6736    0.7612  -10.2280 C   0  0  1  0  0  0  0  0  0  0  0  0
  -20.9981    0.7550   -7.6180 O   0  0  0  0  0  0  0  0  0  0  0  0
   -2.4734   -7.0210    1.5269 H   0  0  0  0  0  0  0  0  0  0  0  0
   -3.0991   -8.4970    1.9140 H   0  0  0  0  0  0  0  0  0  0  0  0
   -3.2225   -5.7028   -0.8422 H   0  0  0  0  0  0  0  0  0  0  0  0
   -4.0359   -1.1678   -6.3162 H   0  0  0  0  0  0  0  0  0  0  0  0
   -6.7702   -2.9040   -8.0960 H   0  0  0  0  0  0  0  0  0  0  0  0
   -9.0503   -0.5452   -9.0581 H   0  0  0  0  0  0  0  0  0  0  0  0
  -12.2654   -0.9329  -11.5581 H   0  0  0  0  0  0  0  0  0  0  0  0
  -11.3601    0.4512  -13.6173 H   0  0  0  0  0  0  0  0  0  0  0  0
  -13.6067   -1.4810  -16.7079 H   0  0  0  0  0  0  0  0  0  0  0  0
  -13.1513   -3.8770  -14.9194 H   0  0  0  0  0  0  0  0  0  0  0  0
  -16.5373   -5.7818  -16.5640 H   0  0  0  0  0  0  0  0  0  0  0  0
  -20.1078   -6.4132  -15.0907 H   0  0  0  0  0  0  0  0  0  0  0  0
  -23.2165   -5.9802  -16.3725 H   0  0  0  0  0  0  0  0  0  0  0  0
  -26.5801   -9.2669  -15.5763 H   0  0  0  0  0  0  0  0  0  0  0  0
  -22.2909   -9.6001  -13.2892 H   0  0  0  0  0  0  0  0  0  0  0  0
  -21.9306   -8.7505  -10.5781 H   0  0  0  0  0  0  0  0  0  0  0  0
  -21.1349   -4.3989  -11.0998 H   0  0  0  0  0  0  0  0  0  0  0  0
  -21.7025   -2.6875   -8.8447 H   0  0  0  0  0  0  0  0  0  0  0  0
  -23.0631   -1.5704   -7.3408 H   0  0  0  0  0  0  0  0  0  0  0  0
   -0.4239   -6.9624   -0.0278 H   0  0  0  0  0  0  0  0  0  0  0  0
    0.1521   -8.3262    0.9061 H   0  0  0  0  0  0  0  0  0  0  0  0
    0.4601   -6.8304   -2.2447 H   0  0  0  0  0  0  0  0  0  0  0  0
   -1.9741   -9.5955    0.2761 H   0  0  0  0  0  0  0  0  0  0  0  0
    1.4841  -11.5765   -2.2897 H   0  0  0  0  0  0  0  0  0  0  0  0
    0.2919  -10.6366   -0.4146 H   0  0  0  0  0  0  0  0  0  0  0  0
    1.6458   -7.7895   -4.1102 H   0  0  0  0  0  0  0  0  0  0  0  0
    2.1634  -10.1618   -4.1433 H   0  0  0  0  0  0  0  0  0  0  0  0
   -5.1481   -7.8500   -2.4989 H   0  0  0  0  0  0  0  0  0  0  0  0
   -7.3594   -7.6018   -1.6974 H   0  0  0  0  0  0  0  0  0  0  0  0
   -6.8635   -6.5890   -0.3191 H   0  0  0  0  0  0  0  0  0  0  0  0
   -6.5654   -9.5958   -0.6237 H   0  0  0  0  0  0  0  0  0  0  0  0
   -7.1611   -8.6792    0.7877 H   0  0  0  0  0  0  0  0  0  0  0  0
   -4.6051   -9.5405    0.7108 H   0  0  0  0  0  0  0  0  0  0  0  0
   -4.9679   -7.9050    1.3398 H   0  0  0  0  0  0  0  0  0  0  0  0
   -2.0468   -3.9917    0.0195 H   0  0  0  0  0  0  0  0  0  0  0  0
   -1.2696   -4.0175   -1.5583 H   0  0  0  0  0  0  0  0  0  0  0  0
   -2.5447   -1.5512   -0.2602 H   0  0  0  0  0  0  0  0  0  0  0  0
   -1.7002   -1.5696   -1.8157 H   0  0  0  0  0  0  0  0  0  0  0  0
    0.4222   -2.2283   -0.6904 H   0  0  0  0  0  0  0  0  0  0  0  0
   -0.4196   -2.2407    0.8795 H   0  0  0  0  0  0  0  0  0  0  0  0
    0.0435    1.9768    0.1466 H   0  0  0  0  0  0  0  0  0  0  0  0
    1.5149    2.0170    0.9584 H   0  0  0  0  0  0  0  0  0  0  0  0
    1.8533   -1.3876    1.1649 H   0  0  0  0  0  0  0  0  0  0  0  0
    2.5313    0.0980    1.5546 H   0  0  0  0  0  0  0  0  0  0  0  0
   -4.1911   -3.2639   -1.0381 H   0  0  0  0  0  0  0  0  0  0  0  0
   -2.5043   -2.5910   -5.5803 H   0  0  0  0  0  0  0  0  0  0  0  0
   -2.0676   -4.1155   -7.3104 H   0  0  0  0  0  0  0  0  0  0  0  0
   -3.4120   -5.1923   -6.8628 H   0  0  0  0  0  0  0  0  0  0  0  0
   -0.6994   -4.9429   -5.5451 H   0  0  0  0  0  0  0  0  0  0  0  0
   -1.6325   -6.4198   -5.9007 H   0  0  0  0  0  0  0  0  0  0  0  0
   -1.6020   -5.3359   -3.4123 H   0  0  0  0  0  0  0  0  0  0  0  0
   -3.0887   -6.0732   -4.0591 H   0  0  0  0  0  0  0  0  0  0  0  0
   -6.8842   -1.7269   -5.8945 H   0  0  0  0  0  0  0  0  0  0  0  0
   -6.0515   -0.1810   -5.8696 H   0  0  0  0  0  0  0  0  0  0  0  0
   -6.9170   -1.0899  -10.4173 H   0  0  0  0  0  0  0  0  0  0  0  0
   -6.6202   -2.8241  -10.4276 H   0  0  0  0  0  0  0  0  0  0  0  0
  -11.2647   -2.2402  -10.0752 H   0  0  0  0  0  0  0  0  0  0  0  0
  -11.1507   -1.4650   -8.3047 H   0  0  0  0  0  0  0  0  0  0  0  0
  -13.6864    1.2923  -10.9848 H   0  0  0  0  0  0  0  0  0  0  0  0
  -12.1371    1.9134  -11.5834 H   0  0  0  0  0  0  0  0  0  0  0  0
  -12.2840    2.5239  -15.6648 H   0  0  0  0  0  0  0  0  0  0  0  0
  -10.7621    1.6586  -15.8342 H   0  0  0  0  0  0  0  0  0  0  0  0
  -12.8510    2.4725  -19.1316 H   0  0  0  0  0  0  0  0  0  0  0  0
  -13.2586    3.1653  -17.6596 H   0  0  0  0  0  0  0  0  0  0  0  0
  -13.5475    0.4067  -15.5872 H   0  0  0  0  0  0  0  0  0  0  0  0
  -12.1477   -2.8146  -18.2054 H   0  0  0  0  0  0  0  0  0  0  0  0
  -11.3160   -3.3352  -16.7366 H   0  0  0  0  0  0  0  0  0  0  0  0
  -12.5468   -6.3506  -14.3146 H   0  0  0  0  0  0  0  0  0  0  0  0
  -13.5992   -5.5435  -13.1630 H   0  0  0  0  0  0  0  0  0  0  0  0
  -14.8574   -6.9825  -11.8301 H   0  0  0  0  0  0  0  0  0  0  0  0
  -14.4083   -6.2518  -16.0374 H   0  0  0  0  0  0  0  0  0  0  0  0
  -18.0101   -3.0900  -16.8982 H   0  0  0  0  0  0  0  0  0  0  0  0
  -17.4225   -2.7932  -15.2891 H   0  0  0  0  0  0  0  0  0  0  0  0
  -18.9852   -2.3811  -13.4133 H   0  0  0  0  0  0  0  0  0  0  0  0
  -21.0805   -1.3784  -12.7729 H   0  0  0  0  0  0  0  0  0  0  0  0
  -22.8750   -1.1388  -14.3914 H   0  0  0  0  0  0  0  0  0  0  0  0
  -22.5543   -1.9097  -16.6733 H   0  0  0  0  0  0  0  0  0  0  0  0
  -20.4539   -2.8929  -17.3430 H   0  0  0  0  0  0  0  0  0  0  0  0
  -18.4159   -5.0615  -14.5634 H   0  0  0  0  0  0  0  0  0  0  0  0
  -19.4566   -7.9563  -18.1979 H   0  0  0  0  0  0  0  0  0  0  0  0
  -19.7900   -8.9833  -16.8186 H   0  0  0  0  0  0  0  0  0  0  0  0
  -22.0280   -9.5787  -17.8619 H   0  0  0  0  0  0  0  0  0  0  0  0
  -21.6415   -8.5176  -19.2239 H   0  0  0  0  0  0  0  0  0  0  0  0
  -19.4633  -12.0102  -18.7503 H   0  0  0  0  0  0  0  0  0  0  0  0
  -21.3505   -6.4590  -17.6085 H   0  0  0  0  0  0  0  0  0  0  0  0
  -25.0456   -4.9732  -15.2623 H   0  0  0  0  0  0  0  0  0  0  0  0
  -23.7954   -5.0070  -14.0136 H   0  0  0  0  0  0  0  0  0  0  0  0
  -26.6824   -5.9457  -13.6753 H   0  0  0  0  0  0  0  0  0  0  0  0
  -25.4261   -6.1123  -12.4394 H   0  0  0  0  0  0  0  0  0  0  0  0
  -27.2657   -3.1492  -11.4492 H   0  0  0  0  0  0  0  0  0  0  0  0
  -23.8498   -7.4751  -13.9665 H   0  0  0  0  0  0  0  0  0  0  0  0
  -28.0673   -9.3197  -13.5146 H   0  0  0  0  0  0  0  0  0  0  0  0
  -28.6085  -11.6935  -13.9326 H   0  0  0  0  0  0  0  0  0  0  0  0
  -26.8873  -12.0967  -14.0043 H   0  0  0  0  0  0  0  0  0  0  0  0
  -27.6232  -11.0397  -15.2294 H   0  0  0  0  0  0  0  0  0  0  0  0
  -25.8277   -8.5156  -12.9827 H   0  0  0  0  0  0  0  0  0  0  0  0
  -26.4111   -8.8922  -10.6846 H   0  0  0  0  0  0  0  0  0  0  0  0
  -27.7344   -9.6362   -9.7818 H   0  0  0  0  0  0  0  0  0  0  0  0
  -28.0965   -8.4708  -11.0671 H   0  0  0  0  0  0  0  0  0  0  0  0
  -26.7657  -11.2060  -11.4908 H   0  0  0  0  0  0  0  0  0  0  0  0
  -28.4840  -10.8929  -11.6660 H   0  0  0  0  0  0  0  0  0  0  0  0
  -23.5091  -12.7745  -13.1670 H   0  0  0  0  0  0  0  0  0  0  0  0
  -22.3095  -13.7892  -14.9348 H   0  0  0  0  0  0  0  0  0  0  0  0
  -21.6395  -12.2402  -15.5088 H   0  0  0  0  0  0  0  0  0  0  0  0
  -24.4299  -13.3282  -15.9265 H   0  0  0  0  0  0  0  0  0  0  0  0
  -23.3618  -12.5252  -17.1115 H   0  0  0  0  0  0  0  0  0  0  0  0
  -25.3320  -11.1677  -15.8964 H   0  0  0  0  0  0  0  0  0  0  0  0
  -23.7679  -10.3686  -16.1553 H   0  0  0  0  0  0  0  0  0  0  0  0
  -19.1009  -10.7808  -13.6430 H   0  0  0  0  0  0  0  0  0  0  0  0
  -19.6717   -9.3531  -14.4810 H   0  0  0  0  0  0  0  0  0  0  0  0
  -18.0764   -7.9446  -13.1131 H   0  0  0  0  0  0  0  0  0  0  0  0
  -17.4821   -9.4113  -12.3344 H   0  0  0  0  0  0  0  0  0  0  0  0
  -16.3047   -8.4160  -16.1103 H   0  0  0  0  0  0  0  0  0  0  0  0
  -20.0767  -10.0159  -11.5188 H   0  0  0  0  0  0  0  0  0  0  0  0
  -23.2237   -7.6260   -8.9240 H   0  0  0  0  0  0  0  0  0  0  0  0
  -24.1801   -7.5890  -10.4038 H   0  0  0  0  0  0  0  0  0  0  0  0
  -23.6247   -5.1953   -8.5723 H   0  0  0  0  0  0  0  0  0  0  0  0
  -24.4568   -5.0816  -10.1258 H   0  0  0  0  0  0  0  0  0  0  0  0
  -26.3358   -7.0980   -7.0319 H   0  0  0  0  0  0  0  0  0  0  0  0
  -22.5289   -6.1229  -11.5031 H   0  0  0  0  0  0  0  0  0  0  0  0
  -18.2424   -5.5464  -10.2290 H   0  0  0  0  0  0  0  0  0  0  0  0
  -18.2529   -4.1814  -11.3215 H   0  0  0  0  0  0  0  0  0  0  0  0
  -16.3903   -2.6750  -11.0857 H   0  0  0  0  0  0  0  0  0  0  0  0
  -14.4464   -1.8911   -9.9027 H   0  0  0  0  0  0  0  0  0  0  0  0
  -13.7924   -2.8460   -6.5603 H   0  0  0  0  0  0  0  0  0  0  0  0
  -15.4898   -4.2610   -6.5849 H   0  0  0  0  0  0  0  0  0  0  0  0
  -17.4392   -5.0496   -7.7536 H   0  0  0  0  0  0  0  0  0  0  0  0
  -19.6847   -4.1626   -8.6073 H   0  0  0  0  0  0  0  0  0  0  0  0
  -25.0767    0.2565  -11.8387 H   0  0  0  0  0  0  0  0  0  0  0  0
  -25.6008    1.6161  -10.8262 H   0  0  0  0  0  0  0  0  0  0  0  0
  -25.7161   -0.0322  -10.2082 H   0  0  0  0  0  0  0  0  0  0  0  0
  -23.6797   -1.3333   -9.6252 H   0  0  0  0  0  0  0  0  0  0  0  0
  -22.8538   -1.0301  -11.1425 H   0  0  0  0  0  0  0  0  0  0  0  0
  -20.9113   -0.0788   -9.9453 H   0  0  0  0  0  0  0  0  0  0  0  0
  -22.6592    1.4182  -12.0595 H   0  0  0  0  0  0  0  0  0  0  0  0
  -23.3815    2.7399  -11.1236 H   0  0  0  0  0  0  0  0  0  0  0  0
  -21.8897    1.9938  -10.5672 H   0  0  0  0  0  0  0  0  0  0  0  0
  -23.7837    1.1611   -9.2161 H   0  0  0  0  0  0  0  0  0  0  0  0
 22  2  1  0  0  0  0 
 32  3  1  0  0  0  0 
 38  4  1  0  0  0  0 
 48  5  1  0  0  0  0 
 54  6  1  0  0  0  0 
 57  7  1  0  0  0  0 
 60  8  1  0  0  0  0 
 63  9  1  0  0  0  0 
 66 10  1  0  0  0  0 
 73 11  1  0  0  0  0 
 76 12  1  0  0  0  0 
 83 13  1  0  0  0  0 
 93 14  1  0  0  0  0 
101 15  1  0  0  0  0 
109 16  1  0  0  0  0 
116 17  1  0  0  0  0 
122 18  1  0  0  0  0 
130 19  1  0  0  0  0 
138 20  1  0  0  0  0 
149 21  1  0  0  0  0 
 26  1  1  0  0  0  0 
 26 23  1  0  0  0  0 
 23 24  1  0  0  0  0 
 24 25  2  0  0  0  0 
 25 30  1  0  0  0  0 
 30 31  2  0  0  0  0 
 31 28  1  0  0  0  0 
 28 29  2  0  0  0  0 
 24 29  1  0  0  0  0 
 26 22  1  0  0  0  0 
 22 27  2  0  0  0  0 
 37 32  2  0  0  0  0 
 33 32  1  0  0  0  0 
 33 34  1  0  0  0  0 
 34 35  1  0  0  0  0 
 35 36  1  0  0  0  0 
 36  2  1  0  0  0  0 
 33  2  1  0  0  0  0 
 46  3  1  0  0  0  0 
 46 39  1  0  0  0  0 
 39 40  1  0  0  0  0 
 40 41  1  0  0  0  0 
 41 42  1  0  0  0  0 
 42 43  2  0  0  0  0 
 43 44  1  0  0  0  0 
 43 45  1  0  0  0  0 
 46 38  1  0  0  0  0 
 38 47  2  0  0  0  0 
 53 48  2  0  0  0  0 
 49 48  1  0  0  0  0 
 49 50  1  0  0  0  0 
 50 51  1  0  0  0  0 
 51 52  1  0  0  0  0 
 52  4  1  0  0  0  0 
 49  4  1  0  0  0  0 
  5 55  1  0  0  0  0 
 55 54  1  0  0  0  0 
 54 56  2  0  0  0  0 
  6 58  1  0  0  0  0 
 58 57  1  0  0  0  0 
 57 59  2  0  0  0  0 
  7 61  1  0  0  0  0 
 61 60  1  0  0  0  0 
 60 62  2  0  0  0  0 
  8 64  1  0  0  0  0 
 64 63  1  0  0  0  0 
 63 65  2  0  0  0  0 
 71  9  1  0  0  0  0 
 71 67  1  0  0  0  0 
 67 68  1  0  0  0  0 
 68 69  1  0  0  0  0 
 68 70  2  0  0  0  0 
 71 66  1  0  0  0  0 
 66 72  2  0  0  0  0 
 10 74  1  0  0  0  0 
 74 73  1  0  0  0  0 
 73 75  2  0  0  0  0 
 81 11  1  0  0  0  0 
 81 77  1  0  0  0  0 
 77 78  1  0  0  0  0 
 78 79  1  0  0  0  0 
 78 80  2  0  0  0  0 
 81 76  1  0  0  0  0 
 76 82  2  0  0  0  0 
 91 12  1  0  0  0  0 
 91 84  1  0  0  0  0 
 84 85  1  0  0  0  0 
 85 86  2  0  0  0  0 
 86 87  1  0  0  0  0 
 87 88  2  0  0  0  0 
 88 89  1  0  0  0  0 
 89 90  2  0  0  0  0 
 85 90  1  0  0  0  0 
 91 83  1  0  0  0  0 
 83 92  2  0  0  0  0 
 99 13  1  0  0  0  0 
 99 94  1  0  0  0  0 
 94 95  1  0  0  0  0 
 95 96  1  0  0  0  0 
 96 97  1  0  0  0  0 
 96 98  2  0  0  0  0 
 99 93  1  0  0  0  0 
 93100  2  0  0  0  0 
107 14  1  0  0  0  0 
107102  1  0  0  0  0 
102103  1  0  0  0  0 
103104  1  0  0  0  0 
104105  1  0  0  0  0 
104106  2  0  0  0  0 
107101  1  0  0  0  0 
101108  2  0  0  0  0 
113114  1  0  0  0  0 
110114  1  0  0  0  0 
110111  1  0  0  0  0 
110112  1  0  0  0  0 
112 15  1  0  0  0  0 
112109  1  0  0  0  0 
109115  2  0  0  0  0 
121116  2  0  0  0  0 
117116  1  0  0  0  0 
117118  1  0  0  0  0 
118119  1  0  0  0  0 
119120  1  0  0  0  0 
120 16  1  0  0  0  0 
117 16  1  0  0  0  0 
128 17  1  0  0  0  0 
128123  1  0  0  0  0 
123124  1  0  0  0  0 
124125  1  0  0  0  0 
125126  1  0  0  0  0 
125127  2  0  0  0  0 
128122  1  0  0  0  0 
122129  2  0  0  0  0 
136 18  1  0  0  0  0 
136131  1  0  0  0  0 
131132  1  0  0  0  0 
132133  1  0  0  0  0 
133134  1  0  0  0  0 
133135  2  0  0  0  0 
136130  1  0  0  0  0 
130137  2  0  0  0  0 
147 19  1  0  0  0  0 
147139  1  0  0  0  0 
139140  1  0  0  0  0 
140141  2  0  0  0  0 
141142  1  0  0  0  0 
142143  2  0  0  0  0 
143144  1  0  0  0  0 
143145  1  0  0  0  0 
145146  2  0  0  0  0 
140146  1  0  0  0  0 
147138  1  0  0  0  0 
138148  2  0  0  0  0 
153154  1  0  0  0  0 
154150  1  0  0  0  0 
154151  1  0  0  0  0 
152151  1  0  0  0  0 
152 20  1  0  0  0  0 
152149  1  0  0  0  0 
149155  2  0  0  0  0 
156  1  1  0  0  0  0 
157  1  1  0  0  0  0 
158  3  1  0  0  0  0 
159  5  1  0  0  0  0 
160  6  1  0  0  0  0 
161  7  1  0  0  0  0 
162  8  1  0  0  0  0 
163  9  1  0  0  0  0 
164 10  1  0  0  0  0 
165 11  1  0  0  0  0 
166 12  1  0  0  0  0 
167 13  1  0  0  0  0 
168 14  1  0  0  0  0 
169 15  1  0  0  0  0 
170 17  1  0  0  0  0 
171 18  1  0  0  0  0 
172 19  1  0  0  0  0 
173 20  1  0  0  0  0 
174 21  1  0  0  0  0 
175 23  1  0  0  0  0 
176 23  1  0  0  0  0 
177 25  1  0  0  0  0 
 26178  1  0  0  0  0 
179 28  1  0  0  0  0 
180 29  1  0  0  0  0 
181 30  1  0  0  0  0 
182 31  1  0  0  0  0 
 33183  1  0  0  0  0 
184 34  1  0  0  0  0 
185 34  1  0  0  0  0 
186 35  1  0  0  0  0 
187 35  1  0  0  0  0 
188 36  1  0  0  0  0 
189 36  1  0  0  0  0 
190 39  1  0  0  0  0 
191 39  1  0  0  0  0 
192 40  1  0  0  0  0 
193 40  1  0  0  0  0 
194 41  1  0  0  0  0 
195 41  1  0  0  0  0 
196 44  1  0  0  0  0 
197 44  1  0  0  0  0 
198 45  1  0  0  0  0 
199 45  1  0  0  0  0 
 46200  1  0  0  0  0 
 49201  1  0  0  0  0 
202 50  1  0  0  0  0 
203 50  1  0  0  0  0 
204 51  1  0  0  0  0 
205 51  1  0  0  0  0 
206 52  1  0  0  0  0 
207 52  1  0  0  0  0 
208 55  1  0  0  0  0 
209 55  1  0  0  0  0 
210 58  1  0  0  0  0 
211 58  1  0  0  0  0 
212 61  1  0  0  0  0 
213 61  1  0  0  0  0 
214 64  1  0  0  0  0 
215 64  1  0  0  0  0 
216 67  1  0  0  0  0 
217 67  1  0  0  0  0 
218 69  1  0  0  0  0 
219 69  1  0  0  0  0 
 71220  1  0  0  0  0 
221 74  1  0  0  0  0 
222 74  1  0  0  0  0 
223 77  1  0  0  0  0 
224 77  1  0  0  0  0 
225 79  1  0  0  0  0 
 81226  1  0  0  0  0 
227 84  1  0  0  0  0 
228 84  1  0  0  0  0 
229 86  1  0  0  0  0 
230 87  1  0  0  0  0 
231 88  1  0  0  0  0 
232 89  1  0  0  0  0 
233 90  1  0  0  0  0 
 91234  1  0  0  0  0 
235 94  1  0  0  0  0 
236 94  1  0  0  0  0 
237 95  1  0  0  0  0 
238 95  1  0  0  0  0 
239 97  1  0  0  0  0 
 99240  1  0  0  0  0 
241102  1  0  0  0  0 
242102  1  0  0  0  0 
243103  1  0  0  0  0 
244103  1  0  0  0  0 
245105  1  0  0  0  0 
107246  1  0  0  0  0 
110247  1  0  0  0  0 
248111  1  0  0  0  0 
249111  1  0  0  0  0 
250111  1  0  0  0  0 
112251  1  0  0  0  0 
252113  1  0  0  0  0 
253113  1  0  0  0  0 
254113  1  0  0  0  0 
255114  1  0  0  0  0 
256114  1  0  0  0  0 
117257  1  0  0  0  0 
258118  1  0  0  0  0 
259118  1  0  0  0  0 
260119  1  0  0  0  0 
261119  1  0  0  0  0 
262120  1  0  0  0  0 
263120  1  0  0  0  0 
264123  1  0  0  0  0 
265123  1  0  0  0  0 
266124  1  0  0  0  0 
267124  1  0  0  0  0 
268126  1  0  0  0  0 
128269  1  0  0  0  0 
270131  1  0  0  0  0 
271131  1  0  0  0  0 
272132  1  0  0  0  0 
273132  1  0  0  0  0 
274134  1  0  0  0  0 
136275  1  0  0  0  0 
276139  1  0  0  0  0 
277139  1  0  0  0  0 
278141  1  0  0  0  0 
279142  1  0  0  0  0 
280144  1  0  0  0  0 
281145  1  0  0  0  0 
282146  1  0  0  0  0 
147283  1  0  0  0  0 
284150  1  0  0  0  0 
285150  1  0  0  0  0 
286150  1  0  0  0  0 
287151  1  0  0  0  0 
288151  1  0  0  0  0 
152289  1  0  0  0  0 
290153  1  0  0  0  0 
291153  1  0  0  0  0 
292153  1  0  0  0  0 
293154  1  0  0  0  0 
M  END
> <cdk:Title>
bivalirudin

> <Conformer>
1

> <SuperDrugID>
SD000329

$$$$
