betamipron
  CDK     0628171801

 25 25  0  0  0  0  0  0  0  0999 V2000
   -0.6480   -1.2392    0.0700 C   0  0  0  0  0  0  0  0  0  0  0  0
   -1.9889   -1.3708   -0.1462 N   0  0  0  0  0  0  0  0  0  0  0  0
    0.0390   -2.2802    0.2167 O   0  0  0  0  0  0  0  0  0  0  0  0
   -0.0175    0.0381    0.1586 C   0  0  0  0  0  0  0  0  0  0  0  0
   -2.6981   -2.6120   -0.1983 C   0  0  2  0  0  0  0  0  0  0  0  0
   -0.6600    1.2244   -0.2835 C   0  0  0  0  0  0  0  0  0  0  0  0
    1.2845    0.1632    0.7115 C   0  0  0  0  0  0  0  0  0  0  0  0
   -4.2087   -2.3541   -0.4201 C   0  0  1  0  0  0  0  0  0  0  0  0
   -0.0355    2.4806   -0.1579 C   0  0  0  0  0  0  0  0  0  0  0  0
    1.9093    1.4158    0.8387 C   0  0  0  0  0  0  0  0  0  0  0  0
   -5.0026   -3.5966   -0.4581 C   0  0  0  0  0  0  0  0  0  0  0  0
    1.2478    2.5773    0.4067 C   0  0  0  0  0  0  0  0  0  0  0  0
   -5.9595   -3.8337    0.4679 O   0  0  0  0  0  0  0  0  0  0  0  0
   -4.8228   -4.4426   -1.3634 O   0  0  0  0  0  0  0  0  0  0  0  0
   -2.5103   -0.5645   -0.2669 H   0  0  0  0  0  0  0  0  0  0  0  0
   -2.5583   -3.1500    0.7436 H   0  0  0  0  0  0  0  0  0  0  0  0
   -2.3001   -3.2230   -1.0128 H   0  0  0  0  0  0  0  0  0  0  0  0
   -1.5900    1.1916   -0.7072 H   0  0  0  0  0  0  0  0  0  0  0  0
    1.7952   -0.6609    1.0398 H   0  0  0  0  0  0  0  0  0  0  0  0
   -4.5783   -1.7156    0.3872 H   0  0  0  0  0  0  0  0  0  0  0  0
   -4.3569   -1.8215   -1.3635 H   0  0  0  0  0  0  0  0  0  0  0  0
   -0.5146    3.3256   -0.4773 H   0  0  0  0  0  0  0  0  0  0  0  0
    2.8443    1.4820    1.2486 H   0  0  0  0  0  0  0  0  0  0  0  0
    1.6979    3.4893    0.5072 H   0  0  0  0  0  0  0  0  0  0  0  0
   -6.4942   -4.6544    0.4244 H   0  0  0  0  0  0  0  0  0  0  0  0
  1  2  1  0  0  0  0 
  1  3  2  0  0  0  0 
  1  4  1  0  0  0  0 
  2  5  1  0  0  0  0 
  4  6  2  0  0  0  0 
  4  7  1  0  0  0  0 
  5  8  1  0  0  0  0 
  6  9  1  0  0  0  0 
  7 10  2  0  0  0  0 
  8 11  1  0  0  0  0 
  9 12  2  0  0  0  0 
 10 12  1  0  0  0  0 
 11 13  1  0  0  0  0 
 11 14  2  0  0  0  0 
  2 15  1  0  0  0  0 
  5 16  1  0  0  0  0 
  5 17  1  0  0  0  0 
  6 18  1  0  0  0  0 
  7 19  1  0  0  0  0 
  8 20  1  0  0  0  0 
  8 21  1  0  0  0  0 
  9 22  1  0  0  0  0 
 10 23  1  0  0  0  0 
 12 24  1  0  0  0  0 
 13 25  1  0  0  0  0 
M  END
> <cdk:Title>
betamipron

> <Conformer>
1

> <SuperDrugID>
SD000300

$$$$
