norethandrolone
  CDK     0628171801

 52 55  0  0  0  0  0  0  0  0999 V2000
   -5.5221   -0.8972    5.4783 C   0  0  0  0  0  0  0  0  0  0  0  0
   -4.1715   -0.1066    5.7182 C   0  0  2  0  0  0  0  0  0  0  0  0
   -2.8762   -0.9171    5.3791 C   0  0  2  0  0  0  0  0  0  0  0  0
   -3.9767    0.1406    7.2838 C   0  0  1  0  0  0  0  0  0  0  0  0
   -4.1560    1.1353    4.7460 C   0  0  2  0  0  0  0  0  0  0  0  0
   -2.8129   -1.4211    3.8998 C   0  0  1  0  0  0  0  0  0  0  0  0
   -2.7557   -1.9291    6.5291 C   0  0  1  0  0  0  0  0  0  0  0  0
   -3.3678    1.5386    7.6694 C   0  0  1  0  0  0  0  0  0  0  0  0
   -5.2185    0.0709    8.0037 O   0  0  0  0  0  0  0  0  0  0  0  0
   -3.0872   -1.0640    7.7646 C   0  0  1  0  0  0  0  0  0  0  0  0
   -4.0104    0.7616    3.2329 C   0  0  2  0  0  0  0  0  0  0  0  0
   -2.7829   -0.1709    2.9407 C   0  0  2  0  0  0  0  0  0  0  0  0
   -1.5939   -2.3496    3.6320 C   0  0  1  0  0  0  0  0  0  0  0  0
   -3.2572    1.8366    9.1860 C   0  0  0  0  0  0  0  0  0  0  0  0
   -2.6405   -0.5956    1.4268 C   0  0  2  0  0  0  0  0  0  0  0  0
   -1.5185   -2.7447    2.1393 C   0  0  2  0  0  0  0  0  0  0  0  0
   -1.5281   -1.5699    1.2620 C   0  0  0  0  0  0  0  0  0  0  0  0
   -2.5262    0.6577    0.4780 C   0  0  1  0  0  0  0  0  0  0  0  0
   -0.5573   -1.4118    0.3340 C   0  0  0  0  0  0  0  0  0  0  0  0
   -1.8528    0.3142   -0.8719 C   0  0  1  0  0  0  0  0  0  0  0  0
   -0.5840   -0.3925   -0.6002 C   0  0  0  0  0  0  0  0  0  0  0  0
    0.4548   -0.0829   -1.2291 O   0  0  0  0  0  0  0  0  0  0  0  0
   -5.5809   -1.8033    6.0851 H   0  0  0  0  0  0  0  0  0  0  0  0
   -6.3753   -0.2684    5.7449 H   0  0  0  0  0  0  0  0  0  0  0  0
   -5.6688   -1.1932    4.4417 H   0  0  0  0  0  0  0  0  0  0  0  0
   -2.0047   -0.2529    5.4934 H   0  0  0  0  0  0  0  0  0  0  0  0
   -3.3031    1.7783    4.9752 H   0  0  0  0  0  0  0  0  0  0  0  0
   -5.0590    1.7352    4.8891 H   0  0  0  0  0  0  0  0  0  0  0  0
   -3.7024   -2.0167    3.6782 H   0  0  0  0  0  0  0  0  0  0  0  0
   -3.4665   -2.7510    6.4142 H   0  0  0  0  0  0  0  0  0  0  0  0
   -1.7467   -2.3440    6.5912 H   0  0  0  0  0  0  0  0  0  0  0  0
   -2.3729    1.6428    7.2284 H   0  0  0  0  0  0  0  0  0  0  0  0
   -3.9997    2.3262    7.2477 H   0  0  0  0  0  0  0  0  0  0  0  0
   -5.7406    0.8439    7.7031 H   0  0  0  0  0  0  0  0  0  0  0  0
   -2.1454   -0.7186    8.2007 H   0  0  0  0  0  0  0  0  0  0  0  0
   -3.5905   -1.6761    8.5174 H   0  0  0  0  0  0  0  0  0  0  0  0
   -3.9044    1.6952    2.6751 H   0  0  0  0  0  0  0  0  0  0  0  0
   -4.9209    0.2831    2.8688 H   0  0  0  0  0  0  0  0  0  0  0  0
   -1.8838    0.4092    3.1862 H   0  0  0  0  0  0  0  0  0  0  0  0
   -0.6647   -1.8550    3.9302 H   0  0  0  0  0  0  0  0  0  0  0  0
   -1.6944   -3.2650    4.2232 H   0  0  0  0  0  0  0  0  0  0  0  0
   -2.8542    2.8385    9.3340 H   0  0  0  0  0  0  0  0  0  0  0  0
   -2.5959    1.1268    9.6785 H   0  0  0  0  0  0  0  0  0  0  0  0
   -4.2373    1.7925    9.6601 H   0  0  0  0  0  0  0  0  0  0  0  0
   -3.5563   -1.1229    1.1418 H   0  0  0  0  0  0  0  0  0  0  0  0
   -2.3865   -3.3607    1.8917 H   0  0  0  0  0  0  0  0  0  0  0  0
   -0.6342   -3.3724    1.9981 H   0  0  0  0  0  0  0  0  0  0  0  0
   -3.5214    1.0694    0.2792 H   0  0  0  0  0  0  0  0  0  0  0  0
   -1.9296    1.4425    0.9549 H   0  0  0  0  0  0  0  0  0  0  0  0
    0.2056   -2.0494    0.2980 H   0  0  0  0  0  0  0  0  0  0  0  0
   -2.5074   -0.3452   -1.4494 H   0  0  0  0  0  0  0  0  0  0  0  0
   -1.6822    1.2222   -1.4555 H   0  0  0  0  0  0  0  0  0  0  0  0
  2  1  1  0  0  0  0 
  2  3  1  0  0  0  0 
  2  4  1  0  0  0  0 
  2  5  1  0  0  0  0 
  3  6  1  0  0  0  0 
  3  7  1  0  0  0  0 
  4  8  1  0  0  0  0 
  4  9  1  0  0  0  0 
  4 10  1  0  0  0  0 
  5 11  1  0  0  0  0 
  6 12  1  0  0  0  0 
  6 13  1  0  0  0  0 
  7 10  1  0  0  0  0 
  8 14  1  0  0  0  0 
 12 11  1  0  0  0  0 
 12 15  1  0  0  0  0 
 13 16  1  0  0  0  0 
 15 17  1  0  0  0  0 
 15 18  1  0  0  0  0 
 16 17  1  0  0  0  0 
 17 19  2  0  0  0  0 
 18 20  1  0  0  0  0 
 19 21  1  0  0  0  0 
 20 21  1  0  0  0  0 
 21 22  2  0  0  0  0 
 23  1  1  0  0  0  0 
 24  1  1  0  0  0  0 
 25  1  1  0  0  0  0 
  3 26  1  0  0  0  0 
 27  5  1  0  0  0  0 
 28  5  1  0  0  0  0 
  6 29  1  0  0  0  0 
 30  7  1  0  0  0  0 
 31  7  1  0  0  0  0 
 32  8  1  0  0  0  0 
 33  8  1  0  0  0  0 
 34  9  1  0  0  0  0 
 35 10  1  0  0  0  0 
 36 10  1  0  0  0  0 
 37 11  1  0  0  0  0 
 38 11  1  0  0  0  0 
 12 39  1  0  0  0  0 
 40 13  1  0  0  0  0 
 41 13  1  0  0  0  0 
 42 14  1  0  0  0  0 
 43 14  1  0  0  0  0 
 44 14  1  0  0  0  0 
 15 45  1  0  0  0  0 
 46 16  1  0  0  0  0 
 47 16  1  0  0  0  0 
 48 18  1  0  0  0  0 
 49 18  1  0  0  0  0 
 50 19  1  0  0  0  0 
 51 20  1  0  0  0  0 
 52 20  1  0  0  0  0 
M  END
> <cdk:Title>
norethandrolone

> <Conformer>
1

> <SuperDrugID>
SD001753

$$$$
