tolterodine
  CDK     0628171801

 55 56  0  0  0  0  0  0  0  0999 V2000
   -0.1342    3.6906   -1.2881 C   0  0  1  0  0  0  0  0  0  0  0  0
   -0.2343    5.2541   -1.2550 C   0  0  1  0  0  0  0  0  0  0  0  0
    0.7085    3.1964   -2.4335 C   0  0  0  0  0  0  0  0  0  0  0  0
    0.2823    3.0167   -0.0126 C   0  0  0  0  0  0  0  0  0  0  0  0
   -1.3908    5.8634   -0.4059 C   0  0  2  0  0  0  0  0  0  0  0  0
    0.1853    2.3031   -3.4078 C   0  0  0  0  0  0  0  0  0  0  0  0
    2.0538    3.6248   -2.5854 C   0  0  0  0  0  0  0  0  0  0  0  0
   -0.3928    1.8443    0.4168 C   0  0  0  0  0  0  0  0  0  0  0  0
    1.3696    3.4770    0.7728 C   0  0  0  0  0  0  0  0  0  0  0  0
   -2.7409    5.1834   -0.4640 N   0  0  2  0  0  0  0  0  0  0  0  0
   -1.0742    1.8035   -3.3081 O   0  0  0  0  0  0  0  0  0  0  0  0
    0.9666    1.9068   -4.5110 C   0  0  0  0  0  0  0  0  0  0  0  0
    2.8468    3.2289   -3.6869 C   0  0  0  0  0  0  0  0  0  0  0  0
    0.0000    1.1618    1.5823 C   0  0  0  0  0  0  0  0  0  0  0  0
    1.7706    2.7910    1.9333 C   0  0  0  0  0  0  0  0  0  0  0  0
   -3.5959    5.2604   -1.7235 C   0  0  1  0  0  0  0  0  0  0  0  0
   -3.5345    5.2532    0.8283 C   0  0  1  0  0  0  0  0  0  0  0  0
    2.2843    2.3688   -4.6545 C   0  0  0  0  0  0  0  0  0  0  0  0
    4.2363    3.7254   -3.8161 C   0  0  0  0  0  0  0  0  0  0  0  0
    1.0873    1.6315    2.3381 C   0  0  0  0  0  0  0  0  0  0  0  0
   -2.9337    5.7369   -3.0495 C   0  0  0  0  0  0  0  0  0  0  0  0
   -4.2783    3.8818   -1.9860 C   0  0  0  0  0  0  0  0  0  0  0  0
   -2.8979    4.3972    1.9591 C   0  0  0  0  0  0  0  0  0  0  0  0
   -3.8423    6.7024    1.3093 C   0  0  0  0  0  0  0  0  0  0  0  0
   -1.1629    3.3838   -1.4797 H   0  0  0  0  0  0  0  0  0  0  0  0
    0.7022    5.6867   -0.8974 H   0  0  0  0  0  0  0  0  0  0  0  0
   -0.3305    5.6202   -2.2760 H   0  0  0  0  0  0  0  0  0  0  0  0
   -1.5049    6.9181   -0.6702 H   0  0  0  0  0  0  0  0  0  0  0  0
   -1.0125    5.8562    0.6168 H   0  0  0  0  0  0  0  0  0  0  0  0
    2.4653    4.2500   -1.8896 H   0  0  0  0  0  0  0  0  0  0  0  0
   -1.1759    1.4678   -0.1248 H   0  0  0  0  0  0  0  0  0  0  0  0
    1.8919    4.3139    0.5095 H   0  0  0  0  0  0  0  0  0  0  0  0
   -1.0557    0.9479   -3.7860 H   0  0  0  0  0  0  0  0  0  0  0  0
    0.5756    1.2790   -5.2183 H   0  0  0  0  0  0  0  0  0  0  0  0
   -0.5015    0.3198    1.8762 H   0  0  0  0  0  0  0  0  0  0  0  0
    2.5639    3.1333    2.4800 H   0  0  0  0  0  0  0  0  0  0  0  0
   -4.3963    5.9873   -1.5524 H   0  0  0  0  0  0  0  0  0  0  0  0
   -4.5098    4.7861    0.6671 H   0  0  0  0  0  0  0  0  0  0  0  0
    2.8272    2.0720   -5.4702 H   0  0  0  0  0  0  0  0  0  0  0  0
    4.8142    3.4185   -2.9418 H   0  0  0  0  0  0  0  0  0  0  0  0
    4.7336    3.3342   -4.7075 H   0  0  0  0  0  0  0  0  0  0  0  0
    4.2325    4.8166   -3.8791 H   0  0  0  0  0  0  0  0  0  0  0  0
    1.3838    1.1286    3.1767 H   0  0  0  0  0  0  0  0  0  0  0  0
   -3.6947    5.8668   -3.8225 H   0  0  0  0  0  0  0  0  0  0  0  0
   -2.4432    6.7020   -2.9171 H   0  0  0  0  0  0  0  0  0  0  0  0
   -2.2179    5.0022   -3.4192 H   0  0  0  0  0  0  0  0  0  0  0  0
   -4.8028    3.8718   -2.9443 H   0  0  0  0  0  0  0  0  0  0  0  0
   -5.0186    3.6546   -1.2201 H   0  0  0  0  0  0  0  0  0  0  0  0
   -3.5373    3.0816   -1.9934 H   0  0  0  0  0  0  0  0  0  0  0  0
   -3.6201    4.2347    2.7607 H   0  0  0  0  0  0  0  0  0  0  0  0
   -2.5995    3.4247    1.5664 H   0  0  0  0  0  0  0  0  0  0  0  0
   -2.0235    4.8830    2.3936 H   0  0  0  0  0  0  0  0  0  0  0  0
   -4.5556    6.6774    2.1387 H   0  0  0  0  0  0  0  0  0  0  0  0
   -4.2837    7.2869    0.4989 H   0  0  0  0  0  0  0  0  0  0  0  0
   -2.9347    7.2069    1.6496 H   0  0  0  0  0  0  0  0  0  0  0  0
  1  2  1  0  0  0  0 
  1  3  1  0  0  0  0 
  1  4  1  0  0  0  0 
  2  5  1  0  0  0  0 
  3  6  2  0  0  0  0 
  3  7  1  0  0  0  0 
  4  8  2  0  0  0  0 
  4  9  1  0  0  0  0 
  5 10  1  0  0  0  0 
  6 11  1  0  0  0  0 
  6 12  1  0  0  0  0 
  7 13  2  0  0  0  0 
  8 14  1  0  0  0  0 
  9 15  2  0  0  0  0 
 10 16  1  0  0  0  0 
 10 17  1  0  0  0  0 
 12 18  2  0  0  0  0 
 13 18  1  0  0  0  0 
 13 19  1  0  0  0  0 
 14 20  2  0  0  0  0 
 15 20  1  0  0  0  0 
 16 21  1  0  0  0  0 
 16 22  1  0  0  0  0 
 17 23  1  0  0  0  0 
 17 24  1  0  0  0  0 
  1 25  1  0  0  0  0 
  2 26  1  0  0  0  0 
  2 27  1  0  0  0  0 
  5 28  1  0  0  0  0 
  5 29  1  0  0  0  0 
  7 30  1  0  0  0  0 
  8 31  1  0  0  0  0 
  9 32  1  0  0  0  0 
 11 33  1  0  0  0  0 
 12 34  1  0  0  0  0 
 14 35  1  0  0  0  0 
 15 36  1  0  0  0  0 
 16 37  1  0  0  0  0 
 17 38  1  0  0  0  0 
 18 39  1  0  0  0  0 
 19 40  1  0  0  0  0 
 19 41  1  0  0  0  0 
 19 42  1  0  0  0  0 
 20 43  1  0  0  0  0 
 21 44  1  0  0  0  0 
 21 45  1  0  0  0  0 
 21 46  1  0  0  0  0 
 22 47  1  0  0  0  0 
 22 48  1  0  0  0  0 
 22 49  1  0  0  0  0 
 23 50  1  0  0  0  0 
 23 51  1  0  0  0  0 
 23 52  1  0  0  0  0 
 24 53  1  0  0  0  0 
 24 54  1  0  0  0  0 
 24 55  1  0  0  0  0 
M  END
> <cdk:Title>
tolterodine

> <Conformer>
1

> <SuperDrugID>
SD002436

$$$$
