valethamate
  CDK     0628171801

 54 54  0  0  0  0  0  0  0  0999 V2000
    1.0389    1.7912    0.4579 C   0  0  1  0  0  0  0  0  0  0  0  0
    1.1093    0.4661   -0.2222 C   0  0  0  0  0  0  0  0  0  0  0  0
    1.1569    3.0076   -0.5418 C   0  0  1  0  0  0  0  0  0  0  0  0
   -0.1689    1.8234    1.3517 C   0  0  0  0  0  0  0  0  0  0  0  0
    0.2175    0.1206   -1.2080 O   0  0  0  0  0  0  0  0  0  0  0  0
    2.0118   -0.3383    0.1152 O   0  0  0  0  0  0  0  0  0  0  0  0
    1.1406    4.4091    0.1779 C   0  0  1  0  0  0  0  0  0  0  0  0
    2.4467    2.8979   -1.4242 C   0  0  0  0  0  0  0  0  0  0  0  0
   -0.0200    1.9603    2.7570 C   0  0  0  0  0  0  0  0  0  0  0  0
   -1.4871    1.7527    0.8318 C   0  0  0  0  0  0  0  0  0  0  0  0
    0.2475   -1.1033   -1.9590 C   0  0  1  0  0  0  0  0  0  0  0  0
   -0.2569    4.9589    0.5636 C   0  0  0  0  0  0  0  0  0  0  0  0
   -1.1408    2.0345    3.6056 C   0  0  0  0  0  0  0  0  0  0  0  0
   -2.6091    1.8309    1.6785 C   0  0  0  0  0  0  0  0  0  0  0  0
   -1.0257   -1.3057   -2.8398 C   0  0  2  0  0  0  0  0  0  0  0  0
   -2.4371    1.9740    3.0663 C   0  0  0  0  0  0  0  0  0  0  0  0
   -0.9471   -1.1090   -4.3523 N   0  0  2  0  0  0  0  0  0  0  0  0
   -2.2717   -1.5410   -4.9877 C   0  0  1  0  0  0  0  0  0  0  0  0
    0.1812   -1.9165   -5.0046 C   0  0  2  0  0  0  0  0  0  0  0  0
   -0.6871    0.3536   -4.6548 C   0  0  0  0  0  0  0  0  0  0  0  0
   -3.5784   -0.7845   -4.6273 C   0  0  0  0  0  0  0  0  0  0  0  0
    0.2730   -3.4393   -4.7187 C   0  0  0  0  0  0  0  0  0  0  0  0
    1.9320    1.8638    1.0924 H   0  0  0  0  0  0  0  0  0  0  0  0
    0.3116    2.9690   -1.2378 H   0  0  0  0  0  0  0  0  0  0  0  0
    1.7655    4.3697    1.0747 H   0  0  0  0  0  0  0  0  0  0  0  0
    1.5804    5.1650   -0.4803 H   0  0  0  0  0  0  0  0  0  0  0  0
    2.4463    1.9767   -2.0101 H   0  0  0  0  0  0  0  0  0  0  0  0
    2.5002    3.7284   -2.1327 H   0  0  0  0  0  0  0  0  0  0  0  0
    3.3472    2.9133   -0.8046 H   0  0  0  0  0  0  0  0  0  0  0  0
    0.9100    2.0255    3.1785 H   0  0  0  0  0  0  0  0  0  0  0  0
   -1.6455    1.6567   -0.1739 H   0  0  0  0  0  0  0  0  0  0  0  0
    1.1571   -1.1060   -2.5548 H   0  0  0  0  0  0  0  0  0  0  0  0
    0.3075   -1.9322   -1.2462 H   0  0  0  0  0  0  0  0  0  0  0  0
   -0.1890    6.0189    0.8166 H   0  0  0  0  0  0  0  0  0  0  0  0
   -0.6618    4.4470    1.4340 H   0  0  0  0  0  0  0  0  0  0  0  0
   -0.9512    4.8507   -0.2698 H   0  0  0  0  0  0  0  0  0  0  0  0
   -1.0140    2.1428    4.6149 H   0  0  0  0  0  0  0  0  0  0  0  0
   -3.5515    1.7944    1.2854 H   0  0  0  0  0  0  0  0  0  0  0  0
   -1.7988   -0.6525   -2.4242 H   0  0  0  0  0  0  0  0  0  0  0  0
   -1.3835   -2.3223   -2.6402 H   0  0  0  0  0  0  0  0  0  0  0  0
   -3.2513    2.0427    3.6818 H   0  0  0  0  0  0  0  0  0  0  0  0
   -2.1988   -1.4955   -6.0795 H   0  0  0  0  0  0  0  0  0  0  0  0
   -2.4696   -2.5874   -4.7426 H   0  0  0  0  0  0  0  0  0  0  0  0
    1.1585   -1.5070   -4.7382 H   0  0  0  0  0  0  0  0  0  0  0  0
    0.1299   -1.8127   -6.0931 H   0  0  0  0  0  0  0  0  0  0  0  0
    0.3148    0.6627   -4.3491 H   0  0  0  0  0  0  0  0  0  0  0  0
   -1.3822    1.0140   -4.1315 H   0  0  0  0  0  0  0  0  0  0  0  0
   -0.7713    0.5634   -5.7255 H   0  0  0  0  0  0  0  0  0  0  0  0
   -4.4124   -1.2402   -5.1641 H   0  0  0  0  0  0  0  0  0  0  0  0
   -3.5218    0.2635   -4.9220 H   0  0  0  0  0  0  0  0  0  0  0  0
   -3.7979   -0.8517   -3.5621 H   0  0  0  0  0  0  0  0  0  0  0  0
    1.1502   -3.8497   -5.2250 H   0  0  0  0  0  0  0  0  0  0  0  0
   -0.6070   -3.9619   -5.0929 H   0  0  0  0  0  0  0  0  0  0  0  0
    0.3836   -3.6342   -3.6516 H   0  0  0  0  0  0  0  0  0  0  0  0
  1  2  1  0  0  0  0 
  1  3  1  0  0  0  0 
  1  4  1  0  0  0  0 
  2  5  1  0  0  0  0 
  2  6  2  0  0  0  0 
  3  7  1  0  0  0  0 
  3  8  1  0  0  0  0 
  4  9  2  0  0  0  0 
  4 10  1  0  0  0  0 
  5 11  1  0  0  0  0 
  7 12  1  0  0  0  0 
  9 13  1  0  0  0  0 
 10 14  2  0  0  0  0 
 11 15  1  0  0  0  0 
 13 16  2  0  0  0  0 
 14 16  1  0  0  0  0 
 15 17  1  0  0  0  0 
 17 18  1  0  0  0  0 
 17 19  1  0  0  0  0 
 17 20  1  0  0  0  0 
 18 21  1  0  0  0  0 
 19 22  1  0  0  0  0 
  1 23  1  0  0  0  0 
  3 24  1  0  0  0  0 
  7 25  1  0  0  0  0 
  7 26  1  0  0  0  0 
  8 27  1  0  0  0  0 
  8 28  1  0  0  0  0 
  8 29  1  0  0  0  0 
  9 30  1  0  0  0  0 
 10 31  1  0  0  0  0 
 11 32  1  0  0  0  0 
 11 33  1  0  0  0  0 
 12 34  1  0  0  0  0 
 12 35  1  0  0  0  0 
 12 36  1  0  0  0  0 
 13 37  1  0  0  0  0 
 14 38  1  0  0  0  0 
 15 39  1  0  0  0  0 
 15 40  1  0  0  0  0 
 16 41  1  0  0  0  0 
 18 42  1  0  0  0  0 
 18 43  1  0  0  0  0 
 19 44  1  0  0  0  0 
 19 45  1  0  0  0  0 
 20 46  1  0  0  0  0 
 20 47  1  0  0  0  0 
 20 48  1  0  0  0  0 
 21 49  1  0  0  0  0 
 21 50  1  0  0  0  0 
 21 51  1  0  0  0  0 
 22 52  1  0  0  0  0 
 22 53  1  0  0  0  0 
 22 54  1  0  0  0  0 
M  CHG  1  17   1
M  END
> <cdk:Title>
valethamate

> <Conformer>
1

> <SuperDrugID>
SD002525

$$$$
