phenacetin
  CDK     0628171801

 26 26  0  0  0  0  0  0  0  0999 V2000
    4.5958    4.9585   -1.6078 N   0  0  0  0  0  0  0  0  0  0  0  0
    4.3747    5.9761   -2.4880 C   0  0  0  0  0  0  0  0  0  0  0  0
    3.7388    4.0342   -1.0668 C   0  0  0  0  0  0  0  0  0  0  0  0
    5.5287    6.8034   -2.8802 C   0  0  0  0  0  0  0  0  0  0  0  0
    3.2552    6.2496   -2.9775 O   0  0  0  0  0  0  0  0  0  0  0  0
    2.3565    3.9016   -1.3490 C   0  0  0  0  0  0  0  0  0  0  0  0
    4.3152    3.1354   -0.1395 C   0  0  0  0  0  0  0  0  0  0  0  0
    1.5874    2.8916   -0.7385 C   0  0  0  0  0  0  0  0  0  0  0  0
    3.5462    2.1316    0.4789 C   0  0  0  0  0  0  0  0  0  0  0  0
    2.1801    1.9921    0.1668 C   0  0  0  0  0  0  0  0  0  0  0  0
    1.4236    1.0216    0.7686 O   0  0  0  0  0  0  0  0  0  0  0  0
    1.4567   -0.2514    0.0920 C   0  0  1  0  0  0  0  0  0  0  0  0
    0.5506   -1.2379    0.8527 C   0  0  0  0  0  0  0  0  0  0  0  0
    5.5180    4.8786   -1.3140 H   0  0  0  0  0  0  0  0  0  0  0  0
    5.2313    7.6121   -3.5503 H   0  0  0  0  0  0  0  0  0  0  0  0
    5.9832    7.2412   -1.9916 H   0  0  0  0  0  0  0  0  0  0  0  0
    6.2685    6.1853   -3.3894 H   0  0  0  0  0  0  0  0  0  0  0  0
    1.8825    4.5291   -1.9941 H   0  0  0  0  0  0  0  0  0  0  0  0
    5.3099    3.2025    0.0959 H   0  0  0  0  0  0  0  0  0  0  0  0
    0.5906    2.8103   -0.9561 H   0  0  0  0  0  0  0  0  0  0  0  0
    3.9826    1.5044    1.1595 H   0  0  0  0  0  0  0  0  0  0  0  0
    1.0908   -0.1611   -0.9361 H   0  0  0  0  0  0  0  0  0  0  0  0
    2.4738   -0.6566    0.0714 H   0  0  0  0  0  0  0  0  0  0  0  0
   -0.4734   -0.8616    0.8790 H   0  0  0  0  0  0  0  0  0  0  0  0
    0.5563   -2.2104    0.3578 H   0  0  0  0  0  0  0  0  0  0  0  0
    0.9094   -1.3610    1.8760 H   0  0  0  0  0  0  0  0  0  0  0  0
  1  2  1  0  0  0  0 
  1  3  1  0  0  0  0 
  2  4  1  0  0  0  0 
  2  5  2  0  0  0  0 
  3  6  2  0  0  0  0 
  3  7  1  0  0  0  0 
  6  8  1  0  0  0  0 
  7  9  2  0  0  0  0 
  8 10  2  0  0  0  0 
  9 10  1  0  0  0  0 
 10 11  1  0  0  0  0 
 11 12  1  0  0  0  0 
 12 13  1  0  0  0  0 
  1 14  1  0  0  0  0 
  4 15  1  0  0  0  0 
  4 16  1  0  0  0  0 
  4 17  1  0  0  0  0 
  6 18  1  0  0  0  0 
  7 19  1  0  0  0  0 
  8 20  1  0  0  0  0 
  9 21  1  0  0  0  0 
 12 22  1  0  0  0  0 
 12 23  1  0  0  0  0 
 13 24  1  0  0  0  0 
 13 25  1  0  0  0  0 
 13 26  1  0  0  0  0 
M  END
> <cdk:Title>
phenacetin

> <Conformer>
1

> <SuperDrugID>
SD001896

$$$$
