dopexamine
  CDK     0628171802

 58 59  0  0  0  0  0  0  0  0999 V2000
   -1.8579    4.6402   11.0010 C   0  0  2  0  0  0  0  0  0  0  0  0
   -1.5063    4.7217    9.4954 C   0  0  1  0  0  0  0  0  0  0  0  0
   -0.7919    5.2360   11.8539 C   0  0  0  0  0  0  0  0  0  0  0  0
   -0.2514    3.9890    9.2124 N   0  0  2  0  0  0  0  0  0  0  0  0
    0.2376    4.4253   12.3881 C   0  0  0  0  0  0  0  0  0  0  0  0
   -0.7669    6.6260   12.1157 C   0  0  0  0  0  0  0  0  0  0  0  0
    0.2183    4.0699    7.8137 C   0  0  1  0  0  0  0  0  0  0  0  0
    1.2676    4.9878   13.1669 C   0  0  0  0  0  0  0  0  0  0  0  0
    0.2538    7.1880   12.9047 C   0  0  0  0  0  0  0  0  0  0  0  0
    1.5526    3.2984    7.6746 C   0  0  1  0  0  0  0  0  0  0  0  0
    2.2527    4.1955   13.6547 O   0  0  0  0  0  0  0  0  0  0  0  0
    1.2721    6.3713   13.4305 C   0  0  0  0  0  0  0  0  0  0  0  0
    2.1187    3.3336    6.2300 C   0  0  2  0  0  0  0  0  0  0  0  0
    2.2522    6.9233   14.1859 O   0  0  0  0  0  0  0  0  0  0  0  0
    3.4720    2.5839    6.1088 C   0  0  2  0  0  0  0  0  0  0  0  0
    4.0566    2.6316    4.6720 C   0  0  2  0  0  0  0  0  0  0  0  0
    5.4567    1.9767    4.5824 C   0  0  2  0  0  0  0  0  0  0  0  0
    5.8319    1.7477    3.1682 N   0  0  2  0  0  0  0  0  0  0  0  0
    7.0433    0.9227    2.9407 C   0  0  1  0  0  0  0  0  0  0  0  0
    6.8385   -0.5995    3.1708 C   0  0  2  0  0  0  0  0  0  0  0  0
    5.7503   -1.1796    2.3324 C   0  0  0  0  0  0  0  0  0  0  0  0
    4.4026   -1.1262    2.7623 C   0  0  0  0  0  0  0  0  0  0  0  0
    6.0318   -1.7834    1.0820 C   0  0  0  0  0  0  0  0  0  0  0  0
    3.3657   -1.6389    1.9604 C   0  0  0  0  0  0  0  0  0  0  0  0
    4.9956   -2.2968    0.2773 C   0  0  0  0  0  0  0  0  0  0  0  0
    3.6614   -2.2176    0.7141 C   0  0  0  0  0  0  0  0  0  0  0  0
   -2.0240    3.5936   11.2728 H   0  0  0  0  0  0  0  0  0  0  0  0
   -2.8054    5.1587   11.1731 H   0  0  0  0  0  0  0  0  0  0  0  0
   -2.3216    4.2838    8.9137 H   0  0  0  0  0  0  0  0  0  0  0  0
   -1.4024    5.7720    9.2082 H   0  0  0  0  0  0  0  0  0  0  0  0
   -0.4197    3.0020    9.4202 H   0  0  0  0  0  0  0  0  0  0  0  0
    0.2464    3.4192   12.2008 H   0  0  0  0  0  0  0  0  0  0  0  0
   -1.4909    7.2386   11.7310 H   0  0  0  0  0  0  0  0  0  0  0  0
   -0.5295    3.6351    7.1448 H   0  0  0  0  0  0  0  0  0  0  0  0
    0.3765    5.1167    7.5392 H   0  0  0  0  0  0  0  0  0  0  0  0
    0.2552    8.1930   13.0930 H   0  0  0  0  0  0  0  0  0  0  0  0
    2.2852    3.7394    8.3582 H   0  0  0  0  0  0  0  0  0  0  0  0
    1.3939    2.2568    7.9710 H   0  0  0  0  0  0  0  0  0  0  0  0
    2.9405    4.1919   12.9551 H   0  0  0  0  0  0  0  0  0  0  0  0
    2.2598    4.3769    5.9311 H   0  0  0  0  0  0  0  0  0  0  0  0
    1.3943    2.8747    5.5496 H   0  0  0  0  0  0  0  0  0  0  0  0
    2.9551    7.1646   13.5465 H   0  0  0  0  0  0  0  0  0  0  0  0
    3.3227    1.5369    6.3927 H   0  0  0  0  0  0  0  0  0  0  0  0
    4.1912    3.0292    6.8023 H   0  0  0  0  0  0  0  0  0  0  0  0
    4.1308    3.6702    4.3371 H   0  0  0  0  0  0  0  0  0  0  0  0
    3.3709    2.1065    4.0019 H   0  0  0  0  0  0  0  0  0  0  0  0
    5.4381    1.0318    5.1273 H   0  0  0  0  0  0  0  0  0  0  0  0
    6.1941    2.6317    5.0514 H   0  0  0  0  0  0  0  0  0  0  0  0
    6.0117    2.6658    2.7559 H   0  0  0  0  0  0  0  0  0  0  0  0
    7.3449    1.0708    1.9018 H   0  0  0  0  0  0  0  0  0  0  0  0
    7.8656    1.2819    3.5649 H   0  0  0  0  0  0  0  0  0  0  0  0
    6.6407   -0.7903    4.2273 H   0  0  0  0  0  0  0  0  0  0  0  0
    7.7819   -1.1037    2.9485 H   0  0  0  0  0  0  0  0  0  0  0  0
    4.1637   -0.7075    3.6628 H   0  0  0  0  0  0  0  0  0  0  0  0
    6.9942   -1.8476    0.7425 H   0  0  0  0  0  0  0  0  0  0  0  0
    2.3966   -1.5922    2.2840 H   0  0  0  0  0  0  0  0  0  0  0  0
    5.2107   -2.7282   -0.6261 H   0  0  0  0  0  0  0  0  0  0  0  0
    2.9092   -2.5874    0.1281 H   0  0  0  0  0  0  0  0  0  0  0  0
  1  2  1  0  0  0  0 
  1  3  1  0  0  0  0 
  2  4  1  0  0  0  0 
  3  5  2  0  0  0  0 
  3  6  1  0  0  0  0 
  4  7  1  0  0  0  0 
  5  8  1  0  0  0  0 
  6  9  2  0  0  0  0 
  7 10  1  0  0  0  0 
  8 11  1  0  0  0  0 
  8 12  2  0  0  0  0 
  9 12  1  0  0  0  0 
 10 13  1  0  0  0  0 
 12 14  1  0  0  0  0 
 13 15  1  0  0  0  0 
 15 16  1  0  0  0  0 
 16 17  1  0  0  0  0 
 17 18  1  0  0  0  0 
 18 19  1  0  0  0  0 
 19 20  1  0  0  0  0 
 20 21  1  0  0  0  0 
 21 22  2  0  0  0  0 
 21 23  1  0  0  0  0 
 22 24  1  0  0  0  0 
 23 25  2  0  0  0  0 
 24 26  2  0  0  0  0 
 25 26  1  0  0  0  0 
  1 27  1  0  0  0  0 
  1 28  1  0  0  0  0 
  2 29  1  0  0  0  0 
  2 30  1  0  0  0  0 
  4 31  1  0  0  0  0 
  5 32  1  0  0  0  0 
  6 33  1  0  0  0  0 
  7 34  1  0  0  0  0 
  7 35  1  0  0  0  0 
  9 36  1  0  0  0  0 
 10 37  1  0  0  0  0 
 10 38  1  0  0  0  0 
 11 39  1  0  0  0  0 
 13 40  1  0  0  0  0 
 13 41  1  0  0  0  0 
 14 42  1  0  0  0  0 
 15 43  1  0  0  0  0 
 15 44  1  0  0  0  0 
 16 45  1  0  0  0  0 
 16 46  1  0  0  0  0 
 17 47  1  0  0  0  0 
 17 48  1  0  0  0  0 
 18 49  1  0  0  0  0 
 19 50  1  0  0  0  0 
 19 51  1  0  0  0  0 
 20 52  1  0  0  0  0 
 20 53  1  0  0  0  0 
 22 54  1  0  0  0  0 
 23 55  1  0  0  0  0 
 24 56  1  0  0  0  0 
 25 57  1  0  0  0  0 
 26 58  1  0  0  0  0 
M  END
> <cdk:Title>
dopexamine

> <Conformer>
1

> <SuperDrugID>
SD000842

$$$$
