spiclomazine
  CDK     0628171801

 53 57  0  0  0  0  0  0  0  0999 V2000
   -4.3835    1.3474    3.9739 Cl  0  0  0  0  0  0  0  0  0  0  0  0
   -4.0591    0.7931    2.4063 C   0  0  0  0  0  0  0  0  0  0  0  0
   -4.9839   -0.0418    1.7505 C   0  0  0  0  0  0  0  0  0  0  0  0
   -4.7241   -0.4798    0.4417 C   0  0  0  0  0  0  0  0  0  0  0  0
   -3.5418   -0.0795   -0.2129 C   0  0  0  0  0  0  0  0  0  0  0  0
   -3.2782   -0.5613   -1.8853 S   0  0  0  0  0  0  0  0  0  0  0  0
   -2.2238    0.7132   -2.4823 C   0  0  0  0  0  0  0  0  0  0  0  0
   -2.2392    1.0421   -3.8520 C   0  0  0  0  0  0  0  0  0  0  0  0
   -1.3925    2.0517   -4.3389 C   0  0  0  0  0  0  0  0  0  0  0  0
   -0.5577    2.7517   -3.4533 C   0  0  0  0  0  0  0  0  0  0  0  0
   -0.5792    2.4497   -2.0806 C   0  0  0  0  0  0  0  0  0  0  0  0
   -1.3901    1.4051   -1.5649 C   0  0  0  0  0  0  0  0  0  0  0  0
   -1.3781    1.0760   -0.2074 N   0  0  0  0  0  0  0  0  0  0  0  0
   -0.1087    1.0682    0.5200 C   0  0  1  0  0  0  0  0  0  0  0  0
    0.2190   -0.2259    1.3129 C   0  0  2  0  0  0  0  0  0  0  0  0
    0.1310   -1.5370    0.4895 C   0  0  2  0  0  0  0  0  0  0  0  0
    0.9730   -1.5992   -0.7537 N   0  0  2  0  0  0  0  0  0  0  0  0
    0.5567   -2.7610   -1.6091 C   0  0  2  0  0  0  0  0  0  0  0  0
    1.3739   -2.8903   -2.9177 C   0  0  1  0  0  0  0  0  0  0  0  0
    2.8985   -2.9178   -2.6304 C   0  0  1  0  0  0  0  0  0  0  0  0
    3.3040   -1.6849   -1.7784 C   0  0  2  0  0  0  0  0  0  0  0  0
    2.4512   -1.5609   -0.4882 C   0  0  2  0  0  0  0  0  0  0  0  0
    3.2909   -4.1347   -1.9957 N   0  0  0  0  0  0  0  0  0  0  0  0
    4.2076   -4.9332   -2.5851 C   0  0  0  0  0  0  0  0  0  0  0  0
    4.5744   -5.9905   -2.0269 O   0  0  0  0  0  0  0  0  0  0  0  0
    4.7570   -4.5119   -3.8766 C   0  0  2  0  0  0  0  0  0  0  0  0
    3.8529   -2.9666   -4.1894 S   0  0  0  0  0  0  0  0  0  0  0  0
   -2.5720    0.7319    0.4366 C   0  0  0  0  0  0  0  0  0  0  0  0
   -2.8661    1.1703    1.7545 C   0  0  0  0  0  0  0  0  0  0  0  0
   -5.8495   -0.3290    2.2188 H   0  0  0  0  0  0  0  0  0  0  0  0
   -5.4062   -1.0805   -0.0301 H   0  0  0  0  0  0  0  0  0  0  0  0
   -2.8646    0.5546   -4.4976 H   0  0  0  0  0  0  0  0  0  0  0  0
   -1.3870    2.2815   -5.3348 H   0  0  0  0  0  0  0  0  0  0  0  0
    0.0624    3.4846   -3.8050 H   0  0  0  0  0  0  0  0  0  0  0  0
    0.0064    3.0073   -1.4549 H   0  0  0  0  0  0  0  0  0  0  0  0
    0.7425    1.2146   -0.1516 H   0  0  0  0  0  0  0  0  0  0  0  0
   -0.0948    1.9094    1.2176 H   0  0  0  0  0  0  0  0  0  0  0  0
   -0.4659   -0.3066    2.1607 H   0  0  0  0  0  0  0  0  0  0  0  0
    1.2224   -0.1330    1.7353 H   0  0  0  0  0  0  0  0  0  0  0  0
   -0.9202   -1.6616    0.2196 H   0  0  0  0  0  0  0  0  0  0  0  0
    0.3846   -2.3727    1.1503 H   0  0  0  0  0  0  0  0  0  0  0  0
   -0.4899   -2.6396   -1.8971 H   0  0  0  0  0  0  0  0  0  0  0  0
    0.6340   -3.7009   -1.0525 H   0  0  0  0  0  0  0  0  0  0  0  0
    1.0720   -3.8046   -3.4378 H   0  0  0  0  0  0  0  0  0  0  0  0
    1.1352   -2.0445   -3.5698 H   0  0  0  0  0  0  0  0  0  0  0  0
    3.1626   -0.7780   -2.3731 H   0  0  0  0  0  0  0  0  0  0  0  0
    4.3630   -1.7446   -1.5091 H   0  0  0  0  0  0  0  0  0  0  0  0
    2.7429   -2.3503    0.2092 H   0  0  0  0  0  0  0  0  0  0  0  0
    2.7156   -0.6077   -0.0309 H   0  0  0  0  0  0  0  0  0  0  0  0
    2.9102   -4.3806   -1.1392 H   0  0  0  0  0  0  0  0  0  0  0  0
    4.5402   -5.2456   -4.6544 H   0  0  0  0  0  0  0  0  0  0  0  0
    5.8295   -4.3199   -3.8074 H   0  0  0  0  0  0  0  0  0  0  0  0
   -2.2106    1.7781    2.2509 H   0  0  0  0  0  0  0  0  0  0  0  0
  1  2  1  0  0  0  0 
  2  3  2  0  0  0  0 
  3  4  1  0  0  0  0 
  4  5  2  0  0  0  0 
  5  6  1  0  0  0  0 
  6  7  1  0  0  0  0 
  7  8  2  0  0  0  0 
  8  9  1  0  0  0  0 
  9 10  2  0  0  0  0 
 10 11  1  0  0  0  0 
 11 12  2  0  0  0  0 
  7 12  1  0  0  0  0 
 12 13  1  0  0  0  0 
 13 14  1  0  0  0  0 
 14 15  1  0  0  0  0 
 15 16  1  0  0  0  0 
 16 17  1  0  0  0  0 
 17 18  1  0  0  0  0 
 18 19  1  0  0  0  0 
 19 20  1  0  0  0  0 
 20 21  1  0  0  0  0 
 21 22  1  0  0  0  0 
 17 22  1  0  0  0  0 
 20 23  1  0  0  0  0 
 23 24  1  0  0  0  0 
 24 25  2  0  0  0  0 
 24 26  1  0  0  0  0 
 26 27  1  0  0  0  0 
 20 27  1  0  0  0  0 
 13 28  1  0  0  0  0 
  5 28  1  0  0  0  0 
 28 29  2  0  0  0  0 
  2 29  1  0  0  0  0 
 30  3  1  0  0  0  0 
 31  4  1  0  0  0  0 
 32  8  1  0  0  0  0 
 33  9  1  0  0  0  0 
 34 10  1  0  0  0  0 
 35 11  1  0  0  0  0 
 36 14  1  0  0  0  0 
 37 14  1  0  0  0  0 
 38 15  1  0  0  0  0 
 39 15  1  0  0  0  0 
 40 16  1  0  0  0  0 
 41 16  1  0  0  0  0 
 42 18  1  0  0  0  0 
 43 18  1  0  0  0  0 
 44 19  1  0  0  0  0 
 45 19  1  0  0  0  0 
 46 21  1  0  0  0  0 
 47 21  1  0  0  0  0 
 48 22  1  0  0  0  0 
 49 22  1  0  0  0  0 
 50 23  1  0  0  0  0 
 51 26  1  0  0  0  0 
 52 26  1  0  0  0  0 
 53 29  1  0  0  0  0 
M  END
> <cdk:Title>
spiclomazine

> <Conformer>
1

> <SuperDrugID>
SD002217

$$$$
