lanoconazole
  CDK     0628171801

 30 32  0  0  0  0  0  0  0  0999 V2000
   -2.8172    5.6214   -2.0751 C   0  0  0  0  0  0  0  0  0  0  0  0
   -1.9910    6.5981   -2.0482 C   0  0  0  0  0  0  0  0  0  0  0  0
   -2.7482    4.5962   -1.2012 C   0  0  0  0  0  0  0  0  0  0  0  0
   -3.7760    5.6704   -3.0035 N   0  0  0  0  0  0  0  0  0  0  0  0
   -1.5898    4.4342    0.0730 S   0  0  0  0  0  0  0  0  0  0  0  0
   -3.8323    3.2491   -1.1982 S   0  0  0  0  0  0  0  0  0  0  0  0
   -3.7185    5.1650   -4.2475 C   0  0  0  0  0  0  0  0  0  0  0  0
   -5.0038    6.2116   -2.8555 C   0  0  0  0  0  0  0  0  0  0  0  0
   -2.2530    3.0190    1.0301 C   0  0  2  0  0  0  0  0  0  0  0  0
   -3.6689    2.6441    0.5173 C   0  0  2  0  0  0  0  0  0  0  0  0
   -4.9458    5.4088   -4.8462 C   0  0  0  0  0  0  0  0  0  0  0  0
   -5.7313    6.0577   -3.9741 N   0  0  0  0  0  0  0  0  0  0  0  0
   -1.2543    7.4803   -2.0267 N   0  0  0  0  0  0  0  0  0  0  0  0
   -2.1756    3.2613    2.5106 C   0  0  0  0  0  0  0  0  0  0  0  0
   -1.9235    3.5999    5.3298 C   0  0  0  0  0  0  0  0  0  0  0  0
   -2.6700    4.5172    4.5748 C   0  0  0  0  0  0  0  0  0  0  0  0
   -2.8068    4.3563    3.1788 C   0  0  0  0  0  0  0  0  0  0  0  0
   -1.4289    2.3512    3.3018 C   0  0  0  0  0  0  0  0  0  0  0  0
   -1.2990    2.5185    4.6908 C   0  0  0  0  0  0  0  0  0  0  0  0
   -3.7464    5.5344    2.3940 Cl  0  0  0  0  0  0  0  0  0  0  0  0
   -2.9250    4.6831   -4.6774 H   0  0  0  0  0  0  0  0  0  0  0  0
   -5.3487    6.6739   -2.0119 H   0  0  0  0  0  0  0  0  0  0  0  0
   -1.6055    2.1858    0.7388 H   0  0  0  0  0  0  0  0  0  0  0  0
   -3.8166    1.5608    0.5354 H   0  0  0  0  0  0  0  0  0  0  0  0
   -4.4543    3.1027    1.1162 H   0  0  0  0  0  0  0  0  0  0  0  0
   -5.2089    5.1358   -5.7931 H   0  0  0  0  0  0  0  0  0  0  0  0
   -1.8345    3.7193    6.3417 H   0  0  0  0  0  0  0  0  0  0  0  0
   -3.1108    5.3052    5.0586 H   0  0  0  0  0  0  0  0  0  0  0  0
   -0.9667    1.5467    2.8719 H   0  0  0  0  0  0  0  0  0  0  0  0
   -0.7490    1.8541    5.2394 H   0  0  0  0  0  0  0  0  0  0  0  0
  1  2  1  0  0  0  0 
  1  3  2  0  0  0  0 
  1  4  1  0  0  0  0 
  3  5  1  0  0  0  0 
  3  6  1  0  0  0  0 
  4  7  1  0  0  0  0 
  4  8  1  0  0  0  0 
  9  5  1  0  0  0  0 
  6 10  1  0  0  0  0 
  7 11  2  0  0  0  0 
  8 12  2  0  0  0  0 
  9 10  1  0  0  0  0 
 11 12  1  0  0  0  0 
  2 13  3  0  0  0  0 
  9 14  1  0  0  0  0 
 15 16  2  0  0  0  0 
 16 17  1  0  0  0  0 
 18 19  2  0  0  0  0 
 15 19  1  0  0  0  0 
 17 14  2  0  0  0  0 
 14 18  1  0  0  0  0 
 17 20  1  0  0  0  0 
  7 21  1  0  0  0  0 
  8 22  1  0  0  0  0 
  9 23  1  0  0  0  0 
 10 24  1  0  0  0  0 
 10 25  1  0  0  0  0 
 11 26  1  0  0  0  0 
 15 27  1  0  0  0  0 
 16 28  1  0  0  0  0 
 18 29  1  0  0  0  0 
 19 30  1  0  0  0  0 
M  END
> <cdk:Title>
lanoconazole

> <Conformer>
1

> <SuperDrugID>
SD003314

$$$$
