suplatast
  CDK     0628171801

 48 48  0  0  0  0  0  0  0  0999 V2000
   -5.9361    3.3277   -3.6579 O   0  0  0  0  0  0  0  0  0  0  0  0
   -6.9077    4.2770   -3.1594 C   0  0  2  0  0  0  0  0  0  0  0  0
   -4.8858    3.2008   -2.7863 C   0  0  0  0  0  0  0  0  0  0  0  0
   -8.1554    4.3320   -4.0728 C   0  0  2  0  0  0  0  0  0  0  0  0
   -3.7460    4.0169   -2.9155 C   0  0  0  0  0  0  0  0  0  0  0  0
   -4.9666    2.2878   -1.7171 C   0  0  0  0  0  0  0  0  0  0  0  0
   -9.2268    5.3157   -3.5352 C   0  0  1  0  0  0  0  0  0  0  0  0
   -8.7228    3.0264   -4.1719 O   0  0  0  0  0  0  0  0  0  0  0  0
   -2.7430    3.9854   -1.9303 C   0  0  0  0  0  0  0  0  0  0  0  0
   -3.9709    2.2680   -0.7246 C   0  0  0  0  0  0  0  0  0  0  0  0
  -10.3659    5.3034   -4.4146 O   0  0  0  0  0  0  0  0  0  0  0  0
   -2.8553    3.1369   -0.8050 C   0  0  0  0  0  0  0  0  0  0  0  0
  -11.4009    6.2477   -4.0800 C   0  0  2  0  0  0  0  0  0  0  0  0
   -1.8840    3.2741    0.1481 N   0  0  0  0  0  0  0  0  0  0  0  0
  -12.6266    5.9543   -4.9643 C   0  0  0  0  0  0  0  0  0  0  0  0
   -1.5758    2.4842    1.2150 C   0  0  0  0  0  0  0  0  0  0  0  0
   -0.5352    2.9391    2.1603 C   0  0  2  0  0  0  0  0  0  0  0  0
   -2.1287    1.3825    1.4386 O   0  0  0  0  0  0  0  0  0  0  0  0
    0.6921    2.0021    2.1557 C   0  0  2  0  0  0  0  0  0  0  0  0
    2.0268    2.6319    3.2399 S   0  0  2  0  0  0  0  0  0  0  0  0
    3.4088    1.4563    3.0335 C   0  0  0  0  0  0  0  0  0  0  0  0
    1.4254    2.4108    4.9511 C   0  0  0  0  0  0  0  0  0  0  0  0
   -6.4590    5.2734   -3.1132 H   0  0  0  0  0  0  0  0  0  0  0  0
   -7.2368    3.9937   -2.1534 H   0  0  0  0  0  0  0  0  0  0  0  0
   -7.8536    4.6485   -5.0744 H   0  0  0  0  0  0  0  0  0  0  0  0
   -3.6613    4.6541   -3.7097 H   0  0  0  0  0  0  0  0  0  0  0  0
   -5.7729    1.6622   -1.6416 H   0  0  0  0  0  0  0  0  0  0  0  0
   -9.5330    5.0007   -2.5328 H   0  0  0  0  0  0  0  0  0  0  0  0
   -8.7955    6.3195   -3.4762 H   0  0  0  0  0  0  0  0  0  0  0  0
   -8.0282    2.4723   -4.5836 H   0  0  0  0  0  0  0  0  0  0  0  0
   -1.9355    4.6056   -2.0341 H   0  0  0  0  0  0  0  0  0  0  0  0
   -4.0967    1.6349    0.0629 H   0  0  0  0  0  0  0  0  0  0  0  0
  -11.0569    7.2685   -4.2723 H   0  0  0  0  0  0  0  0  0  0  0  0
  -11.6980    6.1652   -3.0292 H   0  0  0  0  0  0  0  0  0  0  0  0
   -1.3283    4.0623    0.0521 H   0  0  0  0  0  0  0  0  0  0  0  0
  -13.0666    4.9939   -4.6858 H   0  0  0  0  0  0  0  0  0  0  0  0
  -13.3788    6.7348   -4.8396 H   0  0  0  0  0  0  0  0  0  0  0  0
  -12.3299    5.9150   -6.0136 H   0  0  0  0  0  0  0  0  0  0  0  0
   -0.9717    2.9761    3.1633 H   0  0  0  0  0  0  0  0  0  0  0  0
   -0.2032    3.9486    1.9051 H   0  0  0  0  0  0  0  0  0  0  0  0
    1.0885    1.9203    1.1414 H   0  0  0  0  0  0  0  0  0  0  0  0
    0.4049    1.0063    2.4993 H   0  0  0  0  0  0  0  0  0  0  0  0
    3.7814    1.5249    2.0103 H   0  0  0  0  0  0  0  0  0  0  0  0
    4.2100    1.7108    3.7278 H   0  0  0  0  0  0  0  0  0  0  0  0
    3.0666    0.4390    3.2289 H   0  0  0  0  0  0  0  0  0  0  0  0
    0.6431    3.1437    5.1473 H   0  0  0  0  0  0  0  0  0  0  0  0
    2.2471    2.5669    5.6528 H   0  0  0  0  0  0  0  0  0  0  0  0
    1.0244    1.4053    5.0807 H   0  0  0  0  0  0  0  0  0  0  0  0
  1  2  1  0  0  0  0 
  1  3  1  0  0  0  0 
  4  2  1  0  0  0  0 
  3  5  2  0  0  0  0 
  3  6  1  0  0  0  0 
  4  7  1  0  0  0  0 
  4  8  1  0  0  0  0 
  5  9  1  0  0  0  0 
  6 10  2  0  0  0  0 
  7 11  1  0  0  0  0 
  9 12  2  0  0  0  0 
 10 12  1  0  0  0  0 
 11 13  1  0  0  0  0 
 12 14  1  0  0  0  0 
 13 15  1  0  0  0  0 
 14 16  1  0  0  0  0 
 16 17  1  0  0  0  0 
 16 18  2  0  0  0  0 
 17 19  1  0  0  0  0 
 19 20  1  0  0  0  0 
 20 21  1  0  0  0  0 
 20 22  1  0  0  0  0 
  2 23  1  0  0  0  0 
  2 24  1  0  0  0  0 
  4 25  1  0  0  0  0 
  5 26  1  0  0  0  0 
  6 27  1  0  0  0  0 
  7 28  1  0  0  0  0 
  7 29  1  0  0  0  0 
  8 30  1  0  0  0  0 
  9 31  1  0  0  0  0 
 10 32  1  0  0  0  0 
 13 33  1  0  0  0  0 
 13 34  1  0  0  0  0 
 14 35  1  0  0  0  0 
 15 36  1  0  0  0  0 
 15 37  1  0  0  0  0 
 15 38  1  0  0  0  0 
 17 39  1  0  0  0  0 
 17 40  1  0  0  0  0 
 19 41  1  0  0  0  0 
 19 42  1  0  0  0  0 
 21 43  1  0  0  0  0 
 21 44  1  0  0  0  0 
 21 45  1  0  0  0  0 
 22 46  1  0  0  0  0 
 22 47  1  0  0  0  0 
 22 48  1  0  0  0  0 
M  CHG  1  20   1
M  END
> <cdk:Title>
suplatast

> <Conformer>
1

> <SuperDrugID>
SD002290

$$$$
