guanfacine
  CDK     0628171801

 24 24  0  0  0  0  0  0  0  0999 V2000
    2.7805   -6.6941   -1.5030 N   0  0  0  0  0  0  0  0  0  0  0  0
    3.0777   -6.3590   -0.3055 C   0  0  0  0  0  0  0  0  0  0  0  0
    4.1832   -6.8752    0.1769 N   0  0  0  0  0  0  0  0  0  0  0  0
    2.3584   -5.5431    0.4702 N   0  0  0  0  0  0  0  0  0  0  0  0
    1.1978   -4.8897    0.1611 C   0  0  0  0  0  0  0  0  0  0  0  0
    0.6619   -4.9596   -0.9710 O   0  0  0  0  0  0  0  0  0  0  0  0
    0.5314   -4.0517    1.1813 C   0  0  1  0  0  0  0  0  0  0  0  0
   -0.8363   -4.5711    1.5000 C   0  0  0  0  0  0  0  0  0  0  0  0
   -2.0051   -4.0220    0.8945 C   0  0  0  0  0  0  0  0  0  0  0  0
   -1.9677   -2.7528   -0.2351 Cl  0  0  0  0  0  0  0  0  0  0  0  0
   -3.2802   -4.5379    1.2060 C   0  0  0  0  0  0  0  0  0  0  0  0
   -3.4156   -5.5974    2.1150 C   0  0  0  0  0  0  0  0  0  0  0  0
   -2.2773   -6.1569    2.7127 C   0  0  0  0  0  0  0  0  0  0  0  0
   -0.9952   -5.6590    2.4078 C   0  0  0  0  0  0  0  0  0  0  0  0
    0.3120   -6.4284    3.1751 Cl  0  0  0  0  0  0  0  0  0  0  0  0
    2.0113   -6.3719   -1.9207 H   0  0  0  0  0  0  0  0  0  0  0  0
    4.7283   -7.4553   -0.3788 H   0  0  0  0  0  0  0  0  0  0  0  0
    4.4591   -6.6810    1.0851 H   0  0  0  0  0  0  0  0  0  0  0  0
    2.6989   -5.3930    1.3670 H   0  0  0  0  0  0  0  0  0  0  0  0
    1.1261   -4.0041    2.0962 H   0  0  0  0  0  0  0  0  0  0  0  0
    0.5048   -3.0263    0.8134 H   0  0  0  0  0  0  0  0  0  0  0  0
   -4.1230   -4.1503    0.7728 H   0  0  0  0  0  0  0  0  0  0  0  0
   -4.3430   -5.9658    2.3384 H   0  0  0  0  0  0  0  0  0  0  0  0
   -2.3937   -6.9323    3.3712 H   0  0  0  0  0  0  0  0  0  0  0  0
  1  2  2  0  0  0  0 
  2  3  1  0  0  0  0 
  2  4  1  0  0  0  0 
  4  5  1  0  0  0  0 
  5  6  2  0  0  0  0 
  5  7  1  0  0  0  0 
  7  8  1  0  0  0  0 
  8  9  2  0  0  0  0 
  9 10  1  0  0  0  0 
  9 11  1  0  0  0  0 
 11 12  2  0  0  0  0 
 12 13  1  0  0  0  0 
 13 14  2  0  0  0  0 
  8 14  1  0  0  0  0 
 14 15  1  0  0  0  0 
  1 16  1  0  0  0  0 
  3 17  1  0  0  0  0 
  3 18  1  0  0  0  0 
  4 19  1  0  0  0  0 
  7 20  1  0  0  0  0 
  7 21  1  0  0  0  0 
 11 22  1  0  0  0  0 
 12 23  1  0  0  0  0 
 13 24  1  0  0  0  0 
M  END
> <cdk:Title>
guanfacine

> <Conformer>
1

> <SuperDrugID>
SD001191

$$$$
