cibenzoline
  CDK     0628171802

 38 41  0  0  0  0  0  0  0  0999 V2000
   -1.2476   -2.7368   -1.2094 C   0  0  2  0  0  0  0  0  0  0  0  0
   -1.4037   -2.8747   -2.7457 C   0  0  2  0  0  0  0  0  0  0  0  0
   -0.9774   -1.5165   -2.1033 C   0  0  1  0  0  0  0  0  0  0  0  0
   -2.7883   -2.9907   -3.2905 C   0  0  0  0  0  0  0  0  0  0  0  0
   -0.3619   -3.6796   -3.4423 C   0  0  0  0  0  0  0  0  0  0  0  0
   -3.6964   -3.9478   -2.7824 C   0  0  0  0  0  0  0  0  0  0  0  0
   -5.0122   -4.0167   -3.2761 C   0  0  0  0  0  0  0  0  0  0  0  0
   -5.4282   -3.1415   -4.2945 C   0  0  0  0  0  0  0  0  0  0  0  0
   -4.5257   -2.2085   -4.8320 C   0  0  0  0  0  0  0  0  0  0  0  0
   -3.2113   -2.1399   -4.3374 C   0  0  0  0  0  0  0  0  0  0  0  0
   -0.1296   -5.0274   -3.0781 C   0  0  0  0  0  0  0  0  0  0  0  0
    0.8150   -5.8102   -3.7698 C   0  0  0  0  0  0  0  0  0  0  0  0
    1.5364   -5.2567   -4.8416 C   0  0  0  0  0  0  0  0  0  0  0  0
    1.3243   -3.9163   -5.2107 C   0  0  0  0  0  0  0  0  0  0  0  0
    0.3814   -3.1339   -4.5154 C   0  0  0  0  0  0  0  0  0  0  0  0
   -1.9110   -0.4024   -2.0647 C   0  0  0  0  0  0  0  0  0  0  0  0
   -1.7531    0.6868   -2.7718 N   0  0  0  0  0  0  0  0  0  0  0  0
   -2.8236    1.5892   -2.6089 C   0  0  1  0  0  0  0  0  0  0  0  0
   -3.7019    0.8271   -1.5974 C   0  0  1  0  0  0  0  0  0  0  0  0
   -2.9992   -0.3459   -1.3922 N   0  0  0  0  0  0  0  0  0  0  0  0
   -0.3545   -3.1712   -0.7538 H   0  0  0  0  0  0  0  0  0  0  0  0
   -2.1669   -2.7258   -0.6201 H   0  0  0  0  0  0  0  0  0  0  0  0
    0.0833   -1.2629   -2.1692 H   0  0  0  0  0  0  0  0  0  0  0  0
   -3.4070   -4.5964   -2.0472 H   0  0  0  0  0  0  0  0  0  0  0  0
   -5.6674   -4.7016   -2.8944 H   0  0  0  0  0  0  0  0  0  0  0  0
   -6.3848   -3.1870   -4.6483 H   0  0  0  0  0  0  0  0  0  0  0  0
   -4.8237   -1.5801   -5.5795 H   0  0  0  0  0  0  0  0  0  0  0  0
   -2.5656   -1.4579   -4.7404 H   0  0  0  0  0  0  0  0  0  0  0  0
   -0.6560   -5.4536   -2.3120 H   0  0  0  0  0  0  0  0  0  0  0  0
    0.9743   -6.7838   -3.4979 H   0  0  0  0  0  0  0  0  0  0  0  0
    2.2124   -5.8278   -5.3533 H   0  0  0  0  0  0  0  0  0  0  0  0
    1.8528   -3.5135   -5.9884 H   0  0  0  0  0  0  0  0  0  0  0  0
    0.2314   -2.1655   -4.8068 H   0  0  0  0  0  0  0  0  0  0  0  0
   -0.9961    0.8466   -3.3579 H   0  0  0  0  0  0  0  0  0  0  0  0
   -2.4695    2.5425   -2.2096 H   0  0  0  0  0  0  0  0  0  0  0  0
   -3.3374    1.7413   -3.5621 H   0  0  0  0  0  0  0  0  0  0  0  0
   -3.8104    1.3747   -0.6584 H   0  0  0  0  0  0  0  0  0  0  0  0
   -4.6909    0.6087   -2.0106 H   0  0  0  0  0  0  0  0  0  0  0  0
  1  2  1  0  0  0  0 
  3  2  1  0  0  0  0 
  3  1  1  0  0  0  0 
  2  4  1  0  0  0  0 
  2  5  1  0  0  0  0 
  6  7  1  0  0  0  0 
  7  8  2  0  0  0  0 
  8  9  1  0  0  0  0 
  9 10  2  0  0  0  0 
  4  6  2  0  0  0  0 
  4 10  1  0  0  0  0 
 11 12  1  0  0  0  0 
 12 13  2  0  0  0  0 
 13 14  1  0  0  0  0 
 14 15  2  0  0  0  0 
  5 11  2  0  0  0  0 
  5 15  1  0  0  0  0 
  3 16  1  0  0  0  0 
 17 18  1  0  0  0  0 
 18 19  1  0  0  0  0 
 19 20  1  0  0  0  0 
 16 17  1  0  0  0  0 
 16 20  2  0  0  0  0 
 21  1  1  0  0  0  0 
 22  1  1  0  0  0  0 
 23  3  1  0  0  0  0 
 24  6  1  0  0  0  0 
 25  7  1  0  0  0  0 
 26  8  1  0  0  0  0 
 27  9  1  0  0  0  0 
 28 10  1  0  0  0  0 
 29 11  1  0  0  0  0 
 30 12  1  0  0  0  0 
 31 13  1  0  0  0  0 
 32 14  1  0  0  0  0 
 33 15  1  0  0  0  0 
 34 17  1  0  0  0  0 
 35 18  1  0  0  0  0 
 36 18  1  0  0  0  0 
 37 19  1  0  0  0  0 
 38 19  1  0  0  0  0 
M  END
> <cdk:Title>
cibenzoline

> <Conformer>
1

> <SuperDrugID>
SD000551

$$$$
