osalmid
  CDK     0628171801

 28 29  0  0  0  0  0  0  0  0999 V2000
   -0.1031    3.4984    2.7929 C   0  0  0  0  0  0  0  0  0  0  0  0
   -0.5459    2.2075    2.6763 N   0  0  0  0  0  0  0  0  0  0  0  0
   -0.5676    4.3766    2.0263 O   0  0  0  0  0  0  0  0  0  0  0  0
    0.8081    3.8762    3.8322 C   0  0  0  0  0  0  0  0  0  0  0  0
   -1.4660    1.6968    1.8056 C   0  0  0  0  0  0  0  0  0  0  0  0
    1.5136    5.1142    3.8122 C   0  0  0  0  0  0  0  0  0  0  0  0
    1.0166    3.0293    4.9555 C   0  0  0  0  0  0  0  0  0  0  0  0
   -2.3007    0.6654    2.2894 C   0  0  0  0  0  0  0  0  0  0  0  0
   -1.6188    2.1185    0.4630 C   0  0  0  0  0  0  0  0  0  0  0  0
    1.4610    5.9734    2.7640 O   0  0  0  0  0  0  0  0  0  0  0  0
    2.3297    5.5035    4.8937 C   0  0  0  0  0  0  0  0  0  0  0  0
    1.8503    3.4102    6.0227 C   0  0  0  0  0  0  0  0  0  0  0  0
   -3.2789    0.0854    1.4614 C   0  0  0  0  0  0  0  0  0  0  0  0
   -2.5992    1.5412   -0.3653 C   0  0  0  0  0  0  0  0  0  0  0  0
    2.4944    4.6556    5.9997 C   0  0  0  0  0  0  0  0  0  0  0  0
   -3.4268    0.5162    0.1308 C   0  0  0  0  0  0  0  0  0  0  0  0
   -4.3549   -0.0771   -0.6589 O   0  0  0  0  0  0  0  0  0  0  0  0
   -0.2023    1.5771    3.3256 H   0  0  0  0  0  0  0  0  0  0  0  0
    0.5559    2.1195    5.0261 H   0  0  0  0  0  0  0  0  0  0  0  0
   -2.2076    0.3344    3.2533 H   0  0  0  0  0  0  0  0  0  0  0  0
   -1.0084    2.8334    0.0685 H   0  0  0  0  0  0  0  0  0  0  0  0
    1.4828    5.4029    1.9657 H   0  0  0  0  0  0  0  0  0  0  0  0
    2.8130    6.4058    4.8789 H   0  0  0  0  0  0  0  0  0  0  0  0
    1.9841    2.7838    6.8208 H   0  0  0  0  0  0  0  0  0  0  0  0
   -3.8826   -0.6522    1.8298 H   0  0  0  0  0  0  0  0  0  0  0  0
   -2.7020    1.8659   -1.3308 H   0  0  0  0  0  0  0  0  0  0  0  0
    3.0824    4.9418    6.7853 H   0  0  0  0  0  0  0  0  0  0  0  0
   -4.1060    0.1598   -1.5771 H   0  0  0  0  0  0  0  0  0  0  0  0
  1  2  1  0  0  0  0 
  1  3  2  0  0  0  0 
  1  4  1  0  0  0  0 
  2  5  1  0  0  0  0 
  4  6  2  0  0  0  0 
  4  7  1  0  0  0  0 
  5  8  2  0  0  0  0 
  5  9  1  0  0  0  0 
  6 10  1  0  0  0  0 
  6 11  1  0  0  0  0 
  7 12  2  0  0  0  0 
  8 13  1  0  0  0  0 
  9 14  2  0  0  0  0 
 11 15  2  0  0  0  0 
 12 15  1  0  0  0  0 
 13 16  2  0  0  0  0 
 14 16  1  0  0  0  0 
 16 17  1  0  0  0  0 
  2 18  1  0  0  0  0 
  7 19  1  0  0  0  0 
  8 20  1  0  0  0  0 
  9 21  1  0  0  0  0 
 10 22  1  0  0  0  0 
 11 23  1  0  0  0  0 
 12 24  1  0  0  0  0 
 13 25  1  0  0  0  0 
 14 26  1  0  0  0  0 
 15 27  1  0  0  0  0 
 17 28  1  0  0  0  0 
M  END
> <cdk:Title>
osalmid

> <Conformer>
1

> <SuperDrugID>
SD001789

$$$$
