halopropane
  CDK     0628171801

 11 10  0  0  0  0  0  0  0  0999 V2000
   -1.7681    1.4223   -1.8009 F   0  0  0  0  0  0  0  0  0  0  0  0
   -0.5763    2.1007   -1.6995 C   0  0  1  0  0  0  0  0  0  0  0  0
   -0.8695    3.4339   -1.5372 F   0  0  0  0  0  0  0  0  0  0  0  0
    0.2903    1.5644   -0.5266 C   0  0  1  0  0  0  0  0  0  0  0  0
    1.4522    2.3004   -0.4534 F   0  0  0  0  0  0  0  0  0  0  0  0
   -0.3787    1.7390    0.6651 F   0  0  0  0  0  0  0  0  0  0  0  0
    0.6532    0.0661   -0.7027 C   0  0  1  0  0  0  0  0  0  0  0  0
    1.7367   -0.6033    0.7502 Br  0  0  0  0  0  0  0  0  0  0  0  0
   -0.0368    1.9867   -2.6417 H   0  0  0  0  0  0  0  0  0  0  0  0
   -0.2552   -0.5390   -0.7464 H   0  0  0  0  0  0  0  0  0  0  0  0
    1.2089   -0.0782   -1.6320 H   0  0  0  0  0  0  0  0  0  0  0  0
  1  2  1  0  0  0  0 
  2  3  1  0  0  0  0 
  2  4  1  0  0  0  0 
  4  5  1  0  0  0  0 
  4  6  1  0  0  0  0 
  4  7  1  0  0  0  0 
  7  8  1  0  0  0  0 
  2  9  1  0  0  0  0 
  7 10  1  0  0  0  0 
  7 11  1  0  0  0  0 
M  END
> <cdk:Title>
halopropane

> <Conformer>
1

> <SuperDrugID>
SD002979

$$$$
