milrinone
  CDK     0628171801

 25 26  0  0  0  0  0  0  0  0999 V2000
    1.9035    0.8968    1.6988 C   0  0  0  0  0  0  0  0  0  0  0  0
    2.0467    0.8532    0.2261 C   0  0  0  0  0  0  0  0  0  0  0  0
    1.2602    0.0207   -0.6163 C   0  0  0  0  0  0  0  0  0  0  0  0
    3.0029    1.6482   -0.3284 N   0  0  0  0  0  0  0  0  0  0  0  0
    1.5291    0.0324   -2.0047 C   0  0  0  0  0  0  0  0  0  0  0  0
    0.2173   -0.8128   -0.1342 C   0  0  0  0  0  0  0  0  0  0  0  0
    3.2616    1.6897   -1.6583 C   0  0  0  0  0  0  0  0  0  0  0  0
    2.5278    0.8706   -2.5440 C   0  0  0  0  0  0  0  0  0  0  0  0
   -0.9811   -0.2506    0.3617 C   0  0  0  0  0  0  0  0  0  0  0  0
    0.3438   -2.2206   -0.1805 C   0  0  0  0  0  0  0  0  0  0  0  0
    4.1637    2.4687   -2.0465 O   0  0  0  0  0  0  0  0  0  0  0  0
    2.7531    0.8734   -3.8306 C   0  0  0  0  0  0  0  0  0  0  0  0
   -2.0188   -1.1004    0.7867 C   0  0  0  0  0  0  0  0  0  0  0  0
   -0.7176   -3.0259    0.2714 C   0  0  0  0  0  0  0  0  0  0  0  0
    2.9486    0.8710   -4.9628 N   0  0  0  0  0  0  0  0  0  0  0  0
   -1.8552   -2.4466    0.7324 N   0  0  0  0  0  0  0  0  0  0  0  0
    2.6485    1.5545    2.1513 H   0  0  0  0  0  0  0  0  0  0  0  0
    0.9156    1.2649    1.9759 H   0  0  0  0  0  0  0  0  0  0  0  0
    2.0443   -0.1011    2.1155 H   0  0  0  0  0  0  0  0  0  0  0  0
    3.5314    2.2126    0.2586 H   0  0  0  0  0  0  0  0  0  0  0  0
    0.9812   -0.5727   -2.6281 H   0  0  0  0  0  0  0  0  0  0  0  0
   -1.1072    0.7648    0.4043 H   0  0  0  0  0  0  0  0  0  0  0  0
    1.1944   -2.6626   -0.5406 H   0  0  0  0  0  0  0  0  0  0  0  0
   -2.8962   -0.7109    1.1341 H   0  0  0  0  0  0  0  0  0  0  0  0
   -0.6392   -4.0449    0.2530 H   0  0  0  0  0  0  0  0  0  0  0  0
  1  2  1  0  0  0  0 
  2  3  2  0  0  0  0 
  2  4  1  0  0  0  0 
  3  5  1  0  0  0  0 
  3  6  1  0  0  0  0 
  4  7  1  0  0  0  0 
  5  8  2  0  0  0  0 
  6  9  2  0  0  0  0 
  6 10  1  0  0  0  0 
  7  8  1  0  0  0  0 
  7 11  2  0  0  0  0 
  8 12  1  0  0  0  0 
  9 13  1  0  0  0  0 
 10 14  2  0  0  0  0 
 12 15  3  0  0  0  0 
 13 16  2  0  0  0  0 
 14 16  1  0  0  0  0 
  1 17  1  0  0  0  0 
  1 18  1  0  0  0  0 
  1 19  1  0  0  0  0 
  4 20  1  0  0  0  0 
  5 21  1  0  0  0  0 
  9 22  1  0  0  0  0 
 10 23  1  0  0  0  0 
 13 24  1  0  0  0  0 
 14 25  1  0  0  0  0 
M  END
> <cdk:Title>
milrinone

> <Conformer>
1

> <SuperDrugID>
SD001608

$$$$
