omarigliptin
  CDK     0628171802

 47 50  0  0  0  0  0  0  0  0999 V2000
    5.4976   -1.2143    8.6483 C   0  0  0  0  0  0  0  0  0  0  0  0
    6.5179   -1.7918    9.4308 C   0  0  0  0  0  0  0  0  0  0  0  0
    7.7713   -2.0660    8.8552 C   0  0  0  0  0  0  0  0  0  0  0  0
    8.0034   -1.7714    7.5021 C   0  0  0  0  0  0  0  0  0  0  0  0
    6.9826   -1.1979    6.7205 C   0  0  0  0  0  0  0  0  0  0  0  0
    5.7117   -0.9001    7.2825 C   0  0  0  0  0  0  0  0  0  0  0  0
    4.6505   -0.2180    6.4738 C   0  0  1  0  0  0  0  0  0  0  0  0
    3.3358   -0.7455    6.7774 O   0  0  0  0  0  0  0  0  0  0  0  0
    2.2588   -0.1768    5.9948 C   0  0  2  0  0  0  0  0  0  0  0  0
    2.1661    1.3635    6.1955 C   0  0  1  0  0  0  0  0  0  0  0  0
    3.5514    2.0167    5.9037 C   0  0  2  0  0  0  0  0  0  0  0  0
    4.6916    1.3256    6.7000 C   0  0  2  0  0  0  0  0  0  0  0  0
    1.0709    2.0319    5.4241 N   0  0  0  0  0  0  0  0  0  0  0  0
    1.1177    2.1767    3.9330 C   0  0  2  0  0  0  0  0  0  0  0  0
   -0.2086    2.7258    3.7102 C   0  0  0  0  0  0  0  0  0  0  0  0
   -1.0030    2.6578    4.8085 C   0  0  0  0  0  0  0  0  0  0  0  0
   -0.3344    2.0281    5.9397 C   0  0  1  0  0  0  0  0  0  0  0  0
   -0.9545    3.3370    2.7194 C   0  0  0  0  0  0  0  0  0  0  0  0
   -2.1395    3.6350    3.3028 N   0  0  0  0  0  0  0  0  0  0  0  0
   -2.1943    3.2172    4.5417 N   0  0  0  0  0  0  0  0  0  0  0  0
    6.3071   -2.0727   10.6890 F   0  0  0  0  0  0  0  0  0  0  0  0
    7.2597   -0.9368    5.4702 F   0  0  0  0  0  0  0  0  0  0  0  0
   -3.4016    4.5146    2.5496 S   0  0  2  0  0  0  0  0  0  0  0  0
   -2.8025    6.1818    2.0857 C   0  0  0  0  0  0  0  0  0  0  0  0
   -4.6322    4.6782    3.5653 O   0  0  0  0  0  0  0  0  0  0  0  0
   -3.8962    3.7467    1.2313 O   0  0  0  0  0  0  0  0  0  0  0  0
    5.9989    1.8802    6.3033 N   0  0  2  0  0  0  0  0  0  0  0  0
    4.5937   -1.0162    9.0838 H   0  0  0  0  0  0  0  0  0  0  0  0
    8.5183   -2.4808    9.4167 H   0  0  0  0  0  0  0  0  0  0  0  0
    8.9206   -1.9711    7.0914 H   0  0  0  0  0  0  0  0  0  0  0  0
    4.8326   -0.4221    5.4134 H   0  0  0  0  0  0  0  0  0  0  0  0
    1.3325   -0.6439    6.3284 H   0  0  0  0  0  0  0  0  0  0  0  0
    2.3905   -0.4232    4.9399 H   0  0  0  0  0  0  0  0  0  0  0  0
    1.9533    1.5346    7.2575 H   0  0  0  0  0  0  0  0  0  0  0  0
    3.5109    3.0754    6.1722 H   0  0  0  0  0  0  0  0  0  0  0  0
    3.7770    1.9524    4.8359 H   0  0  0  0  0  0  0  0  0  0  0  0
    4.5472    1.5401    7.7632 H   0  0  0  0  0  0  0  0  0  0  0  0
    1.2305    1.2194    3.4202 H   0  0  0  0  0  0  0  0  0  0  0  0
    1.8798    2.8912    3.6169 H   0  0  0  0  0  0  0  0  0  0  0  0
   -0.7169    1.0179    6.1027 H   0  0  0  0  0  0  0  0  0  0  0  0
   -0.4355    2.6325    6.8435 H   0  0  0  0  0  0  0  0  0  0  0  0
   -0.6567    3.5425    1.7622 H   0  0  0  0  0  0  0  0  0  0  0  0
   -2.4193    6.6957    2.9686 H   0  0  0  0  0  0  0  0  0  0  0  0
   -3.6276    6.7584    1.6659 H   0  0  0  0  0  0  0  0  0  0  0  0
   -2.0076    6.0960    1.3437 H   0  0  0  0  0  0  0  0  0  0  0  0
    5.9639    2.8920    6.4361 H   0  0  0  0  0  0  0  0  0  0  0  0
    6.1103    1.7121    5.3012 H   0  0  0  0  0  0  0  0  0  0  0  0
  1  2  2  0  0  0  0 
  1  6  1  0  0  0  0 
  2  3  1  0  0  0  0 
  3  4  2  0  0  0  0 
  4  5  1  0  0  0  0 
  5  6  2  0  0  0  0 
  7  6  1  0  0  0  0 
  8  9  1  0  0  0  0 
  9 10  1  0  0  0  0 
 10 11  1  0  0  0  0 
 11 12  1  0  0  0  0 
  7  8  1  0  0  0  0 
  7 12  1  0  0  0  0 
 10 13  1  0  0  0  0 
 14 15  1  0  0  0  0 
 15 16  1  0  0  0  0 
 16 17  1  0  0  0  0 
 13 14  1  0  0  0  0 
 13 17  1  0  0  0  0 
 18 19  1  0  0  0  0 
 19 20  1  0  0  0  0 
 15 18  2  0  0  0  0 
 16 20  2  0  0  0  0 
  2 21  1  0  0  0  0 
  5 22  1  0  0  0  0 
 19 23  1  0  0  0  0 
 23 24  1  0  0  0  0 
 23 25  2  0  0  0  0 
 23 26  2  0  0  0  0 
 12 27  1  0  0  0  0 
  1 28  1  0  0  0  0 
  3 29  1  0  0  0  0 
  4 30  1  0  0  0  0 
  7 31  1  0  0  0  0 
  9 32  1  0  0  0  0 
  9 33  1  0  0  0  0 
 10 34  1  0  0  0  0 
 11 35  1  0  0  0  0 
 11 36  1  0  0  0  0 
 12 37  1  0  0  0  0 
 14 38  1  0  0  0  0 
 14 39  1  0  0  0  0 
 17 40  1  0  0  0  0 
 17 41  1  0  0  0  0 
 18 42  1  0  0  0  0 
 24 43  1  0  0  0  0 
 24 44  1  0  0  0  0 
 24 45  1  0  0  0  0 
 27 46  1  0  0  0  0 
 27 47  1  0  0  0  0 
M  END
> <cdk:Title>
omarigliptin

> <Conformer>
1

> <SuperDrugID>
SD003889

$$$$
