isofezolac
  CDK     0628171801

 45 48  0  0  0  0  0  0  0  0999 V2000
    2.9001    2.3274   -1.5038 C   0  0  2  0  0  0  0  0  0  0  0  0
    3.5068    3.6179   -1.8775 C   0  0  0  0  0  0  0  0  0  0  0  0
    3.7840    1.5787   -0.5749 C   0  0  0  0  0  0  0  0  0  0  0  0
    4.6103    3.6765   -2.6600 O   0  0  0  0  0  0  0  0  0  0  0  0
    3.0162    4.6927   -1.4669 O   0  0  0  0  0  0  0  0  0  0  0  0
    4.9511    0.8852   -0.9046 C   0  0  0  0  0  0  0  0  0  0  0  0
    3.6245    1.4522    0.7657 N   0  0  0  0  0  0  0  0  0  0  0  0
    5.4117    0.3458    0.2983 C   0  0  0  0  0  0  0  0  0  0  0  0
    5.5811    0.7676   -2.1690 C   0  0  0  0  0  0  0  0  0  0  0  0
    4.5776    0.7352    1.2746 N   0  0  0  0  0  0  0  0  0  0  0  0
    2.6185    1.9649    1.5271 C   0  0  0  0  0  0  0  0  0  0  0  0
    6.5216   -0.5039    0.4964 C   0  0  0  0  0  0  0  0  0  0  0  0
    6.9170    1.2080   -2.3241 C   0  0  0  0  0  0  0  0  0  0  0  0
    4.9191    0.1980   -3.2818 C   0  0  0  0  0  0  0  0  0  0  0  0
    1.6589    1.1043    2.1064 C   0  0  0  0  0  0  0  0  0  0  0  0
    2.5047    3.3590    1.7288 C   0  0  0  0  0  0  0  0  0  0  0  0
    6.6674   -1.6746   -0.2849 C   0  0  0  0  0  0  0  0  0  0  0  0
    7.4926   -0.2113    1.4815 C   0  0  0  0  0  0  0  0  0  0  0  0
    7.5778    1.0783   -3.5591 C   0  0  0  0  0  0  0  0  0  0  0  0
    5.5784    0.0755   -4.5208 C   0  0  0  0  0  0  0  0  0  0  0  0
    0.5944    1.6311    2.8634 C   0  0  0  0  0  0  0  0  0  0  0  0
    1.4330    3.8858    2.4751 C   0  0  0  0  0  0  0  0  0  0  0  0
    7.7661   -2.5312   -0.0914 C   0  0  0  0  0  0  0  0  0  0  0  0
    8.5973   -1.0654    1.6669 C   0  0  0  0  0  0  0  0  0  0  0  0
    6.9081    0.5142   -4.6593 C   0  0  0  0  0  0  0  0  0  0  0  0
    0.4771    3.0222    3.0411 C   0  0  0  0  0  0  0  0  0  0  0  0
    8.7335   -2.2248    0.8817 C   0  0  0  0  0  0  0  0  0  0  0  0
    2.6973    1.7382   -2.3966 H   0  0  0  0  0  0  0  0  0  0  0  0
    1.9344    2.5075   -1.0288 H   0  0  0  0  0  0  0  0  0  0  0  0
    5.0213    4.5430   -2.8691 H   0  0  0  0  0  0  0  0  0  0  0  0
    7.4207    1.6295   -1.5394 H   0  0  0  0  0  0  0  0  0  0  0  0
    3.9601   -0.1459   -3.1988 H   0  0  0  0  0  0  0  0  0  0  0  0
    1.7229    0.0935    1.9678 H   0  0  0  0  0  0  0  0  0  0  0  0
    3.2002    3.9956    1.3321 H   0  0  0  0  0  0  0  0  0  0  0  0
    5.9685   -1.9211   -0.9909 H   0  0  0  0  0  0  0  0  0  0  0  0
    7.4092    0.6271    2.0624 H   0  0  0  0  0  0  0  0  0  0  0  0
    8.5466    1.3928   -3.6578 H   0  0  0  0  0  0  0  0  0  0  0  0
    5.0938   -0.3399   -5.3207 H   0  0  0  0  0  0  0  0  0  0  0  0
   -0.0965    1.0042    3.2798 H   0  0  0  0  0  0  0  0  0  0  0  0
    1.3483    4.8972    2.6035 H   0  0  0  0  0  0  0  0  0  0  0  0
    7.8584   -3.3791   -0.6563 H   0  0  0  0  0  0  0  0  0  0  0  0
    9.3022   -0.8440    2.3743 H   0  0  0  0  0  0  0  0  0  0  0  0
    7.3889    0.4184   -5.5572 H   0  0  0  0  0  0  0  0  0  0  0  0
   -0.3022    3.4056    3.5799 H   0  0  0  0  0  0  0  0  0  0  0  0
    9.5332   -2.8470    1.0205 H   0  0  0  0  0  0  0  0  0  0  0  0
  1  2  1  0  0  0  0 
  1  3  1  0  0  0  0 
  2  4  1  0  0  0  0 
  2  5  2  0  0  0  0 
  3  6  2  0  0  0  0 
  3  7  1  0  0  0  0 
  6  8  1  0  0  0  0 
  6  9  1  0  0  0  0 
  7 10  1  0  0  0  0 
  7 11  1  0  0  0  0 
  8 10  2  0  0  0  0 
  8 12  1  0  0  0  0 
  9 13  2  0  0  0  0 
  9 14  1  0  0  0  0 
 11 15  2  0  0  0  0 
 11 16  1  0  0  0  0 
 12 17  2  0  0  0  0 
 12 18  1  0  0  0  0 
 13 19  1  0  0  0  0 
 14 20  2  0  0  0  0 
 15 21  1  0  0  0  0 
 16 22  2  0  0  0  0 
 17 23  1  0  0  0  0 
 18 24  2  0  0  0  0 
 19 25  2  0  0  0  0 
 20 25  1  0  0  0  0 
 21 26  2  0  0  0  0 
 22 26  1  0  0  0  0 
 23 27  2  0  0  0  0 
 24 27  1  0  0  0  0 
  1 28  1  0  0  0  0 
  1 29  1  0  0  0  0 
  4 30  1  0  0  0  0 
 13 31  1  0  0  0  0 
 14 32  1  0  0  0  0 
 15 33  1  0  0  0  0 
 16 34  1  0  0  0  0 
 17 35  1  0  0  0  0 
 18 36  1  0  0  0  0 
 19 37  1  0  0  0  0 
 20 38  1  0  0  0  0 
 21 39  1  0  0  0  0 
 22 40  1  0  0  0  0 
 23 41  1  0  0  0  0 
 24 42  1  0  0  0  0 
 25 43  1  0  0  0  0 
 26 44  1  0  0  0  0 
 27 45  1  0  0  0  0 
M  END
> <cdk:Title>
isofezolac

> <Conformer>
1

> <SuperDrugID>
SD001322

$$$$
