tolperisone
  CDK     0628171801

 41 42  0  0  0  0  0  0  0  0999 V2000
   -2.8927    2.8637    2.4838 C   0  0  0  0  0  0  0  0  0  0  0  0
   -1.8962    1.9689    1.8050 C   0  0  1  0  0  0  0  0  0  0  0  0
   -2.4603    3.6159    3.3914 O   0  0  0  0  0  0  0  0  0  0  0  0
   -4.3049    2.8891    2.2035 C   0  0  0  0  0  0  0  0  0  0  0  0
   -0.3932    2.3518    2.0417 C   0  0  2  0  0  0  0  0  0  0  0  0
   -2.1200    0.4918    2.2518 C   0  0  0  0  0  0  0  0  0  0  0  0
   -4.8761    2.2440    1.0746 C   0  0  0  0  0  0  0  0  0  0  0  0
   -5.2034    3.5717    3.0677 C   0  0  0  0  0  0  0  0  0  0  0  0
   -0.0064    3.7879    1.8127 N   0  0  2  0  0  0  0  0  0  0  0  0
   -6.2623    2.2597    0.8340 C   0  0  0  0  0  0  0  0  0  0  0  0
   -6.5902    3.5903    2.8312 C   0  0  0  0  0  0  0  0  0  0  0  0
   -0.1527    4.2609    0.3976 C   0  0  2  0  0  0  0  0  0  0  0  0
    1.3567    4.0872    2.3696 C   0  0  1  0  0  0  0  0  0  0  0  0
   -7.1377    2.9287    1.7126 C   0  0  0  0  0  0  0  0  0  0  0  0
    0.1835    5.7687    0.2487 C   0  0  2  0  0  0  0  0  0  0  0  0
    1.7243    5.5896    2.2711 C   0  0  1  0  0  0  0  0  0  0  0  0
   -8.5952    2.9284    1.4469 C   0  0  0  0  0  0  0  0  0  0  0  0
    1.5823    6.1050    0.8200 C   0  0  1  0  0  0  0  0  0  0  0  0
   -2.0541    2.0161    0.7246 H   0  0  0  0  0  0  0  0  0  0  0  0
    0.2346    1.7104    1.4129 H   0  0  0  0  0  0  0  0  0  0  0  0
   -0.1629    2.0989    3.0816 H   0  0  0  0  0  0  0  0  0  0  0  0
   -3.1248    0.1422    2.0099 H   0  0  0  0  0  0  0  0  0  0  0  0
   -1.4156   -0.1658    1.7398 H   0  0  0  0  0  0  0  0  0  0  0  0
   -1.9610    0.3870    3.3294 H   0  0  0  0  0  0  0  0  0  0  0  0
   -4.2919    1.7472    0.4004 H   0  0  0  0  0  0  0  0  0  0  0  0
   -4.8612    4.0647    3.8950 H   0  0  0  0  0  0  0  0  0  0  0  0
   -6.6286    1.7755    0.0101 H   0  0  0  0  0  0  0  0  0  0  0  0
   -7.1978    4.0893    3.4854 H   0  0  0  0  0  0  0  0  0  0  0  0
   -1.1829    4.1277    0.0618 H   0  0  0  0  0  0  0  0  0  0  0  0
    0.4968    3.6804   -0.2647 H   0  0  0  0  0  0  0  0  0  0  0  0
    1.3927    3.8149    3.4290 H   0  0  0  0  0  0  0  0  0  0  0  0
    2.1170    3.4964    1.8473 H   0  0  0  0  0  0  0  0  0  0  0  0
   -0.5676    6.3537    0.7851 H   0  0  0  0  0  0  0  0  0  0  0  0
    0.1449    6.0550   -0.8072 H   0  0  0  0  0  0  0  0  0  0  0  0
    1.0634    6.1656    2.9246 H   0  0  0  0  0  0  0  0  0  0  0  0
    2.7524    5.7421    2.6126 H   0  0  0  0  0  0  0  0  0  0  0  0
   -8.9628    1.9046    1.3400 H   0  0  0  0  0  0  0  0  0  0  0  0
   -9.1606    3.4076    2.2511 H   0  0  0  0  0  0  0  0  0  0  0  0
   -8.7907    3.4711    0.5208 H   0  0  0  0  0  0  0  0  0  0  0  0
    2.3537    5.6487    0.1929 H   0  0  0  0  0  0  0  0  0  0  0  0
    1.7325    7.1885    0.8033 H   0  0  0  0  0  0  0  0  0  0  0  0
  2  1  1  0  0  0  0 
  1  3  2  0  0  0  0 
  1  4  1  0  0  0  0 
  2  5  1  0  0  0  0 
  2  6  1  0  0  0  0 
  4  7  2  0  0  0  0 
  4  8  1  0  0  0  0 
  5  9  1  0  0  0  0 
  7 10  1  0  0  0  0 
  8 11  2  0  0  0  0 
  9 12  1  0  0  0  0 
  9 13  1  0  0  0  0 
 10 14  2  0  0  0  0 
 11 14  1  0  0  0  0 
 12 15  1  0  0  0  0 
 13 16  1  0  0  0  0 
 14 17  1  0  0  0  0 
 15 18  1  0  0  0  0 
 16 18  1  0  0  0  0 
 19  2  1  0  0  0  0 
 20  5  1  0  0  0  0 
 21  5  1  0  0  0  0 
 22  6  1  0  0  0  0 
 23  6  1  0  0  0  0 
 24  6  1  0  0  0  0 
 25  7  1  0  0  0  0 
 26  8  1  0  0  0  0 
 27 10  1  0  0  0  0 
 28 11  1  0  0  0  0 
 29 12  1  0  0  0  0 
 30 12  1  0  0  0  0 
 31 13  1  0  0  0  0 
 32 13  1  0  0  0  0 
 33 15  1  0  0  0  0 
 34 15  1  0  0  0  0 
 35 16  1  0  0  0  0 
 36 16  1  0  0  0  0 
 37 17  1  0  0  0  0 
 38 17  1  0  0  0  0 
 39 17  1  0  0  0  0 
 40 18  1  0  0  0  0 
 41 18  1  0  0  0  0 
M  END
> <cdk:Title>
tolperisone

> <Conformer>
1

> <SuperDrugID>
SD002434

$$$$
