betiatide
  CDK     0628171802

 42 42  0  0  0  0  0  0  0  0999 V2000
   -0.5715   -1.1716   -0.4627 C   0  0  0  0  0  0  0  0  0  0  0  0
   -1.9961   -1.3118   -1.4881 S   0  0  0  0  0  0  0  0  0  0  0  0
   -0.7387   -1.4189    0.7550 O   0  0  0  0  0  0  0  0  0  0  0  0
    0.7219   -0.8152   -0.9558 C   0  0  0  0  0  0  0  0  0  0  0  0
   -3.4364   -1.2673   -0.3703 C   0  0  1  0  0  0  0  0  0  0  0  0
    1.8534   -0.8560   -0.0995 C   0  0  0  0  0  0  0  0  0  0  0  0
    0.9358   -0.4013   -2.2962 C   0  0  0  0  0  0  0  0  0  0  0  0
   -4.6756   -1.4718   -1.1402 C   0  0  0  0  0  0  0  0  0  0  0  0
    3.1304   -0.4733   -0.5507 C   0  0  0  0  0  0  0  0  0  0  0  0
    2.2116   -0.0181   -2.7513 C   0  0  0  0  0  0  0  0  0  0  0  0
   -5.0869   -0.5137   -2.0175 N   0  0  0  0  0  0  0  0  0  0  0  0
   -5.3170   -2.5373   -0.9790 O   0  0  0  0  0  0  0  0  0  0  0  0
    3.3088   -0.0476   -1.8764 C   0  0  0  0  0  0  0  0  0  0  0  0
   -6.2177   -0.6125   -2.8837 C   0  0  1  0  0  0  0  0  0  0  0  0
   -6.8610    0.7029   -3.0668 C   0  0  0  0  0  0  0  0  0  0  0  0
   -7.8175    1.1096   -2.1857 N   0  0  0  0  0  0  0  0  0  0  0  0
   -6.5450    1.4083   -4.0547 O   0  0  0  0  0  0  0  0  0  0  0  0
   -8.6311    2.2766   -2.3196 C   0  0  2  0  0  0  0  0  0  0  0  0
   -7.8750    3.5271   -2.1116 C   0  0  0  0  0  0  0  0  0  0  0  0
   -7.7994    4.4521   -3.1093 N   0  0  0  0  0  0  0  0  0  0  0  0
   -7.3280    3.7067   -0.9975 O   0  0  0  0  0  0  0  0  0  0  0  0
   -7.1201    5.7064   -3.0368 C   0  0  1  0  0  0  0  0  0  0  0  0
   -6.3403    5.9568   -4.2590 C   0  0  0  0  0  0  0  0  0  0  0  0
   -6.6271    7.0267   -5.0374 O   0  0  0  0  0  0  0  0  0  0  0  0
   -5.3982    5.2017   -4.5895 O   0  0  0  0  0  0  0  0  0  0  0  0
   -3.3199   -2.0520    0.3825 H   0  0  0  0  0  0  0  0  0  0  0  0
   -3.4736   -0.3015    0.1371 H   0  0  0  0  0  0  0  0  0  0  0  0
    1.7631   -1.1664    0.8709 H   0  0  0  0  0  0  0  0  0  0  0  0
    0.1650   -0.3663   -2.9632 H   0  0  0  0  0  0  0  0  0  0  0  0
    3.9303   -0.5030    0.0852 H   0  0  0  0  0  0  0  0  0  0  0  0
    2.3414    0.2843   -3.7194 H   0  0  0  0  0  0  0  0  0  0  0  0
   -4.5454    0.2884   -2.0853 H   0  0  0  0  0  0  0  0  0  0  0  0
    4.2341    0.2384   -2.2047 H   0  0  0  0  0  0  0  0  0  0  0  0
   -5.8698   -0.9861   -3.8511 H   0  0  0  0  0  0  0  0  0  0  0  0
   -6.9610   -1.3209   -2.5037 H   0  0  0  0  0  0  0  0  0  0  0  0
   -7.9809    0.5444   -1.4128 H   0  0  0  0  0  0  0  0  0  0  0  0
   -9.4225    2.2209   -1.5678 H   0  0  0  0  0  0  0  0  0  0  0  0
   -9.1152    2.2662   -3.2998 H   0  0  0  0  0  0  0  0  0  0  0  0
   -8.2628    4.2485   -3.9380 H   0  0  0  0  0  0  0  0  0  0  0  0
   -7.8794    6.4837   -2.9316 H   0  0  0  0  0  0  0  0  0  0  0  0
   -6.4485    5.7688   -2.1779 H   0  0  0  0  0  0  0  0  0  0  0  0
   -6.0997    7.2109   -5.8417 H   0  0  0  0  0  0  0  0  0  0  0  0
  1  2  1  0  0  0  0 
  1  3  2  0  0  0  0 
  1  4  1  0  0  0  0 
  2  5  1  0  0  0  0 
  4  6  2  0  0  0  0 
  4  7  1  0  0  0  0 
  5  8  1  0  0  0  0 
  6  9  1  0  0  0  0 
  7 10  2  0  0  0  0 
  8 11  1  0  0  0  0 
  8 12  2  0  0  0  0 
  9 13  2  0  0  0  0 
 10 13  1  0  0  0  0 
 11 14  1  0  0  0  0 
 14 15  1  0  0  0  0 
 15 16  1  0  0  0  0 
 15 17  2  0  0  0  0 
 16 18  1  0  0  0  0 
 18 19  1  0  0  0  0 
 19 20  1  0  0  0  0 
 19 21  2  0  0  0  0 
 20 22  1  0  0  0  0 
 22 23  1  0  0  0  0 
 23 24  1  0  0  0  0 
 23 25  2  0  0  0  0 
  5 26  1  0  0  0  0 
  5 27  1  0  0  0  0 
  6 28  1  0  0  0  0 
  7 29  1  0  0  0  0 
  9 30  1  0  0  0  0 
 10 31  1  0  0  0  0 
 11 32  1  0  0  0  0 
 13 33  1  0  0  0  0 
 14 34  1  0  0  0  0 
 14 35  1  0  0  0  0 
 16 36  1  0  0  0  0 
 18 37  1  0  0  0  0 
 18 38  1  0  0  0  0 
 20 39  1  0  0  0  0 
 22 40  1  0  0  0  0 
 22 41  1  0  0  0  0 
 24 42  1  0  0  0  0 
M  END
> <cdk:Title>
betiatide

> <Conformer>
1

> <SuperDrugID>
SD003698

$$$$
