rosoxacin
  CDK     0628171802

 36 38  0  0  0  0  0  0  0  0999 V2000
    3.8573    2.6851    1.8461 C   0  0  1  0  0  0  0  0  0  0  0  0
    4.6178    1.5343    2.5436 C   0  0  0  0  0  0  0  0  0  0  0  0
    3.9666    2.5830    0.3940 N   0  0  0  0  0  0  0  0  0  0  0  0
    3.1560    1.7675   -0.3808 C   0  0  0  0  0  0  0  0  0  0  0  0
    4.9546    3.3302   -0.1955 C   0  0  0  0  0  0  0  0  0  0  0  0
    3.3437    1.7224   -1.7970 C   0  0  0  0  0  0  0  0  0  0  0  0
    2.1249    0.9534    0.1648 C   0  0  0  0  0  0  0  0  0  0  0  0
    5.2094    3.3177   -1.5832 C   0  0  0  0  0  0  0  0  0  0  0  0
    4.3770    2.4965   -2.3809 C   0  0  0  0  0  0  0  0  0  0  0  0
    2.5066    0.9047   -2.5990 C   0  0  0  0  0  0  0  0  0  0  0  0
    1.2815    0.1498   -0.6319 C   0  0  0  0  0  0  0  0  0  0  0  0
    6.2752    4.1080   -2.1118 C   0  0  0  0  0  0  0  0  0  0  0  0
    4.5576    2.4448   -3.6225 O   0  0  0  0  0  0  0  0  0  0  0  0
    1.4835    0.1350   -2.0245 C   0  0  0  0  0  0  0  0  0  0  0  0
    0.2495   -0.6210   -0.0320 C   0  0  0  0  0  0  0  0  0  0  0  0
    7.0593    4.8769   -1.3174 O   0  0  0  0  0  0  0  0  0  0  0  0
    6.5596    4.1376   -3.3306 O   0  0  0  0  0  0  0  0  0  0  0  0
    0.5512   -1.5847    0.9590 C   0  0  0  0  0  0  0  0  0  0  0  0
   -1.1047   -0.4253   -0.3906 C   0  0  0  0  0  0  0  0  0  0  0  0
   -0.4909   -2.3113    1.5650 C   0  0  0  0  0  0  0  0  0  0  0  0
   -2.1094   -1.1747    0.2496 C   0  0  0  0  0  0  0  0  0  0  0  0
   -1.7775   -2.0863    1.1979 N   0  0  0  0  0  0  0  0  0  0  0  0
    2.8155    2.7041    2.1713 H   0  0  0  0  0  0  0  0  0  0  0  0
    4.2701    3.6234    2.2314 H   0  0  0  0  0  0  0  0  0  0  0  0
    4.4455    1.5730    3.6207 H   0  0  0  0  0  0  0  0  0  0  0  0
    4.2905    0.5619    2.1726 H   0  0  0  0  0  0  0  0  0  0  0  0
    5.6897    1.6349    2.3580 H   0  0  0  0  0  0  0  0  0  0  0  0
    5.5486    3.9217    0.3953 H   0  0  0  0  0  0  0  0  0  0  0  0
    1.9622    0.9353    1.1691 H   0  0  0  0  0  0  0  0  0  0  0  0
    2.6308    0.8545   -3.6157 H   0  0  0  0  0  0  0  0  0  0  0  0
    0.8960   -0.4462   -2.6316 H   0  0  0  0  0  0  0  0  0  0  0  0
    7.7872    5.4091   -1.7023 H   0  0  0  0  0  0  0  0  0  0  0  0
    1.5173   -1.7646    1.2440 H   0  0  0  0  0  0  0  0  0  0  0  0
   -1.3688    0.2645   -1.0972 H   0  0  0  0  0  0  0  0  0  0  0  0
   -0.2870   -3.0072    2.2835 H   0  0  0  0  0  0  0  0  0  0  0  0
   -3.0912   -1.0345    0.0109 H   0  0  0  0  0  0  0  0  0  0  0  0
  1  2  1  0  0  0  0 
  1  3  1  0  0  0  0 
  3  4  1  0  0  0  0 
  3  5  1  0  0  0  0 
  4  6  1  0  0  0  0 
  4  7  2  0  0  0  0 
  5  8  2  0  0  0  0 
  6  9  1  0  0  0  0 
  6 10  2  0  0  0  0 
  7 11  1  0  0  0  0 
  8  9  1  0  0  0  0 
  8 12  1  0  0  0  0 
  9 13  2  0  0  0  0 
 10 14  1  0  0  0  0 
 11 14  2  0  0  0  0 
 11 15  1  0  0  0  0 
 12 16  1  0  0  0  0 
 12 17  2  0  0  0  0 
 15 18  2  0  0  0  0 
 15 19  1  0  0  0  0 
 18 20  1  0  0  0  0 
 19 21  2  0  0  0  0 
 20 22  2  0  0  0  0 
 21 22  1  0  0  0  0 
  1 23  1  0  0  0  0 
  1 24  1  0  0  0  0 
  2 25  1  0  0  0  0 
  2 26  1  0  0  0  0 
  2 27  1  0  0  0  0 
  5 28  1  0  0  0  0 
  7 29  1  0  0  0  0 
 10 30  1  0  0  0  0 
 14 31  1  0  0  0  0 
 16 32  1  0  0  0  0 
 18 33  1  0  0  0  0 
 19 34  1  0  0  0  0 
 20 35  1  0  0  0  0 
 21 36  1  0  0  0  0 
M  END
> <cdk:Title>
rosoxacin

> <Conformer>
1

> <SuperDrugID>
SD000058

$$$$
