rifampicin
  CDK     0628171801

117121  0  0  0  0  0  0  0  0999 V2000
   -8.6728   -2.1734    4.4604 C   0  0  0  0  0  0  0  0  0  0  0  0
   -9.9276   -2.6168    4.9765 C   0  0  0  0  0  0  0  0  0  0  0  0
  -10.3066   -2.3561    6.3137 C   0  0  0  0  0  0  0  0  0  0  0  0
   -9.4260   -1.6014    7.1079 C   0  0  0  0  0  0  0  0  0  0  0  0
   -8.2100   -1.1307    6.6170 C   0  0  0  0  0  0  0  0  0  0  0  0
   -7.7652   -1.4525    5.3050 C   0  0  0  0  0  0  0  0  0  0  0  0
   -6.4937   -1.0820    4.7885 C   0  0  0  0  0  0  0  0  0  0  0  0
   -6.1763   -1.2190    3.4117 C   0  0  0  0  0  0  0  0  0  0  0  0
   -7.1198   -1.8668    2.5741 C   0  0  0  0  0  0  0  0  0  0  0  0
   -8.3071   -2.4082    3.1095 C   0  0  0  0  0  0  0  0  0  0  0  0
   -4.9606   -0.7166    2.9434 C   0  0  0  0  0  0  0  0  0  0  0  0
   -4.3168   -1.2008    1.9404 N   0  0  0  0  0  0  0  0  0  0  0  0
   -3.1819   -0.8557    1.4311 N   0  0  0  0  0  0  0  0  0  0  0  0
   -2.9347   -1.2308    0.0634 C   0  0  1  0  0  0  0  0  0  0  0  0
   -2.1429   -0.1136    2.1188 C   0  0  1  0  0  0  0  0  0  0  0  0
   -0.7694   -0.8091    1.9707 C   0  0  1  0  0  0  0  0  0  0  0  0
   -0.4824   -1.0806    0.5315 N   0  0  2  0  0  0  0  0  0  0  0  0
   -1.5523   -1.9095   -0.1051 C   0  0  2  0  0  0  0  0  0  0  0  0
    0.8919   -1.6092    0.3055 C   0  0  0  0  0  0  0  0  0  0  0  0
   -5.5129   -0.6328    5.6133 O   0  0  0  0  0  0  0  0  0  0  0  0
   -7.0071   -1.9705    1.2222 N   0  0  0  0  0  0  0  0  0  0  0  0
   -9.1014   -3.1204    2.2596 O   0  0  0  0  0  0  0  0  0  0  0  0
  -10.8287   -3.2898    4.2089 O   0  0  0  0  0  0  0  0  0  0  0  0
  -11.6095   -2.8350    6.8435 C   0  0  0  0  0  0  0  0  0  0  0  0
   -9.6761   -1.2315    8.3909 O   0  0  0  0  0  0  0  0  0  0  0  0
   -8.7525   -0.1586    8.6705 C   0  0  2  0  0  0  0  0  0  0  0  0
   -7.7312   -0.2902    7.6239 C   0  0  0  0  0  0  0  0  0  0  0  0
   -6.6867    0.4005    7.6325 O   0  0  0  0  0  0  0  0  0  0  0  0
   -8.1804   -0.3403   10.0963 C   0  0  0  0  0  0  0  0  0  0  0  0
   -9.3114    1.1665    8.4812 O   0  0  0  0  0  0  0  0  0  0  0  0
  -10.6020    1.2872    8.8028 C   0  0  0  0  0  0  0  0  0  0  0  0
  -11.5339    1.2805    7.8374 C   0  0  0  0  0  0  0  0  0  0  0  0
  -12.9679    1.3386    8.0871 C   0  0  1  0  0  0  0  0  0  0  0  0
  -13.6839    2.5809    7.4392 C   0  0  2  0  0  0  0  0  0  0  0  0
  -13.4766    0.0704    7.6081 O   0  0  0  0  0  0  0  0  0  0  0  0
  -14.6820   -0.4196    8.2225 C   0  0  0  0  0  0  0  0  0  0  0  0
  -14.1703    2.4131    5.9418 C   0  0  2  0  0  0  0  0  0  0  0  0
  -13.1803    2.1176    4.7390 C   0  0  1  0  0  0  0  0  0  0  0  0
  -14.9537    3.5813    5.6168 O   0  0  0  0  0  0  0  0  0  0  0  0
  -16.2999    3.7944    5.4780 C   0  0  0  0  0  0  0  0  0  0  0  0
  -17.3772    2.7924    5.6124 C   0  0  0  0  0  0  0  0  0  0  0  0
  -16.6365    4.9717    5.2184 O   0  0  0  0  0  0  0  0  0  0  0  0
  -13.9961    1.6305    3.4697 C   0  0  1  0  0  0  0  0  0  0  0  0
  -12.2528    3.3288    4.4351 C   0  0  0  0  0  0  0  0  0  0  0  0
  -13.3485    1.6595    2.0288 C   0  0  2  0  0  0  0  0  0  0  0  0
  -14.5055    0.3209    3.7421 O   0  0  0  0  0  0  0  0  0  0  0  0
  -14.4463    1.4178    0.9400 C   0  0  0  0  0  0  0  0  0  0  0  0
  -12.0790    0.7406    1.8107 C   0  0  2  0  0  0  0  0  0  0  0  0
  -11.1782    1.1227    0.5691 C   0  0  2  0  0  0  0  0  0  0  0  0
  -12.4938   -0.6231    1.7023 O   0  0  0  0  0  0  0  0  0  0  0  0
  -10.2221    0.0851    0.1367 C   0  0  0  0  0  0  0  0  0  0  0  0
  -10.3978    2.4517    0.8231 C   0  0  0  0  0  0  0  0  0  0  0  0
   -9.5923    0.1485   -1.0564 C   0  0  0  0  0  0  0  0  0  0  0  0
   -8.6581   -0.7089   -1.5578 C   0  0  0  0  0  0  0  0  0  0  0  0
   -7.5566   -1.2192   -0.9569 C   0  0  0  0  0  0  0  0  0  0  0  0
   -6.6903   -2.1111   -1.7303 C   0  0  0  0  0  0  0  0  0  0  0  0
   -7.2277   -0.9352    0.3648 C   0  0  0  0  0  0  0  0  0  0  0  0
   -7.2404    0.2527    0.7736 O   0  0  0  0  0  0  0  0  0  0  0  0
  -13.0117    3.9365    7.8453 C   0  0  0  0  0  0  0  0  0  0  0  0
   -4.5736    0.0640    3.4176 H   0  0  0  0  0  0  0  0  0  0  0  0
   -3.6967   -1.9130   -0.3228 H   0  0  0  0  0  0  0  0  0  0  0  0
   -2.9683   -0.3242   -0.5467 H   0  0  0  0  0  0  0  0  0  0  0  0
   -2.0869    0.8899    1.6883 H   0  0  0  0  0  0  0  0  0  0  0  0
   -2.3315   -0.0076    3.1884 H   0  0  0  0  0  0  0  0  0  0  0  0
   -0.0004   -0.1511    2.3849 H   0  0  0  0  0  0  0  0  0  0  0  0
   -0.7622   -1.7437    2.5442 H   0  0  0  0  0  0  0  0  0  0  0  0
   -1.3564   -2.0144   -1.1770 H   0  0  0  0  0  0  0  0  0  0  0  0
   -1.5810   -2.9124    0.3381 H   0  0  0  0  0  0  0  0  0  0  0  0
    1.0750   -1.7588   -0.7614 H   0  0  0  0  0  0  0  0  0  0  0  0
    1.0484   -2.5598    0.8235 H   0  0  0  0  0  0  0  0  0  0  0  0
    1.6299   -0.8890    0.6635 H   0  0  0  0  0  0  0  0  0  0  0  0
   -5.5300   -1.2412    6.3811 H   0  0  0  0  0  0  0  0  0  0  0  0
   -6.9330   -2.8642    0.8508 H   0  0  0  0  0  0  0  0  0  0  0  0
   -9.2798   -3.9683    2.7152 H   0  0  0  0  0  0  0  0  0  0  0  0
  -10.9799   -2.7211    3.4263 H   0  0  0  0  0  0  0  0  0  0  0  0
  -12.4246   -2.3636    6.2910 H   0  0  0  0  0  0  0  0  0  0  0  0
  -11.7432   -2.6142    7.9042 H   0  0  0  0  0  0  0  0  0  0  0  0
  -11.6801   -3.9172    6.7185 H   0  0  0  0  0  0  0  0  0  0  0  0
   -8.9815   -0.2514   10.8321 H   0  0  0  0  0  0  0  0  0  0  0  0
   -7.7182   -1.3238   10.2041 H   0  0  0  0  0  0  0  0  0  0  0  0
   -7.4321    0.4257   10.3066 H   0  0  0  0  0  0  0  0  0  0  0  0
  -10.8524    1.3659    9.7598 H   0  0  0  0  0  0  0  0  0  0  0  0
  -11.2229    1.2062    6.8988 H   0  0  0  0  0  0  0  0  0  0  0  0
  -13.1253    1.4035    9.1725 H   0  0  0  0  0  0  0  0  0  0  0  0
  -14.6372    2.6338    7.9817 H   0  0  0  0  0  0  0  0  0  0  0  0
  -14.9501   -1.3563    7.7331 H   0  0  0  0  0  0  0  0  0  0  0  0
  -15.5116    0.2790    8.1061 H   0  0  0  0  0  0  0  0  0  0  0  0
  -14.5209   -0.6216    9.2835 H   0  0  0  0  0  0  0  0  0  0  0  0
  -14.8318    1.5492    5.9760 H   0  0  0  0  0  0  0  0  0  0  0  0
  -12.5362    1.2832    5.0208 H   0  0  0  0  0  0  0  0  0  0  0  0
  -17.9673    2.7700    4.6924 H   0  0  0  0  0  0  0  0  0  0  0  0
  -17.0038    1.7881    5.8005 H   0  0  0  0  0  0  0  0  0  0  0  0
  -18.0282    3.0754    6.4436 H   0  0  0  0  0  0  0  0  0  0  0  0
  -14.8679    2.2873    3.4063 H   0  0  0  0  0  0  0  0  0  0  0  0
  -11.5202    3.0804    3.6692 H   0  0  0  0  0  0  0  0  0  0  0  0
  -12.8359    4.1883    4.0996 H   0  0  0  0  0  0  0  0  0  0  0  0
  -11.6834    3.6140    5.3106 H   0  0  0  0  0  0  0  0  0  0  0  0
  -13.0539    2.6967    1.8764 H   0  0  0  0  0  0  0  0  0  0  0  0
  -15.1978    0.1634    3.0668 H   0  0  0  0  0  0  0  0  0  0  0  0
  -14.0745    1.6497   -0.0569 H   0  0  0  0  0  0  0  0  0  0  0  0
  -14.7918    0.3825    0.9462 H   0  0  0  0  0  0  0  0  0  0  0  0
  -15.3078    2.0649    1.1114 H   0  0  0  0  0  0  0  0  0  0  0  0
  -11.4471    0.7891    2.7006 H   0  0  0  0  0  0  0  0  0  0  0  0
  -11.8475    1.2934   -0.2770 H   0  0  0  0  0  0  0  0  0  0  0  0
  -12.9196   -0.8319    2.5579 H   0  0  0  0  0  0  0  0  0  0  0  0
  -10.0176   -0.6679    0.7537 H   0  0  0  0  0  0  0  0  0  0  0  0
   -9.8185    2.7486   -0.0523 H   0  0  0  0  0  0  0  0  0  0  0  0
   -9.7135    2.3338    1.6656 H   0  0  0  0  0  0  0  0  0  0  0  0
  -11.0751    3.2759    1.0400 H   0  0  0  0  0  0  0  0  0  0  0  0
   -9.8348    0.8991   -1.6599 H   0  0  0  0  0  0  0  0  0  0  0  0
   -8.8103   -0.9566   -2.5111 H   0  0  0  0  0  0  0  0  0  0  0  0
   -6.2626   -1.5661   -2.5733 H   0  0  0  0  0  0  0  0  0  0  0  0
   -7.2637   -2.9588   -2.1141 H   0  0  0  0  0  0  0  0  0  0  0  0
   -5.8589   -2.5116   -1.1493 H   0  0  0  0  0  0  0  0  0  0  0  0
  -13.1156    4.0105    9.0172 H   0  0  0  0  0  0  0  0  0  0  0  0
  -11.9491    3.9424    7.4664 H   0  0  0  0  0  0  0  0  0  0  0  0
  -13.5135    4.7715    7.2692 H   0  0  0  0  0  0  0  0  0  0  0  0
  1  2  2  0  0  0  0 
  2  3  1  0  0  0  0 
  3  4  2  0  0  0  0 
  5  6  2  0  0  0  0 
  7  8  2  0  0  0  0 
  8  9  1  0  0  0  0 
  9 10  2  0  0  0  0 
  1  6  1  0  0  0  0 
  1 10  1  0  0  0  0 
  6  7  1  0  0  0  0 
  8 11  1  0  0  0  0 
 11 12  2  0  0  0  0 
 12 13  1  0  0  0  0 
 14 13  1  0  0  0  0 
 13 15  1  0  0  0  0 
 15 16  1  0  0  0  0 
 16 17  1  0  0  0  0 
 17 18  1  0  0  0  0 
 14 18  1  0  0  0  0 
 17 19  1  0  0  0  0 
  7 20  1  0  0  0  0 
  9 21  1  0  0  0  0 
 10 22  1  0  0  0  0 
  2 23  1  0  0  0  0 
  3 24  1  0  0  0  0 
  4 25  1  0  0  0  0 
  4  5  1  0  0  0  0 
  5 27  1  0  0  0  0 
 25 26  1  0  0  0  0 
 26 27  1  0  0  0  0 
 27 28  2  0  0  0  0 
 26 29  1  0  0  0  0 
 26 30  1  0  0  0  0 
 30 31  1  0  0  0  0 
 31 32  2  0  0  0  0 
 32 33  1  0  0  0  0 
 33 34  1  0  0  0  0 
 33 35  1  0  0  0  0 
 35 36  1  0  0  0  0 
 34 37  1  0  0  0  0 
 37 38  1  0  0  0  0 
 37 39  1  0  0  0  0 
 39 40  1  0  0  0  0 
 40 41  1  0  0  0  0 
 40 42  2  0  0  0  0 
 38 43  1  0  0  0  0 
 38 44  1  0  0  0  0 
 43 45  1  0  0  0  0 
 43 46  1  0  0  0  0 
 45 47  1  0  0  0  0 
 45 48  1  0  0  0  0 
 48 49  1  0  0  0  0 
 48 50  1  0  0  0  0 
 49 51  1  0  0  0  0 
 49 52  1  0  0  0  0 
 51 53  2  0  0  0  0 
 53 54  1  0  0  0  0 
 54 55  2  0  0  0  0 
 55 56  1  0  0  0  0 
 55 57  1  0  0  0  0 
 57 58  2  0  0  0  0 
 57 21  1  0  0  0  0 
 34 59  1  0  0  0  0 
 11 60  1  0  0  0  0 
 14 61  1  0  0  0  0 
 14 62  1  0  0  0  0 
 15 63  1  0  0  0  0 
 15 64  1  0  0  0  0 
 16 65  1  0  0  0  0 
 16 66  1  0  0  0  0 
 18 67  1  0  0  0  0 
 18 68  1  0  0  0  0 
 19 69  1  0  0  0  0 
 19 70  1  0  0  0  0 
 19 71  1  0  0  0  0 
 20 72  1  0  0  0  0 
 21 73  1  0  0  0  0 
 22 74  1  0  0  0  0 
 23 75  1  0  0  0  0 
 24 76  1  0  0  0  0 
 24 77  1  0  0  0  0 
 24 78  1  0  0  0  0 
 29 79  1  0  0  0  0 
 29 80  1  0  0  0  0 
 29 81  1  0  0  0  0 
 31 82  1  0  0  0  0 
 32 83  1  0  0  0  0 
 33 84  1  0  0  0  0 
 34 85  1  0  0  0  0 
 36 86  1  0  0  0  0 
 36 87  1  0  0  0  0 
 36 88  1  0  0  0  0 
 37 89  1  0  0  0  0 
 38 90  1  0  0  0  0 
 41 91  1  0  0  0  0 
 41 92  1  0  0  0  0 
 41 93  1  0  0  0  0 
 43 94  1  0  0  0  0 
 44 95  1  0  0  0  0 
 44 96  1  0  0  0  0 
 44 97  1  0  0  0  0 
 45 98  1  0  0  0  0 
 46 99  1  0  0  0  0 
 47100  1  0  0  0  0 
 47101  1  0  0  0  0 
 47102  1  0  0  0  0 
 48103  1  0  0  0  0 
 49104  1  0  0  0  0 
 50105  1  0  0  0  0 
 51106  1  0  0  0  0 
 52107  1  0  0  0  0 
 52108  1  0  0  0  0 
 52109  1  0  0  0  0 
 53110  1  0  0  0  0 
 54111  1  0  0  0  0 
 56112  1  0  0  0  0 
 56113  1  0  0  0  0 
 56114  1  0  0  0  0 
 59115  1  0  0  0  0 
 59116  1  0  0  0  0 
 59117  1  0  0  0  0 
M  END
> <cdk:Title>
rifampicin

> <Conformer>
1

> <SuperDrugID>
SD002138

$$$$
