cefmetazole
  CDK     0628171802

 47 49  0  0  0  0  0  0  0  0999 V2000
    1.8785   -8.9552    1.9683 N   0  0  0  0  0  0  0  0  0  0  0  0
    3.1031   -9.5353    2.1003 C   0  0  0  0  0  0  0  0  0  0  0  0
    1.2705   -8.1140    2.9571 C   0  0  1  0  0  0  0  0  0  0  0  0
    3.6509  -10.3556    1.0086 C   0  0  1  0  0  0  0  0  0  0  0  0
    3.7901   -9.3777    3.1382 O   0  0  0  0  0  0  0  0  0  0  0  0
    1.1782   -8.6590    4.2919 O   0  0  0  0  0  0  0  0  0  0  0  0
    1.8129   -6.6479    2.9809 C   0  0  2  0  0  0  0  0  0  0  0  0
    0.0272   -7.4701    2.5138 C   0  0  0  0  0  0  0  0  0  0  0  0
    3.6891  -12.1102    1.4956 S   0  0  0  0  0  0  0  0  0  0  0  0
    0.5235   -9.9345    4.4110 C   0  0  0  0  0  0  0  0  0  0  0  0
    0.5223   -6.2258    2.5787 N   0  0  0  0  0  0  0  0  0  0  0  0
    2.9076   -6.0462    1.6573 S   0  0  0  0  0  0  0  0  0  0  0  0
   -1.0886   -7.9275    2.1742 O   0  0  0  0  0  0  0  0  0  0  0  0
    4.4622  -12.9169    0.0591 C   0  0  1  0  0  0  0  0  0  0  0  0
    0.0550   -4.9915    2.3134 C   0  0  0  0  0  0  0  0  0  0  0  0
    2.3320   -4.3155    1.5236 C   0  0  1  0  0  0  0  0  0  0  0  0
    4.4889  -14.2668    0.2382 C   0  0  0  0  0  0  0  0  0  0  0  0
   -1.3036   -4.7856    2.5625 C   0  0  0  0  0  0  0  0  0  0  0  0
    0.9169   -4.0371    1.8548 C   0  0  0  0  0  0  0  0  0  0  0  0
    4.5093  -15.4056    0.3832 N   0  0  0  0  0  0  0  0  0  0  0  0
   -1.9054   -5.3769    3.6242 O   0  0  0  0  0  0  0  0  0  0  0  0
   -2.0335   -4.0800    1.8296 O   0  0  0  0  0  0  0  0  0  0  0  0
    0.5199   -2.6374    1.6597 C   0  0  1  0  0  0  0  0  0  0  0  0
   -0.1118   -2.3787   -0.0344 S   0  0  0  0  0  0  0  0  0  0  0  0
   -0.6995   -0.7276    0.0275 C   0  0  0  0  0  0  0  0  0  0  0  0
   -0.1335    0.3615   -0.5088 N   0  0  0  0  0  0  0  0  0  0  0  0
   -1.8002   -0.3372    0.6756 N   0  0  0  0  0  0  0  0  0  0  0  0
    1.0652    0.4255   -1.2762 C   0  0  0  0  0  0  0  0  0  0  0  0
   -0.8770    1.3676   -0.1854 N   0  0  0  0  0  0  0  0  0  0  0  0
   -1.8768    0.9449    0.5235 N   0  0  0  0  0  0  0  0  0  0  0  0
    2.0797   -6.2680    3.9733 H   0  0  0  0  0  0  0  0  0  0  0  0
    1.3890   -9.1128    1.1449 H   0  0  0  0  0  0  0  0  0  0  0  0
    3.0414  -10.2623    0.1087 H   0  0  0  0  0  0  0  0  0  0  0  0
    4.6627  -10.0210    0.7731 H   0  0  0  0  0  0  0  0  0  0  0  0
    0.4541  -10.1815    5.4705 H   0  0  0  0  0  0  0  0  0  0  0  0
    1.0995  -10.7197    3.9183 H   0  0  0  0  0  0  0  0  0  0  0  0
   -0.4852   -9.9071    3.9965 H   0  0  0  0  0  0  0  0  0  0  0  0
    3.8906  -12.6907   -0.8405 H   0  0  0  0  0  0  0  0  0  0  0  0
    5.4811  -12.5490   -0.0601 H   0  0  0  0  0  0  0  0  0  0  0  0
    2.9691   -3.7305    2.1904 H   0  0  0  0  0  0  0  0  0  0  0  0
    2.5409   -4.0021    0.4961 H   0  0  0  0  0  0  0  0  0  0  0  0
   -2.8620   -5.2349    3.7955 H   0  0  0  0  0  0  0  0  0  0  0  0
   -0.2375   -2.3245    2.3823 H   0  0  0  0  0  0  0  0  0  0  0  0
    1.3651   -1.9591    1.8104 H   0  0  0  0  0  0  0  0  0  0  0  0
    1.8943    0.0182   -0.6957 H   0  0  0  0  0  0  0  0  0  0  0  0
    1.3047    1.4553   -1.5501 H   0  0  0  0  0  0  0  0  0  0  0  0
    0.9521   -0.1592   -2.1902 H   0  0  0  0  0  0  0  0  0  0  0  0
  1  2  1  0  0  0  0 
  3  1  1  0  0  0  0 
  2  4  1  0  0  0  0 
  2  5  2  0  0  0  0 
  3  6  1  0  0  0  0 
  7  3  1  0  0  0  0 
  3  8  1  0  0  0  0 
  4  9  1  0  0  0  0 
  6 10  1  0  0  0  0 
  7 11  1  0  0  0  0 
  7 12  1  0  0  0  0 
  7 31  1  0  0  0  0 
  8 11  1  0  0  0  0 
  8 13  2  0  0  0  0 
  9 14  1  0  0  0  0 
 11 15  1  0  0  0  0 
 12 16  1  0  0  0  0 
 14 17  1  0  0  0  0 
 15 18  1  0  0  0  0 
 15 19  2  0  0  0  0 
 16 19  1  0  0  0  0 
 17 20  3  0  0  0  0 
 18 21  1  0  0  0  0 
 18 22  2  0  0  0  0 
 19 23  1  0  0  0  0 
 23 24  1  0  0  0  0 
 24 25  1  0  0  0  0 
 25 26  1  0  0  0  0 
 25 27  2  0  0  0  0 
 26 28  1  0  0  0  0 
 26 29  1  0  0  0  0 
 27 30  1  0  0  0  0 
 29 30  2  0  0  0  0 
  1 32  1  0  0  0  0 
  4 33  1  0  0  0  0 
  4 34  1  0  0  0  0 
 10 35  1  0  0  0  0 
 10 36  1  0  0  0  0 
 10 37  1  0  0  0  0 
 14 38  1  0  0  0  0 
 14 39  1  0  0  0  0 
 16 40  1  0  0  0  0 
 16 41  1  0  0  0  0 
 21 42  1  0  0  0  0 
 23 43  1  0  0  0  0 
 23 44  1  0  0  0  0 
 28 45  1  0  0  0  0 
 28 46  1  0  0  0  0 
 28 47  1  0  0  0  0 
M  END
> <cdk:Title>
cefmetazole

> <Conformer>
1

> <SuperDrugID>
SD000467

$$$$
