penicillamine
  CDK     0628171801

 20 19  0  0  0  0  0  0  0  0999 V2000
   -1.0957    0.6733   -1.9679 C   0  0  0  0  0  0  0  0  0  0  0  0
   -1.0143    0.6131   -0.4104 C   0  0  2  0  0  0  0  0  0  0  0  0
   -0.3440   -0.7359    0.0019 C   0  0  0  0  0  0  0  0  0  0  0  0
   -2.7249    0.6061    0.2152 S   0  0  0  0  0  0  0  0  0  0  0  0
   -0.2009    1.8438    0.1463 C   0  0  1  0  0  0  0  0  0  0  0  0
   -0.7794    3.1487   -0.2136 N   0  0  2  0  0  0  0  0  0  0  0  0
    0.0060    1.8400    1.6142 C   0  0  0  0  0  0  0  0  0  0  0  0
    1.2394    1.6111    2.1223 O   0  0  0  0  0  0  0  0  0  0  0  0
   -0.9335    2.0371    2.4185 O   0  0  0  0  0  0  0  0  0  0  0  0
   -1.6184    1.5712   -2.3014 H   0  0  0  0  0  0  0  0  0  0  0  0
   -1.6347   -0.1909   -2.3614 H   0  0  0  0  0  0  0  0  0  0  0  0
   -0.0952    0.6783   -2.4043 H   0  0  0  0  0  0  0  0  0  0  0  0
   -0.8711   -1.5841   -0.4428 H   0  0  0  0  0  0  0  0  0  0  0  0
    0.6947   -0.7680   -0.3349 H   0  0  0  0  0  0  0  0  0  0  0  0
   -0.3543   -0.8700    1.0853 H   0  0  0  0  0  0  0  0  0  0  0  0
   -3.0471    1.7834   -0.3905 H   0  0  0  0  0  0  0  0  0  0  0  0
    0.7882    1.8237   -0.3176 H   0  0  0  0  0  0  0  0  0  0  0  0
   -1.7260    3.1833    0.1695 H   0  0  0  0  0  0  0  0  0  0  0  0
   -0.8643    3.1839   -1.2307 H   0  0  0  0  0  0  0  0  0  0  0  0
    1.3826    1.5983    3.0912 H   0  0  0  0  0  0  0  0  0  0  0  0
  1  2  1  0  0  0  0 
  2  3  1  0  0  0  0 
  2  4  1  0  0  0  0 
  2  5  1  0  0  0  0 
  5  6  1  0  0  0  0 
  5  7  1  0  0  0  0 
  7  8  1  0  0  0  0 
  7  9  2  0  0  0  0 
  1 10  1  0  0  0  0 
  1 11  1  0  0  0  0 
  1 12  1  0  0  0  0 
  3 13  1  0  0  0  0 
  3 14  1  0  0  0  0 
  3 15  1  0  0  0  0 
  4 16  1  0  0  0  0 
  5 17  1  0  0  0  0 
  6 18  1  0  0  0  0 
  6 19  1  0  0  0  0 
  8 20  1  0  0  0  0 
M  END
> <cdk:Title>
penicillamine

> <Conformer>
1

> <SuperDrugID>
SD001866

$$$$
