methallatal
  CDK     0628171801

 29 29  0  0  0  0  0  0  0  0999 V2000
   -4.0202   -0.0429    1.2246 C   0  0  1  0  0  0  0  0  0  0  0  0
   -4.9346    1.0763    1.5147 C   0  0  0  0  0  0  0  0  0  0  0  0
   -3.0845    0.0801   -0.0430 C   0  0  2  0  0  0  0  0  0  0  0  0
   -6.2934    1.0993    0.9790 C   0  0  0  0  0  0  0  0  0  0  0  0
   -4.5489    2.0870    2.3162 C   0  0  0  0  0  0  0  0  0  0  0  0
   -3.9050    0.1897   -1.3808 C   0  0  2  0  0  0  0  0  0  0  0  0
   -2.2464   -1.1722   -0.0898 C   0  0  0  0  0  0  0  0  0  0  0  0
   -2.1718    1.2734    0.0883 C   0  0  0  0  0  0  0  0  0  0  0  0
   -3.0693    0.2303   -2.6888 C   0  0  0  0  0  0  0  0  0  0  0  0
   -2.7737   -2.2950   -0.2643 O   0  0  0  0  0  0  0  0  0  0  0  0
   -0.8944   -1.1559    0.0509 N   0  0  0  0  0  0  0  0  0  0  0  0
   -2.6216    2.4412    0.0386 O   0  0  0  0  0  0  0  0  0  0  0  0
   -0.8235    1.1550    0.2269 N   0  0  0  0  0  0  0  0  0  0  0  0
   -0.2191   -0.0268    0.2273 C   0  0  0  0  0  0  0  0  0  0  0  0
    1.4633   -0.0987    0.4593 S   0  0  0  0  0  0  0  0  0  0  0  0
   -3.3903   -0.2151    2.1049 H   0  0  0  0  0  0  0  0  0  0  0  0
   -4.6230   -0.9532    1.1389 H   0  0  0  0  0  0  0  0  0  0  0  0
   -6.4534    1.9991    0.3790 H   0  0  0  0  0  0  0  0  0  0  0  0
   -6.5064    0.2331    0.3509 H   0  0  0  0  0  0  0  0  0  0  0  0
   -7.0137    1.0950    1.8008 H   0  0  0  0  0  0  0  0  0  0  0  0
   -5.1616    2.8388    2.5316 H   0  0  0  0  0  0  0  0  0  0  0  0
   -3.6403    2.1081    2.7137 H   0  0  0  0  0  0  0  0  0  0  0  0
   -4.5171    1.0936   -1.3573 H   0  0  0  0  0  0  0  0  0  0  0  0
   -4.5956   -0.6547   -1.4534 H   0  0  0  0  0  0  0  0  0  0  0  0
   -3.7336    0.3368   -3.5483 H   0  0  0  0  0  0  0  0  0  0  0  0
   -2.4976   -0.6907   -2.8109 H   0  0  0  0  0  0  0  0  0  0  0  0
   -2.3780    1.0749   -2.6837 H   0  0  0  0  0  0  0  0  0  0  0  0
   -0.4093   -1.9967    0.0269 H   0  0  0  0  0  0  0  0  0  0  0  0
   -0.2884    1.9605    0.3174 H   0  0  0  0  0  0  0  0  0  0  0  0
  1  2  1  0  0  0  0 
  1  3  1  0  0  0  0 
  2  4  1  0  0  0  0 
  2  5  2  0  0  0  0 
  3  6  1  0  0  0  0 
  3  7  1  0  0  0  0 
  3  8  1  0  0  0  0 
  6  9  1  0  0  0  0 
  7 10  2  0  0  0  0 
  7 11  1  0  0  0  0 
  8 12  2  0  0  0  0 
  8 13  1  0  0  0  0 
 11 14  1  0  0  0  0 
 13 14  1  0  0  0  0 
 14 15  2  0  0  0  0 
 16  1  1  0  0  0  0 
 17  1  1  0  0  0  0 
 18  4  1  0  0  0  0 
 19  4  1  0  0  0  0 
 20  4  1  0  0  0  0 
 21  5  1  0  0  0  0 
 22  5  1  0  0  0  0 
 23  6  1  0  0  0  0 
 24  6  1  0  0  0  0 
 25  9  1  0  0  0  0 
 26  9  1  0  0  0  0 
 27  9  1  0  0  0  0 
 28 11  1  0  0  0  0 
 29 13  1  0  0  0  0 
M  END
> <cdk:Title>
methallatal

> <Conformer>
1

> <SuperDrugID>
SD003222

$$$$
