reserpiline
  CDK     0628171801

 58 62  0  0  0  0  0  0  0  0999 V2000
   -0.3870    0.1957    2.6722 C   0  0  0  0  0  0  0  0  0  0  0  0
    0.6974   -0.3158    2.0065 O   0  0  0  0  0  0  0  0  0  0  0  0
   -0.1782    0.8853    3.7013 O   0  0  0  0  0  0  0  0  0  0  0  0
   -1.6976   -0.0413    2.2266 C   0  0  0  0  0  0  0  0  0  0  0  0
    2.0798   -0.0824    2.2959 C   0  0  0  0  0  0  0  0  0  0  0  0
   -2.8424    0.6736    2.8391 C   0  0  1  0  0  0  0  0  0  0  0  0
   -1.9267   -0.8896    1.1967 C   0  0  0  0  0  0  0  0  0  0  0  0
   -2.8324    2.1657    2.3645 C   0  0  1  0  0  0  0  0  0  0  0  0
   -4.2204   -0.0084    2.5410 C   0  0  1  0  0  0  0  0  0  0  0  0
   -3.1390   -1.2272    0.7114 O   0  0  0  0  0  0  0  0  0  0  0  0
   -4.0872    2.9921    2.7692 C   0  0  2  0  0  0  0  0  0  0  0  0
   -5.3948    0.8636    3.0657 C   0  0  1  0  0  0  0  0  0  0  0  0
   -4.2684   -0.3793    1.0221 C   0  0  1  0  0  0  0  0  0  0  0  0
   -4.0628    3.5668    4.1378 C   0  0  0  0  0  0  0  0  0  0  0  0
   -5.3703    2.2496    2.5095 N   0  0  1  0  0  0  0  0  0  0  0  0
   -5.5430   -1.1387    0.5812 C   0  0  0  0  0  0  0  0  0  0  0  0
   -5.2373    3.8531    4.8376 C   0  0  0  0  0  0  0  0  0  0  0  0
   -3.0056    3.9712    4.8695 N   0  0  0  0  0  0  0  0  0  0  0  0
   -6.5843    3.0592    2.8674 C   0  0  1  0  0  0  0  0  0  0  0  0
   -4.8448    4.4592    6.0262 C   0  0  0  0  0  0  0  0  0  0  0  0
   -6.5988    3.5469    4.3488 C   0  0  2  0  0  0  0  0  0  0  0  0
   -3.4518    4.5163    6.0123 C   0  0  0  0  0  0  0  0  0  0  0  0
   -5.5860    4.9749    7.1027 C   0  0  0  0  0  0  0  0  0  0  0  0
   -2.7425    5.0952    7.0776 C   0  0  0  0  0  0  0  0  0  0  0  0
   -4.8876    5.5568    8.1856 C   0  0  0  0  0  0  0  0  0  0  0  0
   -3.4691    5.6373    8.1634 C   0  0  0  0  0  0  0  0  0  0  0  0
   -5.5936    6.0697    9.2411 O   0  0  0  0  0  0  0  0  0  0  0  0
   -2.7890    6.2180    9.2015 O   0  0  0  0  0  0  0  0  0  0  0  0
   -5.8303    5.1004   10.2773 C   0  0  0  0  0  0  0  0  0  0  0  0
   -2.6479    7.6423    9.0493 C   0  0  0  0  0  0  0  0  0  0  0  0
   -4.0881    3.8639    2.1080 H   0  0  0  0  0  0  0  0  0  0  0  0
   -2.7292    0.6615    3.9293 H   0  0  0  0  0  0  0  0  0  0  0  0
   -4.2544   -0.9497    3.1027 H   0  0  0  0  0  0  0  0  0  0  0  0
    2.3101   -0.3634    3.3244 H   0  0  0  0  0  0  0  0  0  0  0  0
    2.6919   -0.6807    1.6200 H   0  0  0  0  0  0  0  0  0  0  0  0
    2.3161    0.9721    2.1437 H   0  0  0  0  0  0  0  0  0  0  0  0
   -1.1705   -1.3456    0.7444 H   0  0  0  0  0  0  0  0  0  0  0  0
   -1.9347    2.6682    2.7348 H   0  0  0  0  0  0  0  0  0  0  0  0
   -2.7661    2.1876    1.2720 H   0  0  0  0  0  0  0  0  0  0  0  0
   -6.3355    0.3736    2.8097 H   0  0  0  0  0  0  0  0  0  0  0  0
   -5.3442    0.8939    4.1582 H   0  0  0  0  0  0  0  0  0  0  0  0
   -4.2110    0.5252    0.4087 H   0  0  0  0  0  0  0  0  0  0  0  0
   -5.3993   -1.5615   -0.4156 H   0  0  0  0  0  0  0  0  0  0  0  0
   -6.3979   -0.4607    0.5372 H   0  0  0  0  0  0  0  0  0  0  0  0
   -5.7665   -1.9511    1.2749 H   0  0  0  0  0  0  0  0  0  0  0  0
   -2.0736    3.8977    4.6101 H   0  0  0  0  0  0  0  0  0  0  0  0
   -6.6103    3.9344    2.2136 H   0  0  0  0  0  0  0  0  0  0  0  0
   -7.4972    2.4961    2.6588 H   0  0  0  0  0  0  0  0  0  0  0  0
   -7.2222    4.4414    4.4303 H   0  0  0  0  0  0  0  0  0  0  0  0
   -7.0294    2.7726    4.9893 H   0  0  0  0  0  0  0  0  0  0  0  0
   -6.6074    4.9315    7.1038 H   0  0  0  0  0  0  0  0  0  0  0  0
   -1.7215    5.1288    7.0619 H   0  0  0  0  0  0  0  0  0  0  0  0
   -6.3934    5.5865   11.0740 H   0  0  0  0  0  0  0  0  0  0  0  0
   -6.4222    4.2588    9.9081 H   0  0  0  0  0  0  0  0  0  0  0  0
   -4.8928    4.7308   10.7010 H   0  0  0  0  0  0  0  0  0  0  0  0
   -2.1057    8.0277    9.9125 H   0  0  0  0  0  0  0  0  0  0  0  0
   -2.0775    7.8917    8.1510 H   0  0  0  0  0  0  0  0  0  0  0  0
   -3.6208    8.1382    9.0133 H   0  0  0  0  0  0  0  0  0  0  0  0
  1  2  1  0  0  0  0 
  1  3  2  0  0  0  0 
  1  4  1  0  0  0  0 
  2  5  1  0  0  0  0 
  6  4  1  0  0  0  0 
  4  7  2  0  0  0  0 
  6  8  1  0  0  0  0 
  9  6  1  0  0  0  0 
  6 32  1  0  0  0  0 
  7 10  1  0  0  0  0 
 11  8  1  0  0  0  0 
  9 12  1  0  0  0  0 
 13  9  1  0  0  0  0 
  9 33  1  0  0  0  0 
 13 10  1  0  0  0  0 
 11 14  1  0  0  0  0 
 11 15  1  0  0  0  0 
 11 31  1  0  0  0  0 
 12 15  1  0  0  0  0 
 13 16  1  0  0  0  0 
 14 17  2  0  0  0  0 
 14 18  1  0  0  0  0 
 15 19  1  0  0  0  0 
 17 20  1  0  0  0  0 
 17 21  1  0  0  0  0 
 18 22  1  0  0  0  0 
 19 21  1  0  0  0  0 
 20 22  1  0  0  0  0 
 20 23  2  0  0  0  0 
 22 24  2  0  0  0  0 
 23 25  1  0  0  0  0 
 24 26  1  0  0  0  0 
 25 26  2  0  0  0  0 
 25 27  1  0  0  0  0 
 26 28  1  0  0  0  0 
 27 29  1  0  0  0  0 
 28 30  1  0  0  0  0 
  5 34  1  0  0  0  0 
  5 35  1  0  0  0  0 
  5 36  1  0  0  0  0 
  7 37  1  0  0  0  0 
  8 38  1  0  0  0  0 
  8 39  1  0  0  0  0 
 12 40  1  0  0  0  0 
 12 41  1  0  0  0  0 
 13 42  1  0  0  0  0 
 16 43  1  0  0  0  0 
 16 44  1  0  0  0  0 
 16 45  1  0  0  0  0 
 18 46  1  0  0  0  0 
 19 47  1  0  0  0  0 
 19 48  1  0  0  0  0 
 21 49  1  0  0  0  0 
 21 50  1  0  0  0  0 
 23 51  1  0  0  0  0 
 24 52  1  0  0  0  0 
 29 53  1  0  0  0  0 
 29 54  1  0  0  0  0 
 29 55  1  0  0  0  0 
 30 56  1  0  0  0  0 
 30 57  1  0  0  0  0 
 30 58  1  0  0  0  0 
M  END
> <cdk:Title>
reserpiline

> <Conformer>
1

> <SuperDrugID>
SD003031

$$$$
