buclizine
  CDK     0628171801

 64 67  0  0  0  0  0  0  0  0999 V2000
   -0.9695   -1.6322   -0.0464 C   0  0  1  0  0  0  0  0  0  0  0  0
    0.1313   -0.6440    0.2604 N   0  0  1  0  0  0  0  0  0  0  0  0
   -1.1487   -1.9086   -1.5140 C   0  0  0  0  0  0  0  0  0  0  0  0
   -0.7954   -2.9459    0.6587 C   0  0  0  0  0  0  0  0  0  0  0  0
   -0.0219    0.6894   -0.4073 C   0  0  1  0  0  0  0  0  0  0  0  0
    0.4667   -0.4327    1.7108 C   0  0  1  0  0  0  0  0  0  0  0  0
   -0.0416   -1.9999   -2.3959 C   0  0  0  0  0  0  0  0  0  0  0  0
   -2.4467   -2.0663   -2.0588 C   0  0  0  0  0  0  0  0  0  0  0  0
    0.3321   -3.7748    0.4232 C   0  0  0  0  0  0  0  0  0  0  0  0
   -1.7430   -3.3715    1.6233 C   0  0  0  0  0  0  0  0  0  0  0  0
    1.3183    1.4501   -0.3338 C   0  0  1  0  0  0  0  0  0  0  0  0
    1.7917    0.3626    1.8426 C   0  0  2  0  0  0  0  0  0  0  0  0
   -0.2268   -2.2273   -3.7727 C   0  0  0  0  0  0  0  0  0  0  0  0
   -2.6355   -2.2886   -3.4347 C   0  0  0  0  0  0  0  0  0  0  0  0
    0.5131   -4.9729    1.1382 C   0  0  0  0  0  0  0  0  0  0  0  0
   -1.5576   -4.5639    2.3465 C   0  0  0  0  0  0  0  0  0  0  0  0
    1.7738    1.6534    1.0793 N   0  0  1  0  0  0  0  0  0  0  0  0
   -1.5253   -2.3678   -4.2961 C   0  0  0  0  0  0  0  0  0  0  0  0
   -0.4257   -5.3619    2.1088 C   0  0  0  0  0  0  0  0  0  0  0  0
    3.0762    2.3943    1.1963 C   0  0  1  0  0  0  0  0  0  0  0  0
   -1.7521   -2.6274   -5.9542 Cl  0  0  0  0  0  0  0  0  0  0  0  0
    3.0607    3.7376    0.5469 C   0  0  0  0  0  0  0  0  0  0  0  0
    2.5250    4.8629    1.2056 C   0  0  0  0  0  0  0  0  0  0  0  0
    3.5386    3.9008   -0.7700 C   0  0  0  0  0  0  0  0  0  0  0  0
    2.4405    6.1072    0.5500 C   0  0  0  0  0  0  0  0  0  0  0  0
    3.4326    5.1415   -1.4254 C   0  0  0  0  0  0  0  0  0  0  0  0
    2.8634    6.2810   -0.7968 C   0  0  0  0  0  0  0  0  0  0  0  0
    2.7030    7.5819   -1.5784 C   0  0  2  0  0  0  0  0  0  0  0  0
    2.1488    8.7796   -0.7273 C   0  0  0  0  0  0  0  0  0  0  0  0
    1.6920    7.3512   -2.7525 C   0  0  0  0  0  0  0  0  0  0  0  0
    4.0797    8.0492   -2.1657 C   0  0  0  0  0  0  0  0  0  0  0  0
   -1.8882   -1.1553    0.3156 H   0  0  0  0  0  0  0  0  0  0  0  0
   -0.2812    0.5943   -1.4646 H   0  0  0  0  0  0  0  0  0  0  0  0
   -0.8133    1.2780    0.0690 H   0  0  0  0  0  0  0  0  0  0  0  0
   -0.3396    0.1049    2.2211 H   0  0  0  0  0  0  0  0  0  0  0  0
    0.6118   -1.3823    2.2322 H   0  0  0  0  0  0  0  0  0  0  0  0
    0.9127   -1.8878   -2.0461 H   0  0  0  0  0  0  0  0  0  0  0  0
   -3.2688   -2.0143   -1.4542 H   0  0  0  0  0  0  0  0  0  0  0  0
    1.0403   -3.5103   -0.2631 H   0  0  0  0  0  0  0  0  0  0  0  0
   -2.5728   -2.8074    1.8200 H   0  0  0  0  0  0  0  0  0  0  0  0
    2.0689    0.8910   -0.9009 H   0  0  0  0  0  0  0  0  0  0  0  0
    1.1599    2.4115   -0.8255 H   0  0  0  0  0  0  0  0  0  0  0  0
    2.6072   -0.2768    1.4881 H   0  0  0  0  0  0  0  0  0  0  0  0
    1.9599    0.5656    2.9040 H   0  0  0  0  0  0  0  0  0  0  0  0
    0.5891   -2.2853   -4.3879 H   0  0  0  0  0  0  0  0  0  0  0  0
   -3.5831   -2.3901   -3.8015 H   0  0  0  0  0  0  0  0  0  0  0  0
    1.3316   -5.5582    0.9562 H   0  0  0  0  0  0  0  0  0  0  0  0
   -2.2444   -4.8460    3.0489 H   0  0  0  0  0  0  0  0  0  0  0  0
   -0.2850   -6.2229    2.6418 H   0  0  0  0  0  0  0  0  0  0  0  0
    3.3168    2.5314    2.2540 H   0  0  0  0  0  0  0  0  0  0  0  0
    3.8835    1.7879    0.7733 H   0  0  0  0  0  0  0  0  0  0  0  0
    2.1876    4.7790    2.1680 H   0  0  0  0  0  0  0  0  0  0  0  0
    3.9470    3.1079   -1.2723 H   0  0  0  0  0  0  0  0  0  0  0  0
    2.0469    6.8796    1.0833 H   0  0  0  0  0  0  0  0  0  0  0  0
    3.7703    5.1916   -2.3874 H   0  0  0  0  0  0  0  0  0  0  0  0
    2.0769    9.6914   -1.3248 H   0  0  0  0  0  0  0  0  0  0  0  0
    1.1467    8.5607   -0.3484 H   0  0  0  0  0  0  0  0  0  0  0  0
    2.8073    8.9896    0.1202 H   0  0  0  0  0  0  0  0  0  0  0  0
    1.5525    8.2685   -3.3297 H   0  0  0  0  0  0  0  0  0  0  0  0
    0.7188    7.0413   -2.3648 H   0  0  0  0  0  0  0  0  0  0  0  0
    2.0433    6.5813   -3.4414 H   0  0  0  0  0  0  0  0  0  0  0  0
    3.9859    9.0226   -2.6565 H   0  0  0  0  0  0  0  0  0  0  0  0
    4.4579    7.3519   -2.9154 H   0  0  0  0  0  0  0  0  0  0  0  0
    4.8251    8.1372   -1.3715 H   0  0  0  0  0  0  0  0  0  0  0  0
  1  2  1  0  0  0  0 
  1  3  1  0  0  0  0 
  1  4  1  0  0  0  0 
  2  5  1  0  0  0  0 
  2  6  1  0  0  0  0 
  3  7  2  0  0  0  0 
  3  8  1  0  0  0  0 
  4  9  2  0  0  0  0 
  4 10  1  0  0  0  0 
  5 11  1  0  0  0  0 
  6 12  1  0  0  0  0 
  7 13  1  0  0  0  0 
  8 14  2  0  0  0  0 
  9 15  1  0  0  0  0 
 10 16  2  0  0  0  0 
 11 17  1  0  0  0  0 
 12 17  1  0  0  0  0 
 13 18  2  0  0  0  0 
 14 18  1  0  0  0  0 
 15 19  2  0  0  0  0 
 16 19  1  0  0  0  0 
 17 20  1  0  0  0  0 
 18 21  1  0  0  0  0 
 20 22  1  0  0  0  0 
 22 23  2  0  0  0  0 
 22 24  1  0  0  0  0 
 23 25  1  0  0  0  0 
 24 26  2  0  0  0  0 
 25 27  2  0  0  0  0 
 26 27  1  0  0  0  0 
 27 28  1  0  0  0  0 
 28 29  1  0  0  0  0 
 28 30  1  0  0  0  0 
 28 31  1  0  0  0  0 
  1 32  1  0  0  0  0 
  5 33  1  0  0  0  0 
  5 34  1  0  0  0  0 
  6 35  1  0  0  0  0 
  6 36  1  0  0  0  0 
  7 37  1  0  0  0  0 
  8 38  1  0  0  0  0 
  9 39  1  0  0  0  0 
 10 40  1  0  0  0  0 
 11 41  1  0  0  0  0 
 11 42  1  0  0  0  0 
 12 43  1  0  0  0  0 
 12 44  1  0  0  0  0 
 13 45  1  0  0  0  0 
 14 46  1  0  0  0  0 
 15 47  1  0  0  0  0 
 16 48  1  0  0  0  0 
 19 49  1  0  0  0  0 
 20 50  1  0  0  0  0 
 20 51  1  0  0  0  0 
 23 52  1  0  0  0  0 
 24 53  1  0  0  0  0 
 25 54  1  0  0  0  0 
 26 55  1  0  0  0  0 
 29 56  1  0  0  0  0 
 29 57  1  0  0  0  0 
 29 58  1  0  0  0  0 
 30 59  1  0  0  0  0 
 30 60  1  0  0  0  0 
 30 61  1  0  0  0  0 
 31 62  1  0  0  0  0 
 31 63  1  0  0  0  0 
 31 64  1  0  0  0  0 
M  END
> <cdk:Title>
buclizine

> <Conformer>
1

> <SuperDrugID>
SD000358

$$$$
