etifelmine
  CDK     0628171801

 37 38  0  0  0  0  0  0  0  0999 V2000
    3.4745   -7.1492   -0.7104 C   0  0  0  0  0  0  0  0  0  0  0  0
    3.0072   -6.1975   -1.5699 C   0  0  0  0  0  0  0  0  0  0  0  0
    2.8717   -8.3986   -0.5534 C   0  0  0  0  0  0  0  0  0  0  0  0
    4.6055   -6.9622    0.0903 C   0  0  0  0  0  0  0  0  0  0  0  0
    1.9066   -6.4513   -2.5249 C   0  0  2  0  0  0  0  0  0  0  0  0
    3.5945   -4.8475   -1.6318 C   0  0  1  0  0  0  0  0  0  0  0  0
    1.6777   -8.5281    0.1962 C   0  0  0  0  0  0  0  0  0  0  0  0
    3.4472   -9.5573   -1.1269 C   0  0  0  0  0  0  0  0  0  0  0  0
    5.8993   -6.9694   -0.4857 C   0  0  0  0  0  0  0  0  0  0  0  0
    4.4838   -6.7499    1.4841 C   0  0  0  0  0  0  0  0  0  0  0  0
    0.5356   -5.8898   -2.0760 C   0  0  0  0  0  0  0  0  0  0  0  0
    4.5841   -4.7769   -2.7106 N   0  0  2  0  0  0  0  0  0  0  0  0
    1.0610   -9.7831    0.3490 C   0  0  0  0  0  0  0  0  0  0  0  0
    2.8353  -10.8141   -0.9637 C   0  0  0  0  0  0  0  0  0  0  0  0
    7.0391   -6.7383    0.3075 C   0  0  0  0  0  0  0  0  0  0  0  0
    5.6236   -6.5134    2.2755 C   0  0  0  0  0  0  0  0  0  0  0  0
    1.6431  -10.9267   -0.2260 C   0  0  0  0  0  0  0  0  0  0  0  0
    6.9002   -6.5071    1.6873 C   0  0  0  0  0  0  0  0  0  0  0  0
    1.7860   -7.5163   -2.7319 H   0  0  0  0  0  0  0  0  0  0  0  0
    2.1517   -6.0049   -3.4910 H   0  0  0  0  0  0  0  0  0  0  0  0
    2.8319   -4.0921   -1.8256 H   0  0  0  0  0  0  0  0  0  0  0  0
    4.0771   -4.5481   -0.6995 H   0  0  0  0  0  0  0  0  0  0  0  0
    1.2499   -7.7106    0.6412 H   0  0  0  0  0  0  0  0  0  0  0  0
    4.3122   -9.4957   -1.6697 H   0  0  0  0  0  0  0  0  0  0  0  0
    6.0237   -7.1401   -1.4874 H   0  0  0  0  0  0  0  0  0  0  0  0
    3.5650   -6.7517    1.9320 H   0  0  0  0  0  0  0  0  0  0  0  0
   -0.2237   -6.1596   -2.8130 H   0  0  0  0  0  0  0  0  0  0  0  0
    0.2418   -6.3063   -1.1134 H   0  0  0  0  0  0  0  0  0  0  0  0
    0.5593   -4.8012   -1.9961 H   0  0  0  0  0  0  0  0  0  0  0  0
    4.8979   -3.8050   -2.7620 H   0  0  0  0  0  0  0  0  0  0  0  0
    4.0895   -4.9746   -3.5838 H   0  0  0  0  0  0  0  0  0  0  0  0
    0.1891   -9.8616    0.8789 H   0  0  0  0  0  0  0  0  0  0  0  0
    3.2535  -11.6466   -1.3848 H   0  0  0  0  0  0  0  0  0  0  0  0
    7.9686   -6.7369   -0.1206 H   0  0  0  0  0  0  0  0  0  0  0  0
    5.5223   -6.3392    3.2775 H   0  0  0  0  0  0  0  0  0  0  0  0
    1.1973  -11.8393   -0.1079 H   0  0  0  0  0  0  0  0  0  0  0  0
    7.7280   -6.3367    2.2626 H   0  0  0  0  0  0  0  0  0  0  0  0
  1  2  2  0  0  0  0 
  1  3  1  0  0  0  0 
  1  4  1  0  0  0  0 
  2  5  1  0  0  0  0 
  2  6  1  0  0  0  0 
  3  7  2  0  0  0  0 
  3  8  1  0  0  0  0 
  4  9  2  0  0  0  0 
  4 10  1  0  0  0  0 
  5 11  1  0  0  0  0 
  6 12  1  0  0  0  0 
  7 13  1  0  0  0  0 
  8 14  2  0  0  0  0 
  9 15  1  0  0  0  0 
 10 16  2  0  0  0  0 
 13 17  2  0  0  0  0 
 14 17  1  0  0  0  0 
 15 18  2  0  0  0  0 
 16 18  1  0  0  0  0 
  5 19  1  0  0  0  0 
  5 20  1  0  0  0  0 
  6 21  1  0  0  0  0 
  6 22  1  0  0  0  0 
  7 23  1  0  0  0  0 
  8 24  1  0  0  0  0 
  9 25  1  0  0  0  0 
 10 26  1  0  0  0  0 
 11 27  1  0  0  0  0 
 11 28  1  0  0  0  0 
 11 29  1  0  0  0  0 
 12 30  1  0  0  0  0 
 12 31  1  0  0  0  0 
 13 32  1  0  0  0  0 
 14 33  1  0  0  0  0 
 15 34  1  0  0  0  0 
 16 35  1  0  0  0  0 
 17 36  1  0  0  0  0 
 18 37  1  0  0  0  0 
M  END
> <cdk:Title>
etifelmine

> <Conformer>
1

> <SuperDrugID>
SD003197

$$$$
