phendimetrazine
  CDK     0628171801

 31 32  0  0  0  0  0  0  0  0999 V2000
    0.9562    0.3822    1.0638 C   0  0  0  0  0  0  0  0  0  0  0  0
    1.8122    1.4927    0.9216 C   0  0  0  0  0  0  0  0  0  0  0  0
    1.8818    2.1735   -0.3065 C   0  0  0  0  0  0  0  0  0  0  0  0
    1.0952    1.7451   -1.3896 C   0  0  0  0  0  0  0  0  0  0  0  0
    0.2394    0.6365   -1.2454 C   0  0  0  0  0  0  0  0  0  0  0  0
    0.1604   -0.0686   -0.0190 C   0  0  0  0  0  0  0  0  0  0  0  0
   -0.7462   -1.2523    0.1189 C   0  0  1  0  0  0  0  0  0  0  0  0
   -0.0058   -2.6346    0.2332 C   0  0  1  0  0  0  0  0  0  0  0  0
   -1.0276   -3.7127    0.5228 N   0  0  2  0  0  0  0  0  0  0  0  0
   -1.8857   -3.3933    1.7087 C   0  0  1  0  0  0  0  0  0  0  0  0
   -2.5607   -2.0185    1.5277 C   0  0  2  0  0  0  0  0  0  0  0  0
   -1.5763   -1.0049    1.2744 O   0  0  0  0  0  0  0  0  0  0  0  0
   -0.5100   -5.1121    0.6214 C   0  0  0  0  0  0  0  0  0  0  0  0
    0.8283   -2.9109   -1.0548 C   0  0  0  0  0  0  0  0  0  0  0  0
    0.6960   -2.5876    1.0727 H   0  0  0  0  0  0  0  0  0  0  0  0
   -1.4048   -1.3042   -0.7562 H   0  0  0  0  0  0  0  0  0  0  0  0
    0.9103   -0.0925    1.9685 H   0  0  0  0  0  0  0  0  0  0  0  0
    2.3842    1.8090    1.7086 H   0  0  0  0  0  0  0  0  0  0  0  0
    2.5062    2.9778   -0.4096 H   0  0  0  0  0  0  0  0  0  0  0  0
    1.1455    2.2368   -2.2854 H   0  0  0  0  0  0  0  0  0  0  0  0
   -0.3229    0.3419   -2.0485 H   0  0  0  0  0  0  0  0  0  0  0  0
   -2.6788   -4.1387    1.8295 H   0  0  0  0  0  0  0  0  0  0  0  0
   -1.2823   -3.3811    2.6235 H   0  0  0  0  0  0  0  0  0  0  0  0
   -3.0957   -1.7522    2.4405 H   0  0  0  0  0  0  0  0  0  0  0  0
   -3.2840   -2.0549    0.7090 H   0  0  0  0  0  0  0  0  0  0  0  0
   -0.0147   -5.4231   -0.2966 H   0  0  0  0  0  0  0  0  0  0  0  0
   -1.3331   -5.8138    0.7719 H   0  0  0  0  0  0  0  0  0  0  0  0
    0.1899   -5.2102    1.4536 H   0  0  0  0  0  0  0  0  0  0  0  0
    0.1721   -3.0592   -1.9151 H   0  0  0  0  0  0  0  0  0  0  0  0
    1.4505   -3.7964   -0.9284 H   0  0  0  0  0  0  0  0  0  0  0  0
    1.5037   -2.0818   -1.2703 H   0  0  0  0  0  0  0  0  0  0  0  0
  1  2  2  0  0  0  0 
  2  3  1  0  0  0  0 
  3  4  2  0  0  0  0 
  4  5  1  0  0  0  0 
  5  6  2  0  0  0  0 
  1  6  1  0  0  0  0 
  7  6  1  0  0  0  0 
  8  9  1  0  0  0  0 
  9 10  1  0  0  0  0 
 10 11  1  0  0  0  0 
 11 12  1  0  0  0  0 
  7  8  1  0  0  0  0 
  7 12  1  0  0  0  0 
  9 13  1  0  0  0  0 
  8 14  1  0  0  0  0 
  8 15  1  0  0  0  0 
  7 16  1  0  0  0  0 
  1 17  1  0  0  0  0 
  2 18  1  0  0  0  0 
  3 19  1  0  0  0  0 
  4 20  1  0  0  0  0 
  5 21  1  0  0  0  0 
 10 22  1  0  0  0  0 
 10 23  1  0  0  0  0 
 11 24  1  0  0  0  0 
 11 25  1  0  0  0  0 
 13 26  1  0  0  0  0 
 13 27  1  0  0  0  0 
 13 28  1  0  0  0  0 
 14 29  1  0  0  0  0 
 14 30  1  0  0  0  0 
 14 31  1  0  0  0  0 
M  END
> <cdk:Title>
phendimetrazine

> <Conformer>
1

> <SuperDrugID>
SD001902

$$$$
