lapatinib
  CDK     0628171801

 66 70  0  0  0  0  0  0  0  0999 V2000
    5.2275    4.4354    4.1470 N   0  0  0  0  0  0  0  0  0  0  0  0
    4.6866    3.6850    5.1522 C   0  0  0  0  0  0  0  0  0  0  0  0
    6.3397    5.2197    4.1747 C   0  0  0  0  0  0  0  0  0  0  0  0
    3.3359    3.2509    5.0764 C   0  0  0  0  0  0  0  0  0  0  0  0
    5.4096    3.3579    6.2570 N   0  0  0  0  0  0  0  0  0  0  0  0
    7.5456    4.9131    4.8479 C   0  0  0  0  0  0  0  0  0  0  0  0
    6.2409    6.4383    3.4728 C   0  0  0  0  0  0  0  0  0  0  0  0
    2.8405    2.4662    6.1545 C   0  0  0  0  0  0  0  0  0  0  0  0
    2.4625    3.5629    4.0074 C   0  0  0  0  0  0  0  0  0  0  0  0
    4.9146    2.6162    7.2745 C   0  0  0  0  0  0  0  0  0  0  0  0
    8.5834    5.8629    4.9226 C   0  0  0  0  0  0  0  0  0  0  0  0
    7.2732    7.3869    3.5391 C   0  0  0  0  0  0  0  0  0  0  0  0
    1.5184    1.9872    6.1388 C   0  0  0  0  0  0  0  0  0  0  0  0
    3.6386    2.1741    7.2118 N   0  0  0  0  0  0  0  0  0  0  0  0
    1.1370    3.0711    3.9766 C   0  0  0  0  0  0  0  0  0  0  0  0
    9.9937    5.4857    5.7846 Cl  0  0  0  0  0  0  0  0  0  0  0  0
    8.4258    7.1261    4.3088 C   0  0  0  0  0  0  0  0  0  0  0  0
    0.6792    2.2746    5.0502 C   0  0  0  0  0  0  0  0  0  0  0  0
    0.2833    3.3296    2.8793 C   0  0  0  0  0  0  0  0  0  0  0  0
    9.3588    8.1137    4.4968 O   0  0  0  0  0  0  0  0  0  0  0  0
   -0.6859    2.4738    2.4728 O   0  0  0  0  0  0  0  0  0  0  0  0
    0.2807    4.4338    2.0232 C   0  0  0  0  0  0  0  0  0  0  0  0
    8.9614    9.0020    5.5656 C   0  0  1  0  0  0  0  0  0  0  0  0
   -1.2855    2.9859    1.3743 C   0  0  0  0  0  0  0  0  0  0  0  0
   -0.7177    4.2219    1.0853 C   0  0  0  0  0  0  0  0  0  0  0  0
   10.0831    9.8948    5.9384 C   0  0  0  0  0  0  0  0  0  0  0  0
   -2.3729    2.2880    0.5936 C   0  0  1  0  0  0  0  0  0  0  0  0
   10.9332    9.5672    7.0213 C   0  0  0  0  0  0  0  0  0  0  0  0
   10.3039   11.1054    5.2416 C   0  0  0  0  0  0  0  0  0  0  0  0
   -1.7279    1.8693   -0.6676 N   0  0  2  0  0  0  0  0  0  0  0  0
   11.9482   10.4526    7.4321 C   0  0  0  0  0  0  0  0  0  0  0  0
   11.3162   11.9931    5.6531 C   0  0  0  0  0  0  0  0  0  0  0  0
   -2.5696    1.0387   -1.5543 C   0  0  2  0  0  0  0  0  0  0  0  0
   12.7133   10.1426    8.4436 F   0  0  0  0  0  0  0  0  0  0  0  0
   12.1310   11.6725    6.7544 C   0  0  0  0  0  0  0  0  0  0  0  0
   -1.7687    0.7310   -2.8343 C   0  0  1  0  0  0  0  0  0  0  0  0
   -2.6636   -0.3753   -3.9833 S   0  0  1  0  0  0  0  0  0  0  0  0
   -1.6101   -0.7369   -5.4330 C   0  0  0  0  0  0  0  0  0  0  0  0
   -3.0250   -1.7519   -3.2457 O   0  0  0  0  0  0  0  0  0  0  0  0
   -4.0140    0.3445   -4.4611 O   0  0  0  0  0  0  0  0  0  0  0  0
    4.7000    4.5044    3.3390 H   0  0  0  0  0  0  0  0  0  0  0  0
    7.6747    4.0007    5.2889 H   0  0  0  0  0  0  0  0  0  0  0  0
    5.3997    6.6588    2.9314 H   0  0  0  0  0  0  0  0  0  0  0  0
    2.7958    4.1386    3.2306 H   0  0  0  0  0  0  0  0  0  0  0  0
    5.5012    2.3934    8.0785 H   0  0  0  0  0  0  0  0  0  0  0  0
    7.1645    8.2806    3.0541 H   0  0  0  0  0  0  0  0  0  0  0  0
    1.1592    1.4264    6.9155 H   0  0  0  0  0  0  0  0  0  0  0  0
   -0.2754    1.9034    5.0537 H   0  0  0  0  0  0  0  0  0  0  0  0
    0.8910    5.2538    2.0726 H   0  0  0  0  0  0  0  0  0  0  0  0
    8.1067    9.6089    5.2482 H   0  0  0  0  0  0  0  0  0  0  0  0
    8.6443    8.4445    6.4563 H   0  0  0  0  0  0  0  0  0  0  0  0
   -0.9774    4.8486    0.3216 H   0  0  0  0  0  0  0  0  0  0  0  0
   -2.5799    1.3366    1.1730 H   0  0  0  0  0  0  0  0  0  0  0  0
   -3.3104    2.9229    0.2965 H   0  0  0  0  0  0  0  0  0  0  0  0
   10.8104    8.6825    7.5218 H   0  0  0  0  0  0  0  0  0  0  0  0
    9.7205   11.3521    4.4376 H   0  0  0  0  0  0  0  0  0  0  0  0
   -0.9159    1.2987   -0.4139 H   0  0  0  0  0  0  0  0  0  0  0  0
   11.4568   12.8745    5.1535 H   0  0  0  0  0  0  0  0  0  0  0  0
   -3.4902    1.5686   -1.8137 H   0  0  0  0  0  0  0  0  0  0  0  0
   -2.8240    0.1050   -1.0474 H   0  0  0  0  0  0  0  0  0  0  0  0
   12.8569   12.3263    7.0581 H   0  0  0  0  0  0  0  0  0  0  0  0
   -1.5488    1.6621   -3.3599 H   0  0  0  0  0  0  0  0  0  0  0  0
   -0.8249    0.2521   -2.5701 H   0  0  0  0  0  0  0  0  0  0  0  0
   -1.3458    0.1947   -5.9324 H   0  0  0  0  0  0  0  0  0  0  0  0
   -0.7007   -1.2448   -5.1103 H   0  0  0  0  0  0  0  0  0  0  0  0
   -2.1570   -1.3794   -6.1220 H   0  0  0  0  0  0  0  0  0  0  0  0
  1  2  1  0  0  0  0 
  1  3  1  0  0  0  0 
  2  4  2  0  0  0  0 
  2  5  1  0  0  0  0 
  3  6  2  0  0  0  0 
  3  7  1  0  0  0  0 
  4  8  1  0  0  0  0 
  4  9  1  0  0  0  0 
  5 10  2  0  0  0  0 
  6 11  1  0  0  0  0 
  7 12  2  0  0  0  0 
  8 13  1  0  0  0  0 
  8 14  2  0  0  0  0 
  9 15  2  0  0  0  0 
 10 14  1  0  0  0  0 
 11 16  1  0  0  0  0 
 11 17  2  0  0  0  0 
 12 17  1  0  0  0  0 
 13 18  2  0  0  0  0 
 15 18  1  0  0  0  0 
 15 19  1  0  0  0  0 
 17 20  1  0  0  0  0 
 19 21  1  0  0  0  0 
 19 22  2  0  0  0  0 
 20 23  1  0  0  0  0 
 21 24  1  0  0  0  0 
 22 25  1  0  0  0  0 
 23 26  1  0  0  0  0 
 24 25  2  0  0  0  0 
 24 27  1  0  0  0  0 
 26 28  2  0  0  0  0 
 26 29  1  0  0  0  0 
 27 30  1  0  0  0  0 
 28 31  1  0  0  0  0 
 29 32  2  0  0  0  0 
 30 33  1  0  0  0  0 
 31 34  1  0  0  0  0 
 31 35  2  0  0  0  0 
 32 35  1  0  0  0  0 
 33 36  1  0  0  0  0 
 36 37  1  0  0  0  0 
 37 38  1  0  0  0  0 
 37 39  2  0  0  0  0 
 37 40  2  0  0  0  0 
  1 41  1  0  0  0  0 
  6 42  1  0  0  0  0 
  7 43  1  0  0  0  0 
  9 44  1  0  0  0  0 
 10 45  1  0  0  0  0 
 12 46  1  0  0  0  0 
 13 47  1  0  0  0  0 
 18 48  1  0  0  0  0 
 22 49  1  0  0  0  0 
 23 50  1  0  0  0  0 
 23 51  1  0  0  0  0 
 25 52  1  0  0  0  0 
 27 53  1  0  0  0  0 
 27 54  1  0  0  0  0 
 28 55  1  0  0  0  0 
 29 56  1  0  0  0  0 
 30 57  1  0  0  0  0 
 32 58  1  0  0  0  0 
 33 59  1  0  0  0  0 
 33 60  1  0  0  0  0 
 35 61  1  0  0  0  0 
 36 62  1  0  0  0  0 
 36 63  1  0  0  0  0 
 38 64  1  0  0  0  0 
 38 65  1  0  0  0  0 
 38 66  1  0  0  0  0 
M  END
> <cdk:Title>
lapatinib

> <Conformer>
1

> <SuperDrugID>
SD001367

$$$$
