docusate sodium
  CDK     0628171802

 66 65  0  0  0  0  0  0  0  0999 V2000
   -2.8046    3.0198   -7.1859 C   0  0  2  0  0  0  0  0  0  0  0  0
   -1.5280    3.7149   -7.4708 C   0  0  0  0  0  0  0  0  0  0  0  0
   -3.9443    3.7877   -7.9229 C   0  0  2  0  0  0  0  0  0  0  0  0
   -3.0520    2.8948   -5.3729 S   0  0  1  0  0  0  0  0  0  0  0  0
   -1.3326    4.9881   -7.0000 O   0  0  0  0  0  0  0  0  0  0  0  0
   -0.6578    3.1473   -8.1726 O   0  0  0  0  0  0  0  0  0  0  0  0
   -5.2881    3.1861   -7.8099 C   0  0  0  0  0  0  0  0  0  0  0  0
   -3.1429    4.3425   -4.6963 O   0  0  0  0  0  0  0  0  0  0  0  0
   -4.3772    2.0620   -5.0366 O   0  0  0  0  0  0  0  0  0  0  0  0
   -1.7271    2.0660   -4.6803 O   0  0  0  0  0  0  0  0  0  0  0  0
   -0.4974    5.9904   -7.6007 C   0  0  1  0  0  0  0  0  0  0  0  0
   -6.2573    3.9024   -7.1726 O   0  0  0  0  0  0  0  0  0  0  0  0
   -5.5343    2.0701   -8.3227 O   0  0  0  0  0  0  0  0  0  0  0  0
   -0.2401    7.2706   -6.7311 C   0  0  2  0  0  0  0  0  0  0  0  0
   -7.6434    3.5841   -6.9891 C   0  0  2  0  0  0  0  0  0  0  0  0
   -1.2427    7.4830   -5.5450 C   0  0  1  0  0  0  0  0  0  0  0  0
   -0.0890    8.5629   -7.6043 C   0  0  2  0  0  0  0  0  0  0  0  0
   -8.3144    4.6578   -6.0749 C   0  0  1  0  0  0  0  0  0  0  0  0
   -2.7211    7.8008   -5.9186 C   0  0  1  0  0  0  0  0  0  0  0  0
    1.0909    8.5442   -8.6067 C   0  0  0  0  0  0  0  0  0  0  0  0
   -9.8532    4.3968   -5.9355 C   0  0  1  0  0  0  0  0  0  0  0  0
   -7.5512    4.8337   -4.7163 C   0  0  2  0  0  0  0  0  0  0  0  0
   -3.6464    7.9088   -4.6727 C   0  0  1  0  0  0  0  0  0  0  0  0
  -10.6298    5.4868   -5.1411 C   0  0  1  0  0  0  0  0  0  0  0  0
   -7.6174    3.6280   -3.7487 C   0  0  0  0  0  0  0  0  0  0  0  0
   -5.1112    8.2496   -5.0354 C   0  0  0  0  0  0  0  0  0  0  0  0
  -12.1701    5.3100   -5.2136 C   0  0  1  0  0  0  0  0  0  0  0  0
  -12.9381    6.3382   -4.3531 C   0  0  0  0  0  0  0  0  0  0  0  0
   -2.7577    1.9959   -7.5703 H   0  0  0  0  0  0  0  0  0  0  0  0
   -3.7086    3.7559   -9.0359 H   0  0  0  0  0  0  0  0  0  0  0  0
   -4.0103    4.8154   -7.4411 H   0  0  0  0  0  0  0  0  0  0  0  0
   -1.1657    2.7694   -4.2953 H   0  0  0  0  0  0  0  0  0  0  0  0
    0.4643    5.5454   -7.8733 H   0  0  0  0  0  0  0  0  0  0  0  0
   -0.9988    6.2728   -8.5289 H   0  0  0  0  0  0  0  0  0  0  0  0
    0.7309    7.1154   -6.2459 H   0  0  0  0  0  0  0  0  0  0  0  0
   -7.7435    2.5909   -6.5436 H   0  0  0  0  0  0  0  0  0  0  0  0
   -8.1284    3.5732   -7.9700 H   0  0  0  0  0  0  0  0  0  0  0  0
   -1.2218    6.5880   -4.9196 H   0  0  0  0  0  0  0  0  0  0  0  0
   -0.8657    8.2999   -4.9224 H   0  0  0  0  0  0  0  0  0  0  0  0
    0.0583    9.4239   -6.9465 H   0  0  0  0  0  0  0  0  0  0  0  0
   -1.0115    8.7334   -8.1657 H   0  0  0  0  0  0  0  0  0  0  0  0
   -8.2110    5.6117   -6.6037 H   0  0  0  0  0  0  0  0  0  0  0  0
   -2.7652    8.7518   -6.4586 H   0  0  0  0  0  0  0  0  0  0  0  0
   -3.0999    7.0166   -6.5777 H   0  0  0  0  0  0  0  0  0  0  0  0
    2.0334    8.3848   -8.0800 H   0  0  0  0  0  0  0  0  0  0  0  0
    0.9591    7.7556   -9.3496 H   0  0  0  0  0  0  0  0  0  0  0  0
    1.1416    9.5027   -9.1287 H   0  0  0  0  0  0  0  0  0  0  0  0
  -10.2817    4.3410   -6.9407 H   0  0  0  0  0  0  0  0  0  0  0  0
  -10.0203    3.4258   -5.4623 H   0  0  0  0  0  0  0  0  0  0  0  0
   -7.9400    5.7110   -4.1947 H   0  0  0  0  0  0  0  0  0  0  0  0
   -6.4966    5.0486   -4.9163 H   0  0  0  0  0  0  0  0  0  0  0  0
   -3.6316    6.9658   -4.1237 H   0  0  0  0  0  0  0  0  0  0  0  0
   -3.2665    8.6879   -4.0059 H   0  0  0  0  0  0  0  0  0  0  0  0
  -10.3264    5.4470   -4.0926 H   0  0  0  0  0  0  0  0  0  0  0  0
  -10.3666    6.4723   -5.5342 H   0  0  0  0  0  0  0  0  0  0  0  0
   -7.0751    3.8659   -2.8319 H   0  0  0  0  0  0  0  0  0  0  0  0
   -8.6495    3.3974   -3.4812 H   0  0  0  0  0  0  0  0  0  0  0  0
   -7.1613    2.7460   -4.1998 H   0  0  0  0  0  0  0  0  0  0  0  0
   -5.7406    8.2168   -4.1423 H   0  0  0  0  0  0  0  0  0  0  0  0
   -5.1636    9.2553   -5.4588 H   0  0  0  0  0  0  0  0  0  0  0  0
   -5.5064    7.5369   -5.7627 H   0  0  0  0  0  0  0  0  0  0  0  0
  -12.4972    5.4065   -6.2524 H   0  0  0  0  0  0  0  0  0  0  0  0
  -12.4349    4.3086   -4.8664 H   0  0  0  0  0  0  0  0  0  0  0  0
  -14.0123    6.1819   -4.4622 H   0  0  0  0  0  0  0  0  0  0  0  0
  -12.6772    6.2200   -3.3002 H   0  0  0  0  0  0  0  0  0  0  0  0
  -12.7013    7.3560   -4.6663 H   0  0  0  0  0  0  0  0  0  0  0  0
  1  2  1  0  0  0  0 
  1  3  1  0  0  0  0 
  1  4  1  0  0  0  0 
  2  5  1  0  0  0  0 
  2  6  2  0  0  0  0 
  3  7  1  0  0  0  0 
  4  8  2  0  0  0  0 
  4  9  2  0  0  0  0 
  4 10  1  0  0  0  0 
  5 11  1  0  0  0  0 
  7 12  1  0  0  0  0 
  7 13  2  0  0  0  0 
 11 14  1  0  0  0  0 
 12 15  1  0  0  0  0 
 14 16  1  0  0  0  0 
 14 17  1  0  0  0  0 
 15 18  1  0  0  0  0 
 16 19  1  0  0  0  0 
 17 20  1  0  0  0  0 
 18 21  1  0  0  0  0 
 18 22  1  0  0  0  0 
 19 23  1  0  0  0  0 
 21 24  1  0  0  0  0 
 22 25  1  0  0  0  0 
 23 26  1  0  0  0  0 
 24 27  1  0  0  0  0 
 27 28  1  0  0  0  0 
  1 29  1  0  0  0  0 
  3 30  1  0  0  0  0 
  3 31  1  0  0  0  0 
 10 32  1  0  0  0  0 
 11 33  1  0  0  0  0 
 11 34  1  0  0  0  0 
 14 35  1  0  0  0  0 
 15 36  1  0  0  0  0 
 15 37  1  0  0  0  0 
 16 38  1  0  0  0  0 
 16 39  1  0  0  0  0 
 17 40  1  0  0  0  0 
 17 41  1  0  0  0  0 
 18 42  1  0  0  0  0 
 19 43  1  0  0  0  0 
 19 44  1  0  0  0  0 
 20 45  1  0  0  0  0 
 20 46  1  0  0  0  0 
 20 47  1  0  0  0  0 
 21 48  1  0  0  0  0 
 21 49  1  0  0  0  0 
 22 50  1  0  0  0  0 
 22 51  1  0  0  0  0 
 23 52  1  0  0  0  0 
 23 53  1  0  0  0  0 
 24 54  1  0  0  0  0 
 24 55  1  0  0  0  0 
 25 56  1  0  0  0  0 
 25 57  1  0  0  0  0 
 25 58  1  0  0  0  0 
 26 59  1  0  0  0  0 
 26 60  1  0  0  0  0 
 26 61  1  0  0  0  0 
 27 62  1  0  0  0  0 
 27 63  1  0  0  0  0 
 28 64  1  0  0  0  0 
 28 65  1  0  0  0  0 
 28 66  1  0  0  0  0 
M  END
> <cdk:Title>
docusate sodium

> <Conformer>
1

> <SuperDrugID>
SD000836

$$$$
