etaqualone
  CDK     0628171801

 36 38  0  0  0  0  0  0  0  0999 V2000
   -1.2502   -1.3953   -2.3675 O   0  0  0  0  0  0  0  0  0  0  0  0
   -1.3668   -0.7062   -1.3223 C   0  0  0  0  0  0  0  0  0  0  0  0
   -0.4106   -0.7563   -0.3309 N   0  0  0  0  0  0  0  0  0  0  0  0
   -2.5137    0.1114   -1.1752 C   0  0  0  0  0  0  0  0  0  0  0  0
   -0.5279    0.0400    0.7880 C   0  0  0  0  0  0  0  0  0  0  0  0
    0.6471   -1.6303   -0.4489 C   0  0  0  0  0  0  0  0  0  0  0  0
   -2.6197    0.8729    0.0156 C   0  0  0  0  0  0  0  0  0  0  0  0
   -3.5480    0.2067   -2.1373 C   0  0  0  0  0  0  0  0  0  0  0  0
    0.4639    0.0957    1.8902 C   0  0  0  0  0  0  0  0  0  0  0  0
   -1.6272    0.8217    0.9316 N   0  0  0  0  0  0  0  0  0  0  0  0
    0.5298   -3.0096   -0.1015 C   0  0  0  0  0  0  0  0  0  0  0  0
    1.8766   -1.1321   -0.9384 C   0  0  0  0  0  0  0  0  0  0  0  0
   -3.7502    1.6774    0.2575 C   0  0  0  0  0  0  0  0  0  0  0  0
   -4.6804    1.0062   -1.8910 C   0  0  0  0  0  0  0  0  0  0  0  0
   -0.7427   -3.6175    0.3983 C   0  0  2  0  0  0  0  0  0  0  0  0
    1.6673   -3.8428   -0.2468 C   0  0  0  0  0  0  0  0  0  0  0  0
    2.9878   -1.9790   -1.0830 C   0  0  0  0  0  0  0  0  0  0  0  0
   -4.7854    1.7331   -0.6917 C   0  0  0  0  0  0  0  0  0  0  0  0
   -1.3960   -4.5660   -0.6341 C   0  0  0  0  0  0  0  0  0  0  0  0
    2.8834   -3.3344   -0.7371 C   0  0  0  0  0  0  0  0  0  0  0  0
   -3.4869   -0.3062   -3.0202 H   0  0  0  0  0  0  0  0  0  0  0  0
    0.1663    0.8078    2.6638 H   0  0  0  0  0  0  0  0  0  0  0  0
    0.5503   -0.8883    2.3507 H   0  0  0  0  0  0  0  0  0  0  0  0
    1.4392    0.4035    1.5072 H   0  0  0  0  0  0  0  0  0  0  0  0
    1.9665   -0.1450   -1.1942 H   0  0  0  0  0  0  0  0  0  0  0  0
   -3.8293    2.2138    1.1257 H   0  0  0  0  0  0  0  0  0  0  0  0
   -5.4259    1.0605   -2.5857 H   0  0  0  0  0  0  0  0  0  0  0  0
   -1.4795   -2.8555    0.6544 H   0  0  0  0  0  0  0  0  0  0  0  0
   -0.5457   -4.1720    1.3187 H   0  0  0  0  0  0  0  0  0  0  0  0
    1.6142   -4.8354    0.0010 H   0  0  0  0  0  0  0  0  0  0  0  0
    3.8718   -1.6089   -1.4407 H   0  0  0  0  0  0  0  0  0  0  0  0
   -5.6140    2.3044   -0.5119 H   0  0  0  0  0  0  0  0  0  0  0  0
   -2.3649   -4.9054   -0.2634 H   0  0  0  0  0  0  0  0  0  0  0  0
   -0.7694   -5.4436   -0.8015 H   0  0  0  0  0  0  0  0  0  0  0  0
   -1.5499   -4.0527   -1.5871 H   0  0  0  0  0  0  0  0  0  0  0  0
    3.6919   -3.9493   -0.8431 H   0  0  0  0  0  0  0  0  0  0  0  0
  1  2  2  0  0  0  0 
  2  3  1  0  0  0  0 
  2  4  1  0  0  0  0 
  3  5  1  0  0  0  0 
  3  6  1  0  0  0  0 
  4  7  1  0  0  0  0 
  4  8  2  0  0  0  0 
  5  9  1  0  0  0  0 
  5 10  2  0  0  0  0 
  6 11  2  0  0  0  0 
  6 12  1  0  0  0  0 
  7 10  1  0  0  0  0 
  7 13  2  0  0  0  0 
  8 14  1  0  0  0  0 
 11 15  1  0  0  0  0 
 11 16  1  0  0  0  0 
 12 17  2  0  0  0  0 
 13 18  1  0  0  0  0 
 14 18  2  0  0  0  0 
 15 19  1  0  0  0  0 
 16 20  2  0  0  0  0 
 17 20  1  0  0  0  0 
  8 21  1  0  0  0  0 
  9 22  1  0  0  0  0 
  9 23  1  0  0  0  0 
  9 24  1  0  0  0  0 
 12 25  1  0  0  0  0 
 13 26  1  0  0  0  0 
 14 27  1  0  0  0  0 
 15 28  1  0  0  0  0 
 15 29  1  0  0  0  0 
 16 30  1  0  0  0  0 
 17 31  1  0  0  0  0 
 18 32  1  0  0  0  0 
 19 33  1  0  0  0  0 
 19 34  1  0  0  0  0 
 19 35  1  0  0  0  0 
 20 36  1  0  0  0  0 
M  END
> <cdk:Title>
etaqualone

> <Conformer>
1

> <SuperDrugID>
SD002763

$$$$
