efloxate
  CDK     0628171802

 40 42  0  0  0  0  0  0  0  0999 V2000
   -5.4632    8.6919    2.3769 O   0  0  0  0  0  0  0  0  0  0  0  0
   -5.5849    7.5470    2.8707 C   0  0  0  0  0  0  0  0  0  0  0  0
   -5.1387    6.3938    2.1818 C   0  0  0  0  0  0  0  0  0  0  0  0
   -6.1777    7.4384    4.1420 C   0  0  0  0  0  0  0  0  0  0  0  0
   -5.3184    5.1322    2.8085 C   0  0  0  0  0  0  0  0  0  0  0  0
   -4.5235    6.4433    0.9106 C   0  0  0  0  0  0  0  0  0  0  0  0
   -6.3456    6.1653    4.7225 C   0  0  0  0  0  0  0  0  0  0  0  0
   -5.9218    5.0647    4.0318 O   0  0  0  0  0  0  0  0  0  0  0  0
   -4.8608    3.9558    2.1874 C   0  0  0  0  0  0  0  0  0  0  0  0
   -4.0660    5.2640    0.2939 C   0  0  0  0  0  0  0  0  0  0  0  0
   -6.9330    5.9947    5.9942 C   0  0  0  0  0  0  0  0  0  0  0  0
   -4.2048    4.0191    0.9422 C   0  0  0  0  0  0  0  0  0  0  0  0
   -6.3994    6.6511    7.1282 C   0  0  0  0  0  0  0  0  0  0  0  0
   -8.0677    5.1669    6.1528 C   0  0  0  0  0  0  0  0  0  0  0  0
   -3.7203    2.8775    0.3603 O   0  0  0  0  0  0  0  0  0  0  0  0
   -7.0057    6.5059    8.3889 C   0  0  0  0  0  0  0  0  0  0  0  0
   -8.6828    5.0345    7.4116 C   0  0  0  0  0  0  0  0  0  0  0  0
   -2.3495    2.5987    0.7190 C   0  0  1  0  0  0  0  0  0  0  0  0
   -8.1527    5.7048    8.5286 C   0  0  0  0  0  0  0  0  0  0  0  0
   -1.9473    1.3271    0.0967 C   0  0  0  0  0  0  0  0  0  0  0  0
   -0.8984    1.2912   -0.7797 O   0  0  0  0  0  0  0  0  0  0  0  0
   -2.5786    0.2843    0.3851 O   0  0  0  0  0  0  0  0  0  0  0  0
   -0.4149    0.1225   -1.4570 C   0  0  1  0  0  0  0  0  0  0  0  0
    0.7894    0.4808   -2.3450 C   0  0  0  0  0  0  0  0  0  0  0  0
   -6.4943    8.2804    4.6346 H   0  0  0  0  0  0  0  0  0  0  0  0
   -4.3952    7.3348    0.4248 H   0  0  0  0  0  0  0  0  0  0  0  0
   -4.9936    3.0530    2.6474 H   0  0  0  0  0  0  0  0  0  0  0  0
   -3.6241    5.3144   -0.6260 H   0  0  0  0  0  0  0  0  0  0  0  0
   -5.5628    7.2336    7.0463 H   0  0  0  0  0  0  0  0  0  0  0  0
   -8.4648    4.6681    5.3526 H   0  0  0  0  0  0  0  0  0  0  0  0
   -6.6129    6.9839    9.2029 H   0  0  0  0  0  0  0  0  0  0  0  0
   -9.5170    4.4528    7.5148 H   0  0  0  0  0  0  0  0  0  0  0  0
   -1.6892    3.3990    0.3699 H   0  0  0  0  0  0  0  0  0  0  0  0
   -2.2348    2.4997    1.8038 H   0  0  0  0  0  0  0  0  0  0  0  0
   -8.6010    5.6109    9.4420 H   0  0  0  0  0  0  0  0  0  0  0  0
   -0.1083   -0.6270   -0.7228 H   0  0  0  0  0  0  0  0  0  0  0  0
   -1.2099   -0.2966   -2.0790 H   0  0  0  0  0  0  0  0  0  0  0  0
    1.1613   -0.4143   -2.8486 H   0  0  0  0  0  0  0  0  0  0  0  0
    0.4941    1.2134   -3.0985 H   0  0  0  0  0  0  0  0  0  0  0  0
    1.5897    0.8997   -1.7323 H   0  0  0  0  0  0  0  0  0  0  0  0
  1  2  2  0  0  0  0 
  2  3  1  0  0  0  0 
  2  4  1  0  0  0  0 
  3  5  1  0  0  0  0 
  3  6  2  0  0  0  0 
  4  7  2  0  0  0  0 
  5  8  1  0  0  0  0 
  5  9  2  0  0  0  0 
  6 10  1  0  0  0  0 
  7  8  1  0  0  0  0 
  7 11  1  0  0  0  0 
  9 12  1  0  0  0  0 
 10 12  2  0  0  0  0 
 11 13  2  0  0  0  0 
 11 14  1  0  0  0  0 
 12 15  1  0  0  0  0 
 13 16  1  0  0  0  0 
 14 17  2  0  0  0  0 
 15 18  1  0  0  0  0 
 16 19  2  0  0  0  0 
 17 19  1  0  0  0  0 
 18 20  1  0  0  0  0 
 20 21  1  0  0  0  0 
 20 22  2  0  0  0  0 
 21 23  1  0  0  0  0 
 23 24  1  0  0  0  0 
  4 25  1  0  0  0  0 
  6 26  1  0  0  0  0 
  9 27  1  0  0  0  0 
 10 28  1  0  0  0  0 
 13 29  1  0  0  0  0 
 14 30  1  0  0  0  0 
 16 31  1  0  0  0  0 
 17 32  1  0  0  0  0 
 18 33  1  0  0  0  0 
 18 34  1  0  0  0  0 
 19 35  1  0  0  0  0 
 23 36  1  0  0  0  0 
 23 37  1  0  0  0  0 
 24 38  1  0  0  0  0 
 24 39  1  0  0  0  0 
 24 40  1  0  0  0  0 
M  END
> <cdk:Title>
efloxate

> <Conformer>
1

> <SuperDrugID>
SD000879

$$$$
