betrixaban
  Mrv0541 09131710093D             102.48857

 54 56  0  0  0  0            999 V2000
    1.4938   -0.3522   -0.1289 C   0  0  0  0  0  0  0  0  0  0  0  0
    0.0717   -0.1624   -0.0210 O   0  0  0  0  0  0  0  0  0  0  0  0
   -0.2786    0.5930    1.0645 C   0  0  0  0  0  0  0  0  0  0  0  0
   -0.3100    1.9953    0.9775 C   0  0  0  0  0  0  0  0  0  0  0  0
   -0.6844    2.7599    2.0912 C   0  0  0  0  0  0  0  0  0  0  0  0
   -1.0699    2.1346    3.3011 C   0  0  0  0  0  0  0  0  0  0  0  0
   -1.4459    2.9116    4.3623 N   0  0  0  0  0  0  0  0  0  0  0  0
   -2.3276    3.9591    4.4096 C   0  0  0  0  0  0  0  0  0  0  0  0
   -2.3442    4.5419    5.5185 O   0  0  0  0  0  0  0  0  0  0  0  0
   -3.2074    4.4258    3.3843 C   0  0  0  0  0  0  0  0  0  0  0  0
   -3.7303    3.5624    2.3935 C   0  0  0  0  0  0  0  0  0  0  0  0
   -4.5446    4.0480    1.3559 C   0  0  0  0  0  0  0  0  0  0  0  0
   -4.9151    5.4137    1.2923 C   0  0  0  0  0  0  0  0  0  0  0  0
   -4.4682    6.2626    2.3330 C   0  0  0  0  0  0  0  0  0  0  0  0
   -3.6204    5.7814    3.3495 C   0  0  0  0  0  0  0  0  0  0  0  0
   -5.7011    5.8955    0.2377 C   0  0  0  0  0  0  0  0  0  0  0  0
   -6.7209    5.1722   -0.0538 N   0  0  0  0  0  0  0  0  0  0  0  0
   -5.4567    7.0481   -0.4612 N   0  0  0  0  0  0  0  0  0  0  0  0
   -4.1557    7.6838   -0.4967 C   0  0  0  0  0  0  0  0  0  0  0  0
   -6.4893    7.6520   -1.2829 C   0  0  0  0  0  0  0  0  0  0  0  0
   -1.0151    0.7106    3.4151 C   0  0  0  0  0  0  0  0  0  0  0  0
   -0.6340   -0.0365    2.2714 C   0  0  0  0  0  0  0  0  0  0  0  0
   -1.3413    0.0170    4.6224 C   0  0  0  0  0  0  0  0  0  0  0  0
   -2.1742    0.5264    5.4098 O   0  0  0  0  0  0  0  0  0  0  0  0
   -0.7710   -1.1964    4.9232 N   0  0  0  0  0  0  0  0  0  0  0  0
   -0.9587   -1.9475    6.0509 C   0  0  0  0  0  0  0  0  0  0  0  0
   -0.4124   -3.2468    6.1165 C   0  0  0  0  0  0  0  0  0  0  0  0
   -0.6057   -4.0257    7.2736 C   0  0  0  0  0  0  0  0  0  0  0  0
   -1.3356   -3.5092    8.3608 C   0  0  0  0  0  0  0  0  0  0  0  0
   -1.5774   -4.4374    9.7555 Cl  0  0  0  0  0  0  0  0  0  0  0  0
   -1.8586   -2.2075    8.2621 C   0  0  0  0  0  0  0  0  0  0  0  0
   -1.6510   -1.4880    7.1314 N   0  0  0  0  0  0  0  0  0  0  0  0
    1.9002   -0.8704    0.7453 H   0  0  0  0  0  0  0  0  0  0  0  0
    1.6799   -0.9690   -1.0083 H   0  0  0  0  0  0  0  0  0  0  0  0
    2.0120    0.6008   -0.2648 H   0  0  0  0  0  0  0  0  0  0  0  0
   -0.0575    2.4629    0.1036 H   0  0  0  0  0  0  0  0  0  0  0  0
   -0.6718    3.7802    2.0109 H   0  0  0  0  0  0  0  0  0  0  0  0
   -1.0445    2.6726    5.2117 H   0  0  0  0  0  0  0  0  0  0  0  0
   -3.5330    2.5601    2.4140 H   0  0  0  0  0  0  0  0  0  0  0  0
   -4.8613    3.3851    0.6420 H   0  0  0  0  0  0  0  0  0  0  0  0
   -4.7551    7.2444    2.3607 H   0  0  0  0  0  0  0  0  0  0  0  0
   -3.3091    6.4395    4.0701 H   0  0  0  0  0  0  0  0  0  0  0  0
   -7.3001    5.4170   -0.7425 H   0  0  0  0  0  0  0  0  0  0  0  0
   -3.3545    7.0547   -0.1068 H   0  0  0  0  0  0  0  0  0  0  0  0
   -4.1872    8.6041    0.0869 H   0  0  0  0  0  0  0  0  0  0  0  0
   -3.8776    7.9335   -1.5220 H   0  0  0  0  0  0  0  0  0  0  0  0
   -6.6480    7.0453   -2.1766 H   0  0  0  0  0  0  0  0  0  0  0  0
   -6.2358    8.6636   -1.6105 H   0  0  0  0  0  0  0  0  0  0  0  0
   -7.4297    7.7209   -0.7349 H   0  0  0  0  0  0  0  0  0  0  0  0
   -0.6184   -1.0593    2.2981 H   0  0  0  0  0  0  0  0  0  0  0  0
   -0.1616   -1.5660    4.2632 H   0  0  0  0  0  0  0  0  0  0  0  0
    0.1190   -3.6308    5.3316 H   0  0  0  0  0  0  0  0  0  0  0  0
   -0.2166   -4.9703    7.3184 H   0  0  0  0  0  0  0  0  0  0  0  0
   -2.3941   -1.7930    9.0267 H   0  0  0  0  0  0  0  0  0  0  0  0
  1  2  1  0  0  0  0
  2  3  1  0  0  0  0
  3  4  2  0  0  0  0
  4  5  1  0  0  0  0
  5  6  2  0  0  0  0
  6  7  1  0  0  0  0
  7  8  1  0  0  0  0
  8  9  2  0  0  0  0
  8 10  1  0  0  0  0
 10 11  2  0  0  0  0
 11 12  1  0  0  0  0
 12 13  2  0  0  0  0
 13 14  1  0  0  0  0
 14 15  2  0  0  0  0
 13 16  1  0  0  0  0
 16 17  2  0  0  0  0
 16 18  1  0  0  0  0
 18 19  1  0  0  0  0
 18 20  1  0  0  0  0
  6 21  1  0  0  0  0
 21 22  2  0  0  0  0
 21 23  1  0  0  0  0
 23 24  2  0  0  0  0
 23 25  1  0  0  0  0
 25 26  1  0  0  0  0
 26 27  2  0  0  0  0
 27 28  1  0  0  0  0
 28 29  2  0  0  0  0
 29 30  1  0  0  0  0
 29 31  1  0  0  0  0
 31 32  2  0  0  0  0
 22  3  1  0  0  0  0
 32 26  1  0  0  0  0
 15 10  1  0  0  0  0
  1 33  1  0  0  0  0
  1 34  1  0  0  0  0
  1 35  1  0  0  0  0
  4 36  1  0  0  0  0
  5 37  1  0  0  0  0
  7 38  1  0  0  0  0
 11 39  1  0  0  0  0
 12 40  1  0  0  0  0
 14 41  1  0  0  0  0
 15 42  1  0  0  0  0
 17 43  1  0  0  0  0
 19 44  1  0  0  0  0
 19 45  1  0  0  0  0
 19 46  1  0  0  0  0
 20 47  1  0  0  0  0
 20 48  1  0  0  0  0
 20 49  1  0  0  0  0
 22 50  1  0  0  0  0
 25 51  1  0  0  0  0
 27 52  1  0  0  0  0
 28 53  1  0  0  0  0
 31 54  1  0  0  0  0
M  END
>  <SuperDrugID>
SD006007

>  <_MOLCOUNT>
1

$$$$
