riboflavin
  CDK     0628171801

 47 49  0  0  0  0  0  0  0  0999 V2000
   -0.1653   -0.5983   -1.4656 C   0  0  1  0  0  0  0  0  0  0  0  0
   -1.3427   -1.5017   -0.9872 C   0  0  1  0  0  0  0  0  0  0  0  0
    0.8493   -0.4207   -0.4262 N   0  0  0  0  0  0  0  0  0  0  0  0
   -2.5186   -1.6434   -2.0059 C   0  0  1  0  0  0  0  0  0  0  0  0
   -0.8371   -2.8024   -0.6767 O   0  0  0  0  0  0  0  0  0  0  0  0
    0.6825    0.4952    0.6118 C   0  0  0  0  0  0  0  0  0  0  0  0
    1.9973   -1.1941   -0.4790 C   0  0  0  0  0  0  0  0  0  0  0  0
   -3.3881   -0.3593   -2.1921 C   0  0  1  0  0  0  0  0  0  0  0  0
   -2.0179   -2.0795   -3.2718 O   0  0  0  0  0  0  0  0  0  0  0  0
    1.6983    0.6004    1.6030 C   0  0  0  0  0  0  0  0  0  0  0  0
   -0.4365    1.3580    0.7775 C   0  0  0  0  0  0  0  0  0  0  0  0
    2.9987   -1.0513    0.5154 C   0  0  0  0  0  0  0  0  0  0  0  0
    2.2293   -2.1186   -1.4566 N   0  0  0  0  0  0  0  0  0  0  0  0
   -4.5616   -0.5582   -3.1881 C   0  0  2  0  0  0  0  0  0  0  0  0
   -3.9503    0.0496   -0.9435 O   0  0  0  0  0  0  0  0  0  0  0  0
    2.8068   -0.1675    1.5149 N   0  0  0  0  0  0  0  0  0  0  0  0
    1.5947    1.4866    2.6896 C   0  0  0  0  0  0  0  0  0  0  0  0
   -0.5663    2.2613    1.8637 C   0  0  0  0  0  0  0  0  0  0  0  0
    4.1668   -1.8363    0.4392 C   0  0  0  0  0  0  0  0  0  0  0  0
    3.3537   -2.8725   -1.5209 C   0  0  0  0  0  0  0  0  0  0  0  0
   -4.0961   -0.6923   -4.5285 O   0  0  0  0  0  0  0  0  0  0  0  0
    0.4668    2.3216    2.8399 C   0  0  0  0  0  0  0  0  0  0  0  0
   -1.7791    3.1227    1.9607 C   0  0  0  0  0  0  0  0  0  0  0  0
    5.0793   -1.7403    1.2911 O   0  0  0  0  0  0  0  0  0  0  0  0
    4.3153   -2.7221   -0.5775 N   0  0  0  0  0  0  0  0  0  0  0  0
    3.5006   -3.6989   -2.4472 O   0  0  0  0  0  0  0  0  0  0  0  0
    0.3967    3.2407    4.0075 C   0  0  0  0  0  0  0  0  0  0  0  0
    0.2471   -1.0436   -2.3748 H   0  0  0  0  0  0  0  0  0  0  0  0
   -0.5246    0.3753   -1.8008 H   0  0  0  0  0  0  0  0  0  0  0  0
   -1.7366   -1.1083   -0.0500 H   0  0  0  0  0  0  0  0  0  0  0  0
   -3.1814   -2.4318   -1.6371 H   0  0  0  0  0  0  0  0  0  0  0  0
   -0.5089   -3.1635   -1.5259 H   0  0  0  0  0  0  0  0  0  0  0  0
   -2.7681    0.4606   -2.5637 H   0  0  0  0  0  0  0  0  0  0  0  0
   -1.6244   -2.9606   -3.1063 H   0  0  0  0  0  0  0  0  0  0  0  0
   -1.1881    1.3389    0.0906 H   0  0  0  0  0  0  0  0  0  0  0  0
   -5.2258    0.3076   -3.1562 H   0  0  0  0  0  0  0  0  0  0  0  0
   -5.1442   -1.4440   -2.9217 H   0  0  0  0  0  0  0  0  0  0  0  0
   -3.1857    0.3005   -0.3861 H   0  0  0  0  0  0  0  0  0  0  0  0
    2.3544    1.5205    3.3771 H   0  0  0  0  0  0  0  0  0  0  0  0
   -4.9075   -0.8165   -5.0638 H   0  0  0  0  0  0  0  0  0  0  0  0
   -2.3406    2.8710    2.8616 H   0  0  0  0  0  0  0  0  0  0  0  0
   -2.4522    3.0043    1.1100 H   0  0  0  0  0  0  0  0  0  0  0  0
   -1.4930    4.1751    2.0029 H   0  0  0  0  0  0  0  0  0  0  0  0
    5.1223   -3.2591   -0.6322 H   0  0  0  0  0  0  0  0  0  0  0  0
   -0.4916    3.0199    4.6036 H   0  0  0  0  0  0  0  0  0  0  0  0
    1.2655    3.1506    4.6628 H   0  0  0  0  0  0  0  0  0  0  0  0
    0.3480    4.2749    3.6624 H   0  0  0  0  0  0  0  0  0  0  0  0
  2  1  1  0  0  0  0 
  1  3  1  0  0  0  0 
  4  2  1  0  0  0  0 
  2  5  1  0  0  0  0 
  3  6  1  0  0  0  0 
  3  7  1  0  0  0  0 
  4  8  1  0  0  0  0 
  4  9  1  0  0  0  0 
  6 10  1  0  0  0  0 
  6 11  2  0  0  0  0 
  7 12  1  0  0  0  0 
  7 13  2  0  0  0  0 
  8 14  1  0  0  0  0 
  8 15  1  0  0  0  0 
 10 16  1  0  0  0  0 
 10 17  2  0  0  0  0 
 11 18  1  0  0  0  0 
 12 16  2  0  0  0  0 
 12 19  1  0  0  0  0 
 13 20  1  0  0  0  0 
 14 21  1  0  0  0  0 
 17 22  1  0  0  0  0 
 18 22  2  0  0  0  0 
 18 23  1  0  0  0  0 
 19 24  2  0  0  0  0 
 19 25  1  0  0  0  0 
 20 25  1  0  0  0  0 
 20 26  2  0  0  0  0 
 22 27  1  0  0  0  0 
 28  1  1  0  0  0  0 
 29  1  1  0  0  0  0 
  2 30  1  0  0  0  0 
  4 31  1  0  0  0  0 
 32  5  1  0  0  0  0 
  8 33  1  0  0  0  0 
 34  9  1  0  0  0  0 
 35 11  1  0  0  0  0 
 36 14  1  0  0  0  0 
 37 14  1  0  0  0  0 
 38 15  1  0  0  0  0 
 39 17  1  0  0  0  0 
 40 21  1  0  0  0  0 
 41 23  1  0  0  0  0 
 42 23  1  0  0  0  0 
 43 23  1  0  0  0  0 
 44 25  1  0  0  0  0 
 45 27  1  0  0  0  0 
 46 27  1  0  0  0  0 
 47 27  1  0  0  0  0 
M  END
> <cdk:Title>
riboflavin

> <Conformer>
1

> <SuperDrugID>
SD002556

$$$$
