vonoprazan
  CDK     0628171802

 40 42  0  0  0  0  0  0  0  0999 V2000
    3.7608   -6.4175    2.3923 C   0  0  0  0  0  0  0  0  0  0  0  0
    4.5532   -5.9866    3.4714 C   0  0  0  0  0  0  0  0  0  0  0  0
    4.3701   -4.6986    4.0059 C   0  0  0  0  0  0  0  0  0  0  0  0
    3.4107   -3.8292    3.4501 C   0  0  0  0  0  0  0  0  0  0  0  0
    2.6253   -4.2508    2.3494 C   0  0  0  0  0  0  0  0  0  0  0  0
    2.7868   -5.5615    1.8463 C   0  0  0  0  0  0  0  0  0  0  0  0
    1.7059   -3.3751    1.7333 C   0  0  0  0  0  0  0  0  0  0  0  0
    0.6088   -2.8030    2.3749 C   0  0  0  0  0  0  0  0  0  0  0  0
   -0.0497   -1.9970    1.4552 C   0  0  0  0  0  0  0  0  0  0  0  0
    0.6679   -2.1131    0.2680 C   0  0  0  0  0  0  0  0  0  0  0  0
    1.7204   -2.9331    0.4544 N   0  0  0  0  0  0  0  0  0  0  0  0
   -1.2565   -1.1857    1.6950 C   0  0  2  0  0  0  0  0  0  0  0  0
   -2.4613   -1.9866    1.3935 N   0  0  2  0  0  0  0  0  0  0  0  0
   -3.7355   -1.2783    1.6302 C   0  0  0  0  0  0  0  0  0  0  0  0
    2.8594   -3.3014   -0.7851 S   0  0  1  0  0  0  0  0  0  0  0  0
    2.2018   -4.6016   -1.7950 C   0  0  0  0  0  0  0  0  0  0  0  0
    1.0138   -4.3887   -2.5243 C   0  0  0  0  0  0  0  0  0  0  0  0
    0.5002   -5.3756   -3.3024 N   0  0  0  0  0  0  0  0  0  0  0  0
    1.0882   -6.5942   -3.4116 C   0  0  0  0  0  0  0  0  0  0  0  0
    2.2695   -6.8707   -2.6995 C   0  0  0  0  0  0  0  0  0  0  0  0
    2.8252   -5.8635   -1.8880 C   0  0  0  0  0  0  0  0  0  0  0  0
    3.0819   -1.9916   -1.6877 O   0  0  0  0  0  0  0  0  0  0  0  0
    4.2762   -3.7142   -0.1543 O   0  0  0  0  0  0  0  0  0  0  0  0
    3.2832   -2.6315    3.9614 F   0  0  0  0  0  0  0  0  0  0  0  0
    3.8946   -7.3535    2.0025 H   0  0  0  0  0  0  0  0  0  0  0  0
    5.2594   -6.6100    3.8692 H   0  0  0  0  0  0  0  0  0  0  0  0
    4.9426   -4.3944    4.7980 H   0  0  0  0  0  0  0  0  0  0  0  0
    2.2006   -5.8997    1.0777 H   0  0  0  0  0  0  0  0  0  0  0  0
    0.3312   -2.9532    3.3479 H   0  0  0  0  0  0  0  0  0  0  0  0
    0.4335   -1.6436   -0.6096 H   0  0  0  0  0  0  0  0  0  0  0  0
   -1.2262   -0.2967    1.0607 H   0  0  0  0  0  0  0  0  0  0  0  0
   -1.2707   -0.8627    2.7387 H   0  0  0  0  0  0  0  0  0  0  0  0
   -2.4519   -2.7912    2.0239 H   0  0  0  0  0  0  0  0  0  0  0  0
   -3.8171   -0.4014    0.9852 H   0  0  0  0  0  0  0  0  0  0  0  0
   -4.5582   -1.9557    1.3991 H   0  0  0  0  0  0  0  0  0  0  0  0
   -3.8238   -0.9710    2.6745 H   0  0  0  0  0  0  0  0  0  0  0  0
    0.5254   -3.4935   -2.4746 H   0  0  0  0  0  0  0  0  0  0  0  0
    0.6674   -7.3059   -4.0100 H   0  0  0  0  0  0  0  0  0  0  0  0
    2.7150   -7.7896   -2.7691 H   0  0  0  0  0  0  0  0  0  0  0  0
    3.6807   -6.0568   -1.3652 H   0  0  0  0  0  0  0  0  0  0  0  0
  1  2  2  0  0  0  0 
  1  6  1  0  0  0  0 
  2  3  1  0  0  0  0 
  3  4  2  0  0  0  0 
  4  5  1  0  0  0  0 
  5  6  2  0  0  0  0 
  5  7  1  0  0  0  0 
  8  9  1  0  0  0  0 
  9 10  2  0  0  0  0 
 10 11  1  0  0  0  0 
  7  8  2  0  0  0  0 
  7 11  1  0  0  0  0 
  9 12  1  0  0  0  0 
 12 13  1  0  0  0  0 
 13 14  1  0  0  0  0 
 11 15  1  0  0  0  0 
 15 16  1  0  0  0  0 
 17 18  1  0  0  0  0 
 18 19  2  0  0  0  0 
 19 20  1  0  0  0  0 
 20 21  2  0  0  0  0 
 16 17  2  0  0  0  0 
 16 21  1  0  0  0  0 
 15 22  2  0  0  0  0 
 15 23  2  0  0  0  0 
  4 24  1  0  0  0  0 
  1 25  1  0  0  0  0 
  2 26  1  0  0  0  0 
  3 27  1  0  0  0  0 
  6 28  1  0  0  0  0 
  8 29  1  0  0  0  0 
 10 30  1  0  0  0  0 
 12 31  1  0  0  0  0 
 12 32  1  0  0  0  0 
 13 33  1  0  0  0  0 
 14 34  1  0  0  0  0 
 14 35  1  0  0  0  0 
 14 36  1  0  0  0  0 
 17 37  1  0  0  0  0 
 19 38  1  0  0  0  0 
 20 39  1  0  0  0  0 
 21 40  1  0  0  0  0 
M  END
> <cdk:Title>
vonoprazan

> <Conformer>
1

> <SuperDrugID>
SD003868

$$$$
