zeranol
  CDK     0628171801

 49 50  0  0  0  0  0  0  0  0999 V2000
    3.1667    4.2575   -0.9502 O   0  0  0  0  0  0  0  0  0  0  0  0
    3.0280    2.9529   -0.5835 C   0  0  0  0  0  0  0  0  0  0  0  0
    1.8167    2.2236   -0.7430 C   0  0  0  0  0  0  0  0  0  0  0  0
    4.1704    2.3329   -0.0545 C   0  0  0  0  0  0  0  0  0  0  0  0
    1.7588    0.8572   -0.3239 C   0  0  0  0  0  0  0  0  0  0  0  0
    0.7422    2.9037   -1.3625 C   0  0  0  0  0  0  0  0  0  0  0  0
    4.1425    0.9765    0.2931 C   0  0  0  0  0  0  0  0  0  0  0  0
    2.9503    0.2501    0.1513 C   0  0  0  0  0  0  0  0  0  0  0  0
    0.5249    0.0044   -0.3693 C   0  0  2  0  0  0  0  0  0  0  0  0
    0.3322    3.9768   -0.8611 O   0  0  0  0  0  0  0  0  0  0  0  0
    0.2448    2.4338   -2.5488 O   0  0  0  0  0  0  0  0  0  0  0  0
    5.2544    0.3610    0.7634 O   0  0  0  0  0  0  0  0  0  0  0  0
    0.0307   -0.5118    1.0197 C   0  0  2  0  0  0  0  0  0  0  0  0
   -0.6217    3.1068   -3.4853 C   0  0  1  0  0  0  0  0  0  0  0  0
   -0.6354    0.5253    1.9794 C   0  0  1  0  0  0  0  0  0  0  0  0
   -0.7387    2.2110   -4.7429 C   0  0  0  0  0  0  0  0  0  0  0  0
   -2.0046    3.5319   -2.9051 C   0  0  1  0  0  0  0  0  0  0  0  0
   -2.1550    0.7920    1.7364 C   0  0  2  0  0  0  0  0  0  0  0  0
   -2.9102    2.3580   -2.4344 C   0  0  2  0  0  0  0  0  0  0  0  0
   -2.4756    1.9670    0.7663 C   0  0  2  0  0  0  0  0  0  0  0  0
   -3.8976    2.7264   -1.2771 C   0  0  1  0  0  0  0  0  0  0  0  0
   -3.8010    1.7858   -0.0406 C   0  0  2  0  0  0  0  0  0  0  0  0
   -4.9058    2.0311    0.8279 O   0  0  0  0  0  0  0  0  0  0  0  0
    2.4767    4.4213   -1.6267 H   0  0  0  0  0  0  0  0  0  0  0  0
    5.0332    2.8691    0.0604 H   0  0  0  0  0  0  0  0  0  0  0  0
    2.9612   -0.7424    0.3987 H   0  0  0  0  0  0  0  0  0  0  0  0
    0.7492   -0.8647   -0.9961 H   0  0  0  0  0  0  0  0  0  0  0  0
   -0.3023    0.5063   -0.8614 H   0  0  0  0  0  0  0  0  0  0  0  0
    5.9794    1.0083    0.6625 H   0  0  0  0  0  0  0  0  0  0  0  0
    0.8753   -0.9613    1.5470 H   0  0  0  0  0  0  0  0  0  0  0  0
   -0.6742   -1.3277    0.8475 H   0  0  0  0  0  0  0  0  0  0  0  0
   -0.1049    4.0208   -3.7945 H   0  0  0  0  0  0  0  0  0  0  0  0
   -0.5504    0.1163    2.9902 H   0  0  0  0  0  0  0  0  0  0  0  0
   -0.0727    1.4617    1.9768 H   0  0  0  0  0  0  0  0  0  0  0  0
   -1.3745    2.6826   -5.4960 H   0  0  0  0  0  0  0  0  0  0  0  0
   -1.1571    1.2353   -4.4880 H   0  0  0  0  0  0  0  0  0  0  0  0
    0.2507    2.0566   -5.1775 H   0  0  0  0  0  0  0  0  0  0  0  0
   -1.8207    4.2141   -2.0757 H   0  0  0  0  0  0  0  0  0  0  0  0
   -2.5445    4.1104   -3.6609 H   0  0  0  0  0  0  0  0  0  0  0  0
   -2.6284    1.0268    2.6953 H   0  0  0  0  0  0  0  0  0  0  0  0
   -2.6165   -0.1344    1.3855 H   0  0  0  0  0  0  0  0  0  0  0  0
   -2.2798    1.5212   -2.1323 H   0  0  0  0  0  0  0  0  0  0  0  0
   -3.4834    2.0020   -3.2960 H   0  0  0  0  0  0  0  0  0  0  0  0
   -1.6455    2.0938    0.0784 H   0  0  0  0  0  0  0  0  0  0  0  0
   -2.5295    2.8948    1.3429 H   0  0  0  0  0  0  0  0  0  0  0  0
   -3.7497    3.7532   -0.9355 H   0  0  0  0  0  0  0  0  0  0  0  0
   -4.9153    2.6795   -1.6721 H   0  0  0  0  0  0  0  0  0  0  0  0
   -3.8917    0.7538   -0.3954 H   0  0  0  0  0  0  0  0  0  0  0  0
   -5.7030    1.9034    0.2711 H   0  0  0  0  0  0  0  0  0  0  0  0
  1  2  1  0  0  0  0 
  2  3  2  0  0  0  0 
  2  4  1  0  0  0  0 
  3  5  1  0  0  0  0 
  3  6  1  0  0  0  0 
  4  7  2  0  0  0  0 
  5  8  2  0  0  0  0 
  5  9  1  0  0  0  0 
  6 10  2  0  0  0  0 
  6 11  1  0  0  0  0 
  7  8  1  0  0  0  0 
  7 12  1  0  0  0  0 
  9 13  1  0  0  0  0 
 14 11  1  0  0  0  0 
 13 15  1  0  0  0  0 
 14 16  1  0  0  0  0 
 14 17  1  0  0  0  0 
 15 18  1  0  0  0  0 
 17 19  1  0  0  0  0 
 18 20  1  0  0  0  0 
 19 21  1  0  0  0  0 
 22 20  1  0  0  0  0 
 22 21  1  0  0  0  0 
 22 23  1  0  0  0  0 
  1 24  1  0  0  0  0 
  4 25  1  0  0  0  0 
  8 26  1  0  0  0  0 
  9 27  1  0  0  0  0 
  9 28  1  0  0  0  0 
 12 29  1  0  0  0  0 
 13 30  1  0  0  0  0 
 13 31  1  0  0  0  0 
 14 32  1  0  0  0  0 
 15 33  1  0  0  0  0 
 15 34  1  0  0  0  0 
 16 35  1  0  0  0  0 
 16 36  1  0  0  0  0 
 16 37  1  0  0  0  0 
 17 38  1  0  0  0  0 
 17 39  1  0  0  0  0 
 18 40  1  0  0  0  0 
 18 41  1  0  0  0  0 
 19 42  1  0  0  0  0 
 19 43  1  0  0  0  0 
 20 44  1  0  0  0  0 
 20 45  1  0  0  0  0 
 21 46  1  0  0  0  0 
 21 47  1  0  0  0  0 
 22 48  1  0  0  0  0 
 23 49  1  0  0  0  0 
M  END
> <cdk:Title>
zeranol

> <Conformer>
1

> <SuperDrugID>
SD002577

$$$$
