peramivir
  CDK     0628171802

 51 51  0  0  0  0  0  0  0  0999 V2000
   -1.2713   -1.9770    0.3518 C   0  0  2  0  0  0  0  0  0  0  0  0
   -1.9833   -1.7534    1.7518 C   0  0  1  0  0  0  0  0  0  0  0  0
   -0.9431   -1.4806    2.9031 C   0  0  2  0  0  0  0  0  0  0  0  0
    0.0711   -2.6122    3.2099 C   0  0  0  0  0  0  0  0  0  0  0  0
   -3.0821   -0.6272    1.8077 C   0  0  2  0  0  0  0  0  0  0  0  0
   -4.3937   -0.8682    1.0207 C   0  0  0  0  0  0  0  0  0  0  0  0
   -0.7611   -0.7051   -0.0903 N   0  0  0  0  0  0  0  0  0  0  0  0
    0.5443   -0.3113   -0.1106 C   0  0  0  0  0  0  0  0  0  0  0  0
    0.8726    1.0139   -0.6559 C   0  0  0  0  0  0  0  0  0  0  0  0
    1.4706   -1.0449    0.3091 O   0  0  0  0  0  0  0  0  0  0  0  0
   -2.0853   -2.6511   -0.8239 C   0  0  1  0  0  0  0  0  0  0  0  0
   -1.2891   -2.7170   -2.1785 C   0  0  2  0  0  0  0  0  0  0  0  0
   -2.1154   -2.5416   -3.3033 N   0  0  0  0  0  0  0  0  0  0  0  0
   -2.6889   -1.4728   -3.7342 C   0  0  0  0  0  0  0  0  0  0  0  0
   -2.5731   -0.2950   -3.1526 N   0  0  0  0  0  0  0  0  0  0  0  0
   -3.4291   -1.5524   -4.8180 N   0  0  0  0  0  0  0  0  0  0  0  0
   -0.6133   -4.1151   -2.2204 C   0  0  2  0  0  0  0  0  0  0  0  0
   -1.2622   -4.9671   -1.1003 C   0  0  1  0  0  0  0  0  0  0  0  0
   -2.4934   -4.1468   -0.6529 C   0  0  1  0  0  0  0  0  0  0  0  0
   -2.9258   -4.5427    0.6434 O   0  0  0  0  0  0  0  0  0  0  0  0
   -1.5825   -6.3586   -1.5004 C   0  0  0  0  0  0  0  0  0  0  0  0
   -1.0127   -7.4075   -0.8617 O   0  0  0  0  0  0  0  0  0  0  0  0
   -2.3779   -6.5990   -2.4384 O   0  0  0  0  0  0  0  0  0  0  0  0
   -0.4416   -2.6614    0.5176 H   0  0  0  0  0  0  0  0  0  0  0  0
   -2.4817   -2.6731    2.0460 H   0  0  0  0  0  0  0  0  0  0  0  0
   -1.4859   -1.3158    3.8396 H   0  0  0  0  0  0  0  0  0  0  0  0
   -0.3871   -0.5635    2.6904 H   0  0  0  0  0  0  0  0  0  0  0  0
    0.5899   -2.3919    4.1458 H   0  0  0  0  0  0  0  0  0  0  0  0
   -0.4403   -3.5716    3.3151 H   0  0  0  0  0  0  0  0  0  0  0  0
    0.8263   -2.6924    2.4278 H   0  0  0  0  0  0  0  0  0  0  0  0
   -2.6561    0.3290    1.4925 H   0  0  0  0  0  0  0  0  0  0  0  0
   -3.3948   -0.5025    2.8498 H   0  0  0  0  0  0  0  0  0  0  0  0
   -5.2041   -0.2839    1.4611 H   0  0  0  0  0  0  0  0  0  0  0  0
   -4.2892   -0.5415   -0.0133 H   0  0  0  0  0  0  0  0  0  0  0  0
   -4.6799   -1.9207    1.0474 H   0  0  0  0  0  0  0  0  0  0  0  0
   -1.4121   -0.0661   -0.4251 H   0  0  0  0  0  0  0  0  0  0  0  0
    0.3129    1.7834   -0.1197 H   0  0  0  0  0  0  0  0  0  0  0  0
    0.6032    1.0498   -1.7142 H   0  0  0  0  0  0  0  0  0  0  0  0
    1.9409    1.2291   -0.5598 H   0  0  0  0  0  0  0  0  0  0  0  0
   -2.9921   -2.0735   -0.9778 H   0  0  0  0  0  0  0  0  0  0  0  0
   -0.5007   -1.9634   -2.2454 H   0  0  0  0  0  0  0  0  0  0  0  0
   -2.0489   -0.1980   -2.3421 H   0  0  0  0  0  0  0  0  0  0  0  0
   -3.0156    0.4796   -3.5342 H   0  0  0  0  0  0  0  0  0  0  0  0
   -3.5388   -2.3987   -5.2771 H   0  0  0  0  0  0  0  0  0  0  0  0
   -3.8720   -0.7609   -5.1623 H   0  0  0  0  0  0  0  0  0  0  0  0
    0.4595   -4.0178   -2.0240 H   0  0  0  0  0  0  0  0  0  0  0  0
   -0.7221   -4.5801   -3.2077 H   0  0  0  0  0  0  0  0  0  0  0  0
   -0.5626   -5.0136   -0.2568 H   0  0  0  0  0  0  0  0  0  0  0  0
   -3.3344   -4.3476   -1.3269 H   0  0  0  0  0  0  0  0  0  0  0  0
   -3.7171   -3.9915    0.8218 H   0  0  0  0  0  0  0  0  0  0  0  0
   -1.2261   -8.3251   -1.1345 H   0  0  0  0  0  0  0  0  0  0  0  0
  1  2  1  0  0  0  0 
  1  7  1  0  0  0  0 
 11  1  1  0  0  0  0 
  2  3  1  0  0  0  0 
  2  5  1  0  0  0  0 
  3  4  1  0  0  0  0 
  5  6  1  0  0  0  0 
  7  8  1  0  0  0  0 
  8  9  1  0  0  0  0 
  8 10  2  0  0  0  0 
 11 12  1  0  0  0  0 
 11 19  1  0  0  0  0 
 12 13  1  0  0  0  0 
 12 17  1  0  0  0  0 
 13 14  2  0  0  0  0 
 14 15  1  0  0  0  0 
 14 16  1  0  0  0  0 
 18 17  1  0  0  0  0 
 18 21  1  0  0  0  0 
 19 18  1  0  0  0  0 
 19 20  1  0  0  0  0 
 21 22  1  0  0  0  0 
 21 23  2  0  0  0  0 
  1 24  1  0  0  0  0 
 25  2  1  0  0  0  0 
 26  3  1  0  0  0  0 
 27  3  1  0  0  0  0 
 28  4  1  0  0  0  0 
 29  4  1  0  0  0  0 
 30  4  1  0  0  0  0 
 31  5  1  0  0  0  0 
 32  5  1  0  0  0  0 
 33  6  1  0  0  0  0 
 34  6  1  0  0  0  0 
 35  6  1  0  0  0  0 
 36  7  1  0  0  0  0 
 37  9  1  0  0  0  0 
 38  9  1  0  0  0  0 
 39  9  1  0  0  0  0 
 11 40  1  0  0  0  0 
 12 41  1  0  0  0  0 
 42 15  1  0  0  0  0 
 43 15  1  0  0  0  0 
 44 16  1  0  0  0  0 
 45 16  1  0  0  0  0 
 46 17  1  0  0  0  0 
 47 17  1  0  0  0  0 
 18 48  1  0  0  0  0 
 19 49  1  0  0  0  0 
 50 20  1  0  0  0  0 
 51 22  1  0  0  0  0 
M  END
> <cdk:Title>
peramivir

> <Conformer>
1

> <SuperDrugID>
SD003785

$$$$
