azidamfenicol
  CDK     0628171801

 34 34  0  0  0  0  0  0  0  0999 V2000
   -4.5456    2.5696   -0.0285 C   0  0  2  0  0  0  0  0  0  0  0  0
   -3.4739    2.8375    1.0774 C   0  0  2  0  0  0  0  0  0  0  0  0
   -5.4269    3.6900   -0.1299 O   0  0  0  0  0  0  0  0  0  0  0  0
   -5.3101    1.2946    0.1365 C   0  0  0  0  0  0  0  0  0  0  0  0
   -2.4062    1.8821    0.9731 N   0  0  0  0  0  0  0  0  0  0  0  0
   -4.0218    2.8453    2.5297 C   0  0  2  0  0  0  0  0  0  0  0  0
   -6.5681    1.2560    0.7832 C   0  0  0  0  0  0  0  0  0  0  0  0
   -4.7750    0.0787   -0.3451 C   0  0  0  0  0  0  0  0  0  0  0  0
   -1.1717    2.1036    0.4389 C   0  0  0  0  0  0  0  0  0  0  0  0
   -4.3788    1.5426    2.9810 O   0  0  0  0  0  0  0  0  0  0  0  0
   -7.2718    0.0468    0.9260 C   0  0  0  0  0  0  0  0  0  0  0  0
   -5.4779   -1.1304   -0.1943 C   0  0  0  0  0  0  0  0  0  0  0  0
   -0.2085    0.9909    0.3627 C   0  0  2  0  0  0  0  0  0  0  0  0
   -0.8338    3.2283   -0.0007 O   0  0  0  0  0  0  0  0  0  0  0  0
   -6.7441   -1.1774    0.4442 C   0  0  0  0  0  0  0  0  0  0  0  0
   -0.7906   -0.1060   -0.4383 N   0  0  0  0  0  0  0  0  0  0  0  0
   -7.4183   -2.3339    0.5926 N   0  0  0  0  0  0  0  0  0  0  0  0
    0.0054   -1.0704   -0.5583 N   0  0  0  0  0  0  0  0  0  0  0  0
   -7.0152   -3.3597    0.2049 O   0  0  0  0  0  0  0  0  0  0  0  0
   -8.5459   -2.4021    1.1748 O   0  0  0  0  0  0  0  0  0  0  0  0
    0.7040   -1.9163   -0.6649 N   0  0  0  0  0  0  0  0  0  0  0  0
   -4.0313    2.5414   -0.9968 H   0  0  0  0  0  0  0  0  0  0  0  0
   -3.0865    3.8469    0.8981 H   0  0  0  0  0  0  0  0  0  0  0  0
   -4.8493    4.4514   -0.3484 H   0  0  0  0  0  0  0  0  0  0  0  0
   -2.5864    0.9860    1.2979 H   0  0  0  0  0  0  0  0  0  0  0  0
   -4.8980    3.4943    2.5971 H   0  0  0  0  0  0  0  0  0  0  0  0
   -3.2561    3.2353    3.2041 H   0  0  0  0  0  0  0  0  0  0  0  0
   -6.9828    2.1100    1.1642 H   0  0  0  0  0  0  0  0  0  0  0  0
   -3.8637    0.0651   -0.8113 H   0  0  0  0  0  0  0  0  0  0  0  0
   -4.6893    1.6697    3.9008 H   0  0  0  0  0  0  0  0  0  0  0  0
   -8.1801    0.0703    1.3951 H   0  0  0  0  0  0  0  0  0  0  0  0
   -5.0522   -1.9847   -0.5608 H   0  0  0  0  0  0  0  0  0  0  0  0
    0.0179    0.6514    1.3779 H   0  0  0  0  0  0  0  0  0  0  0  0
    0.7180    1.3362   -0.1076 H   0  0  0  0  0  0  0  0  0  0  0  0
  1  2  1  0  0  0  0 
  1  3  1  0  0  0  0 
  1  4  1  0  0  0  0 
  2  5  1  0  0  0  0 
  2  6  1  0  0  0  0 
  4  7  2  0  0  0  0 
  4  8  1  0  0  0  0 
  5  9  1  0  0  0  0 
  6 10  1  0  0  0  0 
  7 11  1  0  0  0  0 
  8 12  2  0  0  0  0 
  9 13  1  0  0  0  0 
  9 14  2  0  0  0  0 
 11 15  2  0  0  0  0 
 12 15  1  0  0  0  0 
 13 16  1  0  0  0  0 
 15 17  1  0  0  0  0 
 16 18  1  0  0  0  0 
 17 19  2  0  0  0  0 
 17 20  1  0  0  0  0 
 18 21  3  0  0  0  0 
  1 22  1  0  0  0  0 
  2 23  1  0  0  0  0 
 24  3  1  0  0  0  0 
 25  5  1  0  0  0  0 
 26  6  1  0  0  0  0 
 27  6  1  0  0  0  0 
 28  7  1  0  0  0  0 
 29  8  1  0  0  0  0 
 30 10  1  0  0  0  0 
 31 11  1  0  0  0  0 
 32 12  1  0  0  0  0 
 33 13  1  0  0  0  0 
 34 13  1  0  0  0  0 
M  CHG  1  16  -1
M  CHG  1  17   1
M  CHG  1  18   1
M  CHG  1  20  -1
M  END
> <cdk:Title>
azidamfenicol

> <Conformer>
1

> <SuperDrugID>
SD002617

$$$$
