metabutoxycaine
  CDK     0628171801

 50 50  0  0  0  0  0  0  0  0999 V2000
   -0.5184   -2.1442    1.8427 C   0  0  0  0  0  0  0  0  0  0  0  0
   -0.0637   -1.2710    0.8836 O   0  0  0  0  0  0  0  0  0  0  0  0
   -0.2976   -1.8386    3.0404 O   0  0  0  0  0  0  0  0  0  0  0  0
   -1.2067   -3.3626    1.5387 C   0  0  0  0  0  0  0  0  0  0  0  0
    0.7066   -0.0786    1.1417 C   0  0  2  0  0  0  0  0  0  0  0  0
   -1.3887   -3.8383    0.2069 C   0  0  0  0  0  0  0  0  0  0  0  0
   -1.7326   -4.1504    2.6007 C   0  0  0  0  0  0  0  0  0  0  0  0
    1.1233    0.6454   -0.1647 C   0  0  2  0  0  0  0  0  0  0  0  0
   -0.9354   -3.1318   -0.8806 O   0  0  0  0  0  0  0  0  0  0  0  0
   -2.0904   -5.0483   -0.0278 C   0  0  0  0  0  0  0  0  0  0  0  0
   -2.4209   -5.3506    2.3609 C   0  0  0  0  0  0  0  0  0  0  0  0
    2.2964    1.5824   -0.0562 N   0  0  1  0  0  0  0  0  0  0  0  0
    0.3327   -3.5847   -1.4001 C   0  0  2  0  0  0  0  0  0  0  0  0
   -2.2927   -5.5171   -1.2758 N   0  0  0  0  0  0  0  0  0  0  0  0
   -2.5991   -5.7990    1.0465 C   0  0  0  0  0  0  0  0  0  0  0  0
    2.0441    2.7450    0.8646 C   0  0  1  0  0  0  0  0  0  0  0  0
    3.6511    0.9436    0.0984 C   0  0  1  0  0  0  0  0  0  0  0  0
    0.6646   -2.7570   -2.6632 C   0  0  1  0  0  0  0  0  0  0  0  0
    3.0307    3.9296    0.7246 C   0  0  0  0  0  0  0  0  0  0  0  0
    4.0036   -0.1698   -0.9171 C   0  0  0  0  0  0  0  0  0  0  0  0
    2.0815   -3.0418   -3.2240 C   0  0  1  0  0  0  0  0  0  0  0  0
    2.4531   -2.1333   -4.4168 C   0  0  0  0  0  0  0  0  0  0  0  0
    1.6011   -0.3684    1.6941 H   0  0  0  0  0  0  0  0  0  0  0  0
    0.1278    0.6092    1.7668 H   0  0  0  0  0  0  0  0  0  0  0  0
   -1.6251   -3.8606    3.5756 H   0  0  0  0  0  0  0  0  0  0  0  0
    0.2618    1.2026   -0.5415 H   0  0  0  0  0  0  0  0  0  0  0  0
    1.3347   -0.1006   -0.9261 H   0  0  0  0  0  0  0  0  0  0  0  0
   -2.7941   -5.8968    3.1418 H   0  0  0  0  0  0  0  0  0  0  0  0
    0.2954   -4.6414   -1.6817 H   0  0  0  0  0  0  0  0  0  0  0  0
    1.1162   -3.4506   -0.6488 H   0  0  0  0  0  0  0  0  0  0  0  0
   -1.9617   -5.0272   -2.0436 H   0  0  0  0  0  0  0  0  0  0  0  0
   -2.7684   -6.3519   -1.4070 H   0  0  0  0  0  0  0  0  0  0  0  0
   -3.1017   -6.6742    0.8769 H   0  0  0  0  0  0  0  0  0  0  0  0
    1.0489    3.1544    0.6691 H   0  0  0  0  0  0  0  0  0  0  0  0
    2.0582    2.4069    1.9033 H   0  0  0  0  0  0  0  0  0  0  0  0
    4.4148    1.7086   -0.0494 H   0  0  0  0  0  0  0  0  0  0  0  0
    3.7734    0.5520    1.1122 H   0  0  0  0  0  0  0  0  0  0  0  0
   -0.0772   -2.9810   -3.4353 H   0  0  0  0  0  0  0  0  0  0  0  0
    0.5827   -1.6985   -2.4158 H   0  0  0  0  0  0  0  0  0  0  0  0
    3.9991    3.6837    1.1629 H   0  0  0  0  0  0  0  0  0  0  0  0
    3.1703    4.1880   -0.3265 H   0  0  0  0  0  0  0  0  0  0  0  0
    2.6392    4.8034    1.2496 H   0  0  0  0  0  0  0  0  0  0  0  0
    5.0773   -0.3669   -0.8958 H   0  0  0  0  0  0  0  0  0  0  0  0
    3.7323    0.1329   -1.9311 H   0  0  0  0  0  0  0  0  0  0  0  0
    3.4816   -1.0929   -0.6622 H   0  0  0  0  0  0  0  0  0  0  0  0
    2.8229   -2.8947   -2.4349 H   0  0  0  0  0  0  0  0  0  0  0  0
    2.1278   -4.0826   -3.5537 H   0  0  0  0  0  0  0  0  0  0  0  0
    1.7305   -2.2576   -5.2248 H   0  0  0  0  0  0  0  0  0  0  0  0
    2.4679   -1.0862   -4.1087 H   0  0  0  0  0  0  0  0  0  0  0  0
    3.4438   -2.3986   -4.7914 H   0  0  0  0  0  0  0  0  0  0  0  0
  1  2  1  0  0  0  0 
  1  3  2  0  0  0  0 
  1  4  1  0  0  0  0 
  2  5  1  0  0  0  0 
  4  6  2  0  0  0  0 
  4  7  1  0  0  0  0 
  5  8  1  0  0  0  0 
  6  9  1  0  0  0  0 
  6 10  1  0  0  0  0 
  7 11  2  0  0  0  0 
  8 12  1  0  0  0  0 
  9 13  1  0  0  0  0 
 10 14  1  0  0  0  0 
 10 15  2  0  0  0  0 
 11 15  1  0  0  0  0 
 12 16  1  0  0  0  0 
 12 17  1  0  0  0  0 
 13 18  1  0  0  0  0 
 16 19  1  0  0  0  0 
 17 20  1  0  0  0  0 
 18 21  1  0  0  0  0 
 21 22  1  0  0  0  0 
  5 23  1  0  0  0  0 
  5 24  1  0  0  0  0 
  7 25  1  0  0  0  0 
  8 26  1  0  0  0  0 
  8 27  1  0  0  0  0 
 11 28  1  0  0  0  0 
 13 29  1  0  0  0  0 
 13 30  1  0  0  0  0 
 14 31  1  0  0  0  0 
 14 32  1  0  0  0  0 
 15 33  1  0  0  0  0 
 16 34  1  0  0  0  0 
 16 35  1  0  0  0  0 
 17 36  1  0  0  0  0 
 17 37  1  0  0  0  0 
 18 38  1  0  0  0  0 
 18 39  1  0  0  0  0 
 19 40  1  0  0  0  0 
 19 41  1  0  0  0  0 
 19 42  1  0  0  0  0 
 20 43  1  0  0  0  0 
 20 44  1  0  0  0  0 
 20 45  1  0  0  0  0 
 21 46  1  0  0  0  0 
 21 47  1  0  0  0  0 
 22 48  1  0  0  0  0 
 22 49  1  0  0  0  0 
 22 50  1  0  0  0  0 
M  END
> <cdk:Title>
metabutoxycaine

> <Conformer>
1

> <SuperDrugID>
SD003220

$$$$
