dextropropoxyphene
  CDK     0628171802

 54 55  0  0  0  0  0  0  0  0999 V2000
    0.6325   -0.8732    2.6673 C   0  0  1  0  0  0  0  0  0  0  0  0
    2.0654   -1.0857    3.3316 C   0  0  1  0  0  0  0  0  0  0  0  0
   -0.4939   -0.3026    3.6048 C   0  0  1  0  0  0  0  0  0  0  0  0
    0.6556   -0.0707    1.3294 C   0  0  0  0  0  0  0  0  0  0  0  0
   -1.8880   -0.6509    3.1570 N   0  0  2  0  0  0  0  0  0  0  0  0
   -2.9083    0.3201    3.6541 C   0  0  0  0  0  0  0  0  0  0  0  0
   -2.2934   -2.0612    3.4639 C   0  0  0  0  0  0  0  0  0  0  0  0
    2.7819    0.2501    3.4954 C   0  0  0  0  0  0  0  0  0  0  0  0
    1.8400   -1.6408    4.6553 O   0  0  0  0  0  0  0  0  0  0  0  0
    2.7014   -1.8621    5.7004 C   0  0  0  0  0  0  0  0  0  0  0  0
    2.1457   -2.3159    6.9914 C   0  0  1  0  0  0  0  0  0  0  0  0
    3.9276   -1.6303    5.5863 O   0  0  0  0  0  0  0  0  0  0  0  0
    2.9354   -3.4592    7.6648 C   0  0  0  0  0  0  0  0  0  0  0  0
    2.8921   -2.1732    2.5234 C   0  0  2  0  0  0  0  0  0  0  0  0
    3.8503    0.6773    2.6585 C   0  0  0  0  0  0  0  0  0  0  0  0
    4.4961    1.9131    2.8510 C   0  0  0  0  0  0  0  0  0  0  0  0
    4.0921    2.7664    3.8878 C   0  0  0  0  0  0  0  0  0  0  0  0
    3.0387    2.3797    4.7293 C   0  0  0  0  0  0  0  0  0  0  0  0
    2.3942    1.1455    4.5300 C   0  0  0  0  0  0  0  0  0  0  0  0
    2.2752   -3.5333    2.3845 C   0  0  0  0  0  0  0  0  0  0  0  0
    2.2748   -4.4575    3.4571 C   0  0  0  0  0  0  0  0  0  0  0  0
    1.6592   -5.7179    3.3323 C   0  0  0  0  0  0  0  0  0  0  0  0
    1.0486   -6.0866    2.1217 C   0  0  0  0  0  0  0  0  0  0  0  0
    1.0584   -5.1955    1.0357 C   0  0  0  0  0  0  0  0  0  0  0  0
    1.6714   -3.9356    1.1645 C   0  0  0  0  0  0  0  0  0  0  0  0
    0.2844   -1.8594    2.3821 H   0  0  0  0  0  0  0  0  0  0  0  0
   -0.3754   -0.6599    4.6302 H   0  0  0  0  0  0  0  0  0  0  0  0
   -0.3683    0.7851    3.6463 H   0  0  0  0  0  0  0  0  0  0  0  0
    1.3727   -0.4969    0.6291 H   0  0  0  0  0  0  0  0  0  0  0  0
    0.9230    0.9725    1.5054 H   0  0  0  0  0  0  0  0  0  0  0  0
   -0.3259   -0.0960    0.8506 H   0  0  0  0  0  0  0  0  0  0  0  0
   -2.6716    1.3269    3.3056 H   0  0  0  0  0  0  0  0  0  0  0  0
   -3.9028    0.0740    3.2731 H   0  0  0  0  0  0  0  0  0  0  0  0
   -2.9435    0.3279    4.7472 H   0  0  0  0  0  0  0  0  0  0  0  0
   -1.6073   -2.7866    3.0297 H   0  0  0  0  0  0  0  0  0  0  0  0
   -3.2760   -2.2777    3.0416 H   0  0  0  0  0  0  0  0  0  0  0  0
   -2.3299   -2.2367    4.5420 H   0  0  0  0  0  0  0  0  0  0  0  0
    2.1283   -1.4611    7.6704 H   0  0  0  0  0  0  0  0  0  0  0  0
    1.1140   -2.6469    6.8464 H   0  0  0  0  0  0  0  0  0  0  0  0
    2.4078   -3.7917    8.5627 H   0  0  0  0  0  0  0  0  0  0  0  0
    3.0459   -4.3063    6.9868 H   0  0  0  0  0  0  0  0  0  0  0  0
    3.9286   -3.1119    7.9576 H   0  0  0  0  0  0  0  0  0  0  0  0
    3.8766   -2.2963    2.9794 H   0  0  0  0  0  0  0  0  0  0  0  0
    3.0826   -1.8007    1.5166 H   0  0  0  0  0  0  0  0  0  0  0  0
    4.1847    0.1022    1.8885 H   0  0  0  0  0  0  0  0  0  0  0  0
    5.2638    2.1919    2.2368 H   0  0  0  0  0  0  0  0  0  0  0  0
    4.5609    3.6649    4.0309 H   0  0  0  0  0  0  0  0  0  0  0  0
    2.7437    2.9934    5.4918 H   0  0  0  0  0  0  0  0  0  0  0  0
    1.6363    0.9026    5.1704 H   0  0  0  0  0  0  0  0  0  0  0  0
    2.7303   -4.2272    4.3391 H   0  0  0  0  0  0  0  0  0  0  0  0
    1.6563   -6.3668    4.1221 H   0  0  0  0  0  0  0  0  0  0  0  0
    0.6006   -7.0015    2.0299 H   0  0  0  0  0  0  0  0  0  0  0  0
    0.6166   -5.4622    0.1531 H   0  0  0  0  0  0  0  0  0  0  0  0
    1.6639   -3.3089    0.3564 H   0  0  0  0  0  0  0  0  0  0  0  0
  1  2  1  0  0  0  0 
  1  3  1  0  0  0  0 
  1  4  1  0  0  0  0 
  3  5  1  0  0  0  0 
  5  6  1  0  0  0  0 
  5  7  1  0  0  0  0 
  2  8  1  0  0  0  0 
  2  9  1  0  0  0  0 
  9 10  1  0  0  0  0 
 10 11  1  0  0  0  0 
 10 12  2  0  0  0  0 
 11 13  1  0  0  0  0 
  2 14  1  0  0  0  0 
 15 16  1  0  0  0  0 
 16 17  2  0  0  0  0 
 17 18  1  0  0  0  0 
 18 19  2  0  0  0  0 
  8 15  2  0  0  0  0 
  8 19  1  0  0  0  0 
 14 20  1  0  0  0  0 
 21 22  1  0  0  0  0 
 22 23  2  0  0  0  0 
 23 24  1  0  0  0  0 
 24 25  2  0  0  0  0 
 20 21  2  0  0  0  0 
 20 25  1  0  0  0  0 
  1 26  1  0  0  0  0 
  3 27  1  0  0  0  0 
  3 28  1  0  0  0  0 
  4 29  1  0  0  0  0 
  4 30  1  0  0  0  0 
  4 31  1  0  0  0  0 
  6 32  1  0  0  0  0 
  6 33  1  0  0  0  0 
  6 34  1  0  0  0  0 
  7 35  1  0  0  0  0 
  7 36  1  0  0  0  0 
  7 37  1  0  0  0  0 
 11 38  1  0  0  0  0 
 11 39  1  0  0  0  0 
 13 40  1  0  0  0  0 
 13 41  1  0  0  0  0 
 13 42  1  0  0  0  0 
 14 43  1  0  0  0  0 
 14 44  1  0  0  0  0 
 15 45  1  0  0  0  0 
 16 46  1  0  0  0  0 
 17 47  1  0  0  0  0 
 18 48  1  0  0  0  0 
 19 49  1  0  0  0  0 
 21 50  1  0  0  0  0 
 22 51  1  0  0  0  0 
 23 52  1  0  0  0  0 
 24 53  1  0  0  0  0 
 25 54  1  0  0  0  0 
M  END
> <cdk:Title>
dextropropoxyphene

> <Conformer>
1

> <SuperDrugID>
SD000748

$$$$
