butethamine
  CDK     0628171801

 37 37  0  0  0  0  0  0  0  0999 V2000
   -0.3589    0.5644   -0.3667 C   0  0  0  0  0  0  0  0  0  0  0  0
    0.0307   -0.7421   -0.2115 O   0  0  0  0  0  0  0  0  0  0  0  0
   -1.5843    0.8108   -0.4814 O   0  0  0  0  0  0  0  0  0  0  0  0
    0.5937    1.6234   -0.3860 C   0  0  0  0  0  0  0  0  0  0  0  0
   -0.8417   -1.8757   -0.0687 C   0  0  1  0  0  0  0  0  0  0  0  0
    1.9785    1.3687   -0.2252 C   0  0  0  0  0  0  0  0  0  0  0  0
    0.1841    2.9736   -0.5338 C   0  0  0  0  0  0  0  0  0  0  0  0
   -0.0260   -3.1797    0.0280 C   0  0  1  0  0  0  0  0  0  0  0  0
    2.9087    2.4231   -0.1501 C   0  0  0  0  0  0  0  0  0  0  0  0
    1.1094    4.0310   -0.4594 C   0  0  0  0  0  0  0  0  0  0  0  0
   -0.9231   -4.2832    0.4387 N   0  0  2  0  0  0  0  0  0  0  0  0
    2.4737    3.7578   -0.2484 C   0  0  0  0  0  0  0  0  0  0  0  0
   -0.2865   -5.6154    0.5677 C   0  0  1  0  0  0  0  0  0  0  0  0
    3.3603    4.7650   -0.1442 N   0  0  0  0  0  0  0  0  0  0  0  0
   -1.2908   -6.6618    1.1402 C   0  0  2  0  0  0  0  0  0  0  0  0
   -1.7673   -6.2659    2.5651 C   0  0  0  0  0  0  0  0  0  0  0  0
   -0.6867   -8.0938    1.1467 C   0  0  0  0  0  0  0  0  0  0  0  0
   -1.4266   -1.7399    0.8460 H   0  0  0  0  0  0  0  0  0  0  0  0
   -1.5255   -1.9455   -0.9207 H   0  0  0  0  0  0  0  0  0  0  0  0
    2.3304    0.4118   -0.1544 H   0  0  0  0  0  0  0  0  0  0  0  0
   -0.7988    3.2067   -0.6922 H   0  0  0  0  0  0  0  0  0  0  0  0
    0.4151   -3.3893   -0.9496 H   0  0  0  0  0  0  0  0  0  0  0  0
    0.7745   -3.0534    0.7631 H   0  0  0  0  0  0  0  0  0  0  0  0
    3.9035    2.2140   -0.0248 H   0  0  0  0  0  0  0  0  0  0  0  0
    0.7811    4.9959   -0.5608 H   0  0  0  0  0  0  0  0  0  0  0  0
   -1.6601   -4.3599   -0.2669 H   0  0  0  0  0  0  0  0  0  0  0  0
    0.0604   -5.9367   -0.4178 H   0  0  0  0  0  0  0  0  0  0  0  0
    0.5785   -5.5480    1.2344 H   0  0  0  0  0  0  0  0  0  0  0  0
    3.0632    5.6862   -0.2054 H   0  0  0  0  0  0  0  0  0  0  0  0
    4.2988    4.5707    0.0034 H   0  0  0  0  0  0  0  0  0  0  0  0
   -2.1698   -6.6833    0.4879 H   0  0  0  0  0  0  0  0  0  0  0  0
   -2.2640   -5.2949    2.5454 H   0  0  0  0  0  0  0  0  0  0  0  0
   -2.4781   -6.9992    2.9474 H   0  0  0  0  0  0  0  0  0  0  0  0
   -0.9181   -6.2105    3.2500 H   0  0  0  0  0  0  0  0  0  0  0  0
   -0.3909   -8.3881    0.1392 H   0  0  0  0  0  0  0  0  0  0  0  0
   -1.4238   -8.8144    1.5050 H   0  0  0  0  0  0  0  0  0  0  0  0
    0.1898   -8.1414    1.7965 H   0  0  0  0  0  0  0  0  0  0  0  0
  1  2  1  0  0  0  0 
  1  3  2  0  0  0  0 
  1  4  1  0  0  0  0 
  2  5  1  0  0  0  0 
  4  6  2  0  0  0  0 
  4  7  1  0  0  0  0 
  5  8  1  0  0  0  0 
  6  9  1  0  0  0  0 
  7 10  2  0  0  0  0 
  8 11  1  0  0  0  0 
  9 12  2  0  0  0  0 
 10 12  1  0  0  0  0 
 11 13  1  0  0  0  0 
 12 14  1  0  0  0  0 
 13 15  1  0  0  0  0 
 15 16  1  0  0  0  0 
 15 17  1  0  0  0  0 
  5 18  1  0  0  0  0 
  5 19  1  0  0  0  0 
  6 20  1  0  0  0  0 
  7 21  1  0  0  0  0 
  8 22  1  0  0  0  0 
  8 23  1  0  0  0  0 
  9 24  1  0  0  0  0 
 10 25  1  0  0  0  0 
 11 26  1  0  0  0  0 
 13 27  1  0  0  0  0 
 13 28  1  0  0  0  0 
 14 29  1  0  0  0  0 
 14 30  1  0  0  0  0 
 15 31  1  0  0  0  0 
 16 32  1  0  0  0  0 
 16 33  1  0  0  0  0 
 16 34  1  0  0  0  0 
 17 35  1  0  0  0  0 
 17 36  1  0  0  0  0 
 17 37  1  0  0  0  0 
M  END
> <cdk:Title>
butethamine

> <Conformer>
1

> <SuperDrugID>
SD002652

$$$$
