diazolidinylurea
  CDK     0628171802

 33 33  0  0  0  0  0  0  0  0999 V2000
    0.1388    0.7250   -1.4720 N   0  0  0  0  0  0  0  0  0  0  0  0
    1.0085    1.8008   -1.5307 C   0  0  0  0  0  0  0  0  0  0  0  0
   -0.3814    0.2223   -0.2233 C   0  0  1  0  0  0  0  0  0  0  0  0
   -0.2453    0.1175   -2.6370 C   0  0  0  0  0  0  0  0  0  0  0  0
    1.3528    2.4893   -0.4031 N   0  0  0  0  0  0  0  0  0  0  0  0
    1.4945    2.1660   -2.6309 O   0  0  0  0  0  0  0  0  0  0  0  0
    0.6862   -0.2406    0.5997 O   0  0  0  0  0  0  0  0  0  0  0  0
   -1.1837    0.5589   -3.5016 N   0  0  0  0  0  0  0  0  0  0  0  0
    0.3212   -1.0328   -3.1811 C   0  0  0  0  0  0  0  0  0  0  0  0
    2.2789    3.5670   -0.3140 C   0  0  2  0  0  0  0  0  0  0  0  0
   -2.0127    1.7171   -3.3278 C   0  0  1  0  0  0  0  0  0  0  0  0
   -1.1861   -0.2865   -4.5548 C   0  0  0  0  0  0  0  0  0  0  0  0
    1.3011   -1.7855   -2.6186 O   0  0  0  0  0  0  0  0  0  0  0  0
   -0.2633   -1.2558   -4.3728 N   0  0  0  0  0  0  0  0  0  0  0  0
    1.5642    4.7926   -0.2296 O   0  0  0  0  0  0  0  0  0  0  0  0
   -2.8903    1.5118   -2.2272 O   0  0  0  0  0  0  0  0  0  0  0  0
   -1.9269   -0.1843   -5.5618 O   0  0  0  0  0  0  0  0  0  0  0  0
    0.0609   -2.3180   -5.2792 C   0  0  2  0  0  0  0  0  0  0  0  0
    1.3637   -2.1107   -5.8139 O   0  0  0  0  0  0  0  0  0  0  0  0
   -0.9138    1.0197    0.3008 H   0  0  0  0  0  0  0  0  0  0  0  0
   -1.0828   -0.6073   -0.3603 H   0  0  0  0  0  0  0  0  0  0  0  0
    0.9304    2.2193    0.4253 H   0  0  0  0  0  0  0  0  0  0  0  0
    0.2790   -0.4245    1.4721 H   0  0  0  0  0  0  0  0  0  0  0  0
    2.9649    3.6019   -1.1624 H   0  0  0  0  0  0  0  0  0  0  0  0
    2.8664    3.4380    0.5954 H   0  0  0  0  0  0  0  0  0  0  0  0
   -1.3983    2.5996   -3.1362 H   0  0  0  0  0  0  0  0  0  0  0  0
   -2.6174    1.9178   -4.2153 H   0  0  0  0  0  0  0  0  0  0  0  0
    1.4324   -1.4160   -1.7210 H   0  0  0  0  0  0  0  0  0  0  0  0
    2.2591    5.4785   -0.1414 H   0  0  0  0  0  0  0  0  0  0  0  0
   -3.4165    2.3360   -2.1685 H   0  0  0  0  0  0  0  0  0  0  0  0
   -0.6422   -2.3640   -6.1138 H   0  0  0  0  0  0  0  0  0  0  0  0
    0.0329   -3.2792   -4.7617 H   0  0  0  0  0  0  0  0  0  0  0  0
    1.4997   -2.8473   -6.4461 H   0  0  0  0  0  0  0  0  0  0  0  0
  1  2  1  0  0  0  0 
  1  3  1  0  0  0  0 
  1  4  1  0  0  0  0 
  2  5  1  0  0  0  0 
  2  6  2  0  0  0  0 
  3  7  1  0  0  0  0 
  4  8  1  0  0  0  0 
  4  9  2  0  0  0  0 
  5 10  1  0  0  0  0 
  8 11  1  0  0  0  0 
  8 12  1  0  0  0  0 
  9 13  1  0  0  0  0 
  9 14  1  0  0  0  0 
 10 15  1  0  0  0  0 
 11 16  1  0  0  0  0 
 12 14  1  0  0  0  0 
 12 17  2  0  0  0  0 
 14 18  1  0  0  0  0 
 18 19  1  0  0  0  0 
 20  3  1  0  0  0  0 
 21  3  1  0  0  0  0 
 22  5  1  0  0  0  0 
 23  7  1  0  0  0  0 
 24 10  1  0  0  0  0 
 25 10  1  0  0  0  0 
 26 11  1  0  0  0  0 
 27 11  1  0  0  0  0 
 28 13  1  0  0  0  0 
 29 15  1  0  0  0  0 
 30 16  1  0  0  0  0 
 31 18  1  0  0  0  0 
 32 18  1  0  0  0  0 
 33 19  1  0  0  0  0 
M  END
> <cdk:Title>
diazolidinylurea

> <Conformer>
1

> <SuperDrugID>
SD003686

$$$$
