orotic acid
  CDK     0628171801

 15 15  0  0  0  0  0  0  0  0999 V2000
    1.6290   -0.7880   -0.4588 O   0  0  0  0  0  0  0  0  0  0  0  0
    1.7772    0.5093   -0.0956 C   0  0  0  0  0  0  0  0  0  0  0  0
    2.9486    0.9343    0.0323 O   0  0  0  0  0  0  0  0  0  0  0  0
    0.6659    1.3538    0.1336 C   0  0  0  0  0  0  0  0  0  0  0  0
   -0.6674    0.8974    0.0155 C   0  0  0  0  0  0  0  0  0  0  0  0
   -1.7124    1.8061    0.2680 C   0  0  0  0  0  0  0  0  0  0  0  0
   -2.9080    1.4478    0.1818 O   0  0  0  0  0  0  0  0  0  0  0  0
   -1.4266    3.0868    0.6141 N   0  0  0  0  0  0  0  0  0  0  0  0
   -0.1442    3.5136    0.7239 C   0  0  0  0  0  0  0  0  0  0  0  0
    0.0968    4.6972    1.0453 O   0  0  0  0  0  0  0  0  0  0  0  0
    0.8794    2.6544    0.4838 N   0  0  0  0  0  0  0  0  0  0  0  0
    2.4176   -1.3532   -0.6008 H   0  0  0  0  0  0  0  0  0  0  0  0
   -0.8813   -0.0685   -0.2474 H   0  0  0  0  0  0  0  0  0  0  0  0
   -2.1526    3.7076    0.7881 H   0  0  0  0  0  0  0  0  0  0  0  0
    1.7902    2.9791    0.5678 H   0  0  0  0  0  0  0  0  0  0  0  0
  1  2  1  0  0  0  0 
  2  3  2  0  0  0  0 
  2  4  1  0  0  0  0 
  4  5  2  0  0  0  0 
  5  6  1  0  0  0  0 
  6  7  2  0  0  0  0 
  6  8  1  0  0  0  0 
  8  9  1  0  0  0  0 
  9 10  2  0  0  0  0 
  9 11  1  0  0  0  0 
  4 11  1  0  0  0  0 
 12  1  1  0  0  0  0 
 13  5  1  0  0  0  0 
 14  8  1  0  0  0  0 
 15 11  1  0  0  0  0 
M  END
> <cdk:Title>
orotic acid

> <Conformer>
1

> <SuperDrugID>
SD002928

$$$$
