zolimidine
  CDK     0628171801

 31 33  0  0  0  0  0  0  0  0999 V2000
   -1.8080   -3.2532   -5.8308 C   0  0  0  0  0  0  0  0  0  0  0  0
   -3.4436   -2.4717   -5.5708 S   0  0  2  0  0  0  0  0  0  0  0  0
   -3.2927   -0.8874   -5.7779 O   0  0  0  0  0  0  0  0  0  0  0  0
   -3.9118   -2.7451   -4.0595 O   0  0  0  0  0  0  0  0  0  0  0  0
   -4.6182   -3.1201   -6.7293 C   0  0  0  0  0  0  0  0  0  0  0  0
   -5.6728   -3.9440   -6.2931 C   0  0  0  0  0  0  0  0  0  0  0  0
   -6.6014   -4.4548   -7.2165 C   0  0  0  0  0  0  0  0  0  0  0  0
   -6.5098   -4.1558   -8.5995 C   0  0  0  0  0  0  0  0  0  0  0  0
   -5.4336   -3.3338   -9.0233 C   0  0  0  0  0  0  0  0  0  0  0  0
   -4.5001   -2.8215   -8.1011 C   0  0  0  0  0  0  0  0  0  0  0  0
   -7.4874   -4.6703   -9.5047 C   0  0  0  0  0  0  0  0  0  0  0  0
   -7.5963   -4.4722  -10.8873 C   0  0  0  0  0  0  0  0  0  0  0  0
   -8.6835   -5.1317  -11.3177 N   0  0  0  0  0  0  0  0  0  0  0  0
   -9.2070   -5.2288  -12.5711 C   0  0  0  0  0  0  0  0  0  0  0  0
  -10.3821   -5.9872  -12.7570 C   0  0  0  0  0  0  0  0  0  0  0  0
  -10.9795   -6.6217  -11.6471 C   0  0  0  0  0  0  0  0  0  0  0  0
  -10.4070   -6.5010  -10.3639 C   0  0  0  0  0  0  0  0  0  0  0  0
   -9.2384   -5.7302  -10.2453 C   0  0  0  0  0  0  0  0  0  0  0  0
   -8.5222   -5.4599   -9.1442 N   0  0  0  0  0  0  0  0  0  0  0  0
   -1.1218   -2.9435   -5.0421 H   0  0  0  0  0  0  0  0  0  0  0  0
   -1.4089   -2.9474   -6.7976 H   0  0  0  0  0  0  0  0  0  0  0  0
   -1.9144   -4.3375   -5.8106 H   0  0  0  0  0  0  0  0  0  0  0  0
   -5.7742   -4.1804   -5.3028 H   0  0  0  0  0  0  0  0  0  0  0  0
   -7.3508   -5.0510   -6.8582 H   0  0  0  0  0  0  0  0  0  0  0  0
   -5.3114   -3.0927  -10.0094 H   0  0  0  0  0  0  0  0  0  0  0  0
   -3.7347   -2.2304   -8.4369 H   0  0  0  0  0  0  0  0  0  0  0  0
   -6.9696   -3.9217  -11.4773 H   0  0  0  0  0  0  0  0  0  0  0  0
   -8.7669   -4.7605  -13.3663 H   0  0  0  0  0  0  0  0  0  0  0  0
  -10.7993   -6.0725  -13.6860 H   0  0  0  0  0  0  0  0  0  0  0  0
  -11.8338   -7.1686  -11.7745 H   0  0  0  0  0  0  0  0  0  0  0  0
  -10.8274   -6.9534   -9.5502 H   0  0  0  0  0  0  0  0  0  0  0  0
  1  2  1  0  0  0  0 
  2  3  2  0  0  0  0 
  2  4  2  0  0  0  0 
  2  5  1  0  0  0  0 
  5  6  2  0  0  0  0 
  6  7  1  0  0  0  0 
  7  8  2  0  0  0  0 
  8  9  1  0  0  0  0 
  9 10  2  0  0  0  0 
  5 10  1  0  0  0  0 
  8 11  1  0  0  0  0 
 11 12  2  0  0  0  0 
 12 13  1  0  0  0  0 
 13 14  1  0  0  0  0 
 14 15  2  0  0  0  0 
 15 16  1  0  0  0  0 
 16 17  2  0  0  0  0 
 17 18  1  0  0  0  0 
 13 18  1  0  0  0  0 
 18 19  2  0  0  0  0 
 11 19  1  0  0  0  0 
  1 20  1  0  0  0  0 
  1 21  1  0  0  0  0 
  1 22  1  0  0  0  0 
  6 23  1  0  0  0  0 
  7 24  1  0  0  0  0 
  9 25  1  0  0  0  0 
 10 26  1  0  0  0  0 
 12 27  1  0  0  0  0 
 14 28  1  0  0  0  0 
 15 29  1  0  0  0  0 
 16 30  1  0  0  0  0 
 17 31  1  0  0  0  0 
M  END
> <cdk:Title>
zolimidine

> <Conformer>
1

> <SuperDrugID>
SD003133

$$$$
