dexamethasone acefurate
  CDK     0628171802

 71 75  0  0  0  0  0  0  0  0999 V2000
   -4.4523    6.5736    4.5031 O   0  0  0  0  0  0  0  0  0  0  0  0
   -4.9187    7.8606    4.5523 C   0  0  0  0  0  0  0  0  0  0  0  0
   -4.3475    5.5235    5.5014 C   0  0  1  0  0  0  0  0  0  0  0  0
   -5.5023    8.3192    5.5602 O   0  0  0  0  0  0  0  0  0  0  0  0
   -4.7345    8.6906    3.4399 C   0  0  0  0  0  0  0  0  0  0  0  0
   -5.5386    5.5410    6.4239 C   0  0  0  0  0  0  0  0  0  0  0  0
   -4.1469    4.1383    4.7547 C   0  0  2  0  0  0  0  0  0  0  0  0
   -2.9478    5.6984    6.2190 C   0  0  2  0  0  0  0  0  0  0  0  0
   -3.9362    8.4207    2.3297 C   0  0  0  0  0  0  0  0  0  0  0  0
   -5.2782    9.9254    3.3003 O   0  0  0  0  0  0  0  0  0  0  0  0
   -6.9396    5.4844    5.9466 C   0  0  2  0  0  0  0  0  0  0  0  0
   -5.3754    5.5671    7.6673 O   0  0  0  0  0  0  0  0  0  0  0  0
   -4.2796    2.9340    5.7781 C   0  0  0  0  0  0  0  0  0  0  0  0
   -2.7048    4.3327    4.1784 C   0  0  1  0  0  0  0  0  0  0  0  0
   -5.0807    3.8767    3.5175 C   0  0  2  0  0  0  0  0  0  0  0  0
   -2.5174    7.1561    6.5386 C   0  0  0  0  0  0  0  0  0  0  0  0
   -1.9027    4.9159    5.3630 C   0  0  2  0  0  0  0  0  0  0  0  0
   -4.0001    9.5319    1.5058 C   0  0  0  0  0  0  0  0  0  0  0  0
   -4.8393   10.4450    2.1301 C   0  0  0  0  0  0  0  0  0  0  0  0
   -7.7764    6.3171    6.7649 O   0  0  0  0  0  0  0  0  0  0  0  0
   -2.1497    3.0899    3.4036 C   0  0  1  0  0  0  0  0  0  0  0  0
   -4.6353    2.6711    2.6228 C   0  0  1  0  0  0  0  0  0  0  0  0
   -8.7835    5.9251    7.6010 C   0  0  0  0  0  0  0  0  0  0  0  0
   -3.1083    2.6913    2.2036 C   0  0  1  0  0  0  0  0  0  0  0  0
   -0.6968    3.3227    2.8749 C   0  0  1  0  0  0  0  0  0  0  0  0
   -5.0246    1.4534    3.2481 O   0  0  0  0  0  0  0  0  0  0  0  0
   -9.4711    6.9463    8.3996 C   0  0  0  0  0  0  0  0  0  0  0  0
   -9.1072    4.7194    7.7143 O   0  0  0  0  0  0  0  0  0  0  0  0
   -3.0604    3.7394    1.2910 F   0  0  0  0  0  0  0  0  0  0  0  0
   -2.5522    1.4061    1.4240 C   0  0  2  0  0  0  0  0  0  0  0  0
   -0.1726    2.1274    2.0353 C   0  0  2  0  0  0  0  0  0  0  0  0
   -2.5162    0.0702    2.2586 C   0  0  0  0  0  0  0  0  0  0  0  0
   -1.1388    1.7028    1.0094 C   0  0  0  0  0  0  0  0  0  0  0  0
   -3.4240    1.0851    0.2666 C   0  0  0  0  0  0  0  0  0  0  0  0
   -0.7542    1.6097   -0.2849 C   0  0  0  0  0  0  0  0  0  0  0  0
   -2.9753    1.0095   -0.9959 C   0  0  0  0  0  0  0  0  0  0  0  0
   -1.6483    1.2586   -1.2861 C   0  0  0  0  0  0  0  0  0  0  0  0
   -1.2553    1.1785   -2.4736 O   0  0  0  0  0  0  0  0  0  0  0  0
   -2.9786    5.2014    7.1950 H   0  0  0  0  0  0  0  0  0  0  0  0
   -3.3894    7.5739    2.1560 H   0  0  0  0  0  0  0  0  0  0  0  0
   -7.2704    4.4456    5.9586 H   0  0  0  0  0  0  0  0  0  0  0  0
   -7.0143    5.8428    4.9205 H   0  0  0  0  0  0  0  0  0  0  0  0
   -3.9496    1.9843    5.3689 H   0  0  0  0  0  0  0  0  0  0  0  0
   -3.6946    3.0865    6.6835 H   0  0  0  0  0  0  0  0  0  0  0  0
   -5.3191    2.8018    6.0821 H   0  0  0  0  0  0  0  0  0  0  0  0
   -2.7265    5.1352    3.4302 H   0  0  0  0  0  0  0  0  0  0  0  0
   -5.1114    4.7665    2.8830 H   0  0  0  0  0  0  0  0  0  0  0  0
   -6.1063    3.7059    3.8496 H   0  0  0  0  0  0  0  0  0  0  0  0
   -1.5883    7.1521    7.1112 H   0  0  0  0  0  0  0  0  0  0  0  0
   -3.2865    7.6530    7.1329 H   0  0  0  0  0  0  0  0  0  0  0  0
   -2.3486    7.7289    5.6272 H   0  0  0  0  0  0  0  0  0  0  0  0
   -1.4540    4.1058    5.9474 H   0  0  0  0  0  0  0  0  0  0  0  0
   -1.0960    5.5602    4.9999 H   0  0  0  0  0  0  0  0  0  0  0  0
   -3.5130    9.6584    0.6168 H   0  0  0  0  0  0  0  0  0  0  0  0
   -5.0786   11.3724    1.7756 H   0  0  0  0  0  0  0  0  0  0  0  0
   -2.0879    2.2677    4.1157 H   0  0  0  0  0  0  0  0  0  0  0  0
   -5.2505    2.7210    1.7188 H   0  0  0  0  0  0  0  0  0  0  0  0
   -0.6640    4.2282    2.2596 H   0  0  0  0  0  0  0  0  0  0  0  0
   -0.0158    3.4750    3.7168 H   0  0  0  0  0  0  0  0  0  0  0  0
   -5.9787    1.5629    3.4497 H   0  0  0  0  0  0  0  0  0  0  0  0
   -9.9025    7.7006    7.7411 H   0  0  0  0  0  0  0  0  0  0  0  0
   -8.7539    7.4249    9.0659 H   0  0  0  0  0  0  0  0  0  0  0  0
  -10.2664    6.5066    9.0039 H   0  0  0  0  0  0  0  0  0  0  0  0
    0.0347    1.2854    2.6982 H   0  0  0  0  0  0  0  0  0  0  0  0
    0.7907    2.4213    1.6047 H   0  0  0  0  0  0  0  0  0  0  0  0
   -2.0140    0.1906    3.2172 H   0  0  0  0  0  0  0  0  0  0  0  0
   -1.9816   -0.7116    1.7083 H   0  0  0  0  0  0  0  0  0  0  0  0
   -3.5133   -0.3217    2.4635 H   0  0  0  0  0  0  0  0  0  0  0  0
   -4.3861    0.8893    0.4231 H   0  0  0  0  0  0  0  0  0  0  0  0
    0.1885    1.7978   -0.5447 H   0  0  0  0  0  0  0  0  0  0  0  0
   -3.6075    0.7663   -1.7241 H   0  0  0  0  0  0  0  0  0  0  0  0
  1  2  1  0  0  0  0 
  2  4  2  0  0  0  0 
  2  5  1  0  0  0  0 
  3  1  1  0  0  0  0 
  3  6  1  0  0  0  0 
  7  3  1  0  0  0  0 
  3  8  1  0  0  0  0 
  5  9  2  0  0  0  0 
  5 10  1  0  0  0  0 
  6 11  1  0  0  0  0 
  6 12  2  0  0  0  0 
  7 13  1  0  0  0  0 
 14  7  1  0  0  0  0 
  7 15  1  0  0  0  0 
  8 16  1  0  0  0  0 
  8 17  1  0  0  0  0 
  9 18  1  0  0  0  0 
 10 19  1  0  0  0  0 
 11 20  1  0  0  0  0 
 14 17  1  0  0  0  0 
 21 14  1  0  0  0  0 
 22 15  1  0  0  0  0 
 18 19  2  0  0  0  0 
 20 23  1  0  0  0  0 
 24 21  1  0  0  0  0 
 21 25  1  0  0  0  0 
 24 22  1  0  0  0  0 
 22 26  1  0  0  0  0 
 23 27  1  0  0  0  0 
 23 28  2  0  0  0  0 
 24 29  1  0  0  0  0 
 24 30  1  0  0  0  0 
 25 31  1  0  0  0  0 
 30 32  1  0  0  0  0 
 30 33  1  0  0  0  0 
 30 34  1  0  0  0  0 
 31 33  1  0  0  0  0 
 33 35  2  0  0  0  0 
 34 36  2  0  0  0  0 
 35 37  1  0  0  0  0 
 36 37  1  0  0  0  0 
 37 38  2  0  0  0  0 
  8 39  1  0  0  0  0 
 40  9  1  0  0  0  0 
 41 11  1  0  0  0  0 
 42 11  1  0  0  0  0 
 43 13  1  0  0  0  0 
 44 13  1  0  0  0  0 
 45 13  1  0  0  0  0 
 14 46  1  0  0  0  0 
 47 15  1  0  0  0  0 
 48 15  1  0  0  0  0 
 49 16  1  0  0  0  0 
 50 16  1  0  0  0  0 
 51 16  1  0  0  0  0 
 52 17  1  0  0  0  0 
 53 17  1  0  0  0  0 
 54 18  1  0  0  0  0 
 55 19  1  0  0  0  0 
 21 56  1  0  0  0  0 
 22 57  1  0  0  0  0 
 58 25  1  0  0  0  0 
 59 25  1  0  0  0  0 
 60 26  1  0  0  0  0 
 61 27  1  0  0  0  0 
 62 27  1  0  0  0  0 
 63 27  1  0  0  0  0 
 64 31  1  0  0  0  0 
 65 31  1  0  0  0  0 
 66 32  1  0  0  0  0 
 67 32  1  0  0  0  0 
 68 32  1  0  0  0  0 
 69 34  1  0  0  0  0 
 70 35  1  0  0  0  0 
 71 36  1  0  0  0  0 
M  END
> <cdk:Title>
dexamethasone acefurate

> <Conformer>
1

> <SuperDrugID>
SD000729

$$$$
