methdilazine
  CDK     0628171801

 41 44  0  0  0  0  0  0  0  0999 V2000
   -1.1609    4.0345   -3.7488 C   0  0  0  0  0  0  0  0  0  0  0  0
   -1.5579    2.6456   -4.1163 N   0  0  1  0  0  0  0  0  0  0  0  0
   -0.6603    2.0025   -5.1184 C   0  0  1  0  0  0  0  0  0  0  0  0
   -0.2376    0.6365   -4.5441 C   0  0  1  0  0  0  0  0  0  0  0  0
   -0.4185    0.8138   -3.0250 C   0  0  2  0  0  0  0  0  0  0  0  0
   -0.4866   -0.5324   -2.2363 C   0  0  1  0  0  0  0  0  0  0  0  0
   -0.7852   -0.4069   -0.8167 N   0  0  0  0  0  0  0  0  0  0  0  0
   -0.1454    0.5307   -0.0180 C   0  0  0  0  0  0  0  0  0  0  0  0
    1.2582    0.7122   -0.0562 C   0  0  0  0  0  0  0  0  0  0  0  0
    1.8815    1.6756    0.7585 C   0  0  0  0  0  0  0  0  0  0  0  0
    1.1109    2.4765    1.6198 C   0  0  0  0  0  0  0  0  0  0  0  0
   -0.2827    2.3092    1.6770 C   0  0  0  0  0  0  0  0  0  0  0  0
   -0.9021    1.3361    0.8721 C   0  0  0  0  0  0  0  0  0  0  0  0
   -2.6387    1.0526    0.9951 S   0  0  0  0  0  0  0  0  0  0  0  0
   -2.7417   -0.6647    0.6092 C   0  0  0  0  0  0  0  0  0  0  0  0
   -1.7451   -1.2204   -0.2323 C   0  0  0  0  0  0  0  0  0  0  0  0
   -1.7362   -2.6232   -0.4236 C   0  0  0  0  0  0  0  0  0  0  0  0
   -2.7136   -3.4380    0.1755 C   0  0  0  0  0  0  0  0  0  0  0  0
   -3.7321   -2.8611    0.9551 C   0  0  0  0  0  0  0  0  0  0  0  0
   -3.7467   -1.4717    1.1754 C   0  0  0  0  0  0  0  0  0  0  0  0
   -1.6771    1.7068   -2.9683 C   0  0  1  0  0  0  0  0  0  0  0  0
   -1.8947    4.4713   -3.0714 H   0  0  0  0  0  0  0  0  0  0  0  0
   -1.1184    4.6617   -4.6403 H   0  0  0  0  0  0  0  0  0  0  0  0
   -0.1815    4.0496   -3.2644 H   0  0  0  0  0  0  0  0  0  0  0  0
   -1.1998    1.8734   -6.0599 H   0  0  0  0  0  0  0  0  0  0  0  0
    0.2386    2.5946   -5.3211 H   0  0  0  0  0  0  0  0  0  0  0  0
   -0.8993   -0.1461   -4.9301 H   0  0  0  0  0  0  0  0  0  0  0  0
    0.7982    0.3918   -4.7966 H   0  0  0  0  0  0  0  0  0  0  0  0
    0.4307    1.3971   -2.6547 H   0  0  0  0  0  0  0  0  0  0  0  0
   -1.2354   -1.1613   -2.7317 H   0  0  0  0  0  0  0  0  0  0  0  0
    0.4738   -1.0438   -2.3449 H   0  0  0  0  0  0  0  0  0  0  0  0
    1.8396    0.1389   -0.6711 H   0  0  0  0  0  0  0  0  0  0  0  0
    2.8971    1.7914    0.7250 H   0  0  0  0  0  0  0  0  0  0  0  0
    1.5648    3.1756    2.2115 H   0  0  0  0  0  0  0  0  0  0  0  0
   -0.8368    2.8841    2.3148 H   0  0  0  0  0  0  0  0  0  0  0  0
   -1.0078   -3.0642   -0.9901 H   0  0  0  0  0  0  0  0  0  0  0  0
   -2.6799   -4.4511    0.0467 H   0  0  0  0  0  0  0  0  0  0  0  0
   -4.4540   -3.4533    1.3709 H   0  0  0  0  0  0  0  0  0  0  0  0
   -4.4767   -1.0566    1.7602 H   0  0  0  0  0  0  0  0  0  0  0  0
   -1.7639    2.2157   -2.0046 H   0  0  0  0  0  0  0  0  0  0  0  0
   -2.5803    1.1055   -3.1091 H   0  0  0  0  0  0  0  0  0  0  0  0
  1  2  1  0  0  0  0 
  2  3  1  0  0  0  0 
  3  4  1  0  0  0  0 
  5  4  1  0  0  0  0 
  5  6  1  0  0  0  0 
  6  7  1  0  0  0  0 
  7  8  1  0  0  0  0 
  8  9  2  0  0  0  0 
  9 10  1  0  0  0  0 
 10 11  2  0  0  0  0 
 11 12  1  0  0  0  0 
 12 13  2  0  0  0  0 
  8 13  1  0  0  0  0 
 13 14  1  0  0  0  0 
 14 15  1  0  0  0  0 
 15 16  2  0  0  0  0 
  7 16  1  0  0  0  0 
 16 17  1  0  0  0  0 
 17 18  2  0  0  0  0 
 18 19  1  0  0  0  0 
 19 20  2  0  0  0  0 
 15 20  1  0  0  0  0 
  5 21  1  0  0  0  0 
  2 21  1  0  0  0  0 
  1 22  1  0  0  0  0 
  1 23  1  0  0  0  0 
  1 24  1  0  0  0  0 
  3 25  1  0  0  0  0 
  3 26  1  0  0  0  0 
  4 27  1  0  0  0  0 
  4 28  1  0  0  0  0 
  5 29  1  0  0  0  0 
  6 30  1  0  0  0  0 
  6 31  1  0  0  0  0 
  9 32  1  0  0  0  0 
 10 33  1  0  0  0  0 
 11 34  1  0  0  0  0 
 12 35  1  0  0  0  0 
 17 36  1  0  0  0  0 
 18 37  1  0  0  0  0 
 19 38  1  0  0  0  0 
 20 39  1  0  0  0  0 
 21 40  1  0  0  0  0 
 21 41  1  0  0  0  0 
M  END
> <cdk:Title>
methdilazine

> <Conformer>
1

> <SuperDrugID>
SD001542

$$$$
