indinavir
  CDK     0628171801

 92 96  0  0  0  0  0  0  0  0999 V2000
   -0.9561    6.3579   -1.2794 N   0  0  0  0  0  0  0  0  0  0  0  0
   -0.1666    5.2520   -1.4155 C   0  0  0  0  0  0  0  0  0  0  0  0
   -1.5897    6.9768   -0.1411 C   0  0  1  0  0  0  0  0  0  0  0  0
    0.4621    4.3590   -0.3530 C   0  0  2  0  0  0  0  0  0  0  0  0
    0.0930    4.9534   -2.6026 O   0  0  0  0  0  0  0  0  0  0  0  0
   -0.7121    7.5947    0.8772 C   0  0  0  0  0  0  0  0  0  0  0  0
   -2.3147    8.2645   -0.6415 C   0  0  2  0  0  0  0  0  0  0  0  0
    2.1003    4.1132   -0.4972 C   0  0  1  0  0  0  0  0  0  0  0  0
   -0.3602    2.9909   -0.2835 C   0  0  2  0  0  0  0  0  0  0  0  0
   -0.4678    8.9426    0.5896 C   0  0  0  0  0  0  0  0  0  0  0  0
   -0.2529    7.0482    2.0939 C   0  0  0  0  0  0  0  0  0  0  0  0
   -2.9157    8.1485   -1.9329 O   0  0  0  0  0  0  0  0  0  0  0  0
   -1.2339    9.3762   -0.5817 C   0  0  2  0  0  0  0  0  0  0  0  0
    2.9068    5.3292   -0.7940 C   0  0  0  0  0  0  0  0  0  0  0  0
   -1.8972    3.0949   -0.0479 C   0  0  1  0  0  0  0  0  0  0  0  0
    0.3399    9.7341    1.4302 C   0  0  0  0  0  0  0  0  0  0  0  0
    0.5449    7.8325    2.9521 C   0  0  0  0  0  0  0  0  0  0  0  0
    3.6872    5.4210   -1.9740 C   0  0  0  0  0  0  0  0  0  0  0  0
    2.9467    6.4066    0.1211 C   0  0  0  0  0  0  0  0  0  0  0  0
   -2.5909    1.7299    0.2262 C   0  0  2  0  0  0  0  0  0  0  0  0
   -2.1502    3.9188    1.0895 O   0  0  0  0  0  0  0  0  0  0  0  0
    0.8565    9.1632    2.6098 C   0  0  0  0  0  0  0  0  0  0  0  0
    4.4960    6.5478   -2.2205 C   0  0  0  0  0  0  0  0  0  0  0  0
    3.7481    7.5384   -0.1279 C   0  0  0  0  0  0  0  0  0  0  0  0
   -2.2086    0.5782   -0.6647 N   0  0  1  0  0  0  0  0  0  0  0  0
    4.5294    7.6055   -1.2954 C   0  0  0  0  0  0  0  0  0  0  0  0
   -2.6602   -0.7694   -0.1509 C   0  0  2  0  0  0  0  0  0  0  0  0
   -2.6189    0.8037   -2.0897 C   0  0  2  0  0  0  0  0  0  0  0  0
   -2.1800   -1.0775    1.2248 C   0  0  0  0  0  0  0  0  0  0  0  0
   -2.2018   -1.9142   -1.1017 C   0  0  2  0  0  0  0  0  0  0  0  0
   -2.2484   -0.3710   -3.0277 C   0  0  1  0  0  0  0  0  0  0  0  0
   -0.8477   -0.9773    1.4925 N   0  0  0  0  0  0  0  0  0  0  0  0
   -3.0153   -1.3953    2.1041 O   0  0  0  0  0  0  0  0  0  0  0  0
   -2.7219   -1.6756   -2.4819 N   0  0  1  0  0  0  0  0  0  0  0  0
   -0.1551   -1.2208    2.7346 C   0  0  2  0  0  0  0  0  0  0  0  0
   -2.5160   -2.8207   -3.4242 C   0  0  2  0  0  0  0  0  0  0  0  0
    1.3595   -1.0087    2.4196 C   0  0  0  0  0  0  0  0  0  0  0  0
   -0.3772   -2.6887    3.2173 C   0  0  0  0  0  0  0  0  0  0  0  0
   -0.5981   -0.2035    3.8315 C   0  0  0  0  0  0  0  0  0  0  0  0
   -3.3900   -3.9744   -3.0881 C   0  0  0  0  0  0  0  0  0  0  0  0
   -2.8647   -5.2559   -2.8007 C   0  0  0  0  0  0  0  0  0  0  0  0
   -4.7943   -3.8134   -3.0467 C   0  0  0  0  0  0  0  0  0  0  0  0
   -3.7261   -6.3236   -2.4913 C   0  0  0  0  0  0  0  0  0  0  0  0
   -5.5989   -4.8616   -2.7393 N   0  0  0  0  0  0  0  0  0  0  0  0
   -5.1128   -6.0976   -2.4647 C   0  0  0  0  0  0  0  0  0  0  0  0
   -1.1609    6.7852   -2.1239 H   0  0  0  0  0  0  0  0  0  0  0  0
   -2.3245    6.3085    0.3074 H   0  0  0  0  0  0  0  0  0  0  0  0
    0.1967    4.8483    0.6091 H   0  0  0  0  0  0  0  0  0  0  0  0
   -3.1244    8.5137    0.0590 H   0  0  0  0  0  0  0  0  0  0  0  0
    2.4648    3.6772    0.4348 H   0  0  0  0  0  0  0  0  0  0  0  0
    2.2478    3.3610   -1.2767 H   0  0  0  0  0  0  0  0  0  0  0  0
    0.0752    2.3917    0.5223 H   0  0  0  0  0  0  0  0  0  0  0  0
   -0.1861    2.4398   -1.2103 H   0  0  0  0  0  0  0  0  0  0  0  0
   -0.5110    6.0988    2.3669 H   0  0  0  0  0  0  0  0  0  0  0  0
   -3.3702    9.0050   -2.0777 H   0  0  0  0  0  0  0  0  0  0  0  0
   -1.6890   10.3589   -0.4329 H   0  0  0  0  0  0  0  0  0  0  0  0
   -0.6062    9.3800   -1.4782 H   0  0  0  0  0  0  0  0  0  0  0  0
   -2.3683    3.5721   -0.9114 H   0  0  0  0  0  0  0  0  0  0  0  0
    0.5256   10.7129    1.2100 H   0  0  0  0  0  0  0  0  0  0  0  0
    0.8933    7.4383    3.8280 H   0  0  0  0  0  0  0  0  0  0  0  0
    3.6824    4.6640   -2.6617 H   0  0  0  0  0  0  0  0  0  0  0  0
    2.4018    6.3698    0.9826 H   0  0  0  0  0  0  0  0  0  0  0  0
   -3.6750    1.8774    0.1929 H   0  0  0  0  0  0  0  0  0  0  0  0
   -2.3383    1.4835    1.2572 H   0  0  0  0  0  0  0  0  0  0  0  0
   -3.1278    3.9500    1.1721 H   0  0  0  0  0  0  0  0  0  0  0  0
    1.4404    9.7192    3.2367 H   0  0  0  0  0  0  0  0  0  0  0  0
    5.0642    6.5944   -3.0718 H   0  0  0  0  0  0  0  0  0  0  0  0
    3.7678    8.3099    0.5445 H   0  0  0  0  0  0  0  0  0  0  0  0
    5.1262    8.4199   -1.4706 H   0  0  0  0  0  0  0  0  0  0  0  0
   -3.7574   -0.7818   -0.1432 H   0  0  0  0  0  0  0  0  0  0  0  0
   -2.1245    1.6917   -2.4856 H   0  0  0  0  0  0  0  0  0  0  0  0
   -3.6979    0.9722   -2.1460 H   0  0  0  0  0  0  0  0  0  0  0  0
   -2.5943   -2.8612   -0.7172 H   0  0  0  0  0  0  0  0  0  0  0  0
   -1.1084   -1.9858   -1.1202 H   0  0  0  0  0  0  0  0  0  0  0  0
   -2.7247   -0.1837   -3.9937 H   0  0  0  0  0  0  0  0  0  0  0  0
   -1.1648   -0.3929   -3.1830 H   0  0  0  0  0  0  0  0  0  0  0  0
   -0.2979   -0.6980    0.7445 H   0  0  0  0  0  0  0  0  0  0  0  0
   -1.4591   -3.1043   -3.4385 H   0  0  0  0  0  0  0  0  0  0  0  0
   -2.7784   -2.5210   -4.4426 H   0  0  0  0  0  0  0  0  0  0  0  0
    1.9735   -1.1506    3.3116 H   0  0  0  0  0  0  0  0  0  0  0  0
    1.5377    0.0010    2.0405 H   0  0  0  0  0  0  0  0  0  0  0  0
    1.6959   -1.7185    1.6587 H   0  0  0  0  0  0  0  0  0  0  0  0
    0.2663   -2.9226    4.0695 H   0  0  0  0  0  0  0  0  0  0  0  0
   -1.4109   -2.8507    3.5288 H   0  0  0  0  0  0  0  0  0  0  0  0
   -0.1515   -3.3903    2.4113 H   0  0  0  0  0  0  0  0  0  0  0  0
   -0.0073   -0.3284    4.7426 H   0  0  0  0  0  0  0  0  0  0  0  0
   -1.6476   -0.3429    4.0908 H   0  0  0  0  0  0  0  0  0  0  0  0
   -0.4688    0.8217    3.4782 H   0  0  0  0  0  0  0  0  0  0  0  0
   -1.8558   -5.4227   -2.8200 H   0  0  0  0  0  0  0  0  0  0  0  0
   -5.2230   -2.9072   -3.2437 H   0  0  0  0  0  0  0  0  0  0  0  0
   -3.3513   -7.2511   -2.2889 H   0  0  0  0  0  0  0  0  0  0  0  0
   -5.7583   -6.8556   -2.2368 H   0  0  0  0  0  0  0  0  0  0  0  0
  1  2  1  0  0  0  0 
  4  2  1  0  0  0  0 
  2  5  2  0  0  0  0 
  3  1  1  0  0  0  0 
  3  6  1  0  0  0  0 
  7  3  1  0  0  0  0 
  4  8  1  0  0  0  0 
  4  9  1  0  0  0  0 
  6 10  2  0  0  0  0 
  6 11  1  0  0  0  0 
  7 12  1  0  0  0  0 
  7 13  1  0  0  0  0 
  8 14  1  0  0  0  0 
 15  9  1  0  0  0  0 
 10 13  1  0  0  0  0 
 10 16  1  0  0  0  0 
 11 17  2  0  0  0  0 
 14 18  2  0  0  0  0 
 14 19  1  0  0  0  0 
 15 20  1  0  0  0  0 
 15 21  1  0  0  0  0 
 16 22  2  0  0  0  0 
 17 22  1  0  0  0  0 
 18 23  1  0  0  0  0 
 19 24  2  0  0  0  0 
 20 25  1  0  0  0  0 
 23 26  2  0  0  0  0 
 24 26  1  0  0  0  0 
 27 25  1  0  0  0  0 
 25 28  1  0  0  0  0 
 27 29  1  0  0  0  0 
 27 30  1  0  0  0  0 
 28 31  1  0  0  0  0 
 29 32  1  0  0  0  0 
 29 33  2  0  0  0  0 
 30 34  1  0  0  0  0 
 31 34  1  0  0  0  0 
 32 35  1  0  0  0  0 
 34 36  1  0  0  0  0 
 35 37  1  0  0  0  0 
 35 38  1  0  0  0  0 
 35 39  1  0  0  0  0 
 36 40  1  0  0  0  0 
 40 41  2  0  0  0  0 
 40 42  1  0  0  0  0 
 41 43  1  0  0  0  0 
 42 44  2  0  0  0  0 
 43 45  2  0  0  0  0 
 44 45  1  0  0  0  0 
  1 46  1  0  0  0  0 
  3 47  1  0  0  0  0 
  4 48  1  0  0  0  0 
  7 49  1  0  0  0  0 
  8 50  1  0  0  0  0 
  8 51  1  0  0  0  0 
  9 52  1  0  0  0  0 
  9 53  1  0  0  0  0 
 11 54  1  0  0  0  0 
 12 55  1  0  0  0  0 
 13 56  1  0  0  0  0 
 13 57  1  0  0  0  0 
 15 58  1  0  0  0  0 
 16 59  1  0  0  0  0 
 17 60  1  0  0  0  0 
 18 61  1  0  0  0  0 
 19 62  1  0  0  0  0 
 20 63  1  0  0  0  0 
 20 64  1  0  0  0  0 
 21 65  1  0  0  0  0 
 22 66  1  0  0  0  0 
 23 67  1  0  0  0  0 
 24 68  1  0  0  0  0 
 26 69  1  0  0  0  0 
 27 70  1  0  0  0  0 
 28 71  1  0  0  0  0 
 28 72  1  0  0  0  0 
 30 73  1  0  0  0  0 
 30 74  1  0  0  0  0 
 31 75  1  0  0  0  0 
 31 76  1  0  0  0  0 
 32 77  1  0  0  0  0 
 36 78  1  0  0  0  0 
 36 79  1  0  0  0  0 
 37 80  1  0  0  0  0 
 37 81  1  0  0  0  0 
 37 82  1  0  0  0  0 
 38 83  1  0  0  0  0 
 38 84  1  0  0  0  0 
 38 85  1  0  0  0  0 
 39 86  1  0  0  0  0 
 39 87  1  0  0  0  0 
 39 88  1  0  0  0  0 
 41 89  1  0  0  0  0 
 42 90  1  0  0  0  0 
 43 91  1  0  0  0  0 
 45 92  1  0  0  0  0 
M  END
> <cdk:Title>
indinavir

> <Conformer>
1

> <SuperDrugID>
SD001274

$$$$
