tiropramide
  CDK     0628171801

 75 76  0  0  0  0  0  0  0  0999 V2000
   -2.5426   -2.3068    0.1615 C   0  0  2  0  0  0  0  0  0  0  0  0
   -3.3470   -2.0738   -1.1538 C   0  0  2  0  0  0  0  0  0  0  0  0
   -3.4736   -2.6513    1.2853 C   0  0  0  0  0  0  0  0  0  0  0  0
   -1.6565   -1.2061    0.3930 N   0  0  0  0  0  0  0  0  0  0  0  0
   -2.5061   -1.9913   -2.3844 C   0  0  0  0  0  0  0  0  0  0  0  0
   -4.3500   -1.8065    1.9744 N   0  0  0  0  0  0  0  0  0  0  0  0
   -3.4764   -3.8751    1.5742 O   0  0  0  0  0  0  0  0  0  0  0  0
   -0.6230   -1.1629    1.2775 C   0  0  0  0  0  0  0  0  0  0  0  0
   -2.3854   -0.7851   -3.1147 C   0  0  0  0  0  0  0  0  0  0  0  0
   -1.8359   -3.1408   -2.8677 C   0  0  0  0  0  0  0  0  0  0  0  0
   -4.2452   -0.3572    1.9655 C   0  0  2  0  0  0  0  0  0  0  0  0
   -5.4386   -2.3939    2.7472 C   0  0  1  0  0  0  0  0  0  0  0  0
   -0.4542   -2.1377    2.0495 O   0  0  0  0  0  0  0  0  0  0  0  0
    0.2699   -0.0506    1.3070 C   0  0  0  0  0  0  0  0  0  0  0  0
   -1.6498   -0.7412   -4.3124 C   0  0  0  0  0  0  0  0  0  0  0  0
   -1.1028   -3.0966   -4.0669 C   0  0  0  0  0  0  0  0  0  0  0  0
   -3.5786    0.1610    3.2711 C   0  0  1  0  0  0  0  0  0  0  0  0
   -6.5207   -3.0748    1.8155 C   0  0  2  0  0  0  0  0  0  0  0  0
    1.1850    0.1118    2.3774 C   0  0  0  0  0  0  0  0  0  0  0  0
    0.3022    0.9123    0.2613 C   0  0  0  0  0  0  0  0  0  0  0  0
   -1.0359   -1.9053   -4.8145 C   0  0  0  0  0  0  0  0  0  0  0  0
   -3.1336    1.6360    3.1855 C   0  0  0  0  0  0  0  0  0  0  0  0
   -7.0983   -2.3021    0.5746 C   0  0  0  0  0  0  0  0  0  0  0  0
    2.1065    1.1747    2.3927 C   0  0  0  0  0  0  0  0  0  0  0  0
    1.2304    1.9694    0.2714 C   0  0  0  0  0  0  0  0  0  0  0  0
   -0.3978   -1.8843   -6.0280 O   0  0  0  0  0  0  0  0  0  0  0  0
    2.1362    2.0990    1.3355 C   0  0  0  0  0  0  0  0  0  0  0  0
   -1.3236   -2.0477   -7.1273 C   0  0  1  0  0  0  0  0  0  0  0  0
   -0.5874   -1.9468   -8.4872 C   0  0  2  0  0  0  0  0  0  0  0  0
   -1.4926   -1.6965   -9.6686 N   0  0  1  0  0  0  0  0  0  0  0  0
   -0.7489   -1.2085  -10.8841 C   0  0  2  0  0  0  0  0  0  0  0  0
   -2.4396   -2.8351   -9.9431 C   0  0  2  0  0  0  0  0  0  0  0  0
   -0.2671    0.2573  -10.7651 C   0  0  0  0  0  0  0  0  0  0  0  0
   -3.6141   -2.5143  -10.8991 C   0  0  0  0  0  0  0  0  0  0  0  0
   -1.8950   -3.1729   -0.0203 H   0  0  0  0  0  0  0  0  0  0  0  0
   -3.9534   -1.1702   -1.0459 H   0  0  0  0  0  0  0  0  0  0  0  0
   -4.0485   -2.9014   -1.2993 H   0  0  0  0  0  0  0  0  0  0  0  0
   -1.7999   -0.4191   -0.1543 H   0  0  0  0  0  0  0  0  0  0  0  0
   -2.8439    0.0687   -2.7887 H   0  0  0  0  0  0  0  0  0  0  0  0
   -1.8939   -4.0261   -2.3577 H   0  0  0  0  0  0  0  0  0  0  0  0
   -5.2373    0.0919    1.8658 H   0  0  0  0  0  0  0  0  0  0  0  0
   -3.6838    0.0136    1.1140 H   0  0  0  0  0  0  0  0  0  0  0  0
   -5.0494   -3.1400    3.4476 H   0  0  0  0  0  0  0  0  0  0  0  0
   -5.9595   -1.6470    3.3554 H   0  0  0  0  0  0  0  0  0  0  0  0
   -1.5797    0.1350   -4.8326 H   0  0  0  0  0  0  0  0  0  0  0  0
   -0.6340   -3.9388   -4.4056 H   0  0  0  0  0  0  0  0  0  0  0  0
   -4.2841    0.0660    4.0996 H   0  0  0  0  0  0  0  0  0  0  0  0
   -2.7067   -0.4524    3.5041 H   0  0  0  0  0  0  0  0  0  0  0  0
   -7.3686   -3.3443    2.4514 H   0  0  0  0  0  0  0  0  0  0  0  0
   -6.1117   -4.0145    1.4391 H   0  0  0  0  0  0  0  0  0  0  0  0
    1.1910   -0.5440    3.1640 H   0  0  0  0  0  0  0  0  0  0  0  0
   -0.3387    0.8566   -0.5333 H   0  0  0  0  0  0  0  0  0  0  0  0
   -2.6417    1.9296    4.1153 H   0  0  0  0  0  0  0  0  0  0  0  0
   -2.4362    1.7685    2.3577 H   0  0  0  0  0  0  0  0  0  0  0  0
   -3.9979    2.2818    3.0272 H   0  0  0  0  0  0  0  0  0  0  0  0
   -7.8193   -2.9286    0.0446 H   0  0  0  0  0  0  0  0  0  0  0  0
   -7.5891   -1.3849    0.9031 H   0  0  0  0  0  0  0  0  0  0  0  0
   -6.2914   -2.0454   -0.1088 H   0  0  0  0  0  0  0  0  0  0  0  0
    2.7532    1.2774    3.1762 H   0  0  0  0  0  0  0  0  0  0  0  0
    1.2450    2.6447   -0.4961 H   0  0  0  0  0  0  0  0  0  0  0  0
    2.8100    2.8674    1.3438 H   0  0  0  0  0  0  0  0  0  0  0  0
   -1.8054   -3.0268   -7.0477 H   0  0  0  0  0  0  0  0  0  0  0  0
   -2.0932   -1.2685   -7.1043 H   0  0  0  0  0  0  0  0  0  0  0  0
    0.0036   -2.8538   -8.6476 H   0  0  0  0  0  0  0  0  0  0  0  0
    0.1152   -1.1193   -8.3813 H   0  0  0  0  0  0  0  0  0  0  0  0
   -1.3927   -1.2250  -11.7642 H   0  0  0  0  0  0  0  0  0  0  0  0
    0.1046   -1.8575  -11.1025 H   0  0  0  0  0  0  0  0  0  0  0  0
   -2.9227   -3.1384   -9.0141 H   0  0  0  0  0  0  0  0  0  0  0  0
   -1.8907   -3.7011  -10.3232 H   0  0  0  0  0  0  0  0  0  0  0  0
    0.0462    0.6261  -11.7445 H   0  0  0  0  0  0  0  0  0  0  0  0
    0.5839    0.3403  -10.0887 H   0  0  0  0  0  0  0  0  0  0  0  0
   -1.0780    0.8902  -10.3990 H   0  0  0  0  0  0  0  0  0  0  0  0
   -4.3807   -3.2877  -10.8136 H   0  0  0  0  0  0  0  0  0  0  0  0
   -3.2836   -2.4921  -11.9377 H   0  0  0  0  0  0  0  0  0  0  0  0
   -4.0606   -1.5522  -10.6421 H   0  0  0  0  0  0  0  0  0  0  0  0
  1  2  1  0  0  0  0 
  1  3  1  0  0  0  0 
  1  4  1  0  0  0  0 
  2  5  1  0  0  0  0 
  3  6  1  0  0  0  0 
  3  7  2  0  0  0  0 
  4  8  1  0  0  0  0 
  5  9  2  0  0  0  0 
  5 10  1  0  0  0  0 
  6 11  1  0  0  0  0 
  6 12  1  0  0  0  0 
  8 13  2  0  0  0  0 
  8 14  1  0  0  0  0 
  9 15  1  0  0  0  0 
 10 16  2  0  0  0  0 
 11 17  1  0  0  0  0 
 12 18  1  0  0  0  0 
 14 19  2  0  0  0  0 
 14 20  1  0  0  0  0 
 15 21  2  0  0  0  0 
 16 21  1  0  0  0  0 
 17 22  1  0  0  0  0 
 18 23  1  0  0  0  0 
 19 24  1  0  0  0  0 
 20 25  2  0  0  0  0 
 21 26  1  0  0  0  0 
 24 27  2  0  0  0  0 
 25 27  1  0  0  0  0 
 26 28  1  0  0  0  0 
 28 29  1  0  0  0  0 
 29 30  1  0  0  0  0 
 30 31  1  0  0  0  0 
 30 32  1  0  0  0  0 
 31 33  1  0  0  0  0 
 32 34  1  0  0  0  0 
  1 35  1  0  0  0  0 
  2 36  1  0  0  0  0 
  2 37  1  0  0  0  0 
  4 38  1  0  0  0  0 
  9 39  1  0  0  0  0 
 10 40  1  0  0  0  0 
 11 41  1  0  0  0  0 
 11 42  1  0  0  0  0 
 12 43  1  0  0  0  0 
 12 44  1  0  0  0  0 
 15 45  1  0  0  0  0 
 16 46  1  0  0  0  0 
 17 47  1  0  0  0  0 
 17 48  1  0  0  0  0 
 18 49  1  0  0  0  0 
 18 50  1  0  0  0  0 
 19 51  1  0  0  0  0 
 20 52  1  0  0  0  0 
 22 53  1  0  0  0  0 
 22 54  1  0  0  0  0 
 22 55  1  0  0  0  0 
 23 56  1  0  0  0  0 
 23 57  1  0  0  0  0 
 23 58  1  0  0  0  0 
 24 59  1  0  0  0  0 
 25 60  1  0  0  0  0 
 27 61  1  0  0  0  0 
 28 62  1  0  0  0  0 
 28 63  1  0  0  0  0 
 29 64  1  0  0  0  0 
 29 65  1  0  0  0  0 
 31 66  1  0  0  0  0 
 31 67  1  0  0  0  0 
 32 68  1  0  0  0  0 
 32 69  1  0  0  0  0 
 33 70  1  0  0  0  0 
 33 71  1  0  0  0  0 
 33 72  1  0  0  0  0 
 34 73  1  0  0  0  0 
 34 74  1  0  0  0  0 
 34 75  1  0  0  0  0 
M  END
> <cdk:Title>
tiropramide

> <Conformer>
1

> <SuperDrugID>
SD002413

$$$$
