cefonicid
  CDK     0628171802

 53 56  0  0  0  0  0  0  0  0999 V2000
    1.4430    3.3933   -4.5909 C   0  0  0  0  0  0  0  0  0  0  0  0
    1.5185    3.9574   -3.3611 O   0  0  0  0  0  0  0  0  0  0  0  0
    1.4929    4.1584   -5.5805 O   0  0  0  0  0  0  0  0  0  0  0  0
    1.3839    2.0152   -4.7856 C   0  0  0  0  0  0  0  0  0  0  0  0
    2.3842    1.4807   -5.5252 N   0  0  0  0  0  0  0  0  0  0  0  0
    0.4540    1.2043   -4.2000 C   0  0  0  0  0  0  0  0  0  0  0  0
    2.5904    0.1819   -6.0682 C   0  0  1  0  0  0  0  0  0  0  0  0
    3.6571    1.8553   -5.7353 C   0  0  0  0  0  0  0  0  0  0  0  0
   -0.4854    1.6752   -3.1724 C   0  0  1  0  0  0  0  0  0  0  0  0
    0.3384   -0.2306   -4.5401 C   0  0  2  0  0  0  0  0  0  0  0  0
    4.1087    0.5198   -6.1207 C   0  0  1  0  0  0  0  0  0  0  0  0
    1.9466   -1.0280   -4.8712 S   0  0  0  0  0  0  0  0  0  0  0  0
    4.2922    2.9118   -5.5189 O   0  0  0  0  0  0  0  0  0  0  0  0
    0.3220    1.3728   -1.5638 S   0  0  0  0  0  0  0  0  0  0  0  0
    4.8707   -0.0477   -5.0556 N   0  0  0  0  0  0  0  0  0  0  0  0
   -0.7453    2.0443   -0.3502 C   0  0  0  0  0  0  0  0  0  0  0  0
    6.1863    0.1742   -4.8114 C   0  0  0  0  0  0  0  0  0  0  0  0
   -1.8996    1.5583    0.1371 N   0  0  0  0  0  0  0  0  0  0  0  0
   -0.4786    3.1779    0.3053 N   0  0  0  0  0  0  0  0  0  0  0  0
    6.7362   -0.2273   -3.4965 C   0  0  2  0  0  0  0  0  0  0  0  0
    6.9140    0.7547   -5.6523 O   0  0  0  0  0  0  0  0  0  0  0  0
   -2.5939    0.3558   -0.2068 C   0  0  2  0  0  0  0  0  0  0  0  0
   -2.2887    2.3847    1.0536 N   0  0  0  0  0  0  0  0  0  0  0  0
   -1.4392    3.3559    1.1497 N   0  0  0  0  0  0  0  0  0  0  0  0
    7.3896    0.9055   -2.9224 O   0  0  0  0  0  0  0  0  0  0  0  0
    7.6416   -1.4078   -3.5971 C   0  0  0  0  0  0  0  0  0  0  0  0
   -4.2465    0.6984   -0.9142 S   0  0  1  0  0  0  0  0  0  0  0  0
    8.9479   -1.2799   -4.1295 C   0  0  0  0  0  0  0  0  0  0  0  0
    7.2096   -2.6890   -3.1699 C   0  0  0  0  0  0  0  0  0  0  0  0
   -4.1149    1.5279   -2.2780 O   0  0  0  0  0  0  0  0  0  0  0  0
   -5.0125   -0.6824   -1.1836 O   0  0  0  0  0  0  0  0  0  0  0  0
   -5.1725    1.6123    0.1953 O   0  0  0  0  0  0  0  0  0  0  0  0
    9.7938   -2.3997   -4.2370 C   0  0  0  0  0  0  0  0  0  0  0  0
    8.0563   -3.8079   -3.2797 C   0  0  0  0  0  0  0  0  0  0  0  0
    9.3486   -3.6641   -3.8131 C   0  0  0  0  0  0  0  0  0  0  0  0
    2.1296    0.0724   -7.0537 H   0  0  0  0  0  0  0  0  0  0  0  0
    1.5795    4.9342   -3.2778 H   0  0  0  0  0  0  0  0  0  0  0  0
   -0.7414    2.7302   -3.2694 H   0  0  0  0  0  0  0  0  0  0  0  0
   -1.4277    1.1238   -3.2031 H   0  0  0  0  0  0  0  0  0  0  0  0
   -0.2744   -0.3231   -5.4413 H   0  0  0  0  0  0  0  0  0  0  0  0
   -0.1402   -0.8161   -3.7507 H   0  0  0  0  0  0  0  0  0  0  0  0
    4.5556    0.4682   -7.1162 H   0  0  0  0  0  0  0  0  0  0  0  0
    4.3869   -0.5732   -4.3996 H   0  0  0  0  0  0  0  0  0  0  0  0
    5.9026   -0.4575   -2.8221 H   0  0  0  0  0  0  0  0  0  0  0  0
   -2.7255   -0.2535    0.6907 H   0  0  0  0  0  0  0  0  0  0  0  0
   -2.0320   -0.2365   -0.9313 H   0  0  0  0  0  0  0  0  0  0  0  0
    7.5543    0.6690   -1.9868 H   0  0  0  0  0  0  0  0  0  0  0  0
    9.2934   -0.3679   -4.4405 H   0  0  0  0  0  0  0  0  0  0  0  0
    6.2714   -2.8193   -2.7803 H   0  0  0  0  0  0  0  0  0  0  0  0
   -4.5451    1.8656    0.9010 H   0  0  0  0  0  0  0  0  0  0  0  0
   10.7333   -2.2944   -4.6251 H   0  0  0  0  0  0  0  0  0  0  0  0
    7.7306   -4.7270   -2.9727 H   0  0  0  0  0  0  0  0  0  0  0  0
    9.9623   -4.4785   -3.8948 H   0  0  0  0  0  0  0  0  0  0  0  0
  1  2  1  0  0  0  0 
  1  3  2  0  0  0  0 
  1  4  1  0  0  0  0 
  4  5  1  0  0  0  0 
  4  6  2  0  0  0  0 
  7  5  1  0  0  0  0 
  5  8  1  0  0  0  0 
  6  9  1  0  0  0  0 
  6 10  1  0  0  0  0 
 11  7  1  0  0  0  0 
  7 12  1  0  0  0  0 
  7 36  1  0  0  0  0 
 11  8  1  0  0  0  0 
  8 13  2  0  0  0  0 
  9 14  1  0  0  0  0 
 10 12  1  0  0  0  0 
 11 15  1  0  0  0  0 
 14 16  1  0  0  0  0 
 15 17  1  0  0  0  0 
 16 18  1  0  0  0  0 
 16 19  2  0  0  0  0 
 20 17  1  0  0  0  0 
 17 21  2  0  0  0  0 
 18 22  1  0  0  0  0 
 18 23  1  0  0  0  0 
 19 24  1  0  0  0  0 
 20 25  1  0  0  0  0 
 20 26  1  0  0  0  0 
 22 27  1  0  0  0  0 
 23 24  2  0  0  0  0 
 26 28  2  0  0  0  0 
 26 29  1  0  0  0  0 
 27 30  2  0  0  0  0 
 27 31  2  0  0  0  0 
 27 32  1  0  0  0  0 
 28 33  1  0  0  0  0 
 29 34  2  0  0  0  0 
 33 35  2  0  0  0  0 
 34 35  1  0  0  0  0 
  2 37  1  0  0  0  0 
  9 38  1  0  0  0  0 
  9 39  1  0  0  0  0 
 10 40  1  0  0  0  0 
 10 41  1  0  0  0  0 
 11 42  1  0  0  0  0 
 15 43  1  0  0  0  0 
 20 44  1  0  0  0  0 
 22 45  1  0  0  0  0 
 22 46  1  0  0  0  0 
 25 47  1  0  0  0  0 
 28 48  1  0  0  0  0 
 29 49  1  0  0  0  0 
 32 50  1  0  0  0  0 
 33 51  1  0  0  0  0 
 34 52  1  0  0  0  0 
 35 53  1  0  0  0  0 
M  END
> <cdk:Title>
cefonicid

> <Conformer>
1

> <SuperDrugID>
SD000470

$$$$
