bortezomib
  CDK     0628171801

 53 54  0  0  0  0  0  0  0  0999 V2000
   -8.5800    0.7024   -2.8820 C   0  0  0  0  0  0  0  0  0  0  0  0
   -7.6655    0.6650   -1.6213 C   0  0  1  0  0  0  0  0  0  0  0  0
   -7.8427   -0.6863   -0.8764 C   0  0  0  0  0  0  0  0  0  0  0  0
   -6.1800    0.9407   -2.0269 C   0  0  1  0  0  0  0  0  0  0  0  0
   -5.1065    1.1445   -0.9111 C   0  0  2  0  0  0  0  0  0  0  0  0
   -4.6814    0.0003   -0.1611 N   0  0  0  0  0  0  0  0  0  0  0  0
   -4.0674   -1.1219   -0.6393 C   0  0  0  0  0  0  0  0  0  0  0  0
   -3.9661   -1.3295   -1.8708 O   0  0  0  0  0  0  0  0  0  0  0  0
   -3.4202   -2.0775    0.2969 C   0  0  2  0  0  0  0  0  0  0  0  0
   -4.3134   -2.4605    1.5178 C   0  0  2  0  0  0  0  0  0  0  0  0
   -3.6452   -3.4304    2.4300 C   0  0  0  0  0  0  0  0  0  0  0  0
   -3.0745   -3.0025    3.6538 C   0  0  0  0  0  0  0  0  0  0  0  0
   -2.4113   -3.9140    4.4976 C   0  0  0  0  0  0  0  0  0  0  0  0
   -2.3110   -5.2674    4.1317 C   0  0  0  0  0  0  0  0  0  0  0  0
   -2.8734   -5.7090    2.9209 C   0  0  0  0  0  0  0  0  0  0  0  0
   -3.5366   -4.7980    2.0763 C   0  0  0  0  0  0  0  0  0  0  0  0
   -2.2035   -1.4451    0.7203 N   0  0  0  0  0  0  0  0  0  0  0  0
   -0.9966   -2.0488    0.9424 C   0  0  0  0  0  0  0  0  0  0  0  0
   -0.8704   -3.2887    0.7976 O   0  0  0  0  0  0  0  0  0  0  0  0
    0.1123   -1.2666    1.3464 C   0  0  0  0  0  0  0  0  0  0  0  0
    1.3820   -1.8079    1.6647 C   0  0  0  0  0  0  0  0  0  0  0  0
    2.3823   -0.9762    2.0557 N   0  0  0  0  0  0  0  0  0  0  0  0
    2.2194    0.3667    2.1530 C   0  0  0  0  0  0  0  0  0  0  0  0
    0.9707    0.9194    1.8264 C   0  0  0  0  0  0  0  0  0  0  0  0
   -0.0253    0.0857    1.4396 N   0  0  0  0  0  0  0  0  0  0  0  0
   -5.5710    2.2864    0.1858 B   0  0  0  0  0  0  0  0  0  0  0  0
   -6.4447    1.8994    1.3829 O   0  0  0  0  0  0  0  0  0  0  0  0
   -4.9968    3.7026    0.1225 O   0  0  0  0  0  0  0  0  0  0  0  0
   -8.3172   -0.1012   -3.5736 H   0  0  0  0  0  0  0  0  0  0  0  0
   -9.6301    0.5899   -2.6022 H   0  0  0  0  0  0  0  0  0  0  0  0
   -8.4752    1.6558   -3.4068 H   0  0  0  0  0  0  0  0  0  0  0  0
   -8.0092    1.4689   -0.9629 H   0  0  0  0  0  0  0  0  0  0  0  0
   -7.4690   -1.5100   -1.4876 H   0  0  0  0  0  0  0  0  0  0  0  0
   -8.8971   -0.8688   -0.6557 H   0  0  0  0  0  0  0  0  0  0  0  0
   -7.3032   -0.6802    0.0703 H   0  0  0  0  0  0  0  0  0  0  0  0
   -5.8538    0.1399   -2.6906 H   0  0  0  0  0  0  0  0  0  0  0  0
   -6.1655    1.8529   -2.6289 H   0  0  0  0  0  0  0  0  0  0  0  0
   -4.2073    1.5379   -1.3949 H   0  0  0  0  0  0  0  0  0  0  0  0
   -4.7736    0.0602    0.8018 H   0  0  0  0  0  0  0  0  0  0  0  0
   -3.1896   -2.9933   -0.2582 H   0  0  0  0  0  0  0  0  0  0  0  0
   -5.2564   -2.8916    1.1680 H   0  0  0  0  0  0  0  0  0  0  0  0
   -4.5731   -1.5547    2.0723 H   0  0  0  0  0  0  0  0  0  0  0  0
   -3.1264   -2.0198    3.9346 H   0  0  0  0  0  0  0  0  0  0  0  0
   -1.9997   -3.5909    5.3776 H   0  0  0  0  0  0  0  0  0  0  0  0
   -1.8329   -5.9299    4.7484 H   0  0  0  0  0  0  0  0  0  0  0  0
   -2.8007   -6.6945    2.6543 H   0  0  0  0  0  0  0  0  0  0  0  0
   -3.9356   -5.1360    1.1975 H   0  0  0  0  0  0  0  0  0  0  0  0
   -2.2457   -0.4858    0.8626 H   0  0  0  0  0  0  0  0  0  0  0  0
    1.5725   -2.8106    1.6117 H   0  0  0  0  0  0  0  0  0  0  0  0
    2.9931    0.9590    2.4580 H   0  0  0  0  0  0  0  0  0  0  0  0
    0.8059    1.9246    1.8733 H   0  0  0  0  0  0  0  0  0  0  0  0
   -7.0327    2.6724    1.5131 H   0  0  0  0  0  0  0  0  0  0  0  0
   -5.6918    4.2659    0.5240 H   0  0  0  0  0  0  0  0  0  0  0  0
  1  2  1  0  0  0  0 
  2  3  1  0  0  0  0 
  2  4  1  0  0  0  0 
  4  5  1  0  0  0  0 
  5  6  1  0  0  0  0 
  6  7  1  0  0  0  0 
  7  8  2  0  0  0  0 
  7  9  1  0  0  0  0 
  9 10  1  0  0  0  0 
 10 11  1  0  0  0  0 
 11 12  2  0  0  0  0 
 12 13  1  0  0  0  0 
 13 14  2  0  0  0  0 
 14 15  1  0  0  0  0 
 15 16  2  0  0  0  0 
 11 16  1  0  0  0  0 
  9 17  1  0  0  0  0 
 17 18  1  0  0  0  0 
 18 19  2  0  0  0  0 
 18 20  1  0  0  0  0 
 20 21  2  0  0  0  0 
 21 22  1  0  0  0  0 
 22 23  2  0  0  0  0 
 23 24  1  0  0  0  0 
 24 25  2  0  0  0  0 
 20 25  1  0  0  0  0 
  5 26  1  0  0  0  0 
 26 27  1  0  0  0  0 
 26 28  1  0  0  0  0 
  1 29  1  0  0  0  0 
  1 30  1  0  0  0  0 
  1 31  1  0  0  0  0 
  2 32  1  0  0  0  0 
  3 33  1  0  0  0  0 
  3 34  1  0  0  0  0 
  3 35  1  0  0  0  0 
  4 36  1  0  0  0  0 
  4 37  1  0  0  0  0 
  5 38  1  0  0  0  0 
  6 39  1  0  0  0  0 
  9 40  1  0  0  0  0 
 10 41  1  0  0  0  0 
 10 42  1  0  0  0  0 
 12 43  1  0  0  0  0 
 13 44  1  0  0  0  0 
 14 45  1  0  0  0  0 
 15 46  1  0  0  0  0 
 16 47  1  0  0  0  0 
 17 48  1  0  0  0  0 
 21 49  1  0  0  0  0 
 23 50  1  0  0  0  0 
 24 51  1  0  0  0  0 
 27 52  1  0  0  0  0 
 28 53  1  0  0  0  0 
M  END
> <cdk:Title>
bortezomib

> <Conformer>
1

> <SuperDrugID>
SD000333

$$$$
