metaclazepam
  CDK     0628171801

 41 43  0  0  0  0  0  0  0  0999 V2000
   -2.9744   -2.9677    1.3468 C   0  0  0  0  0  0  0  0  0  0  0  0
   -2.6914   -1.7811    2.1319 N   0  0  0  0  0  0  0  0  0  0  0  0
   -2.8076   -1.8390    3.5148 C   0  0  0  0  0  0  0  0  0  0  0  0
   -2.3089   -0.5589    1.4256 C   0  0  2  0  0  0  0  0  0  0  0  0
   -3.6494   -0.9520    4.2520 C   0  0  0  0  0  0  0  0  0  0  0  0
   -2.0686   -2.8212    4.2187 C   0  0  0  0  0  0  0  0  0  0  0  0
   -0.8376   -0.6414    0.9241 C   0  0  1  0  0  0  0  0  0  0  0  0
   -2.5366    0.7694    2.2121 C   0  0  2  0  0  0  0  0  0  0  0  0
   -4.3667    0.0757    3.6220 C   0  0  0  0  0  0  0  0  0  0  0  0
   -3.7384   -1.0932    5.6600 C   0  0  0  0  0  0  0  0  0  0  0  0
   -2.1698   -2.9469    5.6138 C   0  0  0  0  0  0  0  0  0  0  0  0
    0.0516   -0.8248    2.0435 O   0  0  0  0  0  0  0  0  0  0  0  0
   -3.8318    0.8257    2.7198 N   0  0  0  0  0  0  0  0  0  0  0  0
   -5.7034    0.3292    3.9277 C   0  0  0  0  0  0  0  0  0  0  0  0
   -3.0127   -2.0878    6.3347 C   0  0  0  0  0  0  0  0  0  0  0  0
    1.4430   -0.8479    1.6873 C   0  0  0  0  0  0  0  0  0  0  0  0
   -6.1551    1.5873    4.4128 C   0  0  0  0  0  0  0  0  0  0  0  0
   -6.6539   -0.7054    3.7408 C   0  0  0  0  0  0  0  0  0  0  0  0
   -3.1653   -2.2561    8.1807 Br  0  0  0  0  0  0  0  0  0  0  0  0
   -5.0941    2.8680    4.7572 Cl  0  0  0  0  0  0  0  0  0  0  0  0
   -7.5292    1.8006    4.6501 C   0  0  0  0  0  0  0  0  0  0  0  0
   -8.0211   -0.4844    3.9806 C   0  0  0  0  0  0  0  0  0  0  0  0
   -8.4604    0.7724    4.4253 C   0  0  0  0  0  0  0  0  0  0  0  0
   -3.4007   -3.7794    1.9418 H   0  0  0  0  0  0  0  0  0  0  0  0
   -3.6909   -2.7434    0.5533 H   0  0  0  0  0  0  0  0  0  0  0  0
   -2.0565   -3.3394    0.8895 H   0  0  0  0  0  0  0  0  0  0  0  0
   -2.9466   -0.4700    0.5374 H   0  0  0  0  0  0  0  0  0  0  0  0
   -1.4430   -3.4530    3.7131 H   0  0  0  0  0  0  0  0  0  0  0  0
   -0.7320   -1.4736    0.2223 H   0  0  0  0  0  0  0  0  0  0  0  0
   -0.5859    0.2775    0.3844 H   0  0  0  0  0  0  0  0  0  0  0  0
   -2.4071    1.6210    1.5418 H   0  0  0  0  0  0  0  0  0  0  0  0
   -1.8088    0.8757    3.0219 H   0  0  0  0  0  0  0  0  0  0  0  0
   -4.3255   -0.4623    6.2125 H   0  0  0  0  0  0  0  0  0  0  0  0
   -1.6277   -3.6631    6.1002 H   0  0  0  0  0  0  0  0  0  0  0  0
    1.7430    0.0836    1.2016 H   0  0  0  0  0  0  0  0  0  0  0  0
    2.0250   -0.9589    2.6013 H   0  0  0  0  0  0  0  0  0  0  0  0
    1.6646   -1.6913    1.0302 H   0  0  0  0  0  0  0  0  0  0  0  0
   -6.3637   -1.6302    3.4139 H   0  0  0  0  0  0  0  0  0  0  0  0
   -7.8633    2.7056    4.9899 H   0  0  0  0  0  0  0  0  0  0  0  0
   -8.6964   -1.2366    3.8285 H   0  0  0  0  0  0  0  0  0  0  0  0
   -9.4567    0.9385    4.5870 H   0  0  0  0  0  0  0  0  0  0  0  0
  1  2  1  0  0  0  0 
  2  3  1  0  0  0  0 
  4  2  1  0  0  0  0 
  3  5  2  0  0  0  0 
  3  6  1  0  0  0  0 
  4  7  1  0  0  0  0 
  4  8  1  0  0  0  0 
  5  9  1  0  0  0  0 
  5 10  1  0  0  0  0 
  6 11  2  0  0  0  0 
  7 12  1  0  0  0  0 
  8 13  1  0  0  0  0 
  9 13  2  0  0  0  0 
  9 14  1  0  0  0  0 
 10 15  2  0  0  0  0 
 11 15  1  0  0  0  0 
 12 16  1  0  0  0  0 
 14 17  2  0  0  0  0 
 14 18  1  0  0  0  0 
 15 19  1  0  0  0  0 
 17 20  1  0  0  0  0 
 17 21  1  0  0  0  0 
 18 22  2  0  0  0  0 
 21 23  2  0  0  0  0 
 22 23  1  0  0  0  0 
  1 24  1  0  0  0  0 
  1 25  1  0  0  0  0 
  1 26  1  0  0  0  0 
  4 27  1  0  0  0  0 
  6 28  1  0  0  0  0 
  7 29  1  0  0  0  0 
  7 30  1  0  0  0  0 
  8 31  1  0  0  0  0 
  8 32  1  0  0  0  0 
 10 33  1  0  0  0  0 
 11 34  1  0  0  0  0 
 16 35  1  0  0  0  0 
 16 36  1  0  0  0  0 
 16 37  1  0  0  0  0 
 18 38  1  0  0  0  0 
 21 39  1  0  0  0  0 
 22 40  1  0  0  0  0 
 23 41  1  0  0  0  0 
M  END
> <cdk:Title>
metaclazepam

> <Conformer>
1

> <SuperDrugID>
SD001517

$$$$
