pentaerithrityl tetranitrate
  CDK     0628171801

 29 28  0  0  0  0  0  0  0  0999 V2000
    0.0121   -2.7283    0.5558 C   0  0  1  0  0  0  0  0  0  0  0  0
   -0.6203   -2.0468   -0.7087 C   0  0  1  0  0  0  0  0  0  0  0  0
    1.4371   -3.2630    0.1726 C   0  0  1  0  0  0  0  0  0  0  0  0
    0.1271   -1.6873    1.7247 C   0  0  1  0  0  0  0  0  0  0  0  0
   -0.8953   -3.9160    1.0345 C   0  0  1  0  0  0  0  0  0  0  0  0
   -1.9298   -1.5170   -0.4119 O   0  0  0  0  0  0  0  0  0  0  0  0
    2.0638   -3.9192    1.2951 O   0  0  0  0  0  0  0  0  0  0  0  0
    0.9382   -0.5584    1.3358 O   0  0  0  0  0  0  0  0  0  0  0  0
   -1.0237   -4.9184    0.0039 O   0  0  0  0  0  0  0  0  0  0  0  0
   -2.4879   -0.9653   -1.4204 N   0  0  0  0  0  0  0  0  0  0  0  0
    3.2345   -4.3575    1.0300 N   0  0  0  0  0  0  0  0  0  0  0  0
    1.0702    0.3082    2.2656 N   0  0  0  0  0  0  0  0  0  0  0  0
   -1.7683   -5.8984    0.3477 N   0  0  0  0  0  0  0  0  0  0  0  0
   -3.2034   -1.6506   -2.2108 O   0  0  0  0  0  0  0  0  0  0  0  0
   -2.3841    0.1837   -1.5922 O   0  0  0  0  0  0  0  0  0  0  0  0
    4.2490   -3.6168    1.1987 O   0  0  0  0  0  0  0  0  0  0  0  0
    3.3823   -5.4600    0.6789 O   0  0  0  0  0  0  0  0  0  0  0  0
    2.0201    0.2133    3.0993 O   0  0  0  0  0  0  0  0  0  0  0  0
    0.3468    1.2214    2.3231 O   0  0  0  0  0  0  0  0  0  0  0  0
   -3.0172   -5.8589    0.1357 O   0  0  0  0  0  0  0  0  0  0  0  0
   -1.2965   -6.8583    0.8133 O   0  0  0  0  0  0  0  0  0  0  0  0
    0.0284   -1.2319   -1.0498 H   0  0  0  0  0  0  0  0  0  0  0  0
   -0.6955   -2.7773   -1.5219 H   0  0  0  0  0  0  0  0  0  0  0  0
    1.3516   -3.9736   -0.6574 H   0  0  0  0  0  0  0  0  0  0  0  0
    2.0649   -2.4302   -0.1632 H   0  0  0  0  0  0  0  0  0  0  0  0
   -0.8728   -1.3335    2.0009 H   0  0  0  0  0  0  0  0  0  0  0  0
    0.5665   -2.1692    2.6051 H   0  0  0  0  0  0  0  0  0  0  0  0
   -0.4587   -4.3740    1.9293 H   0  0  0  0  0  0  0  0  0  0  0  0
   -1.8874   -3.5363    1.3030 H   0  0  0  0  0  0  0  0  0  0  0  0
  1  2  1  0  0  0  0 
  1  3  1  0  0  0  0 
  1  4  1  0  0  0  0 
  1  5  1  0  0  0  0 
  2  6  1  0  0  0  0 
  3  7  1  0  0  0  0 
  4  8  1  0  0  0  0 
  5  9  1  0  0  0  0 
  6 10  1  0  0  0  0 
  7 11  1  0  0  0  0 
  8 12  1  0  0  0  0 
  9 13  1  0  0  0  0 
 10 14  1  0  0  0  0 
 10 15  2  0  0  0  0 
 11 16  1  0  0  0  0 
 11 17  2  0  0  0  0 
 12 18  1  0  0  0  0 
 12 19  2  0  0  0  0 
 13 20  1  0  0  0  0 
 13 21  2  0  0  0  0 
  2 22  1  0  0  0  0 
  2 23  1  0  0  0  0 
  3 24  1  0  0  0  0 
  3 25  1  0  0  0  0 
  4 26  1  0  0  0  0 
  4 27  1  0  0  0  0 
  5 28  1  0  0  0  0 
  5 29  1  0  0  0  0 
M  CHG  1  10   1
M  CHG  1  11   1
M  CHG  1  12   1
M  CHG  1  13   1
M  CHG  1  14  -1
M  CHG  1  16  -1
M  CHG  1  18  -1
M  CHG  1  20  -1
M  END
> <cdk:Title>
pentaerithrityl tetranitrate

> <Conformer>
1

> <SuperDrugID>
SD001871

$$$$
