glucose
  CDK     0628171802

 24 24  0  0  0  0  0  0  0  0999 V2000
    3.0905   -2.1491   -0.1464 O   0  0  0  0  0  0  0  0  0  0  0  0
    2.1455   -1.9850    0.9391 C   0  0  1  0  0  0  0  0  0  0  0  0
    2.8366   -1.4339    2.2258 C   0  0  2  0  0  0  0  0  0  0  0  0
    3.7337   -0.1944    1.9369 C   0  0  1  0  0  0  0  0  0  0  0  0
    4.6787   -0.4414    0.7285 C   0  0  2  0  0  0  0  0  0  0  0  0
    3.9100   -1.0107   -0.4933 C   0  0  2  0  0  0  0  0  0  0  0  0
    3.1463   -0.0014   -1.1506 O   0  0  0  0  0  0  0  0  0  0  0  0
    5.7153   -1.3539    1.0917 O   0  0  0  0  0  0  0  0  0  0  0  0
    2.9473    0.9731    1.6984 O   0  0  0  0  0  0  0  0  0  0  0  0
    3.6387   -2.4722    2.7942 O   0  0  0  0  0  0  0  0  0  0  0  0
    0.8635   -1.2165    0.5169 C   0  0  1  0  0  0  0  0  0  0  0  0
    0.3459   -1.7382   -0.7028 O   0  0  0  0  0  0  0  0  0  0  0  0
    1.8045   -2.9989    1.1731 H   0  0  0  0  0  0  0  0  0  0  0  0
    2.0845   -1.1732    2.9755 H   0  0  0  0  0  0  0  0  0  0  0  0
    4.3381    0.0232    2.8222 H   0  0  0  0  0  0  0  0  0  0  0  0
    5.1643    0.4984    0.4476 H   0  0  0  0  0  0  0  0  0  0  0  0
    4.6406   -1.3634   -1.2245 H   0  0  0  0  0  0  0  0  0  0  0  0
    3.8017    0.6711   -1.4340 H   0  0  0  0  0  0  0  0  0  0  0  0
    6.2270   -0.8920    1.7894 H   0  0  0  0  0  0  0  0  0  0  0  0
    2.4155    1.0979    2.5127 H   0  0  0  0  0  0  0  0  0  0  0  0
    4.0357   -2.0809    3.6009 H   0  0  0  0  0  0  0  0  0  0  0  0
    0.0980   -1.3205    1.2885 H   0  0  0  0  0  0  0  0  0  0  0  0
    1.0622   -0.1545    0.3789 H   0  0  0  0  0  0  0  0  0  0  0  0
   -0.4466   -1.1930   -0.8951 H   0  0  0  0  0  0  0  0  0  0  0  0
  1  2  1  0  0  0  0 
  2  3  1  0  0  0  0 
  3  4  1  0  0  0  0 
  4  5  1  0  0  0  0 
  5  6  1  0  0  0  0 
  1  6  1  0  0  0  0 
  6  7  1  0  0  0  0 
  5  8  1  0  0  0  0 
  4  9  1  0  0  0  0 
  3 10  1  0  0  0  0 
  2 11  1  0  0  0  0 
 11 12  1  0  0  0  0 
  2 13  1  0  0  0  0 
  3 14  1  0  0  0  0 
  4 15  1  0  0  0  0 
  5 16  1  0  0  0  0 
  6 17  1  0  0  0  0 
  7 18  1  0  0  0  0 
  8 19  1  0  0  0  0 
  9 20  1  0  0  0  0 
 10 21  1  0  0  0  0 
 11 22  1  0  0  0  0 
 11 23  1  0  0  0  0 
 12 24  1  0  0  0  0 
M  END
> <cdk:Title>
glucose

> <Conformer>
1

> <SuperDrugID>
SD000749

$$$$
