tritiozine
  CDK     0628171801

 39 40  0  0  0  0  0  0  0  0999 V2000
   -0.7544    2.0069    1.0030 C   0  0  0  0  0  0  0  0  0  0  0  0
   -0.4910    3.6903    0.9406 S   0  0  0  0  0  0  0  0  0  0  0  0
   -1.2797    1.4684    2.1629 C   0  0  0  0  0  0  0  0  0  0  0  0
   -0.5093    1.2167   -0.0615 N   0  0  0  0  0  0  0  0  0  0  0  0
   -2.5846    0.9331    2.1414 C   0  0  0  0  0  0  0  0  0  0  0  0
   -0.5303    1.4073    3.3589 C   0  0  0  0  0  0  0  0  0  0  0  0
   -1.0976    1.4678   -1.3584 C   0  0  2  0  0  0  0  0  0  0  0  0
    0.3674    0.0677    0.0422 C   0  0  1  0  0  0  0  0  0  0  0  0
   -3.1262    0.3128    3.2824 C   0  0  0  0  0  0  0  0  0  0  0  0
   -1.0539    0.7596    4.4981 C   0  0  0  0  0  0  0  0  0  0  0  0
    0.0193    1.5250   -2.4324 C   0  0  1  0  0  0  0  0  0  0  0  0
    1.4547    0.1442   -1.0599 C   0  0  1  0  0  0  0  0  0  0  0  0
   -4.4102   -0.1580    3.2255 O   0  0  0  0  0  0  0  0  0  0  0  0
   -2.3558    0.2106    4.4617 C   0  0  0  0  0  0  0  0  0  0  0  0
   -0.2993    0.6679    5.6365 O   0  0  0  0  0  0  0  0  0  0  0  0
    0.8644    0.3555   -2.3599 O   0  0  0  0  0  0  0  0  0  0  0  0
   -4.5016   -1.5525    2.8865 C   0  0  0  0  0  0  0  0  0  0  0  0
   -2.8456   -0.4827    5.5356 O   0  0  0  0  0  0  0  0  0  0  0  0
    0.5921   -0.4623    5.6251 C   0  0  0  0  0  0  0  0  0  0  0  0
   -3.5843    0.3243    6.4650 C   0  0  0  0  0  0  0  0  0  0  0  0
   -3.1500    0.9872    1.2885 H   0  0  0  0  0  0  0  0  0  0  0  0
    0.4135    1.8046    3.4000 H   0  0  0  0  0  0  0  0  0  0  0  0
   -1.6897    2.3863   -1.3958 H   0  0  0  0  0  0  0  0  0  0  0  0
   -1.7756    0.6431   -1.5968 H   0  0  0  0  0  0  0  0  0  0  0  0
    0.8675    0.0032    1.0127 H   0  0  0  0  0  0  0  0  0  0  0  0
   -0.2197   -0.8471   -0.0896 H   0  0  0  0  0  0  0  0  0  0  0  0
   -0.4325    1.5550   -3.4267 H   0  0  0  0  0  0  0  0  0  0  0  0
    0.6154    2.4344   -2.3062 H   0  0  0  0  0  0  0  0  0  0  0  0
    2.1592    0.9501   -0.8333 H   0  0  0  0  0  0  0  0  0  0  0  0
    2.0134   -0.7935   -1.0824 H   0  0  0  0  0  0  0  0  0  0  0  0
   -5.5565   -1.8053    2.7813 H   0  0  0  0  0  0  0  0  0  0  0  0
   -4.0019   -1.7734    1.9395 H   0  0  0  0  0  0  0  0  0  0  0  0
   -4.0805   -2.1790    3.6760 H   0  0  0  0  0  0  0  0  0  0  0  0
    1.1138   -0.4926    6.5815 H   0  0  0  0  0  0  0  0  0  0  0  0
    0.0482   -1.4040    5.5044 H   0  0  0  0  0  0  0  0  0  0  0  0
    1.3403   -0.3700    4.8329 H   0  0  0  0  0  0  0  0  0  0  0  0
   -4.0091   -0.3352    7.2237 H   0  0  0  0  0  0  0  0  0  0  0  0
   -2.9317    1.0426    6.9637 H   0  0  0  0  0  0  0  0  0  0  0  0
   -4.4076    0.8524    5.9786 H   0  0  0  0  0  0  0  0  0  0  0  0
  1  2  2  0  0  0  0 
  1  3  1  0  0  0  0 
  1  4  1  0  0  0  0 
  3  5  2  0  0  0  0 
  3  6  1  0  0  0  0 
  4  7  1  0  0  0  0 
  4  8  1  0  0  0  0 
  5  9  1  0  0  0  0 
  6 10  2  0  0  0  0 
  7 11  1  0  0  0  0 
  8 12  1  0  0  0  0 
  9 13  1  0  0  0  0 
  9 14  2  0  0  0  0 
 10 14  1  0  0  0  0 
 10 15  1  0  0  0  0 
 11 16  1  0  0  0  0 
 12 16  1  0  0  0  0 
 13 17  1  0  0  0  0 
 14 18  1  0  0  0  0 
 15 19  1  0  0  0  0 
 18 20  1  0  0  0  0 
  5 21  1  0  0  0  0 
  6 22  1  0  0  0  0 
  7 23  1  0  0  0  0 
  7 24  1  0  0  0  0 
  8 25  1  0  0  0  0 
  8 26  1  0  0  0  0 
 11 27  1  0  0  0  0 
 11 28  1  0  0  0  0 
 12 29  1  0  0  0  0 
 12 30  1  0  0  0  0 
 17 31  1  0  0  0  0 
 17 32  1  0  0  0  0 
 17 33  1  0  0  0  0 
 19 34  1  0  0  0  0 
 19 35  1  0  0  0  0 
 19 36  1  0  0  0  0 
 20 37  1  0  0  0  0 
 20 38  1  0  0  0  0 
 20 39  1  0  0  0  0 
M  END
> <cdk:Title>
tritiozine

> <Conformer>
1

> <SuperDrugID>
SD002493

$$$$
