pirfenidone
  CDK     0628171801

 25 26  0  0  0  0  0  0  0  0999 V2000
   -2.2311   -0.6955    1.9178 O   0  0  0  0  0  0  0  0  0  0  0  0
   -1.7916   -1.4626    1.0268 C   0  0  0  0  0  0  0  0  0  0  0  0
   -0.9975   -1.0196   -0.0060 N   0  0  0  0  0  0  0  0  0  0  0  0
   -2.1360   -2.8218    1.1316 C   0  0  0  0  0  0  0  0  0  0  0  0
   -0.5235   -1.9076   -0.9403 C   0  0  0  0  0  0  0  0  0  0  0  0
   -0.6676    0.3149   -0.1187 C   0  0  0  0  0  0  0  0  0  0  0  0
   -1.6523   -3.7306    0.1794 C   0  0  0  0  0  0  0  0  0  0  0  0
   -0.8308   -3.2855   -0.8771 C   0  0  0  0  0  0  0  0  0  0  0  0
   -1.6762    1.2969   -0.2749 C   0  0  0  0  0  0  0  0  0  0  0  0
    0.6837    0.7370   -0.0701 C   0  0  0  0  0  0  0  0  0  0  0  0
   -0.2972   -4.2154   -1.8996 C   0  0  0  0  0  0  0  0  0  0  0  0
   -1.3462    2.6621   -0.3587 C   0  0  0  0  0  0  0  0  0  0  0  0
    1.0151    2.1019   -0.1635 C   0  0  0  0  0  0  0  0  0  0  0  0
   -0.0001    3.0651   -0.3042 C   0  0  0  0  0  0  0  0  0  0  0  0
   -2.7315   -3.1526    1.8956 H   0  0  0  0  0  0  0  0  0  0  0  0
    0.0657   -1.5774   -1.7124 H   0  0  0  0  0  0  0  0  0  0  0  0
   -1.9040   -4.7176    0.2666 H   0  0  0  0  0  0  0  0  0  0  0  0
   -2.6598    1.0206   -0.3266 H   0  0  0  0  0  0  0  0  0  0  0  0
    1.4339    0.0511    0.0423 H   0  0  0  0  0  0  0  0  0  0  0  0
   -0.6440   -3.9130   -2.8885 H   0  0  0  0  0  0  0  0  0  0  0  0
   -0.6146   -5.2454   -1.7283 H   0  0  0  0  0  0  0  0  0  0  0  0
    0.7932   -4.1896   -1.8870 H   0  0  0  0  0  0  0  0  0  0  0  0
   -2.0860    3.3611   -0.4573 H   0  0  0  0  0  0  0  0  0  0  0  0
    1.9944    2.3942   -0.1241 H   0  0  0  0  0  0  0  0  0  0  0  0
    0.2398    4.0568   -0.3661 H   0  0  0  0  0  0  0  0  0  0  0  0
  1  2  2  0  0  0  0 
  2  3  1  0  0  0  0 
  2  4  1  0  0  0  0 
  3  5  1  0  0  0  0 
  3  6  1  0  0  0  0 
  4  7  2  0  0  0  0 
  5  8  2  0  0  0  0 
  6  9  2  0  0  0  0 
  6 10  1  0  0  0  0 
  7  8  1  0  0  0  0 
  8 11  1  0  0  0  0 
  9 12  1  0  0  0  0 
 10 13  2  0  0  0  0 
 12 14  2  0  0  0  0 
 13 14  1  0  0  0  0 
  4 15  1  0  0  0  0 
  5 16  1  0  0  0  0 
  7 17  1  0  0  0  0 
  9 18  1  0  0  0  0 
 10 19  1  0  0  0  0 
 11 20  1  0  0  0  0 
 11 21  1  0  0  0  0 
 11 22  1  0  0  0  0 
 12 23  1  0  0  0  0 
 13 24  1  0  0  0  0 
 14 25  1  0  0  0  0 
M  END
> <cdk:Title>
pirfenidone

> <Conformer>
1

> <SuperDrugID>
SD003435

$$$$
