anhydrovinblastine
  CDK     0628171801

114122  0  0  0  0  0  0  0  0999 V2000
    2.4770   -2.9297    0.3782 C   0  0  2  0  0  0  0  0  0  0  0  0
    3.5133   -2.9575   -0.7814 C   0  0  0  0  0  0  0  0  0  0  0  0
    2.5075   -4.1019    1.4388 C   0  0  1  0  0  0  0  0  0  0  0  0
    1.4996   -3.7347    2.6024 C   0  0  1  0  0  0  0  0  0  0  0  0
    2.1497   -5.5343    0.8612 C   0  0  1  0  0  0  0  0  0  0  0  0
    3.8903   -4.1798    1.9765 C   0  0  0  0  0  0  0  0  0  0  0  0
   -0.0150   -4.0631    2.4330 C   0  0  2  0  0  0  0  0  0  0  0  0
    1.8564   -4.5075    3.8155 N   0  0  2  0  0  0  0  0  0  0  0  0
    2.4675   -6.5341    1.8617 O   0  0  0  0  0  0  0  0  0  0  0  0
    0.6506   -5.7723    0.4479 C   0  0  1  0  0  0  0  0  0  0  0  0
    4.2125   -4.2401    3.2801 C   0  0  0  0  0  0  0  0  0  0  0  0
   -0.3211   -5.3873    1.6408 C   0  0  2  0  0  0  0  0  0  0  0  0
   -0.8879   -3.1263    1.6967 C   0  0  0  0  0  0  0  0  0  0  0  0
   -0.4987   -4.1155    3.9242 C   0  0  1  0  0  0  0  0  0  0  0  0
    0.7493   -4.4027    4.7814 C   0  0  1  0  0  0  0  0  0  0  0  0
    3.2222   -4.2317    4.3368 C   0  0  2  0  0  0  0  0  0  0  0  0
    3.4196   -7.5141    1.8215 C   0  0  0  0  0  0  0  0  0  0  0  0
    0.2794   -5.2670   -0.9193 C   0  0  0  0  0  0  0  0  0  0  0  0
    0.4974   -7.1845    0.2383 O   0  0  0  0  0  0  0  0  0  0  0  0
   -1.6737   -5.1599    1.2072 N   0  0  0  0  0  0  0  0  0  0  0  0
   -1.8591   -3.8309    1.0038 C   0  0  0  0  0  0  0  0  0  0  0  0
   -0.9081   -1.7230    1.7168 C   0  0  0  0  0  0  0  0  0  0  0  0
    3.5203   -8.4652    2.9341 C   0  0  0  0  0  0  0  0  0  0  0  0
    4.2213   -7.6161    0.8639 O   0  0  0  0  0  0  0  0  0  0  0  0
    1.1618   -4.6445   -1.7524 O   0  0  0  0  0  0  0  0  0  0  0  0
   -0.8632   -5.4981   -1.3830 O   0  0  0  0  0  0  0  0  0  0  0  0
   -2.6617   -6.1962    1.0970 C   0  0  0  0  0  0  0  0  0  0  0  0
   -2.8158   -3.1438    0.2438 C   0  0  0  0  0  0  0  0  0  0  0  0
   -1.8211   -0.9595    0.9218 C   0  0  0  0  0  0  0  0  0  0  0  0
    0.8929   -4.1549   -3.0725 C   0  0  0  0  0  0  0  0  0  0  0  0
   -2.8020   -1.7257    0.1961 C   0  0  0  0  0  0  0  0  0  0  0  0
   -1.7331    0.5869    0.9907 C   0  0  2  0  0  0  0  0  0  0  0  0
   -3.7609   -1.1663   -0.6086 O   0  0  0  0  0  0  0  0  0  0  0  0
   -0.2620    0.8600    0.8241 C   0  0  0  0  0  0  0  0  0  0  0  0
   -2.4128    0.9762    2.2980 C   0  0  0  0  0  0  0  0  0  0  0  0
   -2.4947    1.3387   -0.1855 C   0  0  2  0  0  0  0  0  0  0  0  0
   -5.0979   -1.1308   -0.0709 C   0  0  0  0  0  0  0  0  0  0  0  0
    0.3103    0.6136   -0.3966 O   0  0  0  0  0  0  0  0  0  0  0  0
    0.4870    1.1536    1.7829 O   0  0  0  0  0  0  0  0  0  0  0  0
   -2.3092    2.0763    3.1931 C   0  0  0  0  0  0  0  0  0  0  0  0
   -3.4500    0.2275    2.7512 N   0  0  0  0  0  0  0  0  0  0  0  0
   -2.3189    2.8645   -0.5367 C   0  0  1  0  0  0  0  0  0  0  0  0
    1.6898    0.6761   -0.7709 C   0  0  0  0  0  0  0  0  0  0  0  0
   -3.3574    1.9332    4.1186 C   0  0  0  0  0  0  0  0  0  0  0  0
   -1.3662    3.2265    3.2565 C   0  0  1  0  0  0  0  0  0  0  0  0
   -4.0355    0.7622    3.8174 C   0  0  0  0  0  0  0  0  0  0  0  0
   -2.9541    3.8811    0.4621 C   0  0  2  0  0  0  0  0  0  0  0  0
   -0.9857    3.2346   -1.0077 C   0  0  0  0  0  0  0  0  0  0  0  0
   -3.7947    2.7282    5.2001 C   0  0  0  0  0  0  0  0  0  0  0  0
   -1.9585    4.5549    2.7346 C   0  0  2  0  0  0  0  0  0  0  0  0
   -5.1437    0.3142    4.5563 C   0  0  0  0  0  0  0  0  0  0  0  0
   -1.9367    4.6091    1.2501 N   0  0  0  0  0  0  0  0  0  0  0  0
   -0.2364    4.2577   -0.5430 C   0  0  0  0  0  0  0  0  0  0  0  0
   -4.9135    2.3091    5.9544 C   0  0  0  0  0  0  0  0  0  0  0  0
   -5.5818    1.1050    5.6382 C   0  0  0  0  0  0  0  0  0  0  0  0
   -0.7428    5.1236    0.5221 C   0  0  1  0  0  0  0  0  0  0  0  0
    1.0715    4.5701   -1.1446 C   0  0  2  0  0  0  0  0  0  0  0  0
    2.2742    4.3930   -0.1850 C   0  0  0  0  0  0  0  0  0  0  0  0
    1.6004   -2.6717    2.8595 H   0  0  0  0  0  0  0  0  0  0  0  0
   -0.2978   -6.2146    2.3585 H   0  0  0  0  0  0  0  0  0  0  0  0
   -2.9360    2.9803   -1.4364 H   0  0  0  0  0  0  0  0  0  0  0  0
    1.4803   -2.8597   -0.0552 H   0  0  0  0  0  0  0  0  0  0  0  0
    2.6427   -1.9814    0.8991 H   0  0  0  0  0  0  0  0  0  0  0  0
    3.1868   -2.3225   -1.6068 H   0  0  0  0  0  0  0  0  0  0  0  0
    3.6539   -3.9649   -1.1678 H   0  0  0  0  0  0  0  0  0  0  0  0
    4.4766   -2.5802   -0.4316 H   0  0  0  0  0  0  0  0  0  0  0  0
    2.7694   -5.7334   -0.0156 H   0  0  0  0  0  0  0  0  0  0  0  0
    4.6480   -4.2269    1.3362 H   0  0  0  0  0  0  0  0  0  0  0  0
    5.1713   -4.2996    3.5372 H   0  0  0  0  0  0  0  0  0  0  0  0
   -0.9189   -3.1562    4.2470 H   0  0  0  0  0  0  0  0  0  0  0  0
   -1.2679   -4.8765    4.0879 H   0  0  0  0  0  0  0  0  0  0  0  0
    0.6502   -5.3427    5.3295 H   0  0  0  0  0  0  0  0  0  0  0  0
    0.9123   -3.5881    5.4952 H   0  0  0  0  0  0  0  0  0  0  0  0
    3.4748   -5.0052    5.0660 H   0  0  0  0  0  0  0  0  0  0  0  0
    3.2617   -3.2598    4.8355 H   0  0  0  0  0  0  0  0  0  0  0  0
    0.6751   -7.6116    1.1019 H   0  0  0  0  0  0  0  0  0  0  0  0
   -0.2435   -1.2599    2.3370 H   0  0  0  0  0  0  0  0  0  0  0  0
    4.5188   -8.4198    3.3723 H   0  0  0  0  0  0  0  0  0  0  0  0
    2.7873   -8.2398    3.7107 H   0  0  0  0  0  0  0  0  0  0  0  0
    3.3363   -9.4726    2.5636 H   0  0  0  0  0  0  0  0  0  0  0  0
   -2.4553   -6.8233    0.2300 H   0  0  0  0  0  0  0  0  0  0  0  0
   -3.6707   -5.7930    1.0053 H   0  0  0  0  0  0  0  0  0  0  0  0
   -2.6400   -6.8279    1.9870 H   0  0  0  0  0  0  0  0  0  0  0  0
   -3.5165   -3.6738   -0.2788 H   0  0  0  0  0  0  0  0  0  0  0  0
    0.0962   -3.4088   -3.0479 H   0  0  0  0  0  0  0  0  0  0  0  0
    1.7960   -3.6931   -3.4698 H   0  0  0  0  0  0  0  0  0  0  0  0
    0.5991   -4.9757   -3.7289 H   0  0  0  0  0  0  0  0  0  0  0  0
   -3.5696    1.2172   -0.0359 H   0  0  0  0  0  0  0  0  0  0  0  0
   -2.2588    0.7986   -1.1094 H   0  0  0  0  0  0  0  0  0  0  0  0
   -5.7407   -0.6910   -0.8329 H   0  0  0  0  0  0  0  0  0  0  0  0
   -5.4767   -2.1283    0.1577 H   0  0  0  0  0  0  0  0  0  0  0  0
   -5.1628   -0.5081    0.8201 H   0  0  0  0  0  0  0  0  0  0  0  0
   -3.7508   -0.5955    2.3373 H   0  0  0  0  0  0  0  0  0  0  0  0
    1.8510    1.5351   -1.4216 H   0  0  0  0  0  0  0  0  0  0  0  0
    1.9369   -0.2263   -1.3237 H   0  0  0  0  0  0  0  0  0  0  0  0
    2.3524    0.7513    0.0927 H   0  0  0  0  0  0  0  0  0  0  0  0
   -1.0721    3.3566    4.3013 H   0  0  0  0  0  0  0  0  0  0  0  0
   -0.4497    3.0523    2.7133 H   0  0  0  0  0  0  0  0  0  0  0  0
   -3.6919    3.3905    1.1002 H   0  0  0  0  0  0  0  0  0  0  0  0
   -3.4969    4.6502   -0.0954 H   0  0  0  0  0  0  0  0  0  0  0  0
   -0.6283    2.6861   -1.7569 H   0  0  0  0  0  0  0  0  0  0  0  0
   -3.3209    3.5996    5.4392 H   0  0  0  0  0  0  0  0  0  0  0  0
   -1.3659    5.3837    3.1319 H   0  0  0  0  0  0  0  0  0  0  0  0
   -2.9781    4.6995    3.1005 H   0  0  0  0  0  0  0  0  0  0  0  0
   -5.6216   -0.5569    4.3144 H   0  0  0  0  0  0  0  0  0  0  0  0
   -5.2436    2.8809    6.7349 H   0  0  0  0  0  0  0  0  0  0  0  0
   -6.3879    0.8068    6.1928 H   0  0  0  0  0  0  0  0  0  0  0  0
   -1.0223    6.0778    0.0713 H   0  0  0  0  0  0  0  0  0  0  0  0
    0.0560    5.3264    1.2359 H   0  0  0  0  0  0  0  0  0  0  0  0
    1.0573    5.6036   -1.5014 H   0  0  0  0  0  0  0  0  0  0  0  0
    1.2672    3.9503   -2.0264 H   0  0  0  0  0  0  0  0  0  0  0  0
    3.2022    4.4994   -0.7482 H   0  0  0  0  0  0  0  0  0  0  0  0
    2.2711    5.1523    0.5985 H   0  0  0  0  0  0  0  0  0  0  0  0
    2.2603    3.4080    0.2844 H   0  0  0  0  0  0  0  0  0  0  0  0
  1  2  1  0  0  0  0 
  3  1  1  0  0  0  0 
  4  3  1  0  0  0  0 
  5  3  1  0  0  0  0 
  3  6  1  0  0  0  0 
  7  4  1  0  0  0  0 
  4  8  1  0  0  0  0 
  4 59  1  0  0  0  0 
  5  9  1  0  0  0  0 
 10  5  1  0  0  0  0 
  6 11  2  0  0  0  0 
 12  7  1  0  0  0  0 
  7 13  1  0  0  0  0 
  7 14  1  0  0  0  0 
  8 15  1  0  0  0  0 
  8 16  1  0  0  0  0 
  9 17  1  0  0  0  0 
 12 10  1  0  0  0  0 
 10 18  1  0  0  0  0 
 10 19  1  0  0  0  0 
 11 16  1  0  0  0  0 
 12 20  1  0  0  0  0 
 12 60  1  0  0  0  0 
 13 21  2  0  0  0  0 
 13 22  1  0  0  0  0 
 14 15  1  0  0  0  0 
 17 23  1  0  0  0  0 
 17 24  2  0  0  0  0 
 18 25  1  0  0  0  0 
 18 26  2  0  0  0  0 
 20 21  1  0  0  0  0 
 20 27  1  0  0  0  0 
 21 28  1  0  0  0  0 
 22 29  2  0  0  0  0 
 25 30  1  0  0  0  0 
 28 31  2  0  0  0  0 
 29 31  1  0  0  0  0 
 32 29  1  0  0  0  0 
 31 33  1  0  0  0  0 
 32 34  1  0  0  0  0 
 32 35  1  0  0  0  0 
 32 36  1  0  0  0  0 
 33 37  1  0  0  0  0 
 34 38  1  0  0  0  0 
 34 39  2  0  0  0  0 
 35 40  2  0  0  0  0 
 35 41  1  0  0  0  0 
 42 36  1  0  0  0  0 
 38 43  1  0  0  0  0 
 40 44  1  0  0  0  0 
 40 45  1  0  0  0  0 
 41 46  1  0  0  0  0 
 42 47  1  0  0  0  0 
 42 48  1  0  0  0  0 
 42 61  1  0  0  0  0 
 44 46  1  0  0  0  0 
 44 49  2  0  0  0  0 
 45 50  1  0  0  0  0 
 46 51  2  0  0  0  0 
 48 53  2  0  0  0  0 
 49 54  1  0  0  0  0 
 52 50  1  0  0  0  0 
 51 55  1  0  0  0  0 
 52 47  1  0  0  0  0 
 52 56  1  0  0  0  0 
 53 56  1  0  0  0  0 
 53 57  1  0  0  0  0 
 54 55  2  0  0  0  0 
 57 58  1  0  0  0  0 
  1 62  1  0  0  0  0 
  1 63  1  0  0  0  0 
  2 64  1  0  0  0  0 
  2 65  1  0  0  0  0 
  2 66  1  0  0  0  0 
  5 67  1  0  0  0  0 
  6 68  1  0  0  0  0 
 11 69  1  0  0  0  0 
 14 70  1  0  0  0  0 
 14 71  1  0  0  0  0 
 15 72  1  0  0  0  0 
 15 73  1  0  0  0  0 
 16 74  1  0  0  0  0 
 16 75  1  0  0  0  0 
 19 76  1  0  0  0  0 
 22 77  1  0  0  0  0 
 23 78  1  0  0  0  0 
 23 79  1  0  0  0  0 
 23 80  1  0  0  0  0 
 27 81  1  0  0  0  0 
 27 82  1  0  0  0  0 
 27 83  1  0  0  0  0 
 28 84  1  0  0  0  0 
 30 85  1  0  0  0  0 
 30 86  1  0  0  0  0 
 30 87  1  0  0  0  0 
 36 88  1  0  0  0  0 
 36 89  1  0  0  0  0 
 37 90  1  0  0  0  0 
 37 91  1  0  0  0  0 
 37 92  1  0  0  0  0 
 41 93  1  0  0  0  0 
 43 94  1  0  0  0  0 
 43 95  1  0  0  0  0 
 43 96  1  0  0  0  0 
 45 97  1  0  0  0  0 
 45 98  1  0  0  0  0 
 47 99  1  0  0  0  0 
 47100  1  0  0  0  0 
 48101  1  0  0  0  0 
 49102  1  0  0  0  0 
 50103  1  0  0  0  0 
 50104  1  0  0  0  0 
 51105  1  0  0  0  0 
 54106  1  0  0  0  0 
 55107  1  0  0  0  0 
 56108  1  0  0  0  0 
 56109  1  0  0  0  0 
 57110  1  0  0  0  0 
 57111  1  0  0  0  0 
 58112  1  0  0  0  0 
 58113  1  0  0  0  0 
 58114  1  0  0  0  0 
M  END
> <cdk:Title>
anhydrovinblastine

> <Conformer>
1

> <SuperDrugID>
SD000181

$$$$
