bisbentiamine
  CDK     0628171801

 96 99  0  0  0  0  0  0  0  0999 V2000
    0.2363    0.6957    0.0188 C   0  0  1  0  0  0  0  0  0  0  0  0
   -0.4609    0.7911    1.2907 N   0  0  0  0  0  0  0  0  0  0  0  0
    1.7035    0.4802    0.1219 C   0  0  0  0  0  0  0  0  0  0  0  0
   -0.5918   -0.3030    2.0873 C   0  0  0  0  0  0  0  0  0  0  0  0
   -1.1082    1.9495    1.6831 C   0  0  0  0  0  0  0  0  0  0  0  0
    2.3363   -0.7615   -0.1429 C   0  0  0  0  0  0  0  0  0  0  0  0
    2.5487    1.5709    0.4343 C   0  0  0  0  0  0  0  0  0  0  0  0
    0.0612   -0.4380    3.2772 C   0  0  0  0  0  0  0  0  0  0  0  0
   -1.5808   -1.2842    1.6221 C   0  0  0  0  0  0  0  0  0  0  0  0
   -1.0697    3.0160    1.0292 O   0  0  0  0  0  0  0  0  0  0  0  0
    1.6693   -1.9000   -0.4210 N   0  0  0  0  0  0  0  0  0  0  0  0
    3.6912   -0.8359   -0.1419 N   0  0  0  0  0  0  0  0  0  0  0  0
    3.8970    1.4284    0.4131 N   0  0  0  0  0  0  0  0  0  0  0  0
   -0.3911   -1.7201    4.3749 S   0  0  0  0  0  0  0  0  0  0  0  0
    1.0077    0.5702    3.7877 C   0  0  1  0  0  0  0  0  0  0  0  0
    4.4802    0.2413    0.1094 C   0  0  0  0  0  0  0  0  0  0  0  0
    1.3314   -2.6542    5.1315 S   0  0  0  0  0  0  0  0  0  0  0  0
    2.5158    0.1914    3.8415 C   0  0  1  0  0  0  0  0  0  0  0  0
    5.9439    0.1352    0.0419 C   0  0  0  0  0  0  0  0  0  0  0  0
    1.1168   -4.3393    4.7549 C   0  0  0  0  0  0  0  0  0  0  0  0
    2.9600    0.3690    5.1940 O   0  0  0  0  0  0  0  0  0  0  0  0
    1.4224   -4.8290    3.5222 C   0  0  0  0  0  0  0  0  0  0  0  0
    0.6016   -5.1485    5.8705 C   0  0  1  0  0  0  0  0  0  0  0  0
    4.2234    0.3148    5.7016 C   0  0  0  0  0  0  0  0  0  0  0  0
    1.3103   -6.1430    3.1967 N   0  0  0  0  0  0  0  0  0  0  0  0
    1.9514   -3.9718    2.4574 C   0  0  0  0  0  0  0  0  0  0  0  0
    1.5577   -5.2709    7.0843 C   0  0  2  0  0  0  0  0  0  0  0  0
    5.1762    0.0537    4.9275 O   0  0  0  0  0  0  0  0  0  0  0  0
    4.4341    0.5728    7.0869 C   0  0  0  0  0  0  0  0  0  0  0  0
    0.1272   -6.6309    2.5013 C   0  0  2  0  0  0  0  0  0  0  0  0
    2.3957   -6.9515    3.4575 C   0  0  0  0  0  0  0  0  0  0  0  0
    2.7526   -5.9703    6.7106 O   0  0  0  0  0  0  0  0  0  0  0  0
    5.7441    0.7278    7.6059 C   0  0  0  0  0  0  0  0  0  0  0  0
    3.3455    0.6905    7.9917 C   0  0  0  0  0  0  0  0  0  0  0  0
   -1.0256   -6.8839    3.4105 C   0  0  0  0  0  0  0  0  0  0  0  0
    2.4474   -8.1625    3.1437 O   0  0  0  0  0  0  0  0  0  0  0  0
    3.8775   -6.1220    7.4724 C   0  0  0  0  0  0  0  0  0  0  0  0
    5.9593    0.9922    8.9710 C   0  0  0  0  0  0  0  0  0  0  0  0
    3.5608    0.9523    9.3586 C   0  0  0  0  0  0  0  0  0  0  0  0
   -1.2103   -8.0999    4.1200 C   0  0  0  0  0  0  0  0  0  0  0  0
   -1.9977   -5.8804    3.6248 C   0  0  0  0  0  0  0  0  0  0  0  0
    3.9589   -5.5651    8.5937 O   0  0  0  0  0  0  0  0  0  0  0  0
    4.9586   -6.8837    6.9706 C   0  0  0  0  0  0  0  0  0  0  0  0
    4.8681    1.1097    9.8471 C   0  0  0  0  0  0  0  0  0  0  0  0
   -0.3681   -9.1462    4.0384 N   0  0  0  0  0  0  0  0  0  0  0  0
   -2.2799   -8.2540    4.9407 N   0  0  0  0  0  0  0  0  0  0  0  0
   -3.0416   -6.0954    4.4627 N   0  0  0  0  0  0  0  0  0  0  0  0
    4.7226   -7.9759    6.1009 C   0  0  0  0  0  0  0  0  0  0  0  0
    6.2960   -6.5761    7.3198 C   0  0  0  0  0  0  0  0  0  0  0  0
   -3.1975   -7.2711    5.1215 C   0  0  0  0  0  0  0  0  0  0  0  0
    5.7914   -8.7375    5.5933 C   0  0  0  0  0  0  0  0  0  0  0  0
    7.3659   -7.3329    6.8076 C   0  0  0  0  0  0  0  0  0  0  0  0
   -4.3490   -7.4641    6.0112 C   0  0  0  0  0  0  0  0  0  0  0  0
    7.1139   -8.4113    5.9410 C   0  0  0  0  0  0  0  0  0  0  0  0
   -0.2176   -0.0961   -0.5762 H   0  0  0  0  0  0  0  0  0  0  0  0
    0.0987    1.5924   -0.5915 H   0  0  0  0  0  0  0  0  0  0  0  0
   -1.6507    1.9773    2.5516 H   0  0  0  0  0  0  0  0  0  0  0  0
    2.1592    2.4906    0.6585 H   0  0  0  0  0  0  0  0  0  0  0  0
   -2.0558   -0.9915    0.6818 H   0  0  0  0  0  0  0  0  0  0  0  0
   -1.1121   -2.2579    1.4691 H   0  0  0  0  0  0  0  0  0  0  0  0
   -2.3848   -1.3848    2.3547 H   0  0  0  0  0  0  0  0  0  0  0  0
    2.1623   -2.7133   -0.6107 H   0  0  0  0  0  0  0  0  0  0  0  0
    0.7005   -1.9179   -0.4334 H   0  0  0  0  0  0  0  0  0  0  0  0
    0.9628    1.5002    3.2219 H   0  0  0  0  0  0  0  0  0  0  0  0
    0.6604    0.8492    4.7872 H   0  0  0  0  0  0  0  0  0  0  0  0
    2.7000   -0.8294    3.5079 H   0  0  0  0  0  0  0  0  0  0  0  0
    3.0978    0.8546    3.1942 H   0  0  0  0  0  0  0  0  0  0  0  0
    6.2472   -0.8674   -0.2641 H   0  0  0  0  0  0  0  0  0  0  0  0
    6.3285    0.8491   -0.6885 H   0  0  0  0  0  0  0  0  0  0  0  0
    6.3798    0.3544    1.0181 H   0  0  0  0  0  0  0  0  0  0  0  0
   -0.3414   -4.7121    6.2099 H   0  0  0  0  0  0  0  0  0  0  0  0
    0.3728   -6.1688    5.5726 H   0  0  0  0  0  0  0  0  0  0  0  0
    1.1882   -3.2656    2.1357 H   0  0  0  0  0  0  0  0  0  0  0  0
    2.2645   -4.5438    1.5820 H   0  0  0  0  0  0  0  0  0  0  0  0
    2.8261   -3.4159    2.8003 H   0  0  0  0  0  0  0  0  0  0  0  0
    1.0606   -5.8314    7.8825 H   0  0  0  0  0  0  0  0  0  0  0  0
    1.8078   -4.2812    7.4754 H   0  0  0  0  0  0  0  0  0  0  0  0
    0.3347   -7.5499    1.9484 H   0  0  0  0  0  0  0  0  0  0  0  0
   -0.1639   -5.9167    1.7238 H   0  0  0  0  0  0  0  0  0  0  0  0
    3.2276   -6.5704    3.9155 H   0  0  0  0  0  0  0  0  0  0  0  0
    6.5605    0.6558    6.9929 H   0  0  0  0  0  0  0  0  0  0  0  0
    2.3802    0.5854    7.6687 H   0  0  0  0  0  0  0  0  0  0  0  0
    6.9128    1.0991    9.3259 H   0  0  0  0  0  0  0  0  0  0  0  0
    2.7669    1.0273    9.9991 H   0  0  0  0  0  0  0  0  0  0  0  0
   -1.9210   -4.9713    3.1642 H   0  0  0  0  0  0  0  0  0  0  0  0
    5.0253    1.3078   10.8370 H   0  0  0  0  0  0  0  0  0  0  0  0
   -0.5334   -9.9414    4.5707 H   0  0  0  0  0  0  0  0  0  0  0  0
    0.4023   -9.1126    3.4526 H   0  0  0  0  0  0  0  0  0  0  0  0
    3.7682   -8.2345    5.8378 H   0  0  0  0  0  0  0  0  0  0  0  0
    6.5044   -5.7913    7.9424 H   0  0  0  0  0  0  0  0  0  0  0  0
    5.6084   -9.5306    4.9734 H   0  0  0  0  0  0  0  0  0  0  0  0
    8.3273   -7.0977    7.0644 H   0  0  0  0  0  0  0  0  0  0  0  0
   -5.2744   -7.3232    5.4504 H   0  0  0  0  0  0  0  0  0  0  0  0
   -4.3063   -6.7345    6.8200 H   0  0  0  0  0  0  0  0  0  0  0  0
   -4.3508   -8.4672    6.4416 H   0  0  0  0  0  0  0  0  0  0  0  0
    7.8919   -8.9586    5.5652 H   0  0  0  0  0  0  0  0  0  0  0  0
  1  2  1  0  0  0  0 
  1  3  1  0  0  0  0 
  2  4  1  0  0  0  0 
  2  5  1  0  0  0  0 
  3  6  2  0  0  0  0 
  3  7  1  0  0  0  0 
  4  8  2  0  0  0  0 
  4  9  1  0  0  0  0 
  5 10  2  0  0  0  0 
  6 11  1  0  0  0  0 
  6 12  1  0  0  0  0 
  7 13  2  0  0  0  0 
  8 14  1  0  0  0  0 
  8 15  1  0  0  0  0 
 12 16  2  0  0  0  0 
 13 16  1  0  0  0  0 
 14 17  1  0  0  0  0 
 15 18  1  0  0  0  0 
 16 19  1  0  0  0  0 
 17 20  1  0  0  0  0 
 18 21  1  0  0  0  0 
 20 22  2  0  0  0  0 
 20 23  1  0  0  0  0 
 21 24  1  0  0  0  0 
 22 25  1  0  0  0  0 
 22 26  1  0  0  0  0 
 23 27  1  0  0  0  0 
 24 28  2  0  0  0  0 
 24 29  1  0  0  0  0 
 25 30  1  0  0  0  0 
 25 31  1  0  0  0  0 
 27 32  1  0  0  0  0 
 29 33  2  0  0  0  0 
 29 34  1  0  0  0  0 
 30 35  1  0  0  0  0 
 31 36  2  0  0  0  0 
 32 37  1  0  0  0  0 
 33 38  1  0  0  0  0 
 34 39  2  0  0  0  0 
 35 40  2  0  0  0  0 
 35 41  1  0  0  0  0 
 37 42  2  0  0  0  0 
 37 43  1  0  0  0  0 
 38 44  2  0  0  0  0 
 39 44  1  0  0  0  0 
 40 45  1  0  0  0  0 
 40 46  1  0  0  0  0 
 41 47  2  0  0  0  0 
 43 48  2  0  0  0  0 
 43 49  1  0  0  0  0 
 46 50  2  0  0  0  0 
 47 50  1  0  0  0  0 
 48 51  1  0  0  0  0 
 49 52  2  0  0  0  0 
 50 53  1  0  0  0  0 
 51 54  2  0  0  0  0 
 52 54  1  0  0  0  0 
  1 55  1  0  0  0  0 
  1 56  1  0  0  0  0 
  5 57  1  0  0  0  0 
  7 58  1  0  0  0  0 
  9 59  1  0  0  0  0 
  9 60  1  0  0  0  0 
  9 61  1  0  0  0  0 
 11 62  1  0  0  0  0 
 11 63  1  0  0  0  0 
 15 64  1  0  0  0  0 
 15 65  1  0  0  0  0 
 18 66  1  0  0  0  0 
 18 67  1  0  0  0  0 
 19 68  1  0  0  0  0 
 19 69  1  0  0  0  0 
 19 70  1  0  0  0  0 
 23 71  1  0  0  0  0 
 23 72  1  0  0  0  0 
 26 73  1  0  0  0  0 
 26 74  1  0  0  0  0 
 26 75  1  0  0  0  0 
 27 76  1  0  0  0  0 
 27 77  1  0  0  0  0 
 30 78  1  0  0  0  0 
 30 79  1  0  0  0  0 
 31 80  1  0  0  0  0 
 33 81  1  0  0  0  0 
 34 82  1  0  0  0  0 
 38 83  1  0  0  0  0 
 39 84  1  0  0  0  0 
 41 85  1  0  0  0  0 
 44 86  1  0  0  0  0 
 45 87  1  0  0  0  0 
 45 88  1  0  0  0  0 
 48 89  1  0  0  0  0 
 49 90  1  0  0  0  0 
 51 91  1  0  0  0  0 
 52 92  1  0  0  0  0 
 53 93  1  0  0  0  0 
 53 94  1  0  0  0  0 
 53 95  1  0  0  0  0 
 54 96  1  0  0  0  0 
M  END
> <cdk:Title>
bisbentiamine

> <Conformer>
1

> <SuperDrugID>
SD000323

$$$$
