methylsulfonal
  CDK     0628171801

 32 31  0  0  0  0  0  0  0  0999 V2000
    2.0366    1.0407   -0.1164 C   0  0  1  0  0  0  0  0  0  0  0  0
    3.6613    0.1495   -0.1485 S   0  0  2  0  0  0  0  0  0  0  0  0
    1.5376    1.5515   -1.8294 S   0  0  2  0  0  0  0  0  0  0  0  0
    0.8896    0.1773    0.5148 C   0  0  1  0  0  0  0  0  0  0  0  0
    2.2435    2.3636    0.6882 C   0  0  0  0  0  0  0  0  0  0  0  0
    3.5847   -1.6254   -0.6282 C   0  0  1  0  0  0  0  0  0  0  0  0
    4.3707    0.2466    1.2887 O   0  0  0  0  0  0  0  0  0  0  0  0
    4.6398    0.8978   -1.1795 O   0  0  0  0  0  0  0  0  0  0  0  0
    1.2603    0.1739   -3.0144 C   0  0  2  0  0  0  0  0  0  0  0  0
    2.6223    2.5639   -2.4425 O   0  0  0  0  0  0  0  0  0  0  0  0
    0.1602    2.3716   -1.7239 O   0  0  0  0  0  0  0  0  0  0  0  0
    0.9915   -0.1282    2.0325 C   0  0  0  0  0  0  0  0  0  0  0  0
    3.2791   -2.6001    0.5310 C   0  0  0  0  0  0  0  0  0  0  0  0
    2.4764   -0.0970   -3.9263 C   0  0  0  0  0  0  0  0  0  0  0  0
   -0.0683    0.6810    0.3616 H   0  0  0  0  0  0  0  0  0  0  0  0
    0.8219   -0.7689   -0.0227 H   0  0  0  0  0  0  0  0  0  0  0  0
    2.5607    2.1619    1.7135 H   0  0  0  0  0  0  0  0  0  0  0  0
    3.0133    2.9879    0.2277 H   0  0  0  0  0  0  0  0  0  0  0  0
    1.3164    2.9401    0.7329 H   0  0  0  0  0  0  0  0  0  0  0  0
    2.8486   -1.7637   -1.4166 H   0  0  0  0  0  0  0  0  0  0  0  0
    4.5645   -1.8874   -1.0337 H   0  0  0  0  0  0  0  0  0  0  0  0
    0.4146    0.4454   -3.6500 H   0  0  0  0  0  0  0  0  0  0  0  0
    0.9834   -0.7277   -2.4702 H   0  0  0  0  0  0  0  0  0  0  0  0
    1.9870   -0.4747    2.3100 H   0  0  0  0  0  0  0  0  0  0  0  0
    0.2705   -0.9009    2.2992 H   0  0  0  0  0  0  0  0  0  0  0  0
    0.7588    0.7607    2.6214 H   0  0  0  0  0  0  0  0  0  0  0  0
    3.4942   -3.6220    0.2168 H   0  0  0  0  0  0  0  0  0  0  0  0
    3.8986   -2.3760    1.3999 H   0  0  0  0  0  0  0  0  0  0  0  0
    2.2293   -2.5469    0.8168 H   0  0  0  0  0  0  0  0  0  0  0  0
    2.2644   -0.9381   -4.5881 H   0  0  0  0  0  0  0  0  0  0  0  0
    2.6943    0.7787   -4.5423 H   0  0  0  0  0  0  0  0  0  0  0  0
    3.3577   -0.3353   -3.3334 H   0  0  0  0  0  0  0  0  0  0  0  0
  1  2  1  0  0  0  0 
  1  3  1  0  0  0  0 
  1  4  1  0  0  0  0 
  1  5  1  0  0  0  0 
  2  6  1  0  0  0  0 
  2  7  2  0  0  0  0 
  2  8  2  0  0  0  0 
  3  9  1  0  0  0  0 
  3 10  2  0  0  0  0 
  3 11  2  0  0  0  0 
  4 12  1  0  0  0  0 
  6 13  1  0  0  0  0 
  9 14  1  0  0  0  0 
  4 15  1  0  0  0  0 
  4 16  1  0  0  0  0 
  5 17  1  0  0  0  0 
  5 18  1  0  0  0  0 
  5 19  1  0  0  0  0 
  6 20  1  0  0  0  0 
  6 21  1  0  0  0  0 
  9 22  1  0  0  0  0 
  9 23  1  0  0  0  0 
 12 24  1  0  0  0  0 
 12 25  1  0  0  0  0 
 12 26  1  0  0  0  0 
 13 27  1  0  0  0  0 
 13 28  1  0  0  0  0 
 13 29  1  0  0  0  0 
 14 30  1  0  0  0  0 
 14 31  1  0  0  0  0 
 14 32  1  0  0  0  0 
M  END
> <cdk:Title>
methylsulfonal

> <Conformer>
1

> <SuperDrugID>
SD003069

$$$$
