fenadiazole
  CDK     0628171801

 18 19  0  0  0  0  0  0  0  0999 V2000
    2.2328    0.3185    1.4956 O   0  0  0  0  0  0  0  0  0  0  0  0
    2.3046    0.4292    0.1415 C   0  0  0  0  0  0  0  0  0  0  0  0
    3.5576    0.7293   -0.4350 C   0  0  0  0  0  0  0  0  0  0  0  0
    3.6834    0.8761   -1.8258 C   0  0  0  0  0  0  0  0  0  0  0  0
    2.5564    0.7219   -2.6488 C   0  0  0  0  0  0  0  0  0  0  0  0
    1.3075    0.4114   -2.0814 C   0  0  0  0  0  0  0  0  0  0  0  0
    1.1594    0.2532   -0.6799 C   0  0  0  0  0  0  0  0  0  0  0  0
   -0.1093   -0.0798   -0.1318 C   0  0  0  0  0  0  0  0  0  0  0  0
   -1.2436   -0.2681   -0.8322 N   0  0  0  0  0  0  0  0  0  0  0  0
   -2.2092   -0.5585   -0.0225 N   0  0  0  0  0  0  0  0  0  0  0  0
   -1.7058   -0.5593    1.2176 C   0  0  0  0  0  0  0  0  0  0  0  0
   -0.3918   -0.2659    1.1769 O   0  0  0  0  0  0  0  0  0  0  0  0
    3.1182    0.5675    1.8350 H   0  0  0  0  0  0  0  0  0  0  0  0
    4.3834    0.8386    0.1574 H   0  0  0  0  0  0  0  0  0  0  0  0
    4.5937    1.0944   -2.2384 H   0  0  0  0  0  0  0  0  0  0  0  0
    2.6453    0.8327   -3.6613 H   0  0  0  0  0  0  0  0  0  0  0  0
    0.5082    0.2987   -2.7113 H   0  0  0  0  0  0  0  0  0  0  0  0
   -2.2371   -0.7513    2.0672 H   0  0  0  0  0  0  0  0  0  0  0  0
  1  2  1  0  0  0  0 
  2  3  2  0  0  0  0 
  3  4  1  0  0  0  0 
  4  5  2  0  0  0  0 
  5  6  1  0  0  0  0 
  6  7  2  0  0  0  0 
  2  7  1  0  0  0  0 
  7  8  1  0  0  0  0 
  8  9  2  0  0  0  0 
  9 10  1  0  0  0  0 
 10 11  2  0  0  0  0 
 11 12  1  0  0  0  0 
  8 12  1  0  0  0  0 
  1 13  1  0  0  0  0 
  3 14  1  0  0  0  0 
  4 15  1  0  0  0  0 
  5 16  1  0  0  0  0 
  6 17  1  0  0  0  0 
 11 18  1  0  0  0  0 
M  END
> <cdk:Title>
fenadiazole

> <Conformer>
1

> <SuperDrugID>
SD003201

$$$$
