carbenicillin
  CDK     0628171802

 44 46  0  0  0  0  0  0  0  0999 V2000
   -2.9543    1.5807   -1.7506 C   0  0  0  0  0  0  0  0  0  0  0  0
   -3.2210    2.4270   -2.7741 O   0  0  0  0  0  0  0  0  0  0  0  0
   -2.5657    0.4197   -2.0135 O   0  0  0  0  0  0  0  0  0  0  0  0
   -3.0862    2.0650   -0.3571 C   0  0  2  0  0  0  0  0  0  0  0  0
   -1.8319    1.9358    0.2972 N   0  0  0  0  0  0  0  0  0  0  0  0
   -4.0789    1.3215    0.6220 C   0  0  2  0  0  0  0  0  0  0  0  0
   -1.3787    0.8173    1.0266 C   0  0  2  0  0  0  0  0  0  0  0  0
   -0.9293    2.7936    0.7556 C   0  0  0  0  0  0  0  0  0  0  0  0
   -2.9877    0.3189    1.7175 S   0  0  0  0  0  0  0  0  0  0  0  0
   -0.3842    1.8211    1.6992 C   0  0  1  0  0  0  0  0  0  0  0  0
   -0.7289    4.0147    0.5665 O   0  0  0  0  0  0  0  0  0  0  0  0
   -0.6914    2.2301    3.0344 N   0  0  0  0  0  0  0  0  0  0  0  0
    0.1894    2.3081    4.0729 C   0  0  0  0  0  0  0  0  0  0  0  0
   -0.1653    3.0275    5.3341 C   0  0  1  0  0  0  0  0  0  0  0  0
    1.3416    1.8256    3.9530 O   0  0  0  0  0  0  0  0  0  0  0  0
   -0.5674    4.4184    5.0072 C   0  0  0  0  0  0  0  0  0  0  0  0
   -1.1921    2.4156    6.2409 C   0  0  0  0  0  0  0  0  0  0  0  0
    0.1756    5.4701    5.4196 O   0  0  0  0  0  0  0  0  0  0  0  0
   -1.6189    4.6565    4.3686 O   0  0  0  0  0  0  0  0  0  0  0  0
   -1.3207    2.9265    7.5606 C   0  0  0  0  0  0  0  0  0  0  0  0
   -2.0628    1.3650    5.8547 C   0  0  0  0  0  0  0  0  0  0  0  0
   -2.2711    2.4100    8.4599 C   0  0  0  0  0  0  0  0  0  0  0  0
   -3.0113    0.8418    6.7533 C   0  0  0  0  0  0  0  0  0  0  0  0
   -3.1207    1.3677    8.0525 C   0  0  0  0  0  0  0  0  0  0  0  0
   -0.9206    0.0644    0.3765 H   0  0  0  0  0  0  0  0  0  0  0  0
   -5.1370    0.4092   -0.0715 C   0  0  0  0  0  0  0  0  0  0  0  0
   -4.8136    2.3404    1.5476 C   0  0  0  0  0  0  0  0  0  0  0  0
   -3.1118    2.1437   -3.7045 H   0  0  0  0  0  0  0  0  0  0  0  0
   -3.3508    3.1264   -0.4136 H   0  0  0  0  0  0  0  0  0  0  0  0
    0.6670    1.6037    1.4913 H   0  0  0  0  0  0  0  0  0  0  0  0
   -1.5968    2.5373    3.1968 H   0  0  0  0  0  0  0  0  0  0  0  0
    0.7577    3.0808    5.9251 H   0  0  0  0  0  0  0  0  0  0  0  0
   -0.1164    6.3843    5.2192 H   0  0  0  0  0  0  0  0  0  0  0  0
   -0.7202    3.6924    7.8799 H   0  0  0  0  0  0  0  0  0  0  0  0
   -2.0289    0.9673    4.9167 H   0  0  0  0  0  0  0  0  0  0  0  0
   -2.3442    2.7960    9.4064 H   0  0  0  0  0  0  0  0  0  0  0  0
   -3.6249    0.0774    6.4622 H   0  0  0  0  0  0  0  0  0  0  0  0
   -3.8176    0.9945    8.7012 H   0  0  0  0  0  0  0  0  0  0  0  0
   -5.8145   -0.0329    0.6623 H   0  0  0  0  0  0  0  0  0  0  0  0
   -5.7319    0.9953   -0.7743 H   0  0  0  0  0  0  0  0  0  0  0  0
   -4.6622   -0.4074   -0.6164 H   0  0  0  0  0  0  0  0  0  0  0  0
   -5.4252    1.8219    2.2915 H   0  0  0  0  0  0  0  0  0  0  0  0
   -5.4700    2.9814    0.9536 H   0  0  0  0  0  0  0  0  0  0  0  0
   -4.0967    2.9761    2.0747 H   0  0  0  0  0  0  0  0  0  0  0  0
  1  2  1  0  0  0  0 
  1  3  2  0  0  0  0 
  4  1  1  0  0  0  0 
  4  5  1  0  0  0  0 
  4  6  1  0  0  0  0 
  7  5  1  0  0  0  0 
  5  8  1  0  0  0  0 
  6  9  1  0  0  0  0 
  7  9  1  0  0  0  0 
 10  7  1  0  0  0  0 
  7 25  1  0  0  0  0 
 10  8  1  0  0  0  0 
  8 11  2  0  0  0  0 
 10 12  1  0  0  0  0 
 12 13  1  0  0  0  0 
 14 13  1  0  0  0  0 
 13 15  2  0  0  0  0 
 14 16  1  0  0  0  0 
 14 17  1  0  0  0  0 
 16 18  1  0  0  0  0 
 16 19  2  0  0  0  0 
 17 20  2  0  0  0  0 
 17 21  1  0  0  0  0 
 20 22  1  0  0  0  0 
 21 23  2  0  0  0  0 
 22 24  2  0  0  0  0 
 23 24  1  0  0  0  0 
  6 26  1  0  0  0  0 
  6 27  1  0  0  0  0 
  2 28  1  0  0  0  0 
  4 29  1  0  0  0  0 
 10 30  1  0  0  0  0 
 12 31  1  0  0  0  0 
 14 32  1  0  0  0  0 
 18 33  1  0  0  0  0 
 20 34  1  0  0  0  0 
 21 35  1  0  0  0  0 
 22 36  1  0  0  0  0 
 23 37  1  0  0  0  0 
 24 38  1  0  0  0  0 
 26 39  1  0  0  0  0 
 26 40  1  0  0  0  0 
 26 41  1  0  0  0  0 
 27 42  1  0  0  0  0 
 27 43  1  0  0  0  0 
 27 44  1  0  0  0  0 
M  END
> <cdk:Title>
carbenicillin

> <Conformer>
1

> <SuperDrugID>
SD000425

$$$$
