meprylcaine
  CDK     0628171801

 38 38  0  0  0  0  0  0  0  0999 V2000
   -0.8066   -1.0258   -0.6243 C   0  0  0  0  0  0  0  0  0  0  0  0
   -0.2252   -2.2675   -0.6232 O   0  0  0  0  0  0  0  0  0  0  0  0
   -2.0217   -0.9360   -0.9261 O   0  0  0  0  0  0  0  0  0  0  0  0
   -0.0598    0.1374   -0.2795 C   0  0  0  0  0  0  0  0  0  0  0  0
   -0.8985   -3.5215   -0.8333 C   0  0  2  0  0  0  0  0  0  0  0  0
    1.3239    0.0574    0.0228 C   0  0  0  0  0  0  0  0  0  0  0  0
   -0.6806    1.4117   -0.1956 C   0  0  0  0  0  0  0  0  0  0  0  0
    0.0946   -4.7295   -0.7969 C   0  0  1  0  0  0  0  0  0  0  0  0
    2.0515    1.2001    0.4077 C   0  0  0  0  0  0  0  0  0  0  0  0
    0.0447    2.5540    0.1902 C   0  0  0  0  0  0  0  0  0  0  0  0
    1.0811   -4.6262    0.3180 N   0  0  1  0  0  0  0  0  0  0  0  0
   -0.6785   -6.0844   -0.7268 C   0  0  0  0  0  0  0  0  0  0  0  0
    0.9624   -4.7146   -2.0932 C   0  0  0  0  0  0  0  0  0  0  0  0
    1.4122    2.4477    0.4968 C   0  0  0  0  0  0  0  0  0  0  0  0
    0.6175   -4.5710    1.7240 C   0  0  2  0  0  0  0  0  0  0  0  0
    1.8555   -4.4739    2.6456 C   0  0  1  0  0  0  0  0  0  0  0  0
    1.4890   -4.4173    4.1454 C   0  0  0  0  0  0  0  0  0  0  0  0
   -1.4289   -3.5022   -1.7912 H   0  0  0  0  0  0  0  0  0  0  0  0
   -1.6469   -3.6329   -0.0446 H   0  0  0  0  0  0  0  0  0  0  0  0
    1.8190   -0.8356   -0.0290 H   0  0  0  0  0  0  0  0  0  0  0  0
   -1.6754    1.5240   -0.4074 H   0  0  0  0  0  0  0  0  0  0  0  0
    3.0479    1.1236    0.6274 H   0  0  0  0  0  0  0  0  0  0  0  0
   -0.4220    3.4621    0.2523 H   0  0  0  0  0  0  0  0  0  0  0  0
    1.6910   -5.4435    0.2441 H   0  0  0  0  0  0  0  0  0  0  0  0
   -1.2986   -6.2269   -1.6133 H   0  0  0  0  0  0  0  0  0  0  0  0
    0.0214   -6.9200   -0.6576 H   0  0  0  0  0  0  0  0  0  0  0  0
   -1.3341   -6.1203    0.1441 H   0  0  0  0  0  0  0  0  0  0  0  0
    0.3375   -4.8002   -2.9855 H   0  0  0  0  0  0  0  0  0  0  0  0
    1.6707   -5.5473   -2.0967 H   0  0  0  0  0  0  0  0  0  0  0  0
    1.5349   -3.7871   -2.1672 H   0  0  0  0  0  0  0  0  0  0  0  0
    1.9390    3.2764    0.7823 H   0  0  0  0  0  0  0  0  0  0  0  0
    0.0596   -5.4754    1.9742 H   0  0  0  0  0  0  0  0  0  0  0  0
   -0.0217   -3.6987    1.8805 H   0  0  0  0  0  0  0  0  0  0  0  0
    2.4948   -5.3457    2.4741 H   0  0  0  0  0  0  0  0  0  0  0  0
    2.4263   -3.5771    2.3853 H   0  0  0  0  0  0  0  0  0  0  0  0
    2.4045   -4.3574    4.7374 H   0  0  0  0  0  0  0  0  0  0  0  0
    0.8759   -3.5388    4.3587 H   0  0  0  0  0  0  0  0  0  0  0  0
    0.9401   -5.3146    4.4407 H   0  0  0  0  0  0  0  0  0  0  0  0
  1  2  1  0  0  0  0 
  1  3  2  0  0  0  0 
  1  4  1  0  0  0  0 
  2  5  1  0  0  0  0 
  4  6  2  0  0  0  0 
  4  7  1  0  0  0  0 
  5  8  1  0  0  0  0 
  6  9  1  0  0  0  0 
  7 10  2  0  0  0  0 
  8 11  1  0  0  0  0 
  8 12  1  0  0  0  0 
  8 13  1  0  0  0  0 
  9 14  2  0  0  0  0 
 10 14  1  0  0  0  0 
 11 15  1  0  0  0  0 
 15 16  1  0  0  0  0 
 16 17  1  0  0  0  0 
  5 18  1  0  0  0  0 
  5 19  1  0  0  0  0 
  6 20  1  0  0  0  0 
  7 21  1  0  0  0  0 
  9 22  1  0  0  0  0 
 10 23  1  0  0  0  0 
 11 24  1  0  0  0  0 
 12 25  1  0  0  0  0 
 12 26  1  0  0  0  0 
 12 27  1  0  0  0  0 
 13 28  1  0  0  0  0 
 13 29  1  0  0  0  0 
 13 30  1  0  0  0  0 
 14 31  1  0  0  0  0 
 15 32  1  0  0  0  0 
 15 33  1  0  0  0  0 
 16 34  1  0  0  0  0 
 16 35  1  0  0  0  0 
 17 36  1  0  0  0  0 
 17 37  1  0  0  0  0 
 17 38  1  0  0  0  0 
M  END
> <cdk:Title>
meprylcaine

> <Conformer>
1

> <SuperDrugID>
SD003219

$$$$
