lomustine
  CDK     0628171801

 31 31  0  0  0  0  0  0  0  0999 V2000
   -1.6445   -0.8903   -0.2253 N   0  0  0  0  0  0  0  0  0  0  0  0
   -0.9282   -0.2482   -1.1986 C   0  0  0  0  0  0  0  0  0  0  0  0
   -2.9611   -1.4390   -0.3431 C   0  0  2  0  0  0  0  0  0  0  0  0
    0.3827    0.1231   -0.9607 N   0  0  0  0  0  0  0  0  0  0  0  0
   -1.4700   -0.0276   -2.3085 O   0  0  0  0  0  0  0  0  0  0  0  0
   -3.5706   -1.5630    1.0855 C   0  0  1  0  0  0  0  0  0  0  0  0
   -2.8942   -2.8289   -1.0437 C   0  0  2  0  0  0  0  0  0  0  0  0
    1.2482    0.7272   -1.9557 C   0  0  1  0  0  0  0  0  0  0  0  0
    0.9021   -0.1355    0.1780 N   0  0  0  0  0  0  0  0  0  0  0  0
   -4.9461   -2.2793    1.0723 C   0  0  2  0  0  0  0  0  0  0  0  0
   -4.2604   -3.5640   -1.0341 C   0  0  2  0  0  0  0  0  0  0  0  0
    1.8614    2.0811   -1.5205 C   0  0  2  0  0  0  0  0  0  0  0  0
    0.8170    0.5973    1.0837 O   0  0  0  0  0  0  0  0  0  0  0  0
   -4.8499   -3.6699    0.3956 C   0  0  2  0  0  0  0  0  0  0  0  0
    2.8469    2.7737   -2.8048 Cl  0  0  0  0  0  0  0  0  0  0  0  0
   -1.1944   -1.0272    0.6232 H   0  0  0  0  0  0  0  0  0  0  0  0
   -3.5988   -0.7688   -0.9306 H   0  0  0  0  0  0  0  0  0  0  0  0
   -2.8895   -2.1247    1.7338 H   0  0  0  0  0  0  0  0  0  0  0  0
   -3.6945   -0.5676    1.5194 H   0  0  0  0  0  0  0  0  0  0  0  0
   -2.1503   -3.4575   -0.5447 H   0  0  0  0  0  0  0  0  0  0  0  0
   -2.5764   -2.7011   -2.0822 H   0  0  0  0  0  0  0  0  0  0  0  0
    2.0615    0.0267   -2.1701 H   0  0  0  0  0  0  0  0  0  0  0  0
    0.7218    0.8933   -2.8993 H   0  0  0  0  0  0  0  0  0  0  0  0
   -5.6707   -1.6615    0.5339 H   0  0  0  0  0  0  0  0  0  0  0  0
   -5.3049   -2.3995    2.0975 H   0  0  0  0  0  0  0  0  0  0  0  0
   -4.1313   -4.5681   -1.4478 H   0  0  0  0  0  0  0  0  0  0  0  0
   -4.9617   -3.0251   -1.6767 H   0  0  0  0  0  0  0  0  0  0  0  0
    2.5023    1.9443   -0.6471 H   0  0  0  0  0  0  0  0  0  0  0  0
    1.0650    2.7867   -1.2705 H   0  0  0  0  0  0  0  0  0  0  0  0
   -5.8447   -4.1177    0.3468 H   0  0  0  0  0  0  0  0  0  0  0  0
   -4.2191   -4.3269    1.0003 H   0  0  0  0  0  0  0  0  0  0  0  0
  1  2  1  0  0  0  0 
  1  3  1  0  0  0  0 
  2  4  1  0  0  0  0 
  2  5  2  0  0  0  0 
  3  6  1  0  0  0  0 
  3  7  1  0  0  0  0 
  4  8  1  0  0  0  0 
  4  9  1  0  0  0  0 
  6 10  1  0  0  0  0 
  7 11  1  0  0  0  0 
  8 12  1  0  0  0  0 
  9 13  2  0  0  0  0 
 10 14  1  0  0  0  0 
 11 14  1  0  0  0  0 
 12 15  1  0  0  0  0 
 16  1  1  0  0  0  0 
 17  3  1  0  0  0  0 
 18  6  1  0  0  0  0 
 19  6  1  0  0  0  0 
 20  7  1  0  0  0  0 
 21  7  1  0  0  0  0 
 22  8  1  0  0  0  0 
 23  8  1  0  0  0  0 
 24 10  1  0  0  0  0 
 25 10  1  0  0  0  0 
 26 11  1  0  0  0  0 
 27 11  1  0  0  0  0 
 28 12  1  0  0  0  0 
 29 12  1  0  0  0  0 
 30 14  1  0  0  0  0 
 31 14  1  0  0  0  0 
M  END
> <cdk:Title>
lomustine

> <Conformer>
1

> <SuperDrugID>
SD001410

$$$$
