josamycin
  CDK     0628171801

127129  0  0  0  0  0  0  0  0999 V2000
   -1.2341   -1.7342    2.7178 O   0  0  0  0  0  0  0  0  0  0  0  0
   -0.6737   -0.4045    2.9352 C   0  0  2  0  0  0  0  0  0  0  0  0
   -0.4935   -2.7789    2.0398 C   0  0  1  0  0  0  0  0  0  0  0  0
   -1.2734    0.5897    1.8666 C   0  0  1  0  0  0  0  0  0  0  0  0
    0.8996   -0.3129    3.2496 C   0  0  1  0  0  0  0  0  0  0  0  0
   -1.4219   -3.9680    1.6681 C   0  0  2  0  0  0  0  0  0  0  0  0
    0.1233   -2.3406    0.8197 O   0  0  0  0  0  0  0  0  0  0  0  0
   -0.9398    0.0964    0.5508 O   0  0  0  0  0  0  0  0  0  0  0  0
   -2.7964    0.9696    2.0114 C   0  0  2  0  0  0  0  0  0  0  0  0
    1.6668    0.8896    2.5941 C   0  0  2  0  0  0  0  0  0  0  0  0
    1.2325   -0.4104    4.7963 C   0  0  1  0  0  0  0  0  0  0  0  0
   -1.8345   -4.6277    2.8661 O   0  0  0  0  0  0  0  0  0  0  0  0
   -0.8334   -5.0013    0.6201 C   0  0  1  0  0  0  0  0  0  0  0  0
    1.0955   -3.2619    0.2825 C   0  0  1  0  0  0  0  0  0  0  0  0
   -0.8804    1.0455   -0.5280 C   0  0  0  0  0  0  0  0  0  0  0  0
   -3.1165    1.3510    3.3643 O   0  0  0  0  0  0  0  0  0  0  0  0
   -3.8683   -0.0200    1.4571 C   0  0  1  0  0  0  0  0  0  0  0  0
    3.1380    0.7876    2.7060 C   0  0  0  0  0  0  0  0  0  0  0  0
    1.4772   -1.8589    5.3525 C   0  0  1  0  0  0  0  0  0  0  0  0
   -1.6453   -5.0186   -0.6683 N   0  0  1  0  0  0  0  0  0  0  0  0
    0.7196   -4.7791    0.4890 C   0  0  1  0  0  0  0  0  0  0  0  0
    1.3137   -2.8497   -1.1908 C   0  0  0  0  0  0  0  0  0  0  0  0
   -2.7438    2.4928    4.0167 C   0  0  0  0  0  0  0  0  0  0  0  0
   -4.3183   -1.1318    2.3235 C   0  0  0  0  0  0  0  0  0  0  0  0
    3.8115    1.6694    3.2857 O   0  0  0  0  0  0  0  0  0  0  0  0
    2.9114   -2.3675    5.0218 C   0  0  0  0  0  0  0  0  0  0  0  0
    1.1803   -1.9987    6.8890 C   0  0  1  0  0  0  0  0  0  0  0  0
   -1.0236   -5.6882   -1.8579 C   0  0  0  0  0  0  0  0  0  0  0  0
   -3.0379   -5.5605   -0.4914 C   0  0  0  0  0  0  0  0  0  0  0  0
    1.2725   -5.3209    1.7167 O   0  0  0  0  0  0  0  0  0  0  0  0
   -3.0718    2.6247    5.4446 C   0  0  0  0  0  0  0  0  0  0  0  0
   -2.1488    3.4190    3.4166 O   0  0  0  0  0  0  0  0  0  0  0  0
   -4.3253   -2.2925    1.8559 O   0  0  0  0  0  0  0  0  0  0  0  0
   -4.8319   -0.8941    3.5678 O   0  0  0  0  0  0  0  0  0  0  0  0
    1.9883   -1.0924    7.6425 O   0  0  0  0  0  0  0  0  0  0  0  0
   -0.2258   -1.7633    7.1878 C   0  0  0  0  0  0  0  0  0  0  0  0
    2.7018   -5.4263    1.8936 C   0  0  1  0  0  0  0  0  0  0  0  0
   -5.4184   -1.8504    4.4785 C   0  0  2  0  0  0  0  0  0  0  0  0
   -1.1962   -2.5998    6.7798 C   0  0  0  0  0  0  0  0  0  0  0  0
    2.9586   -6.7706    2.6245 C   0  0  2  0  0  0  0  0  0  0  0  0
    3.4451   -5.3585    0.6511 O   0  0  0  0  0  0  0  0  0  0  0  0
   -6.9069   -1.4719    4.6670 C   0  0  0  0  0  0  0  0  0  0  0  0
   -4.6778   -1.8513    5.8471 C   0  0  2  0  0  0  0  0  0  0  0  0
   -2.5006   -2.2730    6.8685 C   0  0  0  0  0  0  0  0  0  0  0  0
    4.4769   -7.0725    2.8168 C   0  0  1  0  0  0  0  0  0  0  0  0
    4.8767   -5.5181    0.7402 C   0  0  2  0  0  0  0  0  0  0  0  0
   -3.2910   -2.2753    5.7809 C   0  0  0  0  0  0  0  0  0  0  0  0
    5.0833   -6.3090    4.0327 C   0  0  0  0  0  0  0  0  0  0  0  0
    4.5992   -8.4572    3.1622 O   0  0  0  0  0  0  0  0  0  0  0  0
    5.2390   -6.8531    1.4649 C   0  0  2  0  0  0  0  0  0  0  0  0
    5.5958   -4.2396    1.2435 C   0  0  0  0  0  0  0  0  0  0  0  0
    4.8246   -7.8911    0.5537 O   0  0  0  0  0  0  0  0  0  0  0  0
    5.5311   -8.9426    0.0494 C   0  0  0  0  0  0  0  0  0  0  0  0
    4.8749   -9.8099   -0.9518 C   0  0  1  0  0  0  0  0  0  0  0  0
    6.6995   -9.1879    0.4295 O   0  0  0  0  0  0  0  0  0  0  0  0
    4.5072  -11.2312   -0.4205 C   0  0  2  0  0  0  0  0  0  0  0  0
    3.9936  -12.1340   -1.5773 C   0  0  0  0  0  0  0  0  0  0  0  0
    3.4589  -11.1823    0.7280 C   0  0  0  0  0  0  0  0  0  0  0  0
    0.2596   -3.1457    2.7374 H   0  0  0  0  0  0  0  0  0  0  0  0
    2.9864   -4.5973    2.5439 H   0  0  0  0  0  0  0  0  0  0  0  0
   -2.9375    1.8676    1.3958 H   0  0  0  0  0  0  0  0  0  0  0  0
   -1.1690   -0.1102    3.8586 H   0  0  0  0  0  0  0  0  0  0  0  0
   -0.7712    1.5448    2.0221 H   0  0  0  0  0  0  0  0  0  0  0  0
    1.3711   -1.1659    2.7732 H   0  0  0  0  0  0  0  0  0  0  0  0
   -2.3016   -3.5070    1.2353 H   0  0  0  0  0  0  0  0  0  0  0  0
    1.3285    1.8300    3.0383 H   0  0  0  0  0  0  0  0  0  0  0  0
    1.4589    0.9218    1.5226 H   0  0  0  0  0  0  0  0  0  0  0  0
    2.1198    0.1729    5.0457 H   0  0  0  0  0  0  0  0  0  0  0  0
    0.4386    0.0835    5.3574 H   0  0  0  0  0  0  0  0  0  0  0  0
   -1.0131   -5.0108    3.2411 H   0  0  0  0  0  0  0  0  0  0  0  0
   -0.9453   -6.0115    1.0379 H   0  0  0  0  0  0  0  0  0  0  0  0
    2.0377   -3.0544    0.7960 H   0  0  0  0  0  0  0  0  0  0  0  0
   -1.8605    1.4761   -0.7384 H   0  0  0  0  0  0  0  0  0  0  0  0
   -0.5446    0.5113   -1.4172 H   0  0  0  0  0  0  0  0  0  0  0  0
   -0.1663    1.8458   -0.3188 H   0  0  0  0  0  0  0  0  0  0  0  0
   -4.7747    0.5595    1.2511 H   0  0  0  0  0  0  0  0  0  0  0  0
   -3.5323   -0.4130    0.4944 H   0  0  0  0  0  0  0  0  0  0  0  0
    3.6259   -0.0191    2.3113 H   0  0  0  0  0  0  0  0  0  0  0  0
    0.7930   -2.5349    4.8388 H   0  0  0  0  0  0  0  0  0  0  0  0
    1.1213   -5.3930   -0.3184 H   0  0  0  0  0  0  0  0  0  0  0  0
    0.3706   -2.8752   -1.7352 H   0  0  0  0  0  0  0  0  0  0  0  0
    1.7061   -1.8319   -1.2366 H   0  0  0  0  0  0  0  0  0  0  0  0
    2.0302   -3.5134   -1.6784 H   0  0  0  0  0  0  0  0  0  0  0  0
    3.0513   -3.3842    5.3946 H   0  0  0  0  0  0  0  0  0  0  0  0
    3.6692   -1.7277    5.4780 H   0  0  0  0  0  0  0  0  0  0  0  0
    3.0825   -2.3811    3.9446 H   0  0  0  0  0  0  0  0  0  0  0  0
    1.4326   -3.0110    7.2247 H   0  0  0  0  0  0  0  0  0  0  0  0
   -0.1383   -5.1565   -2.1934 H   0  0  0  0  0  0  0  0  0  0  0  0
   -1.7026   -5.6962   -2.7133 H   0  0  0  0  0  0  0  0  0  0  0  0
   -0.7475   -6.7192   -1.6281 H   0  0  0  0  0  0  0  0  0  0  0  0
   -3.5608   -5.1145    0.3523 H   0  0  0  0  0  0  0  0  0  0  0  0
   -3.6420   -5.3463   -1.3755 H   0  0  0  0  0  0  0  0  0  0  0  0
   -3.0208   -6.6421   -0.3347 H   0  0  0  0  0  0  0  0  0  0  0  0
   -4.1533    2.5919    5.5962 H   0  0  0  0  0  0  0  0  0  0  0  0
   -2.6209    1.7946    5.9879 H   0  0  0  0  0  0  0  0  0  0  0  0
   -2.6818    3.5627    5.8484 H   0  0  0  0  0  0  0  0  0  0  0  0
    2.9099   -1.3379    7.4262 H   0  0  0  0  0  0  0  0  0  0  0  0
   -0.4710   -0.9130    7.6527 H   0  0  0  0  0  0  0  0  0  0  0  0
   -5.3854   -2.8664    4.0656 H   0  0  0  0  0  0  0  0  0  0  0  0
   -0.9517   -3.4605    6.3385 H   0  0  0  0  0  0  0  0  0  0  0  0
    2.5120   -7.5682    2.0225 H   0  0  0  0  0  0  0  0  0  0  0  0
    2.4466   -6.7687    3.5909 H   0  0  0  0  0  0  0  0  0  0  0  0
   -7.3998   -2.1874    5.3265 H   0  0  0  0  0  0  0  0  0  0  0  0
   -6.9910   -0.4748    5.1023 H   0  0  0  0  0  0  0  0  0  0  0  0
   -7.4227   -1.4763    3.7058 H   0  0  0  0  0  0  0  0  0  0  0  0
   -5.2031   -2.5299    6.5280 H   0  0  0  0  0  0  0  0  0  0  0  0
   -4.7165   -0.8379    6.2653 H   0  0  0  0  0  0  0  0  0  0  0  0
   -2.8616   -1.9881    7.7537 H   0  0  0  0  0  0  0  0  0  0  0  0
    5.2121   -5.6185   -0.2970 H   0  0  0  0  0  0  0  0  0  0  0  0
   -2.9191   -2.5666    4.9016 H   0  0  0  0  0  0  0  0  0  0  0  0
    6.1649   -6.4483    4.0751 H   0  0  0  0  0  0  0  0  0  0  0  0
    4.6590   -6.6879    4.9649 H   0  0  0  0  0  0  0  0  0  0  0  0
    4.8729   -5.2444    3.9946 H   0  0  0  0  0  0  0  0  0  0  0  0
    5.5631   -8.6157    3.2562 H   0  0  0  0  0  0  0  0  0  0  0  0
    6.3206   -6.9053    1.6288 H   0  0  0  0  0  0  0  0  0  0  0  0
    5.2321   -3.9179    2.2154 H   0  0  0  0  0  0  0  0  0  0  0  0
    6.6721   -4.4143    1.3097 H   0  0  0  0  0  0  0  0  0  0  0  0
    5.4207   -3.4242    0.5377 H   0  0  0  0  0  0  0  0  0  0  0  0
    3.9643   -9.3191   -1.3079 H   0  0  0  0  0  0  0  0  0  0  0  0
    5.5465   -9.8956   -1.8109 H   0  0  0  0  0  0  0  0  0  0  0  0
    5.4155  -11.6977   -0.0242 H   0  0  0  0  0  0  0  0  0  0  0  0
    4.7459  -12.2107   -2.3652 H   0  0  0  0  0  0  0  0  0  0  0  0
    3.7859  -13.1417   -1.2111 H   0  0  0  0  0  0  0  0  0  0  0  0
    3.0774  -11.7240   -2.0087 H   0  0  0  0  0  0  0  0  0  0  0  0
    3.8519  -10.6313    1.5831 H   0  0  0  0  0  0  0  0  0  0  0  0
    2.5399  -10.6966    0.3920 H   0  0  0  0  0  0  0  0  0  0  0  0
    3.2153  -12.1919    1.0657 H   0  0  0  0  0  0  0  0  0  0  0  0
  3  1  1  0  0  0  0 
  2  1  1  0  0  0  0 
  4  2  1  0  0  0  0 
  2  5  1  0  0  0  0 
  6  3  1  0  0  0  0 
  3  7  1  0  0  0  0 
  3 59  1  0  0  0  0 
  4  8  1  0  0  0  0 
  9  4  1  0  0  0  0 
  5 10  1  0  0  0  0 
  5 11  1  0  0  0  0 
  6 12  1  0  0  0  0 
 13  6  1  0  0  0  0 
 14  7  1  0  0  0  0 
  8 15  1  0  0  0  0 
  9 16  1  0  0  0  0 
  9 17  1  0  0  0  0 
  9 61  1  0  0  0  0 
 10 18  1  0  0  0  0 
 19 11  1  0  0  0  0 
 13 20  1  0  0  0  0 
 21 13  1  0  0  0  0 
 21 14  1  0  0  0  0 
 14 22  1  0  0  0  0 
 16 23  1  0  0  0  0 
 17 24  1  0  0  0  0 
 18 25  2  0  0  0  0 
 19 26  1  0  0  0  0 
 27 19  1  0  0  0  0 
 20 28  1  0  0  0  0 
 20 29  1  0  0  0  0 
 21 30  1  0  0  0  0 
 23 31  1  0  0  0  0 
 23 32  2  0  0  0  0 
 24 33  2  0  0  0  0 
 24 34  1  0  0  0  0 
 27 35  1  0  0  0  0 
 27 36  1  0  0  0  0 
 37 30  1  0  0  0  0 
 38 34  1  0  0  0  0 
 36 39  2  0  0  0  0 
 37 40  1  0  0  0  0 
 37 41  1  0  0  0  0 
 37 60  1  0  0  0  0 
 38 42  1  0  0  0  0 
 38 43  1  0  0  0  0 
 39 44  1  0  0  0  0 
 45 40  1  0  0  0  0 
 46 41  1  0  0  0  0 
 43 47  1  0  0  0  0 
 44 47  2  0  0  0  0 
 45 48  1  0  0  0  0 
 45 49  1  0  0  0  0 
 50 45  1  0  0  0  0 
 50 46  1  0  0  0  0 
 46 51  1  0  0  0  0 
 50 52  1  0  0  0  0 
 52 53  1  0  0  0  0 
 53 54  1  0  0  0  0 
 53 55  2  0  0  0  0 
 54 56  1  0  0  0  0 
 56 57  1  0  0  0  0 
 56 58  1  0  0  0  0 
  2 62  1  0  0  0  0 
  4 63  1  0  0  0  0 
  5 64  1  0  0  0  0 
  6 65  1  0  0  0  0 
 10 66  1  0  0  0  0 
 10 67  1  0  0  0  0 
 11 68  1  0  0  0  0 
 11 69  1  0  0  0  0 
 12 70  1  0  0  0  0 
 13 71  1  0  0  0  0 
 14 72  1  0  0  0  0 
 15 73  1  0  0  0  0 
 15 74  1  0  0  0  0 
 15 75  1  0  0  0  0 
 17 76  1  0  0  0  0 
 17 77  1  0  0  0  0 
 18 78  1  0  0  0  0 
 19 79  1  0  0  0  0 
 21 80  1  0  0  0  0 
 22 81  1  0  0  0  0 
 22 82  1  0  0  0  0 
 22 83  1  0  0  0  0 
 26 84  1  0  0  0  0 
 26 85  1  0  0  0  0 
 26 86  1  0  0  0  0 
 27 87  1  0  0  0  0 
 28 88  1  0  0  0  0 
 28 89  1  0  0  0  0 
 28 90  1  0  0  0  0 
 29 91  1  0  0  0  0 
 29 92  1  0  0  0  0 
 29 93  1  0  0  0  0 
 31 94  1  0  0  0  0 
 31 95  1  0  0  0  0 
 31 96  1  0  0  0  0 
 35 97  1  0  0  0  0 
 36 98  1  0  0  0  0 
 38 99  1  0  0  0  0 
 39100  1  0  0  0  0 
 40101  1  0  0  0  0 
 40102  1  0  0  0  0 
 42103  1  0  0  0  0 
 42104  1  0  0  0  0 
 42105  1  0  0  0  0 
 43106  1  0  0  0  0 
 43107  1  0  0  0  0 
 44108  1  0  0  0  0 
 46109  1  0  0  0  0 
 47110  1  0  0  0  0 
 48111  1  0  0  0  0 
 48112  1  0  0  0  0 
 48113  1  0  0  0  0 
 49114  1  0  0  0  0 
 50115  1  0  0  0  0 
 51116  1  0  0  0  0 
 51117  1  0  0  0  0 
 51118  1  0  0  0  0 
 54119  1  0  0  0  0 
 54120  1  0  0  0  0 
 56121  1  0  0  0  0 
 57122  1  0  0  0  0 
 57123  1  0  0  0  0 
 57124  1  0  0  0  0 
 58125  1  0  0  0  0 
 58126  1  0  0  0  0 
 58127  1  0  0  0  0 
M  END
> <cdk:Title>
josamycin

> <Conformer>
1

> <SuperDrugID>
SD001342

$$$$
