dextromoramide
  CDK     0628171802

 61 64  0  0  0  0  0  0  0  0999 V2000
   -0.5034   -1.9223   -0.0880 C   0  0  1  0  0  0  0  0  0  0  0  0
   -0.8714   -1.2823    1.2480 C   0  0  0  0  0  0  0  0  0  0  0  0
    0.9975   -1.4624   -0.5010 C   0  0  1  0  0  0  0  0  0  0  0  0
   -0.4957   -3.4618   -0.1215 C   0  0  0  0  0  0  0  0  0  0  0  0
   -1.6084   -1.3359   -1.0077 C   0  0  0  0  0  0  0  0  0  0  0  0
   -0.6048   -0.0526    1.3166 O   0  0  0  0  0  0  0  0  0  0  0  0
   -1.5237   -1.8146    2.3662 N   0  0  0  0  0  0  0  0  0  0  0  0
    2.1329   -1.5128    0.6073 C   0  0  2  0  0  0  0  0  0  0  0  0
    1.4864   -2.1706   -1.8187 C   0  0  0  0  0  0  0  0  0  0  0  0
   -1.2191   -4.2297   -1.0858 C   0  0  0  0  0  0  0  0  0  0  0  0
    0.3279   -4.2191    0.7599 C   0  0  0  0  0  0  0  0  0  0  0  0
   -1.3707   -0.5108   -2.1491 C   0  0  0  0  0  0  0  0  0  0  0  0
   -2.9881   -1.6046   -0.7435 C   0  0  0  0  0  0  0  0  0  0  0  0
   -1.8525   -0.9911    3.5020 C   0  0  1  0  0  0  0  0  0  0  0  0
   -2.0026   -3.1551    2.5730 C   0  0  1  0  0  0  0  0  0  0  0  0
    3.0823   -0.3380    0.6794 N   0  0  1  0  0  0  0  0  0  0  0  0
   -1.1708   -5.6352   -1.1296 C   0  0  0  0  0  0  0  0  0  0  0  0
    0.4139   -5.6241    0.7006 C   0  0  0  0  0  0  0  0  0  0  0  0
   -2.4084   -0.0374   -2.9754 C   0  0  0  0  0  0  0  0  0  0  0  0
   -4.0330   -1.1458   -1.5677 C   0  0  0  0  0  0  0  0  0  0  0  0
   -2.3770   -1.9325    4.5962 C   0  0  1  0  0  0  0  0  0  0  0  0
   -2.9617   -3.0811    3.7722 C   0  0  1  0  0  0  0  0  0  0  0  0
    3.8201   -0.2772    1.9876 C   0  0  1  0  0  0  0  0  0  0  0  0
    4.0178   -0.2066   -0.4853 C   0  0  2  0  0  0  0  0  0  0  0  0
   -0.3522   -6.3352   -0.2332 C   0  0  0  0  0  0  0  0  0  0  0  0
   -3.7406   -0.3687   -2.6969 C   0  0  0  0  0  0  0  0  0  0  0  0
    4.7795    0.9360    2.0582 C   0  0  1  0  0  0  0  0  0  0  0  0
    5.0314    0.9580   -0.3244 C   0  0  2  0  0  0  0  0  0  0  0  0
    5.6975    0.9069    0.9506 O   0  0  0  0  0  0  0  0  0  0  0  0
    0.9437   -0.3953   -0.7248 H   0  0  0  0  0  0  0  0  0  0  0  0
    2.7175   -2.4312    0.5124 H   0  0  0  0  0  0  0  0  0  0  0  0
    1.6526   -1.5748    1.5827 H   0  0  0  0  0  0  0  0  0  0  0  0
    1.9692   -3.1263   -1.6033 H   0  0  0  0  0  0  0  0  0  0  0  0
    2.1794   -1.5471   -2.3754 H   0  0  0  0  0  0  0  0  0  0  0  0
    0.6600   -2.3799   -2.4955 H   0  0  0  0  0  0  0  0  0  0  0  0
   -1.7914   -3.7838   -1.8027 H   0  0  0  0  0  0  0  0  0  0  0  0
    0.8736   -3.7556    1.4819 H   0  0  0  0  0  0  0  0  0  0  0  0
   -0.4328   -0.2283   -2.4236 H   0  0  0  0  0  0  0  0  0  0  0  0
   -3.2562   -2.1540    0.0690 H   0  0  0  0  0  0  0  0  0  0  0  0
   -0.9875   -0.4357    3.8738 H   0  0  0  0  0  0  0  0  0  0  0  0
   -2.6370   -0.2833    3.2151 H   0  0  0  0  0  0  0  0  0  0  0  0
   -2.5314   -3.5725    1.7149 H   0  0  0  0  0  0  0  0  0  0  0  0
   -1.1773   -3.8115    2.8507 H   0  0  0  0  0  0  0  0  0  0  0  0
   -1.7231   -6.1495   -1.8229 H   0  0  0  0  0  0  0  0  0  0  0  0
    1.0303   -6.1318    1.3387 H   0  0  0  0  0  0  0  0  0  0  0  0
   -2.1929    0.5502   -3.7847 H   0  0  0  0  0  0  0  0  0  0  0  0
   -5.0052   -1.3736   -1.3436 H   0  0  0  0  0  0  0  0  0  0  0  0
   -1.5535   -2.2900    5.2234 H   0  0  0  0  0  0  0  0  0  0  0  0
   -3.1334   -1.4576    5.2257 H   0  0  0  0  0  0  0  0  0  0  0  0
   -3.9730   -2.8298    3.4373 H   0  0  0  0  0  0  0  0  0  0  0  0
   -2.9906   -4.0183    4.3345 H   0  0  0  0  0  0  0  0  0  0  0  0
    3.1122   -0.1860    2.8159 H   0  0  0  0  0  0  0  0  0  0  0  0
    4.4023   -1.1928    2.1330 H   0  0  0  0  0  0  0  0  0  0  0  0
    3.4512    0.0054   -1.3890 H   0  0  0  0  0  0  0  0  0  0  0  0
    4.5719   -1.1383   -0.6290 H   0  0  0  0  0  0  0  0  0  0  0  0
   -0.3122   -7.3574   -0.2678 H   0  0  0  0  0  0  0  0  0  0  0  0
   -4.4904   -0.0405   -3.3106 H   0  0  0  0  0  0  0  0  0  0  0  0
    4.2143    1.8733    2.0635 H   0  0  0  0  0  0  0  0  0  0  0  0
    5.3597    0.8920    2.9827 H   0  0  0  0  0  0  0  0  0  0  0  0
    4.5259    1.9210   -0.4455 H   0  0  0  0  0  0  0  0  0  0  0  0
    5.7931    0.8877   -1.1048 H   0  0  0  0  0  0  0  0  0  0  0  0
  1  2  1  0  0  0  0 
  3  1  1  0  0  0  0 
  1  4  1  0  0  0  0 
  1  5  1  0  0  0  0 
  2  6  2  0  0  0  0 
  2  7  1  0  0  0  0 
  3  8  1  0  0  0  0 
  3  9  1  0  0  0  0 
  4 10  2  0  0  0  0 
  4 11  1  0  0  0  0 
  5 12  2  0  0  0  0 
  5 13  1  0  0  0  0 
  7 14  1  0  0  0  0 
  7 15  1  0  0  0  0 
  8 16  1  0  0  0  0 
 10 17  1  0  0  0  0 
 11 18  2  0  0  0  0 
 12 19  1  0  0  0  0 
 13 20  2  0  0  0  0 
 14 21  1  0  0  0  0 
 15 22  1  0  0  0  0 
 16 23  1  0  0  0  0 
 16 24  1  0  0  0  0 
 17 25  2  0  0  0  0 
 18 25  1  0  0  0  0 
 19 26  2  0  0  0  0 
 20 26  1  0  0  0  0 
 21 22  1  0  0  0  0 
 23 27  1  0  0  0  0 
 24 28  1  0  0  0  0 
 27 29  1  0  0  0  0 
 28 29  1  0  0  0  0 
  3 30  1  0  0  0  0 
  8 31  1  0  0  0  0 
  8 32  1  0  0  0  0 
  9 33  1  0  0  0  0 
  9 34  1  0  0  0  0 
  9 35  1  0  0  0  0 
 10 36  1  0  0  0  0 
 11 37  1  0  0  0  0 
 12 38  1  0  0  0  0 
 13 39  1  0  0  0  0 
 14 40  1  0  0  0  0 
 14 41  1  0  0  0  0 
 15 42  1  0  0  0  0 
 15 43  1  0  0  0  0 
 17 44  1  0  0  0  0 
 18 45  1  0  0  0  0 
 19 46  1  0  0  0  0 
 20 47  1  0  0  0  0 
 21 48  1  0  0  0  0 
 21 49  1  0  0  0  0 
 22 50  1  0  0  0  0 
 22 51  1  0  0  0  0 
 23 52  1  0  0  0  0 
 23 53  1  0  0  0  0 
 24 54  1  0  0  0  0 
 24 55  1  0  0  0  0 
 25 56  1  0  0  0  0 
 26 57  1  0  0  0  0 
 27 58  1  0  0  0  0 
 27 59  1  0  0  0  0 
 28 60  1  0  0  0  0 
 28 61  1  0  0  0  0 
M  END
> <cdk:Title>
dextromoramide

> <Conformer>
1

> <SuperDrugID>
SD000747

$$$$
