sultosilic acid
  CDK     0628171801

 34 35  0  0  0  0  0  0  0  0999 V2000
    4.0751   -0.2471    1.3995 O   0  0  0  0  0  0  0  0  0  0  0  0
    4.1225   -1.9438    1.7110 S   0  0  1  0  0  0  0  0  0  0  0  0
    3.3888    0.0763    0.2672 C   0  0  0  0  0  0  0  0  0  0  0  0
    5.6016   -2.4577    1.3622 O   0  0  0  0  0  0  0  0  0  0  0  0
    3.8756   -2.1314    3.2851 O   0  0  0  0  0  0  0  0  0  0  0  0
    2.9129   -2.8352    0.7748 C   0  0  0  0  0  0  0  0  0  0  0  0
    1.9883    0.2321    0.3002 C   0  0  0  0  0  0  0  0  0  0  0  0
    4.0802    0.2822   -0.9417 C   0  0  0  0  0  0  0  0  0  0  0  0
    3.2065   -3.2339   -0.5446 C   0  0  0  0  0  0  0  0  0  0  0  0
    1.6393   -3.1055    1.3173 C   0  0  0  0  0  0  0  0  0  0  0  0
    1.2692    0.5704   -0.8669 C   0  0  0  0  0  0  0  0  0  0  0  0
    3.3770    0.6522   -2.1024 C   0  0  0  0  0  0  0  0  0  0  0  0
    2.2346   -3.8896   -1.3192 C   0  0  0  0  0  0  0  0  0  0  0  0
    0.6643   -3.7534    0.5377 C   0  0  0  0  0  0  0  0  0  0  0  0
   -0.4968    0.6857   -0.7894 S   0  0  1  0  0  0  0  0  0  0  0  0
    1.9763    0.7969   -2.0732 C   0  0  0  0  0  0  0  0  0  0  0  0
    0.9507   -4.1523   -0.7889 C   0  0  0  0  0  0  0  0  0  0  0  0
   -0.9695    2.2177   -0.8088 O   0  0  0  0  0  0  0  0  0  0  0  0
   -1.1696   -0.0858   -2.0237 O   0  0  0  0  0  0  0  0  0  0  0  0
   -1.0934   -0.0359    0.6456 O   0  0  0  0  0  0  0  0  0  0  0  0
    1.3578    1.1464   -3.2319 O   0  0  0  0  0  0  0  0  0  0  0  0
   -0.0897   -4.8303   -1.5941 C   0  0  0  0  0  0  0  0  0  0  0  0
    1.5002    0.0885    1.1864 H   0  0  0  0  0  0  0  0  0  0  0  0
    5.0955    0.1649   -0.9804 H   0  0  0  0  0  0  0  0  0  0  0  0
    4.1232   -3.0425   -0.9535 H   0  0  0  0  0  0  0  0  0  0  0  0
    1.4082   -2.8244    2.2728 H   0  0  0  0  0  0  0  0  0  0  0  0
    3.8898    0.8213   -2.9728 H   0  0  0  0  0  0  0  0  0  0  0  0
    2.4732   -4.1688   -2.2738 H   0  0  0  0  0  0  0  0  0  0  0  0
   -0.2592   -3.9291    0.9435 H   0  0  0  0  0  0  0  0  0  0  0  0
   -0.7481    0.5258    1.3705 H   0  0  0  0  0  0  0  0  0  0  0  0
    0.5061    1.5566   -2.9743 H   0  0  0  0  0  0  0  0  0  0  0  0
   -0.9743   -4.1924   -1.6631 H   0  0  0  0  0  0  0  0  0  0  0  0
   -0.3646   -5.7721   -1.1157 H   0  0  0  0  0  0  0  0  0  0  0  0
    0.2533   -5.0480   -2.6078 H   0  0  0  0  0  0  0  0  0  0  0  0
  1  2  1  0  0  0  0 
  1  3  1  0  0  0  0 
  2  4  2  0  0  0  0 
  2  5  2  0  0  0  0 
  2  6  1  0  0  0  0 
  3  7  2  0  0  0  0 
  3  8  1  0  0  0  0 
  6  9  2  0  0  0  0 
  6 10  1  0  0  0  0 
  7 11  1  0  0  0  0 
  8 12  2  0  0  0  0 
  9 13  1  0  0  0  0 
 10 14  2  0  0  0  0 
 11 15  1  0  0  0  0 
 11 16  2  0  0  0  0 
 12 16  1  0  0  0  0 
 13 17  2  0  0  0  0 
 14 17  1  0  0  0  0 
 15 18  2  0  0  0  0 
 15 19  2  0  0  0  0 
 15 20  1  0  0  0  0 
 16 21  1  0  0  0  0 
 17 22  1  0  0  0  0 
  7 23  1  0  0  0  0 
  8 24  1  0  0  0  0 
  9 25  1  0  0  0  0 
 10 26  1  0  0  0  0 
 12 27  1  0  0  0  0 
 13 28  1  0  0  0  0 
 14 29  1  0  0  0  0 
 20 30  1  0  0  0  0 
 21 31  1  0  0  0  0 
 22 32  1  0  0  0  0 
 22 33  1  0  0  0  0 
 22 34  1  0  0  0  0 
M  END
> <cdk:Title>
sultosilic acid

> <Conformer>
1

> <SuperDrugID>
SD002287

$$$$
