tadalafil
  CDK     0628171801

 48 53  0  0  0  0  0  0  0  0999 V2000
   -1.5622   -5.7239   -0.0793 C   0  0  2  0  0  0  0  0  0  0  0  0
   -1.7489   -4.9537    1.1644 C   0  0  0  0  0  0  0  0  0  0  0  0
   -2.0310   -3.5869    1.1854 C   0  0  0  0  0  0  0  0  0  0  0  0
   -2.2052   -2.7871   -0.0617 C   0  0  2  0  0  0  0  0  0  0  0  0
   -1.6832   -3.5288   -1.2306 N   0  0  0  0  0  0  0  0  0  0  0  0
   -2.0955   -4.9326   -1.3207 C   0  0  1  0  0  0  0  0  0  0  0  0
   -1.7510   -5.6614   -2.5724 C   0  0  0  0  0  0  0  0  0  0  0  0
   -0.8677   -2.9976   -2.2184 C   0  0  0  0  0  0  0  0  0  0  0  0
   -0.4335   -3.7701   -3.4057 C   0  0  2  0  0  0  0  0  0  0  0  0
   -0.9421   -5.1125   -3.5391 N   0  0  0  0  0  0  0  0  0  0  0  0
   -2.1319   -3.1911    2.4709 N   0  0  0  0  0  0  0  0  0  0  0  0
   -1.9043   -4.2430    3.2751 C   0  0  0  0  0  0  0  0  0  0  0  0
   -1.6722   -5.3728    2.4895 C   0  0  0  0  0  0  0  0  0  0  0  0
   -1.8715   -4.3200    4.6775 C   0  0  0  0  0  0  0  0  0  0  0  0
   -1.6078   -5.5715    5.2767 C   0  0  0  0  0  0  0  0  0  0  0  0
   -1.3970   -6.7207    4.4793 C   0  0  0  0  0  0  0  0  0  0  0  0
   -1.4253   -6.6312    3.0707 C   0  0  0  0  0  0  0  0  0  0  0  0
   -2.2410   -6.8098   -2.7102 O   0  0  0  0  0  0  0  0  0  0  0  0
   -0.5529   -5.8360   -4.7310 C   0  0  0  0  0  0  0  0  0  0  0  0
   -0.4404   -1.8196   -2.1950 O   0  0  0  0  0  0  0  0  0  0  0  0
   -1.7908   -1.3537    0.1316 C   0  0  0  0  0  0  0  0  0  0  0  0
   -0.5327   -1.0115    0.6974 C   0  0  0  0  0  0  0  0  0  0  0  0
   -0.1798    0.3420    0.8457 C   0  0  0  0  0  0  0  0  0  0  0  0
   -1.0348    1.3525    0.4373 C   0  0  0  0  0  0  0  0  0  0  0  0
   -2.2802    1.0519   -0.1347 C   0  0  0  0  0  0  0  0  0  0  0  0
   -2.6513   -0.2996   -0.2853 C   0  0  0  0  0  0  0  0  0  0  0  0
   -0.5170    2.5750    0.6600 O   0  0  0  0  0  0  0  0  0  0  0  0
    0.8072    2.2533    1.1259 C   0  0  1  0  0  0  0  0  0  0  0  0
    0.9588    0.8398    1.3649 O   0  0  0  0  0  0  0  0  0  0  0  0
   -2.0939   -6.6754    0.0102 H   0  0  0  0  0  0  0  0  0  0  0  0
   -0.4931   -5.9305   -0.1852 H   0  0  0  0  0  0  0  0  0  0  0  0
   -3.2917   -2.7807   -0.1978 H   0  0  0  0  0  0  0  0  0  0  0  0
   -3.1913   -4.9421   -1.2816 H   0  0  0  0  0  0  0  0  0  0  0  0
    0.6601   -3.8117   -3.3968 H   0  0  0  0  0  0  0  0  0  0  0  0
   -0.7422   -3.2017   -4.2894 H   0  0  0  0  0  0  0  0  0  0  0  0
   -2.3280   -2.2883    2.7655 H   0  0  0  0  0  0  0  0  0  0  0  0
   -2.0310   -3.4877    5.2485 H   0  0  0  0  0  0  0  0  0  0  0  0
   -1.5707   -5.6470    6.2956 H   0  0  0  0  0  0  0  0  0  0  0  0
   -1.2227   -7.6236    4.9270 H   0  0  0  0  0  0  0  0  0  0  0  0
   -1.2720   -7.4600    2.4916 H   0  0  0  0  0  0  0  0  0  0  0  0
    0.5342   -5.9380   -4.7528 H   0  0  0  0  0  0  0  0  0  0  0  0
   -0.8683   -5.2882   -5.6220 H   0  0  0  0  0  0  0  0  0  0  0  0
   -0.9754   -6.8405   -4.7959 H   0  0  0  0  0  0  0  0  0  0  0  0
    0.1256   -1.7358    0.9917 H   0  0  0  0  0  0  0  0  0  0  0  0
   -2.9052    1.7997   -0.4407 H   0  0  0  0  0  0  0  0  0  0  0  0
   -3.5579   -0.5089   -0.7135 H   0  0  0  0  0  0  0  0  0  0  0  0
    1.5409    2.5726    0.3792 H   0  0  0  0  0  0  0  0  0  0  0  0
    1.0046    2.7998    2.0511 H   0  0  0  0  0  0  0  0  0  0  0  0
  1  2  1  0  0  0  0 
  6  1  1  0  0  0  0 
  2  3  2  0  0  0  0 
  4  3  1  0  0  0  0 
  4  5  1  0  0  0  0 
  6  5  1  0  0  0  0 
  8  9  1  0  0  0  0 
  9 10  1  0  0  0  0 
  7 10  1  0  0  0  0 
  5  8  1  0  0  0  0 
  6  7  1  0  0  0  0 
 11 12  1  0  0  0  0 
 12 13  1  0  0  0  0 
  2 13  1  0  0  0  0 
  3 11  1  0  0  0  0 
 14 15  1  0  0  0  0 
 15 16  2  0  0  0  0 
 16 17  1  0  0  0  0 
 12 14  2  0  0  0  0 
 13 17  2  0  0  0  0 
  7 18  2  0  0  0  0 
 10 19  1  0  0  0  0 
  8 20  2  0  0  0  0 
  4 21  1  0  0  0  0 
 22 23  2  0  0  0  0 
 23 24  1  0  0  0  0 
 24 25  2  0  0  0  0 
 25 26  1  0  0  0  0 
 26 21  2  0  0  0  0 
 22 21  1  0  0  0  0 
 27 28  1  0  0  0  0 
 28 29  1  0  0  0  0 
 23 29  1  0  0  0  0 
 24 27  1  0  0  0  0 
 30  1  1  0  0  0  0 
 31  1  1  0  0  0  0 
  4 32  1  0  0  0  0 
  6 33  1  0  0  0  0 
 34  9  1  0  0  0  0 
 35  9  1  0  0  0  0 
 36 11  1  0  0  0  0 
 37 14  1  0  0  0  0 
 38 15  1  0  0  0  0 
 39 16  1  0  0  0  0 
 40 17  1  0  0  0  0 
 41 19  1  0  0  0  0 
 42 19  1  0  0  0  0 
 43 19  1  0  0  0  0 
 44 22  1  0  0  0  0 
 45 25  1  0  0  0  0 
 46 26  1  0  0  0  0 
 47 28  1  0  0  0  0 
 48 28  1  0  0  0  0 
M  END
> <cdk:Title>
tadalafil

> <Conformer>
1

> <SuperDrugID>
SD002297

$$$$
