irinotecan
  CDK     0628171801

 81 87  0  0  0  0  0  0  0  0999 V2000
    6.6401    2.5871   -0.8691 C   0  0  1  0  0  0  0  0  0  0  0  0
    7.3223    3.2650   -2.0790 C   0  0  0  0  0  0  0  0  0  0  0  0
    5.6248    1.5704   -1.2860 C   0  0  0  0  0  0  0  0  0  0  0  0
    5.9752    0.1982   -1.2766 C   0  0  0  0  0  0  0  0  0  0  0  0
    4.3108    1.9049   -1.7443 C   0  0  0  0  0  0  0  0  0  0  0  0
    5.0663   -0.7750   -1.6817 C   0  0  0  0  0  0  0  0  0  0  0  0
    7.2489   -0.4478   -0.9241 C   0  0  1  0  0  0  0  0  0  0  0  0
    3.4347    0.8567   -2.1699 C   0  0  0  0  0  0  0  0  0  0  0  0
    3.8282    3.2333   -1.8295 C   0  0  0  0  0  0  0  0  0  0  0  0
    5.6937   -2.0118   -1.5954 C   0  0  0  0  0  0  0  0  0  0  0  0
    3.8281   -0.4454   -2.1144 N   0  0  0  0  0  0  0  0  0  0  0  0
    6.9705   -1.8255   -1.1902 N   0  0  0  0  0  0  0  0  0  0  0  0
    2.1543    1.1517   -2.6798 C   0  0  0  0  0  0  0  0  0  0  0  0
    2.5729    3.5365   -2.3894 C   0  0  0  0  0  0  0  0  0  0  0  0
    5.1967   -3.2962   -1.8733 C   0  0  0  0  0  0  0  0  0  0  0  0
    7.8516   -2.8588   -1.0749 C   0  0  0  0  0  0  0  0  0  0  0  0
    1.7343    2.4867   -2.8149 C   0  0  0  0  0  0  0  0  0  0  0  0
    2.3008    4.8675   -2.5403 O   0  0  0  0  0  0  0  0  0  0  0  0
    6.0661   -4.4129   -1.7445 C   0  0  0  0  0  0  0  0  0  0  0  0
    9.0326   -2.6261   -0.7163 O   0  0  0  0  0  0  0  0  0  0  0  0
    7.4205   -4.1811   -1.3603 C   0  0  0  0  0  0  0  0  0  0  0  0
    1.8459    5.4615   -3.6809 C   0  0  0  0  0  0  0  0  0  0  0  0
    5.5421   -5.8004   -2.0076 C   0  0  2  0  0  0  0  0  0  0  0  0
    8.3874   -5.3038   -1.2540 C   0  0  2  0  0  0  0  0  0  0  0  0
    0.6762    5.2215   -4.0633 O   0  0  0  0  0  0  0  0  0  0  0  0
    2.7168    6.2527   -4.4043 N   0  0  0  0  0  0  0  0  0  0  0  0
    4.9856   -5.9723   -3.4629 C   0  0  1  0  0  0  0  0  0  0  0  0
    4.4714   -6.0064   -1.0803 O   0  0  0  0  0  0  0  0  0  0  0  0
    6.5328   -6.8743   -1.7237 C   0  0  0  0  0  0  0  0  0  0  0  0
    7.8282   -6.6056   -1.4296 O   0  0  0  0  0  0  0  0  0  0  0  0
    4.0555    6.5509   -3.9330 C   0  0  2  0  0  0  0  0  0  0  0  0
    2.4320    6.6890   -5.7535 C   0  0  1  0  0  0  0  0  0  0  0  0
    6.0045   -5.6898   -4.5948 C   0  0  0  0  0  0  0  0  0  0  0  0
    6.2044   -8.0821   -1.7716 O   0  0  0  0  0  0  0  0  0  0  0  0
    5.0681    5.7509   -4.7896 C   0  0  2  0  0  0  0  0  0  0  0  0
    3.3583    5.8742   -6.6972 C   0  0  1  0  0  0  0  0  0  0  0  0
    4.8796    5.9887   -6.3229 C   0  0  2  0  0  0  0  0  0  0  0  0
    5.8352    5.0591   -7.0429 N   0  0  2  0  0  0  0  0  0  0  0  0
    7.2329    5.5996   -7.1744 C   0  0  2  0  0  0  0  0  0  0  0  0
    5.3750    4.3568   -8.2884 C   0  0  1  0  0  0  0  0  0  0  0  0
    8.2424    4.4979   -7.5831 C   0  0  2  0  0  0  0  0  0  0  0  0
    6.3592    3.2420   -8.7256 C   0  0  1  0  0  0  0  0  0  0  0  0
    7.7948    3.7911   -8.8836 C   0  0  1  0  0  0  0  0  0  0  0  0
    7.4276    2.1374   -0.2609 H   0  0  0  0  0  0  0  0  0  0  0  0
    6.1796    3.3395   -0.2280 H   0  0  0  0  0  0  0  0  0  0  0  0
    8.0564    3.9916   -1.7248 H   0  0  0  0  0  0  0  0  0  0  0  0
    6.5912    3.7862   -2.7003 H   0  0  0  0  0  0  0  0  0  0  0  0
    7.8426    2.5206   -2.6880 H   0  0  0  0  0  0  0  0  0  0  0  0
    8.0575   -0.0851   -1.5618 H   0  0  0  0  0  0  0  0  0  0  0  0
    7.4891   -0.2885    0.1300 H   0  0  0  0  0  0  0  0  0  0  0  0
    4.4045    4.0133   -1.5180 H   0  0  0  0  0  0  0  0  0  0  0  0
    1.5291    0.3963   -2.9739 H   0  0  0  0  0  0  0  0  0  0  0  0
    4.2217   -3.4092   -2.1629 H   0  0  0  0  0  0  0  0  0  0  0  0
    0.8180    2.6846   -3.2218 H   0  0  0  0  0  0  0  0  0  0  0  0
    8.8520   -5.2914   -0.2658 H   0  0  0  0  0  0  0  0  0  0  0  0
    9.1667   -5.1674   -2.0072 H   0  0  0  0  0  0  0  0  0  0  0  0
    4.6114   -6.9918   -3.5938 H   0  0  0  0  0  0  0  0  0  0  0  0
    4.1242   -5.3172   -3.6099 H   0  0  0  0  0  0  0  0  0  0  0  0
    4.1216   -6.9033   -1.2674 H   0  0  0  0  0  0  0  0  0  0  0  0
    4.2146    6.3078   -2.8793 H   0  0  0  0  0  0  0  0  0  0  0  0
    4.2561    7.6224   -4.0281 H   0  0  0  0  0  0  0  0  0  0  0  0
    1.3923    6.5272   -6.0526 H   0  0  0  0  0  0  0  0  0  0  0  0
    2.6305    7.7594   -5.8591 H   0  0  0  0  0  0  0  0  0  0  0  0
    5.5398   -5.8828   -5.5638 H   0  0  0  0  0  0  0  0  0  0  0  0
    6.8814   -6.3330   -4.4985 H   0  0  0  0  0  0  0  0  0  0  0  0
    6.3249   -4.6473   -4.5697 H   0  0  0  0  0  0  0  0  0  0  0  0
    4.9495    4.6845   -4.5759 H   0  0  0  0  0  0  0  0  0  0  0  0
    6.0734    6.0373   -4.4775 H   0  0  0  0  0  0  0  0  0  0  0  0
    3.0414    4.8306   -6.6239 H   0  0  0  0  0  0  0  0  0  0  0  0
    3.2032    6.2088   -7.7271 H   0  0  0  0  0  0  0  0  0  0  0  0
    5.1609    7.0275   -6.5374 H   0  0  0  0  0  0  0  0  0  0  0  0
    7.5811    6.0187   -6.2275 H   0  0  0  0  0  0  0  0  0  0  0  0
    7.2531    6.4058   -7.9150 H   0  0  0  0  0  0  0  0  0  0  0  0
    4.4206    3.8576   -8.1194 H   0  0  0  0  0  0  0  0  0  0  0  0
    5.2462    5.0783   -9.1008 H   0  0  0  0  0  0  0  0  0  0  0  0
    8.3126    3.7622   -6.7769 H   0  0  0  0  0  0  0  0  0  0  0  0
    9.2328    4.9359   -7.7272 H   0  0  0  0  0  0  0  0  0  0  0  0
    6.3593    2.4505   -7.9703 H   0  0  0  0  0  0  0  0  0  0  0  0
    6.0260    2.8047   -9.6701 H   0  0  0  0  0  0  0  0  0  0  0  0
    7.8281    4.4956   -9.7196 H   0  0  0  0  0  0  0  0  0  0  0  0
    8.4780    2.9687   -9.1081 H   0  0  0  0  0  0  0  0  0  0  0  0
  1  2  1  0  0  0  0 
  1  3  1  0  0  0  0 
  3  4  1  0  0  0  0 
  3  5  2  0  0  0  0 
  4  6  2  0  0  0  0 
  4  7  1  0  0  0  0 
  5  8  1  0  0  0  0 
  5  9  1  0  0  0  0 
  6 10  1  0  0  0  0 
  6 11  1  0  0  0  0 
  7 12  1  0  0  0  0 
  8 11  2  0  0  0  0 
  8 13  1  0  0  0  0 
  9 14  2  0  0  0  0 
 10 12  1  0  0  0  0 
 10 15  2  0  0  0  0 
 12 16  1  0  0  0  0 
 13 17  2  0  0  0  0 
 14 17  1  0  0  0  0 
 14 18  1  0  0  0  0 
 15 19  1  0  0  0  0 
 16 20  2  0  0  0  0 
 16 21  1  0  0  0  0 
 18 22  1  0  0  0  0 
 19 21  2  0  0  0  0 
 23 19  1  0  0  0  0 
 21 24  1  0  0  0  0 
 22 25  2  0  0  0  0 
 22 26  1  0  0  0  0 
 23 27  1  0  0  0  0 
 23 28  1  0  0  0  0 
 23 29  1  0  0  0  0 
 24 30  1  0  0  0  0 
 26 31  1  0  0  0  0 
 26 32  1  0  0  0  0 
 27 33  1  0  0  0  0 
 29 30  1  0  0  0  0 
 29 34  2  0  0  0  0 
 31 35  1  0  0  0  0 
 32 36  1  0  0  0  0 
 35 37  1  0  0  0  0 
 36 37  1  0  0  0  0 
 37 38  1  0  0  0  0 
 38 39  1  0  0  0  0 
 38 40  1  0  0  0  0 
 39 41  1  0  0  0  0 
 40 42  1  0  0  0  0 
 41 43  1  0  0  0  0 
 42 43  1  0  0  0  0 
  1 44  1  0  0  0  0 
  1 45  1  0  0  0  0 
  2 46  1  0  0  0  0 
  2 47  1  0  0  0  0 
  2 48  1  0  0  0  0 
  7 49  1  0  0  0  0 
  7 50  1  0  0  0  0 
  9 51  1  0  0  0  0 
 13 52  1  0  0  0  0 
 15 53  1  0  0  0  0 
 17 54  1  0  0  0  0 
 24 55  1  0  0  0  0 
 24 56  1  0  0  0  0 
 27 57  1  0  0  0  0 
 27 58  1  0  0  0  0 
 28 59  1  0  0  0  0 
 31 60  1  0  0  0  0 
 31 61  1  0  0  0  0 
 32 62  1  0  0  0  0 
 32 63  1  0  0  0  0 
 33 64  1  0  0  0  0 
 33 65  1  0  0  0  0 
 33 66  1  0  0  0  0 
 35 67  1  0  0  0  0 
 35 68  1  0  0  0  0 
 36 69  1  0  0  0  0 
 36 70  1  0  0  0  0 
 37 71  1  0  0  0  0 
 39 72  1  0  0  0  0 
 39 73  1  0  0  0  0 
 40 74  1  0  0  0  0 
 40 75  1  0  0  0  0 
 41 76  1  0  0  0  0 
 41 77  1  0  0  0  0 
 42 78  1  0  0  0  0 
 42 79  1  0  0  0  0 
 43 80  1  0  0  0  0 
 43 81  1  0  0  0  0 
M  END
> <cdk:Title>
irinotecan

> <Conformer>
1

> <SuperDrugID>
SD001313

$$$$
