danazol
  CDK     0628171802

 52 56  0  0  0  0  0  0  0  0999 V2000
    0.0888   -0.1858    5.7887 C   0  0  0  0  0  0  0  0  0  0  0  0
    1.3509    0.4169    6.5123 C   0  0  1  0  0  0  0  0  0  0  0  0
    2.2913    1.2359    5.5163 C   0  0  2  0  0  0  0  0  0  0  0  0
    0.8056    1.3339    7.5798 C   0  0  0  0  0  0  0  0  0  0  0  0
    2.1849   -0.8048    7.1089 C   0  0  2  0  0  0  0  0  0  0  0  0
    1.6338    2.5790    5.0182 C   0  0  2  0  0  0  0  0  0  0  0  0
    2.9169    0.4007    4.3366 C   0  0  1  0  0  0  0  0  0  0  0  0
    0.2958    2.6636    7.2085 C   0  0  2  0  0  0  0  0  0  0  0  0
    0.6894    0.9421    8.8724 C   0  0  0  0  0  0  0  0  0  0  0  0
    1.7906   -1.1636    8.4770 C   0  0  0  0  0  0  0  0  0  0  0  0
    2.6054    3.3488    4.0665 C   0  0  1  0  0  0  0  0  0  0  0  0
    1.2352    3.4358    6.2547 C   0  0  2  0  0  0  0  0  0  0  0  0
    3.7875    1.2406    3.3473 C   0  0  1  0  0  0  0  0  0  0  0  0
    1.0984   -0.2972    9.2945 C   0  0  0  0  0  0  0  0  0  0  0  0
    2.0422   -2.2851    9.2508 C   0  0  0  0  0  0  0  0  0  0  0  0
    3.0474    2.5205    2.8164 C   0  0  1  0  0  0  0  0  0  0  0  0
    2.1705    4.7123    3.4803 C   0  0  2  0  0  0  0  0  0  0  0  0
    0.9462   -0.8860   10.5032 O   0  0  0  0  0  0  0  0  0  0  0  0
    1.5087   -2.0707   10.4661 N   0  0  0  0  0  0  0  0  0  0  0  0
    1.8567    2.0550    1.8858 C   0  0  0  0  0  0  0  0  0  0  0  0
    3.9023    3.6063    2.0494 C   0  0  1  0  0  0  0  0  0  0  0  0
    3.0484    4.9068    2.2131 C   0  0  1  0  0  0  0  0  0  0  0  0
    5.1818    3.8078    2.5446 C   0  0  0  0  0  0  0  0  0  0  0  0
    4.0928    3.3146    0.6621 O   0  0  0  0  0  0  0  0  0  0  0  0
    6.2815    3.9960    2.9733 C   0  0  0  0  0  0  0  0  0  0  0  0
    3.1599    1.5466    6.1117 H   0  0  0  0  0  0  0  0  0  0  0  0
    0.7199    2.3631    4.4639 H   0  0  0  0  0  0  0  0  0  0  0  0
    3.4946    3.5635    4.6760 H   0  0  0  0  0  0  0  0  0  0  0  0
    0.3657   -0.9128    5.0250 H   0  0  0  0  0  0  0  0  0  0  0  0
   -0.5551   -0.7016    6.5055 H   0  0  0  0  0  0  0  0  0  0  0  0
   -0.5161    0.5802    5.3039 H   0  0  0  0  0  0  0  0  0  0  0  0
    3.2462   -0.5633    7.1758 H   0  0  0  0  0  0  0  0  0  0  0  0
    2.0986   -1.6905    6.4742 H   0  0  0  0  0  0  0  0  0  0  0  0
    3.5663   -0.3785    4.7441 H   0  0  0  0  0  0  0  0  0  0  0  0
    2.1348   -0.1125    3.7790 H   0  0  0  0  0  0  0  0  0  0  0  0
    0.1297    3.3060    8.0801 H   0  0  0  0  0  0  0  0  0  0  0  0
   -0.6754    2.5404    6.7246 H   0  0  0  0  0  0  0  0  0  0  0  0
    0.2878    1.5395    9.5573 H   0  0  0  0  0  0  0  0  0  0  0  0
    0.7165    4.3382    5.9218 H   0  0  0  0  0  0  0  0  0  0  0  0
    2.1279    3.7507    6.8067 H   0  0  0  0  0  0  0  0  0  0  0  0
    4.7026    1.5206    3.8780 H   0  0  0  0  0  0  0  0  0  0  0  0
    4.0906    0.6095    2.5065 H   0  0  0  0  0  0  0  0  0  0  0  0
    2.5493   -3.1214    8.9568 H   0  0  0  0  0  0  0  0  0  0  0  0
    2.3376    5.5184    4.2001 H   0  0  0  0  0  0  0  0  0  0  0  0
    1.1100    4.6917    3.2165 H   0  0  0  0  0  0  0  0  0  0  0  0
    2.2443    1.5242    1.0136 H   0  0  0  0  0  0  0  0  0  0  0  0
    1.2647    2.8936    1.5186 H   0  0  0  0  0  0  0  0  0  0  0  0
    1.1626    1.3838    2.3877 H   0  0  0  0  0  0  0  0  0  0  0  0
    2.3969    5.0357    1.3427 H   0  0  0  0  0  0  0  0  0  0  0  0
    3.6520    5.8187    2.2920 H   0  0  0  0  0  0  0  0  0  0  0  0
    4.5750    2.4615    0.6434 H   0  0  0  0  0  0  0  0  0  0  0  0
    7.1298    4.1425    3.3074 H   0  0  0  0  0  0  0  0  0  0  0  0
  2  1  1  0  0  0  0 
  3  2  1  0  0  0  0 
  2  4  1  0  0  0  0 
  2  5  1  0  0  0  0 
  6  3  1  0  0  0  0 
  3  7  1  0  0  0  0 
  3 26  1  0  0  0  0 
  4  8  1  0  0  0  0 
  4  9  2  0  0  0  0 
  5 10  1  0  0  0  0 
 11  6  1  0  0  0  0 
  6 12  1  0  0  0  0 
  6 27  1  0  0  0  0 
  7 13  1  0  0  0  0 
  8 12  1  0  0  0  0 
  9 14  1  0  0  0  0 
 10 14  2  0  0  0  0 
 10 15  1  0  0  0  0 
 11 16  1  0  0  0  0 
 11 17  1  0  0  0  0 
 11 28  1  0  0  0  0 
 16 13  1  0  0  0  0 
 14 18  1  0  0  0  0 
 15 19  2  0  0  0  0 
 16 20  1  0  0  0  0 
 16 21  1  0  0  0  0 
 17 22  1  0  0  0  0 
 18 19  1  0  0  0  0 
 21 22  1  0  0  0  0 
 21 23  1  0  0  0  0 
 21 24  1  0  0  0  0 
 23 25  3  0  0  0  0 
  1 29  1  0  0  0  0 
  1 30  1  0  0  0  0 
  1 31  1  0  0  0  0 
  5 32  1  0  0  0  0 
  5 33  1  0  0  0  0 
  7 34  1  0  0  0  0 
  7 35  1  0  0  0  0 
  8 36  1  0  0  0  0 
  8 37  1  0  0  0  0 
  9 38  1  0  0  0  0 
 12 39  1  0  0  0  0 
 12 40  1  0  0  0  0 
 13 41  1  0  0  0  0 
 13 42  1  0  0  0  0 
 15 43  1  0  0  0  0 
 17 44  1  0  0  0  0 
 17 45  1  0  0  0  0 
 20 46  1  0  0  0  0 
 20 47  1  0  0  0  0 
 20 48  1  0  0  0  0 
 22 49  1  0  0  0  0 
 22 50  1  0  0  0  0 
 24 51  1  0  0  0  0 
 25 52  1  0  0  0  0 
M  END
> <cdk:Title>
danazol

> <Conformer>
1

> <SuperDrugID>
SD000686

$$$$
