adiphenine
  CDK     0628171802

 48 49  0  0  0  0  0  0  0  0999 V2000
   -3.5328   -0.5978    0.8016 C   0  0  1  0  0  0  0  0  0  0  0  0
   -3.6606   -0.5900   -0.6857 C   0  0  0  0  0  0  0  0  0  0  0  0
   -2.2372   -0.0872    1.3647 C   0  0  0  0  0  0  0  0  0  0  0  0
   -4.7235    0.0608    1.4304 C   0  0  0  0  0  0  0  0  0  0  0  0
   -4.0417    0.5444   -1.3512 O   0  0  0  0  0  0  0  0  0  0  0  0
   -3.4289   -1.6395   -1.3340 O   0  0  0  0  0  0  0  0  0  0  0  0
   -1.8976   -0.4064    2.7057 C   0  0  0  0  0  0  0  0  0  0  0  0
   -1.3189    0.6989    0.6233 C   0  0  0  0  0  0  0  0  0  0  0  0
   -4.8453    1.4731    1.4585 C   0  0  0  0  0  0  0  0  0  0  0  0
   -5.7627   -0.7115    2.0059 C   0  0  0  0  0  0  0  0  0  0  0  0
   -4.3145    0.6737   -2.7549 C   0  0  1  0  0  0  0  0  0  0  0  0
   -0.6809    0.0145    3.2744 C   0  0  0  0  0  0  0  0  0  0  0  0
   -0.0999    1.1188    1.1888 C   0  0  0  0  0  0  0  0  0  0  0  0
   -5.9612    2.0925    2.0504 C   0  0  0  0  0  0  0  0  0  0  0  0
   -6.8819   -0.0937    2.5924 C   0  0  0  0  0  0  0  0  0  0  0  0
   -4.7506    2.1293   -3.0593 C   0  0  1  0  0  0  0  0  0  0  0  0
    0.2208    0.7757    2.5131 C   0  0  0  0  0  0  0  0  0  0  0  0
   -6.9817    1.3078    2.6140 C   0  0  0  0  0  0  0  0  0  0  0  0
   -5.5843    2.2682   -4.3050 N   0  0  1  0  0  0  0  0  0  0  0  0
   -6.9976    1.7581   -4.1467 C   0  0  2  0  0  0  0  0  0  0  0  0
   -5.4865    3.6500   -4.8937 C   0  0  2  0  0  0  0  0  0  0  0  0
   -7.3538    0.7186   -5.2317 C   0  0  0  0  0  0  0  0  0  0  0  0
   -6.0458    3.8040   -6.3260 C   0  0  0  0  0  0  0  0  0  0  0  0
   -3.5421   -1.6572    1.0778 H   0  0  0  0  0  0  0  0  0  0  0  0
   -2.5387   -0.9566    3.2837 H   0  0  0  0  0  0  0  0  0  0  0  0
   -1.5260    0.9806   -0.3371 H   0  0  0  0  0  0  0  0  0  0  0  0
   -4.1182    2.0640    1.0465 H   0  0  0  0  0  0  0  0  0  0  0  0
   -5.7144   -1.7326    1.9993 H   0  0  0  0  0  0  0  0  0  0  0  0
   -3.4225    0.4257   -3.3360 H   0  0  0  0  0  0  0  0  0  0  0  0
   -5.1049   -0.0312   -3.0181 H   0  0  0  0  0  0  0  0  0  0  0  0
   -0.4525   -0.2317    4.2403 H   0  0  0  0  0  0  0  0  0  0  0  0
    0.5546    1.6789    0.6374 H   0  0  0  0  0  0  0  0  0  0  0  0
   -6.0283    3.1130    2.0722 H   0  0  0  0  0  0  0  0  0  0  0  0
   -7.6238   -0.6627    3.0035 H   0  0  0  0  0  0  0  0  0  0  0  0
   -5.3059    2.5324   -2.2069 H   0  0  0  0  0  0  0  0  0  0  0  0
   -3.8255    2.7088   -3.1366 H   0  0  0  0  0  0  0  0  0  0  0  0
    1.1058    1.0799    2.9219 H   0  0  0  0  0  0  0  0  0  0  0  0
   -7.7950    1.7561    3.0394 H   0  0  0  0  0  0  0  0  0  0  0  0
   -7.7299    2.5702   -4.1846 H   0  0  0  0  0  0  0  0  0  0  0  0
   -7.1528    1.2698   -3.1794 H   0  0  0  0  0  0  0  0  0  0  0  0
   -4.4361    3.9472   -4.9604 H   0  0  0  0  0  0  0  0  0  0  0  0
   -5.9881    4.3696   -4.2397 H   0  0  0  0  0  0  0  0  0  0  0  0
   -8.3666    0.3429   -5.0650 H   0  0  0  0  0  0  0  0  0  0  0  0
   -6.6597   -0.1217   -5.1917 H   0  0  0  0  0  0  0  0  0  0  0  0
   -7.3106    1.1628   -6.2255 H   0  0  0  0  0  0  0  0  0  0  0  0
   -5.9048    4.8311   -6.6696 H   0  0  0  0  0  0  0  0  0  0  0  0
   -7.1119    3.5837   -6.3576 H   0  0  0  0  0  0  0  0  0  0  0  0
   -5.5189    3.1350   -7.0073 H   0  0  0  0  0  0  0  0  0  0  0  0
  1  2  1  0  0  0  0 
  1  3  1  0  0  0  0 
  1  4  1  0  0  0  0 
  2  5  1  0  0  0  0 
  2  6  2  0  0  0  0 
  3  7  2  0  0  0  0 
  3  8  1  0  0  0  0 
  4  9  2  0  0  0  0 
  4 10  1  0  0  0  0 
  5 11  1  0  0  0  0 
  7 12  1  0  0  0  0 
  8 13  2  0  0  0  0 
  9 14  1  0  0  0  0 
 10 15  2  0  0  0  0 
 11 16  1  0  0  0  0 
 12 17  2  0  0  0  0 
 13 17  1  0  0  0  0 
 14 18  2  0  0  0  0 
 15 18  1  0  0  0  0 
 16 19  1  0  0  0  0 
 19 20  1  0  0  0  0 
 19 21  1  0  0  0  0 
 20 22  1  0  0  0  0 
 21 23  1  0  0  0  0 
  1 24  1  0  0  0  0 
  7 25  1  0  0  0  0 
  8 26  1  0  0  0  0 
  9 27  1  0  0  0  0 
 10 28  1  0  0  0  0 
 11 29  1  0  0  0  0 
 11 30  1  0  0  0  0 
 12 31  1  0  0  0  0 
 13 32  1  0  0  0  0 
 14 33  1  0  0  0  0 
 15 34  1  0  0  0  0 
 16 35  1  0  0  0  0 
 16 36  1  0  0  0  0 
 17 37  1  0  0  0  0 
 18 38  1  0  0  0  0 
 20 39  1  0  0  0  0 
 20 40  1  0  0  0  0 
 21 41  1  0  0  0  0 
 21 42  1  0  0  0  0 
 22 43  1  0  0  0  0 
 22 44  1  0  0  0  0 
 22 45  1  0  0  0  0 
 23 46  1  0  0  0  0 
 23 47  1  0  0  0  0 
 23 48  1  0  0  0  0 
M  END
> <cdk:Title>
adiphenine

> <Conformer>
1

> <SuperDrugID>
SD000069

$$$$
