parapenzolate
  CDK     0628171801

 51 53  0  0  0  0  0  0  0  0999 V2000
    3.0232   -4.0526    6.8323 C   0  0  2  0  0  0  0  0  0  0  0  0
    2.7287   -3.7419    5.4007 C   0  0  0  0  0  0  0  0  0  0  0  0
    2.4753   -5.3526    7.1038 O   0  0  0  0  0  0  0  0  0  0  0  0
    2.3412   -3.1228    7.8158 C   0  0  0  0  0  0  0  0  0  0  0  0
    4.5296   -4.1403    6.9655 C   0  0  0  0  0  0  0  0  0  0  0  0
    3.4623   -2.7702    4.7794 O   0  0  0  0  0  0  0  0  0  0  0  0
    1.8380   -4.3627    4.7722 O   0  0  0  0  0  0  0  0  0  0  0  0
    2.4755   -3.3627    9.2111 C   0  0  0  0  0  0  0  0  0  0  0  0
    1.5563   -2.0004    7.4320 C   0  0  0  0  0  0  0  0  0  0  0  0
    5.3134   -3.1834    7.6668 C   0  0  0  0  0  0  0  0  0  0  0  0
    5.2304   -5.1971    6.3253 C   0  0  0  0  0  0  0  0  0  0  0  0
    3.3777   -2.2929    3.4292 C   0  0  2  0  0  0  0  0  0  0  0  0
    1.9002   -2.5062   10.1695 C   0  0  0  0  0  0  0  0  0  0  0  0
    0.9741   -1.1447    8.3858 C   0  0  0  0  0  0  0  0  0  0  0  0
    6.7099   -3.3146    7.7823 C   0  0  0  0  0  0  0  0  0  0  0  0
    6.6286   -5.3216    6.4181 C   0  0  0  0  0  0  0  0  0  0  0  0
    4.6790   -2.6818    2.6851 C   0  0  2  0  0  0  0  0  0  0  0  0
    3.1907   -0.7576    3.4711 C   0  0  2  0  0  0  0  0  0  0  0  0
    1.1528   -1.3919    9.7558 C   0  0  0  0  0  0  0  0  0  0  0  0
    7.3676   -4.3883    7.1618 C   0  0  0  0  0  0  0  0  0  0  0  0
    4.7652   -1.9981    1.2911 C   0  0  1  0  0  0  0  0  0  0  0  0
    3.3175   -0.1261    2.0585 C   0  0  2  0  0  0  0  0  0  0  0  0
    4.5852   -0.4911    1.3085 N   0  0  1  0  0  0  0  0  0  0  0  0
    5.7904    0.1899    1.9178 C   0  0  0  0  0  0  0  0  0  0  0  0
    4.4631    0.0025   -0.1174 C   0  0  0  0  0  0  0  0  0  0  0  0
    2.7801   -5.5937    8.0030 H   0  0  0  0  0  0  0  0  0  0  0  0
    3.0103   -4.1690    9.5428 H   0  0  0  0  0  0  0  0  0  0  0  0
    1.3929   -1.7809    6.4493 H   0  0  0  0  0  0  0  0  0  0  0  0
    4.8794   -2.3701    8.1046 H   0  0  0  0  0  0  0  0  0  0  0  0
    4.7187   -5.8935    5.7781 H   0  0  0  0  0  0  0  0  0  0  0  0
    2.5250   -2.7386    2.9047 H   0  0  0  0  0  0  0  0  0  0  0  0
    2.0278   -2.6926   11.1670 H   0  0  0  0  0  0  0  0  0  0  0  0
    0.4213   -0.3406    8.0800 H   0  0  0  0  0  0  0  0  0  0  0  0
    7.2483   -2.6268    8.3143 H   0  0  0  0  0  0  0  0  0  0  0  0
    7.1093   -6.0905    5.9466 H   0  0  0  0  0  0  0  0  0  0  0  0
    4.7030   -3.7676    2.5573 H   0  0  0  0  0  0  0  0  0  0  0  0
    5.5481   -2.4089    3.2881 H   0  0  0  0  0  0  0  0  0  0  0  0
    3.9301   -0.3144    4.1386 H   0  0  0  0  0  0  0  0  0  0  0  0
    2.2044   -0.5295    3.8840 H   0  0  0  0  0  0  0  0  0  0  0  0
    0.7397   -0.7619   10.4485 H   0  0  0  0  0  0  0  0  0  0  0  0
    8.3801   -4.4858    7.2466 H   0  0  0  0  0  0  0  0  0  0  0  0
    5.7264   -2.2686    0.8409 H   0  0  0  0  0  0  0  0  0  0  0  0
    3.9925   -2.4589    0.6674 H   0  0  0  0  0  0  0  0  0  0  0  0
    3.2344    0.9597    2.1712 H   0  0  0  0  0  0  0  0  0  0  0  0
    2.4355   -0.4465    1.4923 H   0  0  0  0  0  0  0  0  0  0  0  0
    5.9704   -0.1228    2.9459 H   0  0  0  0  0  0  0  0  0  0  0  0
    5.6704    1.2770    1.9312 H   0  0  0  0  0  0  0  0  0  0  0  0
    6.7007   -0.0330    1.3548 H   0  0  0  0  0  0  0  0  0  0  0  0
    5.3623   -0.2252   -0.6976 H   0  0  0  0  0  0  0  0  0  0  0  0
    3.6190   -0.4634   -0.6346 H   0  0  0  0  0  0  0  0  0  0  0  0
    4.3082    1.0855   -0.1585 H   0  0  0  0  0  0  0  0  0  0  0  0
  1  2  1  0  0  0  0 
  1  3  1  0  0  0  0 
  1  4  1  0  0  0  0 
  1  5  1  0  0  0  0 
  2  6  1  0  0  0  0 
  2  7  2  0  0  0  0 
  4  8  2  0  0  0  0 
  4  9  1  0  0  0  0 
  5 10  2  0  0  0  0 
  5 11  1  0  0  0  0 
  6 12  1  0  0  0  0 
  8 13  1  0  0  0  0 
  9 14  2  0  0  0  0 
 10 15  1  0  0  0  0 
 11 16  2  0  0  0  0 
 12 17  1  0  0  0  0 
 12 18  1  0  0  0  0 
 13 19  2  0  0  0  0 
 14 19  1  0  0  0  0 
 15 20  2  0  0  0  0 
 16 20  1  0  0  0  0 
 17 21  1  0  0  0  0 
 18 22  1  0  0  0  0 
 21 23  1  0  0  0  0 
 22 23  1  0  0  0  0 
 23 24  1  0  0  0  0 
 23 25  1  0  0  0  0 
  3 26  1  0  0  0  0 
  8 27  1  0  0  0  0 
  9 28  1  0  0  0  0 
 10 29  1  0  0  0  0 
 11 30  1  0  0  0  0 
 12 31  1  0  0  0  0 
 13 32  1  0  0  0  0 
 14 33  1  0  0  0  0 
 15 34  1  0  0  0  0 
 16 35  1  0  0  0  0 
 17 36  1  0  0  0  0 
 17 37  1  0  0  0  0 
 18 38  1  0  0  0  0 
 18 39  1  0  0  0  0 
 19 40  1  0  0  0  0 
 20 41  1  0  0  0  0 
 21 42  1  0  0  0  0 
 21 43  1  0  0  0  0 
 22 44  1  0  0  0  0 
 22 45  1  0  0  0  0 
 24 46  1  0  0  0  0 
 24 47  1  0  0  0  0 
 24 48  1  0  0  0  0 
 25 49  1  0  0  0  0 
 25 50  1  0  0  0  0 
 25 51  1  0  0  0  0 
M  CHG  1  23   1
M  END
> <cdk:Title>
parapenzolate

> <Conformer>
1

> <SuperDrugID>
SD001848

$$$$
