azaribine
  CDK     0628171801

 43 44  0  0  0  0  0  0  0  0999 V2000
   -1.7536   -6.6196   -0.2671 O   0  0  0  0  0  0  0  0  0  0  0  0
   -1.8599   -7.9815   -0.2604 C   0  0  0  0  0  0  0  0  0  0  0  0
   -0.8841   -5.7676   -1.0374 C   0  0  1  0  0  0  0  0  0  0  0  0
   -1.1730   -8.8708   -1.2152 C   0  0  0  0  0  0  0  0  0  0  0  0
   -2.6119   -8.4721    0.6114 O   0  0  0  0  0  0  0  0  0  0  0  0
   -1.7239   -4.7654   -1.8770 C   0  0  1  0  0  0  0  0  0  0  0  0
   -0.0684   -4.8572   -0.1024 C   0  0  2  0  0  0  0  0  0  0  0  0
   -1.5607   -3.4578   -1.2980 O   0  0  0  0  0  0  0  0  0  0  0  0
   -1.3428   -4.7560   -3.2732 N   0  0  0  0  0  0  0  0  0  0  0  0
    0.1306   -5.4293    1.2034 O   0  0  0  0  0  0  0  0  0  0  0  0
   -0.9555   -3.6010   -0.0088 C   0  0  2  0  0  0  0  0  0  0  0  0
   -1.8905   -5.6065   -4.2021 C   0  0  0  0  0  0  0  0  0  0  0  0
   -0.4146   -3.9053   -3.6619 N   0  0  0  0  0  0  0  0  0  0  0  0
    1.2548   -5.4178    1.9759 C   0  0  0  0  0  0  0  0  0  0  0  0
   -0.1673   -2.3181    0.3478 C   0  0  1  0  0  0  0  0  0  0  0  0
   -2.7645   -6.4577   -3.9161 O   0  0  0  0  0  0  0  0  0  0  0  0
   -1.4814   -5.5347   -5.4962 N   0  0  0  0  0  0  0  0  0  0  0  0
    0.0221   -3.7851   -4.9398 C   0  0  0  0  0  0  0  0  0  0  0  0
    1.2374   -6.1054    3.2740 C   0  0  0  0  0  0  0  0  0  0  0  0
    2.2952   -4.8254    1.6076 O   0  0  0  0  0  0  0  0  0  0  0  0
   -1.0723   -1.2209    0.5223 O   0  0  0  0  0  0  0  0  0  0  0  0
   -0.5389   -4.6459   -5.8944 C   0  0  0  0  0  0  0  0  0  0  0  0
   -0.7248    0.0818    0.7421 C   0  0  0  0  0  0  0  0  0  0  0  0
   -0.1854   -4.6048   -7.0935 O   0  0  0  0  0  0  0  0  0  0  0  0
   -1.7887    1.0652    0.9834 C   0  0  0  0  0  0  0  0  0  0  0  0
    0.4743    0.4486    0.7371 O   0  0  0  0  0  0  0  0  0  0  0  0
   -0.2050   -6.3492   -1.6686 H   0  0  0  0  0  0  0  0  0  0  0  0
   -1.4208   -9.9181   -1.0295 H   0  0  0  0  0  0  0  0  0  0  0  0
   -0.0940   -8.7479   -1.1192 H   0  0  0  0  0  0  0  0  0  0  0  0
   -1.4753   -8.6179   -2.2315 H   0  0  0  0  0  0  0  0  0  0  0  0
   -2.7912   -4.9966   -1.7811 H   0  0  0  0  0  0  0  0  0  0  0  0
    0.8844   -4.6099   -0.5859 H   0  0  0  0  0  0  0  0  0  0  0  0
   -1.7428   -3.7640    0.7364 H   0  0  0  0  0  0  0  0  0  0  0  0
    0.3926   -2.4726    1.2737 H   0  0  0  0  0  0  0  0  0  0  0  0
    0.5394   -2.0917   -0.4553 H   0  0  0  0  0  0  0  0  0  0  0  0
   -1.8701   -6.1338   -6.1522 H   0  0  0  0  0  0  0  0  0  0  0  0
    0.7334   -3.0949   -5.1860 H   0  0  0  0  0  0  0  0  0  0  0  0
    1.4599   -5.4025    4.0789 H   0  0  0  0  0  0  0  0  0  0  0  0
    0.2591   -6.5497    3.4610 H   0  0  0  0  0  0  0  0  0  0  0  0
    1.9864   -6.8975    3.2731 H   0  0  0  0  0  0  0  0  0  0  0  0
   -2.3426    0.7868    1.8805 H   0  0  0  0  0  0  0  0  0  0  0  0
   -2.4725    1.0865    0.1351 H   0  0  0  0  0  0  0  0  0  0  0  0
   -1.3770    2.0661    1.1231 H   0  0  0  0  0  0  0  0  0  0  0  0
  1  2  1  0  0  0  0 
  2  4  1  0  0  0  0 
  2  5  2  0  0  0  0 
  3  1  1  0  0  0  0 
  3  6  1  0  0  0  0 
  3  7  1  0  0  0  0 
  6  8  1  0  0  0  0 
  6  9  1  0  0  0  0 
  7 10  1  0  0  0  0 
  7 11  1  0  0  0  0 
 11  8  1  0  0  0  0 
  9 12  1  0  0  0  0 
  9 13  1  0  0  0  0 
 10 14  1  0  0  0  0 
 11 15  1  0  0  0  0 
 12 16  2  0  0  0  0 
 12 17  1  0  0  0  0 
 13 18  2  0  0  0  0 
 14 19  1  0  0  0  0 
 14 20  2  0  0  0  0 
 15 21  1  0  0  0  0 
 17 22  1  0  0  0  0 
 18 22  1  0  0  0  0 
 21 23  1  0  0  0  0 
 22 24  2  0  0  0  0 
 23 25  1  0  0  0  0 
 23 26  2  0  0  0  0 
  3 27  1  0  0  0  0 
 28  4  1  0  0  0  0 
 29  4  1  0  0  0  0 
 30  4  1  0  0  0  0 
  6 31  1  0  0  0  0 
  7 32  1  0  0  0  0 
 11 33  1  0  0  0  0 
 34 15  1  0  0  0  0 
 35 15  1  0  0  0  0 
 36 17  1  0  0  0  0 
 37 18  1  0  0  0  0 
 38 19  1  0  0  0  0 
 39 19  1  0  0  0  0 
 40 19  1  0  0  0  0 
 41 25  1  0  0  0  0 
 42 25  1  0  0  0  0 
 43 25  1  0  0  0  0 
M  END
> <cdk:Title>
azaribine

> <Conformer>
1

> <SuperDrugID>
SD000010

$$$$
