pirarubicin
  CDK     0628171801

 82 87  0  0  0  0  0  0  0  0999 V2000
    3.2382    2.3611   -2.5561 O   0  0  0  0  0  0  0  0  0  0  0  0
    2.0708    1.5026   -2.4069 C   0  0  2  0  0  0  0  0  0  0  0  0
    4.1663    2.4564   -1.4439 C   0  0  1  0  0  0  0  0  0  0  0  0
    1.4991    1.2504   -3.7769 C   0  0  0  0  0  0  0  0  0  0  0  0
    1.0573    2.1515   -1.4140 C   0  0  2  0  0  0  0  0  0  0  0  0
    5.5392    3.0010   -1.9221 C   0  0  1  0  0  0  0  0  0  0  0  0
    3.6605    3.2782   -0.3683 O   0  0  0  0  0  0  0  0  0  0  0  0
    0.1215    1.4506   -4.0628 C   0  0  0  0  0  0  0  0  0  0  0  0
    2.3457    0.7945   -4.8191 C   0  0  0  0  0  0  0  0  0  0  0  0
   -0.3689    1.5528   -1.5176 C   0  0  1  0  0  0  0  0  0  0  0  0
    5.4798    4.5195   -2.2346 C   0  0  2  0  0  0  0  0  0  0  0  0
    3.4887    4.6791   -0.6895 C   0  0  2  0  0  0  0  0  0  0  0  0
   -0.3351    1.3468   -5.4000 C   0  0  0  0  0  0  0  0  0  0  0  0
   -0.8602    1.7875   -2.9829 C   0  0  2  0  0  0  0  0  0  0  0  0
    3.6156    0.4413   -4.4823 O   0  0  0  0  0  0  0  0  0  0  0  0
    1.8968    0.6893   -6.1661 C   0  0  0  0  0  0  0  0  0  0  0  0
   -0.4136    0.1256   -1.0542 C   0  0  0  0  0  0  0  0  0  0  0  0
   -1.2256    2.3159   -0.6607 O   0  0  0  0  0  0  0  0  0  0  0  0
    6.8128    4.9910   -2.6308 N   0  0  2  0  0  0  0  0  0  0  0  0
    4.8604    5.3305   -1.0500 C   0  0  1  0  0  0  0  0  0  0  0  0
    2.7790    5.3440    0.5140 C   0  0  0  0  0  0  0  0  0  0  0  0
   -1.6479    1.6179   -5.6376 O   0  0  0  0  0  0  0  0  0  0  0  0
    0.5325    0.9727   -6.4621 C   0  0  0  0  0  0  0  0  0  0  0  0
    2.7791    0.3172   -7.2394 C   0  0  0  0  0  0  0  0  0  0  0  0
   -0.2281   -0.2626    0.3659 C   0  0  1  0  0  0  0  0  0  0  0  0
   -0.6165   -0.7994   -1.8771 O   0  0  0  0  0  0  0  0  0  0  0  0
    5.6521    5.3380    0.1671 O   0  0  0  0  0  0  0  0  0  0  0  0
    0.0717    0.8566   -7.8192 C   0  0  0  0  0  0  0  0  0  0  0  0
    4.0109    0.2228   -7.0236 O   0  0  0  0  0  0  0  0  0  0  0  0
    2.2967    0.0918   -8.5708 C   0  0  0  0  0  0  0  0  0  0  0  0
    1.1562   -0.3411    0.6817 O   0  0  0  0  0  0  0  0  0  0  0  0
    6.7448    6.2725    0.2982 C   0  0  2  0  0  0  0  0  0  0  0  0
   -1.1043    1.1723   -8.1212 O   0  0  0  0  0  0  0  0  0  0  0  0
    0.9309    0.3797   -8.8578 C   0  0  0  0  0  0  0  0  0  0  0  0
    3.1311   -0.3993   -9.6187 C   0  0  0  0  0  0  0  0  0  0  0  0
    7.1531    6.3111    1.7950 C   0  0  1  0  0  0  0  0  0  0  0  0
    6.3992    7.6099   -0.1399 O   0  0  0  0  0  0  0  0  0  0  0  0
    0.4415    0.1885  -10.1763 C   0  0  0  0  0  0  0  0  0  0  0  0
    4.4512   -0.7252   -9.4342 O   0  0  0  0  0  0  0  0  0  0  0  0
    2.6220   -0.5574  -10.9234 C   0  0  0  0  0  0  0  0  0  0  0  0
    8.3073    7.3215    2.0254 C   0  0  1  0  0  0  0  0  0  0  0  0
    7.4903    8.5514   -0.0527 C   0  0  2  0  0  0  0  0  0  0  0  0
    1.2794   -0.2749  -11.2005 C   0  0  0  0  0  0  0  0  0  0  0  0
    4.6448   -2.1225   -9.1465 C   0  0  0  0  0  0  0  0  0  0  0  0
    7.9802    8.7058    1.4091 C   0  0  1  0  0  0  0  0  0  0  0  0
    4.3502    1.4581   -1.0367 H   0  0  0  0  0  0  0  0  0  0  0  0
    7.5908    5.8930   -0.2769 H   0  0  0  0  0  0  0  0  0  0  0  0
    2.3748    0.5276   -2.0096 H   0  0  0  0  0  0  0  0  0  0  0  0
    0.9948    3.2219   -1.6365 H   0  0  0  0  0  0  0  0  0  0  0  0
    1.4197    2.0560   -0.3872 H   0  0  0  0  0  0  0  0  0  0  0  0
    6.2765    2.8298   -1.1328 H   0  0  0  0  0  0  0  0  0  0  0  0
    5.8596    2.4498   -2.8106 H   0  0  0  0  0  0  0  0  0  0  0  0
    4.8437    4.6598   -3.1135 H   0  0  0  0  0  0  0  0  0  0  0  0
    2.8160    4.7870   -1.5475 H   0  0  0  0  0  0  0  0  0  0  0  0
   -1.7785    1.2091   -3.1181 H   0  0  0  0  0  0  0  0  0  0  0  0
   -1.1323    2.8394   -3.1102 H   0  0  0  0  0  0  0  0  0  0  0  0
    3.6800   -0.5060   -4.7289 H   0  0  0  0  0  0  0  0  0  0  0  0
   -2.1239    1.9448   -0.7924 H   0  0  0  0  0  0  0  0  0  0  0  0
    7.4560    4.7701   -1.8689 H   0  0  0  0  0  0  0  0  0  0  0  0
    6.7724    6.0084   -2.7263 H   0  0  0  0  0  0  0  0  0  0  0  0
    4.6548    6.3505   -1.3937 H   0  0  0  0  0  0  0  0  0  0  0  0
    2.6007    6.4013    0.3108 H   0  0  0  0  0  0  0  0  0  0  0  0
    1.8166    4.8572    0.6879 H   0  0  0  0  0  0  0  0  0  0  0  0
    3.3772    5.2457    1.4221 H   0  0  0  0  0  0  0  0  0  0  0  0
   -1.6490    2.5216   -6.0165 H   0  0  0  0  0  0  0  0  0  0  0  0
   -0.7032    0.4566    1.0380 H   0  0  0  0  0  0  0  0  0  0  0  0
   -0.6702   -1.2425    0.5584 H   0  0  0  0  0  0  0  0  0  0  0  0
    1.5074   -1.0558    0.1086 H   0  0  0  0  0  0  0  0  0  0  0  0
    6.2902    6.6095    2.3973 H   0  0  0  0  0  0  0  0  0  0  0  0
    7.4667    5.3158    2.1213 H   0  0  0  0  0  0  0  0  0  0  0  0
   -0.5341    0.3839  -10.4130 H   0  0  0  0  0  0  0  0  0  0  0  0
    3.2314   -0.8858  -11.6763 H   0  0  0  0  0  0  0  0  0  0  0  0
    8.4898    7.4320    3.0980 H   0  0  0  0  0  0  0  0  0  0  0  0
    9.2224    6.9332    1.5695 H   0  0  0  0  0  0  0  0  0  0  0  0
    7.1382    9.5178   -0.4170 H   0  0  0  0  0  0  0  0  0  0  0  0
    8.3157    8.2345   -0.6976 H   0  0  0  0  0  0  0  0  0  0  0  0
    0.9118   -0.4085  -12.1451 H   0  0  0  0  0  0  0  0  0  0  0  0
    5.7133   -2.2942   -9.0211 H   0  0  0  0  0  0  0  0  0  0  0  0
    4.1406   -2.4139   -8.2212 H   0  0  0  0  0  0  0  0  0  0  0  0
    4.2933   -2.7550   -9.9660 H   0  0  0  0  0  0  0  0  0  0  0  0
    7.1983    9.1888    2.0016 H   0  0  0  0  0  0  0  0  0  0  0  0
    8.8687    9.3425    1.4354 H   0  0  0  0  0  0  0  0  0  0  0  0
  3  1  1  0  0  0  0 
  2  1  1  0  0  0  0 
  2  4  1  0  0  0  0 
  2  5  1  0  0  0  0 
  3  6  1  0  0  0  0 
  3  7  1  0  0  0  0 
  3 46  1  0  0  0  0 
  4  8  2  0  0  0  0 
  4  9  1  0  0  0  0 
 10  5  1  0  0  0  0 
 11  6  1  0  0  0  0 
 12  7  1  0  0  0  0 
  8 13  1  0  0  0  0 
  8 14  1  0  0  0  0 
  9 15  1  0  0  0  0 
  9 16  2  0  0  0  0 
 10 14  1  0  0  0  0 
 10 17  1  0  0  0  0 
 10 18  1  0  0  0  0 
 11 19  1  0  0  0  0 
 20 11  1  0  0  0  0 
 12 20  1  0  0  0  0 
 12 21  1  0  0  0  0 
 13 22  1  0  0  0  0 
 13 23  2  0  0  0  0 
 16 23  1  0  0  0  0 
 16 24  1  0  0  0  0 
 17 25  1  0  0  0  0 
 17 26  2  0  0  0  0 
 20 27  1  0  0  0  0 
 23 28  1  0  0  0  0 
 24 29  2  0  0  0  0 
 24 30  1  0  0  0  0 
 25 31  1  0  0  0  0 
 32 27  1  0  0  0  0 
 28 33  2  0  0  0  0 
 28 34  1  0  0  0  0 
 30 34  2  0  0  0  0 
 30 35  1  0  0  0  0 
 32 36  1  0  0  0  0 
 32 37  1  0  0  0  0 
 32 47  1  0  0  0  0 
 34 38  1  0  0  0  0 
 35 39  1  0  0  0  0 
 35 40  2  0  0  0  0 
 36 41  1  0  0  0  0 
 37 42  1  0  0  0  0 
 38 43  2  0  0  0  0 
 39 44  1  0  0  0  0 
 40 43  1  0  0  0  0 
 41 45  1  0  0  0  0 
 42 45  1  0  0  0  0 
  2 48  1  0  0  0  0 
  5 49  1  0  0  0  0 
  5 50  1  0  0  0  0 
  6 51  1  0  0  0  0 
  6 52  1  0  0  0  0 
 11 53  1  0  0  0  0 
 12 54  1  0  0  0  0 
 14 55  1  0  0  0  0 
 14 56  1  0  0  0  0 
 15 57  1  0  0  0  0 
 18 58  1  0  0  0  0 
 19 59  1  0  0  0  0 
 19 60  1  0  0  0  0 
 20 61  1  0  0  0  0 
 21 62  1  0  0  0  0 
 21 63  1  0  0  0  0 
 21 64  1  0  0  0  0 
 22 65  1  0  0  0  0 
 25 66  1  0  0  0  0 
 25 67  1  0  0  0  0 
 31 68  1  0  0  0  0 
 36 69  1  0  0  0  0 
 36 70  1  0  0  0  0 
 38 71  1  0  0  0  0 
 40 72  1  0  0  0  0 
 41 73  1  0  0  0  0 
 41 74  1  0  0  0  0 
 42 75  1  0  0  0  0 
 42 76  1  0  0  0  0 
 43 77  1  0  0  0  0 
 44 78  1  0  0  0  0 
 44 79  1  0  0  0  0 
 44 80  1  0  0  0  0 
 45 81  1  0  0  0  0 
 45 82  1  0  0  0  0 
M  END
> <cdk:Title>
pirarubicin

> <Conformer>
1

> <SuperDrugID>
SD001973

$$$$
