papaveroline
  CDK     0628171801

 34 36  0  0  0  0  0  0  0  0999 V2000
   -0.6089    1.3060    2.0540 O   0  0  0  0  0  0  0  0  0  0  0  0
   -0.4907    0.0407    1.5724 C   0  0  0  0  0  0  0  0  0  0  0  0
   -1.3370   -0.9552    2.0876 C   0  0  0  0  0  0  0  0  0  0  0  0
   -1.2597   -2.2855    1.6134 C   0  0  0  0  0  0  0  0  0  0  0  0
   -0.3243   -2.6332    0.5908 C   0  0  0  0  0  0  0  0  0  0  0  0
    0.5298   -1.6113    0.0983 C   0  0  0  0  0  0  0  0  0  0  0  0
    0.4517   -0.2895    0.5808 C   0  0  0  0  0  0  0  0  0  0  0  0
    1.2798    0.6703    0.0921 O   0  0  0  0  0  0  0  0  0  0  0  0
   -0.2997   -3.9865    0.1353 C   0  0  0  0  0  0  0  0  0  0  0  0
    0.5893   -4.5388   -0.9210 C   0  0  1  0  0  0  0  0  0  0  0  0
    1.7451   -5.2436   -0.3082 C   0  0  0  0  0  0  0  0  0  0  0  0
    2.9881   -4.5891   -0.1452 C   0  0  0  0  0  0  0  0  0  0  0  0
    4.0871   -5.2556    0.4362 C   0  0  0  0  0  0  0  0  0  0  0  0
    5.2765   -4.6150    0.5786 O   0  0  0  0  0  0  0  0  0  0  0  0
    3.9473   -6.5902    0.8722 C   0  0  0  0  0  0  0  0  0  0  0  0
    4.9773   -7.2700    1.4370 O   0  0  0  0  0  0  0  0  0  0  0  0
    2.7130   -7.2471    0.7241 C   0  0  0  0  0  0  0  0  0  0  0  0
    1.6217   -6.5802    0.1388 C   0  0  0  0  0  0  0  0  0  0  0  0
   -1.1435   -4.8888    0.7100 N   0  0  0  0  0  0  0  0  0  0  0  0
   -2.0256   -4.5892    1.6884 C   0  0  0  0  0  0  0  0  0  0  0  0
   -2.1084   -3.2731    2.1610 C   0  0  0  0  0  0  0  0  0  0  0  0
    0.0942    1.8347    1.6250 H   0  0  0  0  0  0  0  0  0  0  0  0
   -2.0134   -0.7036    2.8163 H   0  0  0  0  0  0  0  0  0  0  0  0
    1.2273   -1.8067   -0.6190 H   0  0  0  0  0  0  0  0  0  0  0  0
    1.9474    0.2042   -0.4521 H   0  0  0  0  0  0  0  0  0  0  0  0
    0.0260   -5.2359   -1.5483 H   0  0  0  0  0  0  0  0  0  0  0  0
    0.9317   -3.7666   -1.6105 H   0  0  0  0  0  0  0  0  0  0  0  0
    3.1000   -3.6178   -0.4481 H   0  0  0  0  0  0  0  0  0  0  0  0
    5.1548   -3.7303    0.1733 H   0  0  0  0  0  0  0  0  0  0  0  0
    5.7735   -6.7145    1.3058 H   0  0  0  0  0  0  0  0  0  0  0  0
    2.6071   -8.2148    1.0418 H   0  0  0  0  0  0  0  0  0  0  0  0
    0.7340   -7.0801    0.0431 H   0  0  0  0  0  0  0  0  0  0  0  0
   -2.6248   -5.3207    2.0738 H   0  0  0  0  0  0  0  0  0  0  0  0
   -2.7824   -3.0500    2.8979 H   0  0  0  0  0  0  0  0  0  0  0  0
  1  2  1  0  0  0  0 
  2  3  1  0  0  0  0 
  3  4  2  0  0  0  0 
  4  5  1  0  0  0  0 
  5  6  2  0  0  0  0 
  6  7  1  0  0  0  0 
  2  7  2  0  0  0  0 
  7  8  1  0  0  0  0 
  5  9  1  0  0  0  0 
  9 10  1  0  0  0  0 
 10 11  1  0  0  0  0 
 11 12  2  0  0  0  0 
 12 13  1  0  0  0  0 
 13 14  1  0  0  0  0 
 13 15  2  0  0  0  0 
 15 16  1  0  0  0  0 
 15 17  1  0  0  0  0 
 17 18  2  0  0  0  0 
 11 18  1  0  0  0  0 
  9 19  2  0  0  0  0 
 19 20  1  0  0  0  0 
 20 21  2  0  0  0  0 
  4 21  1  0  0  0  0 
  1 22  1  0  0  0  0 
  3 23  1  0  0  0  0 
  6 24  1  0  0  0  0 
  8 25  1  0  0  0  0 
 10 26  1  0  0  0  0 
 10 27  1  0  0  0  0 
 12 28  1  0  0  0  0 
 14 29  1  0  0  0  0 
 16 30  1  0  0  0  0 
 17 31  1  0  0  0  0 
 18 32  1  0  0  0  0 
 20 33  1  0  0  0  0 
 21 34  1  0  0  0  0 
M  END
> <cdk:Title>
papaveroline

> <Conformer>
1

> <SuperDrugID>
SD001844

$$$$
