ditazole
  CDK     0628171802

 44 46  0  0  0  0  0  0  0  0999 V2000
   -2.3283    1.5641    0.2529 N   0  0  0  0  0  0  0  0  0  0  0  0
   -3.2751    0.6335    0.8533 C   0  0  2  0  0  0  0  0  0  0  0  0
   -1.4584    2.4357    1.0210 C   0  0  2  0  0  0  0  0  0  0  0  0
   -2.1984    1.5260   -1.1183 C   0  0  0  0  0  0  0  0  0  0  0  0
   -3.5227    0.6885    2.3804 C   0  0  1  0  0  0  0  0  0  0  0  0
   -0.0972    1.7626    1.3141 C   0  0  2  0  0  0  0  0  0  0  0  0
   -1.3006    2.2051   -1.8559 N   0  0  0  0  0  0  0  0  0  0  0  0
   -2.9585    0.7660   -1.9411 O   0  0  0  0  0  0  0  0  0  0  0  0
   -4.4661   -0.3088    2.7617 O   0  0  0  0  0  0  0  0  0  0  0  0
    0.6831    2.5702    2.1868 O   0  0  0  0  0  0  0  0  0  0  0  0
   -1.4626    1.8704   -3.1457 C   0  0  0  0  0  0  0  0  0  0  0  0
   -2.5437    0.9796   -3.2065 C   0  0  0  0  0  0  0  0  0  0  0  0
   -0.5929    2.3176   -4.1728 C   0  0  0  0  0  0  0  0  0  0  0  0
   -3.1653    0.3580   -4.3143 C   0  0  0  0  0  0  0  0  0  0  0  0
   -0.0454    3.6244   -4.1476 C   0  0  0  0  0  0  0  0  0  0  0  0
   -0.2110    1.4480   -5.2228 C   0  0  0  0  0  0  0  0  0  0  0  0
   -3.4121    1.0553   -5.5206 C   0  0  0  0  0  0  0  0  0  0  0  0
   -3.5724   -0.9930   -4.2131 C   0  0  0  0  0  0  0  0  0  0  0  0
    0.8418    4.0511   -5.1559 C   0  0  0  0  0  0  0  0  0  0  0  0
    0.6595    1.8799   -6.2385 C   0  0  0  0  0  0  0  0  0  0  0  0
   -4.0161    0.4041   -6.6128 C   0  0  0  0  0  0  0  0  0  0  0  0
   -4.1759   -1.6427   -5.3050 C   0  0  0  0  0  0  0  0  0  0  0  0
    1.1878    3.1813   -6.2052 C   0  0  0  0  0  0  0  0  0  0  0  0
   -4.3918   -0.9467   -6.5070 C   0  0  0  0  0  0  0  0  0  0  0  0
   -2.9387   -0.3824    0.6216 H   0  0  0  0  0  0  0  0  0  0  0  0
   -4.2525    0.7710    0.3798 H   0  0  0  0  0  0  0  0  0  0  0  0
   -1.9266    2.7378    1.9590 H   0  0  0  0  0  0  0  0  0  0  0  0
   -1.2731    3.3709    0.4861 H   0  0  0  0  0  0  0  0  0  0  0  0
   -2.5911    0.5090    2.9195 H   0  0  0  0  0  0  0  0  0  0  0  0
   -3.9225    1.6649    2.6612 H   0  0  0  0  0  0  0  0  0  0  0  0
    0.4597    1.6162    0.3859 H   0  0  0  0  0  0  0  0  0  0  0  0
   -0.2464    0.7896    1.7826 H   0  0  0  0  0  0  0  0  0  0  0  0
   -4.5640   -0.2028    3.7319 H   0  0  0  0  0  0  0  0  0  0  0  0
    1.4988    2.0504    2.3540 H   0  0  0  0  0  0  0  0  0  0  0  0
   -0.2867    4.2785   -3.3972 H   0  0  0  0  0  0  0  0  0  0  0  0
   -0.5485    0.4832   -5.2529 H   0  0  0  0  0  0  0  0  0  0  0  0
   -3.1610    2.0419   -5.6125 H   0  0  0  0  0  0  0  0  0  0  0  0
   -3.4228   -1.5214   -3.3496 H   0  0  0  0  0  0  0  0  0  0  0  0
    1.2378    4.9942   -5.1283 H   0  0  0  0  0  0  0  0  0  0  0  0
    0.9156    1.2431   -6.9963 H   0  0  0  0  0  0  0  0  0  0  0  0
   -4.1846    0.9110   -7.4849 H   0  0  0  0  0  0  0  0  0  0  0  0
   -4.4551   -2.6233   -5.2258 H   0  0  0  0  0  0  0  0  0  0  0  0
    1.8275    3.4917   -6.9403 H   0  0  0  0  0  0  0  0  0  0  0  0
   -4.8240   -1.4228   -7.3017 H   0  0  0  0  0  0  0  0  0  0  0  0
  1  2  1  0  0  0  0 
  1  3  1  0  0  0  0 
  1  4  1  0  0  0  0 
  2  5  1  0  0  0  0 
  3  6  1  0  0  0  0 
  4  7  2  0  0  0  0 
  4  8  1  0  0  0  0 
  5  9  1  0  0  0  0 
  6 10  1  0  0  0  0 
  7 11  1  0  0  0  0 
  8 12  1  0  0  0  0 
 11 12  2  0  0  0  0 
 11 13  1  0  0  0  0 
 12 14  1  0  0  0  0 
 13 15  2  0  0  0  0 
 13 16  1  0  0  0  0 
 14 17  2  0  0  0  0 
 14 18  1  0  0  0  0 
 15 19  1  0  0  0  0 
 16 20  2  0  0  0  0 
 17 21  1  0  0  0  0 
 18 22  2  0  0  0  0 
 19 23  2  0  0  0  0 
 20 23  1  0  0  0  0 
 21 24  2  0  0  0  0 
 22 24  1  0  0  0  0 
  2 25  1  0  0  0  0 
  2 26  1  0  0  0  0 
  3 27  1  0  0  0  0 
  3 28  1  0  0  0  0 
  5 29  1  0  0  0  0 
  5 30  1  0  0  0  0 
  6 31  1  0  0  0  0 
  6 32  1  0  0  0  0 
  9 33  1  0  0  0  0 
 10 34  1  0  0  0  0 
 15 35  1  0  0  0  0 
 16 36  1  0  0  0  0 
 17 37  1  0  0  0  0 
 18 38  1  0  0  0  0 
 19 39  1  0  0  0  0 
 20 40  1  0  0  0  0 
 21 41  1  0  0  0  0 
 22 42  1  0  0  0  0 
 23 43  1  0  0  0  0 
 24 44  1  0  0  0  0 
M  END
> <cdk:Title>
ditazole

> <Conformer>
1

> <SuperDrugID>
SD000826

$$$$
