niridazole
  CDK     0628171801

 20 21  0  0  0  0  0  0  0  0999 V2000
   -0.6172   -1.2556   -0.0232 O   0  0  0  0  0  0  0  0  0  0  0  0
   -0.7261   -0.0086   -0.0636 C   0  0  0  0  0  0  0  0  0  0  0  0
   -1.2827    0.7314   -1.0486 N   0  0  0  0  0  0  0  0  0  0  0  0
   -0.2741    0.7811    0.9119 N   0  0  0  0  0  0  0  0  0  0  0  0
   -1.8235    0.2529   -2.2075 C   0  0  0  0  0  0  0  0  0  0  0  0
   -1.2158    2.1181   -0.7180 C   0  0  2  0  0  0  0  0  0  0  0  0
   -0.5101    2.1480    0.6563 C   0  0  2  0  0  0  0  0  0  0  0  0
   -2.5302    1.2019   -3.5065 S   0  0  0  0  0  0  0  0  0  0  0  0
   -1.9114   -1.0408   -2.5914 N   0  0  0  0  0  0  0  0  0  0  0  0
   -2.9356   -0.1697   -4.5226 C   0  0  0  0  0  0  0  0  0  0  0  0
   -2.4864   -1.2834   -3.7976 C   0  0  0  0  0  0  0  0  0  0  0  0
   -3.5402   -0.1473   -5.7006 N   0  0  0  0  0  0  0  0  0  0  0  0
   -3.8202   -1.2162   -6.3257 O   0  0  0  0  0  0  0  0  0  0  0  0
   -3.8409    0.8617   -6.2036 O   0  0  0  0  0  0  0  0  0  0  0  0
    0.1708    0.4508    1.7084 H   0  0  0  0  0  0  0  0  0  0  0  0
   -2.2190    2.5504   -0.6524 H   0  0  0  0  0  0  0  0  0  0  0  0
   -0.6319    2.6621   -1.4660 H   0  0  0  0  0  0  0  0  0  0  0  0
    0.4357    2.6923    0.6128 H   0  0  0  0  0  0  0  0  0  0  0  0
   -1.1507    2.5770    1.4311 H   0  0  0  0  0  0  0  0  0  0  0  0
   -2.5834   -2.2368   -4.1493 H   0  0  0  0  0  0  0  0  0  0  0  0
  1  2  2  0  0  0  0 
  2  3  1  0  0  0  0 
  2  4  1  0  0  0  0 
  3  5  1  0  0  0  0 
  3  6  1  0  0  0  0 
  4  7  1  0  0  0  0 
  5  8  1  0  0  0  0 
  5  9  2  0  0  0  0 
  6  7  1  0  0  0  0 
  8 10  1  0  0  0  0 
  9 11  1  0  0  0  0 
 10 11  2  0  0  0  0 
 10 12  1  0  0  0  0 
 12 13  1  0  0  0  0 
 12 14  2  0  0  0  0 
  4 15  1  0  0  0  0 
  6 16  1  0  0  0  0 
  6 17  1  0  0  0  0 
  7 18  1  0  0  0  0 
  7 19  1  0  0  0  0 
 11 20  1  0  0  0  0 
M  CHG  1  12   1
M  CHG  1  13  -1
M  END
> <cdk:Title>
niridazole

> <Conformer>
1

> <SuperDrugID>
SD001735

$$$$
