ibuprofen
  CDK     0628171801

 33 33  0  0  0  0  0  0  0  0999 V2000
   -7.7805    1.8174   11.9287 C   0  0  1  0  0  0  0  0  0  0  0  0
   -7.4414    1.9427   13.3684 C   0  0  0  0  0  0  0  0  0  0  0  0
   -6.5139    1.6607   11.0423 C   0  0  0  0  0  0  0  0  0  0  0  0
   -8.7850    0.7267   11.7078 C   0  0  0  0  0  0  0  0  0  0  0  0
   -6.7563    0.9756   14.0237 O   0  0  0  0  0  0  0  0  0  0  0  0
   -7.7839    2.9575   14.0181 O   0  0  0  0  0  0  0  0  0  0  0  0
  -10.1094    1.0431   11.3223 C   0  0  0  0  0  0  0  0  0  0  0  0
   -8.4512   -0.6396   11.8768 C   0  0  0  0  0  0  0  0  0  0  0  0
  -11.0684    0.0350   11.1200 C   0  0  0  0  0  0  0  0  0  0  0  0
   -9.4111   -1.6484   11.6793 C   0  0  0  0  0  0  0  0  0  0  0  0
  -10.7327   -1.3266   11.2925 C   0  0  0  0  0  0  0  0  0  0  0  0
  -11.7578   -2.3846   11.0779 C   0  0  2  0  0  0  0  0  0  0  0  0
  -12.2135   -2.5547    9.5904 C   0  0  1  0  0  0  0  0  0  0  0  0
  -11.0545   -2.9980    8.6507 C   0  0  0  0  0  0  0  0  0  0  0  0
  -13.4037   -3.5508    9.5052 C   0  0  0  0  0  0  0  0  0  0  0  0
   -8.2258    2.7717   11.6190 H   0  0  0  0  0  0  0  0  0  0  0  0
   -6.8025    1.5566    9.9924 H   0  0  0  0  0  0  0  0  0  0  0  0
   -5.9243    0.7870   11.3274 H   0  0  0  0  0  0  0  0  0  0  0  0
   -5.8803    2.5453   11.1369 H   0  0  0  0  0  0  0  0  0  0  0  0
   -6.5464    1.0832   14.9756 H   0  0  0  0  0  0  0  0  0  0  0  0
  -10.3950    2.0167   11.1878 H   0  0  0  0  0  0  0  0  0  0  0  0
   -7.5034   -0.9131   12.1442 H   0  0  0  0  0  0  0  0  0  0  0  0
  -12.0162    0.3023   10.8467 H   0  0  0  0  0  0  0  0  0  0  0  0
   -9.1340   -2.6241   11.8178 H   0  0  0  0  0  0  0  0  0  0  0  0
  -12.6211   -2.1280   11.6992 H   0  0  0  0  0  0  0  0  0  0  0  0
  -11.3917   -3.3486   11.4436 H   0  0  0  0  0  0  0  0  0  0  0  0
  -12.5817   -1.5907    9.2237 H   0  0  0  0  0  0  0  0  0  0  0  0
  -11.4189   -3.1199    7.6279 H   0  0  0  0  0  0  0  0  0  0  0  0
  -10.6283   -3.9466    8.9847 H   0  0  0  0  0  0  0  0  0  0  0  0
  -10.2636   -2.2454    8.6339 H   0  0  0  0  0  0  0  0  0  0  0  0
  -13.7565   -3.6434    8.4759 H   0  0  0  0  0  0  0  0  0  0  0  0
  -14.2388   -3.1979   10.1147 H   0  0  0  0  0  0  0  0  0  0  0  0
  -13.1056   -4.5387    9.8626 H   0  0  0  0  0  0  0  0  0  0  0  0
  1  2  1  0  0  0  0 
  1  3  1  0  0  0  0 
  1  4  1  0  0  0  0 
  2  5  1  0  0  0  0 
  2  6  2  0  0  0  0 
  4  7  2  0  0  0  0 
  4  8  1  0  0  0  0 
  7  9  1  0  0  0  0 
  8 10  2  0  0  0  0 
  9 11  2  0  0  0  0 
 10 11  1  0  0  0  0 
 11 12  1  0  0  0  0 
 12 13  1  0  0  0  0 
 13 14  1  0  0  0  0 
 13 15  1  0  0  0  0 
  1 16  1  0  0  0  0 
  3 17  1  0  0  0  0 
  3 18  1  0  0  0  0 
  3 19  1  0  0  0  0 
  5 20  1  0  0  0  0 
  7 21  1  0  0  0  0 
  8 22  1  0  0  0  0 
  9 23  1  0  0  0  0 
 10 24  1  0  0  0  0 
 12 25  1  0  0  0  0 
 12 26  1  0  0  0  0 
 13 27  1  0  0  0  0 
 14 28  1  0  0  0  0 
 14 29  1  0  0  0  0 
 14 30  1  0  0  0  0 
 15 31  1  0  0  0  0 
 15 32  1  0  0  0  0 
 15 33  1  0  0  0  0 
M  END
> <cdk:Title>
ibuprofen

> <Conformer>
1

> <SuperDrugID>
SD001250

$$$$
