gestrinone
  CDK     0628171801

 47 50  0  0  0  0  0  0  0  0999 V2000
   -7.0472   -2.5043    0.3841 C   0  0  2  0  0  0  0  0  0  0  0  0
   -8.2042   -1.8264   -0.4008 C   0  0  0  0  0  0  0  0  0  0  0  0
   -6.5788   -1.8339    1.7481 C   0  0  2  0  0  0  0  0  0  0  0  0
   -5.2465   -2.4205    2.3360 C   0  0  2  0  0  0  0  0  0  0  0  0
   -7.5500   -2.2076    2.9393 C   0  0  1  0  0  0  0  0  0  0  0  0
   -6.2935   -0.4155    1.4800 C   0  0  0  0  0  0  0  0  0  0  0  0
   -4.0393   -2.2034    1.3647 C   0  0  1  0  0  0  0  0  0  0  0  0
   -5.6226   -3.8273    2.8398 C   0  0  1  0  0  0  0  0  0  0  0  0
   -7.5359   -1.2924    3.9796 C   0  0  0  0  0  0  0  0  0  0  0  0
   -8.9260   -2.2738    2.5642 O   0  0  0  0  0  0  0  0  0  0  0  0
   -7.0609   -3.6288    3.3903 C   0  0  1  0  0  0  0  0  0  0  0  0
   -5.0819    0.0297    1.0831 C   0  0  0  0  0  0  0  0  0  0  0  0
   -3.9508   -0.7775    0.9197 C   0  0  0  0  0  0  0  0  0  0  0  0
   -2.6942   -2.6440    2.0015 C   0  0  1  0  0  0  0  0  0  0  0  0
   -7.5366   -0.4830    4.8582 C   0  0  0  0  0  0  0  0  0  0  0  0
   -2.7776   -0.3210    0.3726 C   0  0  0  0  0  0  0  0  0  0  0  0
   -1.5691   -2.4460    0.9580 C   0  0  1  0  0  0  0  0  0  0  0  0
   -1.6740   -1.1784    0.2179 C   0  0  0  0  0  0  0  0  0  0  0  0
   -2.6423    1.0776   -0.1130 C   0  0  2  0  0  0  0  0  0  0  0  0
   -0.6715   -0.8937   -0.6465 C   0  0  0  0  0  0  0  0  0  0  0  0
   -1.2545    1.4797   -0.6882 C   0  0  1  0  0  0  0  0  0  0  0  0
   -0.5944    0.3154   -1.3052 C   0  0  0  0  0  0  0  0  0  0  0  0
    0.0682    0.4307   -2.3623 O   0  0  0  0  0  0  0  0  0  0  0  0
   -6.2161   -2.5379   -0.3187 H   0  0  0  0  0  0  0  0  0  0  0  0
   -7.3464   -3.5409    0.5563 H   0  0  0  0  0  0  0  0  0  0  0  0
   -8.3862   -2.3848   -1.3228 H   0  0  0  0  0  0  0  0  0  0  0  0
   -7.9424   -0.8035   -0.6772 H   0  0  0  0  0  0  0  0  0  0  0  0
   -9.1320   -1.8115    0.1705 H   0  0  0  0  0  0  0  0  0  0  0  0
   -4.9716   -1.8543    3.2416 H   0  0  0  0  0  0  0  0  0  0  0  0
   -7.0368    0.2396    1.5743 H   0  0  0  0  0  0  0  0  0  0  0  0
   -4.1752   -2.8336    0.4807 H   0  0  0  0  0  0  0  0  0  0  0  0
   -5.6095   -4.5501    2.0178 H   0  0  0  0  0  0  0  0  0  0  0  0
   -4.9402   -4.1706    3.6231 H   0  0  0  0  0  0  0  0  0  0  0  0
   -9.4046   -2.5749    3.3656 H   0  0  0  0  0  0  0  0  0  0  0  0
   -7.0736   -3.7528    4.4788 H   0  0  0  0  0  0  0  0  0  0  0  0
   -7.7091   -4.4058    2.9717 H   0  0  0  0  0  0  0  0  0  0  0  0
   -5.0290    1.0072    0.9199 H   0  0  0  0  0  0  0  0  0  0  0  0
   -2.4826   -2.0391    2.8895 H   0  0  0  0  0  0  0  0  0  0  0  0
   -2.7277   -3.6939    2.3041 H   0  0  0  0  0  0  0  0  0  0  0  0
   -7.5429    0.1458    5.5307 H   0  0  0  0  0  0  0  0  0  0  0  0
   -0.6093   -2.5005    1.4831 H   0  0  0  0  0  0  0  0  0  0  0  0
   -1.6059   -3.2750    0.2437 H   0  0  0  0  0  0  0  0  0  0  0  0
   -2.8565    1.7696    0.7071 H   0  0  0  0  0  0  0  0  0  0  0  0
   -3.3843    1.2406   -0.8993 H   0  0  0  0  0  0  0  0  0  0  0  0
    0.0524   -1.5559   -0.8148 H   0  0  0  0  0  0  0  0  0  0  0  0
   -1.3590    2.3025   -1.3998 H   0  0  0  0  0  0  0  0  0  0  0  0
   -0.6146    1.8259    0.1280 H   0  0  0  0  0  0  0  0  0  0  0  0
  1  2  1  0  0  0  0 
  3  1  1  0  0  0  0 
  3  4  1  0  0  0  0 
  3  5  1  0  0  0  0 
  3  6  1  0  0  0  0 
  4  7  1  0  0  0  0 
  4  8  1  0  0  0  0 
  5  9  1  0  0  0  0 
  5 10  1  0  0  0  0 
  5 11  1  0  0  0  0 
  6 12  2  0  0  0  0 
  7 13  1  0  0  0  0 
  7 14  1  0  0  0  0 
  8 11  1  0  0  0  0 
  9 15  3  0  0  0  0 
 12 13  1  0  0  0  0 
 13 16  2  0  0  0  0 
 14 17  1  0  0  0  0 
 16 18  1  0  0  0  0 
 16 19  1  0  0  0  0 
 17 18  1  0  0  0  0 
 18 20  2  0  0  0  0 
 19 21  1  0  0  0  0 
 20 22  1  0  0  0  0 
 21 22  1  0  0  0  0 
 22 23  2  0  0  0  0 
 24  1  1  0  0  0  0 
 25  1  1  0  0  0  0 
 26  2  1  0  0  0  0 
 27  2  1  0  0  0  0 
 28  2  1  0  0  0  0 
  4 29  1  0  0  0  0 
 30  6  1  0  0  0  0 
  7 31  1  0  0  0  0 
 32  8  1  0  0  0  0 
 33  8  1  0  0  0  0 
 34 10  1  0  0  0  0 
 35 11  1  0  0  0  0 
 36 11  1  0  0  0  0 
 37 12  1  0  0  0  0 
 38 14  1  0  0  0  0 
 39 14  1  0  0  0  0 
 40 15  1  0  0  0  0 
 41 17  1  0  0  0  0 
 42 17  1  0  0  0  0 
 43 19  1  0  0  0  0 
 44 19  1  0  0  0  0 
 45 20  1  0  0  0  0 
 46 21  1  0  0  0  0 
 47 21  1  0  0  0  0 
M  END
> <cdk:Title>
gestrinone

> <Conformer>
1

> <SuperDrugID>
SD001150

$$$$
