butedronic acid
  CDK     0628171801

 27 26  0  0  0  0  0  0  0  0999 V2000
   -1.4463   -0.5289    0.9861 C   0  0  2  0  0  0  0  0  0  0  0  0
   -2.3734    0.4250    1.8484 C   0  0  2  0  0  0  0  0  0  0  0  0
   -0.0915    0.1024    0.5121 C   0  0  2  0  0  0  0  0  0  0  0  0
   -2.1712   -1.0357   -0.2165 C   0  0  0  0  0  0  0  0  0  0  0  0
   -1.5718    1.1941    3.1769 P   0  0  1  0  0  0  0  0  0  0  0  0
   -3.8006   -0.3787    2.4115 P   0  0  1  0  0  0  0  0  0  0  0  0
    0.7264   -0.7828   -0.3425 C   0  0  0  0  0  0  0  0  0  0  0  0
   -2.5598   -0.1867   -1.1984 O   0  0  0  0  0  0  0  0  0  0  0  0
   -2.4315   -2.2543   -0.3476 O   0  0  0  0  0  0  0  0  0  0  0  0
   -0.5600    2.1577    2.7201 O   0  0  0  0  0  0  0  0  0  0  0  0
   -2.5968    1.9930    4.0937 O   0  0  0  0  0  0  0  0  0  0  0  0
   -0.8817    0.1019    4.1010 O   0  0  0  0  0  0  0  0  0  0  0  0
   -4.6139   -0.9125    1.3089 O   0  0  0  0  0  0  0  0  0  0  0  0
   -3.3968   -1.5712    3.3802 O   0  0  0  0  0  0  0  0  0  0  0  0
   -4.7206    0.6167    3.2417 O   0  0  0  0  0  0  0  0  0  0  0  0
    0.9271   -0.4829   -1.6456 O   0  0  0  0  0  0  0  0  0  0  0  0
    1.2248   -1.8325    0.1216 O   0  0  0  0  0  0  0  0  0  0  0  0
   -1.1815   -1.3875    1.6133 H   0  0  0  0  0  0  0  0  0  0  0  0
   -2.7132    1.2352    1.1988 H   0  0  0  0  0  0  0  0  0  0  0  0
    0.5330    0.3446    1.3721 H   0  0  0  0  0  0  0  0  0  0  0  0
   -0.2963    1.0328   -0.0246 H   0  0  0  0  0  0  0  0  0  0  0  0
   -3.0248   -0.5293   -1.9903 H   0  0  0  0  0  0  0  0  0  0  0  0
   -2.0500    2.3519    4.8230 H   0  0  0  0  0  0  0  0  0  0  0  0
   -0.4828    0.6226    4.8294 H   0  0  0  0  0  0  0  0  0  0  0  0
   -4.2517   -1.9502    3.6732 H   0  0  0  0  0  0  0  0  0  0  0  0
   -5.4567    0.0598    3.5679 H   0  0  0  0  0  0  0  0  0  0  0  0
    1.4386   -1.0869   -2.2221 H   0  0  0  0  0  0  0  0  0  0  0  0
  1  2  1  0  0  0  0 
  1  3  1  0  0  0  0 
  1  4  1  0  0  0  0 
  2  5  1  0  0  0  0 
  2  6  1  0  0  0  0 
  3  7  1  0  0  0  0 
  4  8  1  0  0  0  0 
  4  9  2  0  0  0  0 
  5 10  2  0  0  0  0 
  5 11  1  0  0  0  0 
  5 12  1  0  0  0  0 
  6 13  2  0  0  0  0 
  6 14  1  0  0  0  0 
  6 15  1  0  0  0  0 
  7 16  1  0  0  0  0 
  7 17  2  0  0  0  0 
 18  1  1  0  0  0  0 
 19  2  1  0  0  0  0 
 20  3  1  0  0  0  0 
 21  3  1  0  0  0  0 
 22  8  1  0  0  0  0 
 23 11  1  0  0  0  0 
 24 12  1  0  0  0  0 
 25 14  1  0  0  0  0 
 26 15  1  0  0  0  0 
 27 16  1  0  0  0  0 
M  END
> <cdk:Title>
butedronic acid

> <Conformer>
1

> <SuperDrugID>
SD002651

$$$$
