fluproquazone
  Mrv0541 09131710093D              73.35494

 39 41  0  0  0  0            999 V2000
    5.4392    2.5438   -1.8491 C   0  0  0  0  0  0  0  0  0  0  0  0
    4.2296    2.3805   -2.8083 C   0  0  1  0  0  0  0  0  0  0  0  0
    4.6873    1.8336   -4.1959 C   0  0  0  0  0  0  0  0  0  0  0  0
    3.1345    1.6965   -2.0916 N   0  0  0  0  0  0  0  0  0  0  0  0
    3.0399    0.3210   -2.1403 C   0  0  0  0  0  0  0  0  0  0  0  0
    3.8400   -0.4404   -2.7281 O   0  0  0  0  0  0  0  0  0  0  0  0
    2.0500   -0.3472   -1.5145 N   0  0  0  0  0  0  0  0  0  0  0  0
    1.0963    0.2565   -0.7791 C   0  0  0  0  0  0  0  0  0  0  0  0
    0.1113   -0.5916   -0.2002 C   0  0  0  0  0  0  0  0  0  0  0  0
    0.4881   -1.6185    0.6982 C   0  0  0  0  0  0  0  0  0  0  0  0
   -0.4868   -2.4146    1.3282 C   0  0  0  0  0  0  0  0  0  0  0  0
   -1.8519   -2.2018    1.0632 C   0  0  0  0  0  0  0  0  0  0  0  0
   -2.7576   -2.9175    1.6720 F   0  0  0  0  0  0  0  0  0  0  0  0
   -2.2381   -1.2131    0.1402 C   0  0  0  0  0  0  0  0  0  0  0  0
   -1.2627   -0.4236   -0.4966 C   0  0  0  0  0  0  0  0  0  0  0  0
    1.1637    1.6655   -0.6214 C   0  0  0  0  0  0  0  0  0  0  0  0
    0.2459    2.3519    0.2110 C   0  0  0  0  0  0  0  0  0  0  0  0
    0.3038    3.7409    0.3631 C   0  0  0  0  0  0  0  0  0  0  0  0
    1.3069    4.4815   -0.2809 C   0  0  0  0  0  0  0  0  0  0  0  0
    1.3476    5.9536   -0.1026 C   0  0  0  0  0  0  0  0  0  0  0  0
    2.2507    3.7928   -1.0741 C   0  0  0  0  0  0  0  0  0  0  0  0
    2.2101    2.3816   -1.2969 C   0  0  0  0  0  0  0  0  0  0  0  0
    5.8528    1.5664   -1.5951 H   0  0  0  0  0  0  0  0  0  0  0  0
    6.2196    3.1476   -2.3151 H   0  0  0  0  0  0  0  0  0  0  0  0
    5.1343    3.0387   -0.9248 H   0  0  0  0  0  0  0  0  0  0  0  0
    3.9015    3.3769   -3.1018 H   0  0  0  0  0  0  0  0  0  0  0  0
    3.8184    1.6040   -4.8147 H   0  0  0  0  0  0  0  0  0  0  0  0
    5.2859    2.5858   -4.7183 H   0  0  0  0  0  0  0  0  0  0  0  0
    5.3076    0.9420   -4.1009 H   0  0  0  0  0  0  0  0  0  0  0  0
    1.4740   -1.7848    0.9152 H   0  0  0  0  0  0  0  0  0  0  0  0
   -0.2005   -3.1437    1.9858 H   0  0  0  0  0  0  0  0  0  0  0  0
   -3.2280   -1.0609   -0.0668 H   0  0  0  0  0  0  0  0  0  0  0  0
   -1.5645    0.2850   -1.1701 H   0  0  0  0  0  0  0  0  0  0  0  0
   -0.4815    1.8570    0.7285 H   0  0  0  0  0  0  0  0  0  0  0  0
   -0.3911    4.2047    0.9540 H   0  0  0  0  0  0  0  0  0  0  0  0
    1.4682    6.1921    0.9561 H   0  0  0  0  0  0  0  0  0  0  0  0
    2.1691    6.4189   -0.6523 H   0  0  0  0  0  0  0  0  0  0  0  0
    0.4125    6.3909   -0.4591 H   0  0  0  0  0  0  0  0  0  0  0  0
    2.9858    4.3670   -1.4763 H   0  0  0  0  0  0  0  0  0  0  0  0
  1  2  1  0  0  0  0
  2  3  1  0  0  0  0
  2  4  1  0  0  0  0
  4  5  1  0  0  0  0
  5  6  2  0  0  0  0
  5  7  1  0  0  0  0
  7  8  2  0  0  0  0
  8  9  1  0  0  0  0
  9 10  2  0  0  0  0
 10 11  1  0  0  0  0
 11 12  2  0  0  0  0
 12 13  1  0  0  0  0
 12 14  1  0  0  0  0
 14 15  2  0  0  0  0
  8 16  1  0  0  0  0
 16 17  2  0  0  0  0
 17 18  1  0  0  0  0
 18 19  2  0  0  0  0
 19 20  1  0  0  0  0
 19 21  1  0  0  0  0
 21 22  2  0  0  0  0
 22  4  1  0  0  0  0
 15  9  1  0  0  0  0
 22 16  1  0  0  0  0
  1 23  1  0  0  0  0
  1 24  1  0  0  0  0
  1 25  1  0  0  0  0
  2 26  1  0  0  0  0
  3 27  1  0  0  0  0
  3 28  1  0  0  0  0
  3 29  1  0  0  0  0
 10 30  1  0  0  0  0
 11 31  1  0  0  0  0
 14 32  1  0  0  0  0
 15 33  1  0  0  0  0
 17 34  1  0  0  0  0
 18 35  1  0  0  0  0
 20 36  1  0  0  0  0
 20 37  1  0  0  0  0
 20 38  1  0  0  0  0
 21 39  1  0  0  0  0
M  END
>  <SuperDrugID>
SD006017

>  <_MOLCOUNT>
1

$$$$
