oxiniacic acid
  CDK     0628171801

 15 15  0  0  0  0  0  0  0  0999 V2000
    2.3046   -4.1719   -0.9948 O   0  0  0  0  0  0  0  0  0  0  0  0
    1.1858   -3.5330   -0.7786 N   0  0  0  0  0  0  0  0  0  0  0  0
    0.0118   -4.2163   -0.8409 C   0  0  0  0  0  0  0  0  0  0  0  0
   -1.2032   -3.5496   -0.6119 C   0  0  0  0  0  0  0  0  0  0  0  0
   -1.1840   -2.1757   -0.3199 C   0  0  0  0  0  0  0  0  0  0  0  0
    0.0391   -1.4663   -0.2555 C   0  0  0  0  0  0  0  0  0  0  0  0
    1.2273   -2.2009   -0.4971 C   0  0  0  0  0  0  0  0  0  0  0  0
    0.0796   -0.0782    0.0380 C   0  0  0  0  0  0  0  0  0  0  0  0
    1.2550    0.5940    0.0978 O   0  0  0  0  0  0  0  0  0  0  0  0
   -0.9611    0.5863    0.2541 O   0  0  0  0  0  0  0  0  0  0  0  0
    0.0028   -5.2168   -1.0539 H   0  0  0  0  0  0  0  0  0  0  0  0
   -2.0892   -4.0564   -0.6570 H   0  0  0  0  0  0  0  0  0  0  0  0
   -2.0773   -1.7026   -0.1552 H   0  0  0  0  0  0  0  0  0  0  0  0
    2.1383   -1.7354   -0.4626 H   0  0  0  0  0  0  0  0  0  0  0  0
    1.2655    1.5518    0.3016 H   0  0  0  0  0  0  0  0  0  0  0  0
  1  2  1  0  0  0  0 
  2  3  2  0  0  0  0 
  3  4  1  0  0  0  0 
  4  5  2  0  0  0  0 
  5  6  1  0  0  0  0 
  6  7  2  0  0  0  0 
  2  7  1  0  0  0  0 
  6  8  1  0  0  0  0 
  8  9  1  0  0  0  0 
  8 10  2  0  0  0  0 
  3 11  1  0  0  0  0 
  4 12  1  0  0  0  0 
  5 13  1  0  0  0  0 
  7 14  1  0  0  0  0 
  9 15  1  0  0  0  0 
M  CHG  1   1  -1
M  CHG  1   2   1
M  END
> <cdk:Title>
oxiniacic acid

> <Conformer>
1

> <SuperDrugID>
SD002936

$$$$
