rhodoquine
  CDK     0628171801

 46 47  0  0  0  0  0  0  0  0999 V2000
    1.5766    2.6960   -1.0593 N   0  0  0  0  0  0  0  0  0  0  0  0
    2.1433    3.7850   -0.3373 C   0  0  1  0  0  0  0  0  0  0  0  0
    2.0959    1.4433   -1.2501 C   0  0  0  0  0  0  0  0  0  0  0  0
    1.1515    4.9740   -0.2247 C   0  0  2  0  0  0  0  0  0  0  0  0
    1.3949    0.5711   -2.1180 C   0  0  0  0  0  0  0  0  0  0  0  0
    3.2691    0.9692   -0.6137 C   0  0  0  0  0  0  0  0  0  0  0  0
    0.6400    5.5411   -1.5775 C   0  0  2  0  0  0  0  0  0  0  0  0
    1.8462   -0.7617   -2.3303 C   0  0  0  0  0  0  0  0  0  0  0  0
    0.2683    0.9899   -2.7582 N   0  0  0  0  0  0  0  0  0  0  0  0
    3.7126   -0.3575   -0.8031 C   0  0  0  0  0  0  0  0  0  0  0  0
   -0.2967    6.6934   -1.3265 N   0  0  1  0  0  0  0  0  0  0  0  0
    3.0019   -1.2161   -1.6631 C   0  0  0  0  0  0  0  0  0  0  0  0
    1.1092   -1.5997   -3.1954 C   0  0  0  0  0  0  0  0  0  0  0  0
   -0.4557    0.2069   -3.5937 C   0  0  0  0  0  0  0  0  0  0  0  0
    4.7882   -0.8503   -0.1108 O   0  0  0  0  0  0  0  0  0  0  0  0
    0.3735    8.0375   -1.3625 C   0  0  1  0  0  0  0  0  0  0  0  0
   -1.6232    6.6071   -2.0261 C   0  0  1  0  0  0  0  0  0  0  0  0
   -0.0478   -1.1154   -3.8315 C   0  0  0  0  0  0  0  0  0  0  0  0
    6.0516   -0.5991   -0.7465 C   0  0  0  0  0  0  0  0  0  0  0  0
   -0.3382    9.1386   -0.5396 C   0  0  0  0  0  0  0  0  0  0  0  0
   -2.5468    5.5300   -1.4070 C   0  0  0  0  0  0  0  0  0  0  0  0
    0.7215    2.8695   -1.4800 H   0  0  0  0  0  0  0  0  0  0  0  0
    2.3917    3.4559    0.6742 H   0  0  0  0  0  0  0  0  0  0  0  0
    3.0552    4.1095   -0.8400 H   0  0  0  0  0  0  0  0  0  0  0  0
    1.6498    5.7753    0.3258 H   0  0  0  0  0  0  0  0  0  0  0  0
    0.2903    4.6552    0.3710 H   0  0  0  0  0  0  0  0  0  0  0  0
    3.7997    1.5817    0.0078 H   0  0  0  0  0  0  0  0  0  0  0  0
    0.1418    4.7395   -2.1262 H   0  0  0  0  0  0  0  0  0  0  0  0
    1.4904    5.8483   -2.1949 H   0  0  0  0  0  0  0  0  0  0  0  0
    3.3300   -2.1778   -1.7899 H   0  0  0  0  0  0  0  0  0  0  0  0
    1.4016   -2.5661   -3.3624 H   0  0  0  0  0  0  0  0  0  0  0  0
   -1.2919    0.5836   -4.0403 H   0  0  0  0  0  0  0  0  0  0  0  0
    1.3767    7.9544   -0.9372 H   0  0  0  0  0  0  0  0  0  0  0  0
    0.4860    8.3743   -2.3976 H   0  0  0  0  0  0  0  0  0  0  0  0
   -2.1644    7.5517   -1.9482 H   0  0  0  0  0  0  0  0  0  0  0  0
   -1.4824    6.4066   -3.0927 H   0  0  0  0  0  0  0  0  0  0  0  0
   -0.5852   -1.7166   -4.4576 H   0  0  0  0  0  0  0  0  0  0  0  0
    6.8257   -1.0922   -0.1577 H   0  0  0  0  0  0  0  0  0  0  0  0
    6.0881   -1.0025   -1.7624 H   0  0  0  0  0  0  0  0  0  0  0  0
    6.2684    0.4707   -0.7666 H   0  0  0  0  0  0  0  0  0  0  0  0
   -1.2259    9.4997   -1.0586 H   0  0  0  0  0  0  0  0  0  0  0  0
   -0.6294    8.7543    0.4398 H   0  0  0  0  0  0  0  0  0  0  0  0
    0.3338    9.9880   -0.3947 H   0  0  0  0  0  0  0  0  0  0  0  0
   -3.5600    5.6266   -1.8041 H   0  0  0  0  0  0  0  0  0  0  0  0
   -2.5841    5.6514   -0.3225 H   0  0  0  0  0  0  0  0  0  0  0  0
   -2.1892    4.5254   -1.6363 H   0  0  0  0  0  0  0  0  0  0  0  0
  1  2  1  0  0  0  0 
  1  3  1  0  0  0  0 
  2  4  1  0  0  0  0 
  3  5  2  0  0  0  0 
  3  6  1  0  0  0  0 
  4  7  1  0  0  0  0 
  5  8  1  0  0  0  0 
  5  9  1  0  0  0  0 
  6 10  2  0  0  0  0 
  7 11  1  0  0  0  0 
  8 12  2  0  0  0  0 
  8 13  1  0  0  0  0 
  9 14  2  0  0  0  0 
 10 12  1  0  0  0  0 
 10 15  1  0  0  0  0 
 11 16  1  0  0  0  0 
 11 17  1  0  0  0  0 
 13 18  2  0  0  0  0 
 14 18  1  0  0  0  0 
 15 19  1  0  0  0  0 
 16 20  1  0  0  0  0 
 17 21  1  0  0  0  0 
  1 22  1  0  0  0  0 
  2 23  1  0  0  0  0 
  2 24  1  0  0  0  0 
  4 25  1  0  0  0  0 
  4 26  1  0  0  0  0 
  6 27  1  0  0  0  0 
  7 28  1  0  0  0  0 
  7 29  1  0  0  0  0 
 12 30  1  0  0  0  0 
 13 31  1  0  0  0  0 
 14 32  1  0  0  0  0 
 16 33  1  0  0  0  0 
 16 34  1  0  0  0  0 
 17 35  1  0  0  0  0 
 17 36  1  0  0  0  0 
 18 37  1  0  0  0  0 
 19 38  1  0  0  0  0 
 19 39  1  0  0  0  0 
 19 40  1  0  0  0  0 
 20 41  1  0  0  0  0 
 20 42  1  0  0  0  0 
 20 43  1  0  0  0  0 
 21 44  1  0  0  0  0 
 21 45  1  0  0  0  0 
 21 46  1  0  0  0  0 
M  END
> <cdk:Title>
rhodoquine

> <Conformer>
1

> <SuperDrugID>
SD003001

$$$$
