estradiol undecylate
  CDK     0628171801

 76 79  0  0  0  0  0  0  0  0999 V2000
   -4.0174    0.0532    7.2329 C   0  0  0  0  0  0  0  0  0  0  0  0
   -4.0529    1.3288    6.3071 C   0  0  2  0  0  0  0  0  0  0  0  0
   -2.6884    2.0686    6.1259 C   0  0  2  0  0  0  0  0  0  0  0  0
   -4.8551    2.4789    6.9977 C   0  0  1  0  0  0  0  0  0  0  0  0
   -4.5587    0.9202    4.8869 C   0  0  2  0  0  0  0  0  0  0  0  0
   -1.5878    1.2031    5.4317 C   0  0  1  0  0  0  0  0  0  0  0  0
   -2.4332    2.7037    7.5178 C   0  0  1  0  0  0  0  0  0  0  0  0
   -6.1808    2.1221    7.4387 O   0  0  0  0  0  0  0  0  0  0  0  0
   -3.8547    3.0391    8.0537 C   0  0  2  0  0  0  0  0  0  0  0  0
   -3.5285    0.0202    4.1372 C   0  0  2  0  0  0  0  0  0  0  0  0
   -2.0892    0.6426    4.0422 C   0  0  2  0  0  0  0  0  0  0  0  0
   -0.2970    2.0351    5.1739 C   0  0  1  0  0  0  0  0  0  0  0  0
   -7.0449    2.9959    8.0426 C   0  0  0  0  0  0  0  0  0  0  0  0
   -1.0232   -0.2088    3.3916 C   0  0  0  0  0  0  0  0  0  0  0  0
    0.8156    1.1814    4.5154 C   0  0  2  0  0  0  0  0  0  0  0  0
   -8.4314    3.1166    7.5467 C   0  0  1  0  0  0  0  0  0  0  0  0
   -6.6493    3.7546    8.9572 O   0  0  0  0  0  0  0  0  0  0  0  0
    0.3573    0.0879    3.6081 C   0  0  0  0  0  0  0  0  0  0  0  0
   -1.3382   -1.2898    2.5259 C   0  0  0  0  0  0  0  0  0  0  0  0
   -9.3694    1.9300    7.8907 C   0  0  1  0  0  0  0  0  0  0  0  0
    1.3564   -0.6905    2.9740 C   0  0  0  0  0  0  0  0  0  0  0  0
   -0.3366   -2.0513    1.9021 C   0  0  0  0  0  0  0  0  0  0  0  0
  -10.7188    2.0406    7.1229 C   0  0  1  0  0  0  0  0  0  0  0  0
    1.0147   -1.7555    2.1213 C   0  0  0  0  0  0  0  0  0  0  0  0
  -11.8062    1.0364    7.5941 C   0  0  2  0  0  0  0  0  0  0  0  0
    1.9589   -2.5103    1.5026 O   0  0  0  0  0  0  0  0  0  0  0  0
  -13.1466    1.2328    6.8301 C   0  0  2  0  0  0  0  0  0  0  0  0
  -14.3134    0.3550    7.3608 C   0  0  2  0  0  0  0  0  0  0  0  0
  -15.6216    0.5777    6.5492 C   0  0  1  0  0  0  0  0  0  0  0  0
  -16.8664   -0.2492    7.0631 C   0  0  1  0  0  0  0  0  0  0  0  0
  -18.2476   -0.0826    6.1877 C   0  0  2  0  0  0  0  0  0  0  0  0
  -19.4660   -0.9675    6.8335 C   0  0  0  0  0  0  0  0  0  0  0  0
   -1.3308    0.3702    6.0931 H   0  0  0  0  0  0  0  0  0  0  0  0
   -2.2066    1.4960    3.3660 H   0  0  0  0  0  0  0  0  0  0  0  0
   -2.8357    2.9185    5.4420 H   0  0  0  0  0  0  0  0  0  0  0  0
   -3.7587    0.2906    8.2636 H   0  0  0  0  0  0  0  0  0  0  0  0
   -4.9958   -0.4289    7.2487 H   0  0  0  0  0  0  0  0  0  0  0  0
   -3.2922   -0.6824    6.8889 H   0  0  0  0  0  0  0  0  0  0  0  0
   -5.0221    3.2754    6.2599 H   0  0  0  0  0  0  0  0  0  0  0  0
   -4.7436    1.8134    4.2844 H   0  0  0  0  0  0  0  0  0  0  0  0
   -5.5136    0.3951    4.9675 H   0  0  0  0  0  0  0  0  0  0  0  0
   -1.9213    1.9996    8.1817 H   0  0  0  0  0  0  0  0  0  0  0  0
   -1.8270    3.6112    7.4372 H   0  0  0  0  0  0  0  0  0  0  0  0
   -4.0134    2.5745    9.0316 H   0  0  0  0  0  0  0  0  0  0  0  0
   -3.9787    4.1203    8.1645 H   0  0  0  0  0  0  0  0  0  0  0  0
   -3.9294   -0.1412    3.1340 H   0  0  0  0  0  0  0  0  0  0  0  0
   -3.4708   -0.9573    4.6197 H   0  0  0  0  0  0  0  0  0  0  0  0
   -0.5300    2.8789    4.5163 H   0  0  0  0  0  0  0  0  0  0  0  0
    0.0836    2.4544    6.1095 H   0  0  0  0  0  0  0  0  0  0  0  0
    1.4056    0.7242    5.3137 H   0  0  0  0  0  0  0  0  0  0  0  0
    1.4745    1.8569    3.9612 H   0  0  0  0  0  0  0  0  0  0  0  0
   -8.8758    4.0317    7.9506 H   0  0  0  0  0  0  0  0  0  0  0  0
   -8.3765    3.2398    6.4620 H   0  0  0  0  0  0  0  0  0  0  0  0
   -2.3047   -1.5432    2.3258 H   0  0  0  0  0  0  0  0  0  0  0  0
   -8.8859    0.9837    7.6345 H   0  0  0  0  0  0  0  0  0  0  0  0
   -9.5576    1.9388    8.9678 H   0  0  0  0  0  0  0  0  0  0  0  0
    2.3455   -0.4842    3.1338 H   0  0  0  0  0  0  0  0  0  0  0  0
   -0.5933   -2.8221    1.2811 H   0  0  0  0  0  0  0  0  0  0  0  0
  -11.1124    3.0543    7.2431 H   0  0  0  0  0  0  0  0  0  0  0  0
  -10.5264    1.8803    6.0576 H   0  0  0  0  0  0  0  0  0  0  0  0
  -11.9794    1.1778    8.6643 H   0  0  0  0  0  0  0  0  0  0  0  0
  -11.4452    0.0163    7.4350 H   0  0  0  0  0  0  0  0  0  0  0  0
    2.8031   -2.0259    1.6050 H   0  0  0  0  0  0  0  0  0  0  0  0
  -12.9831    1.0053    5.7726 H   0  0  0  0  0  0  0  0  0  0  0  0
  -13.4475    2.2819    6.9065 H   0  0  0  0  0  0  0  0  0  0  0  0
  -14.4955    0.6027    8.4102 H   0  0  0  0  0  0  0  0  0  0  0  0
  -14.0269   -0.6986    7.3036 H   0  0  0  0  0  0  0  0  0  0  0  0
  -15.8840    1.6387    6.5813 H   0  0  0  0  0  0  0  0  0  0  0  0
  -15.4402    0.3081    5.5053 H   0  0  0  0  0  0  0  0  0  0  0  0
  -16.4999   -1.3087    7.1207 H   0  0  0  0  0  0  0  0  0  0  0  0
  -16.9795    0.0509    8.1390 H   0  0  0  0  0  0  0  0  0  0  0  0
  -18.0701   -0.4198    5.1642 H   0  0  0  0  0  0  0  0  0  0  0  0
  -18.5443    0.9684    6.1702 H   0  0  0  0  0  0  0  0  0  0  0  0
  -20.4343   -0.8998    6.2742 H   0  0  0  0  0  0  0  0  0  0  0  0
  -19.2634   -2.0674    6.8894 H   0  0  0  0  0  0  0  0  0  0  0  0
  -19.7402   -0.6865    7.8822 H   0  0  0  0  0  0  0  0  0  0  0  0
  2  1  1  0  0  0  0 
  3  2  1  0  0  0  0 
  2  4  1  0  0  0  0 
  2  5  1  0  0  0  0 
  6  3  1  0  0  0  0 
  3  7  1  0  0  0  0 
  3 35  1  0  0  0  0 
  4  8  1  0  0  0  0 
  4  9  1  0  0  0  0 
  5 10  1  0  0  0  0 
 11  6  1  0  0  0  0 
  6 12  1  0  0  0  0 
  6 33  1  0  0  0  0 
  7  9  1  0  0  0  0 
  8 13  1  0  0  0  0 
 11 10  1  0  0  0  0 
 11 14  1  0  0  0  0 
 11 34  1  0  0  0  0 
 12 15  1  0  0  0  0 
 13 16  1  0  0  0  0 
 13 17  2  0  0  0  0 
 14 18  2  0  0  0  0 
 14 19  1  0  0  0  0 
 15 18  1  0  0  0  0 
 16 20  1  0  0  0  0 
 18 21  1  0  0  0  0 
 19 22  2  0  0  0  0 
 20 23  1  0  0  0  0 
 21 24  2  0  0  0  0 
 22 24  1  0  0  0  0 
 23 25  1  0  0  0  0 
 24 26  1  0  0  0  0 
 25 27  1  0  0  0  0 
 27 28  1  0  0  0  0 
 28 29  1  0  0  0  0 
 29 30  1  0  0  0  0 
 30 31  1  0  0  0  0 
 31 32  1  0  0  0  0 
  1 36  1  0  0  0  0 
  1 37  1  0  0  0  0 
  1 38  1  0  0  0  0 
  4 39  1  0  0  0  0 
  5 40  1  0  0  0  0 
  5 41  1  0  0  0  0 
  7 42  1  0  0  0  0 
  7 43  1  0  0  0  0 
  9 44  1  0  0  0  0 
  9 45  1  0  0  0  0 
 10 46  1  0  0  0  0 
 10 47  1  0  0  0  0 
 12 48  1  0  0  0  0 
 12 49  1  0  0  0  0 
 15 50  1  0  0  0  0 
 15 51  1  0  0  0  0 
 16 52  1  0  0  0  0 
 16 53  1  0  0  0  0 
 19 54  1  0  0  0  0 
 20 55  1  0  0  0  0 
 20 56  1  0  0  0  0 
 21 57  1  0  0  0  0 
 22 58  1  0  0  0  0 
 23 59  1  0  0  0  0 
 23 60  1  0  0  0  0 
 25 61  1  0  0  0  0 
 25 62  1  0  0  0  0 
 26 63  1  0  0  0  0 
 27 64  1  0  0  0  0 
 27 65  1  0  0  0  0 
 28 66  1  0  0  0  0 
 28 67  1  0  0  0  0 
 29 68  1  0  0  0  0 
 29 69  1  0  0  0  0 
 30 70  1  0  0  0  0 
 30 71  1  0  0  0  0 
 31 72  1  0  0  0  0 
 31 73  1  0  0  0  0 
 32 74  1  0  0  0  0 
 32 75  1  0  0  0  0 
 32 76  1  0  0  0  0 
M  END
> <cdk:Title>
estradiol undecylate

> <Conformer>
1

> <SuperDrugID>
SD000948

$$$$
