furalazine
  CDK     0628171802

 24 25  0  0  0  0  0  0  0  0999 V2000
   -2.2633    3.2701   -4.2640 C   0  0  0  0  0  0  0  0  0  0  0  0
   -2.2801    2.8200   -2.9959 C   0  0  0  0  0  0  0  0  0  0  0  0
   -3.2804    4.0315   -4.8145 C   0  0  0  0  0  0  0  0  0  0  0  0
   -1.2606    2.0788   -2.4037 C   0  0  0  0  0  0  0  0  0  0  0  0
   -4.4051    4.4440   -4.1733 O   0  0  0  0  0  0  0  0  0  0  0  0
   -3.3236    4.5260   -6.1169 C   0  0  0  0  0  0  0  0  0  0  0  0
   -1.3556    1.5973   -1.0771 C   0  0  0  0  0  0  0  0  0  0  0  0
   -0.1024    1.7815   -3.0612 N   0  0  0  0  0  0  0  0  0  0  0  0
   -5.1620    5.1869   -5.0227 C   0  0  0  0  0  0  0  0  0  0  0  0
   -4.4984    5.2493   -6.2469 C   0  0  0  0  0  0  0  0  0  0  0  0
   -0.3286    0.8887   -0.5454 N   0  0  0  0  0  0  0  0  0  0  0  0
    0.8795    1.1002   -2.5279 N   0  0  0  0  0  0  0  0  0  0  0  0
   -6.3208    5.7488   -4.7128 N   0  0  0  0  0  0  0  0  0  0  0  0
    0.7959    0.6357   -1.2581 C   0  0  0  0  0  0  0  0  0  0  0  0
   -6.7691    5.6320   -3.6425 O   0  0  0  0  0  0  0  0  0  0  0  0
   -6.9860    6.4291   -5.5543 O   0  0  0  0  0  0  0  0  0  0  0  0
    1.8075   -0.0582   -0.7182 N   0  0  0  0  0  0  0  0  0  0  0  0
   -1.4846    3.0563   -4.8464 H   0  0  0  0  0  0  0  0  0  0  0  0
   -3.0729    3.0323   -2.4329 H   0  0  0  0  0  0  0  0  0  0  0  0
   -2.6240    4.3881   -6.8479 H   0  0  0  0  0  0  0  0  0  0  0  0
   -2.1791    1.7762   -0.4992 H   0  0  0  0  0  0  0  0  0  0  0  0
   -4.8114    5.7379   -7.0879 H   0  0  0  0  0  0  0  0  0  0  0  0
    1.7289   -0.4006    0.1846 H   0  0  0  0  0  0  0  0  0  0  0  0
    2.6152   -0.2189   -1.2301 H   0  0  0  0  0  0  0  0  0  0  0  0
  1  2  2  0  0  0  0 
  1  3  1  0  0  0  0 
  2  4  1  0  0  0  0 
  3  5  1  0  0  0  0 
  3  6  2  0  0  0  0 
  4  7  2  0  0  0  0 
  4  8  1  0  0  0  0 
  5  9  1  0  0  0  0 
  6 10  1  0  0  0  0 
  7 11  1  0  0  0  0 
  8 12  2  0  0  0  0 
  9 10  2  0  0  0  0 
  9 13  1  0  0  0  0 
 11 14  2  0  0  0  0 
 12 14  1  0  0  0  0 
 13 15  2  0  0  0  0 
 13 16  1  0  0  0  0 
 14 17  1  0  0  0  0 
  1 18  1  0  0  0  0 
  2 19  1  0  0  0  0 
  6 20  1  0  0  0  0 
  7 21  1  0  0  0  0 
 10 22  1  0  0  0  0 
 17 23  1  0  0  0  0 
 17 24  1  0  0  0  0 
M  CHG  1  13   1
M  CHG  1  16  -1
M  END
> <cdk:Title>
furalazine

> <Conformer>
1

> <SuperDrugID>
SD000047

$$$$
