moxisylyte
  CDK     0628171801

 45 45  0  0  0  0  0  0  0  0999 V2000
    1.8560    3.9748    0.6366 C   0  0  1  0  0  0  0  0  0  0  0  0
    2.2581    4.4212   -0.7964 C   0  0  0  0  0  0  0  0  0  0  0  0
    2.8103    4.5693    1.7069 C   0  0  0  0  0  0  0  0  0  0  0  0
    0.4120    4.2796    0.9231 C   0  0  0  0  0  0  0  0  0  0  0  0
   -0.5431    3.2494    1.1138 C   0  0  0  0  0  0  0  0  0  0  0  0
   -0.0327    5.6218    1.0053 C   0  0  0  0  0  0  0  0  0  0  0  0
   -0.1794    1.9293    1.1512 O   0  0  0  0  0  0  0  0  0  0  0  0
   -1.8994    3.5669    1.3195 C   0  0  0  0  0  0  0  0  0  0  0  0
   -1.3839    5.9507    1.2585 C   0  0  0  0  0  0  0  0  0  0  0  0
   -0.3023    1.2438   -0.1094 C   0  0  1  0  0  0  0  0  0  0  0  0
   -2.3356    4.9084    1.3735 C   0  0  0  0  0  0  0  0  0  0  0  0
   -1.8451    7.2373    1.4076 O   0  0  0  0  0  0  0  0  0  0  0  0
    0.1021   -0.2331    0.1027 C   0  0  1  0  0  0  0  0  0  0  0  0
   -3.7755    5.2233    1.5517 C   0  0  0  0  0  0  0  0  0  0  0  0
   -1.2304    8.4479    1.5594 C   0  0  0  0  0  0  0  0  0  0  0  0
    1.5114   -0.3732    0.6035 N   0  0  1  0  0  0  0  0  0  0  0  0
   -2.0935    9.6287    1.6821 C   0  0  0  0  0  0  0  0  0  0  0  0
    0.0125    8.5899    1.6178 O   0  0  0  0  0  0  0  0  0  0  0  0
    1.7175   -1.5536    1.4917 C   0  0  0  0  0  0  0  0  0  0  0  0
    2.5523   -0.2869   -0.4638 C   0  0  0  0  0  0  0  0  0  0  0  0
    2.0262    2.8961    0.6685 H   0  0  0  0  0  0  0  0  0  0  0  0
    1.6044    3.9542   -1.5380 H   0  0  0  0  0  0  0  0  0  0  0  0
    3.2863    4.1168   -1.0104 H   0  0  0  0  0  0  0  0  0  0  0  0
    2.1903    5.5066   -0.9054 H   0  0  0  0  0  0  0  0  0  0  0  0
    2.5042    4.2514    2.7062 H   0  0  0  0  0  0  0  0  0  0  0  0
    3.8300    4.2182    1.5325 H   0  0  0  0  0  0  0  0  0  0  0  0
    2.8153    5.6605    1.6721 H   0  0  0  0  0  0  0  0  0  0  0  0
    0.6459    6.3691    0.8717 H   0  0  0  0  0  0  0  0  0  0  0  0
   -2.5709    2.8036    1.4318 H   0  0  0  0  0  0  0  0  0  0  0  0
   -1.3374    1.2737   -0.4625 H   0  0  0  0  0  0  0  0  0  0  0  0
    0.3321    1.7012   -0.8720 H   0  0  0  0  0  0  0  0  0  0  0  0
   -0.6096   -0.6409    0.8276 H   0  0  0  0  0  0  0  0  0  0  0  0
   -0.0424   -0.7877   -0.8296 H   0  0  0  0  0  0  0  0  0  0  0  0
   -4.1399    5.7683    0.6789 H   0  0  0  0  0  0  0  0  0  0  0  0
   -4.3863    4.3266    1.6668 H   0  0  0  0  0  0  0  0  0  0  0  0
   -3.9176    5.8447    2.4378 H   0  0  0  0  0  0  0  0  0  0  0  0
   -2.6915    9.5489    2.5914 H   0  0  0  0  0  0  0  0  0  0  0  0
   -2.7599    9.6820    0.8202 H   0  0  0  0  0  0  0  0  0  0  0  0
   -1.5052   10.5474    1.7296 H   0  0  0  0  0  0  0  0  0  0  0  0
    2.7363   -1.5679    1.8850 H   0  0  0  0  0  0  0  0  0  0  0  0
    1.0439   -1.4985    2.3486 H   0  0  0  0  0  0  0  0  0  0  0  0
    1.5346   -2.4893    0.9573 H   0  0  0  0  0  0  0  0  0  0  0  0
    2.4443    0.6320   -1.0408 H   0  0  0  0  0  0  0  0  0  0  0  0
    3.5503   -0.2713   -0.0193 H   0  0  0  0  0  0  0  0  0  0  0  0
    2.4885   -1.1388   -1.1469 H   0  0  0  0  0  0  0  0  0  0  0  0
  1  2  1  0  0  0  0 
  1  3  1  0  0  0  0 
  1  4  1  0  0  0  0 
  4  5  2  0  0  0  0 
  4  6  1  0  0  0  0 
  5  7  1  0  0  0  0 
  5  8  1  0  0  0  0 
  6  9  2  0  0  0  0 
  7 10  1  0  0  0  0 
  8 11  2  0  0  0  0 
  9 11  1  0  0  0  0 
  9 12  1  0  0  0  0 
 10 13  1  0  0  0  0 
 11 14  1  0  0  0  0 
 12 15  1  0  0  0  0 
 13 16  1  0  0  0  0 
 15 17  1  0  0  0  0 
 15 18  2  0  0  0  0 
 16 19  1  0  0  0  0 
 16 20  1  0  0  0  0 
  1 21  1  0  0  0  0 
  2 22  1  0  0  0  0 
  2 23  1  0  0  0  0 
  2 24  1  0  0  0  0 
  3 25  1  0  0  0  0 
  3 26  1  0  0  0  0 
  3 27  1  0  0  0  0 
  6 28  1  0  0  0  0 
  8 29  1  0  0  0  0 
 10 30  1  0  0  0  0 
 10 31  1  0  0  0  0 
 13 32  1  0  0  0  0 
 13 33  1  0  0  0  0 
 14 34  1  0  0  0  0 
 14 35  1  0  0  0  0 
 14 36  1  0  0  0  0 
 17 37  1  0  0  0  0 
 17 38  1  0  0  0  0 
 17 39  1  0  0  0  0 
 19 40  1  0  0  0  0 
 19 41  1  0  0  0  0 
 19 42  1  0  0  0  0 
 20 43  1  0  0  0  0 
 20 44  1  0  0  0  0 
 20 45  1  0  0  0  0 
M  END
> <cdk:Title>
moxisylyte

> <Conformer>
1

> <SuperDrugID>
SD001651

$$$$
