teicoplanin aglycone
  CDK     0628171801

130140  0  0  0  0  0  0  0  0999 V2000
  -10.2723  -18.8156   -8.0489 O   0  0  0  0  0  0  0  0  0  0  0  0
   -9.5930  -19.9164   -7.6270 C   0  0  0  0  0  0  0  0  0  0  0  0
   -8.3952  -19.8383   -6.8584 C   0  0  0  0  0  0  0  0  0  0  0  0
  -10.1167  -21.1574   -8.0299 C   0  0  0  0  0  0  0  0  0  0  0  0
   -7.8510  -21.0486   -6.3040 C   0  0  0  0  0  0  0  0  0  0  0  0
   -7.7180  -18.5685   -6.8298 C   0  0  0  0  0  0  0  0  0  0  0  0
   -9.4804  -22.3460   -7.6516 C   0  0  0  0  0  0  0  0  0  0  0  0
   -6.7654  -21.1148   -5.2523 C   0  0  1  0  0  0  0  0  0  0  0  0
   -8.3695  -22.2832   -6.7936 C   0  0  0  0  0  0  0  0  0  0  0  0
   -7.4051  -17.8645   -5.6376 C   0  0  0  0  0  0  0  0  0  0  0  0
   -7.2949  -17.9973   -8.0649 C   0  0  0  0  0  0  0  0  0  0  0  0
   -9.9605  -23.5318   -8.1084 O   0  0  0  0  0  0  0  0  0  0  0  0
   -7.0925  -22.1305   -4.2145 C   0  0  0  0  0  0  0  0  0  0  0  0
   -5.4724  -21.3024   -5.8643 N   0  0  0  0  0  0  0  0  0  0  0  0
   -6.5028  -16.7685   -5.6572 C   0  0  0  0  0  0  0  0  0  0  0  0
   -7.5193  -18.5805   -9.2742 O   0  0  0  0  0  0  0  0  0  0  0  0
   -6.6010  -16.7771   -8.0963 C   0  0  0  0  0  0  0  0  0  0  0  0
   -8.1154  -21.9032   -3.3492 O   0  0  0  0  0  0  0  0  0  0  0  0
   -6.4801  -23.2198   -4.1354 O   0  0  0  0  0  0  0  0  0  0  0  0
   -4.2491  -20.7458   -5.5468 C   0  0  0  0  0  0  0  0  0  0  0  0
   -5.7179  -16.3593   -4.4458 C   0  0  1  0  0  0  0  0  0  0  0  0
   -6.1935  -16.1756   -6.9016 C   0  0  0  0  0  0  0  0  0  0  0  0
   -3.3204  -21.1047   -6.3068 O   0  0  0  0  0  0  0  0  0  0  0  0
   -3.8958  -19.8000   -4.4331 C   0  0  2  0  0  0  0  0  0  0  0  0
   -6.4798  -15.8926   -3.3232 N   0  0  0  0  0  0  0  0  0  0  0  0
   -4.7418  -17.4180   -4.0224 C   0  0  0  0  0  0  0  0  0  0  0  0
   -3.6819  -20.5567   -3.0665 C   0  0  2  0  0  0  0  0  0  0  0  0
   -4.7933  -18.6873   -4.5410 N   0  0  0  0  0  0  0  0  0  0  0  0
   -6.9425  -14.6060   -3.1636 C   0  0  0  0  0  0  0  0  0  0  0  0
   -3.8263  -17.0954   -3.2293 O   0  0  0  0  0  0  0  0  0  0  0  0
   -4.4497  -21.7480   -2.9106 O   0  0  0  0  0  0  0  0  0  0  0  0
   -3.8792  -19.7430   -1.8382 C   0  0  0  0  0  0  0  0  0  0  0  0
   -7.0800  -13.8542   -4.1583 O   0  0  0  0  0  0  0  0  0  0  0  0
   -7.1227  -14.0661   -1.7784 C   0  0  1  0  0  0  0  0  0  0  0  0
   -5.1818  -19.4530   -1.3809 C   0  0  0  0  0  0  0  0  0  0  0  0
   -2.7796  -19.2617   -1.0960 C   0  0  0  0  0  0  0  0  0  0  0  0
   -5.8360  -14.3282   -1.0679 C   0  0  0  0  0  0  0  0  0  0  0  0
   -7.3905  -12.6485   -1.7065 N   0  0  0  0  0  0  0  0  0  0  0  0
   -5.3862  -18.6277   -0.2607 C   0  0  0  0  0  0  0  0  0  0  0  0
   -2.9778  -18.4095   -0.0008 C   0  0  0  0  0  0  0  0  0  0  0  0
   -5.7680  -15.2466   -0.0073 C   0  0  0  0  0  0  0  0  0  0  0  0
   -4.6418  -13.7225   -1.5082 C   0  0  0  0  0  0  0  0  0  0  0  0
   -7.6933  -11.8812   -0.6014 C   0  0  0  0  0  0  0  0  0  0  0  0
   -6.9818  -18.4090    0.2658 Cl  0  0  0  0  0  0  0  0  0  0  0  0
   -4.2863  -17.9752    0.4062 C   0  0  0  0  0  0  0  0  0  0  0  0
   -4.5186  -15.7202    0.5220 C   0  0  0  0  0  0  0  0  0  0  0  0
   -3.4077  -13.9756   -0.8829 C   0  0  0  0  0  0  0  0  0  0  0  0
   -7.8375  -10.6652   -0.8583 O   0  0  0  0  0  0  0  0  0  0  0  0
   -7.9292  -12.3586    0.8005 C   0  0  2  0  0  0  0  0  0  0  0  0
   -4.4587  -16.9002    1.3626 O   0  0  0  0  0  0  0  0  0  0  0  0
   -3.3465  -15.0005    0.0896 C   0  0  0  0  0  0  0  0  0  0  0  0
   -2.3079  -13.1929   -1.1995 O   0  0  0  0  0  0  0  0  0  0  0  0
   -9.2181  -11.9035    1.4329 C   0  0  0  0  0  0  0  0  0  0  0  0
   -6.7528  -12.4117    1.6401 N   0  0  0  0  0  0  0  0  0  0  0  0
   -2.1519  -15.3444    0.6323 O   0  0  0  0  0  0  0  0  0  0  0  0
   -2.4266  -12.0504   -0.4419 C   0  0  0  0  0  0  0  0  0  0  0  0
   -9.2999  -11.4140    2.7590 C   0  0  0  0  0  0  0  0  0  0  0  0
  -10.4353  -12.0154    0.7138 C   0  0  0  0  0  0  0  0  0  0  0  0
   -5.9539  -11.5210    2.3313 C   0  0  0  0  0  0  0  0  0  0  0  0
   -3.1198  -10.9126   -0.9227 C   0  0  0  0  0  0  0  0  0  0  0  0
   -1.9948  -12.0730    0.9009 C   0  0  0  0  0  0  0  0  0  0  0  0
  -10.5120  -10.9321    3.3094 C   0  0  0  0  0  0  0  0  0  0  0  0
  -11.6659  -11.6194    1.2719 C   0  0  0  0  0  0  0  0  0  0  0  0
   -5.2023  -12.1436    3.1163 O   0  0  0  0  0  0  0  0  0  0  0  0
   -5.8275  -10.0224    2.4082 C   0  0  1  0  0  0  0  0  0  0  0  0
   -3.3666  -10.6424   -2.5772 Cl  0  0  0  0  0  0  0  0  0  0  0  0
   -3.6809  -10.0137    0.0035 C   0  0  0  0  0  0  0  0  0  0  0  0
   -2.5288  -11.1560    1.8171 C   0  0  0  0  0  0  0  0  0  0  0  0
  -10.5265  -10.2699    4.5221 O   0  0  0  0  0  0  0  0  0  0  0  0
  -11.7024  -11.0822    2.5722 C   0  0  0  0  0  0  0  0  0  0  0  0
  -12.8004  -11.7467    0.5349 O   0  0  0  0  0  0  0  0  0  0  0  0
   -4.3405   -9.4974    2.3726 C   0  0  2  0  0  0  0  0  0  0  0  0
   -6.6054   -9.3171    1.4459 N   0  0  0  0  0  0  0  0  0  0  0  0
   -3.4833  -10.2054    1.3882 C   0  0  0  0  0  0  0  0  0  0  0  0
  -10.2422   -8.9390    4.2950 C   0  0  0  0  0  0  0  0  0  0  0  0
   -7.2089   -8.0886    1.5441 C   0  0  0  0  0  0  0  0  0  0  0  0
   -8.9190   -8.5669    3.9905 C   0  0  0  0  0  0  0  0  0  0  0  0
  -11.2448   -7.9441    4.2721 C   0  0  0  0  0  0  0  0  0  0  0  0
   -7.7975   -7.7426    0.4928 O   0  0  0  0  0  0  0  0  0  0  0  0
   -7.3028   -7.1447    2.7064 C   0  0  1  0  0  0  0  0  0  0  0  0
   -8.6194   -7.3309    3.3816 C   0  0  0  0  0  0  0  0  0  0  0  0
  -12.5227   -8.2233    4.6320 O   0  0  0  0  0  0  0  0  0  0  0  0
  -10.9238   -6.6386    3.8462 C   0  0  0  0  0  0  0  0  0  0  0  0
   -6.2089   -7.2030    3.6861 N   0  0  1  0  0  0  0  0  0  0  0  0
   -9.6319   -6.3444    3.3657 C   0  0  0  0  0  0  0  0  0  0  0  0
   -7.9627  -14.6106   -1.3358 H   0  0  0  0  0  0  0  0  0  0  0  0
   -5.0659  -15.5251   -4.7291 H   0  0  0  0  0  0  0  0  0  0  0  0
   -8.1366  -13.4232    0.6883 H   0  0  0  0  0  0  0  0  0  0  0  0
   -2.9202  -19.3639   -4.6792 H   0  0  0  0  0  0  0  0  0  0  0  0
   -6.2043   -9.7871    3.3991 H   0  0  0  0  0  0  0  0  0  0  0  0
   -6.7661  -20.2052   -4.6776 H   0  0  0  0  0  0  0  0  0  0  0  0
   -9.8633  -18.0547   -7.5902 H   0  0  0  0  0  0  0  0  0  0  0  0
  -10.9503  -21.1967   -8.6221 H   0  0  0  0  0  0  0  0  0  0  0  0
   -7.9441  -23.1715   -6.5147 H   0  0  0  0  0  0  0  0  0  0  0  0
   -7.7509  -18.2005   -4.7362 H   0  0  0  0  0  0  0  0  0  0  0  0
   -9.3178  -24.2148   -7.8232 H   0  0  0  0  0  0  0  0  0  0  0  0
   -5.4690  -21.9078   -6.6252 H   0  0  0  0  0  0  0  0  0  0  0  0
   -7.5058  -19.5457   -9.1171 H   0  0  0  0  0  0  0  0  0  0  0  0
   -6.3518  -16.3460   -8.9900 H   0  0  0  0  0  0  0  0  0  0  0  0
   -8.3574  -22.5733   -2.6738 H   0  0  0  0  0  0  0  0  0  0  0  0
   -5.6221  -15.3293   -6.9541 H   0  0  0  0  0  0  0  0  0  0  0  0
   -6.5483  -16.4892   -2.5596 H   0  0  0  0  0  0  0  0  0  0  0  0
   -2.6484  -20.9195   -3.0793 H   0  0  0  0  0  0  0  0  0  0  0  0
   -5.5229  -18.8409   -5.1478 H   0  0  0  0  0  0  0  0  0  0  0  0
   -4.1733  -22.3341   -3.6447 H   0  0  0  0  0  0  0  0  0  0  0  0
   -5.9904  -19.8451   -1.8743 H   0  0  0  0  0  0  0  0  0  0  0  0
   -1.8240  -19.5062   -1.3596 H   0  0  0  0  0  0  0  0  0  0  0  0
   -7.3033  -12.1629   -2.5435 H   0  0  0  0  0  0  0  0  0  0  0  0
   -2.1645  -18.0538    0.5020 H   0  0  0  0  0  0  0  0  0  0  0  0
   -6.6306  -15.6480    0.3605 H   0  0  0  0  0  0  0  0  0  0  0  0
   -4.6748  -13.0741   -2.2946 H   0  0  0  0  0  0  0  0  0  0  0  0
   -6.4743  -13.3289    1.7950 H   0  0  0  0  0  0  0  0  0  0  0  0
   -1.4716  -14.9531    0.0439 H   0  0  0  0  0  0  0  0  0  0  0  0
   -8.4673  -11.3857    3.3427 H   0  0  0  0  0  0  0  0  0  0  0  0
  -10.4362  -12.4003   -0.2342 H   0  0  0  0  0  0  0  0  0  0  0  0
   -1.3607  -12.8044    1.2292 H   0  0  0  0  0  0  0  0  0  0  0  0
   -4.2705   -9.2445   -0.3265 H   0  0  0  0  0  0  0  0  0  0  0  0
   -2.2695  -11.2337    2.8044 H   0  0  0  0  0  0  0  0  0  0  0  0
  -12.5911  -10.7816    2.9789 H   0  0  0  0  0  0  0  0  0  0  0  0
  -13.5289  -11.3991    1.0885 H   0  0  0  0  0  0  0  0  0  0  0  0
   -3.9221   -9.6128    3.3767 H   0  0  0  0  0  0  0  0  0  0  0  0
   -4.3060   -8.4268    2.1560 H   0  0  0  0  0  0  0  0  0  0  0  0
   -6.6821   -9.7521    0.5888 H   0  0  0  0  0  0  0  0  0  0  0  0
   -8.1841   -9.2448    4.1529 H   0  0  0  0  0  0  0  0  0  0  0  0
   -7.2333   -6.1339    2.2922 H   0  0  0  0  0  0  0  0  0  0  0  0
  -12.5273   -9.1682    4.8891 H   0  0  0  0  0  0  0  0  0  0  0  0
  -11.6405   -5.9092    3.8533 H   0  0  0  0  0  0  0  0  0  0  0  0
   -6.2962   -6.3754    4.2794 H   0  0  0  0  0  0  0  0  0  0  0  0
   -6.3807   -8.0066    4.2924 H   0  0  0  0  0  0  0  0  0  0  0  0
   -9.4426   -5.4127    2.9888 H   0  0  0  0  0  0  0  0  0  0  0  0
  1  2  1  0  0  0  0 
  2  3  2  0  0  0  0 
  2  4  1  0  0  0  0 
  3  5  1  0  0  0  0 
  3  6  1  0  0  0  0 
  4  7  2  0  0  0  0 
  8  5  1  0  0  0  0 
  5  9  2  0  0  0  0 
  6 10  2  0  0  0  0 
  6 11  1  0  0  0  0 
  7  9  1  0  0  0  0 
  7 12  1  0  0  0  0 
  8 13  1  0  0  0  0 
  8 14  1  0  0  0  0 
  8 91  1  0  0  0  0 
 10 15  1  0  0  0  0 
 11 16  1  0  0  0  0 
 11 17  2  0  0  0  0 
 13 18  1  0  0  0  0 
 13 19  2  0  0  0  0 
 14 20  1  0  0  0  0 
 21 15  1  0  0  0  0 
 15 22  2  0  0  0  0 
 17 22  1  0  0  0  0 
 20 23  2  0  0  0  0 
 24 20  1  0  0  0  0 
 21 25  1  0  0  0  0 
 21 26  1  0  0  0  0 
 21 87  1  0  0  0  0 
 27 24  1  0  0  0  0 
 24 28  1  0  0  0  0 
 24 89  1  0  0  0  0 
 25 29  1  0  0  0  0 
 26 28  1  0  0  0  0 
 26 30  2  0  0  0  0 
 27 31  1  0  0  0  0 
 27 32  1  0  0  0  0 
 29 33  2  0  0  0  0 
 34 29  1  0  0  0  0 
 32 35  2  0  0  0  0 
 32 36  1  0  0  0  0 
 34 37  1  0  0  0  0 
 34 38  1  0  0  0  0 
 34 86  1  0  0  0  0 
 35 39  1  0  0  0  0 
 36 40  2  0  0  0  0 
 37 41  2  0  0  0  0 
 37 42  1  0  0  0  0 
 38 43  1  0  0  0  0 
 39 44  1  0  0  0  0 
 39 45  2  0  0  0  0 
 40 45  1  0  0  0  0 
 41 46  1  0  0  0  0 
 42 47  2  0  0  0  0 
 43 48  2  0  0  0  0 
 49 43  1  0  0  0  0 
 45 50  1  0  0  0  0 
 46 50  1  0  0  0  0 
 46 51  2  0  0  0  0 
 47 51  1  0  0  0  0 
 47 52  1  0  0  0  0 
 49 53  1  0  0  0  0 
 49 54  1  0  0  0  0 
 49 88  1  0  0  0  0 
 51 55  1  0  0  0  0 
 52 56  1  0  0  0  0 
 53 57  2  0  0  0  0 
 53 58  1  0  0  0  0 
 54 59  1  0  0  0  0 
 56 60  2  0  0  0  0 
 56 61  1  0  0  0  0 
 57 62  1  0  0  0  0 
 58 63  2  0  0  0  0 
 59 64  2  0  0  0  0 
 65 59  1  0  0  0  0 
 60 66  1  0  0  0  0 
 60 67  1  0  0  0  0 
 61 68  2  0  0  0  0 
 62 69  1  0  0  0  0 
 62 70  2  0  0  0  0 
 63 70  1  0  0  0  0 
 63 71  1  0  0  0  0 
 65 72  1  0  0  0  0 
 65 73  1  0  0  0  0 
 65 90  1  0  0  0  0 
 67 74  2  0  0  0  0 
 68 74  1  0  0  0  0 
 69 75  1  0  0  0  0 
 72 74  1  0  0  0  0 
 73 76  1  0  0  0  0 
 75 77  2  0  0  0  0 
 75 78  1  0  0  0  0 
 76 79  2  0  0  0  0 
 80 76  1  0  0  0  0 
 77 81  1  0  0  0  0 
 78 82  1  0  0  0  0 
 78 83  2  0  0  0  0 
 80 81  1  0  0  0  0 
 80 84  1  0  0  0  0 
 81 85  2  0  0  0  0 
 83 85  1  0  0  0  0 
  1 92  1  0  0  0  0 
  4 93  1  0  0  0  0 
  9 94  1  0  0  0  0 
 10 95  1  0  0  0  0 
 12 96  1  0  0  0  0 
 14 97  1  0  0  0  0 
 16 98  1  0  0  0  0 
 17 99  1  0  0  0  0 
 18100  1  0  0  0  0 
 22101  1  0  0  0  0 
 25102  1  0  0  0  0 
 27103  1  0  0  0  0 
 28104  1  0  0  0  0 
 31105  1  0  0  0  0 
 35106  1  0  0  0  0 
 36107  1  0  0  0  0 
 38108  1  0  0  0  0 
 40109  1  0  0  0  0 
 41110  1  0  0  0  0 
 42111  1  0  0  0  0 
 54112  1  0  0  0  0 
 55113  1  0  0  0  0 
 57114  1  0  0  0  0 
 58115  1  0  0  0  0 
 61116  1  0  0  0  0 
 67117  1  0  0  0  0 
 68118  1  0  0  0  0 
 70119  1  0  0  0  0 
 71120  1  0  0  0  0 
 72121  1  0  0  0  0 
 72122  1  0  0  0  0 
 73123  1  0  0  0  0 
 77124  1  0  0  0  0 
 80125  1  0  0  0  0 
 82126  1  0  0  0  0 
 83127  1  0  0  0  0 
 84128  1  0  0  0  0 
 84129  1  0  0  0  0 
 85130  1  0  0  0  0 
M  END
> <cdk:Title>
teicoplanin aglycone

> <Conformer>
1

> <SuperDrugID>
SD002319

$$$$
