oxabolone
  CDK     0628171801

 47 50  0  0  0  0  0  0  0  0999 V2000
   -7.4946    0.2053    1.9183 C   0  0  0  0  0  0  0  0  0  0  0  0
   -6.6518    0.0254    3.2407 C   0  0  1  0  0  0  0  0  0  0  0  0
   -5.7265   -1.2325    3.2938 C   0  0  2  0  0  0  0  0  0  0  0  0
   -5.7333    1.2764    3.4537 C   0  0  2  0  0  0  0  0  0  0  0  0
   -7.6072   -0.3085    4.4332 C   0  0  1  0  0  0  0  0  0  0  0  0
   -4.6464   -1.2468    2.1680 C   0  0  1  0  0  0  0  0  0  0  0  0
   -6.7061   -2.4176    3.4504 C   0  0  2  0  0  0  0  0  0  0  0  0
   -4.5816    1.3504    2.4033 C   0  0  2  0  0  0  0  0  0  0  0  0
   -8.8442    0.4029    4.4204 O   0  0  0  0  0  0  0  0  0  0  0  0
   -7.8145   -1.8498    4.3759 C   0  0  2  0  0  0  0  0  0  0  0  0
   -3.7327    0.0320    2.3078 C   0  0  2  0  0  0  0  0  0  0  0  0
   -3.7848   -2.5431    2.2113 C   0  0  2  0  0  0  0  0  0  0  0  0
   -2.6508    0.0368    1.1643 C   0  0  2  0  0  0  0  0  0  0  0  0
   -2.6888   -2.5420    1.1184 C   0  0  1  0  0  0  0  0  0  0  0  0
   -1.7814   -1.2757    1.2102 C   0  0  1  0  0  0  0  0  0  0  0  0
   -1.6898    1.2646    1.1875 C   0  0  1  0  0  0  0  0  0  0  0  0
   -0.6788   -1.2823    0.2009 C   0  0  0  0  0  0  0  0  0  0  0  0
   -0.7015    1.2471   -0.0089 C   0  0  2  0  0  0  0  0  0  0  0  0
   -0.1546   -2.3701   -0.1412 O   0  0  0  0  0  0  0  0  0  0  0  0
   -0.1498   -0.0862   -0.3377 C   0  0  0  0  0  0  0  0  0  0  0  0
    0.7979   -0.1361   -1.1580 O   0  0  0  0  0  0  0  0  0  0  0  0
   -8.1812   -0.6250    1.7482 H   0  0  0  0  0  0  0  0  0  0  0  0
   -8.0940    1.1153    1.9816 H   0  0  0  0  0  0  0  0  0  0  0  0
   -6.8723    0.2974    1.0300 H   0  0  0  0  0  0  0  0  0  0  0  0
   -5.1564   -1.2156    4.2355 H   0  0  0  0  0  0  0  0  0  0  0  0
   -5.2807    1.2406    4.4494 H   0  0  0  0  0  0  0  0  0  0  0  0
   -6.3283    2.1925    3.4130 H   0  0  0  0  0  0  0  0  0  0  0  0
   -7.1202   -0.0630    5.3828 H   0  0  0  0  0  0  0  0  0  0  0  0
   -5.1473   -1.2333    1.1960 H   0  0  0  0  0  0  0  0  0  0  0  0
   -6.2177   -3.2855    3.9053 H   0  0  0  0  0  0  0  0  0  0  0  0
   -7.1156   -2.7165    2.4809 H   0  0  0  0  0  0  0  0  0  0  0  0
   -3.9416    2.1855    2.6962 H   0  0  0  0  0  0  0  0  0  0  0  0
   -4.9873    1.5916    1.4196 H   0  0  0  0  0  0  0  0  0  0  0  0
   -8.5842    1.3464    4.4693 H   0  0  0  0  0  0  0  0  0  0  0  0
   -8.8036   -2.1092    3.9879 H   0  0  0  0  0  0  0  0  0  0  0  0
   -7.7243   -2.2782    5.3791 H   0  0  0  0  0  0  0  0  0  0  0  0
   -3.1955   -0.0461    3.2605 H   0  0  0  0  0  0  0  0  0  0  0  0
   -4.4171   -3.4211    2.0599 H   0  0  0  0  0  0  0  0  0  0  0  0
   -3.3118   -2.6405    3.1926 H   0  0  0  0  0  0  0  0  0  0  0  0
   -3.1837    0.0696    0.2071 H   0  0  0  0  0  0  0  0  0  0  0  0
   -2.0875   -3.4482    1.2458 H   0  0  0  0  0  0  0  0  0  0  0  0
   -3.1604   -2.5900    0.1322 H   0  0  0  0  0  0  0  0  0  0  0  0
   -1.2786   -1.3165    2.1835 H   0  0  0  0  0  0  0  0  0  0  0  0
   -2.2486    2.2005    1.1322 H   0  0  0  0  0  0  0  0  0  0  0  0
   -1.1281    1.2700    2.1265 H   0  0  0  0  0  0  0  0  0  0  0  0
    0.1208    1.9312    0.2137 H   0  0  0  0  0  0  0  0  0  0  0  0
   -1.2105    1.6222   -0.9008 H   0  0  0  0  0  0  0  0  0  0  0  0
  2  1  1  0  0  0  0 
  2  3  1  0  0  0  0 
  2  4  1  0  0  0  0 
  2  5  1  0  0  0  0 
  3  6  1  0  0  0  0 
  3  7  1  0  0  0  0 
  4  8  1  0  0  0  0 
  5  9  1  0  0  0  0 
  5 10  1  0  0  0  0 
  6 11  1  0  0  0  0 
  6 12  1  0  0  0  0 
  7 10  1  0  0  0  0 
 11  8  1  0  0  0  0 
 11 13  1  0  0  0  0 
 12 14  1  0  0  0  0 
 13 15  1  0  0  0  0 
 13 16  1  0  0  0  0 
 14 15  1  0  0  0  0 
 15 17  1  0  0  0  0 
 16 18  1  0  0  0  0 
 17 19  2  0  0  0  0 
 17 20  1  0  0  0  0 
 18 20  1  0  0  0  0 
 20 21  2  0  0  0  0 
 22  1  1  0  0  0  0 
 23  1  1  0  0  0  0 
 24  1  1  0  0  0  0 
  3 25  1  0  0  0  0 
 26  4  1  0  0  0  0 
 27  4  1  0  0  0  0 
  5 28  1  0  0  0  0 
  6 29  1  0  0  0  0 
 30  7  1  0  0  0  0 
 31  7  1  0  0  0  0 
 32  8  1  0  0  0  0 
 33  8  1  0  0  0  0 
 34  9  1  0  0  0  0 
 35 10  1  0  0  0  0 
 36 10  1  0  0  0  0 
 11 37  1  0  0  0  0 
 38 12  1  0  0  0  0 
 39 12  1  0  0  0  0 
 13 40  1  0  0  0  0 
 41 14  1  0  0  0  0 
 42 14  1  0  0  0  0 
 43 15  1  0  0  0  0 
 44 16  1  0  0  0  0 
 45 16  1  0  0  0  0 
 46 18  1  0  0  0  0 
 47 18  1  0  0  0  0 
M  END
> <cdk:Title>
oxabolone

> <Conformer>
1

> <SuperDrugID>
SD003242

$$$$
