tasosartan
  CDK     0628171801

 52 56  0  0  0  0  0  0  0  0999 V2000
   -2.1858    2.5821   -4.1780 C   0  0  2  0  0  0  0  0  0  0  0  0
   -1.6808    1.6582   -3.1633 N   0  0  0  0  0  0  0  0  0  0  0  0
   -2.5267    1.9065   -5.4652 C   0  0  0  0  0  0  0  0  0  0  0  0
   -0.6625    0.7528   -3.4757 C   0  0  0  0  0  0  0  0  0  0  0  0
   -2.1900    1.6746   -1.8714 C   0  0  0  0  0  0  0  0  0  0  0  0
   -3.5405    0.9230   -5.5221 C   0  0  0  0  0  0  0  0  0  0  0  0
   -1.7699    2.1687   -6.6301 C   0  0  0  0  0  0  0  0  0  0  0  0
   -0.3597   -0.3658   -2.6508 C   0  0  0  0  0  0  0  0  0  0  0  0
    0.0477    0.9021   -4.6255 N   0  0  0  0  0  0  0  0  0  0  0  0
   -3.1068    2.4539   -1.5191 O   0  0  0  0  0  0  0  0  0  0  0  0
   -1.6356    0.7919   -0.8167 C   0  0  1  0  0  0  0  0  0  0  0  0
   -3.7209    0.1483   -6.6839 C   0  0  0  0  0  0  0  0  0  0  0  0
   -1.9349    1.3837   -7.7831 C   0  0  0  0  0  0  0  0  0  0  0  0
   -1.1591   -0.5561   -1.4105 C   0  0  2  0  0  0  0  0  0  0  0  0
    0.6540   -1.2648   -3.0864 C   0  0  0  0  0  0  0  0  0  0  0  0
    0.9881    0.0319   -5.0532 C   0  0  0  0  0  0  0  0  0  0  0  0
   -2.8873    0.3406   -7.8084 C   0  0  0  0  0  0  0  0  0  0  0  0
    1.0828   -2.4583   -2.3255 C   0  0  0  0  0  0  0  0  0  0  0  0
    1.2759   -1.0349   -4.2728 N   0  0  0  0  0  0  0  0  0  0  0  0
    1.6597    0.2217   -6.3440 C   0  0  0  0  0  0  0  0  0  0  0  0
   -2.9837   -0.5093   -8.9419 C   0  0  0  0  0  0  0  0  0  0  0  0
   -2.6723   -1.9053   -8.9020 C   0  0  0  0  0  0  0  0  0  0  0  0
   -3.4176    0.0779  -10.1553 C   0  0  0  0  0  0  0  0  0  0  0  0
   -2.8191   -2.6613  -10.0930 C   0  0  0  0  0  0  0  0  0  0  0  0
   -2.1951   -2.5696   -7.7338 C   0  0  0  0  0  0  0  0  0  0  0  0
   -3.5275   -0.6870  -11.3260 C   0  0  0  0  0  0  0  0  0  0  0  0
   -3.2252   -2.0565  -11.2960 C   0  0  0  0  0  0  0  0  0  0  0  0
   -2.2909   -3.8746   -7.4447 N   0  0  0  0  0  0  0  0  0  0  0  0
   -1.5476   -2.0252   -6.6927 N   0  0  0  0  0  0  0  0  0  0  0  0
   -1.7444   -4.0963   -6.2982 N   0  0  0  0  0  0  0  0  0  0  0  0
   -1.2951   -2.9702   -5.8466 N   0  0  0  0  0  0  0  0  0  0  0  0
   -1.4009    3.3281   -4.3301 H   0  0  0  0  0  0  0  0  0  0  0  0
   -3.0718    3.1353   -3.8586 H   0  0  0  0  0  0  0  0  0  0  0  0
   -4.1369    0.7470   -4.7102 H   0  0  0  0  0  0  0  0  0  0  0  0
   -1.0561    2.9019   -6.6321 H   0  0  0  0  0  0  0  0  0  0  0  0
   -0.7810    1.3022   -0.3636 H   0  0  0  0  0  0  0  0  0  0  0  0
   -2.3760    0.5987   -0.0323 H   0  0  0  0  0  0  0  0  0  0  0  0
   -4.4487   -0.5716   -6.6969 H   0  0  0  0  0  0  0  0  0  0  0  0
   -1.3361    1.5673   -8.5929 H   0  0  0  0  0  0  0  0  0  0  0  0
   -0.5848   -1.0746   -0.6416 H   0  0  0  0  0  0  0  0  0  0  0  0
   -2.0288   -1.1727   -1.6540 H   0  0  0  0  0  0  0  0  0  0  0  0
    0.2315   -3.1159   -2.1451 H   0  0  0  0  0  0  0  0  0  0  0  0
    1.8412   -3.0273   -2.8679 H   0  0  0  0  0  0  0  0  0  0  0  0
    1.5122   -2.1561   -1.3694 H   0  0  0  0  0  0  0  0  0  0  0  0
    1.4418   -0.6297   -6.9894 H   0  0  0  0  0  0  0  0  0  0  0  0
    1.3145    1.1312   -6.8420 H   0  0  0  0  0  0  0  0  0  0  0  0
    2.7365    0.2930   -6.1897 H   0  0  0  0  0  0  0  0  0  0  0  0
   -3.6648    1.0715  -10.1972 H   0  0  0  0  0  0  0  0  0  0  0  0
   -2.6170   -3.6656  -10.1087 H   0  0  0  0  0  0  0  0  0  0  0  0
   -3.8316   -0.2475  -12.1982 H   0  0  0  0  0  0  0  0  0  0  0  0
   -3.3011   -2.6128  -12.1512 H   0  0  0  0  0  0  0  0  0  0  0  0
   -2.7105   -4.5490   -8.0024 H   0  0  0  0  0  0  0  0  0  0  0  0
  1  2  1  0  0  0  0 
  1  3  1  0  0  0  0 
  2  4  1  0  0  0  0 
  2  5  1  0  0  0  0 
  3  6  2  0  0  0  0 
  3  7  1  0  0  0  0 
  4  8  2  0  0  0  0 
  4  9  1  0  0  0  0 
  5 10  2  0  0  0  0 
  5 11  1  0  0  0  0 
  6 12  1  0  0  0  0 
  7 13  2  0  0  0  0 
  8 14  1  0  0  0  0 
  8 15  1  0  0  0  0 
  9 16  2  0  0  0  0 
 11 14  1  0  0  0  0 
 12 17  2  0  0  0  0 
 13 17  1  0  0  0  0 
 15 18  1  0  0  0  0 
 15 19  2  0  0  0  0 
 16 19  1  0  0  0  0 
 16 20  1  0  0  0  0 
 17 21  1  0  0  0  0 
 21 22  2  0  0  0  0 
 21 23  1  0  0  0  0 
 22 24  1  0  0  0  0 
 22 25  1  0  0  0  0 
 23 26  2  0  0  0  0 
 24 27  2  0  0  0  0 
 25 28  1  0  0  0  0 
 25 29  2  0  0  0  0 
 26 27  1  0  0  0  0 
 28 30  1  0  0  0  0 
 29 31  1  0  0  0  0 
 30 31  2  0  0  0  0 
 32  1  1  0  0  0  0 
 33  1  1  0  0  0  0 
 34  6  1  0  0  0  0 
 35  7  1  0  0  0  0 
 36 11  1  0  0  0  0 
 37 11  1  0  0  0  0 
 38 12  1  0  0  0  0 
 39 13  1  0  0  0  0 
 40 14  1  0  0  0  0 
 41 14  1  0  0  0  0 
 42 18  1  0  0  0  0 
 43 18  1  0  0  0  0 
 44 18  1  0  0  0  0 
 45 20  1  0  0  0  0 
 46 20  1  0  0  0  0 
 47 20  1  0  0  0  0 
 48 23  1  0  0  0  0 
 49 24  1  0  0  0  0 
 50 26  1  0  0  0  0 
 51 27  1  0  0  0  0 
 52 28  1  0  0  0  0 
M  END
> <cdk:Title>
tasosartan

> <Conformer>
1

> <SuperDrugID>
SD003273

$$$$
