dutasteride
  CDK     0628171802

 67 71  0  0  0  0  0  0  0  0999 V2000
   -0.5001   -3.8495   -4.7278 C   0  0  0  0  0  0  0  0  0  0  0  0
    0.8373   -4.6464   -4.4738 C   0  0  2  0  0  0  0  0  0  0  0  0
    0.6992   -6.2060   -4.5738 C   0  0  2  0  0  0  0  0  0  0  0  0
    1.3135   -4.5057   -2.9811 C   0  0  1  0  0  0  0  0  0  0  0  0
    1.8973   -4.2332   -5.5462 C   0  0  2  0  0  0  0  0  0  0  0  0
    0.1054   -6.6842   -5.9399 C   0  0  1  0  0  0  0  0  0  0  0  0
   -0.0237   -6.5890   -3.2635 C   0  0  1  0  0  0  0  0  0  0  0  0
    1.3320   -3.1490   -2.3355 C   0  0  0  0  0  0  0  0  0  0  0  0
    0.4751   -5.5667   -2.2031 C   0  0  2  0  0  0  0  0  0  0  0  0
    1.4615   -4.6511   -6.9836 C   0  0  2  0  0  0  0  0  0  0  0  0
    0.9917   -6.1487   -7.1392 C   0  0  2  0  0  0  0  0  0  0  0  0
   -0.0677   -8.2348   -6.0410 C   0  0  1  0  0  0  0  0  0  0  0  0
    0.1847   -2.4134   -2.1617 N   0  0  0  0  0  0  0  0  0  0  0  0
    2.4403   -2.7381   -1.9197 O   0  0  0  0  0  0  0  0  0  0  0  0
    0.3219   -6.5078   -8.5375 C   0  0  2  0  0  0  0  0  0  0  0  0
   -0.6304   -8.6938   -7.4192 C   0  0  2  0  0  0  0  0  0  0  0  0
   -0.0422   -1.1444   -1.6562 C   0  0  0  0  0  0  0  0  0  0  0  0
   -1.0768   -5.8059   -8.7437 C   0  0  0  0  0  0  0  0  0  0  0  0
    0.1819   -8.0847   -8.5961 C   0  0  1  0  0  0  0  0  0  0  0  0
    1.1430   -6.1218   -9.7126 C   0  0  0  0  0  0  0  0  0  0  0  0
   -1.3950   -0.7380   -1.4282 C   0  0  0  0  0  0  0  0  0  0  0  0
    0.9955   -0.2109   -1.3880 C   0  0  0  0  0  0  0  0  0  0  0  0
   -0.2663   -8.4949   -9.9002 N   0  0  0  0  0  0  0  0  0  0  0  0
    1.0609   -6.7733  -10.8897 C   0  0  0  0  0  0  0  0  0  0  0  0
   -2.5576   -1.6147   -1.7854 C   0  0  2  0  0  0  0  0  0  0  0  0
   -1.6404    0.5473   -0.8847 C   0  0  0  0  0  0  0  0  0  0  0  0
    0.7453    1.0757   -0.8525 C   0  0  0  0  0  0  0  0  0  0  0  0
    0.2379   -7.8860  -11.0174 C   0  0  0  0  0  0  0  0  0  0  0  0
   -2.4682   -2.8428   -1.1776 F   0  0  0  0  0  0  0  0  0  0  0  0
   -2.5882   -1.7829   -3.1474 F   0  0  0  0  0  0  0  0  0  0  0  0
   -3.7967   -1.1265   -1.4400 F   0  0  0  0  0  0  0  0  0  0  0  0
   -0.5939    1.4328   -0.5964 C   0  0  0  0  0  0  0  0  0  0  0  0
    1.8552    2.0481   -0.6148 C   0  0  1  0  0  0  0  0  0  0  0  0
   -0.0684   -8.3277  -12.1476 O   0  0  0  0  0  0  0  0  0  0  0  0
    1.5545    3.0046    0.3298 F   0  0  0  0  0  0  0  0  0  0  0  0
    3.0051    1.4362   -0.1721 F   0  0  0  0  0  0  0  0  0  0  0  0
    2.1373    2.6955   -1.7930 F   0  0  0  0  0  0  0  0  0  0  0  0
   -0.9000   -6.2736   -5.9988 H   0  0  0  0  0  0  0  0  0  0  0  0
    1.9335   -6.7113   -7.0834 H   0  0  0  0  0  0  0  0  0  0  0  0
    1.6974   -6.6651   -4.5094 H   0  0  0  0  0  0  0  0  0  0  0  0
    1.1858   -8.5210   -8.5062 H   0  0  0  0  0  0  0  0  0  0  0  0
   -0.3122   -2.7746   -4.6894 H   0  0  0  0  0  0  0  0  0  0  0  0
   -1.2605   -4.0980   -3.9874 H   0  0  0  0  0  0  0  0  0  0  0  0
   -0.9367   -4.0459   -5.7037 H   0  0  0  0  0  0  0  0  0  0  0  0
    2.3527   -4.8667   -2.9577 H   0  0  0  0  0  0  0  0  0  0  0  0
    2.8606   -4.7060   -5.3261 H   0  0  0  0  0  0  0  0  0  0  0  0
    2.0600   -3.1520   -5.5140 H   0  0  0  0  0  0  0  0  0  0  0  0
   -1.1065   -6.5159   -3.3947 H   0  0  0  0  0  0  0  0  0  0  0  0
    0.2180   -7.6143   -2.9704 H   0  0  0  0  0  0  0  0  0  0  0  0
   -0.4441   -5.0703   -1.7580 H   0  0  0  0  0  0  0  0  0  0  0  0
    1.1733   -6.1077   -1.4862 H   0  0  0  0  0  0  0  0  0  0  0  0
    2.3253   -4.4768   -7.6302 H   0  0  0  0  0  0  0  0  0  0  0  0
    0.6839   -3.9679   -7.3198 H   0  0  0  0  0  0  0  0  0  0  0  0
    0.8992   -8.7182   -5.8731 H   0  0  0  0  0  0  0  0  0  0  0  0
   -0.7484   -8.5843   -5.2597 H   0  0  0  0  0  0  0  0  0  0  0  0
   -0.6164   -2.8711   -2.4495 H   0  0  0  0  0  0  0  0  0  0  0  0
   -1.6850   -8.4214   -7.5011 H   0  0  0  0  0  0  0  0  0  0  0  0
   -0.5723   -9.7842   -7.4726 H   0  0  0  0  0  0  0  0  0  0  0  0
   -1.4951   -6.0176   -9.7311 H   0  0  0  0  0  0  0  0  0  0  0  0
   -1.8205   -6.1410   -8.0246 H   0  0  0  0  0  0  0  0  0  0  0  0
   -0.9995   -4.7220   -8.6566 H   0  0  0  0  0  0  0  0  0  0  0  0
    1.7391   -5.3317   -9.6662 H   0  0  0  0  0  0  0  0  0  0  0  0
    1.9633   -0.4478   -1.5967 H   0  0  0  0  0  0  0  0  0  0  0  0
   -0.8983   -9.2263   -9.9901 H   0  0  0  0  0  0  0  0  0  0  0  0
    1.5886   -6.4541  -11.6692 H   0  0  0  0  0  0  0  0  0  0  0  0
   -2.5912    0.8715   -0.6973 H   0  0  0  0  0  0  0  0  0  0  0  0
   -0.8256    2.3528   -0.2136 H   0  0  0  0  0  0  0  0  0  0  0  0
  2  1  1  0  0  0  0 
  3  2  1  0  0  0  0 
  2  4  1  0  0  0  0 
  2  5  1  0  0  0  0 
  6  3  1  0  0  0  0 
  3  7  1  0  0  0  0 
  3 40  1  0  0  0  0 
  4  8  1  0  0  0  0 
  4  9  1  0  0  0  0 
  5 10  1  0  0  0  0 
 11  6  1  0  0  0  0 
  6 12  1  0  0  0  0 
  6 38  1  0  0  0  0 
  7  9  1  0  0  0  0 
  8 13  1  0  0  0  0 
  8 14  2  0  0  0  0 
 11 10  1  0  0  0  0 
 15 11  1  0  0  0  0 
 11 39  1  0  0  0  0 
 12 16  1  0  0  0  0 
 13 17  1  0  0  0  0 
 15 18  1  0  0  0  0 
 15 19  1  0  0  0  0 
 15 20  1  0  0  0  0 
 19 16  1  0  0  0  0 
 17 21  2  0  0  0  0 
 17 22  1  0  0  0  0 
 19 23  1  0  0  0  0 
 19 41  1  0  0  0  0 
 20 24  2  0  0  0  0 
 21 25  1  0  0  0  0 
 21 26  1  0  0  0  0 
 22 27  2  0  0  0  0 
 23 28  1  0  0  0  0 
 24 28  1  0  0  0  0 
 25 29  1  0  0  0  0 
 25 30  1  0  0  0  0 
 25 31  1  0  0  0  0 
 26 32  2  0  0  0  0 
 27 32  1  0  0  0  0 
 27 33  1  0  0  0  0 
 28 34  2  0  0  0  0 
 33 35  1  0  0  0  0 
 33 36  1  0  0  0  0 
 33 37  1  0  0  0  0 
  1 42  1  0  0  0  0 
  1 43  1  0  0  0  0 
  1 44  1  0  0  0  0 
  4 45  1  0  0  0  0 
  5 46  1  0  0  0  0 
  5 47  1  0  0  0  0 
  7 48  1  0  0  0  0 
  7 49  1  0  0  0  0 
  9 50  1  0  0  0  0 
  9 51  1  0  0  0  0 
 10 52  1  0  0  0  0 
 10 53  1  0  0  0  0 
 12 54  1  0  0  0  0 
 12 55  1  0  0  0  0 
 13 56  1  0  0  0  0 
 16 57  1  0  0  0  0 
 16 58  1  0  0  0  0 
 18 59  1  0  0  0  0 
 18 60  1  0  0  0  0 
 18 61  1  0  0  0  0 
 20 62  1  0  0  0  0 
 22 63  1  0  0  0  0 
 23 64  1  0  0  0  0 
 24 65  1  0  0  0  0 
 26 66  1  0  0  0  0 
 32 67  1  0  0  0  0 
M  END
> <cdk:Title>
dutasteride

> <Conformer>
1

> <SuperDrugID>
SD000863

$$$$
