sulfaguanole
  CDK     0628171801

 36 37  0  0  0  0  0  0  0  0999 V2000
    7.6712    5.5352   -7.1128 N   0  0  0  0  0  0  0  0  0  0  0  0
    8.0260    6.7512   -7.3383 C   0  0  0  0  0  0  0  0  0  0  0  0
    8.2726    4.3782   -7.3087 C   0  0  0  0  0  0  0  0  0  0  0  0
    7.2277    7.7587   -6.9984 N   0  0  0  0  0  0  0  0  0  0  0  0
    9.1748    7.0711   -7.9039 N   0  0  0  0  0  0  0  0  0  0  0  0
    7.6601    3.2135   -7.0399 N   0  0  0  0  0  0  0  0  0  0  0  0
    9.5358    4.1653   -7.7496 O   0  0  0  0  0  0  0  0  0  0  0  0
    5.7397    7.6116   -6.1414 S   0  0  2  0  0  0  0  0  0  0  0  0
    8.5348    2.2334   -7.3088 C   0  0  0  0  0  0  0  0  0  0  0  0
    9.7170    2.8267   -7.7505 C   0  0  0  0  0  0  0  0  0  0  0  0
    4.6080    7.1473   -7.1796 O   0  0  0  0  0  0  0  0  0  0  0  0
    5.3477    9.0611   -5.5739 O   0  0  0  0  0  0  0  0  0  0  0  0
    5.9164    6.4572   -4.8046 C   0  0  0  0  0  0  0  0  0  0  0  0
    8.2637    0.7962   -7.1499 C   0  0  0  0  0  0  0  0  0  0  0  0
   10.9619    2.1497   -8.1382 C   0  0  0  0  0  0  0  0  0  0  0  0
    6.6865    6.8158   -3.6794 C   0  0  0  0  0  0  0  0  0  0  0  0
    5.3528    5.1646   -4.8715 C   0  0  0  0  0  0  0  0  0  0  0  0
    6.9204    5.8863   -2.6498 C   0  0  0  0  0  0  0  0  0  0  0  0
    5.5970    4.2293   -3.8462 C   0  0  0  0  0  0  0  0  0  0  0  0
    6.3901    4.5846   -2.7351 C   0  0  0  0  0  0  0  0  0  0  0  0
    6.6529    3.6919   -1.7589 N   0  0  0  0  0  0  0  0  0  0  0  0
    7.5057    8.6543   -7.2455 H   0  0  0  0  0  0  0  0  0  0  0  0
    9.8075    6.3794   -8.1491 H   0  0  0  0  0  0  0  0  0  0  0  0
    9.3923    8.0010   -8.0787 H   0  0  0  0  0  0  0  0  0  0  0  0
    8.3665    0.2978   -8.1144 H   0  0  0  0  0  0  0  0  0  0  0  0
    7.2487    0.6391   -6.7810 H   0  0  0  0  0  0  0  0  0  0  0  0
    8.9678    0.3553   -6.4416 H   0  0  0  0  0  0  0  0  0  0  0  0
   10.7898    1.5391   -9.0247 H   0  0  0  0  0  0  0  0  0  0  0  0
   11.7321    2.8876   -8.3640 H   0  0  0  0  0  0  0  0  0  0  0  0
   11.3118    1.5141   -7.3222 H   0  0  0  0  0  0  0  0  0  0  0  0
    7.0942    7.7505   -3.6105 H   0  0  0  0  0  0  0  0  0  0  0  0
    4.7817    4.8920   -5.6748 H   0  0  0  0  0  0  0  0  0  0  0  0
    7.4879    6.1587   -1.8440 H   0  0  0  0  0  0  0  0  0  0  0  0
    5.2012    3.2883   -3.9187 H   0  0  0  0  0  0  0  0  0  0  0  0
    7.2257    3.9385   -1.0139 H   0  0  0  0  0  0  0  0  0  0  0  0
    6.2767    2.7990   -1.7989 H   0  0  0  0  0  0  0  0  0  0  0  0
  1  2  2  0  0  0  0 
  1  3  1  0  0  0  0 
  2  4  1  0  0  0  0 
  2  5  1  0  0  0  0 
  3  6  2  0  0  0  0 
  3  7  1  0  0  0  0 
  4  8  1  0  0  0  0 
  6  9  1  0  0  0  0 
  7 10  1  0  0  0  0 
  8 11  2  0  0  0  0 
  8 12  2  0  0  0  0 
  8 13  1  0  0  0  0 
  9 10  2  0  0  0  0 
  9 14  1  0  0  0  0 
 10 15  1  0  0  0  0 
 13 16  2  0  0  0  0 
 13 17  1  0  0  0  0 
 16 18  1  0  0  0  0 
 17 19  2  0  0  0  0 
 18 20  2  0  0  0  0 
 19 20  1  0  0  0  0 
 20 21  1  0  0  0  0 
 22  4  1  0  0  0  0 
 23  5  1  0  0  0  0 
 24  5  1  0  0  0  0 
 25 14  1  0  0  0  0 
 26 14  1  0  0  0  0 
 27 14  1  0  0  0  0 
 28 15  1  0  0  0  0 
 29 15  1  0  0  0  0 
 30 15  1  0  0  0  0 
 31 16  1  0  0  0  0 
 32 17  1  0  0  0  0 
 33 18  1  0  0  0  0 
 34 19  1  0  0  0  0 
 35 21  1  0  0  0  0 
 36 21  1  0  0  0  0 
M  END
> <cdk:Title>
sulfaguanole

> <Conformer>
1

> <SuperDrugID>
SD002253

$$$$
