quinupramine
  CDK     0628171801

 47 51  0  0  0  0  0  0  0  0999 V2000
   -2.2965    1.2952    0.3723 N   0  0  0  0  0  0  0  0  0  0  0  0
   -0.9219    1.0706    0.3015 C   0  0  0  0  0  0  0  0  0  0  0  0
   -3.0798    0.2052    0.6553 C   0  0  0  0  0  0  0  0  0  0  0  0
   -2.8802    2.6378    0.2406 C   0  0  2  0  0  0  0  0  0  0  0  0
   -0.3230    0.0576   -0.5190 C   0  0  0  0  0  0  0  0  0  0  0  0
   -0.0669    1.8582    1.1158 C   0  0  0  0  0  0  0  0  0  0  0  0
   -3.2886   -0.8024   -0.3202 C   0  0  0  0  0  0  0  0  0  0  0  0
   -3.6770    0.0804    1.9297 C   0  0  0  0  0  0  0  0  0  0  0  0
   -4.4535    2.8292    0.2838 C   0  0  1  0  0  0  0  0  0  0  0  0
   -2.3603    3.4073   -1.0364 C   0  0  2  0  0  0  0  0  0  0  0  0
   -1.0553   -0.8556   -1.4554 C   0  0  2  0  0  0  0  0  0  0  0  0
    1.0832   -0.1356   -0.4631 C   0  0  0  0  0  0  0  0  0  0  0  0
    1.3204    1.6499    1.1554 C   0  0  0  0  0  0  0  0  0  0  0  0
   -2.5877   -0.7030   -1.6246 C   0  0  1  0  0  0  0  0  0  0  0  0
   -4.1515   -1.8838   -0.0251 C   0  0  0  0  0  0  0  0  0  0  0  0
   -4.5285   -1.0002    2.2124 C   0  0  0  0  0  0  0  0  0  0  0  0
   -4.7559    4.3576    0.4442 C   0  0  2  0  0  0  0  0  0  0  0  0
   -5.1042    2.3878   -1.0684 C   0  0  2  0  0  0  0  0  0  0  0  0
   -3.4506    4.1878   -1.7201 N   0  0  2  0  0  0  0  0  0  0  0  0
    1.8970    0.6453    0.3708 C   0  0  0  0  0  0  0  0  0  0  0  0
   -4.7707   -1.9793    1.2343 C   0  0  0  0  0  0  0  0  0  0  0  0
   -4.0875    5.1345   -0.7383 C   0  0  2  0  0  0  0  0  0  0  0  0
   -4.4854    3.2257   -2.2371 C   0  0  1  0  0  0  0  0  0  0  0  0
   -2.5235    3.1784    1.1192 H   0  0  0  0  0  0  0  0  0  0  0  0
   -0.4442    2.5911    1.7152 H   0  0  0  0  0  0  0  0  0  0  0  0
   -3.5078    0.7859    2.6519 H   0  0  0  0  0  0  0  0  0  0  0  0
   -4.9113    2.3001    1.1215 H   0  0  0  0  0  0  0  0  0  0  0  0
   -1.9272    2.7128   -1.7621 H   0  0  0  0  0  0  0  0  0  0  0  0
   -1.5540    4.0887   -0.7527 H   0  0  0  0  0  0  0  0  0  0  0  0
   -0.8674   -1.8859   -1.1337 H   0  0  0  0  0  0  0  0  0  0  0  0
   -0.6159   -0.7407   -2.4516 H   0  0  0  0  0  0  0  0  0  0  0  0
    1.5352   -0.8588   -1.0317 H   0  0  0  0  0  0  0  0  0  0  0  0
    1.9107    2.2260    1.7594 H   0  0  0  0  0  0  0  0  0  0  0  0
   -2.9298   -1.4790   -2.3157 H   0  0  0  0  0  0  0  0  0  0  0  0
   -2.8136    0.2565   -2.0924 H   0  0  0  0  0  0  0  0  0  0  0  0
   -4.3339   -2.6099   -0.7231 H   0  0  0  0  0  0  0  0  0  0  0  0
   -4.9738   -1.0703    3.1286 H   0  0  0  0  0  0  0  0  0  0  0  0
   -4.3766    4.7242    1.4024 H   0  0  0  0  0  0  0  0  0  0  0  0
   -5.8371    4.5258    0.4431 H   0  0  0  0  0  0  0  0  0  0  0  0
   -6.1855    2.5486   -1.0288 H   0  0  0  0  0  0  0  0  0  0  0  0
   -4.9480    1.3234   -1.2372 H   0  0  0  0  0  0  0  0  0  0  0  0
    2.9066    0.4827    0.4054 H   0  0  0  0  0  0  0  0  0  0  0  0
   -5.3936   -2.7636    1.4448 H   0  0  0  0  0  0  0  0  0  0  0  0
   -3.3302    5.8206   -0.3486 H   0  0  0  0  0  0  0  0  0  0  0  0
   -4.8345    5.7501   -1.2476 H   0  0  0  0  0  0  0  0  0  0  0  0
   -4.0338    2.5575   -2.9762 H   0  0  0  0  0  0  0  0  0  0  0  0
   -5.2697    3.7794   -2.7625 H   0  0  0  0  0  0  0  0  0  0  0  0
  1  2  1  0  0  0  0 
  1  3  1  0  0  0  0 
  4  1  1  0  0  0  0 
  2  5  2  0  0  0  0 
  2  6  1  0  0  0  0 
  3  7  2  0  0  0  0 
  3  8  1  0  0  0  0 
  4  9  1  0  0  0  0 
  4 10  1  0  0  0  0 
  5 11  1  0  0  0  0 
  5 12  1  0  0  0  0 
  6 13  2  0  0  0  0 
  7 14  1  0  0  0  0 
  7 15  1  0  0  0  0 
  8 16  2  0  0  0  0 
  9 17  1  0  0  0  0 
  9 18  1  0  0  0  0 
 10 19  1  0  0  0  0 
 11 14  1  0  0  0  0 
 12 20  2  0  0  0  0 
 13 20  1  0  0  0  0 
 15 21  2  0  0  0  0 
 16 21  1  0  0  0  0 
 17 22  1  0  0  0  0 
 18 23  1  0  0  0  0 
 19 22  1  0  0  0  0 
 19 23  1  0  0  0  0 
  4 24  1  0  0  0  0 
  6 25  1  0  0  0  0 
  8 26  1  0  0  0  0 
  9 27  1  0  0  0  0 
 10 28  1  0  0  0  0 
 10 29  1  0  0  0  0 
 11 30  1  0  0  0  0 
 11 31  1  0  0  0  0 
 12 32  1  0  0  0  0 
 13 33  1  0  0  0  0 
 14 34  1  0  0  0  0 
 14 35  1  0  0  0  0 
 15 36  1  0  0  0  0 
 16 37  1  0  0  0  0 
 17 38  1  0  0  0  0 
 17 39  1  0  0  0  0 
 18 40  1  0  0  0  0 
 18 41  1  0  0  0  0 
 20 42  1  0  0  0  0 
 21 43  1  0  0  0  0 
 22 44  1  0  0  0  0 
 22 45  1  0  0  0  0 
 23 46  1  0  0  0  0 
 23 47  1  0  0  0  0 
M  END
> <cdk:Title>
quinupramine

> <Conformer>
1

> <SuperDrugID>
SD002111

$$$$
