nicardipine
  CDK     0628171801

 64 66  0  0  0  0  0  0  0  0999 V2000
    0.6991   -1.0456    2.7020 C   0  0  0  0  0  0  0  0  0  0  0  0
    0.3895   -0.8535    1.3828 O   0  0  0  0  0  0  0  0  0  0  0  0
    0.4618   -2.1796    3.1862 O   0  0  0  0  0  0  0  0  0  0  0  0
    1.2918   -0.0477    3.5055 C   0  0  0  0  0  0  0  0  0  0  0  0
   -0.1609   -1.8199    0.4752 C   0  0  1  0  0  0  0  0  0  0  0  0
    2.0274   -0.4662    4.7312 C   0  0  2  0  0  0  0  0  0  0  0  0
    1.2541    1.2797    3.2202 C   0  0  0  0  0  0  0  0  0  0  0  0
   -0.3897   -1.1810   -0.9157 C   0  0  1  0  0  0  0  0  0  0  0  0
    2.4680    0.6014    5.6688 C   0  0  0  0  0  0  0  0  0  0  0  0
    3.2205   -1.2904    4.3260 C   0  0  0  0  0  0  0  0  0  0  0  0
    0.6054    1.8823    2.0056 C   0  0  0  0  0  0  0  0  0  0  0  0
    1.8231    2.1610    4.0548 N   0  0  0  0  0  0  0  0  0  0  0  0
   -1.2182   -2.0397   -1.8309 N   0  0  2  0  0  0  0  0  0  0  0  0
    2.9522    0.2266    6.9400 C   0  0  0  0  0  0  0  0  0  0  0  0
    2.3642    1.8894    5.2510 C   0  0  0  0  0  0  0  0  0  0  0  0
    4.2090   -0.7739    3.4483 C   0  0  0  0  0  0  0  0  0  0  0  0
    3.3722   -2.6153    4.7925 C   0  0  0  0  0  0  0  0  0  0  0  0
   -0.4770   -3.2193   -2.3911 C   0  0  2  0  0  0  0  0  0  0  0  0
   -1.9050   -1.2385   -2.8917 C   0  0  0  0  0  0  0  0  0  0  0  0
    3.8164    1.0066    7.6609 O   0  0  0  0  0  0  0  0  0  0  0  0
    2.5955   -0.8638    7.4490 O   0  0  0  0  0  0  0  0  0  0  0  0
    2.7743    3.0612    6.0190 C   0  0  0  0  0  0  0  0  0  0  0  0
    5.2985   -1.5566    2.9839 C   0  0  0  0  0  0  0  0  0  0  0  0
    4.4649   -3.3978    4.3895 C   0  0  0  0  0  0  0  0  0  0  0  0
   -1.3664   -4.2524   -2.9928 C   0  0  0  0  0  0  0  0  0  0  0  0
    4.3207    0.7502    8.9764 C   0  0  0  0  0  0  0  0  0  0  0  0
    6.1791   -1.0673    2.0870 N   0  0  0  0  0  0  0  0  0  0  0  0
    5.4108   -2.8764    3.4918 C   0  0  0  0  0  0  0  0  0  0  0  0
   -2.3267   -4.9248   -2.1985 C   0  0  0  0  0  0  0  0  0  0  0  0
   -1.2757   -4.5802   -4.3670 C   0  0  0  0  0  0  0  0  0  0  0  0
    7.1263   -1.6568    1.7372 O   0  0  0  0  0  0  0  0  0  0  0  0
    6.0395    0.0696    1.5324 O   0  0  0  0  0  0  0  0  0  0  0  0
   -3.1898   -5.8811   -2.7674 C   0  0  0  0  0  0  0  0  0  0  0  0
   -2.1372   -5.5353   -4.9381 C   0  0  0  0  0  0  0  0  0  0  0  0
   -3.0938   -6.1858   -4.1373 C   0  0  0  0  0  0  0  0  0  0  0  0
    0.5410   -2.6530    0.3978 H   0  0  0  0  0  0  0  0  0  0  0  0
   -1.1112   -2.1902    0.8672 H   0  0  0  0  0  0  0  0  0  0  0  0
    1.3122   -1.0702    5.2993 H   0  0  0  0  0  0  0  0  0  0  0  0
   -0.8935   -0.2249   -0.7384 H   0  0  0  0  0  0  0  0  0  0  0  0
    0.5793   -0.9582   -1.3742 H   0  0  0  0  0  0  0  0  0  0  0  0
    0.9969    1.6325    0.9744 H   0  0  0  0  0  0  0  0  0  0  0  0
    0.6359    2.9736    2.0605 H   0  0  0  0  0  0  0  0  0  0  0  0
   -0.4523    1.6121    2.0194 H   0  0  0  0  0  0  0  0  0  0  0  0
    1.8176    3.0921    3.7796 H   0  0  0  0  0  0  0  0  0  0  0  0
    4.1198    0.1941    3.1296 H   0  0  0  0  0  0  0  0  0  0  0  0
    2.6876   -3.0223    5.4334 H   0  0  0  0  0  0  0  0  0  0  0  0
    0.0877   -3.7230   -1.6069 H   0  0  0  0  0  0  0  0  0  0  0  0
    0.2597   -2.8590   -3.1158 H   0  0  0  0  0  0  0  0  0  0  0  0
   -2.5350   -0.4692   -2.4417 H   0  0  0  0  0  0  0  0  0  0  0  0
   -2.5652   -1.8674   -3.4918 H   0  0  0  0  0  0  0  0  0  0  0  0
   -1.1783   -0.7576   -3.5535 H   0  0  0  0  0  0  0  0  0  0  0  0
    3.8575    3.0634    6.1458 H   0  0  0  0  0  0  0  0  0  0  0  0
    2.2940    3.0641    6.9984 H   0  0  0  0  0  0  0  0  0  0  0  0
    2.5041    3.9981    5.5278 H   0  0  0  0  0  0  0  0  0  0  0  0
    4.5694   -4.3503    4.7461 H   0  0  0  0  0  0  0  0  0  0  0  0
    3.4976    0.7113    9.6928 H   0  0  0  0  0  0  0  0  0  0  0  0
    4.9986    1.5559    9.2597 H   0  0  0  0  0  0  0  0  0  0  0  0
    4.8677   -0.1940    8.9982 H   0  0  0  0  0  0  0  0  0  0  0  0
    6.1886   -3.4772    3.2085 H   0  0  0  0  0  0  0  0  0  0  0  0
   -2.4035   -4.7234   -1.1985 H   0  0  0  0  0  0  0  0  0  0  0  0
   -0.5839   -4.1226   -4.9642 H   0  0  0  0  0  0  0  0  0  0  0  0
   -3.8872   -6.3526   -2.1864 H   0  0  0  0  0  0  0  0  0  0  0  0
   -2.0664   -5.7549   -5.9357 H   0  0  0  0  0  0  0  0  0  0  0  0
   -3.7175   -6.8813   -4.5530 H   0  0  0  0  0  0  0  0  0  0  0  0
  1  2  1  0  0  0  0 
  1  3  2  0  0  0  0 
  1  4  1  0  0  0  0 
  2  5  1  0  0  0  0 
  6  4  1  0  0  0  0 
  4  7  2  0  0  0  0 
  5  8  1  0  0  0  0 
  6  9  1  0  0  0  0 
  6 10  1  0  0  0  0 
  7 11  1  0  0  0  0 
  7 12  1  0  0  0  0 
  8 13  1  0  0  0  0 
  9 14  1  0  0  0  0 
  9 15  2  0  0  0  0 
 10 16  2  0  0  0  0 
 10 17  1  0  0  0  0 
 12 15  1  0  0  0  0 
 13 18  1  0  0  0  0 
 13 19  1  0  0  0  0 
 14 20  1  0  0  0  0 
 14 21  2  0  0  0  0 
 15 22  1  0  0  0  0 
 16 23  1  0  0  0  0 
 17 24  2  0  0  0  0 
 18 25  1  0  0  0  0 
 20 26  1  0  0  0  0 
 23 27  1  0  0  0  0 
 23 28  2  0  0  0  0 
 24 28  1  0  0  0  0 
 25 29  2  0  0  0  0 
 25 30  1  0  0  0  0 
 27 31  2  0  0  0  0 
 27 32  1  0  0  0  0 
 29 33  1  0  0  0  0 
 30 34  2  0  0  0  0 
 33 35  2  0  0  0  0 
 34 35  1  0  0  0  0 
 36  5  1  0  0  0  0 
 37  5  1  0  0  0  0 
 38  6  1  0  0  0  0 
 39  8  1  0  0  0  0 
 40  8  1  0  0  0  0 
 41 11  1  0  0  0  0 
 42 11  1  0  0  0  0 
 43 11  1  0  0  0  0 
 44 12  1  0  0  0  0 
 45 16  1  0  0  0  0 
 46 17  1  0  0  0  0 
 47 18  1  0  0  0  0 
 48 18  1  0  0  0  0 
 49 19  1  0  0  0  0 
 50 19  1  0  0  0  0 
 51 19  1  0  0  0  0 
 52 22  1  0  0  0  0 
 53 22  1  0  0  0  0 
 54 22  1  0  0  0  0 
 55 24  1  0  0  0  0 
 56 26  1  0  0  0  0 
 57 26  1  0  0  0  0 
 58 26  1  0  0  0  0 
 59 28  1  0  0  0  0 
 60 29  1  0  0  0  0 
 61 30  1  0  0  0  0 
 62 33  1  0  0  0  0 
 63 34  1  0  0  0  0 
 64 35  1  0  0  0  0 
M  CHG  1  27   1
M  CHG  1  32  -1
M  END
> <cdk:Title>
nicardipine

> <Conformer>
1

> <SuperDrugID>
SD001704

$$$$
