lidoflazine
  CDK     0628171801

 71 74  0  0  0  0  0  0  0  0999 V2000
   -1.2086    6.0835   -2.7186 C   0  0  2  0  0  0  0  0  0  0  0  0
   -0.0264    7.0621   -3.0113 C   0  0  1  0  0  0  0  0  0  0  0  0
   -1.6598    5.3268   -3.9361 C   0  0  0  0  0  0  0  0  0  0  0  0
   -2.3988    6.6851   -2.0236 C   0  0  0  0  0  0  0  0  0  0  0  0
    0.5165    7.8122   -1.7581 C   0  0  1  0  0  0  0  0  0  0  0  0
   -1.5590    3.9123   -3.9809 C   0  0  0  0  0  0  0  0  0  0  0  0
   -2.2224    5.9824   -5.0618 C   0  0  0  0  0  0  0  0  0  0  0  0
   -2.9815    6.0146   -0.9175 C   0  0  0  0  0  0  0  0  0  0  0  0
   -2.9942    7.9022   -2.4444 C   0  0  0  0  0  0  0  0  0  0  0  0
    1.8120    8.6117   -2.0622 C   0  0  2  0  0  0  0  0  0  0  0  0
   -2.0424    3.1806   -5.0798 C   0  0  0  0  0  0  0  0  0  0  0  0
   -2.7124    5.2531   -6.1609 C   0  0  0  0  0  0  0  0  0  0  0  0
   -4.1216    6.5252   -0.2716 C   0  0  0  0  0  0  0  0  0  0  0  0
   -4.1388    8.4141   -1.8043 C   0  0  0  0  0  0  0  0  0  0  0  0
    2.2478    9.4606   -0.9039 N   0  0  1  0  0  0  0  0  0  0  0  0
   -2.6281    3.8498   -6.1688 C   0  0  0  0  0  0  0  0  0  0  0  0
   -4.7050    7.7243   -0.7181 C   0  0  0  0  0  0  0  0  0  0  0  0
    3.0050    8.7370    0.1642 C   0  0  1  0  0  0  0  0  0  0  0  0
    2.9551   10.7170   -1.2975 C   0  0  1  0  0  0  0  0  0  0  0  0
   -3.0937    3.1703   -7.1806 F   0  0  0  0  0  0  0  0  0  0  0  0
   -5.7707    8.1937   -0.1288 F   0  0  0  0  0  0  0  0  0  0  0  0
    3.1925    9.6440    1.4058 C   0  0  1  0  0  0  0  0  0  0  0  0
    3.1267   11.6462   -0.0719 C   0  0  2  0  0  0  0  0  0  0  0  0
    3.8252   10.9563    1.0616 N   0  0  1  0  0  0  0  0  0  0  0  0
    4.0527   11.8370    2.2579 C   0  0  2  0  0  0  0  0  0  0  0  0
    5.3241   12.5863    2.1733 C   0  0  0  0  0  0  0  0  0  0  0  0
    6.2178   12.4662    3.1929 N   0  0  0  0  0  0  0  0  0  0  0  0
    5.5491   13.3346    1.1922 O   0  0  0  0  0  0  0  0  0  0  0  0
    7.3869   13.1514    3.3413 C   0  0  0  0  0  0  0  0  0  0  0  0
    7.4066   14.5663    3.5202 C   0  0  0  0  0  0  0  0  0  0  0  0
    8.5974   12.4012    3.3863 C   0  0  0  0  0  0  0  0  0  0  0  0
    6.1800   15.4091    3.4896 C   0  0  0  0  0  0  0  0  0  0  0  0
    8.6447   15.2053    3.7524 C   0  0  0  0  0  0  0  0  0  0  0  0
    8.6026   10.9314    3.1372 C   0  0  0  0  0  0  0  0  0  0  0  0
    9.8101   13.0766    3.6480 C   0  0  0  0  0  0  0  0  0  0  0  0
    9.8350   14.4674    3.8279 C   0  0  0  0  0  0  0  0  0  0  0  0
   -0.7606    5.3616   -2.0270 H   0  0  0  0  0  0  0  0  0  0  0  0
    0.7934    6.4781   -3.4424 H   0  0  0  0  0  0  0  0  0  0  0  0
   -0.3245    7.7992   -3.7592 H   0  0  0  0  0  0  0  0  0  0  0  0
   -0.2450    8.5109   -1.4018 H   0  0  0  0  0  0  0  0  0  0  0  0
    0.7129    7.0893   -0.9632 H   0  0  0  0  0  0  0  0  0  0  0  0
   -1.1366    3.3960   -3.2052 H   0  0  0  0  0  0  0  0  0  0  0  0
   -2.2882    7.0004   -5.0921 H   0  0  0  0  0  0  0  0  0  0  0  0
   -2.5817    5.1383   -0.5738 H   0  0  0  0  0  0  0  0  0  0  0  0
   -2.6024    8.4351   -3.2228 H   0  0  0  0  0  0  0  0  0  0  0  0
    1.5892    9.2447   -2.9269 H   0  0  0  0  0  0  0  0  0  0  0  0
    2.6091    7.9241   -2.3612 H   0  0  0  0  0  0  0  0  0  0  0  0
   -1.9722    2.1601   -5.0808 H   0  0  0  0  0  0  0  0  0  0  0  0
   -3.1348    5.7456   -6.9521 H   0  0  0  0  0  0  0  0  0  0  0  0
   -4.5269    6.0189    0.5196 H   0  0  0  0  0  0  0  0  0  0  0  0
   -4.5587    9.2880   -2.1336 H   0  0  0  0  0  0  0  0  0  0  0  0
    2.4695    7.8396    0.4812 H   0  0  0  0  0  0  0  0  0  0  0  0
    3.9885    8.4293   -0.2062 H   0  0  0  0  0  0  0  0  0  0  0  0
    3.9358   10.4888   -1.7262 H   0  0  0  0  0  0  0  0  0  0  0  0
    2.3759   11.2610   -2.0488 H   0  0  0  0  0  0  0  0  0  0  0  0
    2.2186    9.8093    1.8773 H   0  0  0  0  0  0  0  0  0  0  0  0
    3.8313    9.1117    2.1168 H   0  0  0  0  0  0  0  0  0  0  0  0
    2.1379   11.9911    0.2465 H   0  0  0  0  0  0  0  0  0  0  0  0
    3.6979   12.5187   -0.3944 H   0  0  0  0  0  0  0  0  0  0  0  0
    4.0651   11.2430    3.1793 H   0  0  0  0  0  0  0  0  0  0  0  0
    3.2416   12.5602    2.3772 H   0  0  0  0  0  0  0  0  0  0  0  0
    6.0140   11.8119    3.8825 H   0  0  0  0  0  0  0  0  0  0  0  0
    5.3005   14.8643    3.8364 H   0  0  0  0  0  0  0  0  0  0  0  0
    6.0113   15.7571    2.4696 H   0  0  0  0  0  0  0  0  0  0  0  0
    6.2848   16.2823    4.1352 H   0  0  0  0  0  0  0  0  0  0  0  0
    8.6916   16.2200    3.8770 H   0  0  0  0  0  0  0  0  0  0  0  0
    8.2950   10.8110    2.0560 H   0  0  0  0  0  0  0  0  0  0  0  0
    9.6648   10.5376    3.1585 H   0  0  0  0  0  0  0  0  0  0  0  0
    7.8804   10.4611    3.9316 H   0  0  0  0  0  0  0  0  0  0  0  0
   10.6930   12.5624    3.7023 H   0  0  0  0  0  0  0  0  0  0  0  0
   10.7204   14.9436    4.0090 H   0  0  0  0  0  0  0  0  0  0  0  0
  1  2  1  0  0  0  0 
  1  3  1  0  0  0  0 
  1  4  1  0  0  0  0 
  2  5  1  0  0  0  0 
  3  6  2  0  0  0  0 
  3  7  1  0  0  0  0 
  4  8  2  0  0  0  0 
  4  9  1  0  0  0  0 
  5 10  1  0  0  0  0 
  6 11  1  0  0  0  0 
  7 12  2  0  0  0  0 
  8 13  1  0  0  0  0 
  9 14  2  0  0  0  0 
 10 15  1  0  0  0  0 
 11 16  2  0  0  0  0 
 12 16  1  0  0  0  0 
 13 17  2  0  0  0  0 
 14 17  1  0  0  0  0 
 15 18  1  0  0  0  0 
 15 19  1  0  0  0  0 
 16 20  1  0  0  0  0 
 17 21  1  0  0  0  0 
 18 22  1  0  0  0  0 
 19 23  1  0  0  0  0 
 22 24  1  0  0  0  0 
 23 24  1  0  0  0  0 
 24 25  1  0  0  0  0 
 25 26  1  0  0  0  0 
 26 27  1  0  0  0  0 
 26 28  2  0  0  0  0 
 27 29  1  0  0  0  0 
 29 30  2  0  0  0  0 
 29 31  1  0  0  0  0 
 30 32  1  0  0  0  0 
 30 33  1  0  0  0  0 
 31 34  1  0  0  0  0 
 31 35  2  0  0  0  0 
 33 36  2  0  0  0  0 
 35 36  1  0  0  0  0 
  1 37  1  0  0  0  0 
  2 38  1  0  0  0  0 
  2 39  1  0  0  0  0 
  5 40  1  0  0  0  0 
  5 41  1  0  0  0  0 
  6 42  1  0  0  0  0 
  7 43  1  0  0  0  0 
  8 44  1  0  0  0  0 
  9 45  1  0  0  0  0 
 10 46  1  0  0  0  0 
 10 47  1  0  0  0  0 
 11 48  1  0  0  0  0 
 12 49  1  0  0  0  0 
 13 50  1  0  0  0  0 
 14 51  1  0  0  0  0 
 18 52  1  0  0  0  0 
 18 53  1  0  0  0  0 
 19 54  1  0  0  0  0 
 19 55  1  0  0  0  0 
 22 56  1  0  0  0  0 
 22 57  1  0  0  0  0 
 23 58  1  0  0  0  0 
 23 59  1  0  0  0  0 
 25 60  1  0  0  0  0 
 25 61  1  0  0  0  0 
 27 62  1  0  0  0  0 
 32 63  1  0  0  0  0 
 32 64  1  0  0  0  0 
 32 65  1  0  0  0  0 
 33 66  1  0  0  0  0 
 34 67  1  0  0  0  0 
 34 68  1  0  0  0  0 
 34 69  1  0  0  0  0 
 35 70  1  0  0  0  0 
 36 71  1  0  0  0  0 
M  END
> <cdk:Title>
lidoflazine

> <Conformer>
1

> <SuperDrugID>
SD001395

$$$$
