promoxolane
  CDK     0628171801

 33 33  0  0  0  0  0  0  0  0999 V2000
   -0.8429    0.0516    0.3729 C   0  0  2  0  0  0  0  0  0  0  0  0
   -0.8102   -1.2210    1.2734 C   0  0  0  0  0  0  0  0  0  0  0  0
   -1.7967   -0.2128   -0.8327 C   0  0  0  0  0  0  0  0  0  0  0  0
    0.5962    0.5629   -0.0467 C   0  0  1  0  0  0  0  0  0  0  0  0
    1.5381    0.9299    1.1730 C   0  0  1  0  0  0  0  0  0  0  0  0
    1.2372   -0.4638   -0.8332 O   0  0  0  0  0  0  0  0  0  0  0  0
    0.4512    1.7333   -0.8780 O   0  0  0  0  0  0  0  0  0  0  0  0
    2.9724    1.3792    0.7572 C   0  0  0  0  0  0  0  0  0  0  0  0
    0.9291    1.9987    2.1326 C   0  0  0  0  0  0  0  0  0  0  0  0
    1.2303   -0.0379   -2.1953 C   0  0  1  0  0  0  0  0  0  0  0  0
    1.1655    1.4880   -2.0887 C   0  0  2  0  0  0  0  0  0  0  0  0
    2.4545   -0.5956   -2.9472 C   0  0  1  0  0  0  0  0  0  0  0  0
    2.3647   -2.0138   -3.0317 O   0  0  0  0  0  0  0  0  0  0  0  0
   -1.3277    0.8461    0.9461 H   0  0  0  0  0  0  0  0  0  0  0  0
   -1.8217   -1.5525    1.5178 H   0  0  0  0  0  0  0  0  0  0  0  0
   -0.3021   -1.0272    2.2183 H   0  0  0  0  0  0  0  0  0  0  0  0
   -0.2948   -2.0354    0.7601 H   0  0  0  0  0  0  0  0  0  0  0  0
   -2.8156   -0.3934   -0.4821 H   0  0  0  0  0  0  0  0  0  0  0  0
   -1.8267    0.6474   -1.5047 H   0  0  0  0  0  0  0  0  0  0  0  0
   -1.4769   -1.0922   -1.3944 H   0  0  0  0  0  0  0  0  0  0  0  0
    1.6961    0.0221    1.7584 H   0  0  0  0  0  0  0  0  0  0  0  0
    3.6174    1.4524    1.6364 H   0  0  0  0  0  0  0  0  0  0  0  0
    3.4306    0.6579    0.0804 H   0  0  0  0  0  0  0  0  0  0  0  0
    2.9549    2.3553    0.2703 H   0  0  0  0  0  0  0  0  0  0  0  0
    1.6509    2.3038    2.8943 H   0  0  0  0  0  0  0  0  0  0  0  0
    0.0611    1.6000    2.6591 H   0  0  0  0  0  0  0  0  0  0  0  0
    0.6237    2.8871    1.5754 H   0  0  0  0  0  0  0  0  0  0  0  0
    0.3332   -0.4010   -2.7005 H   0  0  0  0  0  0  0  0  0  0  0  0
    2.1621    1.9294   -2.0299 H   0  0  0  0  0  0  0  0  0  0  0  0
    0.6329    1.9261   -2.9341 H   0  0  0  0  0  0  0  0  0  0  0  0
    2.4943   -0.1864   -3.9571 H   0  0  0  0  0  0  0  0  0  0  0  0
    3.3745   -0.3340   -2.4244 H   0  0  0  0  0  0  0  0  0  0  0  0
    3.1704   -2.2936   -3.5152 H   0  0  0  0  0  0  0  0  0  0  0  0
  1  2  1  0  0  0  0 
  1  3  1  0  0  0  0 
  1  4  1  0  0  0  0 
  4  5  1  0  0  0  0 
  4  6  1  0  0  0  0 
  4  7  1  0  0  0  0 
  5  8  1  0  0  0  0 
  5  9  1  0  0  0  0 
 10  6  1  0  0  0  0 
  7 11  1  0  0  0  0 
 10 11  1  0  0  0  0 
 10 12  1  0  0  0  0 
 12 13  1  0  0  0  0 
  1 14  1  0  0  0  0 
  2 15  1  0  0  0  0 
  2 16  1  0  0  0  0 
  2 17  1  0  0  0  0 
  3 18  1  0  0  0  0 
  3 19  1  0  0  0  0 
  3 20  1  0  0  0  0 
  5 21  1  0  0  0  0 
  8 22  1  0  0  0  0 
  8 23  1  0  0  0  0 
  8 24  1  0  0  0  0 
  9 25  1  0  0  0  0 
  9 26  1  0  0  0  0 
  9 27  1  0  0  0  0 
 10 28  1  0  0  0  0 
 11 29  1  0  0  0  0 
 11 30  1  0  0  0  0 
 12 31  1  0  0  0  0 
 12 32  1  0  0  0  0 
 13 33  1  0  0  0  0 
M  END
> <cdk:Title>
promoxolane

> <Conformer>
1

> <SuperDrugID>
SD002054

$$$$
