vinorelbine
  CDK     0628171801

111119  0  0  0  0  0  0  0  0999 V2000
   -7.2317    2.8266    1.0242 C   0  0  2  0  0  0  0  0  0  0  0  0
   -8.2165    2.8701   -0.1806 C   0  0  0  0  0  0  0  0  0  0  0  0
   -7.5051    3.7818    2.2538 C   0  0  1  0  0  0  0  0  0  0  0  0
   -6.3993    3.5006    3.3476 C   0  0  1  0  0  0  0  0  0  0  0  0
   -7.5240    5.3326    1.9293 C   0  0  1  0  0  0  0  0  0  0  0  0
   -8.8448    3.4125    2.7850 C   0  0  0  0  0  0  0  0  0  0  0  0
   -5.0262    4.2361    3.2627 C   0  0  2  0  0  0  0  0  0  0  0  0
   -6.9152    3.9400    4.6679 N   0  0  2  0  0  0  0  0  0  0  0  0
   -8.0424    6.0302    3.0885 O   0  0  0  0  0  0  0  0  0  0  0  0
   -6.1454    6.0388    1.6325 C   0  0  1  0  0  0  0  0  0  0  0  0
   -9.1184    3.1305    4.0712 C   0  0  0  0  0  0  0  0  0  0  0  0
   -5.0958    5.7313    2.7824 C   0  0  2  0  0  0  0  0  0  0  0  0
   -3.9492    3.7399    2.3790 C   0  0  0  0  0  0  0  0  0  0  0  0
   -4.5322    4.0855    4.7406 C   0  0  1  0  0  0  0  0  0  0  0  0
   -5.7962    4.0653    5.6186 C   0  0  1  0  0  0  0  0  0  0  0  0
   -8.1187    3.1925    5.1187 C   0  0  2  0  0  0  0  0  0  0  0  0
   -9.2095    6.7226    3.2463 C   0  0  0  0  0  0  0  0  0  0  0  0
   -5.6119    5.8981    0.2325 C   0  0  0  0  0  0  0  0  0  0  0  0
   -6.4048    7.4524    1.6681 O   0  0  0  0  0  0  0  0  0  0  0  0
   -3.7417    5.9755    2.3583 N   0  0  0  0  0  0  0  0  0  0  0  0
   -3.1976    4.8132    1.9157 C   0  0  0  0  0  0  0  0  0  0  0  0
   -3.5690    2.4198    2.0796 C   0  0  0  0  0  0  0  0  0  0  0  0
   -9.4327    7.4573    4.4992 C   0  0  0  0  0  0  0  0  0  0  0  0
  -10.0934    6.7495    2.3585 O   0  0  0  0  0  0  0  0  0  0  0  0
   -6.1011    5.0189   -0.6842 O   0  0  0  0  0  0  0  0  0  0  0  0
   -4.6838    6.6525   -0.1544 O   0  0  0  0  0  0  0  0  0  0  0  0
   -3.1061    7.2642    2.4148 C   0  0  0  0  0  0  0  0  0  0  0  0
   -2.0940    4.5885    1.0826 C   0  0  0  0  0  0  0  0  0  0  0  0
   -2.3901    2.1256    1.3283 C   0  0  0  0  0  0  0  0  0  0  0  0
   -5.5697    4.7792   -1.9953 C   0  0  0  0  0  0  0  0  0  0  0  0
   -1.7375    3.2661    0.7391 C   0  0  0  0  0  0  0  0  0  0  0  0
   -1.9118    0.6612    1.1725 C   0  0  2  0  0  0  0  0  0  0  0  0
   -0.7269    3.1818   -0.1866 O   0  0  0  0  0  0  0  0  0  0  0  0
   -0.4339    0.7059    0.9066 C   0  0  0  0  0  0  0  0  0  0  0  0
   -2.6760    0.0054    0.0430 C   0  0  0  0  0  0  0  0  0  0  0  0
   -2.1805   -0.1508    2.5161 C   0  0  1  0  0  0  0  0  0  0  0  0
   -1.1628    3.2710   -1.5605 C   0  0  0  0  0  0  0  0  0  0  0  0
    0.0631    0.5227   -0.3549 O   0  0  0  0  0  0  0  0  0  0  0  0
    0.3540    1.0778    1.8108 O   0  0  0  0  0  0  0  0  0  0  0  0
   -2.4652   -1.2192   -0.6459 C   0  0  0  0  0  0  0  0  0  0  0  0
   -3.7724    0.5773   -0.5019 N   0  0  0  0  0  0  0  0  0  0  0  0
   -1.6134   -1.5831    2.8038 C   0  0  1  0  0  0  0  0  0  0  0  0
    1.4260    0.5928   -0.7743 C   0  0  0  0  0  0  0  0  0  0  0  0
   -3.4749   -1.3044   -1.6155 C   0  0  0  0  0  0  0  0  0  0  0  0
   -1.3907   -2.2397   -0.4567 C   0  0  2  0  0  0  0  0  0  0  0  0
   -4.2690   -0.1720   -1.4826 C   0  0  0  0  0  0  0  0  0  0  0  0
   -2.2505   -2.7070    1.9314 C   0  0  1  0  0  0  0  0  0  0  0  0
   -0.1557   -1.6400    2.8633 C   0  0  0  0  0  0  0  0  0  0  0  0
   -3.7828   -2.2634   -2.6060 C   0  0  0  0  0  0  0  0  0  0  0  0
   -1.3777   -3.0741    0.7868 N   0  0  2  0  0  0  0  0  0  0  0  0
   -5.3913    0.0575   -2.2920 C   0  0  0  0  0  0  0  0  0  0  0  0
    0.6148   -2.4743    2.1333 C   0  0  0  0  0  0  0  0  0  0  0  0
   -4.9093   -2.0543   -3.4320 C   0  0  0  0  0  0  0  0  0  0  0  0
   -0.0127   -3.4723    1.2598 C   0  0  1  0  0  0  0  0  0  0  0  0
   -5.7111   -0.9021   -3.2732 C   0  0  0  0  0  0  0  0  0  0  0  0
    2.0732   -2.4300    2.2626 C   0  0  2  0  0  0  0  0  0  0  0  0
    2.5805   -3.3805    3.3697 C   0  0  0  0  0  0  0  0  0  0  0  0
   -6.2136    2.4201    3.4123 H   0  0  0  0  0  0  0  0  0  0  0  0
   -5.3298    6.3641    3.6462 H   0  0  0  0  0  0  0  0  0  0  0  0
   -1.9320   -1.8089    3.8291 H   0  0  0  0  0  0  0  0  0  0  0  0
   -6.2222    2.9961    0.6535 H   0  0  0  0  0  0  0  0  0  0  0  0
   -7.2386    1.7886    1.3725 H   0  0  0  0  0  0  0  0  0  0  0  0
   -7.8109    2.2829   -1.0049 H   0  0  0  0  0  0  0  0  0  0  0  0
   -8.3807    3.8846   -0.5373 H   0  0  0  0  0  0  0  0  0  0  0  0
   -9.1829    2.4393    0.0839 H   0  0  0  0  0  0  0  0  0  0  0  0
   -8.1961    5.5193    1.0881 H   0  0  0  0  0  0  0  0  0  0  0  0
   -9.6148    3.3860    2.1588 H   0  0  0  0  0  0  0  0  0  0  0  0
  -10.0474    2.8812    4.3247 H   0  0  0  0  0  0  0  0  0  0  0  0
   -4.0094    3.1326    4.8857 H   0  0  0  0  0  0  0  0  0  0  0  0
   -3.8496    4.8845    5.0426 H   0  0  0  0  0  0  0  0  0  0  0  0
   -5.9019    5.0011    6.1713 H   0  0  0  0  0  0  0  0  0  0  0  0
   -5.7586    3.2333    6.3290 H   0  0  0  0  0  0  0  0  0  0  0  0
   -8.5447    3.7043    5.9851 H   0  0  0  0  0  0  0  0  0  0  0  0
   -7.8573    2.1729    5.4126 H   0  0  0  0  0  0  0  0  0  0  0  0
   -6.6721    7.6614    2.5875 H   0  0  0  0  0  0  0  0  0  0  0  0
   -4.1661    1.6801    2.4366 H   0  0  0  0  0  0  0  0  0  0  0  0
   -8.5923    7.3238    5.1791 H   0  0  0  0  0  0  0  0  0  0  0  0
   -9.5281    8.5231    4.2819 H   0  0  0  0  0  0  0  0  0  0  0  0
  -10.3391    7.1019    4.9938 H   0  0  0  0  0  0  0  0  0  0  0  0
   -2.7549    7.4426    3.4310 H   0  0  0  0  0  0  0  0  0  0  0  0
   -3.8116    8.0535    2.1518 H   0  0  0  0  0  0  0  0  0  0  0  0
   -2.2565    7.3464    1.7361 H   0  0  0  0  0  0  0  0  0  0  0  0
   -1.5670    5.3771    0.7014 H   0  0  0  0  0  0  0  0  0  0  0  0
   -4.5437    4.4112   -1.9227 H   0  0  0  0  0  0  0  0  0  0  0  0
   -6.1778    4.0258   -2.4949 H   0  0  0  0  0  0  0  0  0  0  0  0
   -5.5826    5.6960   -2.5887 H   0  0  0  0  0  0  0  0  0  0  0  0
   -1.8592    0.4797    3.3529 H   0  0  0  0  0  0  0  0  0  0  0  0
   -3.2590   -0.2744    2.6391 H   0  0  0  0  0  0  0  0  0  0  0  0
   -0.1655    3.2316   -2.1763 H   0  0  0  0  0  0  0  0  0  0  0  0
   -1.8893    2.4242   -1.7568 H   0  0  0  0  0  0  0  0  0  0  0  0
   -1.7721    4.2183   -1.6879 H   0  0  0  0  0  0  0  0  0  0  0  0
   -4.1515    1.4247   -0.2246 H   0  0  0  0  0  0  0  0  0  0  0  0
    1.8288    1.5886   -0.5875 H   0  0  0  0  0  0  0  0  0  0  0  0
    1.4707    0.3867   -1.8420 H   0  0  0  0  0  0  0  0  0  0  0  0
    2.0178   -0.1548   -0.2426 H   0  0  0  0  0  0  0  0  0  0  0  0
   -0.4315   -1.7572   -0.6010 H   0  0  0  0  0  0  0  0  0  0  0  0
   -1.4386   -2.9676   -1.2653 H   0  0  0  0  0  0  0  0  0  0  0  0
   -2.3699   -3.6059    2.5458 H   0  0  0  0  0  0  0  0  0  0  0  0
   -3.2566   -2.4470    1.5980 H   0  0  0  0  0  0  0  0  0  0  0  0
    0.2864   -1.0064    3.4910 H   0  0  0  0  0  0  0  0  0  0  0  0
   -3.2110   -3.1000   -2.7362 H   0  0  0  0  0  0  0  0  0  0  0  0
   -5.9576    0.8985   -2.1725 H   0  0  0  0  0  0  0  0  0  0  0  0
   -5.1441   -2.7398   -4.1531 H   0  0  0  0  0  0  0  0  0  0  0  0
   -0.1017   -4.4019    1.8266 H   0  0  0  0  0  0  0  0  0  0  0  0
    0.6221   -3.7010    0.3989 H   0  0  0  0  0  0  0  0  0  0  0  0
   -6.5257   -0.7610   -3.8742 H   0  0  0  0  0  0  0  0  0  0  0  0
    2.4124   -1.4145    2.4910 H   0  0  0  0  0  0  0  0  0  0  0  0
    2.5495   -2.7010    1.3175 H   0  0  0  0  0  0  0  0  0  0  0  0
    3.6663   -3.3018    3.4480 H   0  0  0  0  0  0  0  0  0  0  0  0
    2.1442   -3.1160    4.3367 H   0  0  0  0  0  0  0  0  0  0  0  0
    2.3232   -4.4167    3.1365 H   0  0  0  0  0  0  0  0  0  0  0  0
  1  2  1  0  0  0  0 
  3  1  1  0  0  0  0 
  4  3  1  0  0  0  0 
  5  3  1  0  0  0  0 
  3  6  1  0  0  0  0 
  7  4  1  0  0  0  0 
  4  8  1  0  0  0  0 
  4 58  1  0  0  0  0 
  5  9  1  0  0  0  0 
 10  5  1  0  0  0  0 
  6 11  2  0  0  0  0 
 12  7  1  0  0  0  0 
  7 13  1  0  0  0  0 
  7 14  1  0  0  0  0 
  8 15  1  0  0  0  0 
  8 16  1  0  0  0  0 
  9 17  1  0  0  0  0 
 12 10  1  0  0  0  0 
 10 18  1  0  0  0  0 
 10 19  1  0  0  0  0 
 11 16  1  0  0  0  0 
 12 20  1  0  0  0  0 
 12 59  1  0  0  0  0 
 13 21  2  0  0  0  0 
 13 22  1  0  0  0  0 
 14 15  1  0  0  0  0 
 17 23  1  0  0  0  0 
 17 24  2  0  0  0  0 
 18 25  1  0  0  0  0 
 18 26  2  0  0  0  0 
 20 21  1  0  0  0  0 
 20 27  1  0  0  0  0 
 21 28  1  0  0  0  0 
 22 29  2  0  0  0  0 
 25 30  1  0  0  0  0 
 28 31  2  0  0  0  0 
 29 31  1  0  0  0  0 
 31 33  1  0  0  0  0 
 32 29  1  0  0  0  0 
 32 34  1  0  0  0  0 
 32 35  1  0  0  0  0 
 32 36  1  0  0  0  0 
 33 37  1  0  0  0  0 
 34 38  1  0  0  0  0 
 34 39  2  0  0  0  0 
 35 40  2  0  0  0  0 
 35 41  1  0  0  0  0 
 42 36  1  0  0  0  0 
 38 43  1  0  0  0  0 
 40 44  1  0  0  0  0 
 40 45  1  0  0  0  0 
 41 46  1  0  0  0  0 
 42 47  1  0  0  0  0 
 42 48  1  0  0  0  0 
 42 60  1  0  0  0  0 
 44 46  1  0  0  0  0 
 44 49  2  0  0  0  0 
 50 45  1  0  0  0  0 
 46 51  2  0  0  0  0 
 50 47  1  0  0  0  0 
 48 52  2  0  0  0  0 
 49 53  1  0  0  0  0 
 50 54  1  0  0  0  0 
 51 55  1  0  0  0  0 
 52 54  1  0  0  0  0 
 52 56  1  0  0  0  0 
 53 55  2  0  0  0  0 
 56 57  1  0  0  0  0 
  1 61  1  0  0  0  0 
  1 62  1  0  0  0  0 
  2 63  1  0  0  0  0 
  2 64  1  0  0  0  0 
  2 65  1  0  0  0  0 
  5 66  1  0  0  0  0 
  6 67  1  0  0  0  0 
 11 68  1  0  0  0  0 
 14 69  1  0  0  0  0 
 14 70  1  0  0  0  0 
 15 71  1  0  0  0  0 
 15 72  1  0  0  0  0 
 16 73  1  0  0  0  0 
 16 74  1  0  0  0  0 
 19 75  1  0  0  0  0 
 22 76  1  0  0  0  0 
 23 77  1  0  0  0  0 
 23 78  1  0  0  0  0 
 23 79  1  0  0  0  0 
 27 80  1  0  0  0  0 
 27 81  1  0  0  0  0 
 27 82  1  0  0  0  0 
 28 83  1  0  0  0  0 
 30 84  1  0  0  0  0 
 30 85  1  0  0  0  0 
 30 86  1  0  0  0  0 
 36 87  1  0  0  0  0 
 36 88  1  0  0  0  0 
 37 89  1  0  0  0  0 
 37 90  1  0  0  0  0 
 37 91  1  0  0  0  0 
 41 92  1  0  0  0  0 
 43 93  1  0  0  0  0 
 43 94  1  0  0  0  0 
 43 95  1  0  0  0  0 
 45 96  1  0  0  0  0 
 45 97  1  0  0  0  0 
 47 98  1  0  0  0  0 
 47 99  1  0  0  0  0 
 48100  1  0  0  0  0 
 49101  1  0  0  0  0 
 51102  1  0  0  0  0 
 53103  1  0  0  0  0 
 54104  1  0  0  0  0 
 54105  1  0  0  0  0 
 55106  1  0  0  0  0 
 56107  1  0  0  0  0 
 56108  1  0  0  0  0 
 57109  1  0  0  0  0 
 57110  1  0  0  0  0 
 57111  1  0  0  0  0 
M  END
> <cdk:Title>
vinorelbine

> <Conformer>
1

> <SuperDrugID>
SD002550

$$$$
