etodroxizine
  CDK     0628171801

 60 62  0  0  0  0  0  0  0  0999 V2000
    8.2112   -3.0141    7.4819 C   0  0  2  0  0  0  0  0  0  0  0  0
    8.1307   -3.1722    5.9787 N   0  0  1  0  0  0  0  0  0  0  0  0
    9.6236   -2.8702    7.9786 C   0  0  0  0  0  0  0  0  0  0  0  0
    7.5404   -4.1254    8.2463 C   0  0  0  0  0  0  0  0  0  0  0  0
    6.7367   -3.2917    5.4345 C   0  0  1  0  0  0  0  0  0  0  0  0
    8.8720   -2.1433    5.1727 C   0  0  1  0  0  0  0  0  0  0  0  0
   10.5699   -3.9159    7.8335 C   0  0  0  0  0  0  0  0  0  0  0  0
   10.0661   -1.6598    8.5702 C   0  0  0  0  0  0  0  0  0  0  0  0
    7.5935   -5.4704    7.7975 C   0  0  0  0  0  0  0  0  0  0  0  0
    6.8082   -3.8535    9.4300 C   0  0  0  0  0  0  0  0  0  0  0  0
    6.7808   -3.7701    3.9655 C   0  0  1  0  0  0  0  0  0  0  0  0
    8.9341   -2.5626    3.6829 C   0  0  2  0  0  0  0  0  0  0  0  0
   11.8926   -3.7728    8.2898 C   0  0  0  0  0  0  0  0  0  0  0  0
   11.3942   -1.5056    9.0094 C   0  0  0  0  0  0  0  0  0  0  0  0
    6.9207   -6.4965    8.4850 C   0  0  0  0  0  0  0  0  0  0  0  0
    6.1356   -4.8794   10.1220 C   0  0  0  0  0  0  0  0  0  0  0  0
    7.5865   -2.8555    3.0983 N   0  0  1  0  0  0  0  0  0  0  0  0
   12.3096   -2.5659    8.8798 C   0  0  0  0  0  0  0  0  0  0  0  0
    6.1866   -6.2004    9.6454 C   0  0  0  0  0  0  0  0  0  0  0  0
    7.6902   -3.2994    1.6657 C   0  0  2  0  0  0  0  0  0  0  0  0
   13.9040   -2.3871    9.4216 Cl  0  0  0  0  0  0  0  0  0  0  0  0
    6.3384   -3.4940    0.9418 C   0  0  1  0  0  0  0  0  0  0  0  0
    5.5503   -2.3031    1.1212 O   0  0  0  0  0  0  0  0  0  0  0  0
    4.2015   -2.4044    0.6372 C   0  0  2  0  0  0  0  0  0  0  0  0
    3.5344   -1.0220    0.7577 C   0  0  1  0  0  0  0  0  0  0  0  0
    2.2014   -1.1378    0.2326 O   0  0  0  0  0  0  0  0  0  0  0  0
    1.4490    0.0887    0.2380 C   0  0  1  0  0  0  0  0  0  0  0  0
    0.0630   -0.1817   -0.3756 C   0  0  2  0  0  0  0  0  0  0  0  0
    0.1941   -0.6338   -1.7198 O   0  0  0  0  0  0  0  0  0  0  0  0
    7.6644   -2.0902    7.7069 H   0  0  0  0  0  0  0  0  0  0  0  0
    6.1394   -4.0149    5.9926 H   0  0  0  0  0  0  0  0  0  0  0  0
    6.2191   -2.3284    5.4922 H   0  0  0  0  0  0  0  0  0  0  0  0
    8.3889   -1.1646    5.2638 H   0  0  0  0  0  0  0  0  0  0  0  0
    9.9037   -2.0342    5.5132 H   0  0  0  0  0  0  0  0  0  0  0  0
   10.3080   -4.7956    7.3882 H   0  0  0  0  0  0  0  0  0  0  0  0
    9.4262   -0.8695    8.6781 H   0  0  0  0  0  0  0  0  0  0  0  0
    8.1075   -5.7143    6.9489 H   0  0  0  0  0  0  0  0  0  0  0  0
    6.7536   -2.9004    9.7977 H   0  0  0  0  0  0  0  0  0  0  0  0
    7.1901   -4.7841    3.9345 H   0  0  0  0  0  0  0  0  0  0  0  0
    5.7475   -3.8022    3.6141 H   0  0  0  0  0  0  0  0  0  0  0  0
    9.5779   -3.4436    3.6042 H   0  0  0  0  0  0  0  0  0  0  0  0
    9.4035   -1.7468    3.1270 H   0  0  0  0  0  0  0  0  0  0  0  0
   12.5481   -4.5505    8.1832 H   0  0  0  0  0  0  0  0  0  0  0  0
   11.6890   -0.6164    9.4193 H   0  0  0  0  0  0  0  0  0  0  0  0
    6.9602   -7.4572    8.1362 H   0  0  0  0  0  0  0  0  0  0  0  0
    5.6087   -4.6641   10.9707 H   0  0  0  0  0  0  0  0  0  0  0  0
    5.6915   -6.9457   10.1408 H   0  0  0  0  0  0  0  0  0  0  0  0
    8.2587   -4.2326    1.5962 H   0  0  0  0  0  0  0  0  0  0  0  0
    8.2354   -2.5367    1.1018 H   0  0  0  0  0  0  0  0  0  0  0  0
    6.5222   -3.6686   -0.1217 H   0  0  0  0  0  0  0  0  0  0  0  0
    5.8357   -4.3787    1.3422 H   0  0  0  0  0  0  0  0  0  0  0  0
    3.6403   -3.1283    1.2355 H   0  0  0  0  0  0  0  0  0  0  0  0
    4.1876   -2.7155   -0.4118 H   0  0  0  0  0  0  0  0  0  0  0  0
    3.4621   -0.7762    1.8641 H   0  0  0  0  0  0  0  0  0  0  0  0
    4.1196   -0.3144    0.0898 H   0  0  0  0  0  0  0  0  0  0  0  0
    1.3165    0.4523    1.2606 H   0  0  0  0  0  0  0  0  0  0  0  0
    1.9544    0.8595   -0.3516 H   0  0  0  0  0  0  0  0  0  0  0  0
   -0.5319    0.7344   -0.3676 H   0  0  0  0  0  0  0  0  0  0  0  0
   -0.4565   -0.9452    0.2076 H   0  0  0  0  0  0  0  0  0  0  0  0
   -0.7250   -0.7729   -2.0330 H   0  0  0  0  0  0  0  0  0  0  0  0
  1  2  1  0  0  0  0 
  1  3  1  0  0  0  0 
  1  4  1  0  0  0  0 
  2  5  1  0  0  0  0 
  2  6  1  0  0  0  0 
  3  7  2  0  0  0  0 
  3  8  1  0  0  0  0 
  4  9  2  0  0  0  0 
  4 10  1  0  0  0  0 
  5 11  1  0  0  0  0 
  6 12  1  0  0  0  0 
  7 13  1  0  0  0  0 
  8 14  2  0  0  0  0 
  9 15  1  0  0  0  0 
 10 16  2  0  0  0  0 
 11 17  1  0  0  0  0 
 12 17  1  0  0  0  0 
 13 18  2  0  0  0  0 
 14 18  1  0  0  0  0 
 15 19  2  0  0  0  0 
 16 19  1  0  0  0  0 
 17 20  1  0  0  0  0 
 18 21  1  0  0  0  0 
 20 22  1  0  0  0  0 
 22 23  1  0  0  0  0 
 23 24  1  0  0  0  0 
 24 25  1  0  0  0  0 
 25 26  1  0  0  0  0 
 26 27  1  0  0  0  0 
 27 28  1  0  0  0  0 
 28 29  1  0  0  0  0 
  1 30  1  0  0  0  0 
  5 31  1  0  0  0  0 
  5 32  1  0  0  0  0 
  6 33  1  0  0  0  0 
  6 34  1  0  0  0  0 
  7 35  1  0  0  0  0 
  8 36  1  0  0  0  0 
  9 37  1  0  0  0  0 
 10 38  1  0  0  0  0 
 11 39  1  0  0  0  0 
 11 40  1  0  0  0  0 
 12 41  1  0  0  0  0 
 12 42  1  0  0  0  0 
 13 43  1  0  0  0  0 
 14 44  1  0  0  0  0 
 15 45  1  0  0  0  0 
 16 46  1  0  0  0  0 
 19 47  1  0  0  0  0 
 20 48  1  0  0  0  0 
 20 49  1  0  0  0  0 
 22 50  1  0  0  0  0 
 22 51  1  0  0  0  0 
 24 52  1  0  0  0  0 
 24 53  1  0  0  0  0 
 25 54  1  0  0  0  0 
 25 55  1  0  0  0  0 
 27 56  1  0  0  0  0 
 27 57  1  0  0  0  0 
 28 58  1  0  0  0  0 
 28 59  1  0  0  0  0 
 29 60  1  0  0  0  0 
M  END
> <cdk:Title>
etodroxizine

> <Conformer>
1

> <SuperDrugID>
SD000985

$$$$
