maraviroc
  CDK     0628171801

 78 82  0  0  0  0  0  0  0  0999 V2000
    3.1388    1.3272    0.8547 C   0  0  2  0  0  0  0  0  0  0  0  0
    4.4980    1.6937    0.1997 C   0  0  2  0  0  0  0  0  0  0  0  0
    5.3665    0.4393   -0.0962 C   0  0  1  0  0  0  0  0  0  0  0  0
    4.5752   -0.6019   -0.9374 C   0  0  1  0  0  0  0  0  0  0  0  0
    3.2167   -0.9760   -0.2838 C   0  0  2  0  0  0  0  0  0  0  0  0
    2.3405    0.2846    0.0078 C   0  0  1  0  0  0  0  0  0  0  0  0
    1.0295   -0.0267    0.6427 C   0  0  0  0  0  0  0  0  0  0  0  0
    0.8056   -1.1666    1.1155 O   0  0  0  0  0  0  0  0  0  0  0  0
    0.0876    0.9591    0.6755 N   0  0  0  0  0  0  0  0  0  0  0  0
    6.4938    0.8328   -0.7811 F   0  0  0  0  0  0  0  0  0  0  0  0
    5.7955   -0.1375    1.0801 F   0  0  0  0  0  0  0  0  0  0  0  0
   -1.2113    0.9465    1.2856 C   0  0  1  0  0  0  0  0  0  0  0  0
   -2.1223   -0.2878    0.9787 C   0  0  1  0  0  0  0  0  0  0  0  0
   -1.0874    1.2489    2.7501 C   0  0  0  0  0  0  0  0  0  0  0  0
   -0.8363    1.8416    5.5216 C   0  0  0  0  0  0  0  0  0  0  0  0
   -0.4459    0.5842    5.0328 C   0  0  0  0  0  0  0  0  0  0  0  0
   -0.5697    0.2937    3.6624 C   0  0  0  0  0  0  0  0  0  0  0  0
   -1.4721    2.5129    3.2678 C   0  0  0  0  0  0  0  0  0  0  0  0
   -1.3504    2.8068    4.6389 C   0  0  0  0  0  0  0  0  0  0  0  0
   -2.2500   -0.6447   -0.5340 C   0  0  2  0  0  0  0  0  0  0  0  0
   -3.1282   -1.8525   -0.8752 N   0  0  2  0  0  0  0  0  0  0  0  0
   -4.5651   -1.6303   -1.1824 C   0  0  1  0  0  0  0  0  0  0  0  0
   -3.1660   -3.0628   -0.0092 C   0  0  2  0  0  0  0  0  0  0  0  0
   -3.3504   -4.3145   -0.9279 C   0  0  1  0  0  0  0  0  0  0  0  0
   -4.1937   -4.0403   -2.2255 C   0  0  2  0  0  0  0  0  0  0  0  0
   -5.0386   -2.7111   -2.2203 C   0  0  2  0  0  0  0  0  0  0  0  0
   -5.2459   -1.7767    0.1987 C   0  0  1  0  0  0  0  0  0  0  0  0
   -4.3752   -2.8140    0.9350 C   0  0  2  0  0  0  0  0  0  0  0  0
   -4.9478   -5.1926   -2.7052 N   0  0  0  0  0  0  0  0  0  0  0  0
   -5.9646   -5.8415   -2.0740 C   0  0  0  0  0  0  0  0  0  0  0  0
   -6.4123   -6.8298   -2.8620 N   0  0  0  0  0  0  0  0  0  0  0  0
   -5.7263   -6.8273   -3.9479 N   0  0  0  0  0  0  0  0  0  0  0  0
   -4.8158   -5.8403   -3.8974 C   0  0  0  0  0  0  0  0  0  0  0  0
   -3.8994   -5.6277   -5.0595 C   0  0  2  0  0  0  0  0  0  0  0  0
   -2.4304   -6.0168   -4.7408 C   0  0  0  0  0  0  0  0  0  0  0  0
   -4.0290   -4.2215   -5.7093 C   0  0  0  0  0  0  0  0  0  0  0  0
   -6.5734   -5.6048   -0.7483 C   0  0  0  0  0  0  0  0  0  0  0  0
   -4.7607   -0.6316   -1.5892 H   0  0  0  0  0  0  0  0  0  0  0  0
   -2.2496   -3.1993    0.5699 H   0  0  0  0  0  0  0  0  0  0  0  0
    2.5556    2.2468    0.9642 H   0  0  0  0  0  0  0  0  0  0  0  0
    3.3239    0.9312    1.8584 H   0  0  0  0  0  0  0  0  0  0  0  0
    5.0417    2.3760    0.8612 H   0  0  0  0  0  0  0  0  0  0  0  0
    4.3037    2.2252   -0.7382 H   0  0  0  0  0  0  0  0  0  0  0  0
    4.3848   -0.1893   -1.9325 H   0  0  0  0  0  0  0  0  0  0  0  0
    5.1748   -1.5081   -1.0654 H   0  0  0  0  0  0  0  0  0  0  0  0
    3.4085   -1.5232    0.6451 H   0  0  0  0  0  0  0  0  0  0  0  0
    2.6782   -1.6449   -0.9628 H   0  0  0  0  0  0  0  0  0  0  0  0
    2.1156    0.7407   -0.9627 H   0  0  0  0  0  0  0  0  0  0  0  0
    0.3420    1.7950    0.2535 H   0  0  0  0  0  0  0  0  0  0  0  0
   -1.7151    1.7919    0.8076 H   0  0  0  0  0  0  0  0  0  0  0  0
   -1.7484   -1.1558    1.5205 H   0  0  0  0  0  0  0  0  0  0  0  0
   -3.1136   -0.0629    1.3729 H   0  0  0  0  0  0  0  0  0  0  0  0
   -0.7484    2.0517    6.5175 H   0  0  0  0  0  0  0  0  0  0  0  0
   -0.0726   -0.1211    5.6726 H   0  0  0  0  0  0  0  0  0  0  0  0
   -0.2786   -0.6303    3.3427 H   0  0  0  0  0  0  0  0  0  0  0  0
   -1.8401    3.2388    2.6484 H   0  0  0  0  0  0  0  0  0  0  0  0
   -1.6317    3.7252    4.9926 H   0  0  0  0  0  0  0  0  0  0  0  0
   -1.2199   -1.0034   -0.8442 H   0  0  0  0  0  0  0  0  0  0  0  0
   -2.6010    0.3440   -1.0357 H   0  0  0  0  0  0  0  0  0  0  0  0
   -2.3535   -4.6568   -1.2255 H   0  0  0  0  0  0  0  0  0  0  0  0
   -3.7614   -5.1371   -0.3477 H   0  0  0  0  0  0  0  0  0  0  0  0
   -3.4157   -3.8215   -2.9542 H   0  0  0  0  0  0  0  0  0  0  0  0
   -4.9792   -2.2652   -3.2188 H   0  0  0  0  0  0  0  0  0  0  0  0
   -6.0967   -2.9233   -2.0703 H   0  0  0  0  0  0  0  0  0  0  0  0
   -5.2187   -0.8219    0.7283 H   0  0  0  0  0  0  0  0  0  0  0  0
   -6.2905   -2.0876    0.1258 H   0  0  0  0  0  0  0  0  0  0  0  0
   -4.0294   -2.4090    1.8894 H   0  0  0  0  0  0  0  0  0  0  0  0
   -4.9389   -3.7255    1.1450 H   0  0  0  0  0  0  0  0  0  0  0  0
   -4.2128   -6.3289   -5.8433 H   0  0  0  0  0  0  0  0  0  0  0  0
   -1.8136   -5.9113   -5.6357 H   0  0  0  0  0  0  0  0  0  0  0  0
   -2.0057   -5.3892   -3.9578 H   0  0  0  0  0  0  0  0  0  0  0  0
   -2.3782   -7.0585   -4.4159 H   0  0  0  0  0  0  0  0  0  0  0  0
   -3.6545   -4.2534   -6.7345 H   0  0  0  0  0  0  0  0  0  0  0  0
   -3.4520   -3.4694   -5.1720 H   0  0  0  0  0  0  0  0  0  0  0  0
   -5.0733   -3.9046   -5.7420 H   0  0  0  0  0  0  0  0  0  0  0  0
   -5.8798   -5.8821    0.0423 H   0  0  0  0  0  0  0  0  0  0  0  0
   -7.4717   -6.2120   -0.6242 H   0  0  0  0  0  0  0  0  0  0  0  0
   -6.8575   -4.5619   -0.6371 H   0  0  0  0  0  0  0  0  0  0  0  0
  1  2  1  0  0  0  0 
  1  6  1  0  0  0  0 
  2  3  1  0  0  0  0 
  3  4  1  0  0  0  0 
  4  5  1  0  0  0  0 
  5  6  1  0  0  0  0 
  6  7  1  0  0  0  0 
  7  8  2  0  0  0  0 
  7  9  1  0  0  0  0 
  3 10  1  0  0  0  0 
  3 11  1  0  0  0  0 
  9 12  1  0  0  0  0 
 12 13  1  0  0  0  0 
 12 14  1  0  0  0  0 
 17 14  2  0  0  0  0 
 14 18  1  0  0  0  0 
 15 16  2  0  0  0  0 
 15 19  1  0  0  0  0 
 16 17  1  0  0  0  0 
 18 19  2  0  0  0  0 
 13 20  1  0  0  0  0 
 20 21  1  0  0  0  0 
 22 21  1  0  0  0  0 
 21 23  1  0  0  0  0 
 22 26  1  0  0  0  0 
 23 24  1  0  0  0  0 
 24 25  1  0  0  0  0 
 25 26  1  0  0  0  0 
 22 27  1  0  0  0  0 
 23 28  1  0  0  0  0 
 27 28  1  0  0  0  0 
 25 29  1  0  0  0  0 
 29 30  1  0  0  0  0 
 29 33  1  0  0  0  0 
 30 31  2  0  0  0  0 
 31 32  1  0  0  0  0 
 32 33  2  0  0  0  0 
 33 34  1  0  0  0  0 
 34 35  1  0  0  0  0 
 34 36  1  0  0  0  0 
 30 37  1  0  0  0  0 
 22 38  1  0  0  0  0 
 23 39  1  0  0  0  0 
  1 40  1  0  0  0  0 
  1 41  1  0  0  0  0 
  2 42  1  0  0  0  0 
  2 43  1  0  0  0  0 
  4 44  1  0  0  0  0 
  4 45  1  0  0  0  0 
  5 46  1  0  0  0  0 
  5 47  1  0  0  0  0 
  6 48  1  0  0  0  0 
  9 49  1  0  0  0  0 
 12 50  1  0  0  0  0 
 13 51  1  0  0  0  0 
 13 52  1  0  0  0  0 
 15 53  1  0  0  0  0 
 16 54  1  0  0  0  0 
 17 55  1  0  0  0  0 
 18 56  1  0  0  0  0 
 19 57  1  0  0  0  0 
 20 58  1  0  0  0  0 
 20 59  1  0  0  0  0 
 24 60  1  0  0  0  0 
 24 61  1  0  0  0  0 
 25 62  1  0  0  0  0 
 26 63  1  0  0  0  0 
 26 64  1  0  0  0  0 
 27 65  1  0  0  0  0 
 27 66  1  0  0  0  0 
 28 67  1  0  0  0  0 
 28 68  1  0  0  0  0 
 34 69  1  0  0  0  0 
 35 70  1  0  0  0  0 
 35 71  1  0  0  0  0 
 35 72  1  0  0  0  0 
 36 73  1  0  0  0  0 
 36 74  1  0  0  0  0 
 36 75  1  0  0  0  0 
 37 76  1  0  0  0  0 
 37 77  1  0  0  0  0 
 37 78  1  0  0  0  0 
M  END
> <cdk:Title>
maraviroc

> <Conformer>
1

> <SuperDrugID>
SD001446

$$$$
