salamidacetic acid
  CDK     0628171801

 23 23  0  0  0  0  0  0  0  0999 V2000
   -0.7210   -1.9048   -0.7466 O   0  0  0  0  0  0  0  0  0  0  0  0
   -0.6265   -1.1443    0.4761 C   0  0  1  0  0  0  0  0  0  0  0  0
    0.5005   -2.3232   -1.2114 C   0  0  0  0  0  0  0  0  0  0  0  0
   -1.9669   -0.6607    0.8335 C   0  0  0  0  0  0  0  0  0  0  0  0
    1.2899   -1.5411   -2.1063 C   0  0  0  0  0  0  0  0  0  0  0  0
    0.9499   -3.5885   -0.7762 C   0  0  0  0  0  0  0  0  0  0  0  0
   -2.6438    0.1448   -0.0184 O   0  0  0  0  0  0  0  0  0  0  0  0
   -2.4978   -0.9651    1.9255 O   0  0  0  0  0  0  0  0  0  0  0  0
    0.8348   -0.2871   -2.6222 C   0  0  0  0  0  0  0  0  0  0  0  0
    2.5595   -2.0530   -2.4822 C   0  0  0  0  0  0  0  0  0  0  0  0
    2.2092   -4.0694   -1.1666 C   0  0  0  0  0  0  0  0  0  0  0  0
    1.5767    0.5236   -3.4040 N   0  0  0  0  0  0  0  0  0  0  0  0
   -0.3145    0.1503   -2.3880 O   0  0  0  0  0  0  0  0  0  0  0  0
    3.0188   -3.2954   -2.0111 C   0  0  0  0  0  0  0  0  0  0  0  0
   -0.2217   -1.7551    1.2905 H   0  0  0  0  0  0  0  0  0  0  0  0
    0.0144   -0.2683    0.3455 H   0  0  0  0  0  0  0  0  0  0  0  0
    0.3624   -4.1623   -0.1670 H   0  0  0  0  0  0  0  0  0  0  0  0
   -3.5332    0.4844    0.2189 H   0  0  0  0  0  0  0  0  0  0  0  0
    3.1745   -1.5316   -3.1106 H   0  0  0  0  0  0  0  0  0  0  0  0
    2.5375   -4.9790   -0.8365 H   0  0  0  0  0  0  0  0  0  0  0  0
    1.2059    1.3685   -3.7006 H   0  0  0  0  0  0  0  0  0  0  0  0
    2.4731    0.2783   -3.6710 H   0  0  0  0  0  0  0  0  0  0  0  0
    3.9443   -3.6348   -2.2878 H   0  0  0  0  0  0  0  0  0  0  0  0
  1  2  1  0  0  0  0 
  1  3  1  0  0  0  0 
  2  4  1  0  0  0  0 
  3  5  2  0  0  0  0 
  3  6  1  0  0  0  0 
  4  7  1  0  0  0  0 
  4  8  2  0  0  0  0 
  5  9  1  0  0  0  0 
  5 10  1  0  0  0  0 
  6 11  2  0  0  0  0 
  9 12  1  0  0  0  0 
  9 13  2  0  0  0  0 
 10 14  2  0  0  0  0 
 11 14  1  0  0  0  0 
  2 15  1  0  0  0  0 
  2 16  1  0  0  0  0 
  6 17  1  0  0  0  0 
  7 18  1  0  0  0  0 
 10 19  1  0  0  0  0 
 11 20  1  0  0  0  0 
 12 21  1  0  0  0  0 
 12 22  1  0  0  0  0 
 14 23  1  0  0  0  0 
M  END
> <cdk:Title>
salamidacetic acid

> <Conformer>
1

> <SuperDrugID>
SD003045

$$$$
