pipemidic acid
  CDK     0628171801

 39 41  0  0  0  0  0  0  0  0999 V2000
    0.7415    2.3085    5.1534 C   0  0  1  0  0  0  0  0  0  0  0  0
    2.1547    2.8549    4.8514 C   0  0  0  0  0  0  0  0  0  0  0  0
   -0.2901    3.1116    4.5189 N   0  0  0  0  0  0  0  0  0  0  0  0
   -0.6787    2.8831    3.2212 C   0  0  0  0  0  0  0  0  0  0  0  0
   -0.8643    4.1316    5.2303 C   0  0  0  0  0  0  0  0  0  0  0  0
   -1.6823    3.6790    2.6102 C   0  0  0  0  0  0  0  0  0  0  0  0
   -0.1056    1.8928    2.4824 N   0  0  0  0  0  0  0  0  0  0  0  0
   -1.8534    4.9857    4.6857 C   0  0  0  0  0  0  0  0  0  0  0  0
   -2.2673    4.7309    3.3519 C   0  0  0  0  0  0  0  0  0  0  0  0
   -2.0256    3.3749    1.2721 C   0  0  0  0  0  0  0  0  0  0  0  0
   -0.4251    1.6133    1.1919 C   0  0  0  0  0  0  0  0  0  0  0  0
   -2.3738    6.0533    5.4794 C   0  0  0  0  0  0  0  0  0  0  0  0
   -3.1447    5.4421    2.8050 O   0  0  0  0  0  0  0  0  0  0  0  0
   -1.3938    2.3727    0.6135 N   0  0  0  0  0  0  0  0  0  0  0  0
    0.2064    0.5991    0.5024 N   0  0  0  0  0  0  0  0  0  0  0  0
   -1.9489    6.2697    6.7501 O   0  0  0  0  0  0  0  0  0  0  0  0
   -3.2381    6.8556    5.0583 O   0  0  0  0  0  0  0  0  0  0  0  0
    0.7106   -0.5861    1.1717 C   0  0  2  0  0  0  0  0  0  0  0  0
    0.3886    0.6601   -0.9345 C   0  0  1  0  0  0  0  0  0  0  0  0
    2.1914   -0.8540    0.7970 C   0  0  2  0  0  0  0  0  0  0  0  0
    1.8739    0.4005   -1.3007 C   0  0  2  0  0  0  0  0  0  0  0  0
    2.3611   -0.8506   -0.6744 N   0  0  1  0  0  0  0  0  0  0  0  0
    0.6849    1.2667    4.8261 H   0  0  0  0  0  0  0  0  0  0  0  0
    0.6134    2.2777    6.2404 H   0  0  0  0  0  0  0  0  0  0  0  0
    2.9057    2.2076    5.3077 H   0  0  0  0  0  0  0  0  0  0  0  0
    2.3344    2.8912    3.7759 H   0  0  0  0  0  0  0  0  0  0  0  0
    2.2659    3.8602    5.2619 H   0  0  0  0  0  0  0  0  0  0  0  0
   -0.5553    4.2927    6.1942 H   0  0  0  0  0  0  0  0  0  0  0  0
   -2.7476    3.9001    0.7762 H   0  0  0  0  0  0  0  0  0  0  0  0
   -2.3041    7.0122    7.2824 H   0  0  0  0  0  0  0  0  0  0  0  0
    0.1067   -1.4408    0.8522 H   0  0  0  0  0  0  0  0  0  0  0  0
    0.6331   -0.5326    2.2605 H   0  0  0  0  0  0  0  0  0  0  0  0
   -0.2434   -0.1004   -1.4035 H   0  0  0  0  0  0  0  0  0  0  0  0
    0.1055    1.6287   -1.3577 H   0  0  0  0  0  0  0  0  0  0  0  0
    2.4938   -1.8317    1.1793 H   0  0  0  0  0  0  0  0  0  0  0  0
    2.8404   -0.0973    1.2466 H   0  0  0  0  0  0  0  0  0  0  0  0
    2.4895    1.2401   -0.9663 H   0  0  0  0  0  0  0  0  0  0  0  0
    1.9774    0.3156   -2.3847 H   0  0  0  0  0  0  0  0  0  0  0  0
    3.3627   -0.9207   -0.8684 H   0  0  0  0  0  0  0  0  0  0  0  0
  1  2  1  0  0  0  0 
  1  3  1  0  0  0  0 
  3  4  1  0  0  0  0 
  3  5  1  0  0  0  0 
  4  6  1  0  0  0  0 
  4  7  2  0  0  0  0 
  5  8  2  0  0  0  0 
  6  9  1  0  0  0  0 
  6 10  2  0  0  0  0 
  7 11  1  0  0  0  0 
  8  9  1  0  0  0  0 
  8 12  1  0  0  0  0 
  9 13  2  0  0  0  0 
 10 14  1  0  0  0  0 
 11 14  2  0  0  0  0 
 11 15  1  0  0  0  0 
 12 16  1  0  0  0  0 
 12 17  2  0  0  0  0 
 15 18  1  0  0  0  0 
 15 19  1  0  0  0  0 
 18 20  1  0  0  0  0 
 19 21  1  0  0  0  0 
 20 22  1  0  0  0  0 
 21 22  1  0  0  0  0 
  1 23  1  0  0  0  0 
  1 24  1  0  0  0  0 
  2 25  1  0  0  0  0 
  2 26  1  0  0  0  0 
  2 27  1  0  0  0  0 
  5 28  1  0  0  0  0 
 10 29  1  0  0  0  0 
 16 30  1  0  0  0  0 
 18 31  1  0  0  0  0 
 18 32  1  0  0  0  0 
 19 33  1  0  0  0  0 
 19 34  1  0  0  0  0 
 20 35  1  0  0  0  0 
 20 36  1  0  0  0  0 
 21 37  1  0  0  0  0 
 21 38  1  0  0  0  0 
 22 39  1  0  0  0  0 
M  END
> <cdk:Title>
pipemidic acid

> <Conformer>
1

> <SuperDrugID>
SD001959

$$$$
