cidofovir
  CDK     0628171802

 32 32  0  0  0  0  0  0  0  0999 V2000
    0.3551    1.2918    3.4967 C   0  0  2  0  0  0  0  0  0  0  0  0
    0.9596    1.3474    2.0558 C   0  0  2  0  0  0  0  0  0  0  0  0
    0.8742    2.3246    4.3745 N   0  0  0  0  0  0  0  0  0  0  0  0
    0.3729    0.3415    1.1958 O   0  0  0  0  0  0  0  0  0  0  0  0
    2.4882    1.0826    2.0313 C   0  0  1  0  0  0  0  0  0  0  0  0
    0.4810    3.6367    4.2416 C   0  0  0  0  0  0  0  0  0  0  0  0
    1.7842    2.0070    5.3516 C   0  0  0  0  0  0  0  0  0  0  0  0
   -0.9023    0.6645    0.6084 C   0  0  2  0  0  0  0  0  0  0  0  0
    3.2204    2.1428    2.6385 O   0  0  0  0  0  0  0  0  0  0  0  0
   -0.3638    4.0133    3.3971 O   0  0  0  0  0  0  0  0  0  0  0  0
    0.9947    4.6011    5.0453 N   0  0  0  0  0  0  0  0  0  0  0  0
    2.3256    2.9949    6.1926 C   0  0  0  0  0  0  0  0  0  0  0  0
   -1.3289   -0.5580   -0.5089 P   0  0  1  0  0  0  0  0  0  0  0  0
    1.9033    4.3205    6.0080 C   0  0  0  0  0  0  0  0  0  0  0  0
   -0.4744   -0.5217   -1.7043 O   0  0  0  0  0  0  0  0  0  0  0  0
   -1.2077   -1.9819    0.1846 O   0  0  0  0  0  0  0  0  0  0  0  0
   -2.8492   -0.3757   -0.9351 O   0  0  0  0  0  0  0  0  0  0  0  0
    2.3860    5.3142    6.7701 N   0  0  0  0  0  0  0  0  0  0  0  0
    0.5288    0.2886    3.9017 H   0  0  0  0  0  0  0  0  0  0  0  0
   -0.7317    1.3990    3.4459 H   0  0  0  0  0  0  0  0  0  0  0  0
    0.8062    2.3439    1.6283 H   0  0  0  0  0  0  0  0  0  0  0  0
    2.7193    0.1485    2.5470 H   0  0  0  0  0  0  0  0  0  0  0  0
    2.8297    0.9966    0.9970 H   0  0  0  0  0  0  0  0  0  0  0  0
    2.1039    1.0419    5.4771 H   0  0  0  0  0  0  0  0  0  0  0  0
   -0.8516    1.6121    0.0668 H   0  0  0  0  0  0  0  0  0  0  0  0
   -1.6796    0.7239    1.3727 H   0  0  0  0  0  0  0  0  0  0  0  0
    4.1606    1.8684    2.5902 H   0  0  0  0  0  0  0  0  0  0  0  0
    3.0099    2.7526    6.9136 H   0  0  0  0  0  0  0  0  0  0  0  0
   -1.4946   -2.6167   -0.5051 H   0  0  0  0  0  0  0  0  0  0  0  0
   -3.0375   -1.1431   -1.5149 H   0  0  0  0  0  0  0  0  0  0  0  0
    3.0445    5.1219    7.4566 H   0  0  0  0  0  0  0  0  0  0  0  0
    2.0731    6.2230    6.6370 H   0  0  0  0  0  0  0  0  0  0  0  0
  2  1  1  0  0  0  0 
  1  3  1  0  0  0  0 
  2  4  1  0  0  0  0 
  2  5  1  0  0  0  0 
  3  6  1  0  0  0  0 
  3  7  1  0  0  0  0 
  4  8  1  0  0  0  0 
  5  9  1  0  0  0  0 
  6 10  2  0  0  0  0 
  6 11  1  0  0  0  0 
  7 12  2  0  0  0  0 
  8 13  1  0  0  0  0 
 11 14  2  0  0  0  0 
 12 14  1  0  0  0  0 
 13 15  2  0  0  0  0 
 13 16  1  0  0  0  0 
 13 17  1  0  0  0  0 
 14 18  1  0  0  0  0 
 19  1  1  0  0  0  0 
 20  1  1  0  0  0  0 
  2 21  1  0  0  0  0 
 22  5  1  0  0  0  0 
 23  5  1  0  0  0  0 
 24  7  1  0  0  0  0 
 25  8  1  0  0  0  0 
 26  8  1  0  0  0  0 
 27  9  1  0  0  0  0 
 28 12  1  0  0  0  0 
 29 16  1  0  0  0  0 
 30 17  1  0  0  0  0 
 31 18  1  0  0  0  0 
 32 18  1  0  0  0  0 
M  END
> <cdk:Title>
cidofovir

> <Conformer>
1

> <SuperDrugID>
SD000560

$$$$
