dimenoxadol
  CDK     0628171801

 49 50  0  0  0  0  0  0  0  0999 V2000
   -6.3547    2.9493    4.3421 C   0  0  1  0  0  0  0  0  0  0  0  0
   -4.9743    2.3735    4.2505 C   0  0  0  0  0  0  0  0  0  0  0  0
   -7.1514    1.9709    5.0784 O   0  0  0  0  0  0  0  0  0  0  0  0
   -6.3320    4.2446    5.1375 C   0  0  0  0  0  0  0  0  0  0  0  0
   -6.7711    3.0464    2.8821 C   0  0  0  0  0  0  0  0  0  0  0  0
   -3.9595    3.1583    3.7736 O   0  0  0  0  0  0  0  0  0  0  0  0
   -4.7337    1.1902    4.5976 O   0  0  0  0  0  0  0  0  0  0  0  0
   -8.4858    2.3217    5.5129 C   0  0  1  0  0  0  0  0  0  0  0  0
   -7.0749    5.3939    4.7527 C   0  0  0  0  0  0  0  0  0  0  0  0
   -5.6207    4.3233    6.3661 C   0  0  0  0  0  0  0  0  0  0  0  0
   -7.6748    2.1207    2.2916 C   0  0  0  0  0  0  0  0  0  0  0  0
   -6.2076    4.0298    2.0199 C   0  0  0  0  0  0  0  0  0  0  0  0
   -2.6086    2.7654    3.5191 C   0  0  1  0  0  0  0  0  0  0  0  0
   -9.2547    1.0484    5.9165 C   0  0  0  0  0  0  0  0  0  0  0  0
   -7.0571    6.5739    5.5188 C   0  0  0  0  0  0  0  0  0  0  0  0
   -5.6072    5.4976    7.1403 C   0  0  0  0  0  0  0  0  0  0  0  0
   -8.0034    2.1777    0.9239 C   0  0  0  0  0  0  0  0  0  0  0  0
   -6.5341    4.0918    0.6526 C   0  0  0  0  0  0  0  0  0  0  0  0
   -1.7811    3.9680    2.9976 C   0  0  1  0  0  0  0  0  0  0  0  0
   -6.3193    6.6277    6.7116 C   0  0  0  0  0  0  0  0  0  0  0  0
   -7.4329    3.1635    0.1028 C   0  0  0  0  0  0  0  0  0  0  0  0
   -1.0978    4.7444    4.0831 N   0  0  1  0  0  0  0  0  0  0  0  0
    0.0214    5.5927    3.5788 C   0  0  0  0  0  0  0  0  0  0  0  0
   -2.0120    5.5017    4.9871 C   0  0  0  0  0  0  0  0  0  0  0  0
   -8.4246    2.9805    6.3808 H   0  0  0  0  0  0  0  0  0  0  0  0
   -9.0445    2.8336    4.7259 H   0  0  0  0  0  0  0  0  0  0  0  0
   -7.6560    5.3852    3.9127 H   0  0  0  0  0  0  0  0  0  0  0  0
   -5.1011    3.5160    6.7131 H   0  0  0  0  0  0  0  0  0  0  0  0
   -8.1004    1.3752    2.8456 H   0  0  0  0  0  0  0  0  0  0  0  0
   -5.5422    4.7176    2.3844 H   0  0  0  0  0  0  0  0  0  0  0  0
   -2.1522    2.3585    4.4239 H   0  0  0  0  0  0  0  0  0  0  0  0
   -2.6244    1.9789    2.7604 H   0  0  0  0  0  0  0  0  0  0  0  0
  -10.2471    1.3084    6.2964 H   0  0  0  0  0  0  0  0  0  0  0  0
   -9.3727    0.3929    5.0508 H   0  0  0  0  0  0  0  0  0  0  0  0
   -8.7106    0.5069    6.6936 H   0  0  0  0  0  0  0  0  0  0  0  0
   -7.5892    7.3922    5.2136 H   0  0  0  0  0  0  0  0  0  0  0  0
   -5.0842    5.5297    8.0179 H   0  0  0  0  0  0  0  0  0  0  0  0
   -8.6524    1.4959    0.5250 H   0  0  0  0  0  0  0  0  0  0  0  0
   -6.1136    4.8103    0.0585 H   0  0  0  0  0  0  0  0  0  0  0  0
   -1.0195    3.5486    2.3334 H   0  0  0  0  0  0  0  0  0  0  0  0
   -2.4165    4.6225    2.3918 H   0  0  0  0  0  0  0  0  0  0  0  0
   -6.3111    7.4846    7.2722 H   0  0  0  0  0  0  0  0  0  0  0  0
   -7.6723    3.2083   -0.8897 H   0  0  0  0  0  0  0  0  0  0  0  0
   -0.3474    6.3883    2.9250 H   0  0  0  0  0  0  0  0  0  0  0  0
    0.7400    4.9876    3.0213 H   0  0  0  0  0  0  0  0  0  0  0  0
    0.5653    6.0434    4.4120 H   0  0  0  0  0  0  0  0  0  0  0  0
   -2.5320    6.2980    4.4498 H   0  0  0  0  0  0  0  0  0  0  0  0
   -1.4463    5.9456    5.8093 H   0  0  0  0  0  0  0  0  0  0  0  0
   -2.7524    4.8384    5.4328 H   0  0  0  0  0  0  0  0  0  0  0  0
  1  2  1  0  0  0  0 
  1  3  1  0  0  0  0 
  1  4  1  0  0  0  0 
  1  5  1  0  0  0  0 
  2  6  1  0  0  0  0 
  2  7  2  0  0  0  0 
  3  8  1  0  0  0  0 
  4  9  2  0  0  0  0 
  4 10  1  0  0  0  0 
  5 11  2  0  0  0  0 
  5 12  1  0  0  0  0 
  6 13  1  0  0  0  0 
  8 14  1  0  0  0  0 
  9 15  1  0  0  0  0 
 10 16  2  0  0  0  0 
 11 17  1  0  0  0  0 
 12 18  2  0  0  0  0 
 13 19  1  0  0  0  0 
 15 20  2  0  0  0  0 
 16 20  1  0  0  0  0 
 17 21  2  0  0  0  0 
 18 21  1  0  0  0  0 
 19 22  1  0  0  0  0 
 22 23  1  0  0  0  0 
 22 24  1  0  0  0  0 
  8 25  1  0  0  0  0 
  8 26  1  0  0  0  0 
  9 27  1  0  0  0  0 
 10 28  1  0  0  0  0 
 11 29  1  0  0  0  0 
 12 30  1  0  0  0  0 
 13 31  1  0  0  0  0 
 13 32  1  0  0  0  0 
 14 33  1  0  0  0  0 
 14 34  1  0  0  0  0 
 14 35  1  0  0  0  0 
 15 36  1  0  0  0  0 
 16 37  1  0  0  0  0 
 17 38  1  0  0  0  0 
 18 39  1  0  0  0  0 
 19 40  1  0  0  0  0 
 19 41  1  0  0  0  0 
 20 42  1  0  0  0  0 
 21 43  1  0  0  0  0 
 23 44  1  0  0  0  0 
 23 45  1  0  0  0  0 
 23 46  1  0  0  0  0 
 24 47  1  0  0  0  0 
 24 48  1  0  0  0  0 
 24 49  1  0  0  0  0 
M  END
> <cdk:Title>
dimenoxadol

> <Conformer>
1

> <SuperDrugID>
SD002728

$$$$
