tartrazine
  CDK     0628171801

 43 45  0  0  0  0  0  0  0  0999 V2000
    0.1595   -5.7880    8.9426 O   0  0  0  0  0  0  0  0  0  0  0  0
    1.3760   -5.6603    8.6684 C   0  0  0  0  0  0  0  0  0  0  0  0
    2.4040   -6.1888    9.3596 N   0  0  0  0  0  0  0  0  0  0  0  0
    1.8916   -4.9575    7.5841 C   0  0  0  0  0  0  0  0  0  0  0  0
    3.5078   -5.8613    8.7669 N   0  0  0  0  0  0  0  0  0  0  0  0
    2.3287   -6.9396   10.4945 C   0  0  0  0  0  0  0  0  0  0  0  0
    1.1087   -4.3386    6.7150 N   0  0  0  0  0  0  0  0  0  0  0  0
    3.2860   -5.0958    7.6837 C   0  0  0  0  0  0  0  0  0  0  0  0
    2.8916   -8.2343   10.5354 C   0  0  0  0  0  0  0  0  0  0  0  0
    1.6759   -6.4377   11.6423 C   0  0  0  0  0  0  0  0  0  0  0  0
    1.4724   -3.7033    5.7344 N   0  0  0  0  0  0  0  0  0  0  0  0
    4.3403   -4.5903    6.8919 C   0  0  0  0  0  0  0  0  0  0  0  0
    2.7872   -9.0187   11.6989 C   0  0  0  0  0  0  0  0  0  0  0  0
    1.5818   -7.2181   12.8087 C   0  0  0  0  0  0  0  0  0  0  0  0
    0.7173   -3.0782    4.8427 C   0  0  0  0  0  0  0  0  0  0  0  0
    5.6266   -4.8547    7.2263 O   0  0  0  0  0  0  0  0  0  0  0  0
    4.1596   -3.8868    5.8750 O   0  0  0  0  0  0  0  0  0  0  0  0
    2.1390   -8.5125   12.8434 C   0  0  0  0  0  0  0  0  0  0  0  0
   -0.6982   -3.0590    4.8738 C   0  0  0  0  0  0  0  0  0  0  0  0
    1.3869   -2.3983    3.8034 C   0  0  0  0  0  0  0  0  0  0  0  0
    2.0431   -9.5107   14.2999 S   0  0  1  0  0  0  0  0  0  0  0  0
   -1.4249   -2.3740    3.8799 C   0  0  0  0  0  0  0  0  0  0  0  0
    0.6625   -1.7141    2.8112 C   0  0  0  0  0  0  0  0  0  0  0  0
    1.1961  -10.8402   14.0069 O   0  0  0  0  0  0  0  0  0  0  0  0
    3.5109   -9.9206   14.7984 O   0  0  0  0  0  0  0  0  0  0  0  0
    1.2710   -8.6581   15.5670 O   0  0  0  0  0  0  0  0  0  0  0  0
   -0.7463   -1.7008    2.8422 C   0  0  0  0  0  0  0  0  0  0  0  0
   -1.6144   -0.8362    1.5668 S   0  0  2  0  0  0  0  0  0  0  0  0
   -1.2122   -1.4146    0.1263 O   0  0  0  0  0  0  0  0  0  0  0  0
   -1.2558    0.7260    1.6182 O   0  0  0  0  0  0  0  0  0  0  0  0
   -3.3057   -1.0001    1.7543 O   0  0  0  0  0  0  0  0  0  0  0  0
    4.3897   -6.1224    9.0753 H   0  0  0  0  0  0  0  0  0  0  0  0
    3.3671   -8.6158    9.7132 H   0  0  0  0  0  0  0  0  0  0  0  0
    1.2729   -5.4968   11.6344 H   0  0  0  0  0  0  0  0  0  0  0  0
    3.1859   -9.9603   11.7065 H   0  0  0  0  0  0  0  0  0  0  0  0
    1.1083   -6.8347   13.6286 H   0  0  0  0  0  0  0  0  0  0  0  0
    6.3642   -4.4982    6.6856 H   0  0  0  0  0  0  0  0  0  0  0  0
   -1.2068   -3.5436    5.6175 H   0  0  0  0  0  0  0  0  0  0  0  0
    2.4099   -2.3977    3.7622 H   0  0  0  0  0  0  0  0  0  0  0  0
   -2.4473   -2.3704    3.9171 H   0  0  0  0  0  0  0  0  0  0  0  0
    1.1715   -1.2282    2.0674 H   0  0  0  0  0  0  0  0  0  0  0  0
    0.7389   -9.3346   16.0348 H   0  0  0  0  0  0  0  0  0  0  0  0
   -3.6509   -0.0846    1.6821 H   0  0  0  0  0  0  0  0  0  0  0  0
  1  2  2  0  0  0  0 
  2  3  1  0  0  0  0 
  2  4  1  0  0  0  0 
  3  5  1  0  0  0  0 
  3  6  1  0  0  0  0 
  7  4  1  0  0  0  0 
  4  8  2  0  0  0  0 
  5  8  1  0  0  0  0 
  6  9  2  0  0  0  0 
  6 10  1  0  0  0  0 
  7 11  2  0  0  0  0 
  8 12  1  0  0  0  0 
  9 13  1  0  0  0  0 
 10 14  2  0  0  0  0 
 11 15  1  0  0  0  0 
 12 16  1  0  0  0  0 
 12 17  2  0  0  0  0 
 13 18  2  0  0  0  0 
 14 18  1  0  0  0  0 
 15 19  2  0  0  0  0 
 15 20  1  0  0  0  0 
 18 21  1  0  0  0  0 
 19 22  1  0  0  0  0 
 20 23  2  0  0  0  0 
 21 24  2  0  0  0  0 
 21 25  2  0  0  0  0 
 21 26  1  0  0  0  0 
 22 27  2  0  0  0  0 
 23 27  1  0  0  0  0 
 27 28  1  0  0  0  0 
 28 29  2  0  0  0  0 
 28 30  2  0  0  0  0 
 28 31  1  0  0  0  0 
 32  5  1  0  0  0  0 
 33  9  1  0  0  0  0 
 34 10  1  0  0  0  0 
 35 13  1  0  0  0  0 
 36 14  1  0  0  0  0 
 37 16  1  0  0  0  0 
 38 19  1  0  0  0  0 
 39 20  1  0  0  0  0 
 40 22  1  0  0  0  0 
 41 23  1  0  0  0  0 
 42 26  1  0  0  0  0 
 43 31  1  0  0  0  0 
M  END
> <cdk:Title>
tartrazine

> <Conformer>
1

> <SuperDrugID>
SD002309

$$$$
