letrozole
  CDK     0628171801

 33 35  0  0  0  0  0  0  0  0999 V2000
    2.4149    3.3296   -0.0439 C   0  0  1  0  0  0  0  0  0  0  0  0
    1.3899    2.2294    0.0152 C   0  0  0  0  0  0  0  0  0  0  0  0
    3.6704    2.9654   -0.7853 C   0  0  0  0  0  0  0  0  0  0  0  0
    1.9398    4.5861   -0.5688 N   0  0  0  0  0  0  0  0  0  0  0  0
    1.7583    0.9711    0.5551 C   0  0  0  0  0  0  0  0  0  0  0  0
    0.0603    2.3770   -0.4561 C   0  0  0  0  0  0  0  0  0  0  0  0
    3.6476    2.1571   -1.9496 C   0  0  0  0  0  0  0  0  0  0  0  0
    4.9250    3.4553   -0.3459 C   0  0  0  0  0  0  0  0  0  0  0  0
    1.7215    5.7162    0.1317 C   0  0  0  0  0  0  0  0  0  0  0  0
    1.6435    4.8236   -1.8100 N   0  0  0  0  0  0  0  0  0  0  0  0
    0.8716   -0.1213    0.5414 C   0  0  0  0  0  0  0  0  0  0  0  0
   -0.8340    1.2908   -0.4731 C   0  0  0  0  0  0  0  0  0  0  0  0
    4.8319    1.8178   -2.6281 C   0  0  0  0  0  0  0  0  0  0  0  0
    6.1145    3.1287   -1.0247 C   0  0  0  0  0  0  0  0  0  0  0  0
    1.2682    6.6747   -0.6836 N   0  0  0  0  0  0  0  0  0  0  0  0
    1.2258    6.0952   -1.8889 C   0  0  0  0  0  0  0  0  0  0  0  0
   -0.4188    0.0251   -0.0099 C   0  0  0  0  0  0  0  0  0  0  0  0
    6.0742    2.3007   -2.1667 C   0  0  0  0  0  0  0  0  0  0  0  0
   -1.2140   -1.0057   -0.1090 C   0  0  0  0  0  0  0  0  0  0  0  0
    7.1730    1.9845   -2.7937 C   0  0  0  0  0  0  0  0  0  0  0  0
   -1.9028   -1.9192   -0.2148 N   0  0  0  0  0  0  0  0  0  0  0  0
    8.1387    1.7068   -3.3501 N   0  0  0  0  0  0  0  0  0  0  0  0
    2.6877    3.4866    1.0049 H   0  0  0  0  0  0  0  0  0  0  0  0
    2.6927    0.8336    0.9488 H   0  0  0  0  0  0  0  0  0  0  0  0
   -0.2760    3.2745   -0.8086 H   0  0  0  0  0  0  0  0  0  0  0  0
    2.7632    1.8013   -2.3173 H   0  0  0  0  0  0  0  0  0  0  0  0
    4.9833    4.0613    0.4761 H   0  0  0  0  0  0  0  0  0  0  0  0
    1.8724    5.8336    1.1353 H   0  0  0  0  0  0  0  0  0  0  0  0
    1.1846   -1.0205    0.9235 H   0  0  0  0  0  0  0  0  0  0  0  0
   -1.7816    1.4329   -0.8392 H   0  0  0  0  0  0  0  0  0  0  0  0
    4.7716    1.2188   -3.4585 H   0  0  0  0  0  0  0  0  0  0  0  0
    7.0033    3.5027   -0.6761 H   0  0  0  0  0  0  0  0  0  0  0  0
    0.9180    6.5561   -2.7448 H   0  0  0  0  0  0  0  0  0  0  0  0
  1  2  1  0  0  0  0 
  1  3  1  0  0  0  0 
  1  4  1  0  0  0  0 
  2  5  2  0  0  0  0 
  2  6  1  0  0  0  0 
  3  7  2  0  0  0  0 
  3  8  1  0  0  0  0 
  4  9  1  0  0  0  0 
  4 10  1  0  0  0  0 
  5 11  1  0  0  0  0 
  6 12  2  0  0  0  0 
  7 13  1  0  0  0  0 
  8 14  2  0  0  0  0 
  9 15  2  0  0  0  0 
 10 16  2  0  0  0  0 
 11 17  2  0  0  0  0 
 12 17  1  0  0  0  0 
 13 18  2  0  0  0  0 
 14 18  1  0  0  0  0 
 15 16  1  0  0  0  0 
 17 19  1  0  0  0  0 
 18 20  1  0  0  0  0 
 19 21  3  0  0  0  0 
 20 22  3  0  0  0  0 
  1 23  1  0  0  0  0 
  5 24  1  0  0  0  0 
  6 25  1  0  0  0  0 
  7 26  1  0  0  0  0 
  8 27  1  0  0  0  0 
  9 28  1  0  0  0  0 
 11 29  1  0  0  0  0 
 12 30  1  0  0  0  0 
 13 31  1  0  0  0  0 
 14 32  1  0  0  0  0 
 16 33  1  0  0  0  0 
M  END
> <cdk:Title>
letrozole

> <Conformer>
1

> <SuperDrugID>
SD001374

$$$$
