dapiprazole
  CDK     0628171802

 51 54  0  0  0  0  0  0  0  0999 V2000
    0.3202   -1.0860   -0.3277 C   0  0  1  0  0  0  0  0  0  0  0  0
   -0.5335   -0.2610    0.6743 C   0  0  1  0  0  0  0  0  0  0  0  0
    1.7265   -0.6301   -0.4085 C   0  0  0  0  0  0  0  0  0  0  0  0
   -0.2369   -0.6570    2.0883 N   0  0  1  0  0  0  0  0  0  0  0  0
    2.8240   -1.1498    0.1770 N   0  0  0  0  0  0  0  0  0  0  0  0
    2.1112    0.4341   -1.1376 N   0  0  0  0  0  0  0  0  0  0  0  0
   -0.1151    0.4635    3.0693 C   0  0  1  0  0  0  0  0  0  0  0  0
   -1.0772   -1.7765    2.6280 C   0  0  1  0  0  0  0  0  0  0  0  0
    3.8562   -0.3946   -0.2430 C   0  0  0  0  0  0  0  0  0  0  0  0
    2.9342   -2.2690    1.0726 C   0  0  1  0  0  0  0  0  0  0  0  0
    3.3930    0.5785   -1.0390 N   0  0  0  0  0  0  0  0  0  0  0  0
    0.4987   -0.0678    4.3905 C   0  0  1  0  0  0  0  0  0  0  0  0
   -0.4571   -2.3156    3.9403 C   0  0  2  0  0  0  0  0  0  0  0  0
    5.2662   -0.6008    0.1446 C   0  0  1  0  0  0  0  0  0  0  0  0
    4.2855   -2.2749    1.8421 C   0  0  1  0  0  0  0  0  0  0  0  0
   -0.2052   -1.2391    4.8700 N   0  0  0  0  0  0  0  0  0  0  0  0
    5.4665   -1.9506    0.8902 C   0  0  1  0  0  0  0  0  0  0  0  0
   -0.6284   -1.3083    6.1776 C   0  0  0  0  0  0  0  0  0  0  0  0
   -0.0467   -2.1961    7.1300 C   0  0  0  0  0  0  0  0  0  0  0  0
   -1.6650   -0.4381    6.5895 C   0  0  0  0  0  0  0  0  0  0  0  0
    1.0367   -3.1433    6.7567 C   0  0  0  0  0  0  0  0  0  0  0  0
   -0.4988   -2.1565    8.4729 C   0  0  0  0  0  0  0  0  0  0  0  0
   -2.0940   -0.4058    7.9269 C   0  0  0  0  0  0  0  0  0  0  0  0
   -1.5064   -1.2622    8.8718 C   0  0  0  0  0  0  0  0  0  0  0  0
    0.2832   -2.1455   -0.0681 H   0  0  0  0  0  0  0  0  0  0  0  0
   -0.1164   -0.9881   -1.3250 H   0  0  0  0  0  0  0  0  0  0  0  0
   -0.3345    0.8012    0.5008 H   0  0  0  0  0  0  0  0  0  0  0  0
   -1.5941   -0.4145    0.4502 H   0  0  0  0  0  0  0  0  0  0  0  0
    0.5437    1.2441    2.6795 H   0  0  0  0  0  0  0  0  0  0  0  0
   -1.0941    0.9137    3.2637 H   0  0  0  0  0  0  0  0  0  0  0  0
   -2.0954   -1.4288    2.8338 H   0  0  0  0  0  0  0  0  0  0  0  0
   -1.1431   -2.5987    1.9090 H   0  0  0  0  0  0  0  0  0  0  0  0
    2.1250   -2.2454    1.8060 H   0  0  0  0  0  0  0  0  0  0  0  0
    2.8413   -3.1905    0.4929 H   0  0  0  0  0  0  0  0  0  0  0  0
    1.5400   -0.3476    4.2090 H   0  0  0  0  0  0  0  0  0  0  0  0
    0.5072    0.7480    5.1218 H   0  0  0  0  0  0  0  0  0  0  0  0
    0.4922   -2.7993    3.7023 H   0  0  0  0  0  0  0  0  0  0  0  0
   -1.1221   -3.0761    4.3618 H   0  0  0  0  0  0  0  0  0  0  0  0
    5.8997   -0.5820   -0.7457 H   0  0  0  0  0  0  0  0  0  0  0  0
    5.5592    0.2290    0.7897 H   0  0  0  0  0  0  0  0  0  0  0  0
    4.2525   -1.5252    2.6372 H   0  0  0  0  0  0  0  0  0  0  0  0
    4.4420   -3.2508    2.3069 H   0  0  0  0  0  0  0  0  0  0  0  0
    5.5619   -2.7581    0.1584 H   0  0  0  0  0  0  0  0  0  0  0  0
    6.3949   -1.9172    1.4647 H   0  0  0  0  0  0  0  0  0  0  0  0
   -2.1123    0.1877    5.9138 H   0  0  0  0  0  0  0  0  0  0  0  0
    0.6598   -3.8817    6.0479 H   0  0  0  0  0  0  0  0  0  0  0  0
    1.4331   -3.6867    7.6184 H   0  0  0  0  0  0  0  0  0  0  0  0
    1.8598   -2.5959    6.2952 H   0  0  0  0  0  0  0  0  0  0  0  0
   -0.0940   -2.7760    9.1796 H   0  0  0  0  0  0  0  0  0  0  0  0
   -2.8312    0.2444    8.2143 H   0  0  0  0  0  0  0  0  0  0  0  0
   -1.8106   -1.2343    9.8489 H   0  0  0  0  0  0  0  0  0  0  0  0
  1  2  1  0  0  0  0 
  1  3  1  0  0  0  0 
  2  4  1  0  0  0  0 
  3  5  1  0  0  0  0 
  3  6  2  0  0  0  0 
  4  7  1  0  0  0  0 
  4  8  1  0  0  0  0 
  5  9  1  0  0  0  0 
  5 10  1  0  0  0  0 
  6 11  1  0  0  0  0 
  7 12  1  0  0  0  0 
  8 13  1  0  0  0  0 
  9 11  2  0  0  0  0 
  9 14  1  0  0  0  0 
 10 15  1  0  0  0  0 
 12 16  1  0  0  0  0 
 13 16  1  0  0  0  0 
 14 17  1  0  0  0  0 
 15 17  1  0  0  0  0 
 16 18  1  0  0  0  0 
 18 19  2  0  0  0  0 
 18 20  1  0  0  0  0 
 19 21  1  0  0  0  0 
 19 22  1  0  0  0  0 
 20 23  2  0  0  0  0 
 22 24  2  0  0  0  0 
 23 24  1  0  0  0  0 
  1 25  1  0  0  0  0 
  1 26  1  0  0  0  0 
  2 27  1  0  0  0  0 
  2 28  1  0  0  0  0 
  7 29  1  0  0  0  0 
  7 30  1  0  0  0  0 
  8 31  1  0  0  0  0 
  8 32  1  0  0  0  0 
 10 33  1  0  0  0  0 
 10 34  1  0  0  0  0 
 12 35  1  0  0  0  0 
 12 36  1  0  0  0  0 
 13 37  1  0  0  0  0 
 13 38  1  0  0  0  0 
 14 39  1  0  0  0  0 
 14 40  1  0  0  0  0 
 15 41  1  0  0  0  0 
 15 42  1  0  0  0  0 
 17 43  1  0  0  0  0 
 17 44  1  0  0  0  0 
 20 45  1  0  0  0  0 
 21 46  1  0  0  0  0 
 21 47  1  0  0  0  0 
 21 48  1  0  0  0  0 
 22 49  1  0  0  0  0 
 23 50  1  0  0  0  0 
 24 51  1  0  0  0  0 
M  END
> <cdk:Title>
dapiprazole

> <Conformer>
1

> <SuperDrugID>
SD000688

$$$$
