triamcinolone hexacetonide
  CDK     0628171802

 79 83  0  0  0  0  0  0  0  0999 V2000
   -3.0940   -5.3779   -1.1452 C   0  0  0  0  0  0  0  0  0  0  0  0
   -2.7422   -6.6027   -0.7230 C   0  0  0  0  0  0  0  0  0  0  0  0
   -1.5738   -7.1922   -1.1648 C   0  0  0  0  0  0  0  0  0  0  0  0
   -0.7423   -6.5358   -2.0564 C   0  0  0  0  0  0  0  0  0  0  0  0
   -1.0339   -5.2993   -2.5220 C   0  0  0  0  0  0  0  0  0  0  0  0
   -2.2792   -4.5751   -2.0934 C   0  0  1  0  0  0  0  0  0  0  0  0
   -0.1544   -4.6642   -3.5127 C   0  0  2  0  0  0  0  0  0  0  0  0
   -0.9380   -4.3262   -4.8062 C   0  0  2  0  0  0  0  0  0  0  0  0
   -2.2540   -3.5364   -4.5173 C   0  0  2  0  0  0  0  0  0  0  0  0
   -3.1285   -4.2684   -3.4155 C   0  0  2  0  0  0  0  0  0  0  0  0
   -4.5345   -3.5652   -3.2251 C   0  0  2  0  0  0  0  0  0  0  0  0
   -5.2763   -3.2554   -4.5706 C   0  0  2  0  0  0  0  0  0  0  0  0
   -4.3966   -2.4670   -5.6046 C   0  0  1  0  0  0  0  0  0  0  0  0
   -3.0954   -3.3087   -5.8178 C   0  0  1  0  0  0  0  0  0  0  0  0
   -4.9346   -2.3895   -7.0891 C   0  0  1  0  0  0  0  0  0  0  0  0
   -3.6453   -2.2502   -7.9479 C   0  0  1  0  0  0  0  0  0  0  0  0
   -2.4416   -2.6783   -7.0631 C   0  0  2  0  0  0  0  0  0  0  0  0
   -1.2703   -8.3383   -0.7581 O   0  0  0  0  0  0  0  0  0  0  0  0
   -1.8391   -3.3070   -1.2710 C   0  0  0  0  0  0  0  0  0  0  0  0
   -4.4574   -2.3791   -2.4399 O   0  0  0  0  0  0  0  0  0  0  0  0
   -3.4629   -5.5137   -3.9357 F   0  0  0  0  0  0  0  0  0  0  0  0
   -4.1520   -1.0040   -5.0752 C   0  0  0  0  0  0  0  0  0  0  0  0
   -5.4356   -3.6688   -7.5143 O   0  0  0  0  0  0  0  0  0  0  0  0
   -4.9408   -3.9365   -8.8359 C   0  0  2  0  0  0  0  0  0  0  0  0
   -3.8133   -3.0895   -9.0918 O   0  0  0  0  0  0  0  0  0  0  0  0
   -6.0403   -1.3992   -7.3221 C   0  0  0  0  0  0  0  0  0  0  0  0
   -6.0559   -3.6559   -9.8797 C   0  0  0  0  0  0  0  0  0  0  0  0
   -4.4782   -5.4138   -8.9032 C   0  0  0  0  0  0  0  0  0  0  0  0
   -7.1404   -1.6426   -6.7701 O   0  0  0  0  0  0  0  0  0  0  0  0
   -5.9594   -0.1809   -8.1711 C   0  0  1  0  0  0  0  0  0  0  0  0
   -5.3121    0.9113   -7.4932 O   0  0  0  0  0  0  0  0  0  0  0  0
   -4.3076    1.7254   -7.9491 C   0  0  0  0  0  0  0  0  0  0  0  0
   -3.8677    2.8744   -7.1170 C   0  0  2  0  0  0  0  0  0  0  0  0
   -3.8099    1.5368   -9.0829 O   0  0  0  0  0  0  0  0  0  0  0  0
   -2.3394    2.9944   -6.7427 C   0  0  2  0  0  0  0  0  0  0  0  0
   -1.4725    3.3480   -7.9954 C   0  0  0  0  0  0  0  0  0  0  0  0
   -1.7930    1.6730   -6.1172 C   0  0  0  0  0  0  0  0  0  0  0  0
   -2.1622    4.1448   -5.6922 C   0  0  0  0  0  0  0  0  0  0  0  0
   -3.9392   -4.9975   -0.7859 H   0  0  0  0  0  0  0  0  0  0  0  0
   -3.3279   -7.0877   -0.0819 H   0  0  0  0  0  0  0  0  0  0  0  0
    0.0817   -7.0031   -2.3595 H   0  0  0  0  0  0  0  0  0  0  0  0
    0.6953   -5.2967   -3.7915 H   0  0  0  0  0  0  0  0  0  0  0  0
    0.2662   -3.7487   -3.0929 H   0  0  0  0  0  0  0  0  0  0  0  0
   -1.1727   -5.2553   -5.3345 H   0  0  0  0  0  0  0  0  0  0  0  0
   -0.2860   -3.7346   -5.4543 H   0  0  0  0  0  0  0  0  0  0  0  0
   -1.9397   -2.5631   -4.1423 H   0  0  0  0  0  0  0  0  0  0  0  0
   -5.1907   -4.2324   -2.6598 H   0  0  0  0  0  0  0  0  0  0  0  0
   -6.1959   -2.7042   -4.3621 H   0  0  0  0  0  0  0  0  0  0  0  0
   -5.5849   -4.2097   -5.0035 H   0  0  0  0  0  0  0  0  0  0  0  0
   -3.3800   -4.3176   -6.1395 H   0  0  0  0  0  0  0  0  0  0  0  0
   -3.4648   -1.2323   -8.2929 H   0  0  0  0  0  0  0  0  0  0  0  0
   -1.7929   -3.3895   -7.5807 H   0  0  0  0  0  0  0  0  0  0  0  0
   -1.8445   -1.8095   -6.7759 H   0  0  0  0  0  0  0  0  0  0  0  0
   -2.6777   -2.8314   -0.7604 H   0  0  0  0  0  0  0  0  0  0  0  0
   -1.3739   -2.5488   -1.9000 H   0  0  0  0  0  0  0  0  0  0  0  0
   -1.1134   -3.5824   -0.4991 H   0  0  0  0  0  0  0  0  0  0  0  0
   -5.3794   -2.0515   -2.3781 H   0  0  0  0  0  0  0  0  0  0  0  0
   -3.6886   -0.3910   -5.8370 H   0  0  0  0  0  0  0  0  0  0  0  0
   -5.0964   -0.5281   -4.8077 H   0  0  0  0  0  0  0  0  0  0  0  0
   -3.5050   -0.9612   -4.2053 H   0  0  0  0  0  0  0  0  0  0  0  0
   -5.7093   -3.8892  -10.8881 H   0  0  0  0  0  0  0  0  0  0  0  0
   -6.9391   -4.2600   -9.6621 H   0  0  0  0  0  0  0  0  0  0  0  0
   -6.3500   -2.6068   -9.8585 H   0  0  0  0  0  0  0  0  0  0  0  0
   -4.1140   -5.6552   -9.9039 H   0  0  0  0  0  0  0  0  0  0  0  0
   -5.3051   -6.0840   -8.6591 H   0  0  0  0  0  0  0  0  0  0  0  0
   -3.6703   -5.5899   -8.1916 H   0  0  0  0  0  0  0  0  0  0  0  0
   -5.4888   -0.4094   -9.1293 H   0  0  0  0  0  0  0  0  0  0  0  0
   -6.9698    0.1604   -8.4023 H   0  0  0  0  0  0  0  0  0  0  0  0
   -4.4538    2.8438   -6.1949 H   0  0  0  0  0  0  0  0  0  0  0  0
   -4.1733    3.7828   -7.6454 H   0  0  0  0  0  0  0  0  0  0  0  0
   -0.4289    3.5065   -7.7159 H   0  0  0  0  0  0  0  0  0  0  0  0
   -1.4925    2.5447   -8.7324 H   0  0  0  0  0  0  0  0  0  0  0  0
   -1.8338    4.2598   -8.4735 H   0  0  0  0  0  0  0  0  0  0  0  0
   -2.3421    1.4269   -5.2070 H   0  0  0  0  0  0  0  0  0  0  0  0
   -0.7363    1.7666   -5.8540 H   0  0  0  0  0  0  0  0  0  0  0  0
   -1.8872    0.8467   -6.8245 H   0  0  0  0  0  0  0  0  0  0  0  0
   -2.7457    3.9477   -4.7909 H   0  0  0  0  0  0  0  0  0  0  0  0
   -2.4850    5.1048   -6.1010 H   0  0  0  0  0  0  0  0  0  0  0  0
   -1.1168    4.2429   -5.3920 H   0  0  0  0  0  0  0  0  0  0  0  0
  1  2  2  0  0  0  0 
  2  3  1  0  0  0  0 
  3  4  1  0  0  0  0 
  4  5  2  0  0  0  0 
  6  5  1  0  0  0  0 
  6  1  1  0  0  0  0 
  7  8  1  0  0  0  0 
  9  8  1  0  0  0  0 
 10  9  1  0  0  0  0 
  5  7  1  0  0  0  0 
 10  6  1  0  0  0  0 
 11 12  1  0  0  0  0 
 13 12  1  0  0  0  0 
 14 13  1  0  0  0  0 
  9 14  1  0  0  0  0 
 10 11  1  0  0  0  0 
 15 16  1  0  0  0  0 
 16 17  1  0  0  0  0 
 13 15  1  0  0  0  0 
 14 17  1  0  0  0  0 
  3 18  2  0  0  0  0 
  6 19  1  0  0  0  0 
 11 20  1  0  0  0  0 
 10 21  1  0  0  0  0 
 13 22  1  0  0  0  0 
 23 24  1  0  0  0  0 
 24 25  1  0  0  0  0 
 15 23  1  0  0  0  0 
 16 25  1  0  0  0  0 
 15 26  1  0  0  0  0 
 24 27  1  0  0  0  0 
 24 28  1  0  0  0  0 
 26 29  2  0  0  0  0 
 26 30  1  0  0  0  0 
 30 31  1  0  0  0  0 
 31 32  1  0  0  0  0 
 32 33  1  0  0  0  0 
 32 34  2  0  0  0  0 
 33 35  1  0  0  0  0 
 35 36  1  0  0  0  0 
 35 37  1  0  0  0  0 
 35 38  1  0  0  0  0 
 39  1  1  0  0  0  0 
 40  2  1  0  0  0  0 
 41  4  1  0  0  0  0 
 42  7  1  0  0  0  0 
 43  7  1  0  0  0  0 
 44  8  1  0  0  0  0 
 45  8  1  0  0  0  0 
  9 46  1  0  0  0  0 
 11 47  1  0  0  0  0 
 48 12  1  0  0  0  0 
 49 12  1  0  0  0  0 
 14 50  1  0  0  0  0 
 16 51  1  0  0  0  0 
 52 17  1  0  0  0  0 
 53 17  1  0  0  0  0 
 54 19  1  0  0  0  0 
 55 19  1  0  0  0  0 
 56 19  1  0  0  0  0 
 57 20  1  0  0  0  0 
 58 22  1  0  0  0  0 
 59 22  1  0  0  0  0 
 60 22  1  0  0  0  0 
 61 27  1  0  0  0  0 
 62 27  1  0  0  0  0 
 63 27  1  0  0  0  0 
 64 28  1  0  0  0  0 
 65 28  1  0  0  0  0 
 66 28  1  0  0  0  0 
 67 30  1  0  0  0  0 
 68 30  1  0  0  0  0 
 69 33  1  0  0  0  0 
 70 33  1  0  0  0  0 
 71 36  1  0  0  0  0 
 72 36  1  0  0  0  0 
 73 36  1  0  0  0  0 
 74 37  1  0  0  0  0 
 75 37  1  0  0  0  0 
 76 37  1  0  0  0  0 
 77 38  1  0  0  0  0 
 78 38  1  0  0  0  0 
 79 38  1  0  0  0  0 
M  END
> <cdk:Title>
triamcinolone hexacetonide

> <Conformer>
1

> <SuperDrugID>
SD003866

$$$$
