dextrothyroxine
  CDK     0628171802

 35 36  0  0  0  0  0  0  0  0999 V2000
   -2.2622    5.9702   -0.4007 O   0  0  0  0  0  0  0  0  0  0  0  0
   -0.9187    5.6732   -0.4995 C   0  0  0  0  0  0  0  0  0  0  0  0
   -2.7941    5.7793    0.8533 C   0  0  0  0  0  0  0  0  0  0  0  0
   -0.0055    6.7186   -0.7511 C   0  0  0  0  0  0  0  0  0  0  0  0
   -0.4182    4.3531   -0.4170 C   0  0  0  0  0  0  0  0  0  0  0  0
   -3.5426    4.6103    1.1246 C   0  0  0  0  0  0  0  0  0  0  0  0
   -2.6659    6.7529    1.8738 C   0  0  0  0  0  0  0  0  0  0  0  0
    1.3776    6.4713   -0.8426 C   0  0  0  0  0  0  0  0  0  0  0  0
    0.9590    4.0927   -0.5334 C   0  0  0  0  0  0  0  0  0  0  0  0
   -3.9747    3.2401   -0.3461 I   0  0  0  0  0  0  0  0  0  0  0  0
   -4.0423    4.3671    2.4179 C   0  0  0  0  0  0  0  0  0  0  0  0
   -1.7779    8.5803    1.5669 I   0  0  0  0  0  0  0  0  0  0  0  0
   -3.1814    6.5069    3.1595 C   0  0  0  0  0  0  0  0  0  0  0  0
    2.6515    8.0538   -1.1529 I   0  0  0  0  0  0  0  0  0  0  0  0
    1.8651    5.1530   -0.7271 C   0  0  0  0  0  0  0  0  0  0  0  0
    1.6163    2.1494   -0.4156 I   0  0  0  0  0  0  0  0  0  0  0  0
   -3.8562    5.3026    3.4591 C   0  0  0  0  0  0  0  0  0  0  0  0
    3.1915    4.8839   -0.8123 O   0  0  0  0  0  0  0  0  0  0  0  0
   -4.3580    5.0235    4.8379 C   0  0  1  0  0  0  0  0  0  0  0  0
   -5.9036    4.8922    4.9434 C   0  0  2  0  0  0  0  0  0  0  0  0
   -6.6137    6.1101    4.4953 C   0  0  0  0  0  0  0  0  0  0  0  0
   -6.2965    4.6056    6.3315 N   0  0  2  0  0  0  0  0  0  0  0  0
   -6.4853    7.2776    5.1705 O   0  0  0  0  0  0  0  0  0  0  0  0
   -7.3401    6.0878    3.4759 O   0  0  0  0  0  0  0  0  0  0  0  0
   -0.3481    7.6726   -0.8700 H   0  0  0  0  0  0  0  0  0  0  0  0
   -1.0517    3.5692   -0.2742 H   0  0  0  0  0  0  0  0  0  0  0  0
   -4.5477    3.4965    2.5973 H   0  0  0  0  0  0  0  0  0  0  0  0
   -3.0589    7.2202    3.8814 H   0  0  0  0  0  0  0  0  0  0  0  0
    3.6467    5.6836   -0.4755 H   0  0  0  0  0  0  0  0  0  0  0  0
   -3.8967    4.0946    5.1859 H   0  0  0  0  0  0  0  0  0  0  0  0
   -4.0355    5.8060    5.5302 H   0  0  0  0  0  0  0  0  0  0  0  0
   -6.2237    4.0371    4.3428 H   0  0  0  0  0  0  0  0  0  0  0  0
   -5.9020    5.3425    6.9209 H   0  0  0  0  0  0  0  0  0  0  0  0
   -5.8348    3.7352    6.6009 H   0  0  0  0  0  0  0  0  0  0  0  0
   -6.9536    8.0865    4.8710 H   0  0  0  0  0  0  0  0  0  0  0  0
  1  2  1  0  0  0  0 
  1  3  1  0  0  0  0 
  2  4  2  0  0  0  0 
  2  5  1  0  0  0  0 
  3  6  2  0  0  0  0 
  3  7  1  0  0  0  0 
  4  8  1  0  0  0  0 
  5  9  2  0  0  0  0 
  6 10  1  0  0  0  0 
  6 11  1  0  0  0  0 
  7 12  1  0  0  0  0 
  7 13  2  0  0  0  0 
  8 14  1  0  0  0  0 
  8 15  2  0  0  0  0 
  9 15  1  0  0  0  0 
  9 16  1  0  0  0  0 
 11 17  2  0  0  0  0 
 13 17  1  0  0  0  0 
 15 18  1  0  0  0  0 
 17 19  1  0  0  0  0 
 20 19  1  0  0  0  0 
 20 21  1  0  0  0  0 
 20 22  1  0  0  0  0 
 21 23  1  0  0  0  0 
 21 24  2  0  0  0  0 
  4 25  1  0  0  0  0 
  5 26  1  0  0  0  0 
 11 27  1  0  0  0  0 
 13 28  1  0  0  0  0 
 18 29  1  0  0  0  0 
 19 30  1  0  0  0  0 
 19 31  1  0  0  0  0 
 20 32  1  0  0  0  0 
 22 33  1  0  0  0  0 
 22 34  1  0  0  0  0 
 23 35  1  0  0  0  0 
M  END
> <cdk:Title>
dextrothyroxine

> <Conformer>
1

> <SuperDrugID>
SD000750

$$$$
