apalcillin
  CDK     0628171801

 60 64  0  0  0  0  0  0  0  0999 V2000
    2.7901   -1.7921   -1.7497 N   0  0  0  0  0  0  0  0  0  0  0  0
    2.9932   -0.6217   -1.0910 C   0  0  0  0  0  0  0  0  0  0  0  0
    3.8027   -2.5319   -2.4314 C   0  0  1  0  0  0  0  0  0  0  0  0
    1.8694    0.3208   -0.8596 C   0  0  2  0  0  0  0  0  0  0  0  0
    4.1547   -0.2515   -0.7953 O   0  0  0  0  0  0  0  0  0  0  0  0
    3.2935   -3.8068   -3.1756 C   0  0  2  0  0  0  0  0  0  0  0  0
    3.9839   -1.9884   -3.7804 C   0  0  0  0  0  0  0  0  0  0  0  0
    0.5796   -0.3138   -0.8546 N   0  0  0  0  0  0  0  0  0  0  0  0
    1.9332    1.3324   -1.9601 C   0  0  0  0  0  0  0  0  0  0  0  0
    3.4398   -3.0550   -4.3575 N   0  0  0  0  0  0  0  0  0  0  0  0
    1.5308   -4.2050   -3.3741 S   0  0  0  0  0  0  0  0  0  0  0  0
    4.3308   -0.8651   -4.2110 O   0  0  0  0  0  0  0  0  0  0  0  0
   -0.6059    0.2820   -0.5269 C   0  0  0  0  0  0  0  0  0  0  0  0
    1.6071    0.9632   -3.2912 C   0  0  0  0  0  0  0  0  0  0  0  0
    2.3444    2.6647   -1.7127 C   0  0  0  0  0  0  0  0  0  0  0  0
    2.7882   -3.2982   -5.6003 C   0  0  2  0  0  0  0  0  0  0  0  0
    1.4360   -4.0197   -5.2028 C   0  0  1  0  0  0  0  0  0  0  0  0
   -0.5905    1.4591   -0.0932 O   0  0  0  0  0  0  0  0  0  0  0  0
   -1.8451   -0.4077   -0.6841 C   0  0  0  0  0  0  0  0  0  0  0  0
    1.7136    1.8905   -4.3425 C   0  0  0  0  0  0  0  0  0  0  0  0
    2.4408    3.5952   -2.7643 C   0  0  0  0  0  0  0  0  0  0  0  0
    3.6895   -3.9944   -6.5466 C   0  0  0  0  0  0  0  0  0  0  0  0
    1.2213   -5.4412   -5.8099 C   0  0  0  0  0  0  0  0  0  0  0  0
    0.2058   -3.1166   -5.5143 C   0  0  0  0  0  0  0  0  0  0  0  0
   -3.0858    0.2756   -0.8270 C   0  0  0  0  0  0  0  0  0  0  0  0
   -1.8848   -1.8250   -0.7114 C   0  0  0  0  0  0  0  0  0  0  0  0
    2.1256    3.2071   -4.0781 C   0  0  0  0  0  0  0  0  0  0  0  0
    3.8669   -3.4981   -7.7942 O   0  0  0  0  0  0  0  0  0  0  0  0
    4.2980   -5.0419   -6.2299 O   0  0  0  0  0  0  0  0  0  0  0  0
   -3.1659    1.6320   -0.8598 O   0  0  0  0  0  0  0  0  0  0  0  0
   -4.2903   -0.4445   -0.9633 C   0  0  0  0  0  0  0  0  0  0  0  0
   -3.0567   -2.4937   -0.8391 N   0  0  0  0  0  0  0  0  0  0  0  0
   -4.2482   -1.8602   -0.9549 C   0  0  0  0  0  0  0  0  0  0  0  0
   -5.4893    0.1847   -1.0999 N   0  0  0  0  0  0  0  0  0  0  0  0
   -5.4515   -2.5815   -1.0643 C   0  0  0  0  0  0  0  0  0  0  0  0
   -6.6636   -0.4861   -1.2160 C   0  0  0  0  0  0  0  0  0  0  0  0
   -6.6712   -1.8923   -1.1887 C   0  0  0  0  0  0  0  0  0  0  0  0
    1.8750   -2.0860   -1.8655 H   0  0  0  0  0  0  0  0  0  0  0  0
    4.7387   -2.6829   -1.8880 H   0  0  0  0  0  0  0  0  0  0  0  0
    2.0240    0.7806    0.1227 H   0  0  0  0  0  0  0  0  0  0  0  0
    3.9594   -4.6745   -3.1608 H   0  0  0  0  0  0  0  0  0  0  0  0
    0.5394   -1.2282   -1.1692 H   0  0  0  0  0  0  0  0  0  0  0  0
    1.2948    0.0106   -3.5017 H   0  0  0  0  0  0  0  0  0  0  0  0
    2.5853    2.9640   -0.7658 H   0  0  0  0  0  0  0  0  0  0  0  0
    2.5681   -2.3219   -6.0448 H   0  0  0  0  0  0  0  0  0  0  0  0
    1.4963    1.6103   -5.3010 H   0  0  0  0  0  0  0  0  0  0  0  0
    2.7479    4.5517   -2.5745 H   0  0  0  0  0  0  0  0  0  0  0  0
    2.0236   -6.1205   -5.5178 H   0  0  0  0  0  0  0  0  0  0  0  0
    1.1918   -5.3885   -6.8999 H   0  0  0  0  0  0  0  0  0  0  0  0
    0.2817   -5.8765   -5.4647 H   0  0  0  0  0  0  0  0  0  0  0  0
    0.3033   -2.1491   -5.0148 H   0  0  0  0  0  0  0  0  0  0  0  0
    0.1350   -2.9406   -6.5900 H   0  0  0  0  0  0  0  0  0  0  0  0
   -0.7223   -3.5825   -5.1768 H   0  0  0  0  0  0  0  0  0  0  0  0
   -1.0333   -2.3822   -0.6292 H   0  0  0  0  0  0  0  0  0  0  0  0
    2.1956    3.8811   -4.8436 H   0  0  0  0  0  0  0  0  0  0  0  0
    4.4471   -3.9577   -8.4356 H   0  0  0  0  0  0  0  0  0  0  0  0
   -2.8247    1.9318    0.0066 H   0  0  0  0  0  0  0  0  0  0  0  0
   -5.4429   -3.6035   -1.0548 H   0  0  0  0  0  0  0  0  0  0  0  0
   -7.5351    0.0350   -1.3196 H   0  0  0  0  0  0  0  0  0  0  0  0
   -7.5502   -2.4078   -1.2592 H   0  0  0  0  0  0  0  0  0  0  0  0
  1  2  1  0  0  0  0 
  4  2  1  0  0  0  0 
  2  5  2  0  0  0  0 
  3  1  1  0  0  0  0 
  3  6  1  0  0  0  0 
  3  7  1  0  0  0  0 
  4  8  1  0  0  0  0 
  4  9  1  0  0  0  0 
  6 10  1  0  0  0  0 
  6 11  1  0  0  0  0 
  7 10  1  0  0  0  0 
  7 12  2  0  0  0  0 
  8 13  1  0  0  0  0 
  9 14  2  0  0  0  0 
  9 15  1  0  0  0  0 
 16 10  1  0  0  0  0 
 11 17  1  0  0  0  0 
 13 18  2  0  0  0  0 
 13 19  1  0  0  0  0 
 14 20  1  0  0  0  0 
 15 21  2  0  0  0  0 
 16 17  1  0  0  0  0 
 16 22  1  0  0  0  0 
 17 23  1  0  0  0  0 
 17 24  1  0  0  0  0 
 19 25  1  0  0  0  0 
 19 26  2  0  0  0  0 
 20 27  2  0  0  0  0 
 21 27  1  0  0  0  0 
 22 28  1  0  0  0  0 
 22 29  2  0  0  0  0 
 25 30  1  0  0  0  0 
 25 31  2  0  0  0  0 
 26 32  1  0  0  0  0 
 31 33  1  0  0  0  0 
 31 34  1  0  0  0  0 
 32 33  2  0  0  0  0 
 33 35  1  0  0  0  0 
 34 36  2  0  0  0  0 
 35 37  2  0  0  0  0 
 36 37  1  0  0  0  0 
 38  1  1  0  0  0  0 
  3 39  1  0  0  0  0 
  4 40  1  0  0  0  0 
  6 41  1  0  0  0  0 
 42  8  1  0  0  0  0 
 43 14  1  0  0  0  0 
 44 15  1  0  0  0  0 
 16 45  1  0  0  0  0 
 46 20  1  0  0  0  0 
 47 21  1  0  0  0  0 
 48 23  1  0  0  0  0 
 49 23  1  0  0  0  0 
 50 23  1  0  0  0  0 
 51 24  1  0  0  0  0 
 52 24  1  0  0  0  0 
 53 24  1  0  0  0  0 
 54 26  1  0  0  0  0 
 55 27  1  0  0  0  0 
 56 28  1  0  0  0  0 
 57 30  1  0  0  0  0 
 58 35  1  0  0  0  0 
 59 36  1  0  0  0  0 
 60 37  1  0  0  0  0 
M  END
> <cdk:Title>
apalcillin

> <Conformer>
1

> <SuperDrugID>
SD000189

$$$$
