netilmicin
  CDK     0628171801

 74 76  0  0  0  0  0  0  0  0999 V2000
    1.1390   -0.9270   -1.6047 O   0  0  0  0  0  0  0  0  0  0  0  0
    1.0421   -2.1507   -0.8419 C   0  0  1  0  0  0  0  0  0  0  0  0
    2.2133   -0.6743   -2.5439 C   0  0  2  0  0  0  0  0  0  0  0  0
   -0.0110   -1.8830    0.2760 C   0  0  2  0  0  0  0  0  0  0  0  0
    0.6126   -3.4004   -1.6757 C   0  0  1  0  0  0  0  0  0  0  0  0
    3.6878   -0.9965   -2.1427 C   0  0  2  0  0  0  0  0  0  0  0  0
    2.1434    0.7332   -2.8611 O   0  0  0  0  0  0  0  0  0  0  0  0
    0.3828   -0.6565    1.0202 N   0  0  1  0  0  0  0  0  0  0  0  0
   -0.1224   -3.1083    1.2310 C   0  0  2  0  0  0  0  0  0  0  0  0
    1.5653   -3.6819   -2.6979 O   0  0  0  0  0  0  0  0  0  0  0  0
    0.4615   -4.6611   -0.7658 C   0  0  1  0  0  0  0  0  0  0  0  0
    3.8776   -2.3948   -1.9514 O   0  0  0  0  0  0  0  0  0  0  0  0
    4.1378   -0.1451   -0.9166 C   0  0  1  0  0  0  0  0  0  0  0  0
    2.4601    1.6182   -1.7609 C   0  0  2  0  0  0  0  0  0  0  0  0
   -0.7131    0.1532    1.5924 C   0  0  2  0  0  0  0  0  0  0  0  0
   -0.4732   -4.4144    0.4635 C   0  0  1  0  0  0  0  0  0  0  0  0
    0.1418   -5.8833   -1.4790 O   0  0  0  0  0  0  0  0  0  0  0  0
    5.5761   -0.3388   -0.5741 N   0  0  1  0  0  0  0  0  0  0  0  0
    3.8986    1.3807   -1.2034 C   0  0  1  0  0  0  0  0  0  0  0  0
   -0.1558    1.5072    2.0712 C   0  0  0  0  0  0  0  0  0  0  0  0
   -0.4038   -5.5638    1.3786 N   0  0  2  0  0  0  0  0  0  0  0  0
   -1.0614   -5.9635   -2.2774 C   0  0  1  0  0  0  0  0  0  0  0  0
    5.9902   -1.5526    0.1604 C   0  0  0  0  0  0  0  0  0  0  0  0
    4.1389    2.2489    0.0662 C   0  0  0  0  0  0  0  0  0  0  0  0
    4.8179    1.8289   -2.2060 O   0  0  0  0  0  0  0  0  0  0  0  0
   -0.8006   -5.4898   -3.6219 O   0  0  0  0  0  0  0  0  0  0  0  0
   -1.5354   -7.4418   -2.3375 C   0  0  2  0  0  0  0  0  0  0  0  0
   -1.7552   -5.7033   -4.5654 C   0  0  0  0  0  0  0  0  0  0  0  0
   -0.4634   -8.3234   -2.8312 N   0  0  1  0  0  0  0  0  0  0  0  0
   -2.7831   -7.5177   -3.2630 C   0  0  2  0  0  0  0  0  0  0  0  0
   -1.6893   -4.8462   -5.7371 C   0  0  2  0  0  0  0  0  0  0  0  0
   -2.6954   -6.6652   -4.4380 C   0  0  0  0  0  0  0  0  0  0  0  0
   -0.3638   -4.9370   -6.3566 N   0  0  2  0  0  0  0  0  0  0  0  0
    1.9811   -1.2106   -3.4669 H   0  0  0  0  0  0  0  0  0  0  0  0
   -1.8672   -5.3649   -1.8421 H   0  0  0  0  0  0  0  0  0  0  0  0
    1.9930   -2.3478   -0.3425 H   0  0  0  0  0  0  0  0  0  0  0  0
   -0.9820   -1.7266   -0.2106 H   0  0  0  0  0  0  0  0  0  0  0  0
   -0.3385   -3.1768   -2.1649 H   0  0  0  0  0  0  0  0  0  0  0  0
    4.3220   -0.7270   -2.9920 H   0  0  0  0  0  0  0  0  0  0  0  0
    0.9997   -0.9405    1.7845 H   0  0  0  0  0  0  0  0  0  0  0  0
   -0.9033   -2.9138    1.9728 H   0  0  0  0  0  0  0  0  0  0  0  0
    0.8214   -3.2405    1.7704 H   0  0  0  0  0  0  0  0  0  0  0  0
    1.2162   -4.4667   -3.1664 H   0  0  0  0  0  0  0  0  0  0  0  0
    1.4593   -4.8570   -0.3616 H   0  0  0  0  0  0  0  0  0  0  0  0
    4.8449   -2.5313   -1.9935 H   0  0  0  0  0  0  0  0  0  0  0  0
    3.5245   -0.4291   -0.0548 H   0  0  0  0  0  0  0  0  0  0  0  0
    1.7178    1.5068   -0.9650 H   0  0  0  0  0  0  0  0  0  0  0  0
    2.3766    2.6422   -2.1345 H   0  0  0  0  0  0  0  0  0  0  0  0
   -1.1678   -0.3773    2.4299 H   0  0  0  0  0  0  0  0  0  0  0  0
   -1.4843    0.3454    0.8430 H   0  0  0  0  0  0  0  0  0  0  0  0
   -1.5084   -4.3220    0.1324 H   0  0  0  0  0  0  0  0  0  0  0  0
    6.1343   -0.2641   -1.4290 H   0  0  0  0  0  0  0  0  0  0  0  0
   -0.9579    2.1013    2.5120 H   0  0  0  0  0  0  0  0  0  0  0  0
    0.2672    2.0621    1.2301 H   0  0  0  0  0  0  0  0  0  0  0  0
    0.6235    1.3554    2.8206 H   0  0  0  0  0  0  0  0  0  0  0  0
   -0.8011   -6.3632    0.8814 H   0  0  0  0  0  0  0  0  0  0  0  0
   -1.0224   -5.3685    2.1679 H   0  0  0  0  0  0  0  0  0  0  0  0
    6.9329   -1.3371    0.6634 H   0  0  0  0  0  0  0  0  0  0  0  0
    6.1553   -2.3820   -0.5256 H   0  0  0  0  0  0  0  0  0  0  0  0
    5.2540   -1.8400    0.9126 H   0  0  0  0  0  0  0  0  0  0  0  0
    3.4728    1.9379    0.8735 H   0  0  0  0  0  0  0  0  0  0  0  0
    3.9489    3.3027   -0.1464 H   0  0  0  0  0  0  0  0  0  0  0  0
    5.1720    2.1523    0.4093 H   0  0  0  0  0  0  0  0  0  0  0  0
    5.7092    1.7197   -1.8108 H   0  0  0  0  0  0  0  0  0  0  0  0
   -1.8021   -7.7821   -1.3329 H   0  0  0  0  0  0  0  0  0  0  0  0
    0.3027   -8.2608   -2.1581 H   0  0  0  0  0  0  0  0  0  0  0  0
   -0.8165   -9.2819   -2.7762 H   0  0  0  0  0  0  0  0  0  0  0  0
   -3.6618   -7.1993   -2.6934 H   0  0  0  0  0  0  0  0  0  0  0  0
   -2.9485   -8.5536   -3.5747 H   0  0  0  0  0  0  0  0  0  0  0  0
   -1.8533   -3.8121   -5.4317 H   0  0  0  0  0  0  0  0  0  0  0  0
   -2.4425   -5.1063   -6.4876 H   0  0  0  0  0  0  0  0  0  0  0  0
   -3.3737   -6.8030   -5.1519 H   0  0  0  0  0  0  0  0  0  0  0  0
   -0.3791   -4.3476   -7.1906 H   0  0  0  0  0  0  0  0  0  0  0  0
   -0.2507   -5.9020   -6.6726 H   0  0  0  0  0  0  0  0  0  0  0  0
  3  1  1  0  0  0  0 
  2  1  1  0  0  0  0 
  2  4  1  0  0  0  0 
  5  2  1  0  0  0  0 
  6  3  1  0  0  0  0 
  3  7  1  0  0  0  0 
  3 34  1  0  0  0  0 
  4  8  1  0  0  0  0 
  4  9  1  0  0  0  0 
  5 10  1  0  0  0  0 
 11  5  1  0  0  0  0 
  6 12  1  0  0  0  0 
 13  6  1  0  0  0  0 
  7 14  1  0  0  0  0 
  8 15  1  0  0  0  0 
 16  9  1  0  0  0  0 
 11 16  1  0  0  0  0 
 11 17  1  0  0  0  0 
 13 18  1  0  0  0  0 
 13 19  1  0  0  0  0 
 19 14  1  0  0  0  0 
 15 20  1  0  0  0  0 
 16 21  1  0  0  0  0 
 22 17  1  0  0  0  0 
 18 23  1  0  0  0  0 
 19 24  1  0  0  0  0 
 19 25  1  0  0  0  0 
 22 26  1  0  0  0  0 
 27 22  1  0  0  0  0 
 22 35  1  0  0  0  0 
 26 28  1  0  0  0  0 
 27 29  1  0  0  0  0 
 27 30  1  0  0  0  0 
 28 31  1  0  0  0  0 
 28 32  2  0  0  0  0 
 30 32  1  0  0  0  0 
 31 33  1  0  0  0  0 
  2 36  1  0  0  0  0 
  4 37  1  0  0  0  0 
  5 38  1  0  0  0  0 
  6 39  1  0  0  0  0 
  8 40  1  0  0  0  0 
  9 41  1  0  0  0  0 
  9 42  1  0  0  0  0 
 10 43  1  0  0  0  0 
 11 44  1  0  0  0  0 
 12 45  1  0  0  0  0 
 13 46  1  0  0  0  0 
 14 47  1  0  0  0  0 
 14 48  1  0  0  0  0 
 15 49  1  0  0  0  0 
 15 50  1  0  0  0  0 
 16 51  1  0  0  0  0 
 18 52  1  0  0  0  0 
 20 53  1  0  0  0  0 
 20 54  1  0  0  0  0 
 20 55  1  0  0  0  0 
 21 56  1  0  0  0  0 
 21 57  1  0  0  0  0 
 23 58  1  0  0  0  0 
 23 59  1  0  0  0  0 
 23 60  1  0  0  0  0 
 24 61  1  0  0  0  0 
 24 62  1  0  0  0  0 
 24 63  1  0  0  0  0 
 25 64  1  0  0  0  0 
 27 65  1  0  0  0  0 
 29 66  1  0  0  0  0 
 29 67  1  0  0  0  0 
 30 68  1  0  0  0  0 
 30 69  1  0  0  0  0 
 31 70  1  0  0  0  0 
 31 71  1  0  0  0  0 
 32 72  1  0  0  0  0 
 33 73  1  0  0  0  0 
 33 74  1  0  0  0  0 
M  END
> <cdk:Title>
netilmicin

> <Conformer>
1

> <SuperDrugID>
SD001698

$$$$
