ciclosporin
  CDK     0628171802

196196  0  0  0  0  0  0  0  0999 V2000
   -0.1085   -4.5446    2.5403 C   0  0  1  0  0  0  0  0  0  0  0  0
   -0.4480   -4.6523    1.0049 C   0  0  1  0  0  0  0  0  0  0  0  0
   -1.2827   -4.0514    3.1905 O   0  0  0  0  0  0  0  0  0  0  0  0
    0.3528   -5.8642    3.2698 C   0  0  2  0  0  0  0  0  0  0  0  0
   -1.0526   -3.3331    0.4063 C   0  0  2  0  0  0  0  0  0  0  0  0
    0.7327   -5.1690    0.1317 C   0  0  0  0  0  0  0  0  0  0  0  0
   -0.1161   -5.9224    4.6601 N   0  0  0  0  0  0  0  0  0  0  0  0
    1.7984   -6.2407    3.1197 C   0  0  0  0  0  0  0  0  0  0  0  0
   -0.1927   -2.1598    0.5194 C   0  0  0  0  0  0  0  0  0  0  0  0
   -1.3520   -6.6308    4.9247 C   0  0  0  0  0  0  0  0  0  0  0  0
    0.6281   -5.4743    5.7353 C   0  0  0  0  0  0  0  0  0  0  0  0
    2.6199   -5.4142    2.6679 O   0  0  0  0  0  0  0  0  0  0  0  0
    2.1901   -7.5109    3.4479 N   0  0  0  0  0  0  0  0  0  0  0  0
   -0.4677   -1.1112    1.3143 C   0  0  0  0  0  0  0  0  0  0  0  0
    1.3297   -6.3619    6.2740 O   0  0  0  0  0  0  0  0  0  0  0  0
    0.5626   -4.1367    6.4321 C   0  0  2  0  0  0  0  0  0  0  0  0
    3.4612   -8.1889    3.3002 C   0  0  1  0  0  0  0  0  0  0  0  0
    0.3601    0.0721    1.4153 C   0  0  0  0  0  0  0  0  0  0  0  0
   -0.7885   -3.9698    7.2471 C   0  0  1  0  0  0  0  0  0  0  0  0
    1.0746   -3.0342    5.5933 N   0  0  0  0  0  0  0  0  0  0  0  0
    3.1398   -9.5292    2.5559 C   0  0  2  0  0  0  0  0  0  0  0  0
    4.6003   -7.4465    2.6595 C   0  0  0  0  0  0  0  0  0  0  0  0
   -0.9520   -5.0729    8.3502 C   0  0  0  0  0  0  0  0  0  0  0  0
   -0.9870   -2.6109    7.9973 C   0  0  0  0  0  0  0  0  0  0  0  0
    0.2018   -2.0335    5.0237 C   0  0  0  0  0  0  0  0  0  0  0  0
    2.4577   -2.9176    5.3762 C   0  0  0  0  0  0  0  0  0  0  0  0
    4.3251  -10.5156    2.4157 C   0  0  0  0  0  0  0  0  0  0  0  0
    4.4782   -7.3107    1.4152 O   0  0  0  0  0  0  0  0  0  0  0  0
    5.7821   -6.9723    3.2534 N   0  0  0  0  0  0  0  0  0  0  0  0
    3.1754   -3.9304    5.5494 O   0  0  0  0  0  0  0  0  0  0  0  0
    3.2005   -1.6391    5.0719 C   0  0  2  0  0  0  0  0  0  0  0  0
    6.9607   -6.9163    2.4046 C   0  0  0  0  0  0  0  0  0  0  0  0
    5.8930   -6.3090    4.5565 C   0  0  2  0  0  0  0  0  0  0  0  0
    4.5435   -1.7767    4.2680 C   0  0  1  0  0  0  0  0  0  0  0  0
    3.4374   -0.8510    6.2930 N   0  0  0  0  0  0  0  0  0  0  0  0
    5.1525   -6.8202    5.7352 C   0  0  0  0  0  0  0  0  0  0  0  0
    4.5191   -2.6020    2.9413 C   0  0  2  0  0  0  0  0  0  0  0  0
    3.2571    0.5805    6.1966 C   0  0  0  0  0  0  0  0  0  0  0  0
    3.9019   -1.4551    7.4675 C   0  0  0  0  0  0  0  0  0  0  0  0
    3.9397   -6.5119    5.6919 O   0  0  0  0  0  0  0  0  0  0  0  0
    5.6338   -7.4936    6.8652 N   0  0  0  0  0  0  0  0  0  0  0  0
    5.9387   -2.6746    2.3114 C   0  0  0  0  0  0  0  0  0  0  0  0
    3.4847   -2.0774    1.9093 C   0  0  0  0  0  0  0  0  0  0  0  0
    4.6016   -2.4900    7.3345 O   0  0  0  0  0  0  0  0  0  0  0  0
    3.6771   -1.0680    8.9080 C   0  0  2  0  0  0  0  0  0  0  0  0
    4.6550   -7.7832    7.9096 C   0  0  0  0  0  0  0  0  0  0  0  0
    7.0373   -7.8525    7.1171 C   0  0  1  0  0  0  0  0  0  0  0  0
    3.0230   -2.2735    9.6836 C   0  0  1  0  0  0  0  0  0  0  0  0
    2.9765    0.2000    9.1622 N   0  0  0  0  0  0  0  0  0  0  0  0
    7.7850   -8.6657    6.0031 C   0  0  1  0  0  0  0  0  0  0  0  0
    7.8285   -6.7510    7.7513 C   0  0  0  0  0  0  0  0  0  0  0  0
    2.8700   -2.0974   11.2329 C   0  0  2  0  0  0  0  0  0  0  0  0
    1.5399    0.2498    8.9248 C   0  0  0  0  0  0  0  0  0  0  0  0
    3.6065    1.3323    9.7098 C   0  0  0  0  0  0  0  0  0  0  0  0
    6.9998   -9.8760    5.3946 C   0  0  2  0  0  0  0  0  0  0  0  0
    9.0047   -7.0094    8.0940 O   0  0  0  0  0  0  0  0  0  0  0  0
    7.2413   -5.5634    8.0999 N   0  0  0  0  0  0  0  0  0  0  0  0
    4.2012   -2.3779   11.9886 C   0  0  0  0  0  0  0  0  0  0  0  0
    1.7327   -3.0035   11.7811 C   0  0  0  0  0  0  0  0  0  0  0  0
    2.8958    2.3121   10.0499 O   0  0  0  0  0  0  0  0  0  0  0  0
    5.0700    1.4960   10.0062 C   0  0  1  0  0  0  0  0  0  0  0  0
    6.6053  -10.9483    6.4520 C   0  0  0  0  0  0  0  0  0  0  0  0
    7.8102  -10.5373    4.2428 C   0  0  0  0  0  0  0  0  0  0  0  0
    7.5169   -4.6937    9.2217 C   0  0  1  0  0  0  0  0  0  0  0  0
    5.6053    2.9245    9.7221 C   0  0  0  0  0  0  0  0  0  0  0  0
    5.2260    1.1497   11.3888 N   0  0  0  0  0  0  0  0  0  0  0  0
    8.3767   -5.2108   10.4489 C   0  0  1  0  0  0  0  0  0  0  0  0
    7.6988   -3.2348    8.8905 C   0  0  0  0  0  0  0  0  0  0  0  0
    6.3212    0.7696   12.1127 C   0  0  0  0  0  0  0  0  0  0  0  0
    9.9179   -5.0175   10.3651 C   0  0  0  0  0  0  0  0  0  0  0  0
    7.8909   -4.6080   11.8058 C   0  0  0  0  0  0  0  0  0  0  0  0
    6.7548   -2.5012    9.2708 O   0  0  0  0  0  0  0  0  0  0  0  0
    8.8042   -2.5994    8.3149 N   0  0  0  0  0  0  0  0  0  0  0  0
    6.0407    0.5884   13.3202 O   0  0  0  0  0  0  0  0  0  0  0  0
    7.7517    0.5626   11.7289 C   0  0  2  0  0  0  0  0  0  0  0  0
    9.7947   -3.3354    7.5591 C   0  0  0  0  0  0  0  0  0  0  0  0
    9.0347   -1.1516    8.4864 C   0  0  1  0  0  0  0  0  0  0  0  0
    8.6024    1.8075   12.0867 C   0  0  0  0  0  0  0  0  0  0  0  0
    7.9789    0.1669   10.3681 N   0  0  0  0  0  0  0  0  0  0  0  0
    8.2217   -0.2490    7.4926 C   0  0  1  0  0  0  0  0  0  0  0  0
    8.9033   -0.7487    9.9266 C   0  0  0  0  0  0  0  0  0  0  0  0
    8.6101   -0.2909    5.9729 C   0  0  2  0  0  0  0  0  0  0  0  0
    9.6777   -1.3011   10.7452 O   0  0  0  0  0  0  0  0  0  0  0  0
   10.0560    0.2251    5.6991 C   0  0  0  0  0  0  0  0  0  0  0  0
    7.5976    0.5281    5.1155 C   0  0  0  0  0  0  0  0  0  0  0  0
   -0.1551   -6.6637    2.7208 H   0  0  0  0  0  0  0  0  0  0  0  0
    6.5043   -4.7619    9.6371 H   0  0  0  0  0  0  0  0  0  0  0  0
    1.2881   -4.1824    7.2559 H   0  0  0  0  0  0  0  0  0  0  0  0
    0.6658   -3.7933    2.6754 H   0  0  0  0  0  0  0  0  0  0  0  0
   -1.2380   -5.4046    0.9126 H   0  0  0  0  0  0  0  0  0  0  0  0
   -1.4123   -3.1459    2.8446 H   0  0  0  0  0  0  0  0  0  0  0  0
   -2.0283   -3.1543    0.8732 H   0  0  0  0  0  0  0  0  0  0  0  0
   -1.2678   -3.4805   -0.6563 H   0  0  0  0  0  0  0  0  0  0  0  0
    1.0189   -6.1803    0.4238 H   0  0  0  0  0  0  0  0  0  0  0  0
    0.4411   -5.2078   -0.9206 H   0  0  0  0  0  0  0  0  0  0  0  0
    1.6021   -4.5162    0.2252 H   0  0  0  0  0  0  0  0  0  0  0  0
    0.6307   -2.1397   -0.0385 H   0  0  0  0  0  0  0  0  0  0  0  0
   -1.2654   -7.6659    4.5903 H   0  0  0  0  0  0  0  0  0  0  0  0
   -1.6320   -6.6633    5.9739 H   0  0  0  0  0  0  0  0  0  0  0  0
   -2.1765   -6.1639    4.3884 H   0  0  0  0  0  0  0  0  0  0  0  0
    1.4827   -8.0628    3.8179 H   0  0  0  0  0  0  0  0  0  0  0  0
   -1.2888   -1.1289    1.8750 H   0  0  0  0  0  0  0  0  0  0  0  0
    3.7633   -8.5072    4.2929 H   0  0  0  0  0  0  0  0  0  0  0  0
    0.7179    0.1808    2.4386 H   0  0  0  0  0  0  0  0  0  0  0  0
   -0.2352    0.9509    1.1627 H   0  0  0  0  0  0  0  0  0  0  0  0
    1.2256    0.0351    0.7522 H   0  0  0  0  0  0  0  0  0  0  0  0
   -1.6213   -4.0724    6.5460 H   0  0  0  0  0  0  0  0  0  0  0  0
    2.7479   -9.3146    1.5568 H   0  0  0  0  0  0  0  0  0  0  0  0
    2.3514  -10.0577    3.1021 H   0  0  0  0  0  0  0  0  0  0  0  0
   -0.8156   -6.0778    7.9618 H   0  0  0  0  0  0  0  0  0  0  0  0
   -1.9511   -5.0258    8.7896 H   0  0  0  0  0  0  0  0  0  0  0  0
   -0.2170   -4.9375    9.1478 H   0  0  0  0  0  0  0  0  0  0  0  0
   -0.9718   -1.7510    7.3392 H   0  0  0  0  0  0  0  0  0  0  0  0
   -1.9603   -2.5912    8.4935 H   0  0  0  0  0  0  0  0  0  0  0  0
   -0.2223   -2.4699    8.7586 H   0  0  0  0  0  0  0  0  0  0  0  0
    0.3316   -1.0759    5.5297 H   0  0  0  0  0  0  0  0  0  0  0  0
    0.4260   -1.8840    3.9711 H   0  0  0  0  0  0  0  0  0  0  0  0
   -0.8502   -2.3055    5.0724 H   0  0  0  0  0  0  0  0  0  0  0  0
    4.6973  -10.7982    3.4000 H   0  0  0  0  0  0  0  0  0  0  0  0
    5.1390  -10.0756    1.8368 H   0  0  0  0  0  0  0  0  0  0  0  0
    3.9921  -11.4206    1.9037 H   0  0  0  0  0  0  0  0  0  0  0  0
    2.5596   -1.0603    4.4041 H   0  0  0  0  0  0  0  0  0  0  0  0
    7.8958   -6.8669    2.9663 H   0  0  0  0  0  0  0  0  0  0  0  0
    7.0327   -7.8074    1.7742 H   0  0  0  0  0  0  0  0  0  0  0  0
    6.9046   -6.0356    1.7610 H   0  0  0  0  0  0  0  0  0  0  0  0
    5.5485   -5.2869    4.3824 H   0  0  0  0  0  0  0  0  0  0  0  0
    6.9260   -6.1597    4.8634 H   0  0  0  0  0  0  0  0  0  0  0  0
    4.8767   -0.7672    4.0075 H   0  0  0  0  0  0  0  0  0  0  0  0
    5.3106   -2.2077    4.9192 H   0  0  0  0  0  0  0  0  0  0  0  0
    4.2475   -3.6237    3.1903 H   0  0  0  0  0  0  0  0  0  0  0  0
    2.2064    0.8370    6.3231 H   0  0  0  0  0  0  0  0  0  0  0  0
    3.8688    1.1237    6.9161 H   0  0  0  0  0  0  0  0  0  0  0  0
    3.5656    0.9536    5.2178 H   0  0  0  0  0  0  0  0  0  0  0  0
    6.6409   -3.1389    3.0071 H   0  0  0  0  0  0  0  0  0  0  0  0
    6.3032   -1.6753    2.0628 H   0  0  0  0  0  0  0  0  0  0  0  0
    5.9224   -3.2780    1.4015 H   0  0  0  0  0  0  0  0  0  0  0  0
    2.4722   -2.2114    2.2859 H   0  0  0  0  0  0  0  0  0  0  0  0
    3.6425   -1.0169    1.7034 H   0  0  0  0  0  0  0  0  0  0  0  0
    3.5630   -2.6307    0.9718 H   0  0  0  0  0  0  0  0  0  0  0  0
    4.6700   -1.0302    9.3386 H   0  0  0  0  0  0  0  0  0  0  0  0
    3.8594   -8.4174    7.5106 H   0  0  0  0  0  0  0  0  0  0  0  0
    5.0621   -8.2925    8.7843 H   0  0  0  0  0  0  0  0  0  0  0  0
    4.2129   -6.8503    8.2701 H   0  0  0  0  0  0  0  0  0  0  0  0
    7.0426   -8.5831    7.9315 H   0  0  0  0  0  0  0  0  0  0  0  0
    2.0518   -2.4742    9.2314 H   0  0  0  0  0  0  0  0  0  0  0  0
    3.6096   -3.1852    9.5233 H   0  0  0  0  0  0  0  0  0  0  0  0
    8.0941   -7.9988    5.2024 H   0  0  0  0  0  0  0  0  0  0  0  0
    8.7141   -9.0596    6.4284 H   0  0  0  0  0  0  0  0  0  0  0  0
    2.5815   -1.0669   11.4517 H   0  0  0  0  0  0  0  0  0  0  0  0
    1.0029    0.0737    9.8573 H   0  0  0  0  0  0  0  0  0  0  0  0
    1.2158   -0.4971    8.2007 H   0  0  0  0  0  0  0  0  0  0  0  0
    1.2214    1.2160    8.5284 H   0  0  0  0  0  0  0  0  0  0  0  0
    6.0769   -9.4931    4.9562 H   0  0  0  0  0  0  0  0  0  0  0  0
    6.4293   -5.3460    7.6143 H   0  0  0  0  0  0  0  0  0  0  0  0
    4.0987   -2.1108   13.0417 H   0  0  0  0  0  0  0  0  0  0  0  0
    5.0170   -1.7896   11.5707 H   0  0  0  0  0  0  0  0  0  0  0  0
    4.4724   -3.4340   11.9201 H   0  0  0  0  0  0  0  0  0  0  0  0
    1.6218   -2.8790   12.8601 H   0  0  0  0  0  0  0  0  0  0  0  0
    0.7820   -2.7353   11.3144 H   0  0  0  0  0  0  0  0  0  0  0  0
    1.9467   -4.0531   11.5660 H   0  0  0  0  0  0  0  0  0  0  0  0
    5.6399    0.8448    9.3533 H   0  0  0  0  0  0  0  0  0  0  0  0
    6.1188  -11.8014    5.9733 H   0  0  0  0  0  0  0  0  0  0  0  0
    5.9005  -10.5368    7.1758 H   0  0  0  0  0  0  0  0  0  0  0  0
    7.4889  -11.3062    6.9862 H   0  0  0  0  0  0  0  0  0  0  0  0
    7.2419  -11.3543    3.7918 H   0  0  0  0  0  0  0  0  0  0  0  0
    8.0261   -9.8077    3.4598 H   0  0  0  0  0  0  0  0  0  0  0  0
    8.7552  -10.9391    4.6167 H   0  0  0  0  0  0  0  0  0  0  0  0
    6.6911    2.9380    9.8091 H   0  0  0  0  0  0  0  0  0  0  0  0
    5.3488    3.2344    8.7066 H   0  0  0  0  0  0  0  0  0  0  0  0
    5.1885    3.6446   10.4305 H   0  0  0  0  0  0  0  0  0  0  0  0
    4.4114    1.2188   11.9166 H   0  0  0  0  0  0  0  0  0  0  0  0
    8.2066   -6.2886   10.5324 H   0  0  0  0  0  0  0  0  0  0  0  0
   10.4092   -5.5231   11.1991 H   0  0  0  0  0  0  0  0  0  0  0  0
   10.3294   -5.4357    9.4520 H   0  0  0  0  0  0  0  0  0  0  0  0
   10.1781   -3.9616   10.4171 H   0  0  0  0  0  0  0  0  0  0  0  0
    8.4671   -5.0138   12.6413 H   0  0  0  0  0  0  0  0  0  0  0  0
    6.8424   -4.8529   11.9848 H   0  0  0  0  0  0  0  0  0  0  0  0
    8.0005   -3.5216   11.8066 H   0  0  0  0  0  0  0  0  0  0  0  0
    8.1164   -0.2474   12.3708 H   0  0  0  0  0  0  0  0  0  0  0  0
   10.7382   -3.3549    8.1070 H   0  0  0  0  0  0  0  0  0  0  0  0
    9.9887   -2.8579    6.6000 H   0  0  0  0  0  0  0  0  0  0  0  0
    9.5003   -4.3585    7.3351 H   0  0  0  0  0  0  0  0  0  0  0  0
   10.0835   -0.9275    8.2800 H   0  0  0  0  0  0  0  0  0  0  0  0
    9.6558    1.6147   11.8734 H   0  0  0  0  0  0  0  0  0  0  0  0
    8.2850    2.6780   11.5131 H   0  0  0  0  0  0  0  0  0  0  0  0
    8.5110    2.0366   13.1517 H   0  0  0  0  0  0  0  0  0  0  0  0
    7.4398    0.5963    9.6967 H   0  0  0  0  0  0  0  0  0  0  0  0
    7.1667   -0.5127    7.5935 H   0  0  0  0  0  0  0  0  0  0  0  0
    8.3276    0.7946    7.8049 H   0  0  0  0  0  0  0  0  0  0  0  0
    8.5386   -1.3252    5.6269 H   0  0  0  0  0  0  0  0  0  0  0  0
   10.2521    0.2815    4.6260 H   0  0  0  0  0  0  0  0  0  0  0  0
   10.7979   -0.4469    6.1285 H   0  0  0  0  0  0  0  0  0  0  0  0
   10.1964    1.2204    6.1263 H   0  0  0  0  0  0  0  0  0  0  0  0
    7.8952    0.3658    3.9892 H   0  0  0  0  0  0  0  0  0  0  0  0
    6.5613    0.1732    5.3953 H   0  0  0  0  0  0  0  0  0  0  0  0
    7.6276    1.5993    5.4798 H   0  0  0  0  0  0  0  0  0  0  0  0
  1  2  1  0  0  0  0 
  1  3  1  0  0  0  0 
  4  1  1  0  0  0  0 
  2  5  1  0  0  0  0 
  2  6  1  0  0  0  0 
  4  7  1  0  0  0  0 
  4  8  1  0  0  0  0 
  4 86  1  0  0  0  0 
  5  9  1  0  0  0  0 
  7 10  1  0  0  0  0 
  7 11  1  0  0  0  0 
  8 12  2  0  0  0  0 
  8 13  1  0  0  0  0 
  9 14  2  0  0  0  0 
 11 15  2  0  0  0  0 
 16 11  1  0  0  0  0 
 17 13  1  0  0  0  0 
 14 18  1  0  0  0  0 
 16 19  1  0  0  0  0 
 16 20  1  0  0  0  0 
 16 88  1  0  0  0  0 
 17 21  1  0  0  0  0 
 17 22  1  0  0  0  0 
 19 23  1  0  0  0  0 
 19 24  1  0  0  0  0 
 20 25  1  0  0  0  0 
 20 26  1  0  0  0  0 
 21 27  1  0  0  0  0 
 22 28  2  0  0  0  0 
 22 29  1  0  0  0  0 
 26 30  2  0  0  0  0 
 31 26  1  0  0  0  0 
 29 32  1  0  0  0  0 
 29 33  1  0  0  0  0 
 31 34  1  0  0  0  0 
 31 35  1  0  0  0  0 
 33 36  1  0  0  0  0 
 34 37  1  0  0  0  0 
 35 38  1  0  0  0  0 
 35 39  1  0  0  0  0 
 36 40  2  0  0  0  0 
 36 41  1  0  0  0  0 
 37 42  1  0  0  0  0 
 37 43  1  0  0  0  0 
 39 44  2  0  0  0  0 
 39 45  1  0  0  0  0 
 41 46  1  0  0  0  0 
 47 41  1  0  0  0  0 
 45 48  1  0  0  0  0 
 45 49  1  0  0  0  0 
 47 50  1  0  0  0  0 
 47 51  1  0  0  0  0 
 48 52  1  0  0  0  0 
 49 53  1  0  0  0  0 
 49 54  1  0  0  0  0 
 50 55  1  0  0  0  0 
 51 56  2  0  0  0  0 
 51 57  1  0  0  0  0 
 52 58  1  0  0  0  0 
 52 59  1  0  0  0  0 
 54 60  2  0  0  0  0 
 61 54  1  0  0  0  0 
 55 62  1  0  0  0  0 
 55 63  1  0  0  0  0 
 64 57  1  0  0  0  0 
 61 65  1  0  0  0  0 
 61 66  1  0  0  0  0 
 64 67  1  0  0  0  0 
 64 68  1  0  0  0  0 
 64 87  1  0  0  0  0 
 66 69  1  0  0  0  0 
 67 70  1  0  0  0  0 
 67 71  1  0  0  0  0 
 68 72  2  0  0  0  0 
 68 73  1  0  0  0  0 
 69 74  2  0  0  0  0 
 75 69  1  0  0  0  0 
 73 76  1  0  0  0  0 
 77 73  1  0  0  0  0 
 75 78  1  0  0  0  0 
 75 79  1  0  0  0  0 
 77 80  1  0  0  0  0 
 77 81  1  0  0  0  0 
 79 81  1  0  0  0  0 
 80 82  1  0  0  0  0 
 81 83  2  0  0  0  0 
 82 84  1  0  0  0  0 
 82 85  1  0  0  0  0 
  1 89  1  0  0  0  0 
  2 90  1  0  0  0  0 
  3 91  1  0  0  0  0 
  5 92  1  0  0  0  0 
  5 93  1  0  0  0  0 
  6 94  1  0  0  0  0 
  6 95  1  0  0  0  0 
  6 96  1  0  0  0  0 
  9 97  1  0  0  0  0 
 10 98  1  0  0  0  0 
 10 99  1  0  0  0  0 
 10100  1  0  0  0  0 
 13101  1  0  0  0  0 
 14102  1  0  0  0  0 
 17103  1  0  0  0  0 
 18104  1  0  0  0  0 
 18105  1  0  0  0  0 
 18106  1  0  0  0  0 
 19107  1  0  0  0  0 
 21108  1  0  0  0  0 
 21109  1  0  0  0  0 
 23110  1  0  0  0  0 
 23111  1  0  0  0  0 
 23112  1  0  0  0  0 
 24113  1  0  0  0  0 
 24114  1  0  0  0  0 
 24115  1  0  0  0  0 
 25116  1  0  0  0  0 
 25117  1  0  0  0  0 
 25118  1  0  0  0  0 
 27119  1  0  0  0  0 
 27120  1  0  0  0  0 
 27121  1  0  0  0  0 
 31122  1  0  0  0  0 
 32123  1  0  0  0  0 
 32124  1  0  0  0  0 
 32125  1  0  0  0  0 
 33126  1  0  0  0  0 
 33127  1  0  0  0  0 
 34128  1  0  0  0  0 
 34129  1  0  0  0  0 
 37130  1  0  0  0  0 
 38131  1  0  0  0  0 
 38132  1  0  0  0  0 
 38133  1  0  0  0  0 
 42134  1  0  0  0  0 
 42135  1  0  0  0  0 
 42136  1  0  0  0  0 
 43137  1  0  0  0  0 
 43138  1  0  0  0  0 
 43139  1  0  0  0  0 
 45140  1  0  0  0  0 
 46141  1  0  0  0  0 
 46142  1  0  0  0  0 
 46143  1  0  0  0  0 
 47144  1  0  0  0  0 
 48145  1  0  0  0  0 
 48146  1  0  0  0  0 
 50147  1  0  0  0  0 
 50148  1  0  0  0  0 
 52149  1  0  0  0  0 
 53150  1  0  0  0  0 
 53151  1  0  0  0  0 
 53152  1  0  0  0  0 
 55153  1  0  0  0  0 
 57154  1  0  0  0  0 
 58155  1  0  0  0  0 
 58156  1  0  0  0  0 
 58157  1  0  0  0  0 
 59158  1  0  0  0  0 
 59159  1  0  0  0  0 
 59160  1  0  0  0  0 
 61161  1  0  0  0  0 
 62162  1  0  0  0  0 
 62163  1  0  0  0  0 
 62164  1  0  0  0  0 
 63165  1  0  0  0  0 
 63166  1  0  0  0  0 
 63167  1  0  0  0  0 
 65168  1  0  0  0  0 
 65169  1  0  0  0  0 
 65170  1  0  0  0  0 
 66171  1  0  0  0  0 
 67172  1  0  0  0  0 
 70173  1  0  0  0  0 
 70174  1  0  0  0  0 
 70175  1  0  0  0  0 
 71176  1  0  0  0  0 
 71177  1  0  0  0  0 
 71178  1  0  0  0  0 
 75179  1  0  0  0  0 
 76180  1  0  0  0  0 
 76181  1  0  0  0  0 
 76182  1  0  0  0  0 
 77183  1  0  0  0  0 
 78184  1  0  0  0  0 
 78185  1  0  0  0  0 
 78186  1  0  0  0  0 
 79187  1  0  0  0  0 
 80188  1  0  0  0  0 
 80189  1  0  0  0  0 
 82190  1  0  0  0  0 
 84191  1  0  0  0  0 
 84192  1  0  0  0  0 
 84193  1  0  0  0  0 
 85194  1  0  0  0  0 
 85195  1  0  0  0  0 
 85196  1  0  0  0  0 
M  END
> <cdk:Title>
ciclosporin

> <Conformer>
1

> <SuperDrugID>
SD000669

$$$$
