clobuzarit
  CDK     0628171801

 38 39  0  0  0  0  0  0  0  0999 V2000
    3.8005    7.3694   -1.4415 C   0  0  1  0  0  0  0  0  0  0  0  0
    3.5067    8.3739   -0.4473 O   0  0  0  0  0  0  0  0  0  0  0  0
    3.0592    6.1248   -1.1168 C   0  0  0  0  0  0  0  0  0  0  0  0
    4.0897    9.7078   -0.5508 C   0  0  1  0  0  0  0  0  0  0  0  0
    2.0172    5.6505   -1.9480 C   0  0  0  0  0  0  0  0  0  0  0  0
    3.3948    5.3735    0.0323 C   0  0  0  0  0  0  0  0  0  0  0  0
    3.5895   10.4739    0.6308 C   0  0  0  0  0  0  0  0  0  0  0  0
    1.3608    4.4382   -1.6632 C   0  0  0  0  0  0  0  0  0  0  0  0
    2.7425    4.1588    0.3149 C   0  0  0  0  0  0  0  0  0  0  0  0
    3.9151   11.7787    0.8005 O   0  0  0  0  0  0  0  0  0  0  0  0
    2.8594    9.9571    1.5073 O   0  0  0  0  0  0  0  0  0  0  0  0
    1.7292    3.6621   -0.5394 C   0  0  0  0  0  0  0  0  0  0  0  0
    1.1141    2.4007   -0.2978 C   0  0  0  0  0  0  0  0  0  0  0  0
   -0.2944    2.2694   -0.2339 C   0  0  0  0  0  0  0  0  0  0  0  0
    1.9046    1.2359   -0.1391 C   0  0  0  0  0  0  0  0  0  0  0  0
   -0.8939    1.0126   -0.0270 C   0  0  0  0  0  0  0  0  0  0  0  0
    1.3067   -0.0220    0.0646 C   0  0  0  0  0  0  0  0  0  0  0  0
   -0.0954   -0.1378    0.1195 C   0  0  0  0  0  0  0  0  0  0  0  0
   -0.8158   -1.6514    0.3554 Cl  0  0  0  0  0  0  0  0  0  0  0  0
    5.6499    9.6768   -0.4835 C   0  0  0  0  0  0  0  0  0  0  0  0
    3.6021   10.4457   -1.8393 C   0  0  0  0  0  0  0  0  0  0  0  0
    3.5173    7.7272   -2.4326 H   0  0  0  0  0  0  0  0  0  0  0  0
    4.8684    7.1401   -1.4610 H   0  0  0  0  0  0  0  0  0  0  0  0
    1.7320    6.1803   -2.7750 H   0  0  0  0  0  0  0  0  0  0  0  0
    4.1281    5.7037    0.6661 H   0  0  0  0  0  0  0  0  0  0  0  0
    0.6226    4.1189   -2.2965 H   0  0  0  0  0  0  0  0  0  0  0  0
    3.0150    3.6368    1.1529 H   0  0  0  0  0  0  0  0  0  0  0  0
    3.5828   12.2700    1.5799 H   0  0  0  0  0  0  0  0  0  0  0  0
   -0.8974    3.0906   -0.3337 H   0  0  0  0  0  0  0  0  0  0  0  0
    2.9255    1.2907   -0.1853 H   0  0  0  0  0  0  0  0  0  0  0  0
   -1.9139    0.9403    0.0151 H   0  0  0  0  0  0  0  0  0  0  0  0
    1.8981   -0.8501    0.1680 H   0  0  0  0  0  0  0  0  0  0  0  0
    6.0598   10.6876   -0.4010 H   0  0  0  0  0  0  0  0  0  0  0  0
    6.0718    9.2215   -1.3811 H   0  0  0  0  0  0  0  0  0  0  0  0
    5.9759    9.0976    0.3838 H   0  0  0  0  0  0  0  0  0  0  0  0
    3.9261   11.4887   -1.8461 H   0  0  0  0  0  0  0  0  0  0  0  0
    4.0021    9.9791   -2.7393 H   0  0  0  0  0  0  0  0  0  0  0  0
    2.5117   10.4223   -1.8995 H   0  0  0  0  0  0  0  0  0  0  0  0
  1  2  1  0  0  0  0 
  1  3  1  0  0  0  0 
  2  4  1  0  0  0  0 
  3  5  2  0  0  0  0 
  3  6  1  0  0  0  0 
  4  7  1  0  0  0  0 
  5  8  1  0  0  0  0 
  6  9  2  0  0  0  0 
  7 10  1  0  0  0  0 
  7 11  2  0  0  0  0 
  8 12  2  0  0  0  0 
  9 12  1  0  0  0  0 
 12 13  1  0  0  0  0 
 13 14  2  0  0  0  0 
 13 15  1  0  0  0  0 
 14 16  1  0  0  0  0 
 15 17  2  0  0  0  0 
 16 18  2  0  0  0  0 
 17 18  1  0  0  0  0 
 18 19  1  0  0  0  0 
  4 20  1  0  0  0  0 
  4 21  1  0  0  0  0 
  1 22  1  0  0  0  0 
  1 23  1  0  0  0  0 
  5 24  1  0  0  0  0 
  6 25  1  0  0  0  0 
  8 26  1  0  0  0  0 
  9 27  1  0  0  0  0 
 10 28  1  0  0  0  0 
 14 29  1  0  0  0  0 
 15 30  1  0  0  0  0 
 16 31  1  0  0  0  0 
 17 32  1  0  0  0  0 
 20 33  1  0  0  0  0 
 20 34  1  0  0  0  0 
 20 35  1  0  0  0  0 
 21 36  1  0  0  0  0 
 21 37  1  0  0  0  0 
 21 38  1  0  0  0  0 
M  END
> <cdk:Title>
clobuzarit

> <Conformer>
1

> <SuperDrugID>
SD003176

$$$$
