phenoxybenzamine
  CDK     0628171801

 43 44  0  0  0  0  0  0  0  0999 V2000
   -0.3538    1.6434   -1.1126 C   0  0  2  0  0  0  0  0  0  0  0  0
    0.7546    0.9144   -1.8355 N   0  0  0  0  0  0  0  0  0  0  0  0
   -1.2367    2.4966   -1.9659 C   0  0  0  0  0  0  0  0  0  0  0  0
    1.4371   -0.1820   -1.0468 C   0  0  1  0  0  0  0  0  0  0  0  0
    1.6057    1.7517   -2.7510 C   0  0  1  0  0  0  0  0  0  0  0  0
   -2.1343    1.9101   -2.8899 C   0  0  0  0  0  0  0  0  0  0  0  0
   -1.1997    3.9107   -1.8670 C   0  0  0  0  0  0  0  0  0  0  0  0
    2.2888   -1.1674   -1.9097 C   0  0  2  0  0  0  0  0  0  0  0  0
    2.2746    0.3467    0.1556 C   0  0  0  0  0  0  0  0  0  0  0  0
    1.3275    1.3744   -4.2292 C   0  0  1  0  0  0  0  0  0  0  0  0
   -2.9528    2.7148   -3.7081 C   0  0  0  0  0  0  0  0  0  0  0  0
   -2.0122    4.7143   -2.6882 C   0  0  0  0  0  0  0  0  0  0  0  0
    2.5391   -2.3755   -1.1552 O   0  0  0  0  0  0  0  0  0  0  0  0
    1.8065    2.6617   -5.3331 Cl  0  0  0  0  0  0  0  0  0  0  0  0
   -2.8849    4.1174   -3.6152 C   0  0  0  0  0  0  0  0  0  0  0  0
    3.7484   -2.9855   -1.3703 C   0  0  0  0  0  0  0  0  0  0  0  0
    4.8666   -2.6038   -0.5977 C   0  0  0  0  0  0  0  0  0  0  0  0
    3.8814   -4.0324   -2.3076 C   0  0  0  0  0  0  0  0  0  0  0  0
    6.1030   -3.2573   -0.7589 C   0  0  0  0  0  0  0  0  0  0  0  0
    5.1192   -4.6882   -2.4671 C   0  0  0  0  0  0  0  0  0  0  0  0
    6.2283   -4.3046   -1.6899 C   0  0  0  0  0  0  0  0  0  0  0  0
    0.0894    2.2582   -0.3264 H   0  0  0  0  0  0  0  0  0  0  0  0
   -1.0008    0.9202   -0.6095 H   0  0  0  0  0  0  0  0  0  0  0  0
    0.6338   -0.7929   -0.6245 H   0  0  0  0  0  0  0  0  0  0  0  0
    1.3999    2.8161   -2.6101 H   0  0  0  0  0  0  0  0  0  0  0  0
    2.6722    1.6293   -2.5473 H   0  0  0  0  0  0  0  0  0  0  0  0
   -2.1982    0.8915   -2.9713 H   0  0  0  0  0  0  0  0  0  0  0  0
   -0.5752    4.3710   -1.1990 H   0  0  0  0  0  0  0  0  0  0  0  0
    3.2126   -0.6722   -2.2248 H   0  0  0  0  0  0  0  0  0  0  0  0
    1.7307   -1.4483   -2.8047 H   0  0  0  0  0  0  0  0  0  0  0  0
    2.6351   -0.4878    0.7605 H   0  0  0  0  0  0  0  0  0  0  0  0
    1.6732    0.9791    0.8076 H   0  0  0  0  0  0  0  0  0  0  0  0
    3.1348    0.9218   -0.1894 H   0  0  0  0  0  0  0  0  0  0  0  0
    1.8748    0.4703   -4.5031 H   0  0  0  0  0  0  0  0  0  0  0  0
    0.2636    1.1832   -4.3802 H   0  0  0  0  0  0  0  0  0  0  0  0
   -3.5982    2.2810   -4.3733 H   0  0  0  0  0  0  0  0  0  0  0  0
   -1.9672    5.7339   -2.6133 H   0  0  0  0  0  0  0  0  0  0  0  0
   -3.4715    4.7031   -4.2181 H   0  0  0  0  0  0  0  0  0  0  0  0
    4.7800   -1.8507    0.0884 H   0  0  0  0  0  0  0  0  0  0  0  0
    3.0783   -4.3231   -2.8699 H   0  0  0  0  0  0  0  0  0  0  0  0
    6.9086   -2.9725   -0.1964 H   0  0  0  0  0  0  0  0  0  0  0  0
    5.2141   -5.4472   -3.1456 H   0  0  0  0  0  0  0  0  0  0  0  0
    7.1240   -4.7874   -1.7987 H   0  0  0  0  0  0  0  0  0  0  0  0
  1  2  1  0  0  0  0 
  1  3  1  0  0  0  0 
  4  2  1  0  0  0  0 
  2  5  1  0  0  0  0 
  3  6  2  0  0  0  0 
  3  7  1  0  0  0  0 
  4  8  1  0  0  0  0 
  4  9  1  0  0  0  0 
  5 10  1  0  0  0  0 
  6 11  1  0  0  0  0 
  7 12  2  0  0  0  0 
  8 13  1  0  0  0  0 
 10 14  1  0  0  0  0 
 11 15  2  0  0  0  0 
 12 15  1  0  0  0  0 
 13 16  1  0  0  0  0 
 16 17  2  0  0  0  0 
 16 18  1  0  0  0  0 
 17 19  1  0  0  0  0 
 18 20  2  0  0  0  0 
 19 21  2  0  0  0  0 
 20 21  1  0  0  0  0 
  1 22  1  0  0  0  0 
  1 23  1  0  0  0  0 
  4 24  1  0  0  0  0 
  5 25  1  0  0  0  0 
  5 26  1  0  0  0  0 
  6 27  1  0  0  0  0 
  7 28  1  0  0  0  0 
  8 29  1  0  0  0  0 
  8 30  1  0  0  0  0 
  9 31  1  0  0  0  0 
  9 32  1  0  0  0  0 
  9 33  1  0  0  0  0 
 10 34  1  0  0  0  0 
 10 35  1  0  0  0  0 
 11 36  1  0  0  0  0 
 12 37  1  0  0  0  0 
 15 38  1  0  0  0  0 
 17 39  1  0  0  0  0 
 18 40  1  0  0  0  0 
 19 41  1  0  0  0  0 
 20 42  1  0  0  0  0 
 21 43  1  0  0  0  0 
M  END
> <cdk:Title>
phenoxybenzamine

> <Conformer>
1

> <SuperDrugID>
SD001916

$$$$
