vitamin A palmitate
  CDK     0628171801

 98 98  0  0  0  0  0  0  0  0999 V2000
   -3.3977   -9.6731    0.7313 C   0  0  0  0  0  0  0  0  0  0  0  0
   -2.7648   -8.9882    1.6984 C   0  0  0  0  0  0  0  0  0  0  0  0
   -4.2978  -10.6818    0.9681 C   0  0  0  0  0  0  0  0  0  0  0  0
   -1.9087   -7.9553    1.4532 C   0  0  0  0  0  0  0  0  0  0  0  0
   -3.7420  -12.0331    1.3049 C   0  0  1  0  0  0  0  0  0  0  0  0
   -5.6412  -10.4213    0.8859 C   0  0  0  0  0  0  0  0  0  0  0  0
   -2.1915   -6.7646    2.0292 C   0  0  0  0  0  0  0  0  0  0  0  0
   -0.7424   -8.1552    0.5859 C   0  0  0  0  0  0  0  0  0  0  0  0
   -2.3826  -12.3610    0.5859 C   0  0  0  0  0  0  0  0  0  0  0  0
   -3.5014  -12.1069    2.8563 C   0  0  0  0  0  0  0  0  0  0  0  0
   -4.7226  -13.1672    0.8428 C   0  0  1  0  0  0  0  0  0  0  0  0
   -6.0973   -9.0026    0.6082 C   0  0  0  0  0  0  0  0  0  0  0  0
   -6.6487  -11.5473    1.0223 C   0  0  1  0  0  0  0  0  0  0  0  0
   -1.4475   -5.6437    1.9171 C   0  0  0  0  0  0  0  0  0  0  0  0
   -6.1352  -12.9538    1.4062 C   0  0  1  0  0  0  0  0  0  0  0  0
   -1.9685   -4.4808    1.4946 C   0  0  0  0  0  0  0  0  0  0  0  0
   -1.2671   -3.3121    1.4737 C   0  0  0  0  0  0  0  0  0  0  0  0
   -0.1535   -3.1986    0.7127 C   0  0  0  0  0  0  0  0  0  0  0  0
   -1.7690   -2.2289    2.3164 C   0  0  0  0  0  0  0  0  0  0  0  0
    0.6878   -2.0188    0.5959 C   0  0  1  0  0  0  0  0  0  0  0  0
    0.1072   -1.0843   -0.3262 O   0  0  0  0  0  0  0  0  0  0  0  0
    0.6517    0.1195   -0.6854 C   0  0  0  0  0  0  0  0  0  0  0  0
   -0.0606    1.0080   -1.6274 C   0  0  1  0  0  0  0  0  0  0  0  0
    1.7537    0.4913   -0.2155 O   0  0  0  0  0  0  0  0  0  0  0  0
   -0.5417    2.3072   -0.9263 C   0  0  1  0  0  0  0  0  0  0  0  0
   -1.2846    3.2866   -1.8746 C   0  0  2  0  0  0  0  0  0  0  0  0
   -1.7742    4.5620   -1.1331 C   0  0  1  0  0  0  0  0  0  0  0  0
   -2.4469    5.5948   -2.0777 C   0  0  1  0  0  0  0  0  0  0  0  0
   -2.8626    6.8967   -1.3392 C   0  0  2  0  0  0  0  0  0  0  0  0
   -3.4643    7.9711   -2.2855 C   0  0  2  0  0  0  0  0  0  0  0  0
   -3.8323    9.2831   -1.5377 C   0  0  1  0  0  0  0  0  0  0  0  0
   -4.4152   10.3651   -2.4865 C   0  0  2  0  0  0  0  0  0  0  0  0
   -4.7983   11.6865   -1.7642 C   0  0  2  0  0  0  0  0  0  0  0  0
   -5.3913   12.7372   -2.7453 C   0  0  2  0  0  0  0  0  0  0  0  0
   -5.7954   14.0649   -2.0475 C   0  0  1  0  0  0  0  0  0  0  0  0
   -6.3947   15.1111   -3.0284 C   0  0  1  0  0  0  0  0  0  0  0  0
   -6.7969   16.4327   -2.3190 C   0  0  2  0  0  0  0  0  0  0  0  0
   -7.3937   17.4779   -3.2876 C   0  0  0  0  0  0  0  0  0  0  0  0
   -3.2357   -9.4300   -0.2213 H   0  0  0  0  0  0  0  0  0  0  0  0
   -2.9497   -9.2138    2.6503 H   0  0  0  0  0  0  0  0  0  0  0  0
   -3.0117   -6.6756    2.5910 H   0  0  0  0  0  0  0  0  0  0  0  0
   -0.8083   -7.4897   -0.2793 H   0  0  0  0  0  0  0  0  0  0  0  0
   -0.6612   -9.1825    0.2168 H   0  0  0  0  0  0  0  0  0  0  0  0
    0.1770   -7.9320    1.1311 H   0  0  0  0  0  0  0  0  0  0  0  0
   -2.0460  -13.3714    0.8281 H   0  0  0  0  0  0  0  0  0  0  0  0
   -2.4915  -12.2950   -0.5000 H   0  0  0  0  0  0  0  0  0  0  0  0
   -1.5914  -11.6741    0.8923 H   0  0  0  0  0  0  0  0  0  0  0  0
   -2.6138  -11.5434    3.1495 H   0  0  0  0  0  0  0  0  0  0  0  0
   -3.3555  -13.1372    3.1870 H   0  0  0  0  0  0  0  0  0  0  0  0
   -4.3482  -11.6944    3.4100 H   0  0  0  0  0  0  0  0  0  0  0  0
   -4.7912  -13.1797   -0.2523 H   0  0  0  0  0  0  0  0  0  0  0  0
   -4.3662  -14.1526    1.1619 H   0  0  0  0  0  0  0  0  0  0  0  0
   -5.8017   -8.7118   -0.4008 H   0  0  0  0  0  0  0  0  0  0  0  0
   -7.1836   -8.9296    0.6788 H   0  0  0  0  0  0  0  0  0  0  0  0
   -5.6726   -8.3020    1.3307 H   0  0  0  0  0  0  0  0  0  0  0  0
   -7.4038  -11.2502    1.7560 H   0  0  0  0  0  0  0  0  0  0  0  0
   -7.1528  -11.6309    0.0546 H   0  0  0  0  0  0  0  0  0  0  0  0
   -0.4889   -5.6940    2.1825 H   0  0  0  0  0  0  0  0  0  0  0  0
   -6.8013  -13.7203    1.0007 H   0  0  0  0  0  0  0  0  0  0  0  0
   -6.1284  -13.0651    2.4934 H   0  0  0  0  0  0  0  0  0  0  0  0
   -2.9243   -4.4468    1.2151 H   0  0  0  0  0  0  0  0  0  0  0  0
    0.1265   -3.9823    0.1625 H   0  0  0  0  0  0  0  0  0  0  0  0
   -1.0342   -1.9983    3.0898 H   0  0  0  0  0  0  0  0  0  0  0  0
   -2.7061   -2.4796    2.8251 H   0  0  0  0  0  0  0  0  0  0  0  0
   -1.9531   -1.3384    1.7143 H   0  0  0  0  0  0  0  0  0  0  0  0
    0.8317   -1.5451    1.5698 H   0  0  0  0  0  0  0  0  0  0  0  0
    1.6752   -2.3128    0.2272 H   0  0  0  0  0  0  0  0  0  0  0  0
    0.6119    1.2555   -2.4540 H   0  0  0  0  0  0  0  0  0  0  0  0
   -0.9219    0.4798   -2.0441 H   0  0  0  0  0  0  0  0  0  0  0  0
   -1.2082    2.0378   -0.1008 H   0  0  0  0  0  0  0  0  0  0  0  0
    0.3274    2.8241   -0.5081 H   0  0  0  0  0  0  0  0  0  0  0  0
   -2.1449    2.7774   -2.3182 H   0  0  0  0  0  0  0  0  0  0  0  0
   -0.6063    3.5769   -2.6819 H   0  0  0  0  0  0  0  0  0  0  0  0
   -2.4898    4.2696   -0.3595 H   0  0  0  0  0  0  0  0  0  0  0  0
   -0.9207    5.0369   -0.6402 H   0  0  0  0  0  0  0  0  0  0  0  0
   -1.7472    5.8487   -2.8785 H   0  0  0  0  0  0  0  0  0  0  0  0
   -3.3335    5.1416   -2.5297 H   0  0  0  0  0  0  0  0  0  0  0  0
   -1.9833    7.3183   -0.8444 H   0  0  0  0  0  0  0  0  0  0  0  0
   -3.5994    6.6487   -0.5700 H   0  0  0  0  0  0  0  0  0  0  0  0
   -4.3615    7.5656   -2.7622 H   0  0  0  0  0  0  0  0  0  0  0  0
   -2.7385    8.2017   -3.0707 H   0  0  0  0  0  0  0  0  0  0  0  0
   -4.5662    9.0559   -0.7594 H   0  0  0  0  0  0  0  0  0  0  0  0
   -2.9355    9.6812   -1.0546 H   0  0  0  0  0  0  0  0  0  0  0  0
   -5.3061    9.9609   -2.9752 H   0  0  0  0  0  0  0  0  0  0  0  0
   -3.6753   10.5905   -3.2596 H   0  0  0  0  0  0  0  0  0  0  0  0
   -3.9086   12.1053   -1.2845 H   0  0  0  0  0  0  0  0  0  0  0  0
   -5.5342   11.4690   -0.9844 H   0  0  0  0  0  0  0  0  0  0  0  0
   -6.2741   12.3094   -3.2297 H   0  0  0  0  0  0  0  0  0  0  0  0
   -4.6509   12.9549   -3.5208 H   0  0  0  0  0  0  0  0  0  0  0  0
   -6.5329   13.8446   -1.2706 H   0  0  0  0  0  0  0  0  0  0  0  0
   -4.9116   14.4943   -1.5672 H   0  0  0  0  0  0  0  0  0  0  0  0
   -5.6582   15.3338   -3.8059 H   0  0  0  0  0  0  0  0  0  0  0  0
   -7.2781   14.6827   -3.5106 H   0  0  0  0  0  0  0  0  0  0  0  0
   -5.9172   16.8677   -1.8374 H   0  0  0  0  0  0  0  0  0  0  0  0
   -7.5356   16.2170   -1.5426 H   0  0  0  0  0  0  0  0  0  0  0  0
   -7.6571   18.3828   -2.7377 H   0  0  0  0  0  0  0  0  0  0  0  0
   -6.6687   17.7399   -4.0599 H   0  0  0  0  0  0  0  0  0  0  0  0
   -8.2943   17.0865   -3.7634 H   0  0  0  0  0  0  0  0  0  0  0  0
  1  2  2  0  0  0  0 
  1  3  1  0  0  0  0 
  2  4  1  0  0  0  0 
  3  5  1  0  0  0  0 
  3  6  2  0  0  0  0 
  4  7  2  0  0  0  0 
  4  8  1  0  0  0  0 
  5  9  1  0  0  0  0 
  5 10  1  0  0  0  0 
  5 11  1  0  0  0  0 
  6 12  1  0  0  0  0 
  6 13  1  0  0  0  0 
  7 14  1  0  0  0  0 
 11 15  1  0  0  0  0 
 13 15  1  0  0  0  0 
 14 16  2  0  0  0  0 
 16 17  1  0  0  0  0 
 17 18  2  0  0  0  0 
 17 19  1  0  0  0  0 
 18 20  1  0  0  0  0 
 20 21  1  0  0  0  0 
 21 22  1  0  0  0  0 
 22 23  1  0  0  0  0 
 22 24  2  0  0  0  0 
 23 25  1  0  0  0  0 
 25 26  1  0  0  0  0 
 26 27  1  0  0  0  0 
 27 28  1  0  0  0  0 
 28 29  1  0  0  0  0 
 29 30  1  0  0  0  0 
 30 31  1  0  0  0  0 
 31 32  1  0  0  0  0 
 32 33  1  0  0  0  0 
 33 34  1  0  0  0  0 
 34 35  1  0  0  0  0 
 35 36  1  0  0  0  0 
 36 37  1  0  0  0  0 
 37 38  1  0  0  0  0 
  1 39  1  0  0  0  0 
  2 40  1  0  0  0  0 
  7 41  1  0  0  0  0 
  8 42  1  0  0  0  0 
  8 43  1  0  0  0  0 
  8 44  1  0  0  0  0 
  9 45  1  0  0  0  0 
  9 46  1  0  0  0  0 
  9 47  1  0  0  0  0 
 10 48  1  0  0  0  0 
 10 49  1  0  0  0  0 
 10 50  1  0  0  0  0 
 11 51  1  0  0  0  0 
 11 52  1  0  0  0  0 
 12 53  1  0  0  0  0 
 12 54  1  0  0  0  0 
 12 55  1  0  0  0  0 
 13 56  1  0  0  0  0 
 13 57  1  0  0  0  0 
 14 58  1  0  0  0  0 
 15 59  1  0  0  0  0 
 15 60  1  0  0  0  0 
 16 61  1  0  0  0  0 
 18 62  1  0  0  0  0 
 19 63  1  0  0  0  0 
 19 64  1  0  0  0  0 
 19 65  1  0  0  0  0 
 20 66  1  0  0  0  0 
 20 67  1  0  0  0  0 
 23 68  1  0  0  0  0 
 23 69  1  0  0  0  0 
 25 70  1  0  0  0  0 
 25 71  1  0  0  0  0 
 26 72  1  0  0  0  0 
 26 73  1  0  0  0  0 
 27 74  1  0  0  0  0 
 27 75  1  0  0  0  0 
 28 76  1  0  0  0  0 
 28 77  1  0  0  0  0 
 29 78  1  0  0  0  0 
 29 79  1  0  0  0  0 
 30 80  1  0  0  0  0 
 30 81  1  0  0  0  0 
 31 82  1  0  0  0  0 
 31 83  1  0  0  0  0 
 32 84  1  0  0  0  0 
 32 85  1  0  0  0  0 
 33 86  1  0  0  0  0 
 33 87  1  0  0  0  0 
 34 88  1  0  0  0  0 
 34 89  1  0  0  0  0 
 35 90  1  0  0  0  0 
 35 91  1  0  0  0  0 
 36 92  1  0  0  0  0 
 36 93  1  0  0  0  0 
 37 94  1  0  0  0  0 
 37 95  1  0  0  0  0 
 38 96  1  0  0  0  0 
 38 97  1  0  0  0  0 
 38 98  1  0  0  0  0 
M  END
> <cdk:Title>
vitamin A palmitate

> <Conformer>
1

> <SuperDrugID>
SD003426

$$$$
