menthyl salicylate
  CDK     0628171801

 44 45  0  0  0  0  0  0  0  0999 V2000
    2.7065    2.2243   -1.5235 C   0  0  2  0  0  0  0  0  0  0  0  0
    3.8664    2.3168   -2.5559 C   0  0  0  0  0  0  0  0  0  0  0  0
    2.4766    3.6111   -0.8519 C   0  0  0  0  0  0  0  0  0  0  0  0
    2.8379    1.0502   -0.4766 C   0  0  1  0  0  0  0  0  0  0  0  0
    2.6411   -0.3788   -1.0930 C   0  0  2  0  0  0  0  0  0  0  0  0
    4.1555    1.0880    0.3661 C   0  0  2  0  0  0  0  0  0  0  0  0
    1.3610   -0.4838   -1.7534 O   0  0  0  0  0  0  0  0  0  0  0  0
    2.6974   -1.4897   -0.0040 C   0  0  1  0  0  0  0  0  0  0  0  0
    4.2148   -0.0310    1.4398 C   0  0  1  0  0  0  0  0  0  0  0  0
    1.0900   -0.9230   -3.0268 C   0  0  0  0  0  0  0  0  0  0  0  0
    4.0204   -1.4449    0.8168 C   0  0  1  0  0  0  0  0  0  0  0  0
    2.0459   -1.3390   -3.7245 O   0  0  0  0  0  0  0  0  0  0  0  0
   -0.2372   -0.8996   -3.5473 C   0  0  0  0  0  0  0  0  0  0  0  0
    4.0641   -2.5539    1.9028 C   0  0  0  0  0  0  0  0  0  0  0  0
   -0.6028   -1.5566   -4.7576 C   0  0  0  0  0  0  0  0  0  0  0  0
   -1.2463   -0.1828   -2.8560 C   0  0  0  0  0  0  0  0  0  0  0  0
    0.2620   -2.3225   -5.4704 O   0  0  0  0  0  0  0  0  0  0  0  0
   -1.9075   -1.4419   -5.2767 C   0  0  0  0  0  0  0  0  0  0  0  0
   -2.5581   -0.1022   -3.3570 C   0  0  0  0  0  0  0  0  0  0  0  0
   -2.8826   -0.7130   -4.5783 C   0  0  0  0  0  0  0  0  0  0  0  0
    1.7986    2.0400   -2.1061 H   0  0  0  0  0  0  0  0  0  0  0  0
    4.0191    1.3647   -3.0630 H   0  0  0  0  0  0  0  0  0  0  0  0
    3.6308    3.0614   -3.3186 H   0  0  0  0  0  0  0  0  0  0  0  0
    4.7985    2.6118   -2.0733 H   0  0  0  0  0  0  0  0  0  0  0  0
    1.6146    3.5739   -0.1830 H   0  0  0  0  0  0  0  0  0  0  0  0
    2.2763    4.3716   -1.6112 H   0  0  0  0  0  0  0  0  0  0  0  0
    3.3509    3.9258   -0.2791 H   0  0  0  0  0  0  0  0  0  0  0  0
    2.0131    1.1822    0.2312 H   0  0  0  0  0  0  0  0  0  0  0  0
    3.4504   -0.5704   -1.8027 H   0  0  0  0  0  0  0  0  0  0  0  0
    4.2415    2.0455    0.8823 H   0  0  0  0  0  0  0  0  0  0  0  0
    5.0244    0.9831   -0.2876 H   0  0  0  0  0  0  0  0  0  0  0  0
    1.8441   -1.3788    0.6713 H   0  0  0  0  0  0  0  0  0  0  0  0
    2.6055   -2.4633   -0.4897 H   0  0  0  0  0  0  0  0  0  0  0  0
    5.1853    0.0171    1.9436 H   0  0  0  0  0  0  0  0  0  0  0  0
    3.4400    0.1544    2.1919 H   0  0  0  0  0  0  0  0  0  0  0  0
    4.8549   -1.6346    0.1330 H   0  0  0  0  0  0  0  0  0  0  0  0
    4.9887   -2.4892    2.4807 H   0  0  0  0  0  0  0  0  0  0  0  0
    4.0261   -3.5414    1.4364 H   0  0  0  0  0  0  0  0  0  0  0  0
    3.2183   -2.4590    2.5867 H   0  0  0  0  0  0  0  0  0  0  0  0
   -1.0405    0.2953   -1.9755 H   0  0  0  0  0  0  0  0  0  0  0  0
    0.7941   -2.8105   -4.8073 H   0  0  0  0  0  0  0  0  0  0  0  0
   -2.1478   -1.8900   -6.1635 H   0  0  0  0  0  0  0  0  0  0  0  0
   -3.2741    0.4057   -2.8342 H   0  0  0  0  0  0  0  0  0  0  0  0
   -3.8277   -0.6274   -4.9557 H   0  0  0  0  0  0  0  0  0  0  0  0
  1  2  1  0  0  0  0 
  1  3  1  0  0  0  0 
  4  1  1  0  0  0  0 
  5  4  1  0  0  0  0 
  4  6  1  0  0  0  0 
  5  7  1  0  0  0  0 
  5  8  1  0  0  0  0 
  6  9  1  0  0  0  0 
  7 10  1  0  0  0  0 
 11  8  1  0  0  0  0 
 11  9  1  0  0  0  0 
 10 12  2  0  0  0  0 
 10 13  1  0  0  0  0 
 11 14  1  0  0  0  0 
 13 15  2  0  0  0  0 
 13 16  1  0  0  0  0 
 15 17  1  0  0  0  0 
 15 18  1  0  0  0  0 
 16 19  2  0  0  0  0 
 18 20  2  0  0  0  0 
 19 20  1  0  0  0  0 
  1 21  1  0  0  0  0 
  2 22  1  0  0  0  0 
  2 23  1  0  0  0  0 
  2 24  1  0  0  0  0 
  3 25  1  0  0  0  0 
  3 26  1  0  0  0  0 
  3 27  1  0  0  0  0 
  4 28  1  0  0  0  0 
  5 29  1  0  0  0  0 
  6 30  1  0  0  0  0 
  6 31  1  0  0  0  0 
  8 32  1  0  0  0  0 
  8 33  1  0  0  0  0 
  9 34  1  0  0  0  0 
  9 35  1  0  0  0  0 
 11 36  1  0  0  0  0 
 14 37  1  0  0  0  0 
 14 38  1  0  0  0  0 
 14 39  1  0  0  0  0 
 16 40  1  0  0  0  0 
 17 41  1  0  0  0  0 
 18 42  1  0  0  0  0 
 19 43  1  0  0  0  0 
 20 44  1  0  0  0  0 
M  END
> <cdk:Title>
menthyl salicylate

> <Conformer>
1

> <SuperDrugID>
SD003577

$$$$
