budipine
  CDK     0628171801

 49 51  0  0  0  0  0  0  0  0999 V2000
   -0.1216    0.0824    0.1447 C   0  0  2  0  0  0  0  0  0  0  0  0
   -0.9798    0.8093   -0.9495 C   0  0  0  0  0  0  0  0  0  0  0  0
   -0.9228   -1.2136    0.5260 C   0  0  0  0  0  0  0  0  0  0  0  0
   -0.0604    0.9998    1.4136 C   0  0  0  0  0  0  0  0  0  0  0  0
    1.2672   -0.2577   -0.4091 N   0  0  2  0  0  0  0  0  0  0  0  0
    2.1100   -1.1969    0.4068 C   0  0  2  0  0  0  0  0  0  0  0  0
    2.0847    0.8934   -0.9370 C   0  0  1  0  0  0  0  0  0  0  0  0
    3.4187   -1.6144   -0.3144 C   0  0  2  0  0  0  0  0  0  0  0  0
    3.4775    0.5217   -1.5352 C   0  0  1  0  0  0  0  0  0  0  0  0
    4.3821   -0.4020   -0.6255 C   0  0  1  0  0  0  0  0  0  0  0  0
    4.8803    0.2137    0.6826 C   0  0  0  0  0  0  0  0  0  0  0  0
    5.6207   -0.7613   -1.4418 C   0  0  0  0  0  0  0  0  0  0  0  0
    4.7618    1.5954    1.0024 C   0  0  0  0  0  0  0  0  0  0  0  0
    5.5418   -0.5994    1.6479 C   0  0  0  0  0  0  0  0  0  0  0  0
    5.9049   -2.0702   -1.9272 C   0  0  0  0  0  0  0  0  0  0  0  0
    6.5598    0.2539   -1.7787 C   0  0  0  0  0  0  0  0  0  0  0  0
    5.1779    2.1141    2.2413 C   0  0  0  0  0  0  0  0  0  0  0  0
    5.9680   -0.0879    2.8877 C   0  0  0  0  0  0  0  0  0  0  0  0
    7.0318   -2.3361   -2.7290 C   0  0  0  0  0  0  0  0  0  0  0  0
    7.6944   -0.0079   -2.5684 C   0  0  0  0  0  0  0  0  0  0  0  0
    5.7667    1.2681    3.1933 C   0  0  0  0  0  0  0  0  0  0  0  0
    7.9264   -1.3037   -3.0521 C   0  0  0  0  0  0  0  0  0  0  0  0
   -0.9926    0.2217   -1.8709 H   0  0  0  0  0  0  0  0  0  0  0  0
   -2.0129    0.9563   -0.6214 H   0  0  0  0  0  0  0  0  0  0  0  0
   -0.5875    1.8016   -1.1787 H   0  0  0  0  0  0  0  0  0  0  0  0
   -0.9232   -1.9197   -0.3082 H   0  0  0  0  0  0  0  0  0  0  0  0
   -1.9614   -0.9864    0.7831 H   0  0  0  0  0  0  0  0  0  0  0  0
   -0.4935   -1.7080    1.3997 H   0  0  0  0  0  0  0  0  0  0  0  0
    0.3826    1.9683    1.1818 H   0  0  0  0  0  0  0  0  0  0  0  0
   -1.0617    1.1911    1.8088 H   0  0  0  0  0  0  0  0  0  0  0  0
    0.5273    0.5369    2.2081 H   0  0  0  0  0  0  0  0  0  0  0  0
    1.5736   -2.1275    0.5909 H   0  0  0  0  0  0  0  0  0  0  0  0
    2.3509   -0.7546    1.3759 H   0  0  0  0  0  0  0  0  0  0  0  0
    1.5480    1.3813   -1.7507 H   0  0  0  0  0  0  0  0  0  0  0  0
    2.2181    1.6341   -0.1498 H   0  0  0  0  0  0  0  0  0  0  0  0
    3.1224   -2.1056   -1.2461 H   0  0  0  0  0  0  0  0  0  0  0  0
    3.9162   -2.3768    0.2887 H   0  0  0  0  0  0  0  0  0  0  0  0
    3.2957    0.0151   -2.4894 H   0  0  0  0  0  0  0  0  0  0  0  0
    3.9935    1.4509   -1.7876 H   0  0  0  0  0  0  0  0  0  0  0  0
    4.3771    2.2618    0.3365 H   0  0  0  0  0  0  0  0  0  0  0  0
    5.7228   -1.5874    1.4587 H   0  0  0  0  0  0  0  0  0  0  0  0
    5.2955   -2.8594   -1.7115 H   0  0  0  0  0  0  0  0  0  0  0  0
    6.4252    1.2110   -1.4460 H   0  0  0  0  0  0  0  0  0  0  0  0
    5.0525    3.1099    2.4469 H   0  0  0  0  0  0  0  0  0  0  0  0
    6.4231   -0.6997    3.5700 H   0  0  0  0  0  0  0  0  0  0  0  0
    7.2008   -3.2819   -3.0803 H   0  0  0  0  0  0  0  0  0  0  0  0
    8.3491    0.7459   -2.7924 H   0  0  0  0  0  0  0  0  0  0  0  0
    6.0588    1.6426    4.0989 H   0  0  0  0  0  0  0  0  0  0  0  0
    8.7433   -1.4949   -3.6365 H   0  0  0  0  0  0  0  0  0  0  0  0
  1  2  1  0  0  0  0 
  1  3  1  0  0  0  0 
  1  4  1  0  0  0  0 
  1  5  1  0  0  0  0 
  5  6  1  0  0  0  0 
  5  7  1  0  0  0  0 
  6  8  1  0  0  0  0 
  7  9  1  0  0  0  0 
  8 10  1  0  0  0  0 
  9 10  1  0  0  0  0 
 10 11  1  0  0  0  0 
 10 12  1  0  0  0  0 
 11 13  2  0  0  0  0 
 11 14  1  0  0  0  0 
 12 15  2  0  0  0  0 
 12 16  1  0  0  0  0 
 13 17  1  0  0  0  0 
 14 18  2  0  0  0  0 
 15 19  1  0  0  0  0 
 16 20  2  0  0  0  0 
 17 21  2  0  0  0  0 
 18 21  1  0  0  0  0 
 19 22  2  0  0  0  0 
 20 22  1  0  0  0  0 
  2 23  1  0  0  0  0 
  2 24  1  0  0  0  0 
  2 25  1  0  0  0  0 
  3 26  1  0  0  0  0 
  3 27  1  0  0  0  0 
  3 28  1  0  0  0  0 
  4 29  1  0  0  0  0 
  4 30  1  0  0  0  0 
  4 31  1  0  0  0  0 
  6 32  1  0  0  0  0 
  6 33  1  0  0  0  0 
  7 34  1  0  0  0  0 
  7 35  1  0  0  0  0 
  8 36  1  0  0  0  0 
  8 37  1  0  0  0  0 
  9 38  1  0  0  0  0 
  9 39  1  0  0  0  0 
 13 40  1  0  0  0  0 
 14 41  1  0  0  0  0 
 15 42  1  0  0  0  0 
 16 43  1  0  0  0  0 
 17 44  1  0  0  0  0 
 18 45  1  0  0  0  0 
 19 46  1  0  0  0  0 
 20 47  1  0  0  0  0 
 21 48  1  0  0  0  0 
 22 49  1  0  0  0  0 
M  END
> <cdk:Title>
budipine

> <Conformer>
1

> <SuperDrugID>
SD000362

$$$$
