cycloxilic acid
  CDK     0628171802

 32 33  0  0  0  0  0  0  0  0999 V2000
    0.0951    0.1340   -0.0117 C   0  0  0  0  0  0  0  0  0  0  0  0
   -0.3156    1.3991    0.4864 C   0  0  0  0  0  0  0  0  0  0  0  0
    0.4479    2.5633    0.2865 C   0  0  0  0  0  0  0  0  0  0  0  0
    1.6489    2.4977   -0.4344 C   0  0  0  0  0  0  0  0  0  0  0  0
    2.0824    1.2693   -0.9545 C   0  0  0  0  0  0  0  0  0  0  0  0
    1.3138    0.1097   -0.7460 C   0  0  0  0  0  0  0  0  0  0  0  0
   -0.6800   -1.1577    0.1820 C   0  0  1  0  0  0  0  0  0  0  0  0
   -1.2815   -1.8719    3.0965 C   0  0  2  0  0  0  0  0  0  0  0  0
    0.1587   -1.8558    2.5329 C   0  0  1  0  0  0  0  0  0  0  0  0
    0.1527   -2.1903    1.0213 C   0  0  1  0  0  0  0  0  0  0  0  0
   -2.1546   -1.0965    0.7667 C   0  0  1  0  0  0  0  0  0  0  0  0
   -2.2034   -0.9004    2.3220 C   0  0  1  0  0  0  0  0  0  0  0  0
   -0.7912   -1.7557   -1.1171 O   0  0  0  0  0  0  0  0  0  0  0  0
   -3.0684   -0.1640    0.0423 C   0  0  0  0  0  0  0  0  0  0  0  0
   -3.2189   -0.2404   -1.3001 O   0  0  0  0  0  0  0  0  0  0  0  0
   -3.7479    0.7092    0.6310 O   0  0  0  0  0  0  0  0  0  0  0  0
   -1.1809    1.5089    1.0022 H   0  0  0  0  0  0  0  0  0  0  0  0
    0.1263    3.4578    0.6640 H   0  0  0  0  0  0  0  0  0  0  0  0
    2.2024    3.3422   -0.5849 H   0  0  0  0  0  0  0  0  0  0  0  0
    2.9552    1.2185   -1.4849 H   0  0  0  0  0  0  0  0  0  0  0  0
    1.6588   -0.7658   -1.1467 H   0  0  0  0  0  0  0  0  0  0  0  0
   -1.2600   -1.5878    4.1523 H   0  0  0  0  0  0  0  0  0  0  0  0
   -1.6870   -2.8851    3.0306 H   0  0  0  0  0  0  0  0  0  0  0  0
    0.6119   -0.8731    2.6906 H   0  0  0  0  0  0  0  0  0  0  0  0
    0.7646   -2.5935    3.0658 H   0  0  0  0  0  0  0  0  0  0  0  0
   -0.2695   -3.1933    0.8916 H   0  0  0  0  0  0  0  0  0  0  0  0
    1.1861   -2.2491    0.6711 H   0  0  0  0  0  0  0  0  0  0  0  0
   -2.5929   -2.0870    0.5978 H   0  0  0  0  0  0  0  0  0  0  0  0
   -3.2268   -1.0566    2.6734 H   0  0  0  0  0  0  0  0  0  0  0  0
   -1.9249    0.1164    2.5977 H   0  0  0  0  0  0  0  0  0  0  0  0
   -1.2034   -1.0723   -1.6831 H   0  0  0  0  0  0  0  0  0  0  0  0
   -3.8200    0.3800   -1.7657 H   0  0  0  0  0  0  0  0  0  0  0  0
  1  2  2  0  0  0  0 
  2  3  1  0  0  0  0 
  3  4  2  0  0  0  0 
  4  5  1  0  0  0  0 
  5  6  2  0  0  0  0 
  1  6  1  0  0  0  0 
  7  1  1  0  0  0  0 
  8  9  1  0  0  0  0 
  9 10  1  0  0  0  0 
 11 12  1  0  0  0  0 
  8 12  1  0  0  0  0 
  7 10  1  0  0  0  0 
 11  7  1  0  0  0  0 
  7 13  1  0  0  0  0 
 11 14  1  0  0  0  0 
 14 15  1  0  0  0  0 
 14 16  2  0  0  0  0 
  2 17  1  0  0  0  0 
  3 18  1  0  0  0  0 
  4 19  1  0  0  0  0 
  5 20  1  0  0  0  0 
  6 21  1  0  0  0  0 
  8 22  1  0  0  0  0 
  8 23  1  0  0  0  0 
  9 24  1  0  0  0  0 
  9 25  1  0  0  0  0 
 10 26  1  0  0  0  0 
 10 27  1  0  0  0  0 
 11 28  1  0  0  0  0 
 12 29  1  0  0  0  0 
 12 30  1  0  0  0  0 
 13 31  1  0  0  0  0 
 15 32  1  0  0  0  0 
M  END
> <cdk:Title>
cycloxilic acid

> <Conformer>
1

> <SuperDrugID>
SD000559

$$$$
