grazoprevir
  CDK     0628171802

104110  0  0  0  0  0  0  0  0999 V2000
    5.5704    2.6208    7.5561 C   0  0  1  0  0  0  0  0  0  0  0  0
    6.4583    1.3384    7.6866 C   0  0  2  0  0  0  0  0  0  0  0  0
    3.7112    3.3197    5.3700 O   0  0  0  0  0  0  0  0  0  0  0  0
    4.9948    3.8025    5.3557 C   0  0  0  0  0  0  0  0  0  0  0  0
    5.9029    3.5033    6.4052 C   0  0  0  0  0  0  0  0  0  0  0  0
    7.0538    0.7110    6.3860 C   0  0  2  0  0  0  0  0  0  0  0  0
    6.0326    0.3385    5.2648 C   0  0  2  0  0  0  0  0  0  0  0  0
    6.5635    0.6056    3.8253 C   0  0  1  0  0  0  0  0  0  0  0  0
    5.4994    0.2921    2.7342 C   0  0  1  0  0  0  0  0  0  0  0  0
    5.6109    1.0248    1.3770 C   0  0  2  0  0  0  0  0  0  0  0  0
    4.3569    1.4056    0.7998 O   0  0  0  0  0  0  0  0  0  0  0  0
    3.7329    2.5866    1.0581 C   0  0  0  0  0  0  0  0  0  0  0  0
    2.4611    2.7315    0.6024 N   0  0  0  0  0  0  0  0  0  0  0  0
    1.5097    3.7131    1.0565 C   0  0  2  0  0  0  0  0  0  0  0  0
    0.9415    3.1083    2.3111 C   0  0  0  0  0  0  0  0  0  0  0  0
    1.2524    3.4883    3.6138 N   0  0  0  0  0  0  0  0  0  0  0  0
    5.4595    4.4861    4.2763 N   0  0  0  0  0  0  0  0  0  0  0  0
    6.7449    4.9057    4.1562 C   0  0  0  0  0  0  0  0  0  0  0  0
    7.6311    4.6778    5.2383 C   0  0  0  0  0  0  0  0  0  0  0  0
    7.1702    3.9958    6.3174 N   0  0  0  0  0  0  0  0  0  0  0  0
    7.2129    5.5198    2.9789 C   0  0  0  0  0  0  0  0  0  0  0  0
    8.5689    5.8987    2.8733 C   0  0  0  0  0  0  0  0  0  0  0  0
    9.4322    5.7259    3.9761 C   0  0  0  0  0  0  0  0  0  0  0  0
    8.9662    5.1184    5.1564 C   0  0  0  0  0  0  0  0  0  0  0  0
    9.0519    6.4327    1.7092 O   0  0  0  0  0  0  0  0  0  0  0  0
    4.3117    3.4742    1.7258 O   0  0  0  0  0  0  0  0  0  0  0  0
    0.4892    4.1493   -0.0791 C   0  0  1  0  0  0  0  0  0  0  0  0
    5.9104   -0.4756    1.4622 C   0  0  1  0  0  0  0  0  0  0  0  0
   -0.6200    5.0728    0.5291 C   0  0  0  0  0  0  0  0  0  0  0  0
    1.2599    4.9553   -1.1858 C   0  0  0  0  0  0  0  0  0  0  0  0
   -0.2076    2.9434   -0.7971 C   0  0  0  0  0  0  0  0  0  0  0  0
    0.8675    2.7321    4.7852 C   0  0  1  0  0  0  0  0  0  0  0  0
    1.3964    3.5581    5.9846 C   0  0  1  0  0  0  0  0  0  0  0  0
    2.6203    4.2732    5.3925 C   0  0  2  0  0  0  0  0  0  0  0  0
    2.0861    4.6018    3.9820 C   0  0  2  0  0  0  0  0  0  0  0  0
   -0.5686    2.3791    4.9392 C   0  0  0  0  0  0  0  0  0  0  0  0
   -1.5352    3.3372    4.9892 N   0  0  0  0  0  0  0  0  0  0  0  0
   -0.8740    1.1652    5.0332 O   0  0  0  0  0  0  0  0  0  0  0  0
   -2.9166    3.0547    5.2186 C   0  0  2  0  0  0  0  0  0  0  0  0
   -3.2980    2.6742    6.5964 C   0  0  0  0  0  0  0  0  0  0  0  0
   -3.3778    1.3610    6.9158 N   0  0  0  0  0  0  0  0  0  0  0  0
   -3.5021    3.5755    7.4433 O   0  0  0  0  0  0  0  0  0  0  0  0
   -3.6680    2.3675    4.0562 C   0  0  2  0  0  0  0  0  0  0  0  0
   -3.9145    3.8569    4.3482 C   0  0  1  0  0  0  0  0  0  0  0  0
   -3.7247    0.7681    8.4842 S   0  0  1  0  0  0  0  0  0  0  0  0
   -2.4407    1.3642    9.6498 C   0  0  1  0  0  0  0  0  0  0  0  0
   -5.1584    1.3115    8.9511 O   0  0  0  0  0  0  0  0  0  0  0  0
   -3.7481   -0.8346    8.4412 O   0  0  0  0  0  0  0  0  0  0  0  0
   -1.8042    0.3674   10.6273 C   0  0  2  0  0  0  0  0  0  0  0  0
   -1.0119    0.8566    9.4066 C   0  0  2  0  0  0  0  0  0  0  0  0
    9.5956    5.4292    0.8280 C   0  0  0  0  0  0  0  0  0  0  0  0
   -5.2102    4.2203    4.8889 C   0  0  0  0  0  0  0  0  0  0  0  0
   -5.4442    5.4356    5.3924 C   0  0  0  0  0  0  0  0  0  0  0  0
    0.2027    2.1061    2.1543 O   0  0  0  0  0  0  0  0  0  0  0  0
    4.5277    2.2988    7.5054 H   0  0  0  0  0  0  0  0  0  0  0  0
    5.6642    3.2099    8.4727 H   0  0  0  0  0  0  0  0  0  0  0  0
    5.8834    0.5691    8.2107 H   0  0  0  0  0  0  0  0  0  0  0  0
    7.3053    1.5853    8.3328 H   0  0  0  0  0  0  0  0  0  0  0  0
    7.5938   -0.1977    6.6709 H   0  0  0  0  0  0  0  0  0  0  0  0
    7.8104    1.3977    5.9971 H   0  0  0  0  0  0  0  0  0  0  0  0
    5.1121    0.9063    5.3977 H   0  0  0  0  0  0  0  0  0  0  0  0
    5.7679   -0.7189    5.3609 H   0  0  0  0  0  0  0  0  0  0  0  0
    6.8405    1.6600    3.7496 H   0  0  0  0  0  0  0  0  0  0  0  0
    7.4612    0.0057    3.6593 H   0  0  0  0  0  0  0  0  0  0  0  0
    4.4697    0.1083    3.0567 H   0  0  0  0  0  0  0  0  0  0  0  0
    6.4796    1.6760    1.2457 H   0  0  0  0  0  0  0  0  0  0  0  0
    2.1334    2.0375    0.0105 H   0  0  0  0  0  0  0  0  0  0  0  0
    2.0461    4.6257    1.3149 H   0  0  0  0  0  0  0  0  0  0  0  0
    6.5784    5.6717    2.1904 H   0  0  0  0  0  0  0  0  0  0  0  0
   10.4072    6.0282    3.9113 H   0  0  0  0  0  0  0  0  0  0  0  0
    9.6054    4.9835    5.9422 H   0  0  0  0  0  0  0  0  0  0  0  0
    6.9637   -0.7296    1.3317 H   0  0  0  0  0  0  0  0  0  0  0  0
    5.1495   -1.1381    1.0420 H   0  0  0  0  0  0  0  0  0  0  0  0
   -0.1742    5.9247    1.0462 H   0  0  0  0  0  0  0  0  0  0  0  0
   -1.2846    5.4587   -0.2474 H   0  0  0  0  0  0  0  0  0  0  0  0
   -1.2334    4.5234    1.2457 H   0  0  0  0  0  0  0  0  0  0  0  0
    1.7286    5.8348   -0.7385 H   0  0  0  0  0  0  0  0  0  0  0  0
    0.5162    5.3569   -1.9460 H   0  0  0  0  0  0  0  0  0  0  0  0
    2.1106    4.3139   -1.5799 H   0  0  0  0  0  0  0  0  0  0  0  0
   -0.8255    2.3700   -0.1063 H   0  0  0  0  0  0  0  0  0  0  0  0
   -0.8592    3.2947   -1.6024 H   0  0  0  0  0  0  0  0  0  0  0  0
    0.5299    2.2708   -1.2396 H   0  0  0  0  0  0  0  0  0  0  0  0
    1.4470    1.8010    4.7521 H   0  0  0  0  0  0  0  0  0  0  0  0
    0.6654    4.3038    6.3194 H   0  0  0  0  0  0  0  0  0  0  0  0
    1.6620    2.9230    6.8347 H   0  0  0  0  0  0  0  0  0  0  0  0
    2.8580    5.1780    5.9631 H   0  0  0  0  0  0  0  0  0  0  0  0
    1.4787    5.5120    3.9983 H   0  0  0  0  0  0  0  0  0  0  0  0
    2.9341    4.7657    3.3253 H   0  0  0  0  0  0  0  0  0  0  0  0
   -1.2695    4.2647    4.8847 H   0  0  0  0  0  0  0  0  0  0  0  0
   -3.2154    0.7125    6.2127 H   0  0  0  0  0  0  0  0  0  0  0  0
   -4.4658    1.6716    4.3282 H   0  0  0  0  0  0  0  0  0  0  0  0
   -3.0733    2.1534    3.1657 H   0  0  0  0  0  0  0  0  0  0  0  0
   -3.4780    4.5108    3.5894 H   0  0  0  0  0  0  0  0  0  0  0  0
   -2.5040    2.3942   10.0034 H   0  0  0  0  0  0  0  0  0  0  0  0
   -2.1393   -0.6695   10.5778 H   0  0  0  0  0  0  0  0  0  0  0  0
   -1.4881    0.7784   11.5878 H   0  0  0  0  0  0  0  0  0  0  0  0
   -0.2047    1.5603    9.6201 H   0  0  0  0  0  0  0  0  0  0  0  0
   -0.8741    0.1193    8.6128 H   0  0  0  0  0  0  0  0  0  0  0  0
    9.9925    5.9284   -0.0566 H   0  0  0  0  0  0  0  0  0  0  0  0
   10.4146    4.8760    1.2984 H   0  0  0  0  0  0  0  0  0  0  0  0
    8.8222    4.7270    0.5036 H   0  0  0  0  0  0  0  0  0  0  0  0
   -5.9465    3.5537    4.8916 H   0  0  0  0  0  0  0  0  0  0  0  0
   -4.7372    6.1329    5.4107 H   0  0  0  0  0  0  0  0  0  0  0  0
   -6.3392    5.6586    5.7573 H   0  0  0  0  0  0  0  0  0  0  0  0
  1  2  1  0  0  0  0 
  3  4  1  0  0  0  0 
  5  1  1  0  0  0  0 
  2  6  1  0  0  0  0 
  6  7  1  0  0  0  0 
  7  8  1  0  0  0  0 
  9  8  1  0  0  0  0 
  9 10  1  0  0  0  0 
 10 11  1  0  0  0  0 
 11 12  1  0  0  0  0 
 12 13  1  0  0  0  0 
 14 13  1  0  0  0  0 
 14 15  1  0  0  0  0 
 15 16  1  0  0  0  0 
  4 17  1  0  0  0  0 
 18 19  1  0  0  0  0 
 20  5  1  0  0  0  0 
 18 21  1  0  0  0  0 
 21 22  2  0  0  0  0 
 22 23  1  0  0  0  0 
 23 24  2  0  0  0  0 
 24 19  1  0  0  0  0 
 22 25  1  0  0  0  0 
 12 26  2  0  0  0  0 
 14 27  1  0  0  0  0 
  9 28  1  0  0  0  0 
 10 28  1  0  0  0  0 
 27 29  1  0  0  0  0 
 27 30  1  0  0  0  0 
 27 31  1  0  0  0  0 
 20 19  2  0  0  0  0 
 17 18  2  0  0  0  0 
  5  4  2  0  0  0  0 
 32 16  1  0  0  0  0 
 32 33  1  0  0  0  0 
 34 33  1  0  0  0  0 
 34 35  1  0  0  0  0 
 35 16  1  0  0  0  0 
 34  3  1  0  0  0  0 
 32 36  1  0  0  0  0 
 36 37  1  0  0  0  0 
 36 38  2  0  0  0  0 
 39 37  1  0  0  0  0 
 39 40  1  0  0  0  0 
 40 41  1  0  0  0  0 
 40 42  2  0  0  0  0 
 39 43  1  0  0  0  0 
 44 43  1  0  0  0  0 
 39 44  1  0  0  0  0 
 41 45  1  0  0  0  0 
 45 46  1  0  0  0  0 
 45 47  2  0  0  0  0 
 45 48  2  0  0  0  0 
 46 49  1  0  0  0  0 
 49 50  1  0  0  0  0 
 50 46  1  0  0  0  0 
 25 51  1  0  0  0  0 
 44 52  1  0  0  0  0 
 52 53  2  0  0  0  0 
 15 54  2  0  0  0  0 
 55  1  1  0  0  0  0 
 56  1  1  0  0  0  0 
 57  2  1  0  0  0  0 
 58  2  1  0  0  0  0 
 59  6  1  0  0  0  0 
 60  6  1  0  0  0  0 
 61  7  1  0  0  0  0 
 62  7  1  0  0  0  0 
 63  8  1  0  0  0  0 
 64  8  1  0  0  0  0 
  9 65  1  0  0  0  0 
 10 66  1  0  0  0  0 
 67 13  1  0  0  0  0 
 14 68  1  0  0  0  0 
 69 21  1  0  0  0  0 
 70 23  1  0  0  0  0 
 71 24  1  0  0  0  0 
 72 28  1  0  0  0  0 
 73 28  1  0  0  0  0 
 74 29  1  0  0  0  0 
 75 29  1  0  0  0  0 
 76 29  1  0  0  0  0 
 77 30  1  0  0  0  0 
 78 30  1  0  0  0  0 
 79 30  1  0  0  0  0 
 80 31  1  0  0  0  0 
 81 31  1  0  0  0  0 
 82 31  1  0  0  0  0 
 32 83  1  0  0  0  0 
 84 33  1  0  0  0  0 
 85 33  1  0  0  0  0 
 34 86  1  0  0  0  0 
 87 35  1  0  0  0  0 
 88 35  1  0  0  0  0 
 89 37  1  0  0  0  0 
 90 41  1  0  0  0  0 
 91 43  1  0  0  0  0 
 92 43  1  0  0  0  0 
 44 93  1  0  0  0  0 
 94 46  1  0  0  0  0 
 95 49  1  0  0  0  0 
 96 49  1  0  0  0  0 
 97 50  1  0  0  0  0 
 98 50  1  0  0  0  0 
 99 51  1  0  0  0  0 
100 51  1  0  0  0  0 
101 51  1  0  0  0  0 
102 52  1  0  0  0  0 
103 53  1  0  0  0  0 
104 53  1  0  0  0  0 
M  END
> <cdk:Title>
grazoprevir

> <Conformer>
1

> <SuperDrugID>
SD003904

$$$$
