enoxolone
  CDK     0628171801

 80 84  0  0  0  0  0  0  0  0999 V2000
   -1.4916   -1.1661   -2.9248 C   0  0  0  0  0  0  0  0  0  0  0  0
   -1.9096   -1.1769   -1.3963 C   0  0  1  0  0  0  0  0  0  0  0  0
   -0.6849   -1.4191   -0.3845 C   0  0  1  0  0  0  0  0  0  0  0  0
   -2.5855    0.2780   -1.0727 C   0  0  1  0  0  0  0  0  0  0  0  0
   -2.8459   -2.4339   -1.2087 C   0  0  2  0  0  0  0  0  0  0  0  0
    0.1436   -2.7969   -0.5240 C   0  0  2  0  0  0  0  0  0  0  0  0
    0.1043   -0.1529   -0.2254 C   0  0  0  0  0  0  0  0  0  0  0  0
   -3.0489    0.3922    0.4392 C   0  0  0  0  0  0  0  0  0  0  0  0
   -1.5150    1.3302   -1.2750 C   0  0  0  0  0  0  0  0  0  0  0  0
   -3.9014    0.5460   -1.9362 C   0  0  2  0  0  0  0  0  0  0  0  0
   -2.1369   -3.8104   -1.3911 C   0  0  1  0  0  0  0  0  0  0  0  0
    1.0536   -2.7515   -1.8150 C   0  0  0  0  0  0  0  0  0  0  0  0
   -0.9010   -4.0110   -0.4521 C   0  0  1  0  0  0  0  0  0  0  0  0
    1.1043   -3.0221    0.7197 C   0  0  2  0  0  0  0  0  0  0  0  0
    1.0816   -0.0866    0.5570 O   0  0  0  0  0  0  0  0  0  0  0  0
   -0.2625    1.0349   -0.8341 C   0  0  0  0  0  0  0  0  0  0  0  0
   -1.6811    2.5954   -2.0715 C   0  0  1  0  0  0  0  0  0  0  0  0
   -3.7835    1.5489   -3.1072 C   0  0  1  0  0  0  0  0  0  0  0  0
   -0.2944   -5.4944   -0.4266 C   0  0  2  0  0  0  0  0  0  0  0  0
    1.7461   -4.4346    0.8395 C   0  0  2  0  0  0  0  0  0  0  0  0
   -3.1080    2.8940   -2.6878 C   0  0  2  0  0  0  0  0  0  0  0  0
   -1.0531    3.9307   -1.4897 C   0  0  2  0  0  0  0  0  0  0  0  0
    0.4111   -5.9387   -1.7582 C   0  0  0  0  0  0  0  0  0  0  0  0
   -1.4240   -6.5636   -0.1718 C   0  0  0  0  0  0  0  0  0  0  0  0
    0.7091   -5.5848    0.7886 C   0  0  2  0  0  0  0  0  0  0  0  0
   -3.0106    3.7200   -4.0296 C   0  0  0  0  0  0  0  0  0  0  0  0
   -3.9998    3.6884   -1.6628 C   0  0  2  0  0  0  0  0  0  0  0  0
   -1.9342    4.8148   -0.5304 C   0  0  2  0  0  0  0  0  0  0  0  0
    1.4359   -6.8175    0.8195 O   0  0  0  0  0  0  0  0  0  0  0  0
   -3.3599    5.0046   -1.1542 C   0  0  2  0  0  0  0  0  0  0  0  0
   -1.3378    6.1790   -0.3349 C   0  0  0  0  0  0  0  0  0  0  0  0
   -2.0050    4.1742    0.8938 C   0  0  0  0  0  0  0  0  0  0  0  0
   -2.0218    7.1333    0.3433 O   0  0  0  0  0  0  0  0  0  0  0  0
   -0.2033    6.4986   -0.7587 O   0  0  0  0  0  0  0  0  0  0  0  0
   -2.3591   -1.0359   -3.5664 H   0  0  0  0  0  0  0  0  0  0  0  0
   -0.7735   -0.3800   -3.1564 H   0  0  0  0  0  0  0  0  0  0  0  0
   -1.0578   -2.0910   -3.2669 H   0  0  0  0  0  0  0  0  0  0  0  0
   -1.1384   -1.5145    0.6062 H   0  0  0  0  0  0  0  0  0  0  0  0
   -3.6780   -2.4189   -1.9131 H   0  0  0  0  0  0  0  0  0  0  0  0
   -3.2866   -2.4274   -0.2096 H   0  0  0  0  0  0  0  0  0  0  0  0
   -3.6135    1.3053    0.6186 H   0  0  0  0  0  0  0  0  0  0  0  0
   -2.2194    0.4133    1.1472 H   0  0  0  0  0  0  0  0  0  0  0  0
   -3.7081   -0.4279    0.7190 H   0  0  0  0  0  0  0  0  0  0  0  0
   -4.7351    0.8941   -1.3213 H   0  0  0  0  0  0  0  0  0  0  0  0
   -4.2860   -0.3705   -2.3723 H   0  0  0  0  0  0  0  0  0  0  0  0
   -2.9020   -4.5549   -1.1671 H   0  0  0  0  0  0  0  0  0  0  0  0
   -1.8519   -3.9738   -2.4284 H   0  0  0  0  0  0  0  0  0  0  0  0
    1.2197   -1.7313   -2.1611 H   0  0  0  0  0  0  0  0  0  0  0  0
    2.0510   -3.1604   -1.6604 H   0  0  0  0  0  0  0  0  0  0  0  0
    0.6192   -3.3154   -2.6352 H   0  0  0  0  0  0  0  0  0  0  0  0
   -1.3651   -3.9171    0.5395 H   0  0  0  0  0  0  0  0  0  0  0  0
    0.5577   -2.8306    1.6484 H   0  0  0  0  0  0  0  0  0  0  0  0
    1.9405   -2.3205    0.6947 H   0  0  0  0  0  0  0  0  0  0  0  0
    0.4802    1.6757   -0.9721 H   0  0  0  0  0  0  0  0  0  0  0  0
   -1.0546    2.3687   -2.9440 H   0  0  0  0  0  0  0  0  0  0  0  0
   -3.1111    1.0649   -3.8852 H   0  0  0  0  0  0  0  0  0  0  0  0
   -4.8496    1.7818   -3.4403 H   0  0  0  0  0  0  0  0  0  0  0  0
    2.2801   -4.4881    1.7936 H   0  0  0  0  0  0  0  0  0  0  0  0
    2.4965   -4.5813    0.0605 H   0  0  0  0  0  0  0  0  0  0  0  0
   -0.7887    4.5461   -2.3553 H   0  0  0  0  0  0  0  0  0  0  0  0
   -0.1014    3.7493   -0.9921 H   0  0  0  0  0  0  0  0  0  0  0  0
    0.6340   -7.0097   -1.7498 H   0  0  0  0  0  0  0  0  0  0  0  0
   -0.2263   -5.7407   -2.6224 H   0  0  0  0  0  0  0  0  0  0  0  0
    1.3643   -5.4378   -1.9060 H   0  0  0  0  0  0  0  0  0  0  0  0
   -2.0795   -6.6650   -1.0384 H   0  0  0  0  0  0  0  0  0  0  0  0
   -2.0366   -6.2935    0.6898 H   0  0  0  0  0  0  0  0  0  0  0  0
   -1.0078   -7.5554    0.0163 H   0  0  0  0  0  0  0  0  0  0  0  0
    0.1454   -5.5405    1.7265 H   0  0  0  0  0  0  0  0  0  0  0  0
   -4.0071    3.9416   -4.4214 H   0  0  0  0  0  0  0  0  0  0  0  0
   -2.4722    3.1634   -4.8009 H   0  0  0  0  0  0  0  0  0  0  0  0
   -2.4897    4.6678   -3.9029 H   0  0  0  0  0  0  0  0  0  0  0  0
   -4.2137    3.0816   -0.7858 H   0  0  0  0  0  0  0  0  0  0  0  0
   -4.9661    3.9304   -2.1170 H   0  0  0  0  0  0  0  0  0  0  0  0
    0.7639   -7.5200    0.9352 H   0  0  0  0  0  0  0  0  0  0  0  0
   -4.0370    5.4467   -0.4145 H   0  0  0  0  0  0  0  0  0  0  0  0
   -3.3148    5.7116   -1.9882 H   0  0  0  0  0  0  0  0  0  0  0  0
   -2.7007    4.7171    1.5405 H   0  0  0  0  0  0  0  0  0  0  0  0
   -1.0224    4.1759    1.3741 H   0  0  0  0  0  0  0  0  0  0  0  0
   -2.3361    3.1446    0.8407 H   0  0  0  0  0  0  0  0  0  0  0  0
   -1.6290    8.0201    0.4807 H   0  0  0  0  0  0  0  0  0  0  0  0
  2  1  1  0  0  0  0 
  2  3  1  0  0  0  0 
  2  4  1  0  0  0  0 
  2  5  1  0  0  0  0 
  3  6  1  0  0  0  0 
  3  7  1  0  0  0  0 
  4  8  1  0  0  0  0 
  4  9  1  0  0  0  0 
  4 10  1  0  0  0  0 
  5 11  1  0  0  0  0 
  6 12  1  0  0  0  0 
  6 13  1  0  0  0  0 
  6 14  1  0  0  0  0 
  7 15  2  0  0  0  0 
  7 16  1  0  0  0  0 
  9 16  2  0  0  0  0 
 17  9  1  0  0  0  0 
 10 18  1  0  0  0  0 
 13 11  1  0  0  0  0 
 13 19  1  0  0  0  0 
 14 20  1  0  0  0  0 
 17 21  1  0  0  0  0 
 17 22  1  0  0  0  0 
 21 18  1  0  0  0  0 
 19 23  1  0  0  0  0 
 19 24  1  0  0  0  0 
 25 19  1  0  0  0  0 
 25 20  1  0  0  0  0 
 21 26  1  0  0  0  0 
 21 27  1  0  0  0  0 
 28 22  1  0  0  0  0 
 25 29  1  0  0  0  0 
 27 30  1  0  0  0  0 
 28 30  1  0  0  0  0 
 28 31  1  0  0  0  0 
 28 32  1  0  0  0  0 
 31 33  1  0  0  0  0 
 31 34  2  0  0  0  0 
 35  1  1  0  0  0  0 
 36  1  1  0  0  0  0 
 37  1  1  0  0  0  0 
  3 38  1  0  0  0  0 
 39  5  1  0  0  0  0 
 40  5  1  0  0  0  0 
 41  8  1  0  0  0  0 
 42  8  1  0  0  0  0 
 43  8  1  0  0  0  0 
 44 10  1  0  0  0  0 
 45 10  1  0  0  0  0 
 46 11  1  0  0  0  0 
 47 11  1  0  0  0  0 
 48 12  1  0  0  0  0 
 49 12  1  0  0  0  0 
 50 12  1  0  0  0  0 
 13 51  1  0  0  0  0 
 52 14  1  0  0  0  0 
 53 14  1  0  0  0  0 
 54 16  1  0  0  0  0 
 17 55  1  0  0  0  0 
 56 18  1  0  0  0  0 
 57 18  1  0  0  0  0 
 58 20  1  0  0  0  0 
 59 20  1  0  0  0  0 
 60 22  1  0  0  0  0 
 61 22  1  0  0  0  0 
 62 23  1  0  0  0  0 
 63 23  1  0  0  0  0 
 64 23  1  0  0  0  0 
 65 24  1  0  0  0  0 
 66 24  1  0  0  0  0 
 67 24  1  0  0  0  0 
 25 68  1  0  0  0  0 
 69 26  1  0  0  0  0 
 70 26  1  0  0  0  0 
 71 26  1  0  0  0  0 
 72 27  1  0  0  0  0 
 73 27  1  0  0  0  0 
 74 29  1  0  0  0  0 
 75 30  1  0  0  0  0 
 76 30  1  0  0  0  0 
 77 32  1  0  0  0  0 
 78 32  1  0  0  0  0 
 79 32  1  0  0  0  0 
 80 33  1  0  0  0  0 
M  END
> <cdk:Title>
enoxolone

> <Conformer>
1

> <SuperDrugID>
SD002752

$$$$
