amoxapine
  CDK     0628171801

 38 41  0  0  0  0  0  0  0  0999 V2000
    0.5680    5.2762   -3.8171 Cl  0  0  0  0  0  0  0  0  0  0  0  0
   -0.2477    4.3128   -2.6885 C   0  0  0  0  0  0  0  0  0  0  0  0
    0.4555    3.6428   -1.6671 C   0  0  0  0  0  0  0  0  0  0  0  0
   -1.6420    4.1715   -2.7866 C   0  0  0  0  0  0  0  0  0  0  0  0
   -0.2136    2.8006   -0.7409 C   0  0  0  0  0  0  0  0  0  0  0  0
   -2.3273    3.3551   -1.8752 C   0  0  0  0  0  0  0  0  0  0  0  0
    0.5158    2.0853    0.2295 C   0  0  0  0  0  0  0  0  0  0  0  0
   -1.6274    2.6716   -0.8606 C   0  0  0  0  0  0  0  0  0  0  0  0
    0.1886    0.9076    0.6464 N   0  0  0  0  0  0  0  0  0  0  0  0
    1.6654    2.5583    0.7600 N   0  0  0  0  0  0  0  0  0  0  0  0
   -2.3869    1.9366    0.0104 O   0  0  0  0  0  0  0  0  0  0  0  0
   -0.8334    0.1085    0.3739 C   0  0  0  0  0  0  0  0  0  0  0  0
    2.9042    1.8051    0.6886 C   0  0  2  0  0  0  0  0  0  0  0  0
    1.6995    3.7995    1.5017 C   0  0  1  0  0  0  0  0  0  0  0  0
   -2.1091    0.5982    0.0002 C   0  0  0  0  0  0  0  0  0  0  0  0
   -0.6216   -1.2824    0.4778 C   0  0  0  0  0  0  0  0  0  0  0  0
    3.4256    1.5167    2.1189 C   0  0  2  0  0  0  0  0  0  0  0  0
    2.2210    3.5223    2.9372 C   0  0  2  0  0  0  0  0  0  0  0  0
   -3.1456   -0.3077   -0.3042 C   0  0  0  0  0  0  0  0  0  0  0  0
   -1.6564   -2.1813    0.1603 C   0  0  0  0  0  0  0  0  0  0  0  0
    3.4995    2.7706    2.9075 N   0  0  1  0  0  0  0  0  0  0  0  0
   -2.9150   -1.6953   -0.2411 C   0  0  0  0  0  0  0  0  0  0  0  0
    1.4700    3.7644   -1.6138 H   0  0  0  0  0  0  0  0  0  0  0  0
   -2.1664    4.6640   -3.5146 H   0  0  0  0  0  0  0  0  0  0  0  0
   -3.3428    3.2620   -1.9512 H   0  0  0  0  0  0  0  0  0  0  0  0
    3.6494    2.3954    0.1472 H   0  0  0  0  0  0  0  0  0  0  0  0
    2.7918    0.8585    0.1492 H   0  0  0  0  0  0  0  0  0  0  0  0
    2.3695    4.5012    0.9959 H   0  0  0  0  0  0  0  0  0  0  0  0
    0.7175    4.2768    1.5758 H   0  0  0  0  0  0  0  0  0  0  0  0
    0.2896   -1.6468    0.7761 H   0  0  0  0  0  0  0  0  0  0  0  0
    4.4256    1.0808    2.0624 H   0  0  0  0  0  0  0  0  0  0  0  0
    2.7681    0.7967    2.6155 H   0  0  0  0  0  0  0  0  0  0  0  0
    1.4754    2.9488    3.4940 H   0  0  0  0  0  0  0  0  0  0  0  0
    2.3830    4.4669    3.4597 H   0  0  0  0  0  0  0  0  0  0  0  0
   -4.0732    0.0402   -0.5629 H   0  0  0  0  0  0  0  0  0  0  0  0
   -1.4903   -3.1873    0.2206 H   0  0  0  0  0  0  0  0  0  0  0  0
    3.7292    2.5083    3.8704 H   0  0  0  0  0  0  0  0  0  0  0  0
   -3.6654   -2.3497   -0.4767 H   0  0  0  0  0  0  0  0  0  0  0  0
  1  2  1  0  0  0  0 
  2  3  2  0  0  0  0 
  2  4  1  0  0  0  0 
  3  5  1  0  0  0  0 
  4  6  2  0  0  0  0 
  5  7  1  0  0  0  0 
  5  8  2  0  0  0  0 
  6  8  1  0  0  0  0 
  7  9  2  0  0  0  0 
  7 10  1  0  0  0  0 
  8 11  1  0  0  0  0 
  9 12  1  0  0  0  0 
 10 13  1  0  0  0  0 
 10 14  1  0  0  0  0 
 11 15  1  0  0  0  0 
 12 15  2  0  0  0  0 
 12 16  1  0  0  0  0 
 13 17  1  0  0  0  0 
 14 18  1  0  0  0  0 
 15 19  1  0  0  0  0 
 16 20  2  0  0  0  0 
 17 21  1  0  0  0  0 
 18 21  1  0  0  0  0 
 19 22  2  0  0  0  0 
 20 22  1  0  0  0  0 
  3 23  1  0  0  0  0 
  4 24  1  0  0  0  0 
  6 25  1  0  0  0  0 
 13 26  1  0  0  0  0 
 13 27  1  0  0  0  0 
 14 28  1  0  0  0  0 
 14 29  1  0  0  0  0 
 16 30  1  0  0  0  0 
 17 31  1  0  0  0  0 
 17 32  1  0  0  0  0 
 18 33  1  0  0  0  0 
 18 34  1  0  0  0  0 
 19 35  1  0  0  0  0 
 20 36  1  0  0  0  0 
 21 37  1  0  0  0  0 
 22 38  1  0  0  0  0 
M  END
> <cdk:Title>
amoxapine

> <Conformer>
1

> <SuperDrugID>
SD000156

$$$$
