carglumic acid
  CDK     0628171801

 23 22  0  0  0  0  0  0  0  0999 V2000
    0.0394   -2.3884   -0.3893 C   0  0  2  0  0  0  0  0  0  0  0  0
   -0.7974   -3.5550    0.2147 C   0  0  2  0  0  0  0  0  0  0  0  0
   -0.8864   -3.5152    1.7668 C   0  0  2  0  0  0  0  0  0  0  0  0
   -1.6470   -4.6524    2.3191 C   0  0  0  0  0  0  0  0  0  0  0  0
   -2.8379   -4.4509    2.9271 O   0  0  0  0  0  0  0  0  0  0  0  0
   -1.2018   -5.8193    2.2438 O   0  0  0  0  0  0  0  0  0  0  0  0
   -0.5786   -1.1284   -0.1028 N   0  0  0  0  0  0  0  0  0  0  0  0
    0.0750    0.0473    0.0840 C   0  0  0  0  0  0  0  0  0  0  0  0
   -0.6488    1.1435    0.3527 N   0  0  0  0  0  0  0  0  0  0  0  0
    1.3203    0.1594    0.0052 O   0  0  0  0  0  0  0  0  0  0  0  0
    0.1796   -2.5253   -1.8563 C   0  0  0  0  0  0  0  0  0  0  0  0
   -0.9031   -2.4799   -2.6677 O   0  0  0  0  0  0  0  0  0  0  0  0
    1.3029   -2.6899   -2.3832 O   0  0  0  0  0  0  0  0  0  0  0  0
    1.0361   -2.4294    0.0662 H   0  0  0  0  0  0  0  0  0  0  0  0
   -0.3393   -4.5034   -0.0836 H   0  0  0  0  0  0  0  0  0  0  0  0
   -1.8108   -3.5276   -0.1999 H   0  0  0  0  0  0  0  0  0  0  0  0
   -1.3750   -2.5858    2.0740 H   0  0  0  0  0  0  0  0  0  0  0  0
    0.1191   -3.5271    2.2002 H   0  0  0  0  0  0  0  0  0  0  0  0
   -3.3301   -5.2047    3.3165 H   0  0  0  0  0  0  0  0  0  0  0  0
   -1.5487   -1.1112   -0.0452 H   0  0  0  0  0  0  0  0  0  0  0  0
   -0.2083    1.9996    0.4798 H   0  0  0  0  0  0  0  0  0  0  0  0
   -1.6141    1.0798    0.4232 H   0  0  0  0  0  0  0  0  0  0  0  0
   -0.7917   -2.5597   -3.6370 H   0  0  0  0  0  0  0  0  0  0  0  0
  1  2  1  0  0  0  0 
  1  7  1  0  0  0  0 
  1 11  1  0  0  0  0 
  2  3  1  0  0  0  0 
  3  4  1  0  0  0  0 
  4  5  1  0  0  0  0 
  4  6  2  0  0  0  0 
  7  8  1  0  0  0  0 
  8  9  1  0  0  0  0 
  8 10  2  0  0  0  0 
 11 12  1  0  0  0  0 
 11 13  2  0  0  0  0 
  1 14  1  0  0  0  0 
 15  2  1  0  0  0  0 
 16  2  1  0  0  0  0 
 17  3  1  0  0  0  0 
 18  3  1  0  0  0  0 
 19  5  1  0  0  0  0 
 20  7  1  0  0  0  0 
 21  9  1  0  0  0  0 
 22  9  1  0  0  0  0 
 23 12  1  0  0  0  0 
M  END
> <cdk:Title>
carglumic acid

> <Conformer>
1

> <SuperDrugID>
SD002664

$$$$
