bithionol
  CDK     0628171801

 25 26  0  0  0  0  0  0  0  0999 V2000
    1.2755   -1.0753    2.6069 S   0  0  0  0  0  0  0  0  0  0  0  0
    0.5283   -1.8291    4.0137 C   0  0  0  0  0  0  0  0  0  0  0  0
    1.3172    0.6532    2.9343 C   0  0  0  0  0  0  0  0  0  0  0  0
   -0.8264   -1.6039    4.3551 C   0  0  0  0  0  0  0  0  0  0  0  0
    1.2991   -2.7272    4.7812 C   0  0  0  0  0  0  0  0  0  0  0  0
    0.3680    1.5301    2.3587 C   0  0  0  0  0  0  0  0  0  0  0  0
    2.3383    1.1664    3.7594 C   0  0  0  0  0  0  0  0  0  0  0  0
   -1.5846   -0.7448    3.6307 O   0  0  0  0  0  0  0  0  0  0  0  0
   -1.4074   -2.2922    5.4438 C   0  0  0  0  0  0  0  0  0  0  0  0
    0.7186   -3.4214    5.8612 C   0  0  0  0  0  0  0  0  0  0  0  0
   -0.6016    1.0296    1.5469 O   0  0  0  0  0  0  0  0  0  0  0  0
    0.4418    2.9176    2.6221 C   0  0  0  0  0  0  0  0  0  0  0  0
    2.4055    2.5468    4.0279 C   0  0  0  0  0  0  0  0  0  0  0  0
   -3.0345   -2.0615    5.8642 Cl  0  0  0  0  0  0  0  0  0  0  0  0
   -0.6328   -3.2006    6.1907 C   0  0  0  0  0  0  0  0  0  0  0  0
    1.6367   -4.5262    6.7574 Cl  0  0  0  0  0  0  0  0  0  0  0  0
   -0.6503    4.0178    1.9330 Cl  0  0  0  0  0  0  0  0  0  0  0  0
    1.4507    3.4160    3.4677 C   0  0  0  0  0  0  0  0  0  0  0  0
    3.6300    3.1648    5.0199 Cl  0  0  0  0  0  0  0  0  0  0  0  0
    2.2847   -2.8855    4.5492 H   0  0  0  0  0  0  0  0  0  0  0  0
    3.0359    0.5359    4.1639 H   0  0  0  0  0  0  0  0  0  0  0  0
   -1.3456    0.1425    3.9732 H   0  0  0  0  0  0  0  0  0  0  0  0
   -1.1928    1.7794    1.3353 H   0  0  0  0  0  0  0  0  0  0  0  0
   -1.0572   -3.7039    6.9752 H   0  0  0  0  0  0  0  0  0  0  0  0
    1.4894    4.4169    3.6753 H   0  0  0  0  0  0  0  0  0  0  0  0
  1  2  1  0  0  0  0 
  1  3  1  0  0  0  0 
  2  4  2  0  0  0  0 
  2  5  1  0  0  0  0 
  3  6  2  0  0  0  0 
  3  7  1  0  0  0  0 
  4  8  1  0  0  0  0 
  4  9  1  0  0  0  0 
  5 10  2  0  0  0  0 
  6 11  1  0  0  0  0 
  6 12  1  0  0  0  0 
  7 13  2  0  0  0  0 
  9 14  1  0  0  0  0 
  9 15  2  0  0  0  0 
 10 15  1  0  0  0  0 
 10 16  1  0  0  0  0 
 12 17  1  0  0  0  0 
 12 18  2  0  0  0  0 
 13 18  1  0  0  0  0 
 13 19  1  0  0  0  0 
  5 20  1  0  0  0  0 
  7 21  1  0  0  0  0 
  8 22  1  0  0  0  0 
 11 23  1  0  0  0  0 
 15 24  1  0  0  0  0 
 18 25  1  0  0  0  0 
M  END
> <cdk:Title>
bithionol

> <Conformer>
1

> <SuperDrugID>
SD002634

$$$$
