exisulind
  CDK     0628171801

 43 45  0  0  0  0  0  0  0  0999 V2000
   -0.2922   -3.4315    2.8866 C   0  0  1  0  0  0  0  0  0  0  0  0
    1.0579   -2.8379    2.9474 C   0  0  0  0  0  0  0  0  0  0  0  0
   -1.2260   -2.8234    3.8416 C   0  0  0  0  0  0  0  0  0  0  0  0
    1.7608   -2.8549    4.1027 O   0  0  0  0  0  0  0  0  0  0  0  0
    1.5824   -2.3197    1.9360 O   0  0  0  0  0  0  0  0  0  0  0  0
   -1.8201   -3.4773    4.8965 C   0  0  0  0  0  0  0  0  0  0  0  0
   -1.6987   -1.5592    3.8327 C   0  0  0  0  0  0  0  0  0  0  0  0
   -2.7127   -2.5924    5.4997 C   0  0  0  0  0  0  0  0  0  0  0  0
   -1.6848   -4.8025    5.3669 C   0  0  0  0  0  0  0  0  0  0  0  0
   -1.3639   -0.5343    2.8409 C   0  0  0  0  0  0  0  0  0  0  0  0
   -2.5480   -1.3591    4.8958 C   0  0  0  0  0  0  0  0  0  0  0  0
   -3.5905   -3.0577    6.5063 C   0  0  0  0  0  0  0  0  0  0  0  0
   -2.5132   -5.2476    6.4181 C   0  0  0  0  0  0  0  0  0  0  0  0
   -3.0741   -0.1697    5.2710 C   0  0  0  0  0  0  0  0  0  0  0  0
   -3.4773   -4.3810    6.9717 C   0  0  0  0  0  0  0  0  0  0  0  0
   -2.4014   -6.4663    6.8699 F   0  0  0  0  0  0  0  0  0  0  0  0
   -3.8027    0.1002    6.4200 C   0  0  0  0  0  0  0  0  0  0  0  0
   -5.1161    0.6120    6.3236 C   0  0  0  0  0  0  0  0  0  0  0  0
   -3.2379   -0.0885    7.7043 C   0  0  0  0  0  0  0  0  0  0  0  0
   -5.8511    0.9157    7.4857 C   0  0  0  0  0  0  0  0  0  0  0  0
   -3.9789    0.2049    8.8636 C   0  0  0  0  0  0  0  0  0  0  0  0
   -5.2873    0.7144    8.7626 C   0  0  0  0  0  0  0  0  0  0  0  0
   -6.1864    1.0990   10.2421 S   0  0  1  0  0  0  0  0  0  0  0  0
   -5.2618    2.3282   11.2386 C   0  0  0  0  0  0  0  0  0  0  0  0
   -7.6358    1.6965    9.8987 O   0  0  0  0  0  0  0  0  0  0  0  0
   -6.3771   -0.2321   11.1199 O   0  0  0  0  0  0  0  0  0  0  0  0
   -0.7072   -3.3343    1.8798 H   0  0  0  0  0  0  0  0  0  0  0  0
   -0.1718   -4.5010    3.0586 H   0  0  0  0  0  0  0  0  0  0  0  0
    2.6553   -2.4531    4.1324 H   0  0  0  0  0  0  0  0  0  0  0  0
   -1.0054   -5.4463    4.9577 H   0  0  0  0  0  0  0  0  0  0  0  0
   -0.7943   -0.9177    1.9954 H   0  0  0  0  0  0  0  0  0  0  0  0
   -2.2779   -0.1015    2.4328 H   0  0  0  0  0  0  0  0  0  0  0  0
   -0.7775    0.2574    3.3107 H   0  0  0  0  0  0  0  0  0  0  0  0
   -4.3171   -2.4637    6.9027 H   0  0  0  0  0  0  0  0  0  0  0  0
   -2.9212    0.6213    4.6901 H   0  0  0  0  0  0  0  0  0  0  0  0
   -4.1028   -4.7101    7.7112 H   0  0  0  0  0  0  0  0  0  0  0  0
   -5.5486    0.7632    5.4070 H   0  0  0  0  0  0  0  0  0  0  0  0
   -2.2832   -0.4435    7.8073 H   0  0  0  0  0  0  0  0  0  0  0  0
   -6.7980    1.2856    7.3887 H   0  0  0  0  0  0  0  0  0  0  0  0
   -3.5559    0.0456    9.7808 H   0  0  0  0  0  0  0  0  0  0  0  0
   -4.3622    1.8668   11.6484 H   0  0  0  0  0  0  0  0  0  0  0  0
   -5.8907    2.6828   12.0565 H   0  0  0  0  0  0  0  0  0  0  0  0
   -4.9797    3.1732   10.6073 H   0  0  0  0  0  0  0  0  0  0  0  0
  1  2  1  0  0  0  0 
  1  3  1  0  0  0  0 
  2  4  1  0  0  0  0 
  2  5  2  0  0  0  0 
  3  6  1  0  0  0  0 
  3  7  2  0  0  0  0 
  6  8  2  0  0  0  0 
  6  9  1  0  0  0  0 
  7 10  1  0  0  0  0 
  7 11  1  0  0  0  0 
  8 11  1  0  0  0  0 
  8 12  1  0  0  0  0 
  9 13  2  0  0  0  0 
 11 14  2  0  0  0  0 
 12 15  2  0  0  0  0 
 13 15  1  0  0  0  0 
 13 16  1  0  0  0  0 
 14 17  1  0  0  0  0 
 17 18  2  0  0  0  0 
 17 19  1  0  0  0  0 
 18 20  1  0  0  0  0 
 19 21  2  0  0  0  0 
 20 22  2  0  0  0  0 
 21 22  1  0  0  0  0 
 22 23  1  0  0  0  0 
 23 24  1  0  0  0  0 
 23 25  2  0  0  0  0 
 23 26  2  0  0  0  0 
  1 27  1  0  0  0  0 
  1 28  1  0  0  0  0 
  4 29  1  0  0  0  0 
  9 30  1  0  0  0  0 
 10 31  1  0  0  0  0 
 10 32  1  0  0  0  0 
 10 33  1  0  0  0  0 
 12 34  1  0  0  0  0 
 14 35  1  0  0  0  0 
 15 36  1  0  0  0  0 
 18 37  1  0  0  0  0 
 19 38  1  0  0  0  0 
 20 39  1  0  0  0  0 
 21 40  1  0  0  0  0 
 24 41  1  0  0  0  0 
 24 42  1  0  0  0  0 
 24 43  1  0  0  0  0 
M  END
> <cdk:Title>
exisulind

> <Conformer>
1

> <SuperDrugID>
SD002786

$$$$
