eledoisin
  CDK     0628171801

168170  0  0  0  0  0  0  0  0999 V2000
   -1.9536  -13.6112   11.5388 C   0  0  0  0  0  0  0  0  0  0  0  0
   -1.3390  -13.2731   10.3430 N   0  0  0  0  0  0  0  0  0  0  0  0
    1.3930  -12.2013   11.2379 N   0  0  0  0  0  0  0  0  0  0  0  0
    2.6334   -9.5950   13.0538 N   0  0  0  0  0  0  0  0  0  0  0  0
    2.2430   -6.4913   13.2496 N   0  0  0  0  0  0  0  0  0  0  0  0
    0.0788   -5.1506   11.0471 N   0  0  0  0  0  0  0  0  0  0  0  0
   -0.0684   -3.0741    8.3098 N   0  0  0  0  0  0  0  0  0  0  0  0
   -1.9267   -2.9104    6.1168 N   0  0  0  0  0  0  0  0  0  0  0  0
   -4.1716   -2.6319    3.3285 N   0  0  0  0  0  0  0  0  0  0  0  0
   -5.7101    0.2561    2.8604 N   0  0  0  0  0  0  0  0  0  0  0  0
   -3.8200    2.1073    0.8150 N   0  0  0  0  0  0  0  0  0  0  0  0
   -3.5496    3.2928   -1.6755 N   0  0  0  0  0  0  0  0  0  0  0  0
   -1.3524  -14.3761   12.3326 O   0  0  0  0  0  0  0  0  0  0  0  0
   -3.3127  -13.1361   11.9320 C   0  0  1  0  0  0  0  0  0  0  0  0
   -3.8088  -11.4530   13.6865 C   0  0  1  0  0  0  0  0  0  0  0  0
   -4.0687  -12.8264   14.0997 C   0  0  0  0  0  0  0  0  0  0  0  0
   -3.7922  -13.7097   13.1385 N   0  0  0  0  0  0  0  0  0  0  0  0
   -3.3928  -11.6073   12.2071 C   0  0  2  0  0  0  0  0  0  0  0  0
   -4.4932  -13.1517   15.2313 O   0  0  0  0  0  0  0  0  0  0  0  0
    1.0778  -13.4848   10.8933 C   0  0  0  0  0  0  0  0  0  0  0  0
   -0.0414  -13.7602    9.9523 C   0  0  2  0  0  0  0  0  0  0  0  0
    0.2424  -13.1313    8.5644 C   0  0  2  0  0  0  0  0  0  0  0  0
   -1.1440  -12.7461    8.0407 C   0  0  2  0  0  0  0  0  0  0  0  0
   -1.9369  -12.4553    9.3250 C   0  0  1  0  0  0  0  0  0  0  0  0
    1.7592  -14.4548   11.3024 O   0  0  0  0  0  0  0  0  0  0  0  0
    2.3069  -10.9191   13.0833 C   0  0  0  0  0  0  0  0  0  0  0  0
    3.5304  -11.1396   10.8456 C   0  0  2  0  0  0  0  0  0  0  0  0
    4.7893  -10.8033   11.4281 O   0  0  0  0  0  0  0  0  0  0  0  0
    2.5940  -11.7873   11.9076 C   0  0  2  0  0  0  0  0  0  0  0  0
    1.8428  -11.4475   14.1216 O   0  0  0  0  0  0  0  0  0  0  0  0
    1.9183   -7.5609   14.0344 C   0  0  0  0  0  0  0  0  0  0  0  0
    6.1620   -6.5781   14.6057 C   0  0  1  0  0  0  0  0  0  0  0  0
    4.8771   -7.2934   15.1137 C   0  0  1  0  0  0  0  0  0  0  0  0
    4.3671   -8.3456   14.0854 C   0  0  1  0  0  0  0  0  0  0  0  0
    2.8486   -8.7137   14.1601 C   0  0  2  0  0  0  0  0  0  0  0  0
    7.9306   -4.9031   15.0902 N   0  0  1  0  0  0  0  0  0  0  0  0
    6.7497   -5.5844   15.6339 C   0  0  1  0  0  0  0  0  0  0  0  0
    0.8484   -7.5845   14.6890 O   0  0  0  0  0  0  0  0  0  0  0  0
    1.3219   -5.0893   11.6019 C   0  0  0  0  0  0  0  0  0  0  0  0
    2.2510   -4.1087   13.7487 C   0  0  2  0  0  0  0  0  0  0  0  0
    1.5906   -2.7990   13.5890 C   0  0  0  0  0  0  0  0  0  0  0  0
    2.1607   -1.8383   12.8290 O   0  0  0  0  0  0  0  0  0  0  0  0
    0.5040   -2.5566   14.1595 O   0  0  0  0  0  0  0  0  0  0  0  0
    1.4916   -5.2833   13.0637 C   0  0  2  0  0  0  0  0  0  0  0  0
    2.3389   -4.8971   10.8917 O   0  0  0  0  0  0  0  0  0  0  0  0
   -0.7495   -3.8128    9.2335 C   0  0  0  0  0  0  0  0  0  0  0  0
   -1.2033   -6.2918    9.3369 C   0  0  0  0  0  0  0  0  0  0  0  0
   -0.2160   -5.1367    9.6451 C   0  0  2  0  0  0  0  0  0  0  0  0
   -1.8339   -3.4060    9.7170 O   0  0  0  0  0  0  0  0  0  0  0  0
   -0.8309   -2.1275    6.3311 C   0  0  0  0  0  0  0  0  0  0  0  0
    0.6582   -0.7694    7.9428 C   0  0  2  0  0  0  0  0  0  0  0  0
    0.2846    0.6034    7.4929 C   0  0  0  0  0  0  0  0  0  0  0  0
   -0.6813    1.3512    8.2092 C   0  0  0  0  0  0  0  0  0  0  0  0
   -1.0454    2.6453    7.7935 C   0  0  0  0  0  0  0  0  0  0  0  0
   -0.4471    3.2128    6.6544 C   0  0  0  0  0  0  0  0  0  0  0  0
    0.5137    2.4844    5.9312 C   0  0  0  0  0  0  0  0  0  0  0  0
    0.8799    1.1916    6.3499 C   0  0  0  0  0  0  0  0  0  0  0  0
   -0.4767   -1.8221    7.7395 C   0  0  2  0  0  0  0  0  0  0  0  0
   -0.1280   -1.7073    5.3811 O   0  0  0  0  0  0  0  0  0  0  0  0
   -3.7715   -2.8037    4.6156 C   0  0  0  0  0  0  0  0  0  0  0  0
   -2.3421   -5.0477    5.0391 C   0  0  2  0  0  0  0  0  0  0  0  0
   -3.4417   -5.5704    6.1464 C   0  0  0  0  0  0  0  0  0  0  0  0
   -2.4131   -3.4300    4.8697 C   0  0  2  0  0  0  0  0  0  0  0  0
   -1.4534   -5.7142    2.6596 C   0  0  0  0  0  0  0  0  0  0  0  0
   -2.6283   -5.8509    3.6562 C   0  0  2  0  0  0  0  0  0  0  0  0
   -4.5245   -2.5031    5.5752 O   0  0  0  0  0  0  0  0  0  0  0  0
   -5.3109   -0.8858    2.2308 C   0  0  0  0  0  0  0  0  0  0  0  0
   -5.4572   -2.1769    2.9172 C   0  0  2  0  0  0  0  0  0  0  0  0
   -4.8167   -0.8682    1.0767 O   0  0  0  0  0  0  0  0  0  0  0  0
   -4.3186    2.0344    2.0790 C   0  0  0  0  0  0  0  0  0  0  0  0
   -7.3693    4.9100    3.6205 C   0  0  0  0  0  0  0  0  0  0  0  0
   -6.5605    2.5265    3.1528 C   0  0  2  0  0  0  0  0  0  0  0  0
   -5.7119    1.5606    2.2729 C   0  0  2  0  0  0  0  0  0  0  0  0
   -7.6916    3.9259    1.2846 C   0  0  0  0  0  0  0  0  0  0  0  0
   -6.7825    3.9521    2.5476 C   0  0  1  0  0  0  0  0  0  0  0  0
   -3.6202    2.3261    3.0805 O   0  0  0  0  0  0  0  0  0  0  0  0
   -2.5303    3.3351   -0.7941 C   0  0  0  0  0  0  0  0  0  0  0  0
   -0.0977    1.5584    0.1267 C   0  0  1  0  0  0  0  0  0  0  0  0
   -1.5992    1.2554    0.3457 C   0  0  2  0  0  0  0  0  0  0  0  0
   -2.4977    2.5248    0.4523 C   0  0  2  0  0  0  0  0  0  0  0  0
    2.5929    0.6576   -0.1073 C   0  0  0  0  0  0  0  0  0  0  0  0
    0.9062    0.0373    0.1744 S   0  0  0  0  0  0  0  0  0  0  0  0
   -1.5844    4.1116   -1.0600 O   0  0  0  0  0  0  0  0  0  0  0  0
    0.7900  -11.5022   10.9383 H   0  0  0  0  0  0  0  0  0  0  0  0
    2.8412   -9.2247   12.1830 H   0  0  0  0  0  0  0  0  0  0  0  0
    3.0887   -6.5421   12.7784 H   0  0  0  0  0  0  0  0  0  0  0  0
   -0.6719   -5.2535   11.6538 H   0  0  0  0  0  0  0  0  0  0  0  0
    0.7645   -3.4487    7.9791 H   0  0  0  0  0  0  0  0  0  0  0  0
   -2.4311   -3.1603    6.9061 H   0  0  0  0  0  0  0  0  0  0  0  0
   -3.5341   -2.8426    2.6269 H   0  0  0  0  0  0  0  0  0  0  0  0
   -6.0286    0.1735    3.7755 H   0  0  0  0  0  0  0  0  0  0  0  0
   -4.4095    1.8291    0.0949 H   0  0  0  0  0  0  0  0  0  0  0  0
   -3.5260    3.8469   -2.4724 H   0  0  0  0  0  0  0  0  0  0  0  0
   -4.3097    2.7114   -1.5165 H   0  0  0  0  0  0  0  0  0  0  0  0
   -4.0214  -13.4237   11.1516 H   0  0  0  0  0  0  0  0  0  0  0  0
   -4.7072  -10.8392   13.7875 H   0  0  0  0  0  0  0  0  0  0  0  0
   -3.0003  -11.0315   14.2898 H   0  0  0  0  0  0  0  0  0  0  0  0
   -3.9098  -14.6661   13.2549 H   0  0  0  0  0  0  0  0  0  0  0  0
   -4.1469  -11.1544   11.5562 H   0  0  0  0  0  0  0  0  0  0  0  0
   -2.4417  -11.0955   12.0339 H   0  0  0  0  0  0  0  0  0  0  0  0
   -0.1430  -14.8439    9.8140 H   0  0  0  0  0  0  0  0  0  0  0  0
    0.7420  -13.8403    7.8980 H   0  0  0  0  0  0  0  0  0  0  0  0
    0.8535  -12.2254    8.6331 H   0  0  0  0  0  0  0  0  0  0  0  0
   -1.5839  -13.5883    7.4976 H   0  0  0  0  0  0  0  0  0  0  0  0
   -1.1065  -11.8735    7.3834 H   0  0  0  0  0  0  0  0  0  0  0  0
   -2.9900  -12.6892    9.1500 H   0  0  0  0  0  0  0  0  0  0  0  0
   -1.8401  -11.4007    9.5981 H   0  0  0  0  0  0  0  0  0  0  0  0
    3.7078  -11.8326   10.0202 H   0  0  0  0  0  0  0  0  0  0  0  0
    3.0774  -10.2358   10.4329 H   0  0  0  0  0  0  0  0  0  0  0  0
    5.2632  -10.2786   10.7498 H   0  0  0  0  0  0  0  0  0  0  0  0
    3.1458  -12.6506   12.2961 H   0  0  0  0  0  0  0  0  0  0  0  0
    6.9212   -7.3288   14.3622 H   0  0  0  0  0  0  0  0  0  0  0  0
    5.9246   -6.0273   13.6881 H   0  0  0  0  0  0  0  0  0  0  0  0
    5.0856   -7.7932   16.0643 H   0  0  0  0  0  0  0  0  0  0  0  0
    4.1134   -6.5346   15.2994 H   0  0  0  0  0  0  0  0  0  0  0  0
    4.5839   -7.9901   13.0724 H   0  0  0  0  0  0  0  0  0  0  0  0
    4.9604   -9.2569   14.2221 H   0  0  0  0  0  0  0  0  0  0  0  0
    2.6691   -9.2205   15.1146 H   0  0  0  0  0  0  0  0  0  0  0  0
    8.3478   -4.3713   15.8569 H   0  0  0  0  0  0  0  0  0  0  0  0
    8.6053   -5.6243   14.8275 H   0  0  0  0  0  0  0  0  0  0  0  0
    6.0042   -4.8294   15.8921 H   0  0  0  0  0  0  0  0  0  0  0  0
    7.0407   -6.1180   16.5406 H   0  0  0  0  0  0  0  0  0  0  0  0
    2.3306   -4.3107   14.8205 H   0  0  0  0  0  0  0  0  0  0  0  0
    3.2714   -4.0454   13.3539 H   0  0  0  0  0  0  0  0  0  0  0  0
    1.7143   -0.9749   12.7114 H   0  0  0  0  0  0  0  0  0  0  0  0
    0.5073   -5.3694   13.5366 H   0  0  0  0  0  0  0  0  0  0  0  0
   -1.4107   -6.3343    8.2666 H   0  0  0  0  0  0  0  0  0  0  0  0
   -2.1480   -6.1607    9.8713 H   0  0  0  0  0  0  0  0  0  0  0  0
   -0.7672   -7.2487    9.6377 H   0  0  0  0  0  0  0  0  0  0  0  0
    0.6911   -5.3513    9.0687 H   0  0  0  0  0  0  0  0  0  0  0  0
    0.9111   -0.7196    9.0067 H   0  0  0  0  0  0  0  0  0  0  0  0
    1.5627   -1.1094    7.4276 H   0  0  0  0  0  0  0  0  0  0  0  0
   -1.1270    0.9566    9.0414 H   0  0  0  0  0  0  0  0  0  0  0  0
   -1.7459    3.1728    8.3195 H   0  0  0  0  0  0  0  0  0  0  0  0
   -0.7123    4.1528    6.3512 H   0  0  0  0  0  0  0  0  0  0  0  0
    0.9449    2.8941    5.0990 H   0  0  0  0  0  0  0  0  0  0  0  0
    1.5800    0.6798    5.8077 H   0  0  0  0  0  0  0  0  0  0  0  0
   -1.3788   -1.4393    8.2270 H   0  0  0  0  0  0  0  0  0  0  0  0
   -1.3458   -5.3209    5.4022 H   0  0  0  0  0  0  0  0  0  0  0  0
   -3.3251   -5.1299    7.1699 H   0  0  0  0  0  0  0  0  0  0  0  0
   -4.5097   -5.3589    5.8815 H   0  0  0  0  0  0  0  0  0  0  0  0
   -3.4268   -6.6759    6.3250 H   0  0  0  0  0  0  0  0  0  0  0  0
   -1.7580   -3.0131    4.0554 H   0  0  0  0  0  0  0  0  0  0  0  0
   -1.6234   -6.3684    1.7993 H   0  0  0  0  0  0  0  0  0  0  0  0
   -0.5127   -6.0042    3.1318 H   0  0  0  0  0  0  0  0  0  0  0  0
   -1.3752   -4.6868    2.3015 H   0  0  0  0  0  0  0  0  0  0  0  0
   -3.5415   -5.5297    3.0890 H   0  0  0  0  0  0  0  0  0  0  0  0
   -2.7718   -6.9591    3.7804 H   0  0  0  0  0  0  0  0  0  0  0  0
   -6.1506   -2.0745    3.7583 H   0  0  0  0  0  0  0  0  0  0  0  0
   -5.8867   -2.9101    2.2283 H   0  0  0  0  0  0  0  0  0  0  0  0
   -6.6883    4.9899    4.4710 H   0  0  0  0  0  0  0  0  0  0  0  0
   -8.3332    4.5405    3.9783 H   0  0  0  0  0  0  0  0  0  0  0  0
   -7.5066    5.9106    3.2050 H   0  0  0  0  0  0  0  0  0  0  0  0
   -6.0706    2.6172    4.1284 H   0  0  0  0  0  0  0  0  0  0  0  0
   -7.5389    2.0686    3.3352 H   0  0  0  0  0  0  0  0  0  0  0  0
   -6.2149    1.4618    1.3059 H   0  0  0  0  0  0  0  0  0  0  0  0
   -7.9000    4.9417    0.9430 H   0  0  0  0  0  0  0  0  0  0  0  0
   -8.6416    3.4329    1.5040 H   0  0  0  0  0  0  0  0  0  0  0  0
   -7.2034    3.3957    0.4646 H   0  0  0  0  0  0  0  0  0  0  0  0
   -5.8131    4.3662    2.2505 H   0  0  0  0  0  0  0  0  0  0  0  0
    0.0481    2.0261   -0.8473 H   0  0  0  0  0  0  0  0  0  0  0  0
    0.2611    2.2389    0.9019 H   0  0  0  0  0  0  0  0  0  0  0  0
   -1.6953    0.6896    1.2785 H   0  0  0  0  0  0  0  0  0  0  0  0
   -1.9570    0.6152   -0.4661 H   0  0  0  0  0  0  0  0  0  0  0  0
   -2.0969    3.1715    1.2408 H   0  0  0  0  0  0  0  0  0  0  0  0
    3.2900   -0.1799   -0.1571 H   0  0  0  0  0  0  0  0  0  0  0  0
    2.8802    1.3186    0.7102 H   0  0  0  0  0  0  0  0  0  0  0  0
    2.6244    1.2122   -1.0454 H   0  0  0  0  0  0  0  0  0  0  0  0
  1  2  1  0  0  0  0 
 20  3  1  0  0  0  0 
 26  4  1  0  0  0  0 
 31  5  1  0  0  0  0 
 39  6  1  0  0  0  0 
 46  7  1  0  0  0  0 
 50  8  1  0  0  0  0 
 60  9  1  0  0  0  0 
 67 10  1  0  0  0  0 
 70 11  1  0  0  0  0 
 77 12  1  0  0  0  0 
  1 13  2  0  0  0  0 
 14  1  1  0  0  0  0 
 15 16  1  0  0  0  0 
 16 17  1  0  0  0  0 
 15 18  1  0  0  0  0 
 17 14  1  0  0  0  0 
 14 18  1  0  0  0  0 
 16 19  2  0  0  0  0 
 25 20  2  0  0  0  0 
 21 20  1  0  0  0  0 
 21 22  1  0  0  0  0 
 22 23  1  0  0  0  0 
 23 24  1  0  0  0  0 
 24  2  1  0  0  0  0 
 21  2  1  0  0  0  0 
 29  3  1  0  0  0  0 
 29 27  1  0  0  0  0 
 27 28  1  0  0  0  0 
 29 26  1  0  0  0  0 
 26 30  2  0  0  0  0 
 36 37  1  0  0  0  0 
 37 32  1  0  0  0  0 
 32 33  1  0  0  0  0 
 33 34  1  0  0  0  0 
 34 35  1  0  0  0  0 
 35  4  1  0  0  0  0 
 35 31  1  0  0  0  0 
 31 38  2  0  0  0  0 
 44  5  1  0  0  0  0 
 44 40  1  0  0  0  0 
 40 41  1  0  0  0  0 
 41 42  1  0  0  0  0 
 41 43  2  0  0  0  0 
 44 39  1  0  0  0  0 
 39 45  2  0  0  0  0 
 47 48  1  0  0  0  0 
 48  6  1  0  0  0  0 
 48 46  1  0  0  0  0 
 46 49  2  0  0  0  0 
 58  7  1  0  0  0  0 
 58 51  1  0  0  0  0 
 51 52  1  0  0  0  0 
 52 53  2  0  0  0  0 
 53 54  1  0  0  0  0 
 54 55  2  0  0  0  0 
 55 56  1  0  0  0  0 
 56 57  2  0  0  0  0 
 52 57  1  0  0  0  0 
 58 50  1  0  0  0  0 
 50 59  2  0  0  0  0 
 64 65  1  0  0  0  0 
 65 61  1  0  0  0  0 
 61 62  1  0  0  0  0 
 61 63  1  0  0  0  0 
 63  8  1  0  0  0  0 
 63 60  1  0  0  0  0 
 60 66  2  0  0  0  0 
  9 68  1  0  0  0  0 
 68 67  1  0  0  0  0 
 67 69  2  0  0  0  0 
 74 75  1  0  0  0  0 
 75 71  1  0  0  0  0 
 75 72  1  0  0  0  0 
 72 73  1  0  0  0  0 
 73 10  1  0  0  0  0 
 73 70  1  0  0  0  0 
 70 76  2  0  0  0  0 
 81 82  1  0  0  0  0 
 82 78  1  0  0  0  0 
 78 79  1  0  0  0  0 
 79 80  1  0  0  0  0 
 80 11  1  0  0  0  0 
 80 77  1  0  0  0  0 
 77 83  2  0  0  0  0 
  3 84  1  0  0  0  0 
  4 85  1  0  0  0  0 
  5 86  1  0  0  0  0 
  6 87  1  0  0  0  0 
  7 88  1  0  0  0  0 
  8 89  1  0  0  0  0 
  9 90  1  0  0  0  0 
 10 91  1  0  0  0  0 
 11 92  1  0  0  0  0 
 12 93  1  0  0  0  0 
 12 94  1  0  0  0  0 
 14 95  1  0  0  0  0 
 15 96  1  0  0  0  0 
 15 97  1  0  0  0  0 
 17 98  1  0  0  0  0 
 18 99  1  0  0  0  0 
 18100  1  0  0  0  0 
 21101  1  0  0  0  0 
 22102  1  0  0  0  0 
 22103  1  0  0  0  0 
 23104  1  0  0  0  0 
 23105  1  0  0  0  0 
 24106  1  0  0  0  0 
 24107  1  0  0  0  0 
 27108  1  0  0  0  0 
 27109  1  0  0  0  0 
 28110  1  0  0  0  0 
 29111  1  0  0  0  0 
 32112  1  0  0  0  0 
 32113  1  0  0  0  0 
 33114  1  0  0  0  0 
 33115  1  0  0  0  0 
 34116  1  0  0  0  0 
 34117  1  0  0  0  0 
 35118  1  0  0  0  0 
 36119  1  0  0  0  0 
 36120  1  0  0  0  0 
 37121  1  0  0  0  0 
 37122  1  0  0  0  0 
 40123  1  0  0  0  0 
 40124  1  0  0  0  0 
 42125  1  0  0  0  0 
 44126  1  0  0  0  0 
 47127  1  0  0  0  0 
 47128  1  0  0  0  0 
 47129  1  0  0  0  0 
 48130  1  0  0  0  0 
 51131  1  0  0  0  0 
 51132  1  0  0  0  0 
 53133  1  0  0  0  0 
 54134  1  0  0  0  0 
 55135  1  0  0  0  0 
 56136  1  0  0  0  0 
 57137  1  0  0  0  0 
 58138  1  0  0  0  0 
 61139  1  0  0  0  0 
 62140  1  0  0  0  0 
 62141  1  0  0  0  0 
 62142  1  0  0  0  0 
 63143  1  0  0  0  0 
 64144  1  0  0  0  0 
 64145  1  0  0  0  0 
 64146  1  0  0  0  0 
 65147  1  0  0  0  0 
 65148  1  0  0  0  0 
 68149  1  0  0  0  0 
 68150  1  0  0  0  0 
 71151  1  0  0  0  0 
 71152  1  0  0  0  0 
 71153  1  0  0  0  0 
 72154  1  0  0  0  0 
 72155  1  0  0  0  0 
 73156  1  0  0  0  0 
 74157  1  0  0  0  0 
 74158  1  0  0  0  0 
 74159  1  0  0  0  0 
 75160  1  0  0  0  0 
 78161  1  0  0  0  0 
 78162  1  0  0  0  0 
 79163  1  0  0  0  0 
 79164  1  0  0  0  0 
 80165  1  0  0  0  0 
 81166  1  0  0  0  0 
 81167  1  0  0  0  0 
 81168  1  0  0  0  0 
M  END
> <cdk:Title>
eledoisin

> <Conformer>
1

> <SuperDrugID>
SD002597

$$$$
