ciclesonide
  CDK     0628171802

 83 88  0  0  0  0  0  0  0  0999 V2000
    1.0209   -4.0187   -0.3224 C   0  0  0  0  0  0  0  0  0  0  0  0
    0.7076   -2.9221   -1.2653 C   0  0  1  0  0  0  0  0  0  0  0  0
    0.6153   -3.8620    0.8534 O   0  0  0  0  0  0  0  0  0  0  0  0
    1.7886   -5.2804   -0.6155 C   0  0  2  0  0  0  0  0  0  0  0  0
    1.7844   -1.9745   -1.2920 O   0  0  0  0  0  0  0  0  0  0  0  0
    3.1975   -5.3705    0.0951 C   0  0  2  0  0  0  0  0  0  0  0  0
    2.0902   -5.7058   -2.0875 C   0  0  1  0  0  0  0  0  0  0  0  0
    0.9173   -6.3442   -0.1978 O   0  0  0  0  0  0  0  0  0  0  0  0
    1.7963   -0.7805   -1.9598 C   0  0  0  0  0  0  0  0  0  0  0  0
    3.9818   -4.0198   -0.1445 C   0  0  0  0  0  0  0  0  0  0  0  0
    3.8096   -6.6070   -0.6430 C   0  0  1  0  0  0  0  0  0  0  0  0
    3.1727   -5.7109    1.6287 C   0  0  1  0  0  0  0  0  0  0  0  0
    3.5173   -6.3186   -2.1296 C   0  0  1  0  0  0  0  0  0  0  0  0
    1.1486   -6.7264   -2.4391 O   0  0  0  0  0  0  0  0  0  0  0  0
    0.2194   -6.8046   -1.3602 C   0  0  1  0  0  0  0  0  0  0  0  0
    2.9473    0.1503   -1.8303 C   0  0  2  0  0  0  0  0  0  0  0  0
    0.8222   -0.4524   -2.6796 O   0  0  0  0  0  0  0  0  0  0  0  0
    5.2521   -6.9935   -0.1677 C   0  0  1  0  0  0  0  0  0  0  0  0
    4.5433   -6.1899    2.2072 C   0  0  1  0  0  0  0  0  0  0  0  0
   -0.3174   -8.2487   -1.1068 C   0  0  1  0  0  0  0  0  0  0  0  0
    4.2486   -0.4523   -2.4228 C   0  0  0  0  0  0  0  0  0  0  0  0
    3.1489    0.6011   -0.3594 C   0  0  0  0  0  0  0  0  0  0  0  0
    5.2069   -7.3537    1.3739 C   0  0  2  0  0  0  0  0  0  0  0  0
    5.8297   -8.1769   -1.0064 C   0  0  1  0  0  0  0  0  0  0  0  0
    5.4181   -5.0829    2.3981 O   0  0  0  0  0  0  0  0  0  0  0  0
   -1.5100   -8.2089   -0.0968 C   0  0  2  0  0  0  0  0  0  0  0  0
   -0.7176   -8.9935   -2.4198 C   0  0  1  0  0  0  0  0  0  0  0  0
    6.5739   -7.9554    1.9313 C   0  0  2  0  0  0  0  0  0  0  0  0
    7.1678   -8.7031   -0.4374 C   0  0  2  0  0  0  0  0  0  0  0  0
   -2.1502   -9.5994    0.1511 C   0  0  2  0  0  0  0  0  0  0  0  0
   -1.3421  -10.3886   -2.1412 C   0  0  2  0  0  0  0  0  0  0  0  0
    7.7478   -6.9191    2.0483 C   0  0  0  0  0  0  0  0  0  0  0  0
    7.0040   -9.0350    0.9821 C   0  0  0  0  0  0  0  0  0  0  0  0
    6.3689   -8.4682    3.3098 C   0  0  0  0  0  0  0  0  0  0  0  0
   -2.5515  -10.2861   -1.1783 C   0  0  1  0  0  0  0  0  0  0  0  0
    7.1937  -10.3082    1.3992 C   0  0  0  0  0  0  0  0  0  0  0  0
    6.5680   -9.7502    3.6569 C   0  0  0  0  0  0  0  0  0  0  0  0
    6.9791  -10.6778    2.7171 C   0  0  0  0  0  0  0  0  0  0  0  0
    7.1494  -11.8718    3.0608 O   0  0  0  0  0  0  0  0  0  0  0  0
    0.4997   -3.3065   -2.2618 H   0  0  0  0  0  0  0  0  0  0  0  0
   -0.1953   -2.4038   -0.9275 H   0  0  0  0  0  0  0  0  0  0  0  0
    2.0320   -4.8808   -2.7954 H   0  0  0  0  0  0  0  0  0  0  0  0
    3.8828   -3.6745   -1.1735 H   0  0  0  0  0  0  0  0  0  0  0  0
    3.5904   -3.2327    0.5027 H   0  0  0  0  0  0  0  0  0  0  0  0
    5.0460   -4.0965    0.0491 H   0  0  0  0  0  0  0  0  0  0  0  0
    3.2005   -7.4923   -0.4086 H   0  0  0  0  0  0  0  0  0  0  0  0
    2.8269   -4.8453    2.2001 H   0  0  0  0  0  0  0  0  0  0  0  0
    2.4485   -6.5098    1.8091 H   0  0  0  0  0  0  0  0  0  0  0  0
    3.5387   -7.2324   -2.7284 H   0  0  0  0  0  0  0  0  0  0  0  0
    4.2447   -5.6157   -2.5448 H   0  0  0  0  0  0  0  0  0  0  0  0
   -0.6136   -6.1297   -1.5884 H   0  0  0  0  0  0  0  0  0  0  0  0
    2.7280    1.0541   -2.4103 H   0  0  0  0  0  0  0  0  0  0  0  0
    5.9214   -6.1461   -0.3205 H   0  0  0  0  0  0  0  0  0  0  0  0
    4.3231   -6.5521    3.2126 H   0  0  0  0  0  0  0  0  0  0  0  0
    0.4933   -8.8258   -0.6486 H   0  0  0  0  0  0  0  0  0  0  0  0
    5.0515    0.2888   -2.3879 H   0  0  0  0  0  0  0  0  0  0  0  0
    4.5702   -1.3295   -1.8593 H   0  0  0  0  0  0  0  0  0  0  0  0
    4.0964   -0.7407   -3.4659 H   0  0  0  0  0  0  0  0  0  0  0  0
    3.9223    1.3704   -0.3077 H   0  0  0  0  0  0  0  0  0  0  0  0
    3.4521   -0.2376    0.2707 H   0  0  0  0  0  0  0  0  0  0  0  0
    2.2260    1.0256    0.0404 H   0  0  0  0  0  0  0  0  0  0  0  0
    4.4902   -8.1822    1.4586 H   0  0  0  0  0  0  0  0  0  0  0  0
    5.1122   -9.0050   -1.0374 H   0  0  0  0  0  0  0  0  0  0  0  0
    6.0017   -7.8478   -2.0349 H   0  0  0  0  0  0  0  0  0  0  0  0
    5.8810   -4.9706    1.5454 H   0  0  0  0  0  0  0  0  0  0  0  0
   -2.2866   -7.5361   -0.4735 H   0  0  0  0  0  0  0  0  0  0  0  0
   -1.1645   -7.8120    0.8619 H   0  0  0  0  0  0  0  0  0  0  0  0
   -1.4318   -8.3891   -2.9852 H   0  0  0  0  0  0  0  0  0  0  0  0
    0.1679   -9.1366   -3.0456 H   0  0  0  0  0  0  0  0  0  0  0  0
    7.9463   -7.9475   -0.5569 H   0  0  0  0  0  0  0  0  0  0  0  0
    7.4780   -9.5628   -1.0395 H   0  0  0  0  0  0  0  0  0  0  0  0
   -3.0399   -9.4797    0.7753 H   0  0  0  0  0  0  0  0  0  0  0  0
   -1.4448  -10.2351    0.6938 H   0  0  0  0  0  0  0  0  0  0  0  0
   -0.5860  -11.0486   -1.7041 H   0  0  0  0  0  0  0  0  0  0  0  0
   -1.6699  -10.8382   -3.0826 H   0  0  0  0  0  0  0  0  0  0  0  0
    7.5949   -6.2102    2.8639 H   0  0  0  0  0  0  0  0  0  0  0  0
    7.8690   -6.3380    1.1348 H   0  0  0  0  0  0  0  0  0  0  0  0
    8.6922   -7.4334    2.2477 H   0  0  0  0  0  0  0  0  0  0  0  0
    6.0861   -7.8394    4.0261 H   0  0  0  0  0  0  0  0  0  0  0  0
   -2.9390  -11.2865   -0.9678 H   0  0  0  0  0  0  0  0  0  0  0  0
   -3.3499   -9.7125   -1.6585 H   0  0  0  0  0  0  0  0  0  0  0  0
    7.4786  -11.0102    0.7536 H   0  0  0  0  0  0  0  0  0  0  0  0
    6.4242  -10.0332    4.6001 H   0  0  0  0  0  0  0  0  0  0  0  0
  1  2  1  0  0  0  0 
  1  3  2  0  0  0  0 
  2  5  1  0  0  0  0 
  4  1  1  0  0  0  0 
  6  4  1  0  0  0  0 
  4  7  1  0  0  0  0 
  4  8  1  0  0  0  0 
  5  9  1  0  0  0  0 
  6 10  1  0  0  0  0 
 11  6  1  0  0  0  0 
  6 12  1  0  0  0  0 
  7 13  1  0  0  0  0 
  7 14  1  0  0  0  0 
 15  8  1  0  0  0  0 
  9 16  1  0  0  0  0 
  9 17  2  0  0  0  0 
 11 13  1  0  0  0  0 
 18 11  1  0  0  0  0 
 19 12  1  0  0  0  0 
 15 14  1  0  0  0  0 
 15 20  1  0  0  0  0 
 16 21  1  0  0  0  0 
 16 22  1  0  0  0  0 
 23 18  1  0  0  0  0 
 18 24  1  0  0  0  0 
 23 19  1  0  0  0  0 
 19 25  1  0  0  0  0 
 20 26  1  0  0  0  0 
 20 27  1  0  0  0  0 
 23 28  1  0  0  0  0 
 24 29  1  0  0  0  0 
 26 30  1  0  0  0  0 
 27 31  1  0  0  0  0 
 28 32  1  0  0  0  0 
 28 33  1  0  0  0  0 
 28 34  1  0  0  0  0 
 29 33  1  0  0  0  0 
 30 35  1  0  0  0  0 
 31 35  1  0  0  0  0 
 33 36  2  0  0  0  0 
 34 37  2  0  0  0  0 
 36 38  1  0  0  0  0 
 37 38  1  0  0  0  0 
 38 39  2  0  0  0  0 
 40  2  1  0  0  0  0 
 41  2  1  0  0  0  0 
  7 42  1  0  0  0  0 
 43 10  1  0  0  0  0 
 44 10  1  0  0  0  0 
 45 10  1  0  0  0  0 
 11 46  1  0  0  0  0 
 47 12  1  0  0  0  0 
 48 12  1  0  0  0  0 
 49 13  1  0  0  0  0 
 50 13  1  0  0  0  0 
 15 51  1  0  0  0  0 
 52 16  1  0  0  0  0 
 18 53  1  0  0  0  0 
 19 54  1  0  0  0  0 
 55 20  1  0  0  0  0 
 56 21  1  0  0  0  0 
 57 21  1  0  0  0  0 
 58 21  1  0  0  0  0 
 59 22  1  0  0  0  0 
 60 22  1  0  0  0  0 
 61 22  1  0  0  0  0 
 23 62  1  0  0  0  0 
 63 24  1  0  0  0  0 
 64 24  1  0  0  0  0 
 65 25  1  0  0  0  0 
 66 26  1  0  0  0  0 
 67 26  1  0  0  0  0 
 68 27  1  0  0  0  0 
 69 27  1  0  0  0  0 
 70 29  1  0  0  0  0 
 71 29  1  0  0  0  0 
 72 30  1  0  0  0  0 
 73 30  1  0  0  0  0 
 74 31  1  0  0  0  0 
 75 31  1  0  0  0  0 
 76 32  1  0  0  0  0 
 77 32  1  0  0  0  0 
 78 32  1  0  0  0  0 
 79 34  1  0  0  0  0 
 80 35  1  0  0  0  0 
 81 35  1  0  0  0  0 
 82 36  1  0  0  0  0 
 83 37  1  0  0  0  0 
M  END
> <cdk:Title>
ciclesonide

> <Conformer>
1

> <SuperDrugID>
SD000554

$$$$
