bioallethrin
  CDK     0628171801

 48 49  0  0  0  0  0  0  0  0999 V2000
   -1.1084    0.5593   -1.6143 C   0  0  0  0  0  0  0  0  0  0  0  0
    0.0604    0.8282   -2.2369 C   0  0  0  0  0  0  0  0  0  0  0  0
   -1.2456   -0.2627   -0.4209 C   0  0  2  0  0  0  0  0  0  0  0  0
    0.0764    1.6363   -3.4570 C   0  0  0  0  0  0  0  0  0  0  0  0
    1.3360    0.3326   -1.7198 C   0  0  0  0  0  0  0  0  0  0  0  0
   -2.5399   -0.0942    0.4156 C   0  0  2  0  0  0  0  0  0  0  0  0
   -1.1765    0.3624    0.9962 C   0  0  1  0  0  0  0  0  0  0  0  0
   -3.2141   -1.3561    0.7679 C   0  0  0  0  0  0  0  0  0  0  0  0
   -0.4999   -0.4928    2.1030 C   0  0  0  0  0  0  0  0  0  0  0  0
   -0.9983    1.9004    1.1453 C   0  0  0  0  0  0  0  0  0  0  0  0
   -3.1720   -1.8385    2.0424 O   0  0  0  0  0  0  0  0  0  0  0  0
   -3.8515   -1.9527   -0.1307 O   0  0  0  0  0  0  0  0  0  0  0  0
   -3.8421   -2.9973    2.5686 C   0  0  2  0  0  0  0  0  0  0  0  0
   -3.4504   -3.1911    3.9510 C   0  0  0  0  0  0  0  0  0  0  0  0
   -3.4516   -4.3257    1.8797 C   0  0  2  0  0  0  0  0  0  0  0  0
   -3.6406   -2.1605    4.9598 C   0  0  0  0  0  0  0  0  0  0  0  0
   -2.8973   -4.3975    4.1607 C   0  0  0  0  0  0  0  0  0  0  0  0
   -2.8747   -5.0892    2.9776 C   0  0  0  0  0  0  0  0  0  0  0  0
   -2.3746   -4.9340    5.4205 C   0  0  1  0  0  0  0  0  0  0  0  0
   -2.4198   -6.2468    2.8248 O   0  0  0  0  0  0  0  0  0  0  0  0
   -3.0562   -6.1409    5.8632 C   0  0  0  0  0  0  0  0  0  0  0  0
   -4.3424   -6.1636    6.2366 C   0  0  0  0  0  0  0  0  0  0  0  0
   -1.9504    0.9185   -2.0019 H   0  0  0  0  0  0  0  0  0  0  0  0
   -0.8772   -1.2904   -0.4959 H   0  0  0  0  0  0  0  0  0  0  0  0
    0.7351    2.4976   -3.3289 H   0  0  0  0  0  0  0  0  0  0  0  0
   -0.9093    2.0155   -3.7378 H   0  0  0  0  0  0  0  0  0  0  0  0
    0.4467    1.0328   -4.2873 H   0  0  0  0  0  0  0  0  0  0  0  0
    1.3147   -0.7556   -1.6377 H   0  0  0  0  0  0  0  0  0  0  0  0
    1.5288    0.7577   -0.7321 H   0  0  0  0  0  0  0  0  0  0  0  0
    2.1781    0.5949   -2.3655 H   0  0  0  0  0  0  0  0  0  0  0  0
   -3.2009    0.7044    0.0705 H   0  0  0  0  0  0  0  0  0  0  0  0
   -0.5284   -1.5606    1.8791 H   0  0  0  0  0  0  0  0  0  0  0  0
   -1.0074   -0.3226    3.0543 H   0  0  0  0  0  0  0  0  0  0  0  0
    0.5462   -0.1990    2.2090 H   0  0  0  0  0  0  0  0  0  0  0  0
   -1.5403    2.4626    0.3822 H   0  0  0  0  0  0  0  0  0  0  0  0
   -1.3678    2.2148    2.1230 H   0  0  0  0  0  0  0  0  0  0  0  0
    0.0600    2.1590    1.0732 H   0  0  0  0  0  0  0  0  0  0  0  0
   -4.9235   -2.8409    2.5126 H   0  0  0  0  0  0  0  0  0  0  0  0
   -2.7117   -4.1834    1.0895 H   0  0  0  0  0  0  0  0  0  0  0  0
   -4.3309   -4.8364    1.4809 H   0  0  0  0  0  0  0  0  0  0  0  0
   -2.6761   -1.8889    5.3921 H   0  0  0  0  0  0  0  0  0  0  0  0
   -4.3028   -2.5206    5.7492 H   0  0  0  0  0  0  0  0  0  0  0  0
   -4.0823   -1.2574    4.5330 H   0  0  0  0  0  0  0  0  0  0  0  0
   -1.3117   -5.1534    5.2789 H   0  0  0  0  0  0  0  0  0  0  0  0
   -2.4306   -4.2050    6.2304 H   0  0  0  0  0  0  0  0  0  0  0  0
   -2.5399   -6.9915    5.8895 H   0  0  0  0  0  0  0  0  0  0  0  0
   -4.7611   -7.0138    6.5332 H   0  0  0  0  0  0  0  0  0  0  0  0
   -4.8956   -5.3384    6.2222 H   0  0  0  0  0  0  0  0  0  0  0  0
  1  2  2  0  0  0  0 
  2  4  1  0  0  0  0 
  2  5  1  0  0  0  0 
  3  1  1  0  0  0  0 
  3  6  1  0  0  0  0 
  3  7  1  0  0  0  0 
  6  7  1  0  0  0  0 
  6  8  1  0  0  0  0 
  7  9  1  0  0  0  0 
  7 10  1  0  0  0  0 
  8 11  1  0  0  0  0 
  8 12  2  0  0  0  0 
 13 11  1  0  0  0  0 
 13 14  1  0  0  0  0 
 13 15  1  0  0  0  0 
 14 16  1  0  0  0  0 
 14 17  2  0  0  0  0 
 15 18  1  0  0  0  0 
 17 18  1  0  0  0  0 
 17 19  1  0  0  0  0 
 18 20  2  0  0  0  0 
 19 21  1  0  0  0  0 
 21 22  2  0  0  0  0 
 23  1  1  0  0  0  0 
  3 24  1  0  0  0  0 
 25  4  1  0  0  0  0 
 26  4  1  0  0  0  0 
 27  4  1  0  0  0  0 
 28  5  1  0  0  0  0 
 29  5  1  0  0  0  0 
 30  5  1  0  0  0  0 
  6 31  1  0  0  0  0 
 32  9  1  0  0  0  0 
 33  9  1  0  0  0  0 
 34  9  1  0  0  0  0 
 35 10  1  0  0  0  0 
 36 10  1  0  0  0  0 
 37 10  1  0  0  0  0 
 13 38  1  0  0  0  0 
 39 15  1  0  0  0  0 
 40 15  1  0  0  0  0 
 41 16  1  0  0  0  0 
 42 16  1  0  0  0  0 
 43 16  1  0  0  0  0 
 44 19  1  0  0  0  0 
 45 19  1  0  0  0  0 
 46 21  1  0  0  0  0 
 47 22  1  0  0  0  0 
 48 22  1  0  0  0  0 
M  END
> <cdk:Title>
bioallethrin

> <Conformer>
1

> <SuperDrugID>
SD003514

$$$$
