ipratropium
  CDK     0628171801

 54 56  0  0  0  0  0  0  0  0999 V2000
   -1.6528   -0.3933    2.4317 C   0  0  2  0  0  0  0  0  0  0  0  0
   -2.1403    1.0954    0.3267 C   0  0  2  0  0  0  0  0  0  0  0  0
   -2.7592    1.1228   -0.5762 H   0  0  0  0  0  0  0  0  0  0  0  0
   -1.1416    2.1524    2.0729 C   0  0  1  0  0  0  0  0  0  0  0  0
   -0.9146    3.0687    2.6290 H   0  0  0  0  0  0  0  0  0  0  0  0
   -2.4196   -0.2592    1.0706 C   0  0  1  0  0  0  0  0  0  0  0  0
   -1.2654    0.9727    3.1029 C   0  0  1  0  0  0  0  0  0  0  0  0
    0.0455    1.8424    1.1022 C   0  0  1  0  0  0  0  0  0  0  0  0
   -0.6344    1.1370   -0.0894 C   0  0  2  0  0  0  0  0  0  0  0  0
   -2.3842    2.3191    1.2028 N   0  0  1  0  0  0  0  0  0  0  0  0
   -2.3043    3.6005    0.3778 C   0  0  0  0  0  0  0  0  0  0  0  0
   -2.3179   -0.9266    3.1156 H   0  0  0  0  0  0  0  0  0  0  0  0
   -0.4872   -1.2179    2.2279 O   0  0  0  0  0  0  0  0  0  0  0  0
    0.1901   -1.8646    3.2220 C   0  0  0  0  0  0  0  0  0  0  0  0
   -0.3790   -3.0741    3.8728 C   0  0  2  0  0  0  0  0  0  0  0  0
   -0.9085   -2.7047    5.2229 C   0  0  0  0  0  0  0  0  0  0  0  0
    0.6000   -4.2833    3.9079 C   0  0  2  0  0  0  0  0  0  0  0  0
    0.9565   -4.6906    2.5897 O   0  0  0  0  0  0  0  0  0  0  0  0
    1.3173   -1.4243    3.5448 O   0  0  0  0  0  0  0  0  0  0  0  0
   -2.3058   -2.6330    5.4475 C   0  0  0  0  0  0  0  0  0  0  0  0
   -2.8214   -2.2404    6.6949 C   0  0  0  0  0  0  0  0  0  0  0  0
   -1.9477   -1.9363    7.7517 C   0  0  0  0  0  0  0  0  0  0  0  0
   -0.5585   -2.0167    7.5567 C   0  0  0  0  0  0  0  0  0  0  0  0
   -0.0438   -2.3893    6.3015 C   0  0  0  0  0  0  0  0  0  0  0  0
   -3.7413    2.3415    1.9599 C   0  0  2  0  0  0  0  0  0  0  0  0
   -5.0323    2.2749    1.0775 C   0  0  0  0  0  0  0  0  0  0  0  0
   -3.9298    3.4982    2.9982 C   0  0  0  0  0  0  0  0  0  0  0  0
   -2.1632   -1.0948    0.4128 H   0  0  0  0  0  0  0  0  0  0  0  0
   -3.4931   -0.3576    1.2454 H   0  0  0  0  0  0  0  0  0  0  0  0
   -2.0015    1.2317    3.8653 H   0  0  0  0  0  0  0  0  0  0  0  0
   -0.3271    0.8750    3.6522 H   0  0  0  0  0  0  0  0  0  0  0  0
    0.5376    2.7639    0.7772 H   0  0  0  0  0  0  0  0  0  0  0  0
    0.8157    1.2049    1.5500 H   0  0  0  0  0  0  0  0  0  0  0  0
   -0.4989    1.7128   -1.0105 H   0  0  0  0  0  0  0  0  0  0  0  0
   -0.2058    0.1437   -0.2591 H   0  0  0  0  0  0  0  0  0  0  0  0
   -2.3373    4.4869    1.0080 H   0  0  0  0  0  0  0  0  0  0  0  0
   -3.1197    3.6616   -0.3406 H   0  0  0  0  0  0  0  0  0  0  0  0
   -1.3948    3.7082   -0.2067 H   0  0  0  0  0  0  0  0  0  0  0  0
   -1.2121   -3.4037    3.2437 H   0  0  0  0  0  0  0  0  0  0  0  0
    0.1228   -5.1299    4.4090 H   0  0  0  0  0  0  0  0  0  0  0  0
    1.5170   -4.0342    4.4472 H   0  0  0  0  0  0  0  0  0  0  0  0
    1.5552   -5.4570    2.7135 H   0  0  0  0  0  0  0  0  0  0  0  0
   -2.9647   -2.8552    4.6972 H   0  0  0  0  0  0  0  0  0  0  0  0
   -3.8326   -2.1743    6.8310 H   0  0  0  0  0  0  0  0  0  0  0  0
   -2.3234   -1.6585    8.6610 H   0  0  0  0  0  0  0  0  0  0  0  0
    0.0784   -1.8003    8.3271 H   0  0  0  0  0  0  0  0  0  0  0  0
    0.9707   -2.4245    6.1846 H   0  0  0  0  0  0  0  0  0  0  0  0
   -3.8210    1.4461    2.5721 H   0  0  0  0  0  0  0  0  0  0  0  0
   -5.8975    2.0401    1.7029 H   0  0  0  0  0  0  0  0  0  0  0  0
   -4.9576    1.4975    0.3189 H   0  0  0  0  0  0  0  0  0  0  0  0
   -5.2271    3.2285    0.5828 H   0  0  0  0  0  0  0  0  0  0  0  0
   -4.8100    3.3063    3.6188 H   0  0  0  0  0  0  0  0  0  0  0  0
   -3.0652    3.5764    3.6602 H   0  0  0  0  0  0  0  0  0  0  0  0
   -4.0830    4.4596    2.5018 H   0  0  0  0  0  0  0  0  0  0  0  0
  2  3  1  0  0  0  0 
  4  5  1  0  0  0  0 
  1  6  1  0  0  0  0 
  1  7  1  0  0  0  0 
  2  6  1  0  0  0  0 
  4  7  1  0  0  0  0 
  8  9  1  0  0  0  0 
  2  9  1  0  0  0  0 
  4  8  1  0  0  0  0 
  2 10  1  0  0  0  0 
  4 10  1  0  0  0  0 
 10 11  1  0  0  0  0 
  1 12  1  0  0  0  0 
  1 13  1  0  0  0  0 
 13 14  1  0  0  0  0 
 15 14  1  0  0  0  0 
 15 16  1  0  0  0  0 
 15 17  1  0  0  0  0 
 17 18  1  0  0  0  0 
 14 19  2  0  0  0  0 
 16 20  2  0  0  0  0 
 20 21  1  0  0  0  0 
 21 22  2  0  0  0  0 
 22 23  1  0  0  0  0 
 23 24  2  0  0  0  0 
 16 24  1  0  0  0  0 
 10 25  1  0  0  0  0 
 25 26  1  0  0  0  0 
 25 27  1  0  0  0  0 
  6 28  1  0  0  0  0 
  6 29  1  0  0  0  0 
  7 30  1  0  0  0  0 
  7 31  1  0  0  0  0 
  8 32  1  0  0  0  0 
  8 33  1  0  0  0  0 
  9 34  1  0  0  0  0 
  9 35  1  0  0  0  0 
 11 36  1  0  0  0  0 
 11 37  1  0  0  0  0 
 11 38  1  0  0  0  0 
 15 39  1  0  0  0  0 
 17 40  1  0  0  0  0 
 17 41  1  0  0  0  0 
 18 42  1  0  0  0  0 
 20 43  1  0  0  0  0 
 21 44  1  0  0  0  0 
 22 45  1  0  0  0  0 
 23 46  1  0  0  0  0 
 24 47  1  0  0  0  0 
 25 48  1  0  0  0  0 
 26 49  1  0  0  0  0 
 26 50  1  0  0  0  0 
 26 51  1  0  0  0  0 
 27 52  1  0  0  0  0 
 27 53  1  0  0  0  0 
 27 54  1  0  0  0  0 
M  CHG  1  10   1
M  END
> <cdk:Title>
ipratropium

> <Conformer>
1

> <SuperDrugID>
SD001306

$$$$
