aminosalicylic acid hydrazide
  CDK     0628171801

 21 21  0  0  0  0  0  0  0  0999 V2000
    1.9135    1.2889   -0.3073 C   0  0  0  0  0  0  0  0  0  0  0  0
    1.2627    0.1510    0.0484 N   0  0  0  0  0  0  0  0  0  0  0  0
    1.3389    2.0624   -1.1116 O   0  0  0  0  0  0  0  0  0  0  0  0
    3.1978    1.6174    0.2265 C   0  0  0  0  0  0  0  0  0  0  0  0
    0.0473   -0.1804   -0.4299 N   0  0  1  0  0  0  0  0  0  0  0  0
    4.0418    2.5897   -0.3790 C   0  0  0  0  0  0  0  0  0  0  0  0
    3.6693    0.9869    1.4089 C   0  0  0  0  0  0  0  0  0  0  0  0
    3.7314    3.2015   -1.5513 O   0  0  0  0  0  0  0  0  0  0  0  0
    5.2602    2.9622    0.2214 C   0  0  0  0  0  0  0  0  0  0  0  0
    4.9027    1.3327    1.9868 C   0  0  0  0  0  0  0  0  0  0  0  0
    5.6910    2.3433    1.4093 C   0  0  0  0  0  0  0  0  0  0  0  0
    6.8423    2.7148    2.0013 N   0  0  0  0  0  0  0  0  0  0  0  0
    1.6870   -0.4587    0.6694 H   0  0  0  0  0  0  0  0  0  0  0  0
    0.1151   -1.1214   -0.8239 H   0  0  0  0  0  0  0  0  0  0  0  0
   -0.6131   -0.1753    0.3497 H   0  0  0  0  0  0  0  0  0  0  0  0
    3.1190    0.2685    1.8843 H   0  0  0  0  0  0  0  0  0  0  0  0
    3.3090    2.5113   -2.1054 H   0  0  0  0  0  0  0  0  0  0  0  0
    5.8332    3.6883   -0.2115 H   0  0  0  0  0  0  0  0  0  0  0  0
    5.2135    0.8493    2.8347 H   0  0  0  0  0  0  0  0  0  0  0  0
    7.3880    3.4155    1.6105 H   0  0  0  0  0  0  0  0  0  0  0  0
    7.1218    2.2874    2.8274 H   0  0  0  0  0  0  0  0  0  0  0  0
  1  2  1  0  0  0  0 
  1  3  2  0  0  0  0 
  1  4  1  0  0  0  0 
  2  5  1  0  0  0  0 
  4  6  2  0  0  0  0 
  4  7  1  0  0  0  0 
  6  8  1  0  0  0  0 
  6  9  1  0  0  0  0 
  7 10  2  0  0  0  0 
  9 11  2  0  0  0  0 
 10 11  1  0  0  0  0 
 11 12  1  0  0  0  0 
  2 13  1  0  0  0  0 
  5 14  1  0  0  0  0 
  5 15  1  0  0  0  0 
  7 16  1  0  0  0  0 
  8 17  1  0  0  0  0 
  9 18  1  0  0  0  0 
 10 19  1  0  0  0  0 
 12 20  1  0  0  0  0 
 12 21  1  0  0  0  0 
M  END
> <cdk:Title>
aminosalicylic acid hydrazide

> <Conformer>
1

> <SuperDrugID>
SD001838

$$$$
