perhexiline
  CDK     0628171801

 55 57  0  0  0  0  0  0  0  0999 V2000
    6.9544   -0.1076   -2.2327 C   0  0  1  0  0  0  0  0  0  0  0  0
    6.1073    1.0275   -2.8578 C   0  0  1  0  0  0  0  0  0  0  0  0
    4.6162    0.9043   -2.4430 C   0  0  2  0  0  0  0  0  0  0  0  0
    4.0117   -0.4882   -2.8309 C   0  0  1  0  0  0  0  0  0  0  0  0
    4.9029   -1.6661   -2.3059 C   0  0  1  0  0  0  0  0  0  0  0  0
    6.4059   -1.4928   -2.6561 C   0  0  1  0  0  0  0  0  0  0  0  0
    2.4689   -0.6214   -2.4859 C   0  0  2  0  0  0  0  0  0  0  0  0
    2.2072   -0.5302   -0.9227 C   0  0  2  0  0  0  0  0  0  0  0  0
    1.7291   -1.8402   -3.1926 C   0  0  1  0  0  0  0  0  0  0  0  0
    0.1796   -1.8044   -2.9454 C   0  0  1  0  0  0  0  0  0  0  0  0
   -0.6187   -2.9169   -3.6689 C   0  0  2  0  0  0  0  0  0  0  0  0
   -0.3490   -2.9092   -5.1890 C   0  0  1  0  0  0  0  0  0  0  0  0
    1.1662   -3.0330   -5.4634 C   0  0  1  0  0  0  0  0  0  0  0  0
    1.9764   -1.9217   -4.7434 C   0  0  1  0  0  0  0  0  0  0  0  0
    1.3573    0.6919   -0.4349 C   0  0  1  0  0  0  0  0  0  0  0  0
   -0.0986    0.4266   -0.5829 N   0  0  1  0  0  0  0  0  0  0  0  0
   -0.9784    1.5505   -0.1869 C   0  0  2  0  0  0  0  0  0  0  0  0
   -0.7057    2.0132    1.2666 C   0  0  2  0  0  0  0  0  0  0  0  0
    0.8015    2.2766    1.5031 C   0  0  1  0  0  0  0  0  0  0  0  0
    1.6475    1.0591    1.0529 C   0  0  1  0  0  0  0  0  0  0  0  0
    1.6219    1.5599   -1.0451 H   0  0  0  0  0  0  0  0  0  0  0  0
    7.9917   -0.0120   -2.5617 H   0  0  0  0  0  0  0  0  0  0  0  0
    6.9392   -0.0213   -1.1431 H   0  0  0  0  0  0  0  0  0  0  0  0
    6.4970    1.9961   -2.5350 H   0  0  0  0  0  0  0  0  0  0  0  0
    6.1907    0.9790   -3.9484 H   0  0  0  0  0  0  0  0  0  0  0  0
    4.0547    1.6974   -2.9456 H   0  0  0  0  0  0  0  0  0  0  0  0
    4.5420    1.0789   -1.3677 H   0  0  0  0  0  0  0  0  0  0  0  0
    4.1031   -0.5002   -3.9169 H   0  0  0  0  0  0  0  0  0  0  0  0
    4.8168   -1.7671   -1.2236 H   0  0  0  0  0  0  0  0  0  0  0  0
    4.5639   -2.6064   -2.7456 H   0  0  0  0  0  0  0  0  0  0  0  0
    6.5360   -1.6118   -3.7345 H   0  0  0  0  0  0  0  0  0  0  0  0
    6.9870   -2.2769   -2.1640 H   0  0  0  0  0  0  0  0  0  0  0  0
    2.0114    0.2605   -2.9445 H   0  0  0  0  0  0  0  0  0  0  0  0
    3.1577   -0.4749   -0.3950 H   0  0  0  0  0  0  0  0  0  0  0  0
    1.7581   -1.4499   -0.5466 H   0  0  0  0  0  0  0  0  0  0  0  0
    2.1114   -2.7666   -2.7515 H   0  0  0  0  0  0  0  0  0  0  0  0
   -0.0369   -1.9245   -1.8843 H   0  0  0  0  0  0  0  0  0  0  0  0
   -0.2126   -0.8347   -3.2654 H   0  0  0  0  0  0  0  0  0  0  0  0
   -1.6867   -2.7660   -3.4903 H   0  0  0  0  0  0  0  0  0  0  0  0
   -0.3404   -3.8899   -3.2557 H   0  0  0  0  0  0  0  0  0  0  0  0
   -0.8752   -3.7460   -5.6540 H   0  0  0  0  0  0  0  0  0  0  0  0
   -0.7334   -1.9850   -5.6301 H   0  0  0  0  0  0  0  0  0  0  0  0
    1.5143   -4.0118   -5.1240 H   0  0  0  0  0  0  0  0  0  0  0  0
    1.3442   -2.9748   -6.5397 H   0  0  0  0  0  0  0  0  0  0  0  0
    1.7384   -0.9572   -5.2052 H   0  0  0  0  0  0  0  0  0  0  0  0
    3.0259   -2.1421   -4.9457 H   0  0  0  0  0  0  0  0  0  0  0  0
   -0.2819    0.2580   -1.5715 H   0  0  0  0  0  0  0  0  0  0  0  0
   -2.0148    1.2120   -0.2663 H   0  0  0  0  0  0  0  0  0  0  0  0
   -0.8295    2.3822   -0.8818 H   0  0  0  0  0  0  0  0  0  0  0  0
   -1.0468    1.2413    1.9611 H   0  0  0  0  0  0  0  0  0  0  0  0
   -1.2718    2.9235    1.4709 H   0  0  0  0  0  0  0  0  0  0  0  0
    1.1134    3.1618    0.9420 H   0  0  0  0  0  0  0  0  0  0  0  0
    0.9789    2.4726    2.5632 H   0  0  0  0  0  0  0  0  0  0  0  0
    1.4170    0.2035    1.6930 H   0  0  0  0  0  0  0  0  0  0  0  0
    2.7058    1.2963    1.1872 H   0  0  0  0  0  0  0  0  0  0  0  0
  1  2  1  0  0  0  0 
  2  3  1  0  0  0  0 
  3  4  1  0  0  0  0 
  4  5  1  0  0  0  0 
  5  6  1  0  0  0  0 
  1  6  1  0  0  0  0 
  4  7  1  0  0  0  0 
  7  8  1  0  0  0  0 
  7  9  1  0  0  0  0 
 10 11  1  0  0  0  0 
 11 12  1  0  0  0  0 
 12 13  1  0  0  0  0 
 13 14  1  0  0  0  0 
  9 10  1  0  0  0  0 
  9 14  1  0  0  0  0 
 15  8  1  0  0  0  0 
 16 17  1  0  0  0  0 
 17 18  1  0  0  0  0 
 18 19  1  0  0  0  0 
 19 20  1  0  0  0  0 
 15 16  1  0  0  0  0 
 15 20  1  0  0  0  0 
 15 21  1  0  0  0  0 
  1 22  1  0  0  0  0 
  1 23  1  0  0  0  0 
  2 24  1  0  0  0  0 
  2 25  1  0  0  0  0 
  3 26  1  0  0  0  0 
  3 27  1  0  0  0  0 
  4 28  1  0  0  0  0 
  5 29  1  0  0  0  0 
  5 30  1  0  0  0  0 
  6 31  1  0  0  0  0 
  6 32  1  0  0  0  0 
  7 33  1  0  0  0  0 
  8 34  1  0  0  0  0 
  8 35  1  0  0  0  0 
  9 36  1  0  0  0  0 
 10 37  1  0  0  0  0 
 10 38  1  0  0  0  0 
 11 39  1  0  0  0  0 
 11 40  1  0  0  0  0 
 12 41  1  0  0  0  0 
 12 42  1  0  0  0  0 
 13 43  1  0  0  0  0 
 13 44  1  0  0  0  0 
 14 45  1  0  0  0  0 
 14 46  1  0  0  0  0 
 16 47  1  0  0  0  0 
 17 48  1  0  0  0  0 
 17 49  1  0  0  0  0 
 18 50  1  0  0  0  0 
 18 51  1  0  0  0  0 
 19 52  1  0  0  0  0 
 19 53  1  0  0  0  0 
 20 54  1  0  0  0  0 
 20 55  1  0  0  0  0 
M  END
> <cdk:Title>
perhexiline

> <Conformer>
1

> <SuperDrugID>
SD001888

$$$$
