etodolac
  CDK     0628171801

 42 44  0  0  0  0  0  0  0  0999 V2000
    8.1491   -3.5187    1.0355 C   0  0  1  0  0  0  0  0  0  0  0  0
    8.3840   -2.1088    0.6481 C   0  0  0  0  0  0  0  0  0  0  0  0
    6.6639   -3.8513    1.4091 C   0  0  2  0  0  0  0  0  0  0  0  0
    7.8764   -1.6306   -0.5121 O   0  0  0  0  0  0  0  0  0  0  0  0
    9.0582   -1.3348    1.3649 O   0  0  0  0  0  0  0  0  0  0  0  0
    6.1615   -3.0432    2.6615 C   0  0  2  0  0  0  0  0  0  0  0  0
    6.5052   -5.3152    1.6499 C   0  0  0  0  0  0  0  0  0  0  0  0
    5.8881   -3.4809    0.2252 O   0  0  0  0  0  0  0  0  0  0  0  0
    6.9320   -3.2377    3.9944 C   0  0  0  0  0  0  0  0  0  0  0  0
    5.4724   -6.0639    1.0856 C   0  0  0  0  0  0  0  0  0  0  0  0
    7.2542   -6.1265    2.4225 N   0  0  0  0  0  0  0  0  0  0  0  0
    4.5328   -3.9717    0.1015 C   0  0  1  0  0  0  0  0  0  0  0  0
    5.6238   -7.3621    1.5592 C   0  0  0  0  0  0  0  0  0  0  0  0
    4.4563   -5.5217    0.1645 C   0  0  1  0  0  0  0  0  0  0  0  0
    6.7431   -7.3695    2.3928 C   0  0  0  0  0  0  0  0  0  0  0  0
    4.8675   -8.5239    1.3389 C   0  0  0  0  0  0  0  0  0  0  0  0
    7.1667   -8.5480    3.0480 C   0  0  0  0  0  0  0  0  0  0  0  0
    5.2638   -9.7088    1.9905 C   0  0  0  0  0  0  0  0  0  0  0  0
    8.3525   -8.5539    3.9418 C   0  0  2  0  0  0  0  0  0  0  0  0
    6.3965   -9.7202    2.8350 C   0  0  0  0  0  0  0  0  0  0  0  0
    7.9797   -8.1417    5.3823 C   0  0  0  0  0  0  0  0  0  0  0  0
    8.4616   -4.1393    0.1923 H   0  0  0  0  0  0  0  0  0  0  0  0
    8.8124   -3.7796    1.8634 H   0  0  0  0  0  0  0  0  0  0  0  0
    8.0438   -0.7034   -0.7808 H   0  0  0  0  0  0  0  0  0  0  0  0
    5.1197   -3.3044    2.8637 H   0  0  0  0  0  0  0  0  0  0  0  0
    6.1716   -1.9768    2.4176 H   0  0  0  0  0  0  0  0  0  0  0  0
    6.4903   -2.6012    4.7614 H   0  0  0  0  0  0  0  0  0  0  0  0
    7.9804   -2.9630    3.8922 H   0  0  0  0  0  0  0  0  0  0  0  0
    6.8638   -4.2701    4.3354 H   0  0  0  0  0  0  0  0  0  0  0  0
    8.0345   -5.8551    2.9302 H   0  0  0  0  0  0  0  0  0  0  0  0
    3.9083   -3.5337    0.8823 H   0  0  0  0  0  0  0  0  0  0  0  0
    4.1350   -3.6341   -0.8574 H   0  0  0  0  0  0  0  0  0  0  0  0
    4.6317   -5.9456   -0.8280 H   0  0  0  0  0  0  0  0  0  0  0  0
    3.4589   -5.8202    0.4970 H   0  0  0  0  0  0  0  0  0  0  0  0
    4.0477   -8.5100    0.7277 H   0  0  0  0  0  0  0  0  0  0  0  0
    4.7248  -10.5660    1.8503 H   0  0  0  0  0  0  0  0  0  0  0  0
    9.1156   -7.8719    3.5580 H   0  0  0  0  0  0  0  0  0  0  0  0
    8.8024   -9.5500    3.9654 H   0  0  0  0  0  0  0  0  0  0  0  0
    6.6534  -10.5942    3.3009 H   0  0  0  0  0  0  0  0  0  0  0  0
    8.8755   -8.1326    6.0053 H   0  0  0  0  0  0  0  0  0  0  0  0
    7.2673   -8.8512    5.8082 H   0  0  0  0  0  0  0  0  0  0  0  0
    7.5379   -7.1434    5.3943 H   0  0  0  0  0  0  0  0  0  0  0  0
  1  2  1  0  0  0  0 
  3  1  1  0  0  0  0 
  2  4  1  0  0  0  0 
  2  5  2  0  0  0  0 
  3  6  1  0  0  0  0 
  3  7  1  0  0  0  0 
  3  8  1  0  0  0  0 
  6  9  1  0  0  0  0 
  7 10  2  0  0  0  0 
  7 11  1  0  0  0  0 
  8 12  1  0  0  0  0 
 10 13  1  0  0  0  0 
 10 14  1  0  0  0  0 
 11 15  1  0  0  0  0 
 12 14  1  0  0  0  0 
 13 15  1  0  0  0  0 
 13 16  2  0  0  0  0 
 15 17  2  0  0  0  0 
 16 18  1  0  0  0  0 
 17 19  1  0  0  0  0 
 17 20  1  0  0  0  0 
 18 20  2  0  0  0  0 
 19 21  1  0  0  0  0 
  1 22  1  0  0  0  0 
  1 23  1  0  0  0  0 
  4 24  1  0  0  0  0 
  6 25  1  0  0  0  0 
  6 26  1  0  0  0  0 
  9 27  1  0  0  0  0 
  9 28  1  0  0  0  0 
  9 29  1  0  0  0  0 
 11 30  1  0  0  0  0 
 12 31  1  0  0  0  0 
 12 32  1  0  0  0  0 
 14 33  1  0  0  0  0 
 14 34  1  0  0  0  0 
 16 35  1  0  0  0  0 
 18 36  1  0  0  0  0 
 19 37  1  0  0  0  0 
 19 38  1  0  0  0  0 
 20 39  1  0  0  0  0 
 21 40  1  0  0  0  0 
 21 41  1  0  0  0  0 
 21 42  1  0  0  0  0 
M  END
> <cdk:Title>
etodolac

> <Conformer>
1

> <SuperDrugID>
SD000984

$$$$
