clonazepam
  CDK     0628171802

 32 34  0  0  0  0  0  0  0  0999 V2000
    1.5528   -5.5665   -0.6109 N   0  0  0  0  0  0  0  0  0  0  0  0
    1.9659   -6.5257   -1.1378 O   0  0  0  0  0  0  0  0  0  0  0  0
    0.7178   -5.8047    0.3192 O   0  0  0  0  0  0  0  0  0  0  0  0
    1.9306   -4.3177   -0.9533 C   0  0  0  0  0  0  0  0  0  0  0  0
    1.5011   -3.1851   -0.2155 C   0  0  0  0  0  0  0  0  0  0  0  0
    2.7779   -4.0807   -2.0620 C   0  0  0  0  0  0  0  0  0  0  0  0
    1.8857   -1.8542   -0.5388 C   0  0  0  0  0  0  0  0  0  0  0  0
    3.1495   -2.7785   -2.4295 C   0  0  0  0  0  0  0  0  0  0  0  0
    1.4341   -0.7752    0.2569 C   0  0  0  0  0  0  0  0  0  0  0  0
    2.7186   -1.6632   -1.6831 C   0  0  0  0  0  0  0  0  0  0  0  0
    2.1047    0.3048    0.4729 N   0  0  0  0  0  0  0  0  0  0  0  0
    0.1865   -0.7824    0.8735 C   0  0  0  0  0  0  0  0  0  0  0  0
    3.1449   -0.4554   -2.1625 N   0  0  0  0  0  0  0  0  0  0  0  0
    3.3734    0.6600    0.0338 C   0  0  1  0  0  0  0  0  0  0  0  0
   -1.0004   -0.4557    0.1649 C   0  0  0  0  0  0  0  0  0  0  0  0
    0.0908   -1.1256    2.2454 C   0  0  0  0  0  0  0  0  0  0  0  0
    3.4337    0.6532   -1.4385 C   0  0  0  0  0  0  0  0  0  0  0  0
   -0.9848   -0.0111   -1.4733 Cl  0  0  0  0  0  0  0  0  0  0  0  0
   -2.2469   -0.4869    0.8260 C   0  0  0  0  0  0  0  0  0  0  0  0
   -1.1591   -1.1677    2.8911 C   0  0  0  0  0  0  0  0  0  0  0  0
    3.7746    1.6866   -2.0591 O   0  0  0  0  0  0  0  0  0  0  0  0
   -2.3288   -0.8498    2.1810 C   0  0  0  0  0  0  0  0  0  0  0  0
    0.8950   -3.3413    0.5933 H   0  0  0  0  0  0  0  0  0  0  0  0
    3.1374   -4.8591   -2.6197 H   0  0  0  0  0  0  0  0  0  0  0  0
    3.7539   -2.6524   -3.2461 H   0  0  0  0  0  0  0  0  0  0  0  0
    3.2851   -0.3903   -3.1197 H   0  0  0  0  0  0  0  0  0  0  0  0
    3.6133    1.6541    0.4177 H   0  0  0  0  0  0  0  0  0  0  0  0
    4.1056   -0.0433    0.4380 H   0  0  0  0  0  0  0  0  0  0  0  0
    0.9265   -1.3624    2.7864 H   0  0  0  0  0  0  0  0  0  0  0  0
   -3.1063   -0.2471    0.3261 H   0  0  0  0  0  0  0  0  0  0  0  0
   -1.2218   -1.4340    3.8768 H   0  0  0  0  0  0  0  0  0  0  0  0
   -3.2397   -0.8881    2.6468 H   0  0  0  0  0  0  0  0  0  0  0  0
  1  2  2  0  0  0  0 
  1  3  1  0  0  0  0 
  1  4  1  0  0  0  0 
  4  5  2  0  0  0  0 
  4  6  1  0  0  0  0 
  5  7  1  0  0  0  0 
  6  8  2  0  0  0  0 
  7  9  1  0  0  0  0 
  7 10  2  0  0  0  0 
  8 10  1  0  0  0  0 
  9 11  2  0  0  0  0 
  9 12  1  0  0  0  0 
 10 13  1  0  0  0  0 
 11 14  1  0  0  0  0 
 12 15  2  0  0  0  0 
 12 16  1  0  0  0  0 
 13 17  1  0  0  0  0 
 14 17  1  0  0  0  0 
 15 18  1  0  0  0  0 
 15 19  1  0  0  0  0 
 16 20  2  0  0  0  0 
 17 21  2  0  0  0  0 
 19 22  2  0  0  0  0 
 20 22  1  0  0  0  0 
  5 23  1  0  0  0  0 
  6 24  1  0  0  0  0 
  8 25  1  0  0  0  0 
 13 26  1  0  0  0  0 
 14 27  1  0  0  0  0 
 14 28  1  0  0  0  0 
 16 29  1  0  0  0  0 
 19 30  1  0  0  0  0 
 20 31  1  0  0  0  0 
 22 32  1  0  0  0  0 
M  CHG  1   1   1
M  CHG  1   3  -1
M  END
> <cdk:Title>
clonazepam

> <Conformer>
1

> <SuperDrugID>
SD000620

$$$$
