candicidin
  CDK     0628171801

163166  0  0  0  0  0  0  0  0999 V2000
    8.7830  -10.6431   -3.7716 C   0  0  0  0  0  0  0  0  0  0  0  0
    7.2926  -11.0112   -4.0372 C   0  0  1  0  0  0  0  0  0  0  0  0
    7.1336  -12.5692   -4.1815 C   0  0  1  0  0  0  0  0  0  0  0  0
    5.6974  -13.1732   -4.4131 C   0  0  1  0  0  0  0  0  0  0  0  0
    4.9790  -12.4546   -5.6012 C   0  0  0  0  0  0  0  0  0  0  0  0
    5.7332  -14.7501   -4.5636 C   0  0  1  0  0  0  0  0  0  0  0  0
    6.2557  -15.4570   -3.4087 O   0  0  0  0  0  0  0  0  0  0  0  0
    5.9179  -15.3189   -2.0899 C   0  0  0  0  0  0  0  0  0  0  0  0
    6.3081  -14.2891   -1.4950 O   0  0  0  0  0  0  0  0  0  0  0  0
    5.2066  -16.3339   -1.4582 C   0  0  0  0  0  0  0  0  0  0  0  0
    4.5429  -16.2813   -0.2844 C   0  0  0  0  0  0  0  0  0  0  0  0
    3.8632  -17.3639    0.0908 O   0  0  0  0  0  0  0  0  0  0  0  0
    4.4891  -15.1378    0.6178 C   0  0  1  0  0  0  0  0  0  0  0  0
    3.6676  -13.9313    0.0704 C   0  0  1  0  0  0  0  0  0  0  0  0
    3.9746  -12.6245    0.8479 C   0  0  2  0  0  0  0  0  0  0  0  0
    3.4209  -11.3981    0.2144 C   0  0  0  0  0  0  0  0  0  0  0  0
    4.2047  -10.4573   -0.0479 O   0  0  0  0  0  0  0  0  0  0  0  0
    1.9792  -11.2065   -0.0842 C   0  0  2  0  0  0  0  0  0  0  0  0
    1.1369  -11.1389    1.2167 C   0  0  1  0  0  0  0  0  0  0  0  0
    1.5649  -10.0141    1.9888 O   0  0  0  0  0  0  0  0  0  0  0  0
   -0.3915  -11.0495    0.9417 C   0  0  2  0  0  0  0  0  0  0  0  0
   -1.2449  -11.3604    2.2043 C   0  0  2  0  0  0  0  0  0  0  0  0
   -1.0950  -12.7409    2.5537 O   0  0  0  0  0  0  0  0  0  0  0  0
   -2.7605  -11.0777    2.0072 C   0  0  2  0  0  0  0  0  0  0  0  0
   -3.5596  -11.2240    3.3373 C   0  0  1  0  0  0  0  0  0  0  0  0
   -3.2531  -10.1072    4.1752 O   0  0  0  0  0  0  0  0  0  0  0  0
   -5.0990  -11.3514    3.1201 C   0  0  2  0  0  0  0  0  0  0  0  0
   -5.9264  -11.9128    4.3301 C   0  0  2  0  0  0  0  0  0  0  0  0
   -5.6818  -11.0721    5.4560 O   0  0  0  0  0  0  0  0  0  0  0  0
   -5.6056  -13.3766    4.7631 C   0  0  2  0  0  0  0  0  0  0  0  0
   -6.0887  -14.3984    3.7053 C   0  0  1  0  0  0  0  0  0  0  0  0
   -5.8272  -15.7172    4.1860 O   0  0  0  0  0  0  0  0  0  0  0  0
   -7.6079  -14.2093    3.4080 C   0  0  1  0  0  0  0  0  0  0  0  0
   -7.9521  -12.7036    3.1332 C   0  0  1  0  0  0  0  0  0  0  0  0
   -9.4931  -12.4216    3.1378 C   0  0  2  0  0  0  0  0  0  0  0  0
   -9.9292  -10.9659    2.7377 C   0  0  1  0  0  0  0  0  0  0  0  0
   -9.5028   -9.9687    3.7030 O   0  0  0  0  0  0  0  0  0  0  0  0
  -10.2559   -9.8625    4.9379 C   0  0  2  0  0  0  0  0  0  0  0  0
  -11.6123   -9.3960    4.7374 O   0  0  0  0  0  0  0  0  0  0  0  0
  -11.8031   -7.9989    4.4057 C   0  0  2  0  0  0  0  0  0  0  0  0
  -11.4814   -7.6892    2.9198 C   0  0  0  0  0  0  0  0  0  0  0  0
  -11.0844   -7.0595    5.4229 C   0  0  1  0  0  0  0  0  0  0  0  0
  -11.7695   -7.1084    6.6776 O   0  0  0  0  0  0  0  0  0  0  0  0
   -9.6004   -7.4749    5.6235 C   0  0  1  0  0  0  0  0  0  0  0  0
   -8.9745   -6.6599    6.6782 N   0  0  2  0  0  0  0  0  0  0  0  0
   -9.5004   -8.9833    5.9738 C   0  0  2  0  0  0  0  0  0  0  0  0
   -8.1340   -9.3809    6.0603 O   0  0  0  0  0  0  0  0  0  0  0  0
   -9.3370  -10.6502    1.4400 C   0  0  0  0  0  0  0  0  0  0  0  0
   -9.7109  -11.2501    0.2544 C   0  0  0  0  0  0  0  0  0  0  0  0
   -8.9648  -11.3112   -1.0266 C   0  0  0  0  0  0  0  0  0  0  0  0
   -7.5537  -11.4166   -1.0025 C   0  0  0  0  0  0  0  0  0  0  0  0
   -6.6472  -11.6821   -2.0827 C   0  0  0  0  0  0  0  0  0  0  0  0
   -5.4393  -12.2472   -1.8946 C   0  0  0  0  0  0  0  0  0  0  0  0
   -4.5602  -12.5742   -2.8876 C   0  0  0  0  0  0  0  0  0  0  0  0
   -3.3588  -13.1227   -2.6213 C   0  0  0  0  0  0  0  0  0  0  0  0
   -2.4262  -13.4669   -3.5582 C   0  0  0  0  0  0  0  0  0  0  0  0
   -1.2805  -14.0949   -3.2271 C   0  0  0  0  0  0  0  0  0  0  0  0
   -0.2916  -14.4187   -4.1103 C   0  0  0  0  0  0  0  0  0  0  0  0
    0.9392  -14.7897   -3.7058 C   0  0  0  0  0  0  0  0  0  0  0  0
    1.9634  -15.0988   -4.5519 C   0  0  0  0  0  0  0  0  0  0  0  0
    3.2497  -15.1089   -4.1537 C   0  0  0  0  0  0  0  0  0  0  0  0
    4.3856  -15.4349   -5.0194 C   0  0  2  0  0  0  0  0  0  0  0  0
    4.5237  -16.9762   -5.1842 C   0  0  0  0  0  0  0  0  0  0  0  0
   -7.3535  -11.8119    4.1067 O   0  0  0  0  0  0  0  0  0  0  0  0
   -8.0213  -15.0981    2.2905 C   0  0  0  0  0  0  0  0  0  0  0  0
   -8.8748  -16.1250    2.5060 O   0  0  0  0  0  0  0  0  0  0  0  0
   -7.5795  -14.9337    1.1297 O   0  0  0  0  0  0  0  0  0  0  0  0
    6.3245  -10.3403   -2.9977 C   0  0  1  0  0  0  0  0  0  0  0  0
    6.7548  -10.6065   -1.6632 O   0  0  0  0  0  0  0  0  0  0  0  0
    6.1398   -8.8010   -3.2060 C   0  0  2  0  0  0  0  0  0  0  0  0
    4.9337   -8.1971   -2.5630 C   0  0  0  0  0  0  0  0  0  0  0  0
    3.9071   -8.9089   -2.4490 O   0  0  0  0  0  0  0  0  0  0  0  0
    4.8333   -6.8302   -2.1607 C   0  0  0  0  0  0  0  0  0  0  0  0
    5.6217   -5.8176   -2.7646 C   0  0  0  0  0  0  0  0  0  0  0  0
    5.4746   -4.4676   -2.3939 C   0  0  0  0  0  0  0  0  0  0  0  0
    4.5348   -4.1004   -1.4123 C   0  0  0  0  0  0  0  0  0  0  0  0
    4.3865   -2.8109   -1.0554 N   0  0  0  0  0  0  0  0  0  0  0  0
    3.7521   -5.0923   -0.7952 C   0  0  0  0  0  0  0  0  0  0  0  0
    3.9045   -6.4412   -1.1598 C   0  0  0  0  0  0  0  0  0  0  0  0
    9.1056  -10.9991   -2.7902 H   0  0  0  0  0  0  0  0  0  0  0  0
    9.4269  -11.0955   -4.5295 H   0  0  0  0  0  0  0  0  0  0  0  0
    8.9297   -9.5623   -3.8168 H   0  0  0  0  0  0  0  0  0  0  0  0
    7.0692  -10.5901   -5.0206 H   0  0  0  0  0  0  0  0  0  0  0  0
    7.7565  -12.8755   -5.0284 H   0  0  0  0  0  0  0  0  0  0  0  0
    7.5646  -13.0289   -3.2920 H   0  0  0  0  0  0  0  0  0  0  0  0
    5.0993  -12.9770   -3.5224 H   0  0  0  0  0  0  0  0  0  0  0  0
    5.4946  -12.6566   -6.5422 H   0  0  0  0  0  0  0  0  0  0  0  0
    4.9378  -11.3754   -5.4527 H   0  0  0  0  0  0  0  0  0  0  0  0
    3.9414  -12.7758   -5.6886 H   0  0  0  0  0  0  0  0  0  0  0  0
    6.4545  -14.9680   -5.3576 H   0  0  0  0  0  0  0  0  0  0  0  0
    5.1603  -17.1964   -1.9477 H   0  0  0  0  0  0  0  0  0  0  0  0
    3.3529  -17.6348   -0.7032 H   0  0  0  0  0  0  0  0  0  0  0  0
    4.0522  -15.4419    1.5746 H   0  0  0  0  0  0  0  0  0  0  0  0
    5.5168  -14.8410    0.8388 H   0  0  0  0  0  0  0  0  0  0  0  0
    3.8828  -13.7650   -0.9866 H   0  0  0  0  0  0  0  0  0  0  0  0
    2.6015  -14.1612    0.1574 H   0  0  0  0  0  0  0  0  0  0  0  0
    5.0602  -12.5173    0.9413 H   0  0  0  0  0  0  0  0  0  0  0  0
    3.5783  -12.7162    1.8605 H   0  0  0  0  0  0  0  0  0  0  0  0
    1.6339  -12.0314   -0.7113 H   0  0  0  0  0  0  0  0  0  0  0  0
    1.8285  -10.2847   -0.6574 H   0  0  0  0  0  0  0  0  0  0  0  0
    1.3354  -12.0408    1.7994 H   0  0  0  0  0  0  0  0  0  0  0  0
    1.0867  -10.0875    2.8399 H   0  0  0  0  0  0  0  0  0  0  0  0
   -0.6643  -11.7599    0.1558 H   0  0  0  0  0  0  0  0  0  0  0  0
   -0.6229  -10.0452    0.5755 H   0  0  0  0  0  0  0  0  0  0  0  0
   -0.8838  -10.7514    3.0374 H   0  0  0  0  0  0  0  0  0  0  0  0
   -0.1613  -12.8545    2.8245 H   0  0  0  0  0  0  0  0  0  0  0  0
   -3.1416  -11.7804    1.2613 H   0  0  0  0  0  0  0  0  0  0  0  0
   -2.9044  -10.0672    1.6156 H   0  0  0  0  0  0  0  0  0  0  0  0
   -3.2006  -12.1164    3.8463 H   0  0  0  0  0  0  0  0  0  0  0  0
   -3.6106  -10.3322    5.0586 H   0  0  0  0  0  0  0  0  0  0  0  0
   -5.2717  -11.9917    2.2551 H   0  0  0  0  0  0  0  0  0  0  0  0
   -5.4893  -10.3638    2.8593 H   0  0  0  0  0  0  0  0  0  0  0  0
   -5.9171  -10.1686    5.1555 H   0  0  0  0  0  0  0  0  0  0  0  0
   -6.1227  -13.5844    5.7048 H   0  0  0  0  0  0  0  0  0  0  0  0
   -4.5413  -13.5168    4.9516 H   0  0  0  0  0  0  0  0  0  0  0  0
   -5.5000  -14.2685    2.7924 H   0  0  0  0  0  0  0  0  0  0  0  0
   -6.0840  -16.3126    3.4503 H   0  0  0  0  0  0  0  0  0  0  0  0
   -8.1515  -14.5140    4.3080 H   0  0  0  0  0  0  0  0  0  0  0  0
   -7.5582  -12.4493    2.1474 H   0  0  0  0  0  0  0  0  0  0  0  0
   -9.8858  -12.6621    4.1261 H   0  0  0  0  0  0  0  0  0  0  0  0
   -9.9788  -13.1188    2.4498 H   0  0  0  0  0  0  0  0  0  0  0  0
  -11.0198  -10.9297    2.6372 H   0  0  0  0  0  0  0  0  0  0  0  0
  -10.3387  -10.8501    5.3938 H   0  0  0  0  0  0  0  0  0  0  0  0
  -12.8779   -7.8233    4.5107 H   0  0  0  0  0  0  0  0  0  0  0  0
  -12.0165   -8.3882    2.2745 H   0  0  0  0  0  0  0  0  0  0  0  0
  -10.4154   -7.7715    2.7121 H   0  0  0  0  0  0  0  0  0  0  0  0
  -11.8018   -6.6761    2.6696 H   0  0  0  0  0  0  0  0  0  0  0  0
  -11.1276   -6.0241    5.0725 H   0  0  0  0  0  0  0  0  0  0  0  0
  -12.6728   -6.7750    6.4934 H   0  0  0  0  0  0  0  0  0  0  0  0
   -9.0453   -7.2831    4.7013 H   0  0  0  0  0  0  0  0  0  0  0  0
   -9.0290   -5.6837    6.3794 H   0  0  0  0  0  0  0  0  0  0  0  0
   -7.9820   -6.9056    6.7014 H   0  0  0  0  0  0  0  0  0  0  0  0
   -9.9488   -9.1460    6.9593 H   0  0  0  0  0  0  0  0  0  0  0  0
   -8.1597  -10.3260    6.3206 H   0  0  0  0  0  0  0  0  0  0  0  0
   -8.5317  -10.0673    1.4246 H   0  0  0  0  0  0  0  0  0  0  0  0
  -10.6287  -11.7517    0.3871 H   0  0  0  0  0  0  0  0  0  0  0  0
   -9.4611  -11.3827   -1.8820 H   0  0  0  0  0  0  0  0  0  0  0  0
   -6.9740  -11.3392   -0.1071 H   0  0  0  0  0  0  0  0  0  0  0  0
   -6.9538  -11.4680   -3.0038 H   0  0  0  0  0  0  0  0  0  0  0  0
   -5.1745  -12.4516   -0.9544 H   0  0  0  0  0  0  0  0  0  0  0  0
   -4.8181  -12.4040   -3.8355 H   0  0  0  0  0  0  0  0  0  0  0  0
   -3.1295  -13.2857   -1.6636 H   0  0  0  0  0  0  0  0  0  0  0  0
   -2.5926  -13.2335   -4.5131 H   0  0  0  0  0  0  0  0  0  0  0  0
   -1.1374  -14.3306   -2.2668 H   0  0  0  0  0  0  0  0  0  0  0  0
   -0.4874  -14.3681   -5.0869 H   0  0  0  0  0  0  0  0  0  0  0  0
    1.1184  -14.8333   -2.7239 H   0  0  0  0  0  0  0  0  0  0  0  0
    1.7537  -15.3251   -5.4989 H   0  0  0  0  0  0  0  0  0  0  0  0
    3.4468  -14.8899   -3.2062 H   0  0  0  0  0  0  0  0  0  0  0  0
    4.1738  -15.0619   -6.0267 H   0  0  0  0  0  0  0  0  0  0  0  0
    3.6481  -17.3775   -5.6982 H   0  0  0  0  0  0  0  0  0  0  0  0
    4.6175  -17.4779   -4.2213 H   0  0  0  0  0  0  0  0  0  0  0  0
    5.4046  -17.2155   -5.7822 H   0  0  0  0  0  0  0  0  0  0  0  0
   -9.1244  -16.7197    1.7678 H   0  0  0  0  0  0  0  0  0  0  0  0
    5.3443  -10.7965   -3.0990 H   0  0  0  0  0  0  0  0  0  0  0  0
    6.1363  -10.1075   -1.0911 H   0  0  0  0  0  0  0  0  0  0  0  0
    6.0606   -8.5858   -4.2755 H   0  0  0  0  0  0  0  0  0  0  0  0
    7.0384   -8.3057   -2.8306 H   0  0  0  0  0  0  0  0  0  0  0  0
    6.3021   -6.0482   -3.4931 H   0  0  0  0  0  0  0  0  0  0  0  0
    6.0549   -3.7554   -2.8437 H   0  0  0  0  0  0  0  0  0  0  0  0
    4.9261   -2.1232   -1.4772 H   0  0  0  0  0  0  0  0  0  0  0  0
    3.7388   -2.5681   -0.3734 H   0  0  0  0  0  0  0  0  0  0  0  0
    3.0700   -4.8403   -0.0760 H   0  0  0  0  0  0  0  0  0  0  0  0
    3.3256   -7.1374   -0.6802 H   0  0  0  0  0  0  0  0  0  0  0  0
  1  2  1  0  0  0  0 
  2  3  1  0  0  0  0 
  3  4  1  0  0  0  0 
  4  5  1  0  0  0  0 
  4  6  1  0  0  0  0 
  6  7  1  0  0  0  0 
  7  8  1  0  0  0  0 
  8  9  2  0  0  0  0 
 10  8  1  0  0  0  0 
 10 11  2  0  0  0  0 
 11 12  1  0  0  0  0 
 11 13  1  0  0  0  0 
 13 14  1  0  0  0  0 
 14 15  1  0  0  0  0 
 15 16  1  0  0  0  0 
 16 17  2  0  0  0  0 
 16 18  1  0  0  0  0 
 18 19  1  0  0  0  0 
 19 20  1  0  0  0  0 
 19 21  1  0  0  0  0 
 21 22  1  0  0  0  0 
 22 23  1  0  0  0  0 
 22 24  1  0  0  0  0 
 24 25  1  0  0  0  0 
 25 26  1  0  0  0  0 
 25 27  1  0  0  0  0 
 27 28  1  0  0  0  0 
 28 29  1  0  0  0  0 
 28 30  1  0  0  0  0 
 30 31  1  0  0  0  0 
 31 32  1  0  0  0  0 
 31 33  1  0  0  0  0 
 33 34  1  0  0  0  0 
 34 35  1  0  0  0  0 
 35 36  1  0  0  0  0 
 36 37  1  0  0  0  0 
 38 37  1  0  0  0  0 
 38 39  1  0  0  0  0 
 40 39  1  0  0  0  0 
 40 41  1  0  0  0  0 
 42 40  1  0  0  0  0 
 42 43  1  0  0  0  0 
 42 44  1  0  0  0  0 
 44 45  1  0  0  0  0 
 44 46  1  0  0  0  0 
 46 38  1  0  0  0  0 
 46 47  1  0  0  0  0 
 48 36  1  0  0  0  0 
 48 49  2  0  0  0  0 
 50 49  1  0  0  0  0 
 50 51  2  0  0  0  0 
 52 51  1  0  0  0  0 
 52 53  2  0  0  0  0 
 54 53  1  0  0  0  0 
 54 55  2  0  0  0  0 
 56 55  1  0  0  0  0 
 56 57  2  0  0  0  0 
 58 57  1  0  0  0  0 
 58 59  2  0  0  0  0 
 60 59  1  0  0  0  0 
 60 61  2  0  0  0  0 
 61 62  1  0  0  0  0 
  6 62  1  0  0  0  0 
 62 63  1  0  0  0  0 
 34 64  1  0  0  0  0 
 28 64  1  0  0  0  0 
 33 65  1  0  0  0  0 
 65 66  1  0  0  0  0 
 65 67  2  0  0  0  0 
  2 68  1  0  0  0  0 
 68 69  1  0  0  0  0 
 68 70  1  0  0  0  0 
 70 71  1  0  0  0  0 
 71 72  2  0  0  0  0 
 71 73  1  0  0  0  0 
 73 74  2  0  0  0  0 
 74 75  1  0  0  0  0 
 75 76  2  0  0  0  0 
 76 77  1  0  0  0  0 
 76 78  1  0  0  0  0 
 78 79  2  0  0  0  0 
 73 79  1  0  0  0  0 
 80  1  1  0  0  0  0 
 81  1  1  0  0  0  0 
 82  1  1  0  0  0  0 
 83  2  1  0  0  0  0 
 84  3  1  0  0  0  0 
 85  3  1  0  0  0  0 
 86  4  1  0  0  0  0 
 87  5  1  0  0  0  0 
 88  5  1  0  0  0  0 
 89  5  1  0  0  0  0 
 90  6  1  0  0  0  0 
 91 10  1  0  0  0  0 
 92 12  1  0  0  0  0 
 93 13  1  0  0  0  0 
 94 13  1  0  0  0  0 
 95 14  1  0  0  0  0 
 96 14  1  0  0  0  0 
 97 15  1  0  0  0  0 
 98 15  1  0  0  0  0 
 99 18  1  0  0  0  0 
100 18  1  0  0  0  0 
101 19  1  0  0  0  0 
102 20  1  0  0  0  0 
103 21  1  0  0  0  0 
104 21  1  0  0  0  0 
105 22  1  0  0  0  0 
106 23  1  0  0  0  0 
107 24  1  0  0  0  0 
108 24  1  0  0  0  0 
109 25  1  0  0  0  0 
110 26  1  0  0  0  0 
111 27  1  0  0  0  0 
112 27  1  0  0  0  0 
113 29  1  0  0  0  0 
114 30  1  0  0  0  0 
115 30  1  0  0  0  0 
116 31  1  0  0  0  0 
117 32  1  0  0  0  0 
118 33  1  0  0  0  0 
119 34  1  0  0  0  0 
120 35  1  0  0  0  0 
121 35  1  0  0  0  0 
122 36  1  0  0  0  0 
 38123  1  0  0  0  0 
 40124  1  0  0  0  0 
125 41  1  0  0  0  0 
126 41  1  0  0  0  0 
127 41  1  0  0  0  0 
 42128  1  0  0  0  0 
129 43  1  0  0  0  0 
 44130  1  0  0  0  0 
131 45  1  0  0  0  0 
132 45  1  0  0  0  0 
 46133  1  0  0  0  0 
134 47  1  0  0  0  0 
135 48  1  0  0  0  0 
136 49  1  0  0  0  0 
137 50  1  0  0  0  0 
138 51  1  0  0  0  0 
139 52  1  0  0  0  0 
140 53  1  0  0  0  0 
141 54  1  0  0  0  0 
142 55  1  0  0  0  0 
143 56  1  0  0  0  0 
144 57  1  0  0  0  0 
145 58  1  0  0  0  0 
146 59  1  0  0  0  0 
147 60  1  0  0  0  0 
148 61  1  0  0  0  0 
149 62  1  0  0  0  0 
150 63  1  0  0  0  0 
151 63  1  0  0  0  0 
152 63  1  0  0  0  0 
153 66  1  0  0  0  0 
154 68  1  0  0  0  0 
155 69  1  0  0  0  0 
156 70  1  0  0  0  0 
157 70  1  0  0  0  0 
158 74  1  0  0  0  0 
159 75  1  0  0  0  0 
160 77  1  0  0  0  0 
161 77  1  0  0  0  0 
162 78  1  0  0  0  0 
163 79  1  0  0  0  0 
M  END
> <cdk:Title>
candicidin

> <Conformer>
1

> <SuperDrugID>
SD003563

$$$$
