betamethasone acibutate
  CDK     0628171801

 73 76  0  0  0  0  0  0  0  0999 V2000
   -4.7451   -9.6218   -4.6509 C   0  0  0  0  0  0  0  0  0  0  0  0
   -5.9711  -10.2165   -4.0570 C   0  0  2  0  0  0  0  0  0  0  0  0
   -4.8834   -9.2710   -5.8459 O   0  0  0  0  0  0  0  0  0  0  0  0
   -3.4282   -9.4251   -3.9323 C   0  0  2  0  0  0  0  0  0  0  0  0
   -5.9620  -10.3501   -2.6286 O   0  0  0  0  0  0  0  0  0  0  0  0
   -3.2569  -10.5348   -3.0033 O   0  0  0  0  0  0  0  0  0  0  0  0
   -3.3851   -8.0634   -3.1120 C   0  0  2  0  0  0  0  0  0  0  0  0
   -2.0721   -9.3761   -4.7782 C   0  0  1  0  0  0  0  0  0  0  0  0
   -6.9848  -10.8396   -1.8647 C   0  0  0  0  0  0  0  0  0  0  0  0
   -3.2214  -11.8892   -3.2450 C   0  0  0  0  0  0  0  0  0  0  0  0
   -3.9258   -6.8718   -4.0023 C   0  0  0  0  0  0  0  0  0  0  0  0
   -1.8579   -7.9764   -2.7860 C   0  0  1  0  0  0  0  0  0  0  0  0
   -4.1377   -8.0355   -1.7308 C   0  0  2  0  0  0  0  0  0  0  0  0
   -2.1062   -9.2396   -6.3277 C   0  0  0  0  0  0  0  0  0  0  0  0
   -1.1875   -8.2596   -4.1431 C   0  0  2  0  0  0  0  0  0  0  0  0
   -6.8463  -10.8611   -0.4004 C   0  0  0  0  0  0  0  0  0  0  0  0
   -8.0459  -11.2484   -2.3921 O   0  0  0  0  0  0  0  0  0  0  0  0
   -2.9182  -12.8650   -2.1653 C   0  0  2  0  0  0  0  0  0  0  0  0
   -3.4576  -12.3235   -4.3978 O   0  0  0  0  0  0  0  0  0  0  0  0
   -1.4336   -6.7095   -1.9637 C   0  0  1  0  0  0  0  0  0  0  0  0
   -3.7643   -6.8296   -0.8043 C   0  0  1  0  0  0  0  0  0  0  0  0
   -2.7473  -12.2142   -0.7647 C   0  0  0  0  0  0  0  0  0  0  0  0
   -1.6633  -13.7089   -2.5292 C   0  0  0  0  0  0  0  0  0  0  0  0
   -2.2114   -6.6462   -0.5824 C   0  0  1  0  0  0  0  0  0  0  0  0
    0.1075   -6.6667   -1.7248 C   0  0  1  0  0  0  0  0  0  0  0  0
   -4.3919   -5.6454   -1.2857 O   0  0  0  0  0  0  0  0  0  0  0  0
   -1.8427   -7.7763    0.1407 F   0  0  0  0  0  0  0  0  0  0  0  0
   -1.7579   -5.3944    0.3104 C   0  0  2  0  0  0  0  0  0  0  0  0
    0.5301   -5.4734   -0.8339 C   0  0  2  0  0  0  0  0  0  0  0  0
   -2.1631   -3.9857   -0.2640 C   0  0  0  0  0  0  0  0  0  0  0  0
   -0.2584   -5.4282    0.4049 C   0  0  0  0  0  0  0  0  0  0  0  0
   -2.4044   -5.4544    1.6474 C   0  0  0  0  0  0  0  0  0  0  0  0
    0.3703   -5.4535    1.6026 C   0  0  0  0  0  0  0  0  0  0  0  0
   -1.7155   -5.4816    2.8002 C   0  0  0  0  0  0  0  0  0  0  0  0
   -0.3344   -5.4595    2.7942 C   0  0  0  0  0  0  0  0  0  0  0  0
    0.2866   -5.4507    3.8834 O   0  0  0  0  0  0  0  0  0  0  0  0
   -6.1195  -11.2032   -4.5003 H   0  0  0  0  0  0  0  0  0  0  0  0
   -6.8255   -9.5912   -4.3323 H   0  0  0  0  0  0  0  0  0  0  0  0
   -1.5257  -10.3120   -4.6172 H   0  0  0  0  0  0  0  0  0  0  0  0
   -3.6549   -5.8967   -3.6120 H   0  0  0  0  0  0  0  0  0  0  0  0
   -3.5459   -6.9076   -5.0202 H   0  0  0  0  0  0  0  0  0  0  0  0
   -5.0154   -6.9034   -4.0674 H   0  0  0  0  0  0  0  0  0  0  0  0
   -1.5816   -8.8296   -2.1514 H   0  0  0  0  0  0  0  0  0  0  0  0
   -3.9206   -8.9514   -1.1763 H   0  0  0  0  0  0  0  0  0  0  0  0
   -5.2169   -8.0195   -1.8966 H   0  0  0  0  0  0  0  0  0  0  0  0
   -1.0890   -9.1903   -6.7236 H   0  0  0  0  0  0  0  0  0  0  0  0
   -2.6264   -8.3334   -6.6360 H   0  0  0  0  0  0  0  0  0  0  0  0
   -2.5928  -10.1058   -6.7787 H   0  0  0  0  0  0  0  0  0  0  0  0
   -1.1677   -7.3492   -4.7502 H   0  0  0  0  0  0  0  0  0  0  0  0
   -0.1572   -8.6018   -4.0063 H   0  0  0  0  0  0  0  0  0  0  0  0
   -6.6275   -9.8537   -0.0419 H   0  0  0  0  0  0  0  0  0  0  0  0
   -6.0348  -11.5279   -0.1098 H   0  0  0  0  0  0  0  0  0  0  0  0
   -7.7647  -11.2091    0.0751 H   0  0  0  0  0  0  0  0  0  0  0  0
   -3.7737  -13.5442   -2.1047 H   0  0  0  0  0  0  0  0  0  0  0  0
   -1.6727   -5.8263   -2.5573 H   0  0  0  0  0  0  0  0  0  0  0  0
   -4.2364   -7.0299    0.1613 H   0  0  0  0  0  0  0  0  0  0  0  0
   -2.6137  -12.9854   -0.0042 H   0  0  0  0  0  0  0  0  0  0  0  0
   -1.8796  -11.5519   -0.7461 H   0  0  0  0  0  0  0  0  0  0  0  0
   -3.6323  -11.6366   -0.5013 H   0  0  0  0  0  0  0  0  0  0  0  0
   -1.4577  -14.4418   -1.7475 H   0  0  0  0  0  0  0  0  0  0  0  0
   -0.7847  -13.0696   -2.6501 H   0  0  0  0  0  0  0  0  0  0  0  0
   -1.8222  -14.2557   -3.4609 H   0  0  0  0  0  0  0  0  0  0  0  0
    0.4378   -7.5981   -1.2542 H   0  0  0  0  0  0  0  0  0  0  0  0
    0.6291   -6.5782   -2.6810 H   0  0  0  0  0  0  0  0  0  0  0  0
   -5.3501   -5.8475   -1.2951 H   0  0  0  0  0  0  0  0  0  0  0  0
    0.3940   -4.5400   -1.3845 H   0  0  0  0  0  0  0  0  0  0  0  0
    1.6047   -5.5673   -0.6461 H   0  0  0  0  0  0  0  0  0  0  0  0
   -1.9288   -3.8923   -1.3226 H   0  0  0  0  0  0  0  0  0  0  0  0
   -1.6337   -3.1853    0.2616 H   0  0  0  0  0  0  0  0  0  0  0  0
   -3.2289   -3.7799   -0.1519 H   0  0  0  0  0  0  0  0  0  0  0  0
   -3.3973   -5.4593    1.7081 H   0  0  0  0  0  0  0  0  0  0  0  0
    1.3637   -5.4758    1.6475 H   0  0  0  0  0  0  0  0  0  0  0  0
   -2.2073   -5.5131    3.6641 H   0  0  0  0  0  0  0  0  0  0  0  0
  1  2  1  0  0  0  0 
  1  3  2  0  0  0  0 
  4  1  1  0  0  0  0 
  2  5  1  0  0  0  0 
  4  6  1  0  0  0  0 
  7  4  1  0  0  0  0 
  4  8  1  0  0  0  0 
  5  9  1  0  0  0  0 
  6 10  1  0  0  0  0 
  7 11  1  0  0  0  0 
 12  7  1  0  0  0  0 
  7 13  1  0  0  0  0 
  8 14  1  0  0  0  0 
  8 15  1  0  0  0  0 
  9 16  1  0  0  0  0 
  9 17  2  0  0  0  0 
 10 18  1  0  0  0  0 
 10 19  2  0  0  0  0 
 12 15  1  0  0  0  0 
 20 12  1  0  0  0  0 
 21 13  1  0  0  0  0 
 18 22  1  0  0  0  0 
 18 23  1  0  0  0  0 
 24 20  1  0  0  0  0 
 20 25  1  0  0  0  0 
 24 21  1  0  0  0  0 
 21 26  1  0  0  0  0 
 24 27  1  0  0  0  0 
 24 28  1  0  0  0  0 
 25 29  1  0  0  0  0 
 28 30  1  0  0  0  0 
 28 31  1  0  0  0  0 
 28 32  1  0  0  0  0 
 29 31  1  0  0  0  0 
 31 33  2  0  0  0  0 
 32 34  2  0  0  0  0 
 33 35  1  0  0  0  0 
 34 35  1  0  0  0  0 
 35 36  2  0  0  0  0 
 37  2  1  0  0  0  0 
 38  2  1  0  0  0  0 
  8 39  1  0  0  0  0 
 40 11  1  0  0  0  0 
 41 11  1  0  0  0  0 
 42 11  1  0  0  0  0 
 12 43  1  0  0  0  0 
 44 13  1  0  0  0  0 
 45 13  1  0  0  0  0 
 46 14  1  0  0  0  0 
 47 14  1  0  0  0  0 
 48 14  1  0  0  0  0 
 49 15  1  0  0  0  0 
 50 15  1  0  0  0  0 
 51 16  1  0  0  0  0 
 52 16  1  0  0  0  0 
 53 16  1  0  0  0  0 
 54 18  1  0  0  0  0 
 20 55  1  0  0  0  0 
 21 56  1  0  0  0  0 
 57 22  1  0  0  0  0 
 58 22  1  0  0  0  0 
 59 22  1  0  0  0  0 
 60 23  1  0  0  0  0 
 61 23  1  0  0  0  0 
 62 23  1  0  0  0  0 
 63 25  1  0  0  0  0 
 64 25  1  0  0  0  0 
 65 26  1  0  0  0  0 
 66 29  1  0  0  0  0 
 67 29  1  0  0  0  0 
 68 30  1  0  0  0  0 
 69 30  1  0  0  0  0 
 70 30  1  0  0  0  0 
 71 32  1  0  0  0  0 
 72 33  1  0  0  0  0 
 73 34  1  0  0  0  0 
M  END
> <cdk:Title>
betamethasone acibutate

> <Conformer>
1

> <SuperDrugID>
SD000295

$$$$
