dichlorphenamide
  CDK     0628171802

 22 22  0  0  0  0  0  0  0  0999 V2000
   -2.8274    2.4105    3.0512 S   0  0  2  0  0  0  0  0  0  0  0  0
   -4.5571    2.2821    3.3350 N   0  0  2  0  0  0  0  0  0  0  0  0
   -2.1678    3.1055    4.3381 O   0  0  0  0  0  0  0  0  0  0  0  0
   -2.6137    3.3647    1.7792 O   0  0  0  0  0  0  0  0  0  0  0  0
   -2.1514    0.7858    2.7860 C   0  0  0  0  0  0  0  0  0  0  0  0
   -1.5348    0.5149    1.5451 C   0  0  0  0  0  0  0  0  0  0  0  0
   -2.2240   -0.2411    3.7646 C   0  0  0  0  0  0  0  0  0  0  0  0
   -0.9901   -0.7525    1.2651 C   0  0  0  0  0  0  0  0  0  0  0  0
   -2.9533    0.0481    5.2749 Cl  0  0  0  0  0  0  0  0  0  0  0  0
   -1.6856   -1.5216    3.4787 C   0  0  0  0  0  0  0  0  0  0  0  0
   -0.2208   -1.0529   -0.3024 S   0  0  2  0  0  0  0  0  0  0  0  0
   -1.0743   -1.7697    2.2338 C   0  0  0  0  0  0  0  0  0  0  0  0
   -1.7473   -2.8026    4.5908 Cl  0  0  0  0  0  0  0  0  0  0  0  0
    0.7284    0.3469   -0.7786 N   0  0  2  0  0  0  0  0  0  0  0  0
   -1.3364   -1.2989   -1.4284 O   0  0  0  0  0  0  0  0  0  0  0  0
    0.7598   -2.3211   -0.2472 O   0  0  0  0  0  0  0  0  0  0  0  0
   -4.9120    3.2332    3.4461 H   0  0  0  0  0  0  0  0  0  0  0  0
   -4.6716    1.8203    4.2389 H   0  0  0  0  0  0  0  0  0  0  0  0
   -1.4823    1.2455    0.8319 H   0  0  0  0  0  0  0  0  0  0  0  0
   -0.6904   -2.6956    2.0285 H   0  0  0  0  0  0  0  0  0  0  0  0
    1.0850    0.1559   -1.7161 H   0  0  0  0  0  0  0  0  0  0  0  0
    1.5378    0.3789   -0.1560 H   0  0  0  0  0  0  0  0  0  0  0  0
  1  2  1  0  0  0  0 
  1  3  2  0  0  0  0 
  1  4  2  0  0  0  0 
  1  5  1  0  0  0  0 
  5  6  2  0  0  0  0 
  5  7  1  0  0  0  0 
  6  8  1  0  0  0  0 
  7  9  1  0  0  0  0 
  7 10  2  0  0  0  0 
  8 11  1  0  0  0  0 
  8 12  2  0  0  0  0 
 10 12  1  0  0  0  0 
 10 13  1  0  0  0  0 
 11 14  1  0  0  0  0 
 11 15  2  0  0  0  0 
 11 16  2  0  0  0  0 
  2 17  1  0  0  0  0 
  2 18  1  0  0  0  0 
  6 19  1  0  0  0  0 
 12 20  1  0  0  0  0 
 14 21  1  0  0  0  0 
 14 22  1  0  0  0  0 
M  END
> <cdk:Title>
dichlorphenamide

> <Conformer>
1

> <SuperDrugID>
SD000767

$$$$
