enoxacin
  CDK     0628171801

 40 42  0  0  0  0  0  0  0  0999 V2000
    5.9931    0.8094   -3.2066 C   0  0  1  0  0  0  0  0  0  0  0  0
    6.4267    1.2840   -1.8021 C   0  0  0  0  0  0  0  0  0  0  0  0
    5.8961   -0.6391   -3.2818 N   0  0  0  0  0  0  0  0  0  0  0  0
    4.7435   -1.3026   -2.9357 C   0  0  0  0  0  0  0  0  0  0  0  0
    6.9856   -1.3472   -3.7161 C   0  0  0  0  0  0  0  0  0  0  0  0
    4.6455   -2.7112   -3.0741 C   0  0  0  0  0  0  0  0  0  0  0  0
    3.6603   -0.6293   -2.4554 N   0  0  0  0  0  0  0  0  0  0  0  0
    6.9898   -2.7572   -3.8276 C   0  0  0  0  0  0  0  0  0  0  0  0
    5.7857   -3.4330   -3.5022 C   0  0  0  0  0  0  0  0  0  0  0  0
    3.4021   -3.3218   -2.7882 C   0  0  0  0  0  0  0  0  0  0  0  0
    2.4536   -1.1689   -2.1306 C   0  0  0  0  0  0  0  0  0  0  0  0
    8.1795   -3.4269   -4.2528 C   0  0  0  0  0  0  0  0  0  0  0  0
    5.7193   -4.6829   -3.5866 O   0  0  0  0  0  0  0  0  0  0  0  0
    2.3021   -2.5598   -2.3487 C   0  0  0  0  0  0  0  0  0  0  0  0
    1.4694   -0.3312   -1.6237 N   0  0  0  0  0  0  0  0  0  0  0  0
    9.3124   -2.7437   -4.5622 O   0  0  0  0  0  0  0  0  0  0  0  0
    8.2624   -4.6729   -4.3523 O   0  0  0  0  0  0  0  0  0  0  0  0
    1.1599   -3.1703   -2.1800 F   0  0  0  0  0  0  0  0  0  0  0  0
    1.3512    1.0506   -2.0538 C   0  0  1  0  0  0  0  0  0  0  0  0
    0.5472   -0.7334   -0.5762 C   0  0  1  0  0  0  0  0  0  0  0  0
    1.5251    1.9953   -0.8388 C   0  0  1  0  0  0  0  0  0  0  0  0
    0.6853    0.2103    0.6472 C   0  0  2  0  0  0  0  0  0  0  0  0
    0.5736    1.6274    0.2351 N   0  0  1  0  0  0  0  0  0  0  0  0
    5.0412    1.2832   -3.4645 H   0  0  0  0  0  0  0  0  0  0  0  0
    6.7111    1.2004   -3.9353 H   0  0  0  0  0  0  0  0  0  0  0  0
    6.4661    2.3746   -1.7791 H   0  0  0  0  0  0  0  0  0  0  0  0
    5.7154    0.9430   -1.0464 H   0  0  0  0  0  0  0  0  0  0  0  0
    7.4173    0.8930   -1.5574 H   0  0  0  0  0  0  0  0  0  0  0  0
    7.8369   -0.8353   -3.9635 H   0  0  0  0  0  0  0  0  0  0  0  0
    3.2848   -4.3306   -2.9138 H   0  0  0  0  0  0  0  0  0  0  0  0
   10.1212   -3.2226   -4.8465 H   0  0  0  0  0  0  0  0  0  0  0  0
    2.0732    1.3260   -2.8273 H   0  0  0  0  0  0  0  0  0  0  0  0
    0.3577    1.2049   -2.4834 H   0  0  0  0  0  0  0  0  0  0  0  0
   -0.4772   -0.6805   -0.9561 H   0  0  0  0  0  0  0  0  0  0  0  0
    0.7136   -1.7520   -0.2222 H   0  0  0  0  0  0  0  0  0  0  0  0
    2.5508    1.9352   -0.4658 H   0  0  0  0  0  0  0  0  0  0  0  0
    1.3302    3.0259   -1.1422 H   0  0  0  0  0  0  0  0  0  0  0  0
    1.6486    0.0419    1.1350 H   0  0  0  0  0  0  0  0  0  0  0  0
   -0.1058   -0.0049    1.3683 H   0  0  0  0  0  0  0  0  0  0  0  0
    0.7837    2.2054    1.0512 H   0  0  0  0  0  0  0  0  0  0  0  0
  1  2  1  0  0  0  0 
  1  3  1  0  0  0  0 
  3  4  1  0  0  0  0 
  3  5  1  0  0  0  0 
  4  6  1  0  0  0  0 
  4  7  2  0  0  0  0 
  5  8  2  0  0  0  0 
  6  9  1  0  0  0  0 
  6 10  2  0  0  0  0 
  7 11  1  0  0  0  0 
  8  9  1  0  0  0  0 
  8 12  1  0  0  0  0 
  9 13  2  0  0  0  0 
 10 14  1  0  0  0  0 
 11 14  2  0  0  0  0 
 11 15  1  0  0  0  0 
 12 16  1  0  0  0  0 
 12 17  2  0  0  0  0 
 14 18  1  0  0  0  0 
 15 19  1  0  0  0  0 
 15 20  1  0  0  0  0 
 19 21  1  0  0  0  0 
 20 22  1  0  0  0  0 
 21 23  1  0  0  0  0 
 22 23  1  0  0  0  0 
  1 24  1  0  0  0  0 
  1 25  1  0  0  0  0 
  2 26  1  0  0  0  0 
  2 27  1  0  0  0  0 
  2 28  1  0  0  0  0 
  5 29  1  0  0  0  0 
 10 30  1  0  0  0  0 
 16 31  1  0  0  0  0 
 19 32  1  0  0  0  0 
 19 33  1  0  0  0  0 
 20 34  1  0  0  0  0 
 20 35  1  0  0  0  0 
 21 36  1  0  0  0  0 
 21 37  1  0  0  0  0 
 22 38  1  0  0  0  0 
 22 39  1  0  0  0  0 
 23 40  1  0  0  0  0 
M  END
> <cdk:Title>
enoxacin

> <Conformer>
1

> <SuperDrugID>
SD000900

$$$$
