etoricoxib
  CDK     0628171801

 39 41  0  0  0  0  0  0  0  0999 V2000
    2.5169    6.9559   -2.2546 Cl  0  0  0  0  0  0  0  0  0  0  0  0
    2.6922    5.8114   -1.0205 C   0  0  0  0  0  0  0  0  0  0  0  0
    1.9593    4.6084   -1.0363 C   0  0  0  0  0  0  0  0  0  0  0  0
    3.5812    6.0482    0.0414 C   0  0  0  0  0  0  0  0  0  0  0  0
    2.1059    3.6569    0.0021 C   0  0  0  0  0  0  0  0  0  0  0  0
    3.7026    5.1325    1.0313 N   0  0  0  0  0  0  0  0  0  0  0  0
    3.0028    3.9673    1.0657 C   0  0  0  0  0  0  0  0  0  0  0  0
    1.3865    2.4272   -0.0521 C   0  0  0  0  0  0  0  0  0  0  0  0
    3.2081    3.1318    2.1897 C   0  0  0  0  0  0  0  0  0  0  0  0
   -0.0282    2.4064   -0.0628 C   0  0  0  0  0  0  0  0  0  0  0  0
    2.0792    1.1935   -0.0554 C   0  0  0  0  0  0  0  0  0  0  0  0
    2.1300    2.7429    3.0157 C   0  0  0  0  0  0  0  0  0  0  0  0
    4.4920    2.6330    2.5008 C   0  0  0  0  0  0  0  0  0  0  0  0
   -0.7310    1.1858   -0.0584 C   0  0  0  0  0  0  0  0  0  0  0  0
    1.3790   -0.0253   -0.0483 C   0  0  0  0  0  0  0  0  0  0  0  0
    2.3324    1.8496    4.0813 C   0  0  0  0  0  0  0  0  0  0  0  0
    4.6516    1.7667    3.5335 N   0  0  0  0  0  0  0  0  0  0  0  0
   -0.0301   -0.0371   -0.0450 C   0  0  0  0  0  0  0  0  0  0  0  0
    3.6264    1.3403    4.3198 C   0  0  0  0  0  0  0  0  0  0  0  0
   -0.8820   -1.5921   -0.0138 S   0  0  2  0  0  0  0  0  0  0  0  0
    3.8941    0.3655    5.3953 C   0  0  0  0  0  0  0  0  0  0  0  0
   -0.4582   -2.5590   -1.5125 C   0  0  0  0  0  0  0  0  0  0  0  0
   -2.4740   -1.3977    0.0525 O   0  0  0  0  0  0  0  0  0  0  0  0
   -0.4244   -2.4283    1.2784 O   0  0  0  0  0  0  0  0  0  0  0  0
    1.3237    4.4222   -1.8172 H   0  0  0  0  0  0  0  0  0  0  0  0
    4.1369    6.9034    0.0840 H   0  0  0  0  0  0  0  0  0  0  0  0
   -0.5586    3.2814   -0.0544 H   0  0  0  0  0  0  0  0  0  0  0  0
    3.1032    1.1714   -0.0535 H   0  0  0  0  0  0  0  0  0  0  0  0
    1.1881    3.1033    2.8425 H   0  0  0  0  0  0  0  0  0  0  0  0
    5.3106    2.8910    1.9439 H   0  0  0  0  0  0  0  0  0  0  0  0
   -1.7533    1.1965   -0.0555 H   0  0  0  0  0  0  0  0  0  0  0  0
    1.9057   -0.9025   -0.0390 H   0  0  0  0  0  0  0  0  0  0  0  0
    1.5410    1.5733    4.6665 H   0  0  0  0  0  0  0  0  0  0  0  0
    4.1287    0.9007    6.3162 H   0  0  0  0  0  0  0  0  0  0  0  0
    4.7385   -0.2769    5.1348 H   0  0  0  0  0  0  0  0  0  0  0  0
    3.0252   -0.2750    5.5666 H   0  0  0  0  0  0  0  0  0  0  0  0
   -0.9241   -2.1049   -2.3868 H   0  0  0  0  0  0  0  0  0  0  0  0
   -0.8155   -3.5823   -1.4020 H   0  0  0  0  0  0  0  0  0  0  0  0
    0.6229   -2.5701   -1.6500 H   0  0  0  0  0  0  0  0  0  0  0  0
  1  2  1  0  0  0  0 
  2  3  2  0  0  0  0 
  2  4  1  0  0  0  0 
  3  5  1  0  0  0  0 
  4  6  2  0  0  0  0 
  5  7  2  0  0  0  0 
  5  8  1  0  0  0  0 
  6  7  1  0  0  0  0 
  7  9  1  0  0  0  0 
  8 10  2  0  0  0  0 
  8 11  1  0  0  0  0 
  9 12  2  0  0  0  0 
  9 13  1  0  0  0  0 
 10 14  1  0  0  0  0 
 11 15  2  0  0  0  0 
 12 16  1  0  0  0  0 
 13 17  2  0  0  0  0 
 14 18  2  0  0  0  0 
 15 18  1  0  0  0  0 
 16 19  2  0  0  0  0 
 17 19  1  0  0  0  0 
 18 20  1  0  0  0  0 
 19 21  1  0  0  0  0 
 20 22  1  0  0  0  0 
 20 23  2  0  0  0  0 
 20 24  2  0  0  0  0 
  3 25  1  0  0  0  0 
  4 26  1  0  0  0  0 
 10 27  1  0  0  0  0 
 11 28  1  0  0  0  0 
 12 29  1  0  0  0  0 
 13 30  1  0  0  0  0 
 14 31  1  0  0  0  0 
 15 32  1  0  0  0  0 
 16 33  1  0  0  0  0 
 21 34  1  0  0  0  0 
 21 35  1  0  0  0  0 
 21 36  1  0  0  0  0 
 22 37  1  0  0  0  0 
 22 38  1  0  0  0  0 
 22 39  1  0  0  0  0 
M  END
> <cdk:Title>
etoricoxib

> <Conformer>
1

> <SuperDrugID>
SD000994

$$$$
