androstenediol
  CDK     0628171801

 51 54  0  0  0  0  0  0  0  0999 V2000
   -6.1509    0.5492    3.4201 C   0  0  0  0  0  0  0  0  0  0  0  0
   -5.3293   -0.7001    3.9146 C   0  0  1  0  0  0  0  0  0  0  0  0
   -3.9072   -0.7565    3.1842 C   0  0  2  0  0  0  0  0  0  0  0  0
   -5.1996   -0.6226    5.4084 C   0  0  0  0  0  0  0  0  0  0  0  0
   -6.1255   -2.0216    3.5627 C   0  0  2  0  0  0  0  0  0  0  0  0
   -2.8784    0.2155    3.8682 C   0  0  2  0  0  0  0  0  0  0  0  0
   -3.9108   -0.6114    1.6138 C   0  0  1  0  0  0  0  0  0  0  0  0
   -4.0270   -0.3714    6.0319 C   0  0  0  0  0  0  0  0  0  0  0  0
   -6.3957   -0.8435    6.2502 C   0  0  1  0  0  0  0  0  0  0  0  0
   -7.4209   -2.2451    4.3899 C   0  0  1  0  0  0  0  0  0  0  0  0
   -1.4907    0.1159    3.1572 C   0  0  1  0  0  0  0  0  0  0  0  0
   -2.7612   -0.1323    5.3789 C   0  0  2  0  0  0  0  0  0  0  0  0
   -2.4907   -0.5961    0.9667 C   0  0  1  0  0  0  0  0  0  0  0  0
   -7.1104   -2.1723    5.9031 C   0  0  2  0  0  0  0  0  0  0  0  0
   -1.5464    0.4611    1.6373 C   0  0  1  0  0  0  0  0  0  0  0  0
   -0.3011    0.9379    3.6937 C   0  0  2  0  0  0  0  0  0  0  0  0
   -8.3171   -2.2832    6.6535 O   0  0  0  0  0  0  0  0  0  0  0  0
   -2.0342    1.9225    1.2968 C   0  0  0  0  0  0  0  0  0  0  0  0
   -0.0295    0.3217    1.2915 C   0  0  2  0  0  0  0  0  0  0  0  0
    0.7146    0.9184    2.5208 C   0  0  1  0  0  0  0  0  0  0  0  0
    0.3549    0.9546    0.0713 O   0  0  0  0  0  0  0  0  0  0  0  0
   -3.2393    1.2432    3.7934 H   0  0  0  0  0  0  0  0  0  0  0  0
   -3.5037   -1.7612    3.3602 H   0  0  0  0  0  0  0  0  0  0  0  0
   -1.1796   -0.9354    3.2654 H   0  0  0  0  0  0  0  0  0  0  0  0
   -7.0925    0.6710    3.9539 H   0  0  0  0  0  0  0  0  0  0  0  0
   -5.5828    1.4702    3.5538 H   0  0  0  0  0  0  0  0  0  0  0  0
   -6.4160    0.4618    2.3654 H   0  0  0  0  0  0  0  0  0  0  0  0
   -5.4855   -2.8938    3.7365 H   0  0  0  0  0  0  0  0  0  0  0  0
   -6.3980   -2.0346    2.5042 H   0  0  0  0  0  0  0  0  0  0  0  0
   -4.4725   -1.4379    1.1718 H   0  0  0  0  0  0  0  0  0  0  0  0
   -4.4144    0.3055    1.3132 H   0  0  0  0  0  0  0  0  0  0  0  0
   -3.9973   -0.3470    7.0236 H   0  0  0  0  0  0  0  0  0  0  0  0
   -6.1665   -0.8665    7.3202 H   0  0  0  0  0  0  0  0  0  0  0  0
   -7.0901   -0.0126    6.1166 H   0  0  0  0  0  0  0  0  0  0  0  0
   -8.1662   -1.4908    4.1283 H   0  0  0  0  0  0  0  0  0  0  0  0
   -7.8420   -3.2248    4.1508 H   0  0  0  0  0  0  0  0  0  0  0  0
   -2.2606    0.6938    5.8911 H   0  0  0  0  0  0  0  0  0  0  0  0
   -2.1475   -1.0262    5.5185 H   0  0  0  0  0  0  0  0  0  0  0  0
   -2.0657   -1.6007    1.0606 H   0  0  0  0  0  0  0  0  0  0  0  0
   -2.5863   -0.3907   -0.1036 H   0  0  0  0  0  0  0  0  0  0  0  0
   -6.4687   -3.0140    6.1824 H   0  0  0  0  0  0  0  0  0  0  0  0
    0.1183    0.4847    4.5959 H   0  0  0  0  0  0  0  0  0  0  0  0
   -0.6181    1.9572    3.9313 H   0  0  0  0  0  0  0  0  0  0  0  0
   -8.0354   -2.2528    7.5928 H   0  0  0  0  0  0  0  0  0  0  0  0
   -2.0579    2.0669    0.2140 H   0  0  0  0  0  0  0  0  0  0  0  0
   -1.3761    2.6865    1.7144 H   0  0  0  0  0  0  0  0  0  0  0  0
   -3.0344    2.1238    1.6749 H   0  0  0  0  0  0  0  0  0  0  0  0
    0.2440   -0.7357    1.1931 H   0  0  0  0  0  0  0  0  0  0  0  0
    1.0604    1.9346    2.3135 H   0  0  0  0  0  0  0  0  0  0  0  0
    1.5854    0.3059    2.7736 H   0  0  0  0  0  0  0  0  0  0  0  0
   -0.1643    0.4918   -0.6235 H   0  0  0  0  0  0  0  0  0  0  0  0
  2  1  1  0  0  0  0 
  3  2  1  0  0  0  0 
  2  4  1  0  0  0  0 
  2  5  1  0  0  0  0 
  6  3  1  0  0  0  0 
  3  7  1  0  0  0  0 
  3 23  1  0  0  0  0 
  4  8  2  0  0  0  0 
  4  9  1  0  0  0  0 
  5 10  1  0  0  0  0 
 11  6  1  0  0  0  0 
  6 12  1  0  0  0  0 
  6 22  1  0  0  0  0 
  7 13  1  0  0  0  0 
  8 12  1  0  0  0  0 
 14  9  1  0  0  0  0 
 14 10  1  0  0  0  0 
 15 11  1  0  0  0  0 
 11 16  1  0  0  0  0 
 11 24  1  0  0  0  0 
 15 13  1  0  0  0  0 
 14 17  1  0  0  0  0 
 15 18  1  0  0  0  0 
 15 19  1  0  0  0  0 
 16 20  1  0  0  0  0 
 19 20  1  0  0  0  0 
 19 21  1  0  0  0  0 
  1 25  1  0  0  0  0 
  1 26  1  0  0  0  0 
  1 27  1  0  0  0  0 
  5 28  1  0  0  0  0 
  5 29  1  0  0  0  0 
  7 30  1  0  0  0  0 
  7 31  1  0  0  0  0 
  8 32  1  0  0  0  0 
  9 33  1  0  0  0  0 
  9 34  1  0  0  0  0 
 10 35  1  0  0  0  0 
 10 36  1  0  0  0  0 
 12 37  1  0  0  0  0 
 12 38  1  0  0  0  0 
 13 39  1  0  0  0  0 
 13 40  1  0  0  0  0 
 14 41  1  0  0  0  0 
 16 42  1  0  0  0  0 
 16 43  1  0  0  0  0 
 17 44  1  0  0  0  0 
 18 45  1  0  0  0  0 
 18 46  1  0  0  0  0 
 18 47  1  0  0  0  0 
 19 48  1  0  0  0  0 
 20 49  1  0  0  0  0 
 20 50  1  0  0  0  0 
 21 51  1  0  0  0  0 
M  END
> <cdk:Title>
androstenediol

> <Conformer>
1

> <SuperDrugID>
SD000177

$$$$
