etizolam
  CDK     0628171801

 38 41  0  0  0  0  0  0  0  0999 V2000
    5.6027    2.4433   -2.0248 C   0  0  0  0  0  0  0  0  0  0  0  0
    5.1642    1.0713   -1.7028 C   0  0  0  0  0  0  0  0  0  0  0  0
    4.0176    0.6137   -1.1278 N   0  0  0  0  0  0  0  0  0  0  0  0
    5.9688    0.0359   -1.9856 N   0  0  0  0  0  0  0  0  0  0  0  0
    2.9256    1.3306   -0.6730 C   0  0  0  0  0  0  0  0  0  0  0  0
    4.1921   -0.7261   -1.0934 C   0  0  0  0  0  0  0  0  0  0  0  0
    5.3848   -1.0466   -1.6175 N   0  0  0  0  0  0  0  0  0  0  0  0
    1.7214    0.8714   -0.0790 C   0  0  0  0  0  0  0  0  0  0  0  0
    2.7920    3.0839   -0.7465 S   0  0  0  0  0  0  0  0  0  0  0  0
    3.3280   -1.8052   -0.5980 C   0  0  2  0  0  0  0  0  0  0  0  0
    1.3676   -0.4742    0.1338 C   0  0  0  0  0  0  0  0  0  0  0  0
    0.8375    1.9256    0.2883 C   0  0  0  0  0  0  0  0  0  0  0  0
    1.2172    3.2290   -0.0182 C   0  0  0  0  0  0  0  0  0  0  0  0
    2.0745   -1.5192   -0.1012 N   0  0  0  0  0  0  0  0  0  0  0  0
    0.1247   -0.8448    0.6403 C   0  0  0  0  0  0  0  0  0  0  0  0
    0.4566    4.4792    0.1981 C   0  0  2  0  0  0  0  0  0  0  0  0
   -1.0540   -0.8153   -0.1540 C   0  0  0  0  0  0  0  0  0  0  0  0
    0.0346   -1.2581    1.9918 C   0  0  0  0  0  0  0  0  0  0  0  0
   -0.2049    4.9822   -1.1050 C   0  0  0  0  0  0  0  0  0  0  0  0
   -1.0300   -0.3539   -1.7888 Cl  0  0  0  0  0  0  0  0  0  0  0  0
   -2.2935   -1.1804    0.4153 C   0  0  0  0  0  0  0  0  0  0  0  0
   -1.2028   -1.6310    2.5449 C   0  0  0  0  0  0  0  0  0  0  0  0
   -2.3659   -1.5937    1.7581 C   0  0  0  0  0  0  0  0  0  0  0  0
    4.9105    2.9019   -2.7305 H   0  0  0  0  0  0  0  0  0  0  0  0
    6.5943    2.4344   -2.4808 H   0  0  0  0  0  0  0  0  0  0  0  0
    5.6561    3.0410   -1.1153 H   0  0  0  0  0  0  0  0  0  0  0  0
    3.8652   -2.3311    0.1944 H   0  0  0  0  0  0  0  0  0  0  0  0
    3.1781   -2.5076   -1.4207 H   0  0  0  0  0  0  0  0  0  0  0  0
   -0.0600    1.7673    0.7483 H   0  0  0  0  0  0  0  0  0  0  0  0
    1.1286    5.2504    0.5822 H   0  0  0  0  0  0  0  0  0  0  0  0
   -0.3267    4.3155    0.9437 H   0  0  0  0  0  0  0  0  0  0  0  0
    0.8703   -1.2886    2.5862 H   0  0  0  0  0  0  0  0  0  0  0  0
   -0.7267    5.9245   -0.9210 H   0  0  0  0  0  0  0  0  0  0  0  0
   -0.9325    4.2515   -1.4666 H   0  0  0  0  0  0  0  0  0  0  0  0
    0.5467    5.1499   -1.8800 H   0  0  0  0  0  0  0  0  0  0  0  0
   -3.1508   -1.1499   -0.1438 H   0  0  0  0  0  0  0  0  0  0  0  0
   -1.2584   -1.9266    3.5236 H   0  0  0  0  0  0  0  0  0  0  0  0
   -3.2641   -1.8683    2.1629 H   0  0  0  0  0  0  0  0  0  0  0  0
  1  2  1  0  0  0  0 
  2  3  1  0  0  0  0 
  2  4  2  0  0  0  0 
  3  5  1  0  0  0  0 
  3  6  1  0  0  0  0 
  4  7  1  0  0  0  0 
  5  8  2  0  0  0  0 
  5  9  1  0  0  0  0 
  6  7  2  0  0  0  0 
  6 10  1  0  0  0  0 
  8 11  1  0  0  0  0 
  8 12  1  0  0  0  0 
  9 13  1  0  0  0  0 
 10 14  1  0  0  0  0 
 11 14  2  0  0  0  0 
 11 15  1  0  0  0  0 
 12 13  2  0  0  0  0 
 13 16  1  0  0  0  0 
 15 17  2  0  0  0  0 
 15 18  1  0  0  0  0 
 16 19  1  0  0  0  0 
 17 20  1  0  0  0  0 
 17 21  1  0  0  0  0 
 18 22  2  0  0  0  0 
 21 23  2  0  0  0  0 
 22 23  1  0  0  0  0 
  1 24  1  0  0  0  0 
  1 25  1  0  0  0  0 
  1 26  1  0  0  0  0 
 10 27  1  0  0  0  0 
 10 28  1  0  0  0  0 
 12 29  1  0  0  0  0 
 16 30  1  0  0  0  0 
 16 31  1  0  0  0  0 
 18 32  1  0  0  0  0 
 19 33  1  0  0  0  0 
 19 34  1  0  0  0  0 
 19 35  1  0  0  0  0 
 21 36  1  0  0  0  0 
 22 37  1  0  0  0  0 
 23 38  1  0  0  0  0 
M  END
> <cdk:Title>
etizolam

> <Conformer>
1

> <SuperDrugID>
SD000983

$$$$
