triamcinolone acetonide
  CDK     0628171801

 62 66  0  0  0  0  0  0  0  0999 V2000
   -0.7195    1.3161   -1.7452 C   0  0  0  0  0  0  0  0  0  0  0  0
   -1.6693    1.4736   -0.6154 C   0  0  2  0  0  0  0  0  0  0  0  0
   -0.9569    0.3927   -2.5589 O   0  0  0  0  0  0  0  0  0  0  0  0
    0.5098    2.1447   -1.9985 C   0  0  2  0  0  0  0  0  0  0  0  0
   -1.0430    1.2041    0.6317 O   0  0  0  0  0  0  0  0  0  0  0  0
    1.8837    1.3567   -1.8889 C   0  0  2  0  0  0  0  0  0  0  0  0
    0.7209    3.4326   -1.1423 C   0  0  1  0  0  0  0  0  0  0  0  0
    0.3272    2.6766   -3.3211 O   0  0  0  0  0  0  0  0  0  0  0  0
    1.8438    0.3880   -0.6418 C   0  0  0  0  0  0  0  0  0  0  0  0
    2.8937    2.5433   -1.7480 C   0  0  1  0  0  0  0  0  0  0  0  0
    2.3404    0.5454   -3.1563 C   0  0  1  0  0  0  0  0  0  0  0  0
    2.2135    3.4783   -0.7266 C   0  0  1  0  0  0  0  0  0  0  0  0
    0.4220    4.5607   -1.9708 O   0  0  0  0  0  0  0  0  0  0  0  0
   -0.0320    4.0619   -3.2322 C   0  0  2  0  0  0  0  0  0  0  0  0
    4.3788    2.0939   -1.5331 C   0  0  1  0  0  0  0  0  0  0  0  0
    3.8374    0.0730   -3.1177 C   0  0  1  0  0  0  0  0  0  0  0  0
   -1.5668    4.2740   -3.3456 C   0  0  0  0  0  0  0  0  0  0  0  0
    0.6937    4.8054   -4.3828 C   0  0  0  0  0  0  0  0  0  0  0  0
    4.8787    1.2118   -2.7534 C   0  0  1  0  0  0  0  0  0  0  0  0
    5.3336    3.3076   -1.3068 C   0  0  1  0  0  0  0  0  0  0  0  0
    3.9506   -1.0703   -2.2754 O   0  0  0  0  0  0  0  0  0  0  0  0
    4.8592    2.0371   -3.8727 F   0  0  0  0  0  0  0  0  0  0  0  0
    6.4096    0.7729   -2.5727 C   0  0  2  0  0  0  0  0  0  0  0  0
    6.8134    2.8763   -1.1456 C   0  0  2  0  0  0  0  0  0  0  0  0
    6.6700   -0.2626   -1.4149 C   0  0  0  0  0  0  0  0  0  0  0  0
    7.2141    2.0091   -2.2669 C   0  0  0  0  0  0  0  0  0  0  0  0
    6.8923    0.0795   -3.7950 C   0  0  0  0  0  0  0  0  0  0  0  0
    8.2856    2.3490   -3.0209 C   0  0  0  0  0  0  0  0  0  0  0  0
    7.9658    0.4763   -4.4959 C   0  0  0  0  0  0  0  0  0  0  0  0
    8.6797    1.5943   -4.1141 C   0  0  0  0  0  0  0  0  0  0  0  0
    9.6838    1.9357   -4.7814 O   0  0  0  0  0  0  0  0  0  0  0  0
    2.9005    3.1151   -2.6861 H   0  0  0  0  0  0  0  0  0  0  0  0
    4.4154    1.5028   -0.6184 H   0  0  0  0  0  0  0  0  0  0  0  0
    0.0993    3.4792   -0.2468 H   0  0  0  0  0  0  0  0  0  0  0  0
   -2.5072    0.7789   -0.7160 H   0  0  0  0  0  0  0  0  0  0  0  0
   -2.0778    2.4825   -0.5924 H   0  0  0  0  0  0  0  0  0  0  0  0
   -1.7454    1.3513    1.2994 H   0  0  0  0  0  0  0  0  0  0  0  0
    1.4947    0.8963    0.2554 H   0  0  0  0  0  0  0  0  0  0  0  0
    1.1710   -0.4501   -0.8348 H   0  0  0  0  0  0  0  0  0  0  0  0
    2.8112   -0.0393   -0.3981 H   0  0  0  0  0  0  0  0  0  0  0  0
    1.6914   -0.3232   -3.2957 H   0  0  0  0  0  0  0  0  0  0  0  0
    2.2220    1.1650   -4.0492 H   0  0  0  0  0  0  0  0  0  0  0  0
    2.6108    4.4963   -0.7787 H   0  0  0  0  0  0  0  0  0  0  0  0
    2.3439    3.1111    0.2950 H   0  0  0  0  0  0  0  0  0  0  0  0
    4.0669   -0.3000   -4.1206 H   0  0  0  0  0  0  0  0  0  0  0  0
   -2.0798    3.8553   -2.4830 H   0  0  0  0  0  0  0  0  0  0  0  0
   -1.9533    3.7925   -4.2457 H   0  0  0  0  0  0  0  0  0  0  0  0
   -1.8029    5.3400   -3.3874 H   0  0  0  0  0  0  0  0  0  0  0  0
    1.7688    4.6274   -4.3361 H   0  0  0  0  0  0  0  0  0  0  0  0
    0.3295    4.4518   -5.3508 H   0  0  0  0  0  0  0  0  0  0  0  0
    0.5201    5.8818   -4.3164 H   0  0  0  0  0  0  0  0  0  0  0  0
    5.2514    4.0091   -2.1433 H   0  0  0  0  0  0  0  0  0  0  0  0
    5.0386    3.8431   -0.4016 H   0  0  0  0  0  0  0  0  0  0  0  0
    3.3403   -1.7398   -2.6501 H   0  0  0  0  0  0  0  0  0  0  0  0
    6.8857    2.2605   -0.1920 H   0  0  0  0  0  0  0  0  0  0  0  0
    7.4081    3.8507   -1.1566 H   0  0  0  0  0  0  0  0  0  0  0  0
    7.7401   -0.3526   -1.2061 H   0  0  0  0  0  0  0  0  0  0  0  0
    6.3208   -1.2660   -1.6652 H   0  0  0  0  0  0  0  0  0  0  0  0
    6.1775    0.0245   -0.4881 H   0  0  0  0  0  0  0  0  0  0  0  0
    6.4157   -0.7335   -4.1116 H   0  0  0  0  0  0  0  0  0  0  0  0
    8.8119    3.1650   -2.8026 H   0  0  0  0  0  0  0  0  0  0  0  0
    8.2495   -0.0442   -5.2948 H   0  0  0  0  0  0  0  0  0  0  0  0
  1  2  1  0  0  0  0 
  1  3  2  0  0  0  0 
  2  5  1  0  0  0  0 
  4  1  1  0  0  0  0 
  6  4  1  0  0  0  0 
  4  7  1  0  0  0  0 
  4  8  1  0  0  0  0 
  6  9  1  0  0  0  0 
 10  6  1  0  0  0  0 
  6 11  1  0  0  0  0 
  7 12  1  0  0  0  0 
  7 13  1  0  0  0  0 
  7 34  1  0  0  0  0 
  8 14  1  0  0  0  0 
 10 12  1  0  0  0  0 
 15 10  1  0  0  0  0 
 10 32  1  0  0  0  0 
 16 11  1  0  0  0  0 
 13 14  1  0  0  0  0 
 14 17  1  0  0  0  0 
 14 18  1  0  0  0  0 
 15 19  1  0  0  0  0 
 15 20  1  0  0  0  0 
 15 33  1  0  0  0  0 
 19 16  1  0  0  0  0 
 16 21  1  0  0  0  0 
 19 22  1  0  0  0  0 
 19 23  1  0  0  0  0 
 20 24  1  0  0  0  0 
 23 25  1  0  0  0  0 
 23 26  1  0  0  0  0 
 23 27  1  0  0  0  0 
 24 26  1  0  0  0  0 
 26 28  2  0  0  0  0 
 27 29  2  0  0  0  0 
 28 30  1  0  0  0  0 
 29 30  1  0  0  0  0 
 30 31  2  0  0  0  0 
  2 35  1  0  0  0  0 
  2 36  1  0  0  0  0 
  5 37  1  0  0  0  0 
  9 38  1  0  0  0  0 
  9 39  1  0  0  0  0 
  9 40  1  0  0  0  0 
 11 41  1  0  0  0  0 
 11 42  1  0  0  0  0 
 12 43  1  0  0  0  0 
 12 44  1  0  0  0  0 
 16 45  1  0  0  0  0 
 17 46  1  0  0  0  0 
 17 47  1  0  0  0  0 
 17 48  1  0  0  0  0 
 18 49  1  0  0  0  0 
 18 50  1  0  0  0  0 
 18 51  1  0  0  0  0 
 20 52  1  0  0  0  0 
 20 53  1  0  0  0  0 
 21 54  1  0  0  0  0 
 24 55  1  0  0  0  0 
 24 56  1  0  0  0  0 
 25 57  1  0  0  0  0 
 25 58  1  0  0  0  0 
 25 59  1  0  0  0  0 
 27 60  1  0  0  0  0 
 28 61  1  0  0  0  0 
 29 62  1  0  0  0  0 
M  END
> <cdk:Title>
triamcinolone acetonide

> <Conformer>
1

> <SuperDrugID>
SD002456

$$$$
