diosmetin
  CDK     0628171802

 34 36  0  0  0  0  0  0  0  0999 V2000
   -3.8865    0.0667    3.7562 O   0  0  0  0  0  0  0  0  0  0  0  0
   -2.8444    0.7619    3.7818 C   0  0  0  0  0  0  0  0  0  0  0  0
   -1.7686    0.5246    2.8865 C   0  0  0  0  0  0  0  0  0  0  0  0
   -2.7779    1.7900    4.7439 C   0  0  0  0  0  0  0  0  0  0  0  0
   -0.6188    1.3508    3.0159 C   0  0  0  0  0  0  0  0  0  0  0  0
   -1.7665   -0.4793    1.8819 C   0  0  0  0  0  0  0  0  0  0  0  0
   -1.6212    2.5899    4.8263 C   0  0  0  0  0  0  0  0  0  0  0  0
   -0.5914    2.3297    3.9670 O   0  0  0  0  0  0  0  0  0  0  0  0
    0.4972    1.1787    2.1747 C   0  0  0  0  0  0  0  0  0  0  0  0
   -2.8255   -1.2985    1.6612 O   0  0  0  0  0  0  0  0  0  0  0  0
   -0.6379   -0.6591    1.0584 C   0  0  0  0  0  0  0  0  0  0  0  0
   -1.4664    3.6445    5.7544 C   0  0  0  0  0  0  0  0  0  0  0  0
    0.4916    0.1669    1.1987 C   0  0  0  0  0  0  0  0  0  0  0  0
   -2.4432    4.6573    5.9031 C   0  0  0  0  0  0  0  0  0  0  0  0
   -0.2884    3.7118    6.5321 C   0  0  0  0  0  0  0  0  0  0  0  0
    1.5719   -0.0055    0.3982 O   0  0  0  0  0  0  0  0  0  0  0  0
   -2.2356    5.7251    6.7991 C   0  0  0  0  0  0  0  0  0  0  0  0
   -0.0963    4.7593    7.4508 C   0  0  0  0  0  0  0  0  0  0  0  0
   -3.1527    6.7186    6.8835 O   0  0  0  0  0  0  0  0  0  0  0  0
   -1.0693    5.7689    7.5923 C   0  0  0  0  0  0  0  0  0  0  0  0
   -0.8963    6.7570    8.5255 O   0  0  0  0  0  0  0  0  0  0  0  0
   -0.1501    7.8901    8.0469 C   0  0  0  0  0  0  0  0  0  0  0  0
   -3.5602    1.9431    5.3873 H   0  0  0  0  0  0  0  0  0  0  0  0
    1.3102    1.7916    2.2750 H   0  0  0  0  0  0  0  0  0  0  0  0
   -3.6091   -0.7087    1.6661 H   0  0  0  0  0  0  0  0  0  0  0  0
   -0.6385   -1.3920    0.3449 H   0  0  0  0  0  0  0  0  0  0  0  0
   -3.3006    4.6339    5.3447 H   0  0  0  0  0  0  0  0  0  0  0  0
    0.4372    2.9930    6.4426 H   0  0  0  0  0  0  0  0  0  0  0  0
    1.3231   -0.7123   -0.2337 H   0  0  0  0  0  0  0  0  0  0  0  0
    0.7576    4.7876    8.0144 H   0  0  0  0  0  0  0  0  0  0  0  0
   -3.8047    6.4086    7.5444 H   0  0  0  0  0  0  0  0  0  0  0  0
   -0.1026    8.6195    8.8560 H   0  0  0  0  0  0  0  0  0  0  0  0
    0.8742    7.6172    7.7781 H   0  0  0  0  0  0  0  0  0  0  0  0
   -0.6389    8.3649    7.1918 H   0  0  0  0  0  0  0  0  0  0  0  0
  1  2  2  0  0  0  0 
  2  3  1  0  0  0  0 
  2  4  1  0  0  0  0 
  3  5  1  0  0  0  0 
  3  6  2  0  0  0  0 
  4  7  2  0  0  0  0 
  5  8  1  0  0  0  0 
  5  9  2  0  0  0  0 
  6 10  1  0  0  0  0 
  6 11  1  0  0  0  0 
  7  8  1  0  0  0  0 
  7 12  1  0  0  0  0 
  9 13  1  0  0  0  0 
 11 13  2  0  0  0  0 
 12 14  2  0  0  0  0 
 12 15  1  0  0  0  0 
 13 16  1  0  0  0  0 
 14 17  1  0  0  0  0 
 15 18  2  0  0  0  0 
 17 19  1  0  0  0  0 
 17 20  2  0  0  0  0 
 18 20  1  0  0  0  0 
 20 21  1  0  0  0  0 
 21 22  1  0  0  0  0 
 23  4  1  0  0  0  0 
 24  9  1  0  0  0  0 
 25 10  1  0  0  0  0 
 26 11  1  0  0  0  0 
 27 14  1  0  0  0  0 
 28 15  1  0  0  0  0 
 29 16  1  0  0  0  0 
 30 18  1  0  0  0  0 
 31 19  1  0  0  0  0 
 32 22  1  0  0  0  0 
 33 22  1  0  0  0  0 
 34 22  1  0  0  0  0 
M  END
> <cdk:Title>
diosmetin

> <Conformer>
1

> <SuperDrugID>
SD003647

$$$$
