azilsartan medoxomil
  CDK     0628171801

 66 71  0  0  0  0  0  0  0  0999 V2000
   -4.1280   -3.2016   -0.7518 C   0  0  2  0  0  0  0  0  0  0  0  0
   -3.8392   -4.0780    0.3536 N   0  0  0  0  0  0  0  0  0  0  0  0
   -4.1629   -3.9162   -2.0627 C   0  0  0  0  0  0  0  0  0  0  0  0
   -2.7363   -4.1537    1.1483 C   0  0  0  0  0  0  0  0  0  0  0  0
   -4.7252   -5.0026    0.8041 C   0  0  0  0  0  0  0  0  0  0  0  0
   -5.3459   -3.7761   -2.8954 C   0  0  0  0  0  0  0  0  0  0  0  0
   -3.0039   -4.7077   -2.4424 C   0  0  0  0  0  0  0  0  0  0  0  0
   -3.0386   -5.1383    2.0979 C   0  0  0  0  0  0  0  0  0  0  0  0
   -1.4732   -3.4897    1.2023 C   0  0  0  0  0  0  0  0  0  0  0  0
   -5.9656   -5.2449    0.2748 O   0  0  0  0  0  0  0  0  0  0  0  0
   -4.2504   -5.6515    1.8779 N   0  0  0  0  0  0  0  0  0  0  0  0
   -5.3332   -4.4511   -4.1726 C   0  0  0  0  0  0  0  0  0  0  0  0
   -3.0489   -5.3165   -3.7068 C   0  0  0  0  0  0  0  0  0  0  0  0
   -2.1545   -5.4970    3.1239 C   0  0  0  0  0  0  0  0  0  0  0  0
   -0.9914   -2.5414    0.2728 C   0  0  0  0  0  0  0  0  0  0  0  0
   -0.5894   -3.8362    2.2586 C   0  0  0  0  0  0  0  0  0  0  0  0
   -6.0308   -6.4989   -0.4310 C   0  0  1  0  0  0  0  0  0  0  0  0
   -4.1812   -5.1934   -4.5520 C   0  0  0  0  0  0  0  0  0  0  0  0
   -0.9212   -4.8309    3.2000 C   0  0  0  0  0  0  0  0  0  0  0  0
   -0.4618   -1.3668    0.7298 O   0  0  0  0  0  0  0  0  0  0  0  0
   -0.9794   -2.8037   -0.9514 O   0  0  0  0  0  0  0  0  0  0  0  0
   -7.4394   -6.6741   -1.0268 C   0  0  0  0  0  0  0  0  0  0  0  0
   -4.1633   -5.8279   -5.8199 C   0  0  0  0  0  0  0  0  0  0  0  0
    0.1503   -0.3166   -0.0332 C   0  0  2  0  0  0  0  0  0  0  0  0
   -4.5984   -7.1711   -6.0190 C   0  0  0  0  0  0  0  0  0  0  0  0
   -3.7358   -5.0562   -6.9276 C   0  0  0  0  0  0  0  0  0  0  0  0
    1.4446    0.0308    0.5753 C   0  0  0  0  0  0  0  0  0  0  0  0
   -4.6021   -7.6910   -7.3372 C   0  0  0  0  0  0  0  0  0  0  0  0
   -5.0285   -8.0231   -4.9651 C   0  0  0  0  0  0  0  0  0  0  0  0
   -3.7379   -5.5991   -8.2228 C   0  0  0  0  0  0  0  0  0  0  0  0
    1.5749    0.4044    1.8670 O   0  0  0  0  0  0  0  0  0  0  0  0
    2.7162    0.0556   -0.0052 C   0  0  0  0  0  0  0  0  0  0  0  0
   -4.1712   -6.9169   -8.4270 C   0  0  0  0  0  0  0  0  0  0  0  0
   -4.5938   -8.0206   -3.6943 N   0  0  0  0  0  0  0  0  0  0  0  0
   -5.9348   -9.0093   -5.0744 N   0  0  0  0  0  0  0  0  0  0  0  0
    2.8887    0.6389    2.0732 C   0  0  0  0  0  0  0  0  0  0  0  0
    3.0883   -0.2372   -1.3975 C   0  0  0  0  0  0  0  0  0  0  0  0
    3.6022    0.4265    0.9461 O   0  0  0  0  0  0  0  0  0  0  0  0
   -5.2428   -9.0177   -3.0790 C   0  0  0  0  0  0  0  0  0  0  0  0
   -6.0836   -9.6270   -3.9400 O   0  0  0  0  0  0  0  0  0  0  0  0
    3.3762    1.0111    3.1624 O   0  0  0  0  0  0  0  0  0  0  0  0
   -5.0889   -9.3442   -1.8815 O   0  0  0  0  0  0  0  0  0  0  0  0
   -3.4078   -2.3919   -0.8239 H   0  0  0  0  0  0  0  0  0  0  0  0
   -5.0831   -2.7066   -0.5407 H   0  0  0  0  0  0  0  0  0  0  0  0
   -6.1590   -3.2266   -2.6111 H   0  0  0  0  0  0  0  0  0  0  0  0
   -2.1945   -4.8313   -1.8342 H   0  0  0  0  0  0  0  0  0  0  0  0
   -6.1317   -4.4462   -4.8970 H   0  0  0  0  0  0  0  0  0  0  0  0
   -2.2390   -5.8646   -4.0127 H   0  0  0  0  0  0  0  0  0  0  0  0
   -2.4033   -6.2218    3.8003 H   0  0  0  0  0  0  0  0  0  0  0  0
    0.3244   -3.3815    2.3444 H   0  0  0  0  0  0  0  0  0  0  0  0
   -5.3047   -6.5166   -1.2489 H   0  0  0  0  0  0  0  0  0  0  0  0
   -5.8267   -7.3375    0.2431 H   0  0  0  0  0  0  0  0  0  0  0  0
   -0.2588   -5.0757    3.9383 H   0  0  0  0  0  0  0  0  0  0  0  0
   -7.6369   -5.8831   -1.7515 H   0  0  0  0  0  0  0  0  0  0  0  0
   -7.5202   -7.6406   -1.5285 H   0  0  0  0  0  0  0  0  0  0  0  0
   -8.1887   -6.6251   -0.2348 H   0  0  0  0  0  0  0  0  0  0  0  0
   -0.4997    0.5557    0.0167 H   0  0  0  0  0  0  0  0  0  0  0  0
    0.2761   -0.5881   -1.0832 H   0  0  0  0  0  0  0  0  0  0  0  0
   -3.4263   -4.0881   -6.8031 H   0  0  0  0  0  0  0  0  0  0  0  0
   -4.9085   -8.6497   -7.5204 H   0  0  0  0  0  0  0  0  0  0  0  0
   -3.4294   -5.0344   -9.0168 H   0  0  0  0  0  0  0  0  0  0  0  0
   -4.1712   -7.3148   -9.3685 H   0  0  0  0  0  0  0  0  0  0  0  0
   -6.4133   -9.2292   -5.8890 H   0  0  0  0  0  0  0  0  0  0  0  0
    2.7749   -1.2455   -1.6705 H   0  0  0  0  0  0  0  0  0  0  0  0
    4.1701   -0.1608   -1.5167 H   0  0  0  0  0  0  0  0  0  0  0  0
    2.6138    0.4820   -2.0659 H   0  0  0  0  0  0  0  0  0  0  0  0
  1  2  1  0  0  0  0 
  1  3  1  0  0  0  0 
  2  4  1  0  0  0  0 
  2  5  1  0  0  0  0 
  3  6  2  0  0  0  0 
  3  7  1  0  0  0  0 
  4  8  1  0  0  0  0 
  4  9  2  0  0  0  0 
  5 10  1  0  0  0  0 
  5 11  2  0  0  0  0 
  6 12  1  0  0  0  0 
  7 13  2  0  0  0  0 
  8 11  1  0  0  0  0 
  8 14  2  0  0  0  0 
  9 15  1  0  0  0  0 
  9 16  1  0  0  0  0 
 10 17  1  0  0  0  0 
 12 18  2  0  0  0  0 
 13 18  1  0  0  0  0 
 14 19  1  0  0  0  0 
 15 20  1  0  0  0  0 
 15 21  2  0  0  0  0 
 16 19  2  0  0  0  0 
 17 22  1  0  0  0  0 
 18 23  1  0  0  0  0 
 20 24  1  0  0  0  0 
 23 25  2  0  0  0  0 
 23 26  1  0  0  0  0 
 24 27  1  0  0  0  0 
 25 28  1  0  0  0  0 
 25 29  1  0  0  0  0 
 26 30  2  0  0  0  0 
 27 31  1  0  0  0  0 
 27 32  2  0  0  0  0 
 28 33  2  0  0  0  0 
 29 34  2  0  0  0  0 
 29 35  1  0  0  0  0 
 30 33  1  0  0  0  0 
 31 36  1  0  0  0  0 
 32 37  1  0  0  0  0 
 32 38  1  0  0  0  0 
 34 39  1  0  0  0  0 
 35 40  1  0  0  0  0 
 36 38  1  0  0  0  0 
 36 41  2  0  0  0  0 
 39 40  1  0  0  0  0 
 39 42  2  0  0  0  0 
 43  1  1  0  0  0  0 
 44  1  1  0  0  0  0 
 45  6  1  0  0  0  0 
 46  7  1  0  0  0  0 
 47 12  1  0  0  0  0 
 48 13  1  0  0  0  0 
 49 14  1  0  0  0  0 
 50 16  1  0  0  0  0 
 51 17  1  0  0  0  0 
 52 17  1  0  0  0  0 
 53 19  1  0  0  0  0 
 54 22  1  0  0  0  0 
 55 22  1  0  0  0  0 
 56 22  1  0  0  0  0 
 57 24  1  0  0  0  0 
 58 24  1  0  0  0  0 
 59 26  1  0  0  0  0 
 60 28  1  0  0  0  0 
 61 30  1  0  0  0  0 
 62 33  1  0  0  0  0 
 63 35  1  0  0  0  0 
 64 37  1  0  0  0  0 
 65 37  1  0  0  0  0 
 66 37  1  0  0  0  0 
M  END
> <cdk:Title>
azilsartan medoxomil

> <Conformer>
1

> <SuperDrugID>
SD003497

$$$$
