levoverbenone
  CDK     0628171801

 25 26  0  0  0  0  0  0  0  0999 V2000
   -4.0804    1.7734    1.5174 C   0  0  0  0  0  0  0  0  0  0  0  0
   -2.9805    0.9633    0.7405 C   0  0  1  0  0  0  0  0  0  0  0  0
   -3.2160    1.2432   -0.7895 C   0  0  0  0  0  0  0  0  0  0  0  0
   -1.5241    1.1393    1.3234 C   0  0  1  0  0  0  0  0  0  0  0  0
   -2.8105   -0.5300    1.2172 C   0  0  2  0  0  0  0  0  0  0  0  0
   -1.8548   -0.0072    2.3386 C   0  0  1  0  0  0  0  0  0  0  0  0
   -0.4902    0.5971    0.3838 C   0  0  0  0  0  0  0  0  0  0  0  0
   -1.9266   -1.2950    0.2543 C   0  0  0  0  0  0  0  0  0  0  0  0
    0.6801    1.3883    0.0540 C   0  0  0  0  0  0  0  0  0  0  0  0
   -0.7302   -0.6448   -0.1258 C   0  0  0  0  0  0  0  0  0  0  0  0
   -2.2443   -2.4252   -0.1814 O   0  0  0  0  0  0  0  0  0  0  0  0
   -4.0187    1.6635    2.5982 H   0  0  0  0  0  0  0  0  0  0  0  0
   -5.0775    1.4440    1.2152 H   0  0  0  0  0  0  0  0  0  0  0  0
   -3.9876    2.8398    1.2967 H   0  0  0  0  0  0  0  0  0  0  0  0
   -2.5157    0.7384   -1.4498 H   0  0  0  0  0  0  0  0  0  0  0  0
   -4.2172    0.9181   -1.0798 H   0  0  0  0  0  0  0  0  0  0  0  0
   -3.1282    2.3128   -0.9911 H   0  0  0  0  0  0  0  0  0  0  0  0
   -1.3071    2.1092    1.7824 H   0  0  0  0  0  0  0  0  0  0  0  0
   -3.7126   -1.0418    1.5646 H   0  0  0  0  0  0  0  0  0  0  0  0
   -1.0212   -0.6659    2.6104 H   0  0  0  0  0  0  0  0  0  0  0  0
   -2.3653    0.3281    3.2451 H   0  0  0  0  0  0  0  0  0  0  0  0
    1.3504    0.8724   -0.6373 H   0  0  0  0  0  0  0  0  0  0  0  0
    0.3638    2.3239   -0.4108 H   0  0  0  0  0  0  0  0  0  0  0  0
    1.2368    1.6181    0.9641 H   0  0  0  0  0  0  0  0  0  0  0  0
   -0.0974   -1.0837   -0.7533 H   0  0  0  0  0  0  0  0  0  0  0  0
  1  2  1  0  0  0  0 
  2  3  1  0  0  0  0 
  4  2  1  0  0  0  0 
  5  2  1  0  0  0  0 
  4  6  1  0  0  0  0 
  4  7  1  0  0  0  0 
  5  6  1  0  0  0  0 
  5  8  1  0  0  0  0 
  7  9  1  0  0  0  0 
  7 10  2  0  0  0  0 
  8 10  1  0  0  0  0 
  8 11  2  0  0  0  0 
 12  1  1  0  0  0  0 
 13  1  1  0  0  0  0 
 14  1  1  0  0  0  0 
 15  3  1  0  0  0  0 
 16  3  1  0  0  0  0 
 17  3  1  0  0  0  0 
  4 18  1  0  0  0  0 
  5 19  1  0  0  0  0 
 20  6  1  0  0  0  0 
 21  6  1  0  0  0  0 
 22  9  1  0  0  0  0 
 23  9  1  0  0  0  0 
 24  9  1  0  0  0  0 
 25 10  1  0  0  0  0 
M  END
> <cdk:Title>
levoverbenone

> <Conformer>
1

> <SuperDrugID>
SD003642

$$$$
