captopril
  CDK     0628171802

 29 29  0  0  0  0  0  0  0  0999 V2000
   -0.4834   -1.0868   -0.3248 C   0  0  0  0  0  0  0  0  0  0  0  0
   -0.7818    0.1754   -1.0745 C   0  0  1  0  0  0  0  0  0  0  0  0
   -1.4688   -1.6384    0.2251 O   0  0  0  0  0  0  0  0  0  0  0  0
    0.7599   -1.6915   -0.2058 N   0  0  0  0  0  0  0  0  0  0  0  0
   -1.6920   -0.0933   -2.3129 C   0  0  2  0  0  0  0  0  0  0  0  0
   -1.4112    1.2371   -0.1280 C   0  0  0  0  0  0  0  0  0  0  0  0
    0.9731   -2.9070    0.5431 C   0  0  2  0  0  0  0  0  0  0  0  0
    1.9672   -1.2288   -0.8269 C   0  0  2  0  0  0  0  0  0  0  0  0
   -0.9077   -1.1841   -3.5264 S   0  0  0  0  0  0  0  0  0  0  0  0
    0.5992   -2.8169    1.9757 C   0  0  0  0  0  0  0  0  0  0  0  0
    2.4689   -3.2621    0.3600 C   0  0  2  0  0  0  0  0  0  0  0  0
    2.8726   -2.4700   -0.8874 C   0  0  1  0  0  0  0  0  0  0  0  0
   -0.2610   -3.7152    2.5108 O   0  0  0  0  0  0  0  0  0  0  0  0
    1.0706   -1.9212    2.7134 O   0  0  0  0  0  0  0  0  0  0  0  0
    0.1392    0.6287   -1.4467 H   0  0  0  0  0  0  0  0  0  0  0  0
   -1.9185    0.8482   -2.8199 H   0  0  0  0  0  0  0  0  0  0  0  0
   -2.6373   -0.5459   -2.0015 H   0  0  0  0  0  0  0  0  0  0  0  0
   -1.5572    2.1813   -0.6583 H   0  0  0  0  0  0  0  0  0  0  0  0
   -2.3800    0.8997    0.2500 H   0  0  0  0  0  0  0  0  0  0  0  0
   -0.7491    1.4229    0.7221 H   0  0  0  0  0  0  0  0  0  0  0  0
    0.3811   -3.6971    0.0691 H   0  0  0  0  0  0  0  0  0  0  0  0
    2.4224   -0.4494   -0.2065 H   0  0  0  0  0  0  0  0  0  0  0  0
    1.8243   -0.8514   -1.8436 H   0  0  0  0  0  0  0  0  0  0  0  0
   -2.0166   -1.2684   -4.3163 H   0  0  0  0  0  0  0  0  0  0  0  0
    2.6085   -4.3375    0.2144 H   0  0  0  0  0  0  0  0  0  0  0  0
    3.0771   -2.9349    1.2103 H   0  0  0  0  0  0  0  0  0  0  0  0
    2.6435   -3.0550   -1.7837 H   0  0  0  0  0  0  0  0  0  0  0  0
    3.9341   -2.2073   -0.8834 H   0  0  0  0  0  0  0  0  0  0  0  0
   -0.5014   -3.6628    3.4592 H   0  0  0  0  0  0  0  0  0  0  0  0
  2  1  1  0  0  0  0 
  1  3  2  0  0  0  0 
  1  4  1  0  0  0  0 
  2  5  1  0  0  0  0 
  2  6  1  0  0  0  0 
  7  4  1  0  0  0  0 
  4  8  1  0  0  0  0 
  5  9  1  0  0  0  0 
  7 10  1  0  0  0  0 
  7 11  1  0  0  0  0 
  8 12  1  0  0  0  0 
 10 13  1  0  0  0  0 
 10 14  2  0  0  0  0 
 11 12  1  0  0  0  0 
  2 15  1  0  0  0  0 
  5 16  1  0  0  0  0 
  5 17  1  0  0  0  0 
  6 18  1  0  0  0  0 
  6 19  1  0  0  0  0 
  6 20  1  0  0  0  0 
  7 21  1  0  0  0  0 
  8 22  1  0  0  0  0 
  8 23  1  0  0  0  0 
  9 24  1  0  0  0  0 
 11 25  1  0  0  0  0 
 11 26  1  0  0  0  0 
 12 27  1  0  0  0  0 
 12 28  1  0  0  0  0 
 13 29  1  0  0  0  0 
M  END
> <cdk:Title>
captopril

> <Conformer>
1

> <SuperDrugID>
SD000418

$$$$
