vintafolide
  CDK     0628171802

244255  0  0  0  0  0  0  0  0999 V2000
   -7.7883    0.1889    1.4041 C   0  0  1  0  0  0  0  0  0  0  0  0
   -8.9684   -0.3717    0.5664 C   0  0  0  0  0  0  0  0  0  0  0  0
   -7.9041    1.6025    2.1304 C   0  0  1  0  0  0  0  0  0  0  0  0
   -6.4802    1.9150    2.8108 C   0  0  1  0  0  0  0  0  0  0  0  0
   -5.5538    3.0859    2.2710 C   0  0  1  0  0  0  0  0  0  0  0  0
   -4.2598    2.7221    1.6104 C   0  0  0  0  0  0  0  0  0  0  0  0
   -3.9739    3.6057    0.5796 C   0  0  0  0  0  0  0  0  0  0  0  0
   -5.0047    4.4566    0.3945 N   0  0  0  0  0  0  0  0  0  0  0  0
   -6.1468    4.0307    1.1586 C   0  0  1  0  0  0  0  0  0  0  0  0
   -7.2813    3.4105    0.2568 C   0  0  2  0  0  0  0  0  0  0  0  0
   -8.3761    2.7956    1.1947 C   0  0  2  0  0  0  0  0  0  0  0  0
   -8.9235    3.8702    1.9778 O   0  0  0  0  0  0  0  0  0  0  0  0
   -6.8811    2.4220   -0.7960 C   0  0  0  0  0  0  0  0  0  0  0  0
   -7.7399    2.1088   -1.8043 N   0  0  0  0  0  0  0  0  0  0  0  0
   -7.6828    0.9793   -2.4508 N   0  0  0  0  0  0  0  0  0  0  0  0
   -6.9589    0.6983   -3.5512 C   0  0  0  0  0  0  0  0  0  0  0  0
   -7.1071   -0.5790   -3.9846 O   0  0  0  0  0  0  0  0  0  0  0  0
   -6.4466   -1.2795   -5.0395 C   0  0  1  0  0  0  0  0  0  0  0  0
   -7.1012   -2.6794   -5.0966 C   0  0  2  0  0  0  0  0  0  0  0  0
   -6.0633   -3.9428   -5.8927 S   0  0  0  0  0  0  0  0  0  0  0  0
   -7.1799   -5.7024   -5.5900 S   0  0  0  0  0  0  0  0  0  0  0  0
   -6.9657   -6.0160   -3.8104 C   0  0  1  0  0  0  0  0  0  0  0  0
   -7.4206   -7.4371   -3.3828 C   0  0  2  0  0  0  0  0  0  0  0  0
   -8.8140   -7.6261   -3.6514 N   0  0  0  0  0  0  0  0  0  0  0  0
   -9.4008   -8.7810   -4.0830 C   0  0  0  0  0  0  0  0  0  0  0  0
  -10.8528   -8.8061   -4.4123 C   0  0  1  0  0  0  0  0  0  0  0  0
  -11.6162   -8.6201   -3.2089 N   0  0  0  0  0  0  0  0  0  0  0  0
  -12.9553   -8.8770   -3.0613 C   0  0  0  0  0  0  0  0  0  0  0  0
  -13.5929   -8.8374   -1.7211 C   0  0  1  0  0  0  0  0  0  0  0  0
  -13.0902   -9.9913   -1.0417 N   0  0  0  0  0  0  0  0  0  0  0  0
  -13.7858  -10.8161   -0.2093 C   0  0  0  0  0  0  0  0  0  0  0  0
  -13.1674  -12.0944    0.2236 C   0  0  1  0  0  0  0  0  0  0  0  0
  -13.1423  -12.9034   -0.9606 N   0  0  0  0  0  0  0  0  0  0  0  0
  -12.9241  -14.2443   -1.0392 C   0  0  0  0  0  0  0  0  0  0  0  0
  -13.3850  -14.9857   -2.2443 C   0  0  1  0  0  0  0  0  0  0  0  0
  -14.8244  -14.9747   -2.2266 N   0  0  0  0  0  0  0  0  0  0  0  0
  -15.6722  -13.9749   -2.6132 C   0  0  0  0  0  0  0  0  0  0  0  0
  -17.1020  -14.0673   -2.2382 C   0  0  2  0  0  0  0  0  0  0  0  0
  -17.8615  -15.2896   -2.8366 C   0  0  1  0  0  0  0  0  0  0  0  0
  -19.2597  -15.5299   -2.1728 C   0  0  2  0  0  0  0  0  0  0  0  0
  -20.0541  -16.6536   -2.5942 N   0  0  0  0  0  0  0  0  0  0  0  0
  -19.7210  -17.9377   -2.8962 C   0  0  0  0  0  0  0  0  0  0  0  0
  -20.6724  -18.7089   -3.1528 O   0  0  0  0  0  0  0  0  0  0  0  0
  -18.4300  -18.4683   -3.0312 C   0  0  0  0  0  0  0  0  0  0  0  0
  -17.8820  -18.5763   -4.3255 C   0  0  0  0  0  0  0  0  0  0  0  0
  -16.5926  -19.0964   -4.5122 C   0  0  0  0  0  0  0  0  0  0  0  0
  -15.8106  -19.5112   -3.4087 C   0  0  0  0  0  0  0  0  0  0  0  0
  -16.3725  -19.4115   -2.1159 C   0  0  0  0  0  0  0  0  0  0  0  0
  -17.6735  -18.9043   -1.9231 C   0  0  0  0  0  0  0  0  0  0  0  0
  -14.5351  -19.9945   -3.5129 N   0  0  0  0  0  0  0  0  0  0  0  0
  -13.9293  -20.5668   -4.6767 C   0  0  1  0  0  0  0  0  0  0  0  0
  -12.4579  -20.5919   -4.5397 C   0  0  0  0  0  0  0  0  0  0  0  0
  -11.8788  -21.3163   -3.5412 N   0  0  0  0  0  0  0  0  0  0  0  0
  -10.5321  -21.3798   -3.3653 C   0  0  0  0  0  0  0  0  0  0  0  0
   -9.6981  -20.6579   -4.2536 C   0  0  0  0  0  0  0  0  0  0  0  0
  -10.2672  -19.9381   -5.2504 N   0  0  0  0  0  0  0  0  0  0  0  0
  -11.6108  -19.8860   -5.4254 C   0  0  0  0  0  0  0  0  0  0  0  0
   -8.3513  -20.6988   -4.1109 N   0  0  0  0  0  0  0  0  0  0  0  0
   -7.7752  -21.4304   -3.1243 C   0  0  0  0  0  0  0  0  0  0  0  0
   -8.5505  -22.1330   -2.2558 N   0  0  0  0  0  0  0  0  0  0  0  0
   -9.9068  -22.1290   -2.3502 C   0  0  0  0  0  0  0  0  0  0  0  0
  -10.5756  -22.7994   -1.5315 O   0  0  0  0  0  0  0  0  0  0  0  0
   -6.4389  -21.4663   -3.0204 N   0  0  0  0  0  0  0  0  0  0  0  0
  -20.1423  -14.3563   -2.3784 C   0  0  0  0  0  0  0  0  0  0  0  0
  -20.6208  -13.6537   -1.3269 O   0  0  0  0  0  0  0  0  0  0  0  0
  -20.4783  -13.9972   -3.5311 O   0  0  0  0  0  0  0  0  0  0  0  0
  -15.2675  -12.9498   -3.2105 O   0  0  0  0  0  0  0  0  0  0  0  0
  -12.7092  -14.5420   -3.5785 C   0  0  1  0  0  0  0  0  0  0  0  0
  -13.3311  -15.1781   -4.7586 C   0  0  0  0  0  0  0  0  0  0  0  0
  -14.0432  -14.4353   -5.6381 O   0  0  0  0  0  0  0  0  0  0  0  0
  -13.2372  -16.4118   -4.9499 O   0  0  0  0  0  0  0  0  0  0  0  0
  -12.4420  -14.8816   -0.0729 O   0  0  0  0  0  0  0  0  0  0  0  0
  -11.7932  -11.9052    0.9399 C   0  0  2  0  0  0  0  0  0  0  0  0
  -11.9168  -11.1236    2.2789 C   0  0  1  0  0  0  0  0  0  0  0  0
  -10.5797  -10.9714    3.0479 C   0  0  1  0  0  0  0  0  0  0  0  0
  -10.8162  -10.2767    4.2337 N   0  0  0  0  0  0  0  0  0  0  0  0
   -9.9968   -9.9464    5.1651 C   0  0  0  0  0  0  0  0  0  0  0  0
   -8.7119  -10.2437    5.1536 N   0  0  0  0  0  0  0  0  0  0  0  0
  -10.4812   -9.2756    6.1857 N   0  0  0  0  0  0  0  0  0  0  0  0
  -14.9577  -10.5470    0.1498 O   0  0  0  0  0  0  0  0  0  0  0  0
  -13.2902   -7.5224   -0.9481 C   0  0  1  0  0  0  0  0  0  0  0  0
  -14.0111   -7.4105    0.3361 C   0  0  0  0  0  0  0  0  0  0  0  0
  -13.3334   -7.3414    1.5049 O   0  0  0  0  0  0  0  0  0  0  0  0
  -15.2612   -7.3574    0.3677 O   0  0  0  0  0  0  0  0  0  0  0  0
  -13.6611   -9.2230   -4.0395 O   0  0  0  0  0  0  0  0  0  0  0  0
  -11.2080   -7.7721   -5.5270 C   0  0  2  0  0  0  0  0  0  0  0  0
  -10.5379   -8.0517   -6.8133 C   0  0  0  0  0  0  0  0  0  0  0  0
   -9.6425   -7.1769   -7.3203 O   0  0  0  0  0  0  0  0  0  0  0  0
  -10.7892   -9.0995   -7.4516 O   0  0  0  0  0  0  0  0  0  0  0  0
   -8.7250   -9.8279   -4.2355 O   0  0  0  0  0  0  0  0  0  0  0  0
   -7.1839   -7.6509   -1.9370 C   0  0  0  0  0  0  0  0  0  0  0  0
   -7.7625   -6.8431   -1.0135 O   0  0  0  0  0  0  0  0  0  0  0  0
   -6.4421   -8.5777   -1.5392 O   0  0  0  0  0  0  0  0  0  0  0  0
   -6.2134    1.5298   -4.1184 O   0  0  0  0  0  0  0  0  0  0  0  0
   -5.7948    1.8015   -0.7352 O   0  0  0  0  0  0  0  0  0  0  0  0
   -7.8597    4.5205   -0.4485 O   0  0  0  0  0  0  0  0  0  0  0  0
   -4.9860    5.5932   -0.4822 C   0  0  0  0  0  0  0  0  0  0  0  0
   -2.7828    3.4917   -0.1485 C   0  0  0  0  0  0  0  0  0  0  0  0
   -1.9063    2.4094    0.0917 C   0  0  0  0  0  0  0  0  0  0  0  0
   -2.1234    1.4856    1.1733 C   0  0  0  0  0  0  0  0  0  0  0  0
   -3.3339    1.7042    1.9158 C   0  0  0  0  0  0  0  0  0  0  0  0
   -1.2462    0.2318    1.4798 C   0  0  2  0  0  0  0  0  0  0  0  0
    0.0977    0.3885    0.8289 C   0  0  0  0  0  0  0  0  0  0  0  0
    0.3967   -0.2434   -0.3519 O   0  0  0  0  0  0  0  0  0  0  0  0
    1.6120   -0.1919   -1.1071 C   0  0  0  0  0  0  0  0  0  0  0  0
    0.9266    1.2112    1.2870 O   0  0  0  0  0  0  0  0  0  0  0  0
   -2.0023   -0.9658    0.9003 C   0  0  0  0  0  0  0  0  0  0  0  0
   -1.6371   -2.3182    0.6418 C   0  0  0  0  0  0  0  0  0  0  0  0
   -2.7589   -2.9404    0.0716 C   0  0  0  0  0  0  0  0  0  0  0  0
   -3.7504   -1.9814   -0.0529 C   0  0  0  0  0  0  0  0  0  0  0  0
   -3.2771   -0.8472    0.4473 N   0  0  0  0  0  0  0  0  0  0  0  0
   -4.9935   -2.2480   -0.6471 C   0  0  0  0  0  0  0  0  0  0  0  0
   -5.2336   -3.5523   -1.1217 C   0  0  0  0  0  0  0  0  0  0  0  0
   -4.2420   -4.5512   -0.9915 C   0  0  0  0  0  0  0  0  0  0  0  0
   -2.9967   -4.2519   -0.3919 C   0  0  0  0  0  0  0  0  0  0  0  0
   -0.3355   -3.0312    0.7750 C   0  0  1  0  0  0  0  0  0  0  0  0
   -0.2026   -3.9457    2.0131 C   0  0  2  0  0  0  0  0  0  0  0  0
    0.3257   -3.1956    3.1830 N   0  0  0  0  0  0  0  0  0  0  0  0
   -0.5785   -2.3257    3.9592 C   0  0  1  0  0  0  0  0  0  0  0  0
   -0.1591   -0.8272    3.9322 C   0  0  2  0  0  0  0  0  0  0  0  0
   -1.0552    0.1408    3.0653 C   0  0  2  0  0  0  0  0  0  0  0  0
    1.3905   -0.5851    4.0260 C   0  0  2  0  0  0  0  0  0  0  0  0
    2.3560   -1.6408    3.3799 C   0  0  2  0  0  0  0  0  0  0  0  0
    1.7852   -3.0942    3.4621 C   0  0  1  0  0  0  0  0  0  0  0  0
    3.7747   -1.5404    4.0498 C   0  0  1  0  0  0  0  0  0  0  0  0
    4.8929   -2.4190    3.4381 C   0  0  0  0  0  0  0  0  0  0  0  0
    2.5522   -1.2879    2.0143 O   0  0  0  0  0  0  0  0  0  0  0  0
   -0.8851    2.3087   -0.8216 O   0  0  0  0  0  0  0  0  0  0  0  0
   -1.2717    1.7126   -2.0828 C   0  0  0  0  0  0  0  0  0  0  0  0
   -5.1850    3.8586    3.5811 C   0  0  1  0  0  0  0  0  0  0  0  0
   -5.3177    2.8172    4.6970 C   0  0  1  0  0  0  0  0  0  0  0  0
   -6.5086    2.0331    4.3053 N   0  0  1  0  0  0  0  0  0  0  0  0
   -7.7741    2.5358    4.9087 C   0  0  1  0  0  0  0  0  0  0  0  0
   -8.9135    1.8168    4.4090 C   0  0  0  0  0  0  0  0  0  0  0  0
   -8.9809    1.4203    3.1334 C   0  0  0  0  0  0  0  0  0  0  0  0
   -7.5770   -0.5729    2.1638 H   0  0  0  0  0  0  0  0  0  0  0  0
   -6.9188    0.1832    0.7523 H   0  0  0  0  0  0  0  0  0  0  0  0
   -8.6718   -1.3261    0.1256 H   0  0  0  0  0  0  0  0  0  0  0  0
   -9.8485   -0.5535    1.1813 H   0  0  0  0  0  0  0  0  0  0  0  0
   -9.2382    0.3016   -0.2420 H   0  0  0  0  0  0  0  0  0  0  0  0
   -5.8809    1.0080    2.7144 H   0  0  0  0  0  0  0  0  0  0  0  0
   -6.5688    4.9199    1.6407 H   0  0  0  0  0  0  0  0  0  0  0  0
   -9.2158    2.4619    0.5790 H   0  0  0  0  0  0  0  0  0  0  0  0
   -9.2878    4.5098    1.3305 H   0  0  0  0  0  0  0  0  0  0  0  0
   -8.4923    2.6963   -1.9806 H   0  0  0  0  0  0  0  0  0  0  0  0
   -8.2160    0.2528   -2.0905 H   0  0  0  0  0  0  0  0  0  0  0  0
   -6.5721   -0.7568   -5.9916 H   0  0  0  0  0  0  0  0  0  0  0  0
   -5.3831   -1.3536   -4.8015 H   0  0  0  0  0  0  0  0  0  0  0  0
   -8.0509   -2.6133   -5.6315 H   0  0  0  0  0  0  0  0  0  0  0  0
   -7.3015   -3.0196   -4.0787 H   0  0  0  0  0  0  0  0  0  0  0  0
   -5.9057   -5.8922   -3.5836 H   0  0  0  0  0  0  0  0  0  0  0  0
   -7.5332   -5.2628   -3.2590 H   0  0  0  0  0  0  0  0  0  0  0  0
   -6.8225   -8.1509   -3.9577 H   0  0  0  0  0  0  0  0  0  0  0  0
   -9.3873   -6.8535   -3.5288 H   0  0  0  0  0  0  0  0  0  0  0  0
  -11.0969   -9.8045   -4.7927 H   0  0  0  0  0  0  0  0  0  0  0  0
  -11.1337   -8.3136   -2.4241 H   0  0  0  0  0  0  0  0  0  0  0  0
  -14.6796   -8.9199   -1.8509 H   0  0  0  0  0  0  0  0  0  0  0  0
  -12.1695  -10.2338   -1.2301 H   0  0  0  0  0  0  0  0  0  0  0  0
  -13.8474  -12.5840    0.9310 H   0  0  0  0  0  0  0  0  0  0  0  0
  -13.4010  -12.4646   -1.7865 H   0  0  0  0  0  0  0  0  0  0  0  0
  -13.1193  -16.0388   -2.1064 H   0  0  0  0  0  0  0  0  0  0  0  0
  -15.2461  -15.7527   -1.8285 H   0  0  0  0  0  0  0  0  0  0  0  0
  -17.6203  -13.1491   -2.5327 H   0  0  0  0  0  0  0  0  0  0  0  0
  -17.1348  -14.1233   -1.1461 H   0  0  0  0  0  0  0  0  0  0  0  0
  -17.9734  -15.1551   -3.9162 H   0  0  0  0  0  0  0  0  0  0  0  0
  -17.2416  -16.1670   -2.6743 H   0  0  0  0  0  0  0  0  0  0  0  0
  -19.1001  -15.6625   -1.0988 H   0  0  0  0  0  0  0  0  0  0  0  0
  -21.0090  -16.4824   -2.6250 H   0  0  0  0  0  0  0  0  0  0  0  0
  -18.4099  -18.2685   -5.1466 H   0  0  0  0  0  0  0  0  0  0  0  0
  -16.2459  -19.1566   -5.4680 H   0  0  0  0  0  0  0  0  0  0  0  0
  -15.8340  -19.7084   -1.2996 H   0  0  0  0  0  0  0  0  0  0  0  0
  -18.0598  -18.8572   -0.9759 H   0  0  0  0  0  0  0  0  0  0  0  0
  -14.0094  -20.0066   -2.6958 H   0  0  0  0  0  0  0  0  0  0  0  0
  -14.2957  -21.5893   -4.7957 H   0  0  0  0  0  0  0  0  0  0  0  0
  -14.1980  -20.0116   -5.5761 H   0  0  0  0  0  0  0  0  0  0  0  0
  -11.9892  -19.3372   -6.1993 H   0  0  0  0  0  0  0  0  0  0  0  0
   -8.1253  -22.6532   -1.5553 H   0  0  0  0  0  0  0  0  0  0  0  0
   -6.0201  -21.9769   -2.3102 H   0  0  0  0  0  0  0  0  0  0  0  0
   -5.8898  -20.9845   -3.6593 H   0  0  0  0  0  0  0  0  0  0  0  0
  -21.2187  -12.8903   -1.4765 H   0  0  0  0  0  0  0  0  0  0  0  0
  -12.7621  -13.4572   -3.6889 H   0  0  0  0  0  0  0  0  0  0  0  0
  -11.6493  -14.8115   -3.5565 H   0  0  0  0  0  0  0  0  0  0  0  0
  -14.4883  -14.8580   -6.4015 H   0  0  0  0  0  0  0  0  0  0  0  0
  -11.0929  -11.3889    0.2814 H   0  0  0  0  0  0  0  0  0  0  0  0
  -11.3666  -12.8857    1.1564 H   0  0  0  0  0  0  0  0  0  0  0  0
  -12.3154  -10.1254    2.0729 H   0  0  0  0  0  0  0  0  0  0  0  0
  -12.6280  -11.6464    2.9252 H   0  0  0  0  0  0  0  0  0  0  0  0
  -10.1652  -11.9573    3.2783 H   0  0  0  0  0  0  0  0  0  0  0  0
   -9.8637  -10.4156    2.4341 H   0  0  0  0  0  0  0  0  0  0  0  0
   -8.1431   -9.9652    5.8905 H   0  0  0  0  0  0  0  0  0  0  0  0
   -8.3310  -10.7389    4.4106 H   0  0  0  0  0  0  0  0  0  0  0  0
   -9.9050   -9.0211    6.9226 H   0  0  0  0  0  0  0  0  0  0  0  0
  -11.4257   -9.0473    6.2133 H   0  0  0  0  0  0  0  0  0  0  0  0
  -12.2168   -7.4566   -0.7553 H   0  0  0  0  0  0  0  0  0  0  0  0
  -13.5704   -6.6658   -1.5671 H   0  0  0  0  0  0  0  0  0  0  0  0
  -13.8155   -7.2358    2.3517 H   0  0  0  0  0  0  0  0  0  0  0  0
  -10.9519   -6.7636   -5.1842 H   0  0  0  0  0  0  0  0  0  0  0  0
  -12.2814   -7.7833   -5.7217 H   0  0  0  0  0  0  0  0  0  0  0  0
   -9.1743   -7.3791   -8.1552 H   0  0  0  0  0  0  0  0  0  0  0  0
   -7.5834   -6.9649   -0.0559 H   0  0  0  0  0  0  0  0  0  0  0  0
   -8.6465    4.1700   -0.9168 H   0  0  0  0  0  0  0  0  0  0  0  0
   -5.1438    5.2645   -1.5102 H   0  0  0  0  0  0  0  0  0  0  0  0
   -5.7666    6.3086   -0.2186 H   0  0  0  0  0  0  0  0  0  0  0  0
   -4.0297    6.1153   -0.4201 H   0  0  0  0  0  0  0  0  0  0  0  0
   -2.5751    4.1635   -0.8902 H   0  0  0  0  0  0  0  0  0  0  0  0
   -3.5964    1.0893    2.6762 H   0  0  0  0  0  0  0  0  0  0  0  0
    1.8185    0.8284   -1.4313 H   0  0  0  0  0  0  0  0  0  0  0  0
    1.5030   -0.8283   -1.9858 H   0  0  0  0  0  0  0  0  0  0  0  0
    2.4490   -0.5596   -0.5151 H   0  0  0  0  0  0  0  0  0  0  0  0
   -3.7916   -0.0266    0.4596 H   0  0  0  0  0  0  0  0  0  0  0  0
   -5.6999   -1.5163   -0.7384 H   0  0  0  0  0  0  0  0  0  0  0  0
   -6.1290   -3.7711   -1.5614 H   0  0  0  0  0  0  0  0  0  0  0  0
   -4.4265   -5.4944   -1.3384 H   0  0  0  0  0  0  0  0  0  0  0  0
   -2.2819   -4.9757   -0.3005 H   0  0  0  0  0  0  0  0  0  0  0  0
   -0.1836   -3.6350   -0.1243 H   0  0  0  0  0  0  0  0  0  0  0  0
    0.4910   -2.3421    0.7857 H   0  0  0  0  0  0  0  0  0  0  0  0
    0.4751   -4.7705    1.7776 H   0  0  0  0  0  0  0  0  0  0  0  0
   -1.1651   -4.4023    2.2608 H   0  0  0  0  0  0  0  0  0  0  0  0
   -1.6158   -2.4355    3.6341 H   0  0  0  0  0  0  0  0  0  0  0  0
   -0.5435   -2.6989    4.9881 H   0  0  0  0  0  0  0  0  0  0  0  0
   -0.4821   -0.5039    4.9350 H   0  0  0  0  0  0  0  0  0  0  0  0
   -2.0416   -0.0630    3.4783 H   0  0  0  0  0  0  0  0  0  0  0  0
   -0.7904    1.1505    3.4024 H   0  0  0  0  0  0  0  0  0  0  0  0
    1.6429   -0.5423    5.0925 H   0  0  0  0  0  0  0  0  0  0  0  0
    1.6294    0.4076    3.6393 H   0  0  0  0  0  0  0  0  0  0  0  0
    1.9452   -3.4908    4.4681 H   0  0  0  0  0  0  0  0  0  0  0  0
    2.3428   -3.7368    2.7764 H   0  0  0  0  0  0  0  0  0  0  0  0
    4.1161   -0.5018    4.0007 H   0  0  0  0  0  0  0  0  0  0  0  0
    3.6955   -1.8011    5.1096 H   0  0  0  0  0  0  0  0  0  0  0  0
    5.8347   -2.2267    3.9571 H   0  0  0  0  0  0  0  0  0  0  0  0
    4.6550   -3.4780    3.5456 H   0  0  0  0  0  0  0  0  0  0  0  0
    5.0302   -2.1856    2.3811 H   0  0  0  0  0  0  0  0  0  0  0  0
    1.6559   -1.1690    1.6558 H   0  0  0  0  0  0  0  0  0  0  0  0
   -0.2838    1.7237   -2.7124 H   0  0  0  0  0  0  0  0  0  0  0  0
   -1.7037    0.6865   -1.8726 H   0  0  0  0  0  0  0  0  0  0  0  0
   -2.1305    2.3044   -2.5280 H   0  0  0  0  0  0  0  0  0  0  0  0
   -4.1830    4.3009    3.5819 H   0  0  0  0  0  0  0  0  0  0  0  0
   -5.8975    4.6626    3.7821 H   0  0  0  0  0  0  0  0  0  0  0  0
   -4.4444    2.1610    4.7190 H   0  0  0  0  0  0  0  0  0  0  0  0
   -5.4052    3.2900    5.6794 H   0  0  0  0  0  0  0  0  0  0  0  0
   -7.7251    2.4038    5.9934 H   0  0  0  0  0  0  0  0  0  0  0  0
   -7.9262    3.5982    4.6996 H   0  0  0  0  0  0  0  0  0  0  0  0
   -9.6857    1.6488    5.0147 H   0  0  0  0  0  0  0  0  0  0  0  0
   -9.8382    1.0007    2.8557 H   0  0  0  0  0  0  0  0  0  0  0  0
  1  2  1  0  0  0  0 
  3  1  1  0  0  0  0 
  3  4  1  0  0  0  0 
  3 11  1  0  0  0  0 
  3135  1  0  0  0  0 
  4  5  1  0  0  0  0 
  4132  1  0  0  0  0 
  5  6  1  0  0  0  0 
  5  9  1  0  0  0  0 
  5130  1  0  0  0  0 
  6  7  2  0  0  0  0 
  6101  1  0  0  0  0 
  7  8  1  0  0  0  0 
  7 98  1  0  0  0  0 
  8 97  1  0  0  0  0 
  9  8  1  0  0  0  0 
 10  9  1  0  0  0  0 
 10 13  1  0  0  0  0 
 10 96  1  0  0  0  0 
 11 10  1  0  0  0  0 
 11 12  1  0  0  0  0 
 13 14  1  0  0  0  0 
 13 95  2  0  0  0  0 
 14 15  1  0  0  0  0 
 15 16  1  0  0  0  0 
 16 17  1  0  0  0  0 
 16 94  2  0  0  0  0 
 17 18  1  0  0  0  0 
 18 19  1  0  0  0  0 
 19 20  1  0  0  0  0 
 20 21  1  0  0  0  0 
 21 22  1  0  0  0  0 
 23 22  1  0  0  0  0 
 23 24  1  0  0  0  0 
 23 91  1  0  0  0  0 
 24 25  1  0  0  0  0 
 26 25  1  0  0  0  0 
 25 90  2  0  0  0  0 
 26 27  1  0  0  0  0 
 26 86  1  0  0  0  0 
 27 28  1  0  0  0  0 
 29 28  1  0  0  0  0 
 28 85  2  0  0  0  0 
 29 30  1  0  0  0  0 
 29 81  1  0  0  0  0 
 30 31  1  0  0  0  0 
 32 31  1  0  0  0  0 
 31 80  2  0  0  0  0 
 32 33  1  0  0  0  0 
 32 73  1  0  0  0  0 
 33 34  1  0  0  0  0 
 35 34  1  0  0  0  0 
 34 72  2  0  0  0  0 
 35 36  1  0  0  0  0 
 35 68  1  0  0  0  0 
 36 37  1  0  0  0  0 
 37 38  1  0  0  0  0 
 37 67  2  0  0  0  0 
 38 39  1  0  0  0  0 
 40 39  1  0  0  0  0 
 40 41  1  0  0  0  0 
 40 64  1  0  0  0  0 
 41 42  1  0  0  0  0 
 42 43  2  0  0  0  0 
 42 44  1  0  0  0  0 
 44 45  2  0  0  0  0 
 44 49  1  0  0  0  0 
 45 46  1  0  0  0  0 
 46 47  2  0  0  0  0 
 47 50  1  0  0  0  0 
 48 47  1  0  0  0  0 
 49 48  2  0  0  0  0 
 50 51  1  0  0  0  0 
 51 52  1  0  0  0  0 
 52 53  1  0  0  0  0 
 52 57  2  0  0  0  0 
 53 54  2  0  0  0  0 
 54 55  1  0  0  0  0 
 54 61  1  0  0  0  0 
 55 58  1  0  0  0  0 
 56 55  2  0  0  0  0 
 57 56  1  0  0  0  0 
 58 59  2  0  0  0  0 
 59 63  1  0  0  0  0 
 60 59  1  0  0  0  0 
 61 60  1  0  0  0  0 
 61 62  2  0  0  0  0 
 64 65  1  0  0  0  0 
 64 66  2  0  0  0  0 
 68 69  1  0  0  0  0 
 69 70  1  0  0  0  0 
 69 71  2  0  0  0  0 
 73 74  1  0  0  0  0 
 74 75  1  0  0  0  0 
 75 76  1  0  0  0  0 
 76 77  2  0  0  0  0 
 77 78  1  0  0  0  0 
 77 79  1  0  0  0  0 
 81 82  1  0  0  0  0 
 82 83  1  0  0  0  0 
 82 84  2  0  0  0  0 
 86 87  1  0  0  0  0 
 87 88  1  0  0  0  0 
 87 89  2  0  0  0  0 
 91 92  1  0  0  0  0 
 91 93  2  0  0  0  0 
 98 99  2  0  0  0  0 
 99128  1  0  0  0  0 
100 99  1  0  0  0  0 
102100  1  0  0  0  0 
101100  2  0  0  0  0 
102103  1  0  0  0  0 
102107  1  0  0  0  0 
102121  1  0  0  0  0 
103104  1  0  0  0  0 
103106  2  0  0  0  0 
104105  1  0  0  0  0 
107108  2  0  0  0  0 
107111  1  0  0  0  0 
108109  1  0  0  0  0 
108116  1  0  0  0  0 
109110  1  0  0  0  0 
109115  2  0  0  0  0 
110112  2  0  0  0  0 
111110  1  0  0  0  0 
112113  1  0  0  0  0 
114113  2  0  0  0  0 
115114  1  0  0  0  0 
116117  1  0  0  0  0 
118117  1  0  0  0  0 
118119  1  0  0  0  0 
118124  1  0  0  0  0 
120119  1  0  0  0  0 
120122  1  0  0  0  0 
120121  1  0  0  0  0 
123122  1  0  0  0  0 
123124  1  0  0  0  0 
123125  1  0  0  0  0 
123127  1  0  0  0  0 
125126  1  0  0  0  0 
128129  1  0  0  0  0 
130131  1  0  0  0  0 
132131  1  0  0  0  0 
132133  1  0  0  0  0 
134133  1  0  0  0  0 
135134  2  0  0  0  0 
136  1  1  0  0  0  0 
137  1  1  0  0  0  0 
138  2  1  0  0  0  0 
139  2  1  0  0  0  0 
140  2  1  0  0  0  0 
  4141  1  0  0  0  0 
  9142  1  0  0  0  0 
 11143  1  0  0  0  0 
144 12  1  0  0  0  0 
145 14  1  0  0  0  0 
146 15  1  0  0  0  0 
147 18  1  0  0  0  0 
148 18  1  0  0  0  0 
149 19  1  0  0  0  0 
150 19  1  0  0  0  0 
151 22  1  0  0  0  0 
152 22  1  0  0  0  0 
 23153  1  0  0  0  0 
154 24  1  0  0  0  0 
 26155  1  0  0  0  0 
156 27  1  0  0  0  0 
 29157  1  0  0  0  0 
158 30  1  0  0  0  0 
 32159  1  0  0  0  0 
160 33  1  0  0  0  0 
 35161  1  0  0  0  0 
162 36  1  0  0  0  0 
163 38  1  0  0  0  0 
164 38  1  0  0  0  0 
165 39  1  0  0  0  0 
166 39  1  0  0  0  0 
 40167  1  0  0  0  0 
168 41  1  0  0  0  0 
169 45  1  0  0  0  0 
170 46  1  0  0  0  0 
171 48  1  0  0  0  0 
172 49  1  0  0  0  0 
173 50  1  0  0  0  0 
174 51  1  0  0  0  0 
175 51  1  0  0  0  0 
176 57  1  0  0  0  0 
177 60  1  0  0  0  0 
178 63  1  0  0  0  0 
179 63  1  0  0  0  0 
180 65  1  0  0  0  0 
181 68  1  0  0  0  0 
182 68  1  0  0  0  0 
183 70  1  0  0  0  0 
184 73  1  0  0  0  0 
185 73  1  0  0  0  0 
186 74  1  0  0  0  0 
187 74  1  0  0  0  0 
188 75  1  0  0  0  0 
189 75  1  0  0  0  0 
190 78  1  0  0  0  0 
191 78  1  0  0  0  0 
192 79  1  0  0  0  0 
193 79  1  0  0  0  0 
194 81  1  0  0  0  0 
195 81  1  0  0  0  0 
196 83  1  0  0  0  0 
197 86  1  0  0  0  0 
198 86  1  0  0  0  0 
199 88  1  0  0  0  0 
200 92  1  0  0  0  0 
201 96  1  0  0  0  0 
202 97  1  0  0  0  0 
203 97  1  0  0  0  0 
204 97  1  0  0  0  0 
205 98  1  0  0  0  0 
206101  1  0  0  0  0 
207105  1  0  0  0  0 
208105  1  0  0  0  0 
209105  1  0  0  0  0 
210111  1  0  0  0  0 
211112  1  0  0  0  0 
212113  1  0  0  0  0 
213114  1  0  0  0  0 
214115  1  0  0  0  0 
215116  1  0  0  0  0 
216116  1  0  0  0  0 
217117  1  0  0  0  0 
218117  1  0  0  0  0 
219119  1  0  0  0  0 
220119  1  0  0  0  0 
120221  1  0  0  0  0 
222121  1  0  0  0  0 
223121  1  0  0  0  0 
224122  1  0  0  0  0 
225122  1  0  0  0  0 
226124  1  0  0  0  0 
227124  1  0  0  0  0 
228125  1  0  0  0  0 
229125  1  0  0  0  0 
230126  1  0  0  0  0 
231126  1  0  0  0  0 
232126  1  0  0  0  0 
233127  1  0  0  0  0 
234129  1  0  0  0  0 
235129  1  0  0  0  0 
236129  1  0  0  0  0 
237130  1  0  0  0  0 
238130  1  0  0  0  0 
239131  1  0  0  0  0 
240131  1  0  0  0  0 
241133  1  0  0  0  0 
242133  1  0  0  0  0 
243134  1  0  0  0  0 
244135  1  0  0  0  0 
M  END
> <cdk:Title>
vintafolide

> <Conformer>
1

> <SuperDrugID>
SD003792

$$$$
