alclofenac
  CDK     0628171801

 26 26  0  0  0  0  0  0  0  0999 V2000
    0.3503    1.6403   -2.3865 C   0  0  2  0  0  0  0  0  0  0  0  0
    0.2568    2.4510   -1.1584 C   0  0  0  0  0  0  0  0  0  0  0  0
    1.2607    0.4814   -2.1888 C   0  0  0  0  0  0  0  0  0  0  0  0
   -0.3188    1.9612   -0.0368 O   0  0  0  0  0  0  0  0  0  0  0  0
    0.7112    3.6158   -1.1281 O   0  0  0  0  0  0  0  0  0  0  0  0
    0.7949   -0.6987   -1.5616 C   0  0  0  0  0  0  0  0  0  0  0  0
    2.6143    0.5428   -2.5964 C   0  0  0  0  0  0  0  0  0  0  0  0
    1.6556   -1.7947   -1.3523 C   0  0  0  0  0  0  0  0  0  0  0  0
    3.4787   -0.5447   -2.3761 C   0  0  0  0  0  0  0  0  0  0  0  0
    1.0512   -3.1754   -0.5802 Cl  0  0  0  0  0  0  0  0  0  0  0  0
    3.0034   -1.7259   -1.7714 C   0  0  0  0  0  0  0  0  0  0  0  0
    3.8675   -2.7709   -1.5664 O   0  0  0  0  0  0  0  0  0  0  0  0
    3.9359   -3.6897   -2.6764 C   0  0  1  0  0  0  0  0  0  0  0  0
    4.8306   -4.7783   -2.3391 C   0  0  0  0  0  0  0  0  0  0  0  0
    4.6119   -5.6103   -1.3130 C   0  0  0  0  0  0  0  0  0  0  0  0
    0.7117    2.2661   -3.2064 H   0  0  0  0  0  0  0  0  0  0  0  0
   -0.6464    1.2993   -2.6765 H   0  0  0  0  0  0  0  0  0  0  0  0
   -0.3681    2.5133    0.7722 H   0  0  0  0  0  0  0  0  0  0  0  0
   -0.1799   -0.7552   -1.2497 H   0  0  0  0  0  0  0  0  0  0  0  0
    2.9827    1.3840   -3.0497 H   0  0  0  0  0  0  0  0  0  0  0  0
    4.4593   -0.4734   -2.6556 H   0  0  0  0  0  0  0  0  0  0  0  0
    2.9492   -4.1042   -2.9094 H   0  0  0  0  0  0  0  0  0  0  0  0
    4.3147   -3.1758   -3.5671 H   0  0  0  0  0  0  0  0  0  0  0  0
    5.6452   -4.9145   -2.8942 H   0  0  0  0  0  0  0  0  0  0  0  0
    3.8097   -5.5118   -0.7376 H   0  0  0  0  0  0  0  0  0  0  0  0
    5.2534   -6.3401   -1.1149 H   0  0  0  0  0  0  0  0  0  0  0  0
  1  2  1  0  0  0  0 
  1  3  1  0  0  0  0 
  2  4  1  0  0  0  0 
  2  5  2  0  0  0  0 
  3  6  2  0  0  0  0 
  3  7  1  0  0  0  0 
  6  8  1  0  0  0  0 
  7  9  2  0  0  0  0 
  8 10  1  0  0  0  0 
  8 11  2  0  0  0  0 
  9 11  1  0  0  0  0 
 11 12  1  0  0  0  0 
 12 13  1  0  0  0  0 
 13 14  1  0  0  0  0 
 14 15  2  0  0  0  0 
  1 16  1  0  0  0  0 
  1 17  1  0  0  0  0 
  4 18  1  0  0  0  0 
  6 19  1  0  0  0  0 
  7 20  1  0  0  0  0 
  9 21  1  0  0  0  0 
 13 22  1  0  0  0  0 
 13 23  1  0  0  0  0 
 14 24  1  0  0  0  0 
 15 25  1  0  0  0  0 
 15 26  1  0  0  0  0 
M  END
> <cdk:Title>
alclofenac

> <Conformer>
1

> <SuperDrugID>
SD000081

$$$$
