glucosamine
  CDK     0628171801

 25 25  0  0  0  0  0  0  0  0999 V2000
   -0.5627   -4.4154   -2.8214 N   0  0  2  0  0  0  0  0  0  0  0  0
   -0.0034   -3.3119   -2.0253 C   0  0  1  0  0  0  0  0  0  0  0  0
    1.5099   -3.1311   -2.3237 C   0  0  2  0  0  0  0  0  0  0  0  0
    2.2245   -4.2738   -1.8643 O   0  0  0  0  0  0  0  0  0  0  0  0
    2.0481   -1.9740   -1.6449 O   0  0  0  0  0  0  0  0  0  0  0  0
    1.4091   -0.7238   -1.9909 C   0  0  2  0  0  0  0  0  0  0  0  0
    2.1334    0.4224   -1.2430 C   0  0  1  0  0  0  0  0  0  0  0  0
    3.5038    0.4889   -1.6152 O   0  0  0  0  0  0  0  0  0  0  0  0
   -0.1080   -0.7780   -1.6416 C   0  0  1  0  0  0  0  0  0  0  0  0
   -0.7618    0.4166   -2.0674 O   0  0  0  0  0  0  0  0  0  0  0  0
   -0.7852   -2.0015   -2.3159 C   0  0  2  0  0  0  0  0  0  0  0  0
   -2.1255   -2.1226   -1.8424 O   0  0  0  0  0  0  0  0  0  0  0  0
   -0.0034   -5.2476   -2.6232 H   0  0  0  0  0  0  0  0  0  0  0  0
   -0.4157   -4.1826   -3.8062 H   0  0  0  0  0  0  0  0  0  0  0  0
   -0.1230   -3.5671   -0.9688 H   0  0  0  0  0  0  0  0  0  0  0  0
    1.6766   -3.0452   -3.4028 H   0  0  0  0  0  0  0  0  0  0  0  0
    3.1536   -4.1117   -2.1271 H   0  0  0  0  0  0  0  0  0  0  0  0
    1.5236   -0.5447   -3.0650 H   0  0  0  0  0  0  0  0  0  0  0  0
    1.6724    1.3823   -1.4862 H   0  0  0  0  0  0  0  0  0  0  0  0
    2.0758    0.2686   -0.1640 H   0  0  0  0  0  0  0  0  0  0  0  0
    3.8585    1.2492   -1.1065 H   0  0  0  0  0  0  0  0  0  0  0  0
   -0.2248   -0.8582   -0.5575 H   0  0  0  0  0  0  0  0  0  0  0  0
   -1.6903    0.3225   -1.7666 H   0  0  0  0  0  0  0  0  0  0  0  0
   -0.8244   -1.8336   -3.3971 H   0  0  0  0  0  0  0  0  0  0  0  0
   -2.5033   -2.8808   -2.3342 H   0  0  0  0  0  0  0  0  0  0  0  0
  2  1  1  0  0  0  0 
  2  3  1  0  0  0  0 
  3  4  1  0  0  0  0 
  3  5  1  0  0  0  0 
  5  6  1  0  0  0  0 
  6  7  1  0  0  0  0 
  7  8  1  0  0  0  0 
  6  9  1  0  0  0  0 
  9 10  1  0  0  0  0 
  9 11  1  0  0  0  0 
  2 11  1  0  0  0  0 
 11 12  1  0  0  0  0 
  1 13  1  0  0  0  0 
  1 14  1  0  0  0  0 
  2 15  1  0  0  0  0 
  3 16  1  0  0  0  0 
  4 17  1  0  0  0  0 
  6 18  1  0  0  0  0 
  7 19  1  0  0  0  0 
  7 20  1  0  0  0  0 
  8 21  1  0  0  0  0 
  9 22  1  0  0  0  0 
 10 23  1  0  0  0  0 
 11 24  1  0  0  0  0 
 12 25  1  0  0  0  0 
M  END
> <cdk:Title>
glucosamine

> <Conformer>
1

> <SuperDrugID>
SD001163

$$$$
