decitabine
  CDK     0628171802

 28 29  0  0  0  0  0  0  0  0999 V2000
   -2.5567   -7.3947    1.1607 N   0  0  0  0  0  0  0  0  0  0  0  0
   -1.6339   -6.6376    0.5471 C   0  0  0  0  0  0  0  0  0  0  0  0
   -1.2690   -6.8957   -0.7306 N   0  0  0  0  0  0  0  0  0  0  0  0
   -0.3565   -6.1144   -1.3614 C   0  0  0  0  0  0  0  0  0  0  0  0
   -0.0857   -6.4146   -2.5480 O   0  0  0  0  0  0  0  0  0  0  0  0
    0.2223   -5.0488   -0.7151 N   0  0  0  0  0  0  0  0  0  0  0  0
   -0.1523   -4.8156    0.5835 C   0  0  0  0  0  0  0  0  0  0  0  0
   -1.0686   -5.5987    1.2023 N   0  0  0  0  0  0  0  0  0  0  0  0
    1.1767   -4.1877   -1.3905 C   0  0  1  0  0  0  0  0  0  0  0  0
    0.4770   -3.1369   -2.2775 C   0  0  2  0  0  0  0  0  0  0  0  0
    1.4617   -1.9638   -2.2608 C   0  0  2  0  0  0  0  0  0  0  0  0
    2.4542   -2.1247   -3.2761 O   0  0  0  0  0  0  0  0  0  0  0  0
    2.1011   -2.0905   -0.8604 C   0  0  1  0  0  0  0  0  0  0  0  0
    1.3830   -1.2764    0.2439 C   0  0  2  0  0  0  0  0  0  0  0  0
    2.0012   -1.5321    1.5001 O   0  0  0  0  0  0  0  0  0  0  0  0
    2.0716   -3.4827   -0.5099 O   0  0  0  0  0  0  0  0  0  0  0  0
   -2.9645   -8.1386    0.6918 H   0  0  0  0  0  0  0  0  0  0  0  0
   -2.8226   -7.1942    2.0721 H   0  0  0  0  0  0  0  0  0  0  0  0
    0.2394   -4.0424    1.1237 H   0  0  0  0  0  0  0  0  0  0  0  0
    1.8396   -4.7920   -2.0196 H   0  0  0  0  0  0  0  0  0  0  0  0
   -0.4746   -2.8295   -1.8341 H   0  0  0  0  0  0  0  0  0  0  0  0
    0.2970   -3.5103   -3.2897 H   0  0  0  0  0  0  0  0  0  0  0  0
    0.9529   -1.0066   -2.4087 H   0  0  0  0  0  0  0  0  0  0  0  0
    1.9545   -2.1477   -4.1189 H   0  0  0  0  0  0  0  0  0  0  0  0
    3.1434   -1.7618   -0.8963 H   0  0  0  0  0  0  0  0  0  0  0  0
    0.3313   -1.5588    0.3097 H   0  0  0  0  0  0  0  0  0  0  0  0
    1.4459   -0.2084    0.0277 H   0  0  0  0  0  0  0  0  0  0  0  0
    1.4676   -1.0311    2.1499 H   0  0  0  0  0  0  0  0  0  0  0  0
  1  2  1  0  0  0  0 
  2  3  2  0  0  0  0 
  3  4  1  0  0  0  0 
  4  5  2  0  0  0  0 
  4  6  1  0  0  0  0 
  6  7  1  0  0  0  0 
  7  8  2  0  0  0  0 
  2  8  1  0  0  0  0 
  9  6  1  0  0  0  0 
  9 10  1  0  0  0  0 
 10 11  1  0  0  0  0 
 11 12  1  0  0  0  0 
 11 13  1  0  0  0  0 
 13 14  1  0  0  0  0 
 14 15  1  0  0  0  0 
 13 16  1  0  0  0  0 
  9 16  1  0  0  0  0 
  1 17  1  0  0  0  0 
  1 18  1  0  0  0  0 
  7 19  1  0  0  0  0 
  9 20  1  0  0  0  0 
 10 21  1  0  0  0  0 
 10 22  1  0  0  0  0 
 11 23  1  0  0  0  0 
 12 24  1  0  0  0  0 
 13 25  1  0  0  0  0 
 14 26  1  0  0  0  0 
 14 27  1  0  0  0  0 
 15 28  1  0  0  0  0 
M  END
> <cdk:Title>
decitabine

> <Conformer>
1

> <SuperDrugID>
SD000697

$$$$
