tocofibrate
  CDK     0628171801

103105  0  0  0  0  0  0  0  0999 V2000
    7.8572   -1.3995   -3.1465 C   0  0  0  0  0  0  0  0  0  0  0  0
    7.5384   -0.8101   -1.8081 C   0  0  0  0  0  0  0  0  0  0  0  0
    8.5173   -0.7945   -0.7791 C   0  0  0  0  0  0  0  0  0  0  0  0
    6.2492   -0.2583   -1.5478 C   0  0  0  0  0  0  0  0  0  0  0  0
    8.2546   -0.1835    0.4758 C   0  0  0  0  0  0  0  0  0  0  0  0
    9.7448   -1.3796   -1.0284 O   0  0  0  0  0  0  0  0  0  0  0  0
    5.2163   -0.1685   -2.6208 C   0  0  0  0  0  0  0  0  0  0  0  0
    5.9561    0.2340   -0.2484 C   0  0  0  0  0  0  0  0  0  0  0  0
    6.9723    0.3723    0.7307 C   0  0  0  0  0  0  0  0  0  0  0  0
    9.3110   -0.1989    1.5363 C   0  0  1  0  0  0  0  0  0  0  0  0
   10.4309   -2.0119    0.0797 C   0  0  1  0  0  0  0  0  0  0  0  0
    4.6840    0.5569    0.1447 O   0  0  0  0  0  0  0  0  0  0  0  0
    6.6948    1.0633    2.0299 C   0  0  0  0  0  0  0  0  0  0  0  0
   10.6401   -0.8924    1.1498 C   0  0  1  0  0  0  0  0  0  0  0  0
    9.6253   -3.2493    0.6357 C   0  0  1  0  0  0  0  0  0  0  0  0
   11.8299   -2.4492   -0.4567 C   0  0  0  0  0  0  0  0  0  0  0  0
    3.5748   -0.2488    0.1978 C   0  0  0  0  0  0  0  0  0  0  0  0
    9.3282   -4.3684   -0.4061 C   0  0  2  0  0  0  0  0  0  0  0  0
    2.3048    0.2692    0.7883 C   0  0  1  0  0  0  0  0  0  0  0  0
    3.6579   -1.4536   -0.1427 O   0  0  0  0  0  0  0  0  0  0  0  0
    8.3454   -5.4782    0.0752 C   0  0  2  0  0  0  0  0  0  0  0  0
    1.2157   -0.3861    0.0672 O   0  0  0  0  0  0  0  0  0  0  0  0
    2.3612   -0.0823    2.3107 C   0  0  0  0  0  0  0  0  0  0  0  0
    2.2136    1.8171    0.6000 C   0  0  0  0  0  0  0  0  0  0  0  0
    6.8021   -5.1890    0.0161 C   0  0  1  0  0  0  0  0  0  0  0  0
   -0.0393   -0.3494    0.6266 C   0  0  0  0  0  0  0  0  0  0  0  0
    6.2895   -4.9384   -1.4449 C   0  0  2  0  0  0  0  0  0  0  0  0
    6.0429   -6.3625    0.7067 C   0  0  0  0  0  0  0  0  0  0  0  0
   -0.4712   -1.4273    1.4274 C   0  0  0  0  0  0  0  0  0  0  0  0
   -0.9108    0.7379    0.4070 C   0  0  0  0  0  0  0  0  0  0  0  0
    4.7435   -4.8781   -1.6456 C   0  0  2  0  0  0  0  0  0  0  0  0
   -1.7234   -1.3828    2.0676 C   0  0  0  0  0  0  0  0  0  0  0  0
   -2.1630    0.7865    1.0458 C   0  0  0  0  0  0  0  0  0  0  0  0
    4.3613   -4.4666   -3.0989 C   0  0  1  0  0  0  0  0  0  0  0  0
   -2.5694   -0.2713    1.8830 C   0  0  0  0  0  0  0  0  0  0  0  0
    2.8569   -4.6507   -3.4977 C   0  0  1  0  0  0  0  0  0  0  0  0
   -4.0719   -0.2086    2.6595 Cl  0  0  0  0  0  0  0  0  0  0  0  0
    1.8663   -3.8469   -2.5893 C   0  0  1  0  0  0  0  0  0  0  0  0
    2.6670   -4.2998   -5.0044 C   0  0  0  0  0  0  0  0  0  0  0  0
    0.3581   -4.1116   -2.8733 C   0  0  2  0  0  0  0  0  0  0  0  0
   -0.5884   -3.4881   -1.8088 C   0  0  2  0  0  0  0  0  0  0  0  0
   -2.1060   -3.8022   -2.0202 C   0  0  1  0  0  0  0  0  0  0  0  0
   -2.9265   -3.3697   -0.7728 C   0  0  0  0  0  0  0  0  0  0  0  0
   -2.6986   -3.1416   -3.2977 C   0  0  0  0  0  0  0  0  0  0  0  0
    8.8491   -1.8454   -3.2076 H   0  0  0  0  0  0  0  0  0  0  0  0
    7.1414   -2.1847   -3.3892 H   0  0  0  0  0  0  0  0  0  0  0  0
    7.8069   -0.6300   -3.9185 H   0  0  0  0  0  0  0  0  0  0  0  0
    4.8599   -1.1626   -2.8732 H   0  0  0  0  0  0  0  0  0  0  0  0
    5.6372    0.2943   -3.5128 H   0  0  0  0  0  0  0  0  0  0  0  0
    4.3558    0.4375   -2.3394 H   0  0  0  0  0  0  0  0  0  0  0  0
    9.5365    0.8277    1.8348 H   0  0  0  0  0  0  0  0  0  0  0  0
    8.9091   -0.7208    2.4072 H   0  0  0  0  0  0  0  0  0  0  0  0
    7.4168    1.8662    2.1831 H   0  0  0  0  0  0  0  0  0  0  0  0
    6.7674    0.3560    2.8576 H   0  0  0  0  0  0  0  0  0  0  0  0
    5.7098    1.5261    2.0782 H   0  0  0  0  0  0  0  0  0  0  0  0
   11.3035   -0.1212    0.7430 H   0  0  0  0  0  0  0  0  0  0  0  0
   11.1232   -1.2937    2.0448 H   0  0  0  0  0  0  0  0  0  0  0  0
   10.1798   -3.6880    1.4701 H   0  0  0  0  0  0  0  0  0  0  0  0
    8.6716   -2.9108    1.0404 H   0  0  0  0  0  0  0  0  0  0  0  0
   12.3975   -2.9713    0.3168 H   0  0  0  0  0  0  0  0  0  0  0  0
   12.4135   -1.5852   -0.7828 H   0  0  0  0  0  0  0  0  0  0  0  0
   11.7295   -3.1086   -1.3188 H   0  0  0  0  0  0  0  0  0  0  0  0
   10.2762   -4.8633   -0.6322 H   0  0  0  0  0  0  0  0  0  0  0  0
    8.9715   -3.9299   -1.3367 H   0  0  0  0  0  0  0  0  0  0  0  0
    8.6243   -5.7322    1.1015 H   0  0  0  0  0  0  0  0  0  0  0  0
    8.5379   -6.3707   -0.5273 H   0  0  0  0  0  0  0  0  0  0  0  0
    1.4868    0.3093    2.8353 H   0  0  0  0  0  0  0  0  0  0  0  0
    2.3857   -1.1663    2.4530 H   0  0  0  0  0  0  0  0  0  0  0  0
    3.2487    0.3469    2.7815 H   0  0  0  0  0  0  0  0  0  0  0  0
    1.3180    2.2186    1.0739 H   0  0  0  0  0  0  0  0  0  0  0  0
    2.1842    2.0658   -0.4634 H   0  0  0  0  0  0  0  0  0  0  0  0
    3.0671    2.3237    1.0528 H   0  0  0  0  0  0  0  0  0  0  0  0
    6.6007   -4.2874    0.6024 H   0  0  0  0  0  0  0  0  0  0  0  0
    6.6900   -5.7165   -2.1011 H   0  0  0  0  0  0  0  0  0  0  0  0
    6.6974   -3.9840   -1.7782 H   0  0  0  0  0  0  0  0  0  0  0  0
    6.1369   -7.2778    0.1176 H   0  0  0  0  0  0  0  0  0  0  0  0
    4.9838   -6.1284    0.8235 H   0  0  0  0  0  0  0  0  0  0  0  0
    6.4415   -6.5505    1.7052 H   0  0  0  0  0  0  0  0  0  0  0  0
    0.1327   -2.2409    1.5581 H   0  0  0  0  0  0  0  0  0  0  0  0
   -0.6327    1.5032   -0.2101 H   0  0  0  0  0  0  0  0  0  0  0  0
    4.3598   -4.0711   -0.9458 H   0  0  0  0  0  0  0  0  0  0  0  0
    4.3436   -5.9313   -1.5048 H   0  0  0  0  0  0  0  0  0  0  0  0
   -2.0110   -2.1596    2.6674 H   0  0  0  0  0  0  0  0  0  0  0  0
   -2.7732    1.5945    0.8991 H   0  0  0  0  0  0  0  0  0  0  0  0
    4.6505   -3.4283   -3.2583 H   0  0  0  0  0  0  0  0  0  0  0  0
    4.9611   -5.0769   -3.7805 H   0  0  0  0  0  0  0  0  0  0  0  0
    2.6269   -5.7151   -3.3870 H   0  0  0  0  0  0  0  0  0  0  0  0
    2.0530   -4.1195   -1.5497 H   0  0  0  0  0  0  0  0  0  0  0  0
    2.0626   -2.7759   -2.6951 H   0  0  0  0  0  0  0  0  0  0  0  0
    3.3970   -4.8258   -5.6225 H   0  0  0  0  0  0  0  0  0  0  0  0
    1.6777   -4.6002   -5.3519 H   0  0  0  0  0  0  0  0  0  0  0  0
    2.7840   -3.2262   -5.1670 H   0  0  0  0  0  0  0  0  0  0  0  0
    0.1848   -5.1907   -2.9073 H   0  0  0  0  0  0  0  0  0  0  0  0
    0.1086   -3.6927   -3.8487 H   0  0  0  0  0  0  0  0  0  0  0  0
   -0.4455   -2.4042   -1.7897 H   0  0  0  0  0  0  0  0  0  0  0  0
   -0.2869   -3.8786   -0.8316 H   0  0  0  0  0  0  0  0  0  0  0  0
   -2.2210   -4.8866   -2.1217 H   0  0  0  0  0  0  0  0  0  0  0  0
   -2.8544   -2.2901   -0.6227 H   0  0  0  0  0  0  0  0  0  0  0  0
   -3.9792   -3.6348   -0.8954 H   0  0  0  0  0  0  0  0  0  0  0  0
   -2.5553   -3.8739    0.1225 H   0  0  0  0  0  0  0  0  0  0  0  0
   -2.5908   -2.0562   -3.2539 H   0  0  0  0  0  0  0  0  0  0  0  0
   -3.7595   -3.3813   -3.3933 H   0  0  0  0  0  0  0  0  0  0  0  0
   -2.1997   -3.5075   -4.1946 H   0  0  0  0  0  0  0  0  0  0  0  0
  1  2  1  0  0  0  0 
  2  3  2  0  0  0  0 
  2  4  1  0  0  0  0 
  3  5  1  0  0  0  0 
  3  6  1  0  0  0  0 
  4  7  1  0  0  0  0 
  4  8  2  0  0  0  0 
  5  9  2  0  0  0  0 
  5 10  1  0  0  0  0 
 11  6  1  0  0  0  0 
  8  9  1  0  0  0  0 
  8 12  1  0  0  0  0 
  9 13  1  0  0  0  0 
 10 14  1  0  0  0  0 
 11 14  1  0  0  0  0 
 11 15  1  0  0  0  0 
 11 16  1  0  0  0  0 
 12 17  1  0  0  0  0 
 15 18  1  0  0  0  0 
 17 19  1  0  0  0  0 
 17 20  2  0  0  0  0 
 18 21  1  0  0  0  0 
 19 22  1  0  0  0  0 
 19 23  1  0  0  0  0 
 19 24  1  0  0  0  0 
 25 21  1  0  0  0  0 
 22 26  1  0  0  0  0 
 25 27  1  0  0  0  0 
 25 28  1  0  0  0  0 
 26 29  2  0  0  0  0 
 26 30  1  0  0  0  0 
 27 31  1  0  0  0  0 
 29 32  1  0  0  0  0 
 30 33  2  0  0  0  0 
 31 34  1  0  0  0  0 
 32 35  2  0  0  0  0 
 33 35  1  0  0  0  0 
 36 34  1  0  0  0  0 
 35 37  1  0  0  0  0 
 36 38  1  0  0  0  0 
 36 39  1  0  0  0  0 
 38 40  1  0  0  0  0 
 40 41  1  0  0  0  0 
 41 42  1  0  0  0  0 
 42 43  1  0  0  0  0 
 42 44  1  0  0  0  0 
  1 45  1  0  0  0  0 
  1 46  1  0  0  0  0 
  1 47  1  0  0  0  0 
  7 48  1  0  0  0  0 
  7 49  1  0  0  0  0 
  7 50  1  0  0  0  0 
 10 51  1  0  0  0  0 
 10 52  1  0  0  0  0 
 13 53  1  0  0  0  0 
 13 54  1  0  0  0  0 
 13 55  1  0  0  0  0 
 14 56  1  0  0  0  0 
 14 57  1  0  0  0  0 
 15 58  1  0  0  0  0 
 15 59  1  0  0  0  0 
 16 60  1  0  0  0  0 
 16 61  1  0  0  0  0 
 16 62  1  0  0  0  0 
 18 63  1  0  0  0  0 
 18 64  1  0  0  0  0 
 21 65  1  0  0  0  0 
 21 66  1  0  0  0  0 
 23 67  1  0  0  0  0 
 23 68  1  0  0  0  0 
 23 69  1  0  0  0  0 
 24 70  1  0  0  0  0 
 24 71  1  0  0  0  0 
 24 72  1  0  0  0  0 
 25 73  1  0  0  0  0 
 27 74  1  0  0  0  0 
 27 75  1  0  0  0  0 
 28 76  1  0  0  0  0 
 28 77  1  0  0  0  0 
 28 78  1  0  0  0  0 
 29 79  1  0  0  0  0 
 30 80  1  0  0  0  0 
 31 81  1  0  0  0  0 
 31 82  1  0  0  0  0 
 32 83  1  0  0  0  0 
 33 84  1  0  0  0  0 
 34 85  1  0  0  0  0 
 34 86  1  0  0  0  0 
 36 87  1  0  0  0  0 
 38 88  1  0  0  0  0 
 38 89  1  0  0  0  0 
 39 90  1  0  0  0  0 
 39 91  1  0  0  0  0 
 39 92  1  0  0  0  0 
 40 93  1  0  0  0  0 
 40 94  1  0  0  0  0 
 41 95  1  0  0  0  0 
 41 96  1  0  0  0  0 
 42 97  1  0  0  0  0 
 43 98  1  0  0  0  0 
 43 99  1  0  0  0  0 
 43100  1  0  0  0  0 
 44101  1  0  0  0  0 
 44102  1  0  0  0  0 
 44103  1  0  0  0  0 
M  END
> <cdk:Title>
tocofibrate

> <Conformer>
1

> <SuperDrugID>
SD002419

$$$$
