quercetin
  CDK     0628171801

 32 34  0  0  0  0  0  0  0  0999 V2000
    5.1113   -2.6704   -0.0824 O   0  0  0  0  0  0  0  0  0  0  0  0
    4.2769   -2.3259    0.7873 C   0  0  0  0  0  0  0  0  0  0  0  0
    4.6572   -2.1470    2.1405 C   0  0  0  0  0  0  0  0  0  0  0  0
    2.9449   -2.1232    0.3713 C   0  0  0  0  0  0  0  0  0  0  0  0
    3.6397   -1.7601    3.0548 C   0  0  0  0  0  0  0  0  0  0  0  0
    5.9798   -2.3291    2.6276 C   0  0  0  0  0  0  0  0  0  0  0  0
    2.6095   -2.3222   -0.9301 O   0  0  0  0  0  0  0  0  0  0  0  0
    1.9731   -1.7346    1.3203 C   0  0  0  0  0  0  0  0  0  0  0  0
    2.3584   -1.5778    2.6200 O   0  0  0  0  0  0  0  0  0  0  0  0
    3.9362   -1.5515    4.4125 C   0  0  0  0  0  0  0  0  0  0  0  0
    7.0086   -2.7020    1.8227 O   0  0  0  0  0  0  0  0  0  0  0  0
    6.2665   -2.1210    3.9911 C   0  0  0  0  0  0  0  0  0  0  0  0
    0.6190   -1.4984    0.9796 C   0  0  0  0  0  0  0  0  0  0  0  0
    5.2495   -1.7273    4.8809 C   0  0  0  0  0  0  0  0  0  0  0  0
   -0.4184   -2.2352    1.5984 C   0  0  0  0  0  0  0  0  0  0  0  0
    0.2766   -0.5342    0.0023 C   0  0  0  0  0  0  0  0  0  0  0  0
    5.5250   -1.5099    6.1873 O   0  0  0  0  0  0  0  0  0  0  0  0
   -1.7627   -2.0418    1.2185 C   0  0  0  0  0  0  0  0  0  0  0  0
   -1.0657   -0.3321   -0.3692 C   0  0  0  0  0  0  0  0  0  0  0  0
   -2.7423   -2.7887    1.7846 O   0  0  0  0  0  0  0  0  0  0  0  0
   -2.0865   -1.0892    0.2333 C   0  0  0  0  0  0  0  0  0  0  0  0
   -3.3743   -0.8998   -0.1429 O   0  0  0  0  0  0  0  0  0  0  0  0
    2.3078   -3.2542   -0.9657 H   0  0  0  0  0  0  0  0  0  0  0  0
    3.1960   -1.2648    5.0568 H   0  0  0  0  0  0  0  0  0  0  0  0
    7.2588   -1.8900    1.3320 H   0  0  0  0  0  0  0  0  0  0  0  0
    7.2208   -2.2532    4.3346 H   0  0  0  0  0  0  0  0  0  0  0  0
   -0.2019   -2.9310    2.3164 H   0  0  0  0  0  0  0  0  0  0  0  0
    1.0036    0.0283   -0.4462 H   0  0  0  0  0  0  0  0  0  0  0  0
    5.8832   -0.5977    6.2154 H   0  0  0  0  0  0  0  0  0  0  0  0
   -1.2959    0.3644   -1.0825 H   0  0  0  0  0  0  0  0  0  0  0  0
   -2.8462   -3.5571    1.1824 H   0  0  0  0  0  0  0  0  0  0  0  0
   -3.5075   -1.5029   -0.9047 H   0  0  0  0  0  0  0  0  0  0  0  0
  1  2  2  0  0  0  0 
  2  3  1  0  0  0  0 
  2  4  1  0  0  0  0 
  3  5  1  0  0  0  0 
  3  6  2  0  0  0  0 
  4  7  1  0  0  0  0 
  4  8  2  0  0  0  0 
  5  9  1  0  0  0  0 
  5 10  2  0  0  0  0 
  6 11  1  0  0  0  0 
  6 12  1  0  0  0  0 
  8  9  1  0  0  0  0 
  8 13  1  0  0  0  0 
 10 14  1  0  0  0  0 
 12 14  2  0  0  0  0 
 13 15  2  0  0  0  0 
 13 16  1  0  0  0  0 
 14 17  1  0  0  0  0 
 15 18  1  0  0  0  0 
 16 19  2  0  0  0  0 
 18 20  1  0  0  0  0 
 18 21  2  0  0  0  0 
 19 21  1  0  0  0  0 
 21 22  1  0  0  0  0 
 23  7  1  0  0  0  0 
 24 10  1  0  0  0  0 
 25 11  1  0  0  0  0 
 26 12  1  0  0  0  0 
 27 15  1  0  0  0  0 
 28 16  1  0  0  0  0 
 29 17  1  0  0  0  0 
 30 19  1  0  0  0  0 
 31 20  1  0  0  0  0 
 32 22  1  0  0  0  0 
M  END
> <cdk:Title>
quercetin

> <Conformer>
1

> <SuperDrugID>
SD003026

$$$$
