chlorozotocin
  CDK     0628171802

 36 36  0  0  0  0  0  0  0  0999 V2000
   -2.4024    1.4096   -3.4389 C   0  0  1  0  0  0  0  0  0  0  0  0
   -1.5366    0.8271   -4.5963 C   0  0  2  0  0  0  0  0  0  0  0  0
   -1.5955    1.7664   -2.3072 N   0  0  0  0  0  0  0  0  0  0  0  0
   -3.1574    2.6781   -3.9311 C   0  0  2  0  0  0  0  0  0  0  0  0
   -2.3857    0.6313   -5.8806 C   0  0  1  0  0  0  0  0  0  0  0  0
   -0.9567   -0.4250   -4.2297 O   0  0  0  0  0  0  0  0  0  0  0  0
   -1.1910    0.9372   -1.2991 C   0  0  0  0  0  0  0  0  0  0  0  0
   -4.0844    3.0991   -2.9340 O   0  0  0  0  0  0  0  0  0  0  0  0
   -3.0964    1.9674   -6.2560 C   0  0  1  0  0  0  0  0  0  0  0  0
   -1.5379    0.1709   -6.9334 O   0  0  0  0  0  0  0  0  0  0  0  0
   -0.3880    1.3663   -0.2567 N   0  0  0  0  0  0  0  0  0  0  0  0
   -1.5676   -0.2614   -1.3320 O   0  0  0  0  0  0  0  0  0  0  0  0
   -4.0156    1.8242   -7.4929 C   0  0  1  0  0  0  0  0  0  0  0  0
   -3.9009    2.4223   -5.1423 O   0  0  0  0  0  0  0  0  0  0  0  0
    0.1537    2.7015   -0.1114 C   0  0  1  0  0  0  0  0  0  0  0  0
   -0.0690    0.5289    0.6547 N   0  0  0  0  0  0  0  0  0  0  0  0
   -4.5973    3.0775   -7.8338 O   0  0  0  0  0  0  0  0  0  0  0  0
    1.7014    2.7159   -0.1503 C   0  0  2  0  0  0  0  0  0  0  0  0
   -0.7276    0.3532    1.6033 O   0  0  0  0  0  0  0  0  0  0  0  0
    2.3593    4.3472   -0.0769 Cl  0  0  0  0  0  0  0  0  0  0  0  0
   -3.1543    0.6675   -3.1504 H   0  0  0  0  0  0  0  0  0  0  0  0
   -0.7168    1.5189   -4.8154 H   0  0  0  0  0  0  0  0  0  0  0  0
   -1.3075    2.6897   -2.2733 H   0  0  0  0  0  0  0  0  0  0  0  0
   -2.4533    3.5003   -4.0948 H   0  0  0  0  0  0  0  0  0  0  0  0
   -3.1413   -0.1375   -5.6910 H   0  0  0  0  0  0  0  0  0  0  0  0
   -0.3408   -0.2176   -3.4959 H   0  0  0  0  0  0  0  0  0  0  0  0
   -4.5140    3.8984   -3.3069 H   0  0  0  0  0  0  0  0  0  0  0  0
   -2.3407    2.7250   -6.4937 H   0  0  0  0  0  0  0  0  0  0  0  0
   -2.1423   -0.0358   -7.6768 H   0  0  0  0  0  0  0  0  0  0  0  0
   -3.4441    1.4766   -8.3558 H   0  0  0  0  0  0  0  0  0  0  0  0
   -4.8148    1.1093   -7.2886 H   0  0  0  0  0  0  0  0  0  0  0  0
   -0.1994    3.3787   -0.8875 H   0  0  0  0  0  0  0  0  0  0  0  0
   -0.1842    3.1160    0.8437 H   0  0  0  0  0  0  0  0  0  0  0  0
   -5.1104    2.8954   -8.6491 H   0  0  0  0  0  0  0  0  0  0  0  0
    2.0565    2.2507   -1.0708 H   0  0  0  0  0  0  0  0  0  0  0  0
    2.0940    2.1596    0.7013 H   0  0  0  0  0  0  0  0  0  0  0  0
  1  2  1  0  0  0  0 
  1  3  1  0  0  0  0 
  1  4  1  0  0  0  0 
  2  5  1  0  0  0  0 
  2  6  1  0  0  0  0 
  3  7  1  0  0  0  0 
  4  8  1  0  0  0  0 
  5  9  1  0  0  0  0 
  5 10  1  0  0  0  0 
  7 11  1  0  0  0  0 
  7 12  2  0  0  0  0 
  9 13  1  0  0  0  0 
  9 14  1  0  0  0  0 
 11 15  1  0  0  0  0 
 11 16  1  0  0  0  0 
 13 17  1  0  0  0  0 
 15 18  1  0  0  0  0 
 16 19  2  0  0  0  0 
 18 20  1  0  0  0  0 
 14  4  1  0  0  0  0 
  1 21  1  0  0  0  0 
  2 22  1  0  0  0  0 
 23  3  1  0  0  0  0 
 24  4  1  0  0  0  0 
  5 25  1  0  0  0  0 
 26  6  1  0  0  0  0 
 27  8  1  0  0  0  0 
  9 28  1  0  0  0  0 
 29 10  1  0  0  0  0 
 30 13  1  0  0  0  0 
 31 13  1  0  0  0  0 
 32 15  1  0  0  0  0 
 33 15  1  0  0  0  0 
 34 17  1  0  0  0  0 
 35 18  1  0  0  0  0 
 36 18  1  0  0  0  0 
M  END
> <cdk:Title>
chlorozotocin

> <Conformer>
1

> <SuperDrugID>
SD000534

$$$$
