barbital
  CDK     0628171801

 25 25  0  0  0  0  0  0  0  0999 V2000
   -3.9293   -0.6373   -0.7001 C   0  0  2  0  0  0  0  0  0  0  0  0
   -3.3872   -1.0589   -2.0912 C   0  0  0  0  0  0  0  0  0  0  0  0
   -2.8621   -0.1663    0.3589 C   0  0  2  0  0  0  0  0  0  0  0  0
   -3.5972    0.2127    1.6997 C   0  0  2  0  0  0  0  0  0  0  0  0
   -2.1386    1.0420   -0.1692 C   0  0  0  0  0  0  0  0  0  0  0  0
   -1.8918   -1.2879    0.6225 C   0  0  0  0  0  0  0  0  0  0  0  0
   -2.7003    0.7131    2.8616 C   0  0  0  0  0  0  0  0  0  0  0  0
   -2.7584    2.0999   -0.4310 O   0  0  0  0  0  0  0  0  0  0  0  0
   -0.7978    1.0531   -0.3852 N   0  0  0  0  0  0  0  0  0  0  0  0
   -2.2861   -2.3797    1.0940 O   0  0  0  0  0  0  0  0  0  0  0  0
   -0.5607   -1.1709    0.3680 N   0  0  0  0  0  0  0  0  0  0  0  0
   -0.0228   -0.0274   -0.1245 C   0  0  0  0  0  0  0  0  0  0  0  0
    1.2087    0.0350   -0.3331 O   0  0  0  0  0  0  0  0  0  0  0  0
   -4.4884   -1.4870   -0.2970 H   0  0  0  0  0  0  0  0  0  0  0  0
   -4.6570    0.1651   -0.8631 H   0  0  0  0  0  0  0  0  0  0  0  0
   -4.2202   -1.3763   -2.7235 H   0  0  0  0  0  0  0  0  0  0  0  0
   -2.8852   -0.2230   -2.5808 H   0  0  0  0  0  0  0  0  0  0  0  0
   -2.6885   -1.8927   -2.0017 H   0  0  0  0  0  0  0  0  0  0  0  0
   -4.1570   -0.6525    2.0679 H   0  0  0  0  0  0  0  0  0  0  0  0
   -4.3360    0.9945    1.4996 H   0  0  0  0  0  0  0  0  0  0  0  0
   -3.3244    0.9654    3.7222 H   0  0  0  0  0  0  0  0  0  0  0  0
   -1.9941   -0.0603    3.1656 H   0  0  0  0  0  0  0  0  0  0  0  0
   -2.1466    1.6059    2.5690 H   0  0  0  0  0  0  0  0  0  0  0  0
   -0.3814    1.8564   -0.7346 H   0  0  0  0  0  0  0  0  0  0  0  0
    0.0233   -1.9263    0.5504 H   0  0  0  0  0  0  0  0  0  0  0  0
  1  2  1  0  0  0  0 
  1  3  1  0  0  0  0 
  3  4  1  0  0  0  0 
  3  5  1  0  0  0  0 
  3  6  1  0  0  0  0 
  4  7  1  0  0  0  0 
  5  8  2  0  0  0  0 
  5  9  1  0  0  0  0 
  6 10  2  0  0  0  0 
  6 11  1  0  0  0  0 
  9 12  1  0  0  0  0 
 11 12  1  0  0  0  0 
 12 13  2  0  0  0  0 
 14  1  1  0  0  0  0 
 15  1  1  0  0  0  0 
 16  2  1  0  0  0  0 
 17  2  1  0  0  0  0 
 18  2  1  0  0  0  0 
 19  4  1  0  0  0  0 
 20  4  1  0  0  0  0 
 21  7  1  0  0  0  0 
 22  7  1  0  0  0  0 
 23  7  1  0  0  0  0 
 24  9  1  0  0  0  0 
 25 11  1  0  0  0  0 
M  END
> <cdk:Title>
barbital

> <Conformer>
1

> <SuperDrugID>
SD000242

$$$$
