carisoprodol
  CDK     0628171802

 42 41  0  0  0  0  0  0  0  0999 V2000
   -2.3505    2.1840    0.7516 C   0  0  2  0  0  0  0  0  0  0  0  0
   -1.5238    1.3923    1.8273 C   0  0  1  0  0  0  0  0  0  0  0  0
   -3.8378    1.6866    0.7607 C   0  0  1  0  0  0  0  0  0  0  0  0
   -1.6745    1.9592   -0.6609 C   0  0  1  0  0  0  0  0  0  0  0  0
   -2.3180    3.7033    1.1264 C   0  0  0  0  0  0  0  0  0  0  0  0
   -1.9652    1.6462    3.1737 O   0  0  0  0  0  0  0  0  0  0  0  0
   -3.9633    0.3377    0.2818 O   0  0  0  0  0  0  0  0  0  0  0  0
   -2.3849    2.5715   -1.9053 C   0  0  2  0  0  0  0  0  0  0  0  0
   -1.4370    1.1113    4.3151 C   0  0  0  0  0  0  0  0  0  0  0  0
   -5.1197   -0.2875   -0.0874 C   0  0  0  0  0  0  0  0  0  0  0  0
   -1.6313    2.2868   -3.2254 C   0  0  0  0  0  0  0  0  0  0  0  0
   -1.9600    1.5106    5.5068 N   0  0  0  0  0  0  0  0  0  0  0  0
   -0.5029    0.2779    4.2565 O   0  0  0  0  0  0  0  0  0  0  0  0
   -5.0772   -1.5819   -0.4388 N   0  0  0  0  0  0  0  0  0  0  0  0
   -6.2215    0.3064   -0.1278 O   0  0  0  0  0  0  0  0  0  0  0  0
   -1.5605    1.0308    6.8012 C   0  0  1  0  0  0  0  0  0  0  0  0
   -0.2204    1.6684    7.2531 C   0  0  0  0  0  0  0  0  0  0  0  0
   -2.6948    1.3148    7.8213 C   0  0  0  0  0  0  0  0  0  0  0  0
   -1.5904    0.3172    1.6350 H   0  0  0  0  0  0  0  0  0  0  0  0
   -0.4699    1.6780    1.7604 H   0  0  0  0  0  0  0  0  0  0  0  0
   -4.2464    1.7295    1.7738 H   0  0  0  0  0  0  0  0  0  0  0  0
   -4.4495    2.3448    0.1390 H   0  0  0  0  0  0  0  0  0  0  0  0
   -0.6575    2.3639   -0.6327 H   0  0  0  0  0  0  0  0  0  0  0  0
   -1.5780    0.8836   -0.8395 H   0  0  0  0  0  0  0  0  0  0  0  0
   -2.8924    4.3025    0.4200 H   0  0  0  0  0  0  0  0  0  0  0  0
   -1.2927    4.0778    1.1353 H   0  0  0  0  0  0  0  0  0  0  0  0
   -2.7483    3.8734    2.1150 H   0  0  0  0  0  0  0  0  0  0  0  0
   -2.4724    3.6536   -1.7918 H   0  0  0  0  0  0  0  0  0  0  0  0
   -3.3897    2.1551   -1.9998 H   0  0  0  0  0  0  0  0  0  0  0  0
   -2.1705    2.7243   -4.0680 H   0  0  0  0  0  0  0  0  0  0  0  0
   -0.6296    2.7183   -3.1937 H   0  0  0  0  0  0  0  0  0  0  0  0
   -1.5508    1.2108   -3.3869 H   0  0  0  0  0  0  0  0  0  0  0  0
   -2.6605    2.1826    5.4790 H   0  0  0  0  0  0  0  0  0  0  0  0
   -4.2385   -2.0685   -0.3999 H   0  0  0  0  0  0  0  0  0  0  0  0
   -5.8862   -2.0357   -0.7280 H   0  0  0  0  0  0  0  0  0  0  0  0
   -1.4268   -0.0557    6.7583 H   0  0  0  0  0  0  0  0  0  0  0  0
    0.5829    1.3892    6.5690 H   0  0  0  0  0  0  0  0  0  0  0  0
    0.0495    1.3194    8.2520 H   0  0  0  0  0  0  0  0  0  0  0  0
   -0.2972    2.7574    7.2724 H   0  0  0  0  0  0  0  0  0  0  0  0
   -3.6266    0.8518    7.4893 H   0  0  0  0  0  0  0  0  0  0  0  0
   -2.4400    0.9042    8.8014 H   0  0  0  0  0  0  0  0  0  0  0  0
   -2.8592    2.3893    7.9269 H   0  0  0  0  0  0  0  0  0  0  0  0
  1  2  1  0  0  0  0 
  1  3  1  0  0  0  0 
  1  4  1  0  0  0  0 
  1  5  1  0  0  0  0 
  2  6  1  0  0  0  0 
  3  7  1  0  0  0  0 
  4  8  1  0  0  0  0 
  6  9  1  0  0  0  0 
  7 10  1  0  0  0  0 
  8 11  1  0  0  0  0 
  9 12  1  0  0  0  0 
  9 13  2  0  0  0  0 
 10 14  1  0  0  0  0 
 10 15  2  0  0  0  0 
 12 16  1  0  0  0  0 
 16 17  1  0  0  0  0 
 16 18  1  0  0  0  0 
 19  2  1  0  0  0  0 
 20  2  1  0  0  0  0 
 21  3  1  0  0  0  0 
 22  3  1  0  0  0  0 
 23  4  1  0  0  0  0 
 24  4  1  0  0  0  0 
 25  5  1  0  0  0  0 
 26  5  1  0  0  0  0 
 27  5  1  0  0  0  0 
 28  8  1  0  0  0  0 
 29  8  1  0  0  0  0 
 30 11  1  0  0  0  0 
 31 11  1  0  0  0  0 
 32 11  1  0  0  0  0 
 33 12  1  0  0  0  0 
 34 14  1  0  0  0  0 
 35 14  1  0  0  0  0 
 36 16  1  0  0  0  0 
 37 17  1  0  0  0  0 
 38 17  1  0  0  0  0 
 39 17  1  0  0  0  0 
 40 18  1  0  0  0  0 
 41 18  1  0  0  0  0 
 42 18  1  0  0  0  0 
M  END
> <cdk:Title>
carisoprodol

> <Conformer>
1

> <SuperDrugID>
SD000439

$$$$
