tranylcypromine
  CDK     0628171801

 21 22  0  0  0  0  0  0  0  0999 V2000
   -2.9029   -2.3527   -0.7358 N   0  0  2  0  0  0  0  0  0  0  0  0
   -1.7112   -1.5801   -1.0926 C   0  0  2  0  0  0  0  0  0  0  0  0
   -0.3758   -2.3315   -1.0668 C   0  0  1  0  0  0  0  0  0  0  0  0
   -0.6992   -1.2974    0.0322 C   0  0  1  0  0  0  0  0  0  0  0  0
    0.0212   -0.0036    0.0102 C   0  0  0  0  0  0  0  0  0  0  0  0
   -0.6848    1.2222    0.0132 C   0  0  0  0  0  0  0  0  0  0  0  0
    0.0112    2.4462    0.0031 C   0  0  0  0  0  0  0  0  0  0  0  0
    1.4176    2.4564    0.0000 C   0  0  0  0  0  0  0  0  0  0  0  0
    2.1282    1.2430    0.0039 C   0  0  0  0  0  0  0  0  0  0  0  0
    1.4329    0.0201    0.0149 C   0  0  0  0  0  0  0  0  0  0  0  0
   -3.2375   -2.7769   -1.6028 H   0  0  0  0  0  0  0  0  0  0  0  0
   -3.6114   -1.6747   -0.4463 H   0  0  0  0  0  0  0  0  0  0  0  0
   -1.8016   -0.8229   -1.8737 H   0  0  0  0  0  0  0  0  0  0  0  0
   -0.4156   -3.3797   -0.7651 H   0  0  0  0  0  0  0  0  0  0  0  0
    0.3337   -2.0330   -1.8417 H   0  0  0  0  0  0  0  0  0  0  0  0
   -0.9681   -1.7140    1.0052 H   0  0  0  0  0  0  0  0  0  0  0  0
   -1.7080    1.2351    0.0195 H   0  0  0  0  0  0  0  0  0  0  0  0
   -0.5056    3.3291   -0.0018 H   0  0  0  0  0  0  0  0  0  0  0  0
    1.9235    3.3427   -0.0051 H   0  0  0  0  0  0  0  0  0  0  0  0
    3.1501    1.2460   -0.0012 H   0  0  0  0  0  0  0  0  0  0  0  0
    1.9655   -0.8532    0.0230 H   0  0  0  0  0  0  0  0  0  0  0  0
  2  1  1  0  0  0  0 
  2  3  1  0  0  0  0 
  3  4  1  0  0  0  0 
  2  4  1  0  0  0  0 
  4  5  1  0  0  0  0 
  5  6  2  0  0  0  0 
  6  7  1  0  0  0  0 
  7  8  2  0  0  0  0 
  8  9  1  0  0  0  0 
  9 10  2  0  0  0  0 
  5 10  1  0  0  0  0 
  1 11  1  0  0  0  0 
  1 12  1  0  0  0  0 
  2 13  1  0  0  0  0 
  3 14  1  0  0  0  0 
  3 15  1  0  0  0  0 
  4 16  1  0  0  0  0 
  6 17  1  0  0  0  0 
  7 18  1  0  0  0  0 
  8 19  1  0  0  0  0 
  9 20  1  0  0  0  0 
 10 21  1  0  0  0  0 
M  END
> <cdk:Title>
tranylcypromine

> <Conformer>
1

> <SuperDrugID>
SD002446

$$$$
