rotraxate
  CDK     0628171801

 44 45  0  0  0  0  0  0  0  0999 V2000
   -5.7194    0.6551   13.9893 C   0  0  0  0  0  0  0  0  0  0  0  0
   -6.8579    1.1812   13.9166 O   0  0  0  0  0  0  0  0  0  0  0  0
   -5.1216    0.4936   15.2939 C   0  0  0  0  0  0  0  0  0  0  0  0
   -5.1431    0.2508   12.6643 C   0  0  1  0  0  0  0  0  0  0  0  0
   -5.7756    1.0182   16.4404 C   0  0  0  0  0  0  0  0  0  0  0  0
   -3.8967   -0.1866   15.5272 C   0  0  0  0  0  0  0  0  0  0  0  0
   -3.8532    1.0628   12.3185 C   0  0  2  0  0  0  0  0  0  0  0  0
   -5.0183   -1.3009   12.5061 C   0  0  1  0  0  0  0  0  0  0  0  0
   -5.2699    0.8287   17.7384 C   0  0  0  0  0  0  0  0  0  0  0  0
   -3.4006   -0.4052   16.8247 C   0  0  0  0  0  0  0  0  0  0  0  0
   -3.1360    0.5504   11.0442 C   0  0  2  0  0  0  0  0  0  0  0  0
   -4.2566   -1.7206   11.2211 C   0  0  2  0  0  0  0  0  0  0  0  0
   -4.0882    0.0882   17.9530 C   0  0  0  0  0  0  0  0  0  0  0  0
   -2.8829   -0.9854   11.1155 C   0  0  1  0  0  0  0  0  0  0  0  0
   -3.5816   -0.1792   19.3283 C   0  0  1  0  0  0  0  0  0  0  0  0
   -2.0176   -1.4651    9.9181 C   0  0  1  0  0  0  0  0  0  0  0  0
   -3.8585   -1.6237   19.8339 C   0  0  2  0  0  0  0  0  0  0  0  0
   -1.6671   -2.8836   10.0441 N   0  0  1  0  0  0  0  0  0  0  0  0
   -5.2943   -1.9321   19.9949 C   0  0  0  0  0  0  0  0  0  0  0  0
   -6.0913   -2.0590   18.9073 O   0  0  0  0  0  0  0  0  0  0  0  0
   -5.7961   -2.0885   21.1315 O   0  0  0  0  0  0  0  0  0  0  0  0
   -5.8572    0.5381   11.8801 H   0  0  0  0  0  0  0  0  0  0  0  0
   -6.6463    1.5472   16.3502 H   0  0  0  0  0  0  0  0  0  0  0  0
   -3.3283   -0.5471   14.7650 H   0  0  0  0  0  0  0  0  0  0  0  0
   -3.1381    1.0427   13.1411 H   0  0  0  0  0  0  0  0  0  0  0  0
   -4.1222    2.1106   12.1556 H   0  0  0  0  0  0  0  0  0  0  0  0
   -4.5123   -1.7544   13.3556 H   0  0  0  0  0  0  0  0  0  0  0  0
   -6.0197   -1.7391   12.4741 H   0  0  0  0  0  0  0  0  0  0  0  0
   -5.7847    1.2222   18.5299 H   0  0  0  0  0  0  0  0  0  0  0  0
   -2.5287   -0.9292   16.9395 H   0  0  0  0  0  0  0  0  0  0  0  0
   -2.1871    1.0874   10.9391 H   0  0  0  0  0  0  0  0  0  0  0  0
   -3.7470    0.7848   10.1658 H   0  0  0  0  0  0  0  0  0  0  0  0
   -4.8734   -1.4920   10.3458 H   0  0  0  0  0  0  0  0  0  0  0  0
   -4.1093   -2.8049   11.2429 H   0  0  0  0  0  0  0  0  0  0  0  0
   -2.3096   -1.1937   12.0264 H   0  0  0  0  0  0  0  0  0  0  0  0
   -2.5013   -0.0057   19.3375 H   0  0  0  0  0  0  0  0  0  0  0  0
   -4.0139    0.5286   20.0431 H   0  0  0  0  0  0  0  0  0  0  0  0
   -2.5462   -1.3046    8.9767 H   0  0  0  0  0  0  0  0  0  0  0  0
   -1.0828   -0.9007    9.8882 H   0  0  0  0  0  0  0  0  0  0  0  0
   -3.3556   -1.7494   20.7975 H   0  0  0  0  0  0  0  0  0  0  0  0
   -3.4240   -2.3530   19.1477 H   0  0  0  0  0  0  0  0  0  0  0  0
   -1.0654   -3.1139    9.2521 H   0  0  0  0  0  0  0  0  0  0  0  0
   -1.0943   -2.9740   10.8863 H   0  0  0  0  0  0  0  0  0  0  0  0
   -7.0439   -2.2643   19.0094 H   0  0  0  0  0  0  0  0  0  0  0  0
  1  2  2  0  0  0  0 
  1  3  1  0  0  0  0 
  3  5  2  0  0  0  0 
  3  6  1  0  0  0  0 
  4  1  1  0  0  0  0 
  4  7  1  0  0  0  0 
  4  8  1  0  0  0  0 
  5  9  1  0  0  0  0 
  6 10  2  0  0  0  0 
  7 11  1  0  0  0  0 
  8 12  1  0  0  0  0 
  9 13  2  0  0  0  0 
 10 13  1  0  0  0  0 
 14 11  1  0  0  0  0 
 14 12  1  0  0  0  0 
 13 15  1  0  0  0  0 
 14 16  1  0  0  0  0 
 15 17  1  0  0  0  0 
 16 18  1  0  0  0  0 
 17 19  1  0  0  0  0 
 19 20  1  0  0  0  0 
 19 21  2  0  0  0  0 
  4 22  1  0  0  0  0 
 23  5  1  0  0  0  0 
 24  6  1  0  0  0  0 
 25  7  1  0  0  0  0 
 26  7  1  0  0  0  0 
 27  8  1  0  0  0  0 
 28  8  1  0  0  0  0 
 29  9  1  0  0  0  0 
 30 10  1  0  0  0  0 
 31 11  1  0  0  0  0 
 32 11  1  0  0  0  0 
 33 12  1  0  0  0  0 
 34 12  1  0  0  0  0 
 14 35  1  0  0  0  0 
 36 15  1  0  0  0  0 
 37 15  1  0  0  0  0 
 38 16  1  0  0  0  0 
 39 16  1  0  0  0  0 
 40 17  1  0  0  0  0 
 41 17  1  0  0  0  0 
 42 18  1  0  0  0  0 
 43 18  1  0  0  0  0 
 44 20  1  0  0  0  0 
M  END
> <cdk:Title>
rotraxate

> <Conformer>
1

> <SuperDrugID>
SD003265

$$$$
