piberaline
  CDK     0628171801

 40 42  0  0  0  0  0  0  0  0999 V2000
   -2.4913   -2.3651    5.6274 C   0  0  0  0  0  0  0  0  0  0  0  0
   -1.3348   -2.8321    5.4864 O   0  0  0  0  0  0  0  0  0  0  0  0
   -2.8397   -1.1711    4.9930 N   0  0  0  0  0  0  0  0  0  0  0  0
   -3.3092   -3.1069    6.5212 C   0  0  0  0  0  0  0  0  0  0  0  0
   -4.2143   -0.7044    4.9535 C   0  0  2  0  0  0  0  0  0  0  0  0
   -1.7899   -0.3008    4.4872 C   0  0  1  0  0  0  0  0  0  0  0  0
   -3.3163   -4.5240    6.5472 C   0  0  0  0  0  0  0  0  0  0  0  0
   -4.0658   -2.4419    7.4377 N   0  0  0  0  0  0  0  0  0  0  0  0
   -4.5564    0.1892    3.7320 C   0  0  2  0  0  0  0  0  0  0  0  0
   -2.1910    0.6501    3.3340 C   0  0  2  0  0  0  0  0  0  0  0  0
   -4.0762   -5.1984    7.5231 C   0  0  0  0  0  0  0  0  0  0  0  0
   -4.8164   -3.0606    8.3845 C   0  0  0  0  0  0  0  0  0  0  0  0
   -3.5346    1.2618    3.5375 N   0  0  1  0  0  0  0  0  0  0  0  0
   -4.8269   -4.4638    8.4581 C   0  0  0  0  0  0  0  0  0  0  0  0
   -3.8706    2.2210    2.4351 C   0  0  1  0  0  0  0  0  0  0  0  0
   -4.9907    3.1387    2.7616 C   0  0  0  0  0  0  0  0  0  0  0  0
   -4.8805    4.0412    3.8470 C   0  0  0  0  0  0  0  0  0  0  0  0
   -6.1620    3.1653    1.9678 C   0  0  0  0  0  0  0  0  0  0  0  0
   -5.8999    4.9773    4.1051 C   0  0  0  0  0  0  0  0  0  0  0  0
   -7.1847    4.0934    2.2342 C   0  0  0  0  0  0  0  0  0  0  0  0
   -7.0529    5.0022    3.2993 C   0  0  0  0  0  0  0  0  0  0  0  0
   -4.4179   -0.1403    5.8674 H   0  0  0  0  0  0  0  0  0  0  0  0
   -4.9114   -1.5480    4.9244 H   0  0  0  0  0  0  0  0  0  0  0  0
   -1.4395    0.3029    5.3292 H   0  0  0  0  0  0  0  0  0  0  0  0
   -0.9336   -0.8699    4.1108 H   0  0  0  0  0  0  0  0  0  0  0  0
   -2.7780   -5.0665    5.8658 H   0  0  0  0  0  0  0  0  0  0  0  0
   -5.5402    0.6330    3.9046 H   0  0  0  0  0  0  0  0  0  0  0  0
   -4.6303   -0.4359    2.8356 H   0  0  0  0  0  0  0  0  0  0  0  0
   -2.1647    0.1007    2.3875 H   0  0  0  0  0  0  0  0  0  0  0  0
   -1.4335    1.4365    3.2773 H   0  0  0  0  0  0  0  0  0  0  0  0
   -4.0814   -6.2214    7.5531 H   0  0  0  0  0  0  0  0  0  0  0  0
   -5.3593   -2.5049    9.0467 H   0  0  0  0  0  0  0  0  0  0  0  0
   -5.3672   -4.9444    9.1807 H   0  0  0  0  0  0  0  0  0  0  0  0
   -3.0138    2.8655    2.2168 H   0  0  0  0  0  0  0  0  0  0  0  0
   -4.0726    1.6608    1.5173 H   0  0  0  0  0  0  0  0  0  0  0  0
   -4.0496    4.0312    4.4442 H   0  0  0  0  0  0  0  0  0  0  0  0
   -6.2716    2.5179    1.1831 H   0  0  0  0  0  0  0  0  0  0  0  0
   -5.7989    5.6468    4.8723 H   0  0  0  0  0  0  0  0  0  0  0  0
   -8.0208    4.1130    1.6461 H   0  0  0  0  0  0  0  0  0  0  0  0
   -7.7944    5.6822    3.4845 H   0  0  0  0  0  0  0  0  0  0  0  0
  1  2  2  0  0  0  0 
  1  3  1  0  0  0  0 
  1  4  1  0  0  0  0 
  3  5  1  0  0  0  0 
  3  6  1  0  0  0  0 
  4  7  2  0  0  0  0 
  4  8  1  0  0  0  0 
  5  9  1  0  0  0  0 
  6 10  1  0  0  0  0 
  7 11  1  0  0  0  0 
  8 12  2  0  0  0  0 
  9 13  1  0  0  0  0 
 10 13  1  0  0  0  0 
 11 14  2  0  0  0  0 
 12 14  1  0  0  0  0 
 13 15  1  0  0  0  0 
 15 16  1  0  0  0  0 
 16 17  2  0  0  0  0 
 16 18  1  0  0  0  0 
 17 19  1  0  0  0  0 
 18 20  2  0  0  0  0 
 19 21  2  0  0  0  0 
 20 21  1  0  0  0  0 
  5 22  1  0  0  0  0 
  5 23  1  0  0  0  0 
  6 24  1  0  0  0  0 
  6 25  1  0  0  0  0 
  7 26  1  0  0  0  0 
  9 27  1  0  0  0  0 
  9 28  1  0  0  0  0 
 10 29  1  0  0  0  0 
 10 30  1  0  0  0  0 
 11 31  1  0  0  0  0 
 12 32  1  0  0  0  0 
 14 33  1  0  0  0  0 
 15 34  1  0  0  0  0 
 15 35  1  0  0  0  0 
 17 36  1  0  0  0  0 
 18 37  1  0  0  0  0 
 19 38  1  0  0  0  0 
 20 39  1  0  0  0  0 
 21 40  1  0  0  0  0 
M  END
> <cdk:Title>
piberaline

> <Conformer>
1

> <SuperDrugID>
SD002988

$$$$
