vancomycin
  CDK     0628171801

176185  0  0  0  0  0  0  0  0999 V2000
    4.2529   -7.7832    5.5612 O   0  0  0  0  0  0  0  0  0  0  0  0
    2.9031   -8.0217    5.6822 C   0  0  0  0  0  0  0  0  0  0  0  0
    5.0106   -7.2995    6.7015 C   0  0  1  0  0  0  0  0  0  0  0  0
    2.3900   -9.3090    5.4027 C   0  0  0  0  0  0  0  0  0  0  0  0
    2.0030   -6.9674    5.9388 C   0  0  0  0  0  0  0  0  0  0  0  0
    5.9211   -6.1453    6.1691 C   0  0  2  0  0  0  0  0  0  0  0  0
    4.1922   -6.8908    7.8275 O   0  0  0  0  0  0  0  0  0  0  0  0
    0.9912   -9.5352    5.4063 C   0  0  0  0  0  0  0  0  0  0  0  0
    3.2657  -10.2989    5.0336 O   0  0  0  0  0  0  0  0  0  0  0  0
    0.6249   -7.2493    6.0447 C   0  0  0  0  0  0  0  0  0  0  0  0
    2.4541   -5.6568    5.9431 O   0  0  0  0  0  0  0  0  0  0  0  0
    6.8687   -6.7527    5.2518 O   0  0  0  0  0  0  0  0  0  0  0  0
    6.6035   -5.3506    7.3261 C   0  0  1  0  0  0  0  0  0  0  0  0
    4.8898   -6.3012    8.9434 C   0  0  1  0  0  0  0  0  0  0  0  0
    0.0730   -8.4810    5.6313 C   0  0  0  0  0  0  0  0  0  0  0  0
    3.1968  -10.5625    3.6826 C   0  0  0  0  0  0  0  0  0  0  0  0
    1.8214   -4.9873    4.9167 C   0  0  0  0  0  0  0  0  0  0  0  0
    7.7534   -5.8960    4.4913 C   0  0  1  0  0  0  0  0  0  0  0  0
    7.1438   -4.1189    6.8421 O   0  0  0  0  0  0  0  0  0  0  0  0
    5.6079   -5.0090    8.4643 C   0  0  1  0  0  0  0  0  0  0  0  0
    3.8521   -6.0343   10.0623 C   0  0  1  0  0  0  0  0  0  0  0  0
   -1.4115   -8.6368    5.3898 C   0  0  2  0  0  0  0  0  0  0  0  0
    2.7658  -11.8313    3.2393 C   0  0  0  0  0  0  0  0  0  0  0  0
    3.5453   -9.5888    2.7195 C   0  0  0  0  0  0  0  0  0  0  0  0
    0.7367   -4.1301    5.2051 C   0  0  0  0  0  0  0  0  0  0  0  0
    2.1193   -5.3027    3.5743 C   0  0  0  0  0  0  0  0  0  0  0  0
    8.5935   -6.7119    3.4711 C   0  0  1  0  0  0  0  0  0  0  0  0
    7.0773   -4.8027    3.8344 O   0  0  0  0  0  0  0  0  0  0  0  0
    6.3139   -4.3752    9.5308 O   0  0  0  0  0  0  0  0  0  0  0  0
    3.2533   -7.2505   10.4967 O   0  0  0  0  0  0  0  0  0  0  0  0
   -1.7685   -9.2919    4.1024 C   0  0  0  0  0  0  0  0  0  0  0  0
   -2.1139   -7.4050    5.7140 N   0  0  0  0  0  0  0  0  0  0  0  0
    2.3867  -13.0611    4.3434 Cl  0  0  0  0  0  0  0  0  0  0  0  0
    2.6210  -12.0857    1.8614 C   0  0  0  0  0  0  0  0  0  0  0  0
    3.4105   -9.8504    1.3473 C   0  0  0  0  0  0  0  0  0  0  0  0
    0.4406   -3.6010    6.7894 Cl  0  0  0  0  0  0  0  0  0  0  0  0
   -0.1579   -3.7732    4.1789 C   0  0  0  0  0  0  0  0  0  0  0  0
    1.2357   -4.9206    2.5544 C   0  0  0  0  0  0  0  0  0  0  0  0
    7.7970   -7.1381    2.1977 C   0  0  2  0  0  0  0  0  0  0  0  0
    6.1474   -5.1573    2.7474 C   0  0  2  0  0  0  0  0  0  0  0  0
   -2.8884   -9.8516    4.0631 O   0  0  0  0  0  0  0  0  0  0  0  0
   -0.9196   -9.3025    3.0213 N   0  0  0  0  0  0  0  0  0  0  0  0
   -2.7011   -6.3201    5.0754 C   0  0  0  0  0  0  0  0  0  0  0  0
    2.8958  -11.0863    0.8953 C   0  0  0  0  0  0  0  0  0  0  0  0
    0.0474   -4.2038    2.8461 C   0  0  0  0  0  0  0  0  0  0  0  0
    6.8886   -8.3732    2.4700 C   0  0  0  0  0  0  0  0  0  0  0  0
    8.7613   -7.5792    1.1678 N   0  0  2  0  0  0  0  0  0  0  0  0
    7.0023   -5.9096    1.6405 C   0  0  1  0  0  0  0  0  0  0  0  0
    5.3094   -3.8499    2.2217 C   0  0  0  0  0  0  0  0  0  0  0  0
   -1.1926   -9.7039    1.6580 C   0  0  2  0  0  0  0  0  0  0  0  0
   -2.7425   -5.3652    5.8876 O   0  0  0  0  0  0  0  0  0  0  0  0
   -3.4158   -6.0549    3.7729 C   0  0  2  0  0  0  0  0  0  0  0  0
    2.6222  -11.2798   -0.5630 C   0  0  1  0  0  0  0  0  0  0  0  0
   -0.8840   -3.8930    1.7222 C   0  0  1  0  0  0  0  0  0  0  0  0
    7.9067   -4.9703    1.0533 O   0  0  0  0  0  0  0  0  0  0  0  0
   -1.8952  -11.0248    1.4826 C   0  0  0  0  0  0  0  0  0  0  0  0
    0.0151   -9.4857    0.7863 C   0  0  0  0  0  0  0  0  0  0  0  0
   -3.1352   -6.8482    2.4770 C   0  0  2  0  0  0  0  0  0  0  0  0
   -3.7829   -4.6690    3.5696 N   0  0  0  0  0  0  0  0  0  0  0  0
    2.3691  -12.6520   -0.8708 O   0  0  0  0  0  0  0  0  0  0  0  0
    1.4746  -10.3507   -1.1016 C   0  0  2  0  0  0  0  0  0  0  0  0
   -1.0984   -5.0464    0.9187 O   0  0  0  0  0  0  0  0  0  0  0  0
   -2.2124   -3.1057    1.9933 C   0  0  2  0  0  0  0  0  0  0  0  0
   -1.1698  -12.1937    1.1648 C   0  0  0  0  0  0  0  0  0  0  0  0
   -3.3098  -11.1150    1.4579 C   0  0  0  0  0  0  0  0  0  0  0  0
    0.7331   -8.4789    1.0003 O   0  0  0  0  0  0  0  0  0  0  0  0
    0.3251  -10.3267   -0.2581 N   0  0  0  0  0  0  0  0  0  0  0  0
   -3.9883   -6.4747    1.3221 C   0  0  0  0  0  0  0  0  0  0  0  0
   -3.3500   -3.5545    2.8777 C   0  0  0  0  0  0  0  0  0  0  0  0
    1.0976  -10.7059   -2.5027 C   0  0  0  0  0  0  0  0  0  0  0  0
   -2.7728   -2.7665    0.7033 N   0  0  0  0  0  0  0  0  0  0  0  0
   -1.7912  -13.2330    0.4514 C   0  0  0  0  0  0  0  0  0  0  0  0
   -3.9545  -12.2948    1.0435 C   0  0  0  0  0  0  0  0  0  0  0  0
   -5.3278   -6.5762    1.3889 N   0  0  0  0  0  0  0  0  0  0  0  0
   -3.5002   -6.0783    0.2413 O   0  0  0  0  0  0  0  0  0  0  0  0
   -4.1909   -2.6414    3.0612 O   0  0  0  0  0  0  0  0  0  0  0  0
    1.8068  -10.2010   -3.4045 O   0  0  0  0  0  0  0  0  0  0  0  0
    0.1166  -11.5243   -3.0102 N   0  0  0  0  0  0  0  0  0  0  0  0
   -2.6759   -1.5579    0.0590 C   0  0  0  0  0  0  0  0  0  0  0  0
   -0.9635  -14.0258   -0.3805 C   0  0  0  0  0  0  0  0  0  0  0  0
   -3.2001  -13.3500    0.4936 C   0  0  0  0  0  0  0  0  0  0  0  0
   -0.9488  -12.3244   -2.4445 C   0  0  1  0  0  0  0  0  0  0  0  0
   -3.2327   -1.4236   -1.3204 C   0  0  1  0  0  0  0  0  0  0  0  0
   -2.1100   -0.5831    0.6131 O   0  0  0  0  0  0  0  0  0  0  0  0
   -0.5349  -13.5745   -1.6789 C   0  0  0  0  0  0  0  0  0  0  0  0
   -0.5249  -15.2758    0.1283 C   0  0  0  0  0  0  0  0  0  0  0  0
   -3.8575  -14.4131   -0.0405 O   0  0  0  0  0  0  0  0  0  0  0  0
   -2.1151  -11.4944   -2.0417 C   0  0  0  0  0  0  0  0  0  0  0  0
   -3.0120   -0.0225   -2.0012 C   0  0  2  0  0  0  0  0  0  0  0  0
   -2.7888   -2.5686   -2.1685 N   0  0  2  0  0  0  0  0  0  0  0  0
    0.3484  -14.4288   -2.3936 C   0  0  0  0  0  0  0  0  0  0  0  0
   -0.9273  -15.7210    1.3494 O   0  0  0  0  0  0  0  0  0  0  0  0
    0.3468  -16.0845   -0.6240 C   0  0  0  0  0  0  0  0  0  0  0  0
   -2.0124  -10.1746   -1.7522 O   0  0  0  0  0  0  0  0  0  0  0  0
   -3.2745  -11.9673   -2.0717 O   0  0  0  0  0  0  0  0  0  0  0  0
   -3.5509    0.1390   -3.4666 C   0  0  2  0  0  0  0  0  0  0  0  0
   -1.3400   -2.7036   -2.4487 C   0  0  0  0  0  0  0  0  0  0  0  0
    0.7897  -15.6602   -1.8833 C   0  0  0  0  0  0  0  0  0  0  0  0
   -3.0924    1.4907   -4.0874 C   0  0  0  0  0  0  0  0  0  0  0  0
   -5.0985    0.0097   -3.5701 C   0  0  0  0  0  0  0  0  0  0  0  0
    1.6291  -16.4483   -2.6029 O   0  0  0  0  0  0  0  0  0  0  0  0
   -1.7200   -9.3377    6.1726 H   0  0  0  0  0  0  0  0  0  0  0  0
   -1.8729   -8.9564    1.2556 H   0  0  0  0  0  0  0  0  0  0  0  0
    1.8703   -9.3293   -1.1350 H   0  0  0  0  0  0  0  0  0  0  0  0
    8.4710   -5.4552    5.1858 H   0  0  0  0  0  0  0  0  0  0  0  0
   -1.3581  -12.7603   -3.3638 H   0  0  0  0  0  0  0  0  0  0  0  0
    5.6352   -8.1336    7.0338 H   0  0  0  0  0  0  0  0  0  0  0  0
    5.2702   -5.4545    5.6244 H   0  0  0  0  0  0  0  0  0  0  0  0
    0.6405  -10.4702    5.1867 H   0  0  0  0  0  0  0  0  0  0  0  0
    0.0195   -6.4922    6.3529 H   0  0  0  0  0  0  0  0  0  0  0  0
    7.4280   -5.9484    7.7253 H   0  0  0  0  0  0  0  0  0  0  0  0
    5.6331   -7.0046    9.3351 H   0  0  0  0  0  0  0  0  0  0  0  0
    7.5972   -3.7127    7.6114 H   0  0  0  0  0  0  0  0  0  0  0  0
    4.8666   -4.2986    8.0839 H   0  0  0  0  0  0  0  0  0  0  0  0
    4.3313   -5.5707   10.9266 H   0  0  0  0  0  0  0  0  0  0  0  0
    3.0644   -5.3722    9.6977 H   0  0  0  0  0  0  0  0  0  0  0  0
    3.8752   -8.6705    3.0143 H   0  0  0  0  0  0  0  0  0  0  0  0
    2.9410   -5.8681    3.3481 H   0  0  0  0  0  0  0  0  0  0  0  0
    9.4320   -6.0812    3.1593 H   0  0  0  0  0  0  0  0  0  0  0  0
    9.0167   -7.5880    3.9701 H   0  0  0  0  0  0  0  0  0  0  0  0
    5.6161   -4.0198   10.1200 H   0  0  0  0  0  0  0  0  0  0  0  0
    2.6048   -6.9782   11.1806 H   0  0  0  0  0  0  0  0  0  0  0  0
   -2.0530   -7.2417    6.6704 H   0  0  0  0  0  0  0  0  0  0  0  0
    2.2917  -13.0083    1.5692 H   0  0  0  0  0  0  0  0  0  0  0  0
    3.6637   -9.1184    0.6783 H   0  0  0  0  0  0  0  0  0  0  0  0
   -0.9682   -3.2040    4.4219 H   0  0  0  0  0  0  0  0  0  0  0  0
    1.4582   -5.1960    1.5934 H   0  0  0  0  0  0  0  0  0  0  0  0
    5.4699   -5.9510    3.1680 H   0  0  0  0  0  0  0  0  0  0  0  0
   -0.0432   -8.9183    3.1793 H   0  0  0  0  0  0  0  0  0  0  0  0
    6.3231   -8.6378    1.5741 H   0  0  0  0  0  0  0  0  0  0  0  0
    7.4927   -9.2357    2.7603 H   0  0  0  0  0  0  0  0  0  0  0  0
    6.1851   -8.1773    3.2739 H   0  0  0  0  0  0  0  0  0  0  0  0
    8.2230   -7.8954    0.3569 H   0  0  0  0  0  0  0  0  0  0  0  0
    9.2436   -8.3999    1.5399 H   0  0  0  0  0  0  0  0  0  0  0  0
    6.3264   -6.2407    0.8481 H   0  0  0  0  0  0  0  0  0  0  0  0
    4.7117   -3.4463    3.0400 H   0  0  0  0  0  0  0  0  0  0  0  0
    4.6510   -4.1396    1.4021 H   0  0  0  0  0  0  0  0  0  0  0  0
    6.0005   -3.0808    1.8764 H   0  0  0  0  0  0  0  0  0  0  0  0
   -4.3975   -6.4514    4.0531 H   0  0  0  0  0  0  0  0  0  0  0  0
    3.5434  -11.0374   -1.1024 H   0  0  0  0  0  0  0  0  0  0  0  0
   -0.2848   -3.2358    1.0818 H   0  0  0  0  0  0  0  0  0  0  0  0
    7.3383   -4.2839    0.6464 H   0  0  0  0  0  0  0  0  0  0  0  0
   -3.3873   -7.8851    2.6550 H   0  0  0  0  0  0  0  0  0  0  0  0
   -2.0752   -6.7900    2.2498 H   0  0  0  0  0  0  0  0  0  0  0  0
   -4.5966   -4.4697    4.0597 H   0  0  0  0  0  0  0  0  0  0  0  0
    2.4373  -12.7110   -1.8470 H   0  0  0  0  0  0  0  0  0  0  0  0
   -1.4898   -4.7167    0.0826 H   0  0  0  0  0  0  0  0  0  0  0  0
   -1.8600   -2.1838    2.4707 H   0  0  0  0  0  0  0  0  0  0  0  0
   -0.1604  -12.2257    1.3205 H   0  0  0  0  0  0  0  0  0  0  0  0
   -3.8851  -10.3118    1.7157 H   0  0  0  0  0  0  0  0  0  0  0  0
   -0.3095  -11.0268   -0.4408 H   0  0  0  0  0  0  0  0  0  0  0  0
   -3.2403   -3.4777    0.2311 H   0  0  0  0  0  0  0  0  0  0  0  0
   -4.9738  -12.3551    1.0838 H   0  0  0  0  0  0  0  0  0  0  0  0
   -5.8681   -6.3279    0.6238 H   0  0  0  0  0  0  0  0  0  0  0  0
   -5.7571   -6.9019    2.1950 H   0  0  0  0  0  0  0  0  0  0  0  0
    0.1364  -11.5656   -3.9799 H   0  0  0  0  0  0  0  0  0  0  0  0
   -4.3128   -1.5435   -1.1994 H   0  0  0  0  0  0  0  0  0  0  0  0
   -3.1671  -15.0156   -0.3851 H   0  0  0  0  0  0  0  0  0  0  0  0
   -1.9377    0.1886   -2.0089 H   0  0  0  0  0  0  0  0  0  0  0  0
   -3.4831    0.7459   -1.3773 H   0  0  0  0  0  0  0  0  0  0  0  0
   -3.2663   -2.4910   -3.0694 H   0  0  0  0  0  0  0  0  0  0  0  0
    0.6815  -14.1613   -3.3237 H   0  0  0  0  0  0  0  0  0  0  0  0
   -0.4704  -16.5775    1.4892 H   0  0  0  0  0  0  0  0  0  0  0  0
    0.6605  -16.9874   -0.2581 H   0  0  0  0  0  0  0  0  0  0  0  0
   -2.8071   -9.6467   -1.5189 H   0  0  0  0  0  0  0  0  0  0  0  0
   -3.1094   -0.6473   -4.0866 H   0  0  0  0  0  0  0  0  0  0  0  0
   -0.9655   -1.8417   -3.0051 H   0  0  0  0  0  0  0  0  0  0  0  0
   -1.1896   -3.5968   -3.0567 H   0  0  0  0  0  0  0  0  0  0  0  0
   -0.7663   -2.8200   -1.5260 H   0  0  0  0  0  0  0  0  0  0  0  0
   -2.0016    1.5533   -4.1055 H   0  0  0  0  0  0  0  0  0  0  0  0
   -3.4491    1.5851   -5.1170 H   0  0  0  0  0  0  0  0  0  0  0  0
   -3.4824    2.3304   -3.5079 H   0  0  0  0  0  0  0  0  0  0  0  0
   -5.4272   -0.9818   -3.2548 H   0  0  0  0  0  0  0  0  0  0  0  0
   -5.4260    0.1516   -4.6040 H   0  0  0  0  0  0  0  0  0  0  0  0
   -5.5901    0.7600   -2.9451 H   0  0  0  0  0  0  0  0  0  0  0  0
    1.7413  -15.9977   -3.4670 H   0  0  0  0  0  0  0  0  0  0  0  0
  1  2  1  0  0  0  0 
  2  4  2  0  0  0  0 
  2  5  1  0  0  0  0 
  3  1  1  0  0  0  0 
  6  3  1  0  0  0  0 
  3  7  1  0  0  0  0 
  4  8  1  0  0  0  0 
  4  9  1  0  0  0  0 
  5 10  2  0  0  0  0 
  5 11  1  0  0  0  0 
  6 12  1  0  0  0  0 
 13  6  1  0  0  0  0 
 14  7  1  0  0  0  0 
  8 15  2  0  0  0  0 
  9 16  1  0  0  0  0 
 10 15  1  0  0  0  0 
 11 17  1  0  0  0  0 
 18 12  1  0  0  0  0 
 13 19  1  0  0  0  0 
 20 13  1  0  0  0  0 
 20 14  1  0  0  0  0 
 14 21  1  0  0  0  0 
 22 15  1  0  0  0  0 
 16 23  2  0  0  0  0 
 16 24  1  0  0  0  0 
 17 25  2  0  0  0  0 
 17 26  1  0  0  0  0 
 18 27  1  0  0  0  0 
 18 28  1  0  0  0  0 
 18105  1  0  0  0  0 
 20 29  1  0  0  0  0 
 21 30  1  0  0  0  0 
 22 31  1  0  0  0  0 
 22 32  1  0  0  0  0 
 22102  1  0  0  0  0 
 23 33  1  0  0  0  0 
 23 34  1  0  0  0  0 
 24 35  2  0  0  0  0 
 25 36  1  0  0  0  0 
 25 37  1  0  0  0  0 
 26 38  2  0  0  0  0 
 39 27  1  0  0  0  0 
 40 28  1  0  0  0  0 
 31 41  2  0  0  0  0 
 31 42  1  0  0  0  0 
 32 43  1  0  0  0  0 
 34 44  2  0  0  0  0 
 35 44  1  0  0  0  0 
 37 45  2  0  0  0  0 
 38 45  1  0  0  0  0 
 39 46  1  0  0  0  0 
 39 47  1  0  0  0  0 
 48 39  1  0  0  0  0 
 48 40  1  0  0  0  0 
 40 49  1  0  0  0  0 
 50 42  1  0  0  0  0 
 43 51  2  0  0  0  0 
 52 43  1  0  0  0  0 
 53 44  1  0  0  0  0 
 54 45  1  0  0  0  0 
 48 55  1  0  0  0  0 
 50 56  1  0  0  0  0 
 50 57  1  0  0  0  0 
 50103  1  0  0  0  0 
 52 58  1  0  0  0  0 
 52 59  1  0  0  0  0 
 53 60  1  0  0  0  0 
 61 53  1  0  0  0  0 
 54 62  1  0  0  0  0 
 63 54  1  0  0  0  0 
 56 64  2  0  0  0  0 
 56 65  1  0  0  0  0 
 57 66  2  0  0  0  0 
 57 67  1  0  0  0  0 
 58 68  1  0  0  0  0 
 59 69  1  0  0  0  0 
 61 67  1  0  0  0  0 
 61 70  1  0  0  0  0 
 61104  1  0  0  0  0 
 63 69  1  0  0  0  0 
 63 71  1  0  0  0  0 
 64 72  1  0  0  0  0 
 65 73  2  0  0  0  0 
 68 74  1  0  0  0  0 
 68 75  2  0  0  0  0 
 69 76  2  0  0  0  0 
 70 77  2  0  0  0  0 
 70 78  1  0  0  0  0 
 71 79  1  0  0  0  0 
 72 80  1  0  0  0  0 
 72 81  2  0  0  0  0 
 73 81  1  0  0  0  0 
 82 78  1  0  0  0  0 
 83 79  1  0  0  0  0 
 79 84  2  0  0  0  0 
 80 85  2  0  0  0  0 
 80 86  1  0  0  0  0 
 81 87  1  0  0  0  0 
 82 85  1  0  0  0  0 
 82 88  1  0  0  0  0 
 82106  1  0  0  0  0 
 83 89  1  0  0  0  0 
 83 90  1  0  0  0  0 
 85 91  1  0  0  0  0 
 86 92  1  0  0  0  0 
 86 93  2  0  0  0  0 
 88 94  1  0  0  0  0 
 88 95  2  0  0  0  0 
 89 96  1  0  0  0  0 
 90 97  1  0  0  0  0 
 91 98  2  0  0  0  0 
 93 98  1  0  0  0  0 
 96 99  1  0  0  0  0 
 96100  1  0  0  0  0 
 98101  1  0  0  0  0 
  3107  1  0  0  0  0 
  6108  1  0  0  0  0 
  8109  1  0  0  0  0 
 10110  1  0  0  0  0 
 13111  1  0  0  0  0 
 14112  1  0  0  0  0 
 19113  1  0  0  0  0 
 20114  1  0  0  0  0 
 21115  1  0  0  0  0 
 21116  1  0  0  0  0 
 24117  1  0  0  0  0 
 26118  1  0  0  0  0 
 27119  1  0  0  0  0 
 27120  1  0  0  0  0 
 29121  1  0  0  0  0 
 30122  1  0  0  0  0 
 32123  1  0  0  0  0 
 34124  1  0  0  0  0 
 35125  1  0  0  0  0 
 37126  1  0  0  0  0 
 38127  1  0  0  0  0 
 40128  1  0  0  0  0 
 42129  1  0  0  0  0 
 46130  1  0  0  0  0 
 46131  1  0  0  0  0 
 46132  1  0  0  0  0 
 47133  1  0  0  0  0 
 47134  1  0  0  0  0 
 48135  1  0  0  0  0 
 49136  1  0  0  0  0 
 49137  1  0  0  0  0 
 49138  1  0  0  0  0 
 52139  1  0  0  0  0 
 53140  1  0  0  0  0 
 54141  1  0  0  0  0 
 55142  1  0  0  0  0 
 58143  1  0  0  0  0 
 58144  1  0  0  0  0 
 59145  1  0  0  0  0 
 60146  1  0  0  0  0 
 62147  1  0  0  0  0 
 63148  1  0  0  0  0 
 64149  1  0  0  0  0 
 65150  1  0  0  0  0 
 67151  1  0  0  0  0 
 71152  1  0  0  0  0 
 73153  1  0  0  0  0 
 74154  1  0  0  0  0 
 74155  1  0  0  0  0 
 78156  1  0  0  0  0 
 83157  1  0  0  0  0 
 87158  1  0  0  0  0 
 89159  1  0  0  0  0 
 89160  1  0  0  0  0 
 90161  1  0  0  0  0 
 91162  1  0  0  0  0 
 92163  1  0  0  0  0 
 93164  1  0  0  0  0 
 94165  1  0  0  0  0 
 96166  1  0  0  0  0 
 97167  1  0  0  0  0 
 97168  1  0  0  0  0 
 97169  1  0  0  0  0 
 99170  1  0  0  0  0 
 99171  1  0  0  0  0 
 99172  1  0  0  0  0 
100173  1  0  0  0  0 
100174  1  0  0  0  0 
100175  1  0  0  0  0 
101176  1  0  0  0  0 
M  END
> <cdk:Title>
vancomycin

> <Conformer>
1

> <SuperDrugID>
SD002532

$$$$
