desflurane
  CDK     0628171802

 12 11  0  0  0  0  0  0  0  0999 V2000
   -1.0318    0.3564   -0.0575 C   0  0  1  0  0  0  0  0  0  0  0  0
    0.2064   -0.2535    0.3698 O   0  0  0  0  0  0  0  0  0  0  0  0
   -2.1686   -0.6941   -0.0409 C   0  0  2  0  0  0  0  0  0  0  0  0
   -1.3651    1.3962    0.7833 F   0  0  0  0  0  0  0  0  0  0  0  0
    1.3847    0.5699    0.2610 C   0  0  1  0  0  0  0  0  0  0  0  0
   -3.3552   -0.1300   -0.4467 F   0  0  0  0  0  0  0  0  0  0  0  0
   -2.3431   -1.2093    1.2214 F   0  0  0  0  0  0  0  0  0  0  0  0
   -1.8877   -1.7348   -0.8934 F   0  0  0  0  0  0  0  0  0  0  0  0
    2.4051   -0.0728    0.9114 F   0  0  0  0  0  0  0  0  0  0  0  0
    1.7656    0.7492   -1.0471 F   0  0  0  0  0  0  0  0  0  0  0  0
   -0.9336    0.7496   -1.0731 H   0  0  0  0  0  0  0  0  0  0  0  0
    1.2534    1.5445    0.7358 H   0  0  0  0  0  0  0  0  0  0  0  0
  1  2  1  0  0  0  0 
  1  3  1  0  0  0  0 
  1  4  1  0  0  0  0 
  2  5  1  0  0  0  0 
  3  6  1  0  0  0  0 
  3  7  1  0  0  0  0 
  3  8  1  0  0  0  0 
  5  9  1  0  0  0  0 
  5 10  1  0  0  0  0 
  1 11  1  0  0  0  0 
  5 12  1  0  0  0  0 
M  END
> <cdk:Title>
desflurane

> <Conformer>
1

> <SuperDrugID>
SD000716

$$$$
