nicergoline
  CDK     0628171801

 57 61  0  0  0  0  0  0  0  0999 V2000
    1.7579   -5.7769    0.7437 O   0  0  0  0  0  0  0  0  0  0  0  0
    2.6124   -6.9341    0.8585 C   0  0  0  0  0  0  0  0  0  0  0  0
    0.5392   -5.8026   -0.0535 C   0  0  1  0  0  0  0  0  0  0  0  0
    0.7831   -6.4681   -1.3891 C   0  0  0  0  0  0  0  0  0  0  0  0
   -0.6957   -6.4807    0.6913 C   0  0  1  0  0  0  0  0  0  0  0  0
    0.1615   -4.2820   -0.2233 C   0  0  1  0  0  0  0  0  0  0  0  0
    0.3380   -7.7920   -1.5629 C   0  0  0  0  0  0  0  0  0  0  0  0
    1.4908   -5.9067   -2.4834 C   0  0  0  0  0  0  0  0  0  0  0  0
   -0.7489   -8.0512    0.6850 C   0  0  1  0  0  0  0  0  0  0  0  0
   -1.0123   -5.8408    2.0118 N   0  0  1  0  0  0  0  0  0  0  0  0
   -0.2801   -3.5708    1.1003 C   0  0  2  0  0  0  0  0  0  0  0  0
   -0.3458   -8.5619   -0.6421 C   0  0  0  0  0  0  0  0  0  0  0  0
    0.5373   -8.5454   -2.7111 C   0  0  0  0  0  0  0  0  0  0  0  0
    1.6749   -6.6329   -3.6837 C   0  0  0  0  0  0  0  0  0  0  0  0
   -0.1081   -6.1025    3.1723 C   0  0  0  0  0  0  0  0  0  0  0  0
   -1.3743   -4.3986    1.8436 C   0  0  1  0  0  0  0  0  0  0  0  0
   -0.7831   -2.1166    0.8610 C   0  0  2  0  0  0  0  0  0  0  0  0
   -0.5337   -9.7993   -1.2565 C   0  0  0  0  0  0  0  0  0  0  0  0
    0.0033   -9.7735   -2.5048 N   0  0  0  0  0  0  0  0  0  0  0  0
    1.2049   -7.9599   -3.8057 C   0  0  0  0  0  0  0  0  0  0  0  0
    0.2721   -1.2201    0.4757 O   0  0  0  0  0  0  0  0  0  0  0  0
    0.0034  -10.8541   -3.4427 C   0  0  0  0  0  0  0  0  0  0  0  0
    0.1101    0.1177    0.2119 C   0  0  0  0  0  0  0  0  0  0  0  0
   -1.0473    0.6045    0.2575 O   0  0  0  0  0  0  0  0  0  0  0  0
    1.2158    0.9507   -0.1128 C   0  0  0  0  0  0  0  0  0  0  0  0
    1.0338    2.3057   -0.4879 C   0  0  0  0  0  0  0  0  0  0  0  0
    2.5461    0.4683   -0.0776 C   0  0  0  0  0  0  0  0  0  0  0  0
    2.1310    3.1230   -0.8132 C   0  0  0  0  0  0  0  0  0  0  0  0
    3.5882    1.2791   -0.3969 N   0  0  0  0  0  0  0  0  0  0  0  0
    1.8662    4.8973   -1.3053 Br  0  0  0  0  0  0  0  0  0  0  0  0
    3.4232    2.5751   -0.7605 C   0  0  0  0  0  0  0  0  0  0  0  0
   -1.5693   -6.2511    0.0603 H   0  0  0  0  0  0  0  0  0  0  0  0
    3.3569   -6.7316    1.6284 H   0  0  0  0  0  0  0  0  0  0  0  0
    3.1409   -7.1244   -0.0789 H   0  0  0  0  0  0  0  0  0  0  0  0
    2.0643   -7.8246    1.1509 H   0  0  0  0  0  0  0  0  0  0  0  0
    1.0186   -3.7325   -0.6220 H   0  0  0  0  0  0  0  0  0  0  0  0
   -0.6451   -4.1952   -0.9586 H   0  0  0  0  0  0  0  0  0  0  0  0
    1.8815   -4.9658   -2.4201 H   0  0  0  0  0  0  0  0  0  0  0  0
   -0.1026   -8.4943    1.4397 H   0  0  0  0  0  0  0  0  0  0  0  0
   -1.7725   -8.3771    0.8954 H   0  0  0  0  0  0  0  0  0  0  0  0
    0.5923   -3.5079    1.7570 H   0  0  0  0  0  0  0  0  0  0  0  0
    2.1619   -6.1924   -4.4672 H   0  0  0  0  0  0  0  0  0  0  0  0
    0.1159   -7.1616    3.2751 H   0  0  0  0  0  0  0  0  0  0  0  0
    0.8302   -5.5535    3.0940 H   0  0  0  0  0  0  0  0  0  0  0  0
   -0.6040   -5.7914    4.0943 H   0  0  0  0  0  0  0  0  0  0  0  0
   -2.3113   -4.3410    1.2817 H   0  0  0  0  0  0  0  0  0  0  0  0
   -1.5770   -3.9459    2.8172 H   0  0  0  0  0  0  0  0  0  0  0  0
   -1.2233   -1.7294    1.7839 H   0  0  0  0  0  0  0  0  0  0  0  0
   -1.5599   -2.1179    0.0905 H   0  0  0  0  0  0  0  0  0  0  0  0
   -1.0151  -10.5957   -0.8302 H   0  0  0  0  0  0  0  0  0  0  0  0
    1.3529   -8.4832   -4.6715 H   0  0  0  0  0  0  0  0  0  0  0  0
   -0.4467  -11.7561   -3.0246 H   0  0  0  0  0  0  0  0  0  0  0  0
    1.0254  -11.0957   -3.7390 H   0  0  0  0  0  0  0  0  0  0  0  0
   -0.5624  -10.5685   -4.3300 H   0  0  0  0  0  0  0  0  0  0  0  0
    0.0976    2.7146   -0.5331 H   0  0  0  0  0  0  0  0  0  0  0  0
    2.7516   -0.4953    0.1878 H   0  0  0  0  0  0  0  0  0  0  0  0
    4.2391    3.1438   -0.9940 H   0  0  0  0  0  0  0  0  0  0  0  0
  1  2  1  0  0  0  0 
  3  1  1  0  0  0  0 
  3  4  1  0  0  0  0 
  5  3  1  0  0  0  0 
  3  6  1  0  0  0  0 
  4  7  2  0  0  0  0 
  4  8  1  0  0  0  0 
  5  9  1  0  0  0  0 
  5 10  1  0  0  0  0 
  5 32  1  0  0  0  0 
 11  6  1  0  0  0  0 
  7 12  1  0  0  0  0 
  7 13  1  0  0  0  0 
  8 14  2  0  0  0  0 
  9 12  1  0  0  0  0 
 10 15  1  0  0  0  0 
 10 16  1  0  0  0  0 
 11 16  1  0  0  0  0 
 11 17  1  0  0  0  0 
 12 18  2  0  0  0  0 
 13 19  1  0  0  0  0 
 13 20  2  0  0  0  0 
 14 20  1  0  0  0  0 
 17 21  1  0  0  0  0 
 18 19  1  0  0  0  0 
 19 22  1  0  0  0  0 
 21 23  1  0  0  0  0 
 23 24  2  0  0  0  0 
 23 25  1  0  0  0  0 
 25 26  2  0  0  0  0 
 25 27  1  0  0  0  0 
 26 28  1  0  0  0  0 
 27 29  2  0  0  0  0 
 28 30  1  0  0  0  0 
 28 31  2  0  0  0  0 
 29 31  1  0  0  0  0 
  2 33  1  0  0  0  0 
  2 34  1  0  0  0  0 
  2 35  1  0  0  0  0 
  6 36  1  0  0  0  0 
  6 37  1  0  0  0  0 
  8 38  1  0  0  0  0 
  9 39  1  0  0  0  0 
  9 40  1  0  0  0  0 
 11 41  1  0  0  0  0 
 14 42  1  0  0  0  0 
 15 43  1  0  0  0  0 
 15 44  1  0  0  0  0 
 15 45  1  0  0  0  0 
 16 46  1  0  0  0  0 
 16 47  1  0  0  0  0 
 17 48  1  0  0  0  0 
 17 49  1  0  0  0  0 
 18 50  1  0  0  0  0 
 20 51  1  0  0  0  0 
 22 52  1  0  0  0  0 
 22 53  1  0  0  0  0 
 22 54  1  0  0  0  0 
 26 55  1  0  0  0  0 
 27 56  1  0  0  0  0 
 31 57  1  0  0  0  0 
M  END
> <cdk:Title>
nicergoline

> <Conformer>
1

> <SuperDrugID>
SD001705

$$$$
