lusutrombopag
  CDK     0628171802

 71 73  0  0  0  0  0  0  0  0999 V2000
   -1.0834    0.4253   -9.3219 C   0  0  0  0  0  0  0  0  0  0  0  0
   -1.4815   -0.0052   -8.0500 C   0  0  0  0  0  0  0  0  0  0  0  0
   -0.9913    0.6437   -6.9100 C   0  0  0  0  0  0  0  0  0  0  0  0
   -0.0710    1.7165   -7.0122 C   0  0  0  0  0  0  0  0  0  0  0  0
    0.2647    2.2035   -8.3129 C   0  0  0  0  0  0  0  0  0  0  0  0
   -0.2280    1.5405   -9.4738 C   0  0  0  0  0  0  0  0  0  0  0  0
    0.5260    2.2531   -5.7444 C   0  0  2  0  0  0  0  0  0  0  0  0
    1.1209    3.2681   -8.4697 O   0  0  0  0  0  0  0  0  0  0  0  0
    0.4871    4.5612   -8.4006 C   0  0  0  0  0  0  0  0  0  0  0  0
    0.0839    1.9481  -10.7961 C   0  0  0  0  0  0  0  0  0  0  0  0
    1.3542    1.1429   -5.0272 C   0  0  0  0  0  0  0  0  0  0  0  0
   -0.5641    2.7462   -4.9284 O   0  0  0  0  0  0  0  0  0  0  0  0
   -0.2163    3.5764   -3.8032 C   0  0  1  0  0  0  0  0  0  0  0  0
   -1.4878    3.8632   -2.9688 C   0  0  1  0  0  0  0  0  0  0  0  0
   -1.1644    4.5872   -1.6338 C   0  0  2  0  0  0  0  0  0  0  0  0
   -2.4205    4.7870   -0.7410 C   0  0  1  0  0  0  0  0  0  0  0  0
   -2.1146    5.2866    0.6978 C   0  0  1  0  0  0  0  0  0  0  0  0
   -1.5565    6.7272    0.7817 C   0  0  0  0  0  0  0  0  0  0  0  0
   -0.2476    3.1845  -11.2624 N   0  0  0  0  0  0  0  0  0  0  0  0
   -0.0385    3.4496  -12.5743 C   0  0  0  0  0  0  0  0  0  0  0  0
    0.6968    2.0096  -13.2528 S   0  0  0  0  0  0  0  0  0  0  0  0
    0.6477    1.0955  -11.7580 C   0  0  0  0  0  0  0  0  0  0  0  0
   -0.4654    4.5315  -13.2749 N   0  0  0  0  0  0  0  0  0  0  0  0
   -0.8477    5.7237  -12.7356 C   0  0  0  0  0  0  0  0  0  0  0  0
   -1.6500    6.6492  -13.4590 C   0  0  0  0  0  0  0  0  0  0  0  0
   -0.5390    6.0012  -11.5512 O   0  0  0  0  0  0  0  0  0  0  0  0
   -2.5851    6.1780  -14.4086 C   0  0  0  0  0  0  0  0  0  0  0  0
   -3.5474    7.0311  -14.9808 C   0  0  0  0  0  0  0  0  0  0  0  0
   -3.5649    8.4137  -14.6570 C   0  0  0  0  0  0  0  0  0  0  0  0
   -2.5693    8.9135  -13.7795 C   0  0  0  0  0  0  0  0  0  0  0  0
   -1.5965    8.0352  -13.1710 C   0  0  0  0  0  0  0  0  0  0  0  0
   -4.5753    9.2550  -15.1187 C   0  0  0  0  0  0  0  0  0  0  0  0
   -4.8084    9.6564  -16.3925 C   0  0  0  0  0  0  0  0  0  0  0  0
   -5.9287   10.4514  -16.6911 C   0  0  0  0  0  0  0  0  0  0  0  0
   -3.9251    9.3002  -17.5060 C   0  0  0  0  0  0  0  0  0  0  0  0
   -6.1180   10.9978  -17.9180 O   0  0  0  0  0  0  0  0  0  0  0  0
   -6.8319   10.7058  -15.8597 O   0  0  0  0  0  0  0  0  0  0  0  0
   -2.4467   10.5557  -13.3671 Cl  0  0  0  0  0  0  0  0  0  0  0  0
   -4.6973    6.3099  -16.0063 Cl  0  0  0  0  0  0  0  0  0  0  0  0
   -1.4394   -0.0796  -10.1391 H   0  0  0  0  0  0  0  0  0  0  0  0
   -2.1229   -0.7964   -7.9533 H   0  0  0  0  0  0  0  0  0  0  0  0
   -1.3043    0.3114   -5.9950 H   0  0  0  0  0  0  0  0  0  0  0  0
    1.2114    3.0764   -5.9652 H   0  0  0  0  0  0  0  0  0  0  0  0
    1.2424    5.3127   -8.6316 H   0  0  0  0  0  0  0  0  0  0  0  0
   -0.3218    4.6629   -9.1244 H   0  0  0  0  0  0  0  0  0  0  0  0
    0.0956    4.7652   -7.4027 H   0  0  0  0  0  0  0  0  0  0  0  0
    1.9612    1.5655   -4.2276 H   0  0  0  0  0  0  0  0  0  0  0  0
    0.6998    0.3868   -4.5895 H   0  0  0  0  0  0  0  0  0  0  0  0
    2.0304    0.6498   -5.7284 H   0  0  0  0  0  0  0  0  0  0  0  0
    0.5091    3.0694   -3.1651 H   0  0  0  0  0  0  0  0  0  0  0  0
    0.2161    4.5179   -4.1527 H   0  0  0  0  0  0  0  0  0  0  0  0
   -2.1768    4.4765   -3.5582 H   0  0  0  0  0  0  0  0  0  0  0  0
   -1.9812    2.9096   -2.7559 H   0  0  0  0  0  0  0  0  0  0  0  0
   -0.7229    5.5606   -1.8647 H   0  0  0  0  0  0  0  0  0  0  0  0
   -0.4242    3.9980   -1.0852 H   0  0  0  0  0  0  0  0  0  0  0  0
   -3.1063    5.4837   -1.2306 H   0  0  0  0  0  0  0  0  0  0  0  0
   -2.9417    3.8306   -0.6458 H   0  0  0  0  0  0  0  0  0  0  0  0
   -3.0446    5.2502    1.2723 H   0  0  0  0  0  0  0  0  0  0  0  0
   -1.4130    4.5985    1.1774 H   0  0  0  0  0  0  0  0  0  0  0  0
   -1.4569    7.0200    1.8292 H   0  0  0  0  0  0  0  0  0  0  0  0
   -0.5748    6.7939    0.3102 H   0  0  0  0  0  0  0  0  0  0  0  0
   -2.2350    7.4266    0.2901 H   0  0  0  0  0  0  0  0  0  0  0  0
    0.9415    0.1268  -11.6336 H   0  0  0  0  0  0  0  0  0  0  0  0
   -0.5667    4.4191  -14.2319 H   0  0  0  0  0  0  0  0  0  0  0  0
   -2.5993    5.1864  -14.6592 H   0  0  0  0  0  0  0  0  0  0  0  0
   -0.8161    8.3340  -12.4889 H   0  0  0  0  0  0  0  0  0  0  0  0
   -5.1831    9.5795  -14.4004 H   0  0  0  0  0  0  0  0  0  0  0  0
   -4.4790    8.7198  -18.2453 H   0  0  0  0  0  0  0  0  0  0  0  0
   -3.0591    8.7076  -17.2135 H   0  0  0  0  0  0  0  0  0  0  0  0
   -3.5444   10.2072  -17.9790 H   0  0  0  0  0  0  0  0  0  0  0  0
   -6.9065   11.5573  -18.0898 H   0  0  0  0  0  0  0  0  0  0  0  0
  1  2  2  0  0  0  0 
  1  6  1  0  0  0  0 
  2  3  1  0  0  0  0 
  3  4  2  0  0  0  0 
  4  5  1  0  0  0  0 
  5  6  2  0  0  0  0 
  4  7  1  0  0  0  0 
  5  8  1  0  0  0  0 
  8  9  1  0  0  0  0 
  6 10  1  0  0  0  0 
  7 11  1  0  0  0  0 
  7 12  1  0  0  0  0 
 12 13  1  0  0  0  0 
 13 14  1  0  0  0  0 
 14 15  1  0  0  0  0 
 15 16  1  0  0  0  0 
 16 17  1  0  0  0  0 
 17 18  1  0  0  0  0 
 19 20  2  0  0  0  0 
 20 21  1  0  0  0  0 
 21 22  1  0  0  0  0 
 10 19  1  0  0  0  0 
 10 22  2  0  0  0  0 
 20 23  1  0  0  0  0 
 23 24  1  0  0  0  0 
 24 25  1  0  0  0  0 
 24 26  2  0  0  0  0 
 27 28  1  0  0  0  0 
 28 29  2  0  0  0  0 
 29 30  1  0  0  0  0 
 30 31  2  0  0  0  0 
 25 27  2  0  0  0  0 
 25 31  1  0  0  0  0 
 29 32  1  0  0  0  0 
 32 33  2  0  0  0  0 
 33 34  1  0  0  0  0 
 33 35  1  0  0  0  0 
 34 36  1  0  0  0  0 
 34 37  2  0  0  0  0 
 30 38  1  0  0  0  0 
 28 39  1  0  0  0  0 
  1 40  1  0  0  0  0 
  2 41  1  0  0  0  0 
  3 42  1  0  0  0  0 
  7 43  1  0  0  0  0 
  9 44  1  0  0  0  0 
  9 45  1  0  0  0  0 
  9 46  1  0  0  0  0 
 11 47  1  0  0  0  0 
 11 48  1  0  0  0  0 
 11 49  1  0  0  0  0 
 13 50  1  0  0  0  0 
 13 51  1  0  0  0  0 
 14 52  1  0  0  0  0 
 14 53  1  0  0  0  0 
 15 54  1  0  0  0  0 
 15 55  1  0  0  0  0 
 16 56  1  0  0  0  0 
 16 57  1  0  0  0  0 
 17 58  1  0  0  0  0 
 17 59  1  0  0  0  0 
 18 60  1  0  0  0  0 
 18 61  1  0  0  0  0 
 18 62  1  0  0  0  0 
 22 63  1  0  0  0  0 
 23 64  1  0  0  0  0 
 27 65  1  0  0  0  0 
 31 66  1  0  0  0  0 
 32 67  1  0  0  0  0 
 35 68  1  0  0  0  0 
 35 69  1  0  0  0  0 
 35 70  1  0  0  0  0 
 36 71  1  0  0  0  0 
M  END
> <cdk:Title>
lusutrombopag

> <Conformer>
1

> <SuperDrugID>
SD003891

$$$$
