mefruside
  CDK     0628171801

 42 43  0  0  0  0  0  0  0  0999 V2000
   -1.5322    3.4806    1.4118 C   0  0  1  0  0  0  0  0  0  0  0  0
   -2.1666    2.9419    2.6604 N   0  0  2  0  0  0  0  0  0  0  0  0
   -0.5006    2.5395    0.6904 C   0  0  2  0  0  0  0  0  0  0  0  0
   -3.3822    1.6639    2.4096 S   0  0  1  0  0  0  0  0  0  0  0  0
   -2.6706    4.0035    3.5757 C   0  0  0  0  0  0  0  0  0  0  0  0
    0.5026    1.9460    1.7234 C   0  0  0  0  0  0  0  0  0  0  0  0
    0.2506    3.2720   -0.4599 C   0  0  2  0  0  0  0  0  0  0  0  0
   -1.1578    1.4635   -0.0006 O   0  0  0  0  0  0  0  0  0  0  0  0
   -4.5524    1.7939    3.5028 O   0  0  0  0  0  0  0  0  0  0  0  0
   -4.0690    1.8199    0.9684 O   0  0  0  0  0  0  0  0  0  0  0  0
   -2.6361    0.0648    2.5953 C   0  0  0  0  0  0  0  0  0  0  0  0
   -0.6822    3.1370   -1.6673 C   0  0  2  0  0  0  0  0  0  0  0  0
   -1.5505    1.9206   -1.3056 C   0  0  1  0  0  0  0  0  0  0  0  0
   -2.1297   -0.3300    3.8511 C   0  0  0  0  0  0  0  0  0  0  0  0
   -2.5510   -0.8286    1.5109 C   0  0  0  0  0  0  0  0  0  0  0  0
   -1.5385   -1.6011    4.0332 C   0  0  0  0  0  0  0  0  0  0  0  0
   -1.9537   -2.0888    1.6736 C   0  0  0  0  0  0  0  0  0  0  0  0
   -0.9245   -2.0402    5.6405 S   0  0  1  0  0  0  0  0  0  0  0  0
   -1.4468   -2.4829    2.9270 C   0  0  0  0  0  0  0  0  0  0  0  0
   -1.5965   -3.5827    6.1524 N   0  0  2  0  0  0  0  0  0  0  0  0
    0.6734   -2.1717    5.6025 O   0  0  0  0  0  0  0  0  0  0  0  0
   -1.3273   -0.9488    6.7446 O   0  0  0  0  0  0  0  0  0  0  0  0
   -0.7430   -4.0235    3.0299 Cl  0  0  0  0  0  0  0  0  0  0  0  0
   -2.3195    3.7959    0.7218 H   0  0  0  0  0  0  0  0  0  0  0  0
   -0.9710    4.3854    1.6654 H   0  0  0  0  0  0  0  0  0  0  0  0
   -3.5623    4.4852    3.1659 H   0  0  0  0  0  0  0  0  0  0  0  0
   -1.9107    4.7693    3.7480 H   0  0  0  0  0  0  0  0  0  0  0  0
   -2.9142    3.5754    4.5507 H   0  0  0  0  0  0  0  0  0  0  0  0
    1.0090    2.7445    2.2721 H   0  0  0  0  0  0  0  0  0  0  0  0
   -0.0138    1.3084    2.4407 H   0  0  0  0  0  0  0  0  0  0  0  0
    1.2572    1.3351    1.2259 H   0  0  0  0  0  0  0  0  0  0  0  0
    1.1969    2.7736   -0.6940 H   0  0  0  0  0  0  0  0  0  0  0  0
    0.4620    4.3201   -0.2298 H   0  0  0  0  0  0  0  0  0  0  0  0
   -0.1157    2.9741   -2.5871 H   0  0  0  0  0  0  0  0  0  0  0  0
   -1.3005    4.0315   -1.7767 H   0  0  0  0  0  0  0  0  0  0  0  0
   -1.4109    1.1128   -2.0263 H   0  0  0  0  0  0  0  0  0  0  0  0
   -2.6069    2.1981   -1.2973 H   0  0  0  0  0  0  0  0  0  0  0  0
   -2.1953    0.3199    4.6382 H   0  0  0  0  0  0  0  0  0  0  0  0
   -2.9228   -0.5681    0.5969 H   0  0  0  0  0  0  0  0  0  0  0  0
   -1.8917   -2.7168    0.8701 H   0  0  0  0  0  0  0  0  0  0  0  0
   -1.3033   -3.7327    7.1191 H   0  0  0  0  0  0  0  0  0  0  0  0
   -1.1470   -4.3097    5.5923 H   0  0  0  0  0  0  0  0  0  0  0  0
  1  2  1  0  0  0  0 
  3  1  1  0  0  0  0 
  2  4  1  0  0  0  0 
  2  5  1  0  0  0  0 
  3  6  1  0  0  0  0 
  3  7  1  0  0  0  0 
  3  8  1  0  0  0  0 
  4  9  2  0  0  0  0 
  4 10  2  0  0  0  0 
  4 11  1  0  0  0  0 
  7 12  1  0  0  0  0 
  8 13  1  0  0  0  0 
 11 14  2  0  0  0  0 
 11 15  1  0  0  0  0 
 12 13  1  0  0  0  0 
 14 16  1  0  0  0  0 
 15 17  2  0  0  0  0 
 16 18  1  0  0  0  0 
 16 19  2  0  0  0  0 
 17 19  1  0  0  0  0 
 18 20  1  0  0  0  0 
 18 21  2  0  0  0  0 
 18 22  2  0  0  0  0 
 19 23  1  0  0  0  0 
  1 24  1  0  0  0  0 
  1 25  1  0  0  0  0 
  5 26  1  0  0  0  0 
  5 27  1  0  0  0  0 
  5 28  1  0  0  0  0 
  6 29  1  0  0  0  0 
  6 30  1  0  0  0  0 
  6 31  1  0  0  0  0 
  7 32  1  0  0  0  0 
  7 33  1  0  0  0  0 
 12 34  1  0  0  0  0 
 12 35  1  0  0  0  0 
 13 36  1  0  0  0  0 
 13 37  1  0  0  0  0 
 14 38  1  0  0  0  0 
 15 39  1  0  0  0  0 
 17 40  1  0  0  0  0 
 20 41  1  0  0  0  0 
 20 42  1  0  0  0  0 
M  END
> <cdk:Title>
mefruside

> <Conformer>
1

> <SuperDrugID>
SD001475

$$$$
