thioguanine
  CDK     0628171801

 16 17  0  0  0  0  0  0  0  0999 V2000
    1.5472   -0.4099    0.1278 N   0  0  0  0  0  0  0  0  0  0  0  0
    0.4435   -0.5037    0.8841 C   0  0  0  0  0  0  0  0  0  0  0  0
    0.4634   -1.2809    2.0030 N   0  0  0  0  0  0  0  0  0  0  0  0
   -0.6502   -1.3742    2.7702 C   0  0  0  0  0  0  0  0  0  0  0  0
   -1.8110   -0.6885    2.4345 C   0  0  0  0  0  0  0  0  0  0  0  0
   -2.7243   -0.9754    3.3671 N   0  0  0  0  0  0  0  0  0  0  0  0
   -2.1411   -1.8064    4.2499 C   0  0  0  0  0  0  0  0  0  0  0  0
   -0.8650   -2.0651    3.9004 N   0  0  0  0  0  0  0  0  0  0  0  0
   -1.8245    0.1152    1.2825 C   0  0  0  0  0  0  0  0  0  0  0  0
   -3.2325    1.0021    0.8043 S   0  0  0  0  0  0  0  0  0  0  0  0
   -0.6854    0.1815    0.5369 N   0  0  0  0  0  0  0  0  0  0  0  0
    2.3488   -0.8927    0.3868 H   0  0  0  0  0  0  0  0  0  0  0  0
    1.5492    0.1414   -0.6709 H   0  0  0  0  0  0  0  0  0  0  0  0
   -3.6367   -0.6471    3.4029 H   0  0  0  0  0  0  0  0  0  0  0  0
   -2.6028   -2.1918    5.0743 H   0  0  0  0  0  0  0  0  0  0  0  0
   -0.6755    0.7327   -0.2618 H   0  0  0  0  0  0  0  0  0  0  0  0
  1  2  1  0  0  0  0 
  2  3  2  0  0  0  0 
  3  4  1  0  0  0  0 
  4  5  2  0  0  0  0 
  5  6  1  0  0  0  0 
  6  7  1  0  0  0  0 
  7  8  2  0  0  0  0 
  4  8  1  0  0  0  0 
  5  9  1  0  0  0  0 
  9 10  2  0  0  0  0 
  9 11  1  0  0  0  0 
  2 11  1  0  0  0  0 
 12  1  1  0  0  0  0 
 13  1  1  0  0  0  0 
 14  6  1  0  0  0  0 
 15  7  1  0  0  0  0 
 16 11  1  0  0  0  0 
M  END
> <cdk:Title>
thioguanine

> <Conformer>
1

> <SuperDrugID>
SD002367

$$$$
