clobutinol
  CDK     0628171802

 39 39  0  0  0  0  0  0  0  0999 V2000
    1.6032   -0.8580    3.0006 C   0  0  2  0  0  0  0  0  0  0  0  0
    2.0545   -1.4853    1.6310 C   0  0  1  0  0  0  0  0  0  0  0  0
    1.2230   -1.8272    4.0756 C   0  0  0  0  0  0  0  0  0  0  0  0
    2.4760   -0.4183    0.5331 C   0  0  2  0  0  0  0  0  0  0  0  0
    0.0619   -2.6306    3.9627 C   0  0  0  0  0  0  0  0  0  0  0  0
    2.0153   -1.9646    5.2422 C   0  0  0  0  0  0  0  0  0  0  0  0
    3.7909    0.3770    0.8504 C   0  0  2  0  0  0  0  0  0  0  0  0
    1.3315    0.5682    0.1464 C   0  0  0  0  0  0  0  0  0  0  0  0
   -0.2719   -3.5708    4.9540 C   0  0  0  0  0  0  0  0  0  0  0  0
    1.6825   -2.8993    6.2394 C   0  0  0  0  0  0  0  0  0  0  0  0
    4.2832    1.3325   -0.2042 N   0  0  1  0  0  0  0  0  0  0  0  0
    0.5460   -3.7161    6.0893 C   0  0  0  0  0  0  0  0  0  0  0  0
    5.4160    2.1717    0.2922 C   0  0  0  0  0  0  0  0  0  0  0  0
    4.6196    0.6981   -1.5152 C   0  0  0  0  0  0  0  0  0  0  0  0
    0.1618   -4.8625    7.2715 Cl  0  0  0  0  0  0  0  0  0  0  0  0
    3.1708   -2.5574    1.8474 C   0  0  0  0  0  0  0  0  0  0  0  0
    0.9534   -2.2292    1.0931 O   0  0  0  0  0  0  0  0  0  0  0  0
    0.7449   -0.2032    2.8361 H   0  0  0  0  0  0  0  0  0  0  0  0
    2.4085   -0.2168    3.3647 H   0  0  0  0  0  0  0  0  0  0  0  0
    2.6760   -1.0015   -0.3691 H   0  0  0  0  0  0  0  0  0  0  0  0
   -0.5536   -2.5422    3.1525 H   0  0  0  0  0  0  0  0  0  0  0  0
    2.8498   -1.3891    5.3721 H   0  0  0  0  0  0  0  0  0  0  0  0
    4.5941   -0.3307    1.0599 H   0  0  0  0  0  0  0  0  0  0  0  0
    3.6139    0.9462    1.7661 H   0  0  0  0  0  0  0  0  0  0  0  0
    0.4199    0.0294   -0.1157 H   0  0  0  0  0  0  0  0  0  0  0  0
    1.6161    1.1597   -0.7253 H   0  0  0  0  0  0  0  0  0  0  0  0
    1.1085    1.2563    0.9635 H   0  0  0  0  0  0  0  0  0  0  0  0
   -1.1105   -4.1463    4.8407 H   0  0  0  0  0  0  0  0  0  0  0  0
    2.2744   -2.9838    7.0691 H   0  0  0  0  0  0  0  0  0  0  0  0
    5.1240    2.7087    1.1963 H   0  0  0  0  0  0  0  0  0  0  0  0
    5.6990    2.9224   -0.4498 H   0  0  0  0  0  0  0  0  0  0  0  0
    6.2912    1.5558    0.5176 H   0  0  0  0  0  0  0  0  0  0  0  0
    3.7267    0.2937   -1.9888 H   0  0  0  0  0  0  0  0  0  0  0  0
    5.0354    1.4266   -2.2142 H   0  0  0  0  0  0  0  0  0  0  0  0
    5.3452   -0.1075   -1.3928 H   0  0  0  0  0  0  0  0  0  0  0  0
    4.0099   -2.1415    2.4048 H   0  0  0  0  0  0  0  0  0  0  0  0
    2.7903   -3.4126    2.4099 H   0  0  0  0  0  0  0  0  0  0  0  0
    3.5391   -2.9304    0.8899 H   0  0  0  0  0  0  0  0  0  0  0  0
    0.1986   -1.6025    1.0566 H   0  0  0  0  0  0  0  0  0  0  0  0
  1  2  1  0  0  0  0 
  1  3  1  0  0  0  0 
  2  4  1  0  0  0  0 
  3  5  2  0  0  0  0 
  3  6  1  0  0  0  0 
  4  7  1  0  0  0  0 
  4  8  1  0  0  0  0 
  5  9  1  0  0  0  0 
  6 10  2  0  0  0  0 
  7 11  1  0  0  0  0 
  9 12  2  0  0  0  0 
 10 12  1  0  0  0  0 
 11 13  1  0  0  0  0 
 11 14  1  0  0  0  0 
 12 15  1  0  0  0  0 
  2 16  1  0  0  0  0 
  2 17  1  0  0  0  0 
  1 18  1  0  0  0  0 
  1 19  1  0  0  0  0 
  4 20  1  0  0  0  0 
  5 21  1  0  0  0  0 
  6 22  1  0  0  0  0 
  7 23  1  0  0  0  0 
  7 24  1  0  0  0  0 
  8 25  1  0  0  0  0 
  8 26  1  0  0  0  0 
  8 27  1  0  0  0  0 
  9 28  1  0  0  0  0 
 10 29  1  0  0  0  0 
 13 30  1  0  0  0  0 
 13 31  1  0  0  0  0 
 13 32  1  0  0  0  0 
 14 33  1  0  0  0  0 
 14 34  1  0  0  0  0 
 14 35  1  0  0  0  0 
 16 36  1  0  0  0  0 
 16 37  1  0  0  0  0 
 16 38  1  0  0  0  0 
 17 39  1  0  0  0  0 
M  END
> <cdk:Title>
clobutinol

> <Conformer>
1

> <SuperDrugID>
SD000604

$$$$
