methestrol
  CDK     0628171801

 48 49  0  0  0  0  0  0  0  0999 V2000
    1.1078    0.8404    0.9619 C   0  0  1  0  0  0  0  0  0  0  0  0
    1.9554    1.2531   -0.3099 C   0  0  2  0  0  0  0  0  0  0  0  0
   -0.0763   -0.1409    0.6457 C   0  0  1  0  0  0  0  0  0  0  0  0
    1.9833    0.2925    2.0582 C   0  0  0  0  0  0  0  0  0  0  0  0
    3.0394    2.3612   -0.0171 C   0  0  2  0  0  0  0  0  0  0  0  0
    1.1013    1.6908   -1.4700 C   0  0  0  0  0  0  0  0  0  0  0  0
   -0.9654   -0.5110    1.8590 C   0  0  0  0  0  0  0  0  0  0  0  0
    2.6931   -0.9254    1.9026 C   0  0  0  0  0  0  0  0  0  0  0  0
    2.1244    0.9857    3.2838 C   0  0  0  0  0  0  0  0  0  0  0  0
    4.4569    1.8399    0.3172 C   0  0  0  0  0  0  0  0  0  0  0  0
    1.1070    0.9682   -2.6894 C   0  0  0  0  0  0  0  0  0  0  0  0
    0.3024    2.8570   -1.3929 C   0  0  0  0  0  0  0  0  0  0  0  0
    3.5318   -1.4411    2.9203 C   0  0  0  0  0  0  0  0  0  0  0  0
    2.9473    0.4862    4.3060 C   0  0  0  0  0  0  0  0  0  0  0  0
    0.3672    1.3985   -3.8154 C   0  0  0  0  0  0  0  0  0  0  0  0
   -0.4428    3.2958   -2.4993 C   0  0  0  0  0  0  0  0  0  0  0  0
    4.2737   -2.7127    2.7230 C   0  0  0  0  0  0  0  0  0  0  0  0
    3.6496   -0.7204    4.1332 C   0  0  0  0  0  0  0  0  0  0  0  0
    0.4198    0.6402   -5.0902 C   0  0  0  0  0  0  0  0  0  0  0  0
   -0.4114    2.5767   -3.7065 C   0  0  0  0  0  0  0  0  0  0  0  0
    4.4300   -1.1473    5.1624 O   0  0  0  0  0  0  0  0  0  0  0  0
   -1.1456    3.0458   -4.7469 O   0  0  0  0  0  0  0  0  0  0  0  0
    0.6268    1.7578    1.3181 H   0  0  0  0  0  0  0  0  0  0  0  0
    2.4964    0.3548   -0.6252 H   0  0  0  0  0  0  0  0  0  0  0  0
   -0.7401    0.3181   -0.0915 H   0  0  0  0  0  0  0  0  0  0  0  0
    0.3109   -1.0600    0.2007 H   0  0  0  0  0  0  0  0  0  0  0  0
    2.7048    2.9996    0.8035 H   0  0  0  0  0  0  0  0  0  0  0  0
    3.1706    3.0191   -0.8840 H   0  0  0  0  0  0  0  0  0  0  0  0
   -0.3961   -1.0654    2.6065 H   0  0  0  0  0  0  0  0  0  0  0  0
   -1.7941   -1.1389    1.5299 H   0  0  0  0  0  0  0  0  0  0  0  0
   -1.3737    0.3923    2.3191 H   0  0  0  0  0  0  0  0  0  0  0  0
    2.6002   -1.4474    1.0291 H   0  0  0  0  0  0  0  0  0  0  0  0
    1.6298    1.8653    3.4430 H   0  0  0  0  0  0  0  0  0  0  0  0
    5.1202    2.6849    0.5122 H   0  0  0  0  0  0  0  0  0  0  0  0
    4.8635    1.2731   -0.5221 H   0  0  0  0  0  0  0  0  0  0  0  0
    4.4530    1.2032    1.1982 H   0  0  0  0  0  0  0  0  0  0  0  0
    1.6701    0.1177   -2.7626 H   0  0  0  0  0  0  0  0  0  0  0  0
    0.2659    3.4057   -0.5312 H   0  0  0  0  0  0  0  0  0  0  0  0
    3.0370    1.0058    5.1821 H   0  0  0  0  0  0  0  0  0  0  0  0
   -1.0090    4.1435   -2.4242 H   0  0  0  0  0  0  0  0  0  0  0  0
    5.3408   -2.5566    2.8953 H   0  0  0  0  0  0  0  0  0  0  0  0
    4.1561   -3.1105    1.7118 H   0  0  0  0  0  0  0  0  0  0  0  0
    3.9067   -3.4612    3.4278 H   0  0  0  0  0  0  0  0  0  0  0  0
   -0.5858    0.3459   -5.3958 H   0  0  0  0  0  0  0  0  0  0  0  0
    1.0221   -0.2680   -5.0103 H   0  0  0  0  0  0  0  0  0  0  0  0
    0.8567    1.2676   -5.8695 H   0  0  0  0  0  0  0  0  0  0  0  0
    4.7262   -2.0493    4.9292 H   0  0  0  0  0  0  0  0  0  0  0  0
   -1.6647    2.2776   -5.0571 H   0  0  0  0  0  0  0  0  0  0  0  0
  1  2  1  0  0  0  0 
  1  3  1  0  0  0  0 
  1  4  1  0  0  0  0 
  2  5  1  0  0  0  0 
  2  6  1  0  0  0  0 
  3  7  1  0  0  0  0 
  4  8  2  0  0  0  0 
  4  9  1  0  0  0  0 
  5 10  1  0  0  0  0 
  6 11  2  0  0  0  0 
  6 12  1  0  0  0  0 
  8 13  1  0  0  0  0 
  9 14  2  0  0  0  0 
 11 15  1  0  0  0  0 
 12 16  2  0  0  0  0 
 13 17  1  0  0  0  0 
 13 18  2  0  0  0  0 
 14 18  1  0  0  0  0 
 15 19  1  0  0  0  0 
 15 20  2  0  0  0  0 
 16 20  1  0  0  0  0 
 18 21  1  0  0  0  0 
 20 22  1  0  0  0  0 
  1 23  1  0  0  0  0 
  2 24  1  0  0  0  0 
  3 25  1  0  0  0  0 
  3 26  1  0  0  0  0 
  5 27  1  0  0  0  0 
  5 28  1  0  0  0  0 
  7 29  1  0  0  0  0 
  7 30  1  0  0  0  0 
  7 31  1  0  0  0  0 
  8 32  1  0  0  0  0 
  9 33  1  0  0  0  0 
 10 34  1  0  0  0  0 
 10 35  1  0  0  0  0 
 10 36  1  0  0  0  0 
 11 37  1  0  0  0  0 
 12 38  1  0  0  0  0 
 14 39  1  0  0  0  0 
 16 40  1  0  0  0  0 
 17 41  1  0  0  0  0 
 17 42  1  0  0  0  0 
 17 43  1  0  0  0  0 
 19 44  1  0  0  0  0 
 19 45  1  0  0  0  0 
 19 46  1  0  0  0  0 
 21 47  1  0  0  0  0 
 22 48  1  0  0  0  0 
M  END
> <cdk:Title>
methestrol

> <Conformer>
1

> <SuperDrugID>
SD002887

$$$$
