histidine
  CDK     0628171801

 20 20  0  0  0  0  0  0  0  0999 V2000
   -1.7775   -2.9718   -1.7332 N   0  0  2  0  0  0  0  0  0  0  0  0
   -1.0832   -1.7524   -1.2977 C   0  0  1  0  0  0  0  0  0  0  0  0
    0.3099   -2.1265   -0.7190 C   0  0  1  0  0  0  0  0  0  0  0  0
    1.0594   -0.9519   -0.2284 C   0  0  0  0  0  0  0  0  0  0  0  0
    1.9352   -0.1459   -0.9498 C   0  0  0  0  0  0  0  0  0  0  0  0
    2.3940    0.8276   -0.1492 N   0  0  0  0  0  0  0  0  0  0  0  0
    1.8165    0.6330    1.0477 C   0  0  0  0  0  0  0  0  0  0  0  0
    1.0125   -0.4387    1.0064 N   0  0  0  0  0  0  0  0  0  0  0  0
   -1.0099   -0.8212   -2.4449 C   0  0  0  0  0  0  0  0  0  0  0  0
   -1.5223    0.4280   -2.3471 O   0  0  0  0  0  0  0  0  0  0  0  0
   -0.4672   -1.1641   -3.5202 O   0  0  0  0  0  0  0  0  0  0  0  0
   -2.7115   -2.6906   -2.0378 H   0  0  0  0  0  0  0  0  0  0  0  0
   -1.9014   -3.5606   -0.9073 H   0  0  0  0  0  0  0  0  0  0  0  0
   -1.6821   -1.3002   -0.5006 H   0  0  0  0  0  0  0  0  0  0  0  0
    0.1747   -2.8168    0.1170 H   0  0  0  0  0  0  0  0  0  0  0  0
    0.9025   -2.6530   -1.4706 H   0  0  0  0  0  0  0  0  0  0  0  0
    2.1881   -0.2677   -1.9320 H   0  0  0  0  0  0  0  0  0  0  0  0
    1.9652    1.2198    1.8691 H   0  0  0  0  0  0  0  0  0  0  0  0
    0.4831   -0.7801    1.7442 H   0  0  0  0  0  0  0  0  0  0  0  0
   -1.4579    1.0484   -3.1033 H   0  0  0  0  0  0  0  0  0  0  0  0
  2  1  1  0  0  0  0 
  2  3  1  0  0  0  0 
  3  4  1  0  0  0  0 
  4  5  2  0  0  0  0 
  5  6  1  0  0  0  0 
  6  7  2  0  0  0  0 
  7  8  1  0  0  0  0 
  4  8  1  0  0  0  0 
  2  9  1  0  0  0  0 
  9 10  1  0  0  0  0 
  9 11  2  0  0  0  0 
 12  1  1  0  0  0  0 
 13  1  1  0  0  0  0 
  2 14  1  0  0  0  0 
 15  3  1  0  0  0  0 
 16  3  1  0  0  0  0 
 17  5  1  0  0  0  0 
 18  7  1  0  0  0  0 
 19  8  1  0  0  0  0 
 20 10  1  0  0  0  0 
M  END
> <cdk:Title>
histidine

> <Conformer>
1

> <SuperDrugID>
SD001223

$$$$
