ceftizoxime
  CDK     0628171802

 38 40  0  0  0  0  0  0  0  0999 V2000
    0.9139    0.3977   -3.7235 O   0  0  0  0  0  0  0  0  0  0  0  0
    2.0727    0.1882   -4.1483 C   0  0  0  0  0  0  0  0  0  0  0  0
    2.5723   -0.5570   -5.1451 N   0  0  0  0  0  0  0  0  0  0  0  0
    3.3817    0.6247   -3.6634 C   0  0  2  0  0  0  0  0  0  0  0  0
    3.9253   -0.2527   -4.8318 C   0  0  1  0  0  0  0  0  0  0  0  0
    2.0653   -1.3966   -6.0709 C   0  0  0  0  0  0  0  0  0  0  0  0
    3.6467    0.1633   -2.3367 N   0  0  0  0  0  0  0  0  0  0  0  0
    4.7197   -1.8609   -4.5121 S   0  0  0  0  0  0  0  0  0  0  0  0
    0.7871   -1.1846   -6.5952 C   0  0  0  0  0  0  0  0  0  0  0  0
    2.8247   -2.4411   -6.4818 C   0  0  0  0  0  0  0  0  0  0  0  0
    4.0580    0.9263   -1.2787 C   0  0  0  0  0  0  0  0  0  0  0  0
    4.1531   -2.7943   -5.9844 C   0  0  1  0  0  0  0  0  0  0  0  0
    0.1541   -2.1076   -7.3618 O   0  0  0  0  0  0  0  0  0  0  0  0
    0.1545   -0.1217   -6.3995 O   0  0  0  0  0  0  0  0  0  0  0  0
    4.2280    0.3610   -0.0071 C   0  0  0  0  0  0  0  0  0  0  0  0
    4.2575    2.1533   -1.4507 O   0  0  0  0  0  0  0  0  0  0  0  0
    4.2077    1.0605    1.0756 N   0  0  0  0  0  0  0  0  0  0  0  0
    4.4276   -1.0092    0.1706 C   0  0  0  0  0  0  0  0  0  0  0  0
    4.0457    2.3227    1.2113 O   0  0  0  0  0  0  0  0  0  0  0  0
    3.9847   -1.7287    1.2978 C   0  0  0  0  0  0  0  0  0  0  0  0
    5.0917   -1.7696   -0.7523 N   0  0  0  0  0  0  0  0  0  0  0  0
    3.8266    2.6330    2.5943 C   0  0  0  0  0  0  0  0  0  0  0  0
    4.4699   -3.3937    1.0480 S   0  0  0  0  0  0  0  0  0  0  0  0
    5.2401   -3.0870   -0.4961 C   0  0  0  0  0  0  0  0  0  0  0  0
    5.8617   -3.9856   -1.2717 N   0  0  0  0  0  0  0  0  0  0  0  0
    4.4198    0.3175   -5.6244 H   0  0  0  0  0  0  0  0  0  0  0  0
    3.5348    1.6946   -3.8352 H   0  0  0  0  0  0  0  0  0  0  0  0
    3.5057   -0.7821   -2.1739 H   0  0  0  0  0  0  0  0  0  0  0  0
    2.4729   -3.0463   -7.1900 H   0  0  0  0  0  0  0  0  0  0  0  0
    4.8759   -2.6395   -6.7879 H   0  0  0  0  0  0  0  0  0  0  0  0
    4.1629   -3.8550   -5.7246 H   0  0  0  0  0  0  0  0  0  0  0  0
   -0.7393   -1.9221   -7.7217 H   0  0  0  0  0  0  0  0  0  0  0  0
    3.4744   -1.3695    2.1053 H   0  0  0  0  0  0  0  0  0  0  0  0
    3.7976    3.7169    2.7122 H   0  0  0  0  0  0  0  0  0  0  0  0
    2.8687    2.2280    2.9307 H   0  0  0  0  0  0  0  0  0  0  0  0
    4.6308    2.2451    3.2261 H   0  0  0  0  0  0  0  0  0  0  0  0
    6.3032   -3.7017   -2.0870 H   0  0  0  0  0  0  0  0  0  0  0  0
    5.8690   -4.9204   -1.0166 H   0  0  0  0  0  0  0  0  0  0  0  0
  1  2  2  0  0  0  0 
  2  3  1  0  0  0  0 
  4  2  1  0  0  0  0 
  5  3  1  0  0  0  0 
  3  6  1  0  0  0  0 
  5  4  1  0  0  0  0 
  4  7  1  0  0  0  0 
  5  8  1  0  0  0  0 
  5 26  1  0  0  0  0 
  6  9  1  0  0  0  0 
  6 10  2  0  0  0  0 
  7 11  1  0  0  0  0 
  8 12  1  0  0  0  0 
  9 13  1  0  0  0  0 
  9 14  2  0  0  0  0 
 10 12  1  0  0  0  0 
 11 15  1  0  0  0  0 
 11 16  2  0  0  0  0 
 15 17  2  0  0  0  0 
 15 18  1  0  0  0  0 
 17 19  1  0  0  0  0 
 18 20  2  0  0  0  0 
 18 21  1  0  0  0  0 
 19 22  1  0  0  0  0 
 20 23  1  0  0  0  0 
 21 24  2  0  0  0  0 
 23 24  1  0  0  0  0 
 24 25  1  0  0  0  0 
  4 27  1  0  0  0  0 
  7 28  1  0  0  0  0 
 10 29  1  0  0  0  0 
 12 30  1  0  0  0  0 
 12 31  1  0  0  0  0 
 13 32  1  0  0  0  0 
 20 33  1  0  0  0  0 
 22 34  1  0  0  0  0 
 22 35  1  0  0  0  0 
 22 36  1  0  0  0  0 
 25 37  1  0  0  0  0 
 25 38  1  0  0  0  0 
M  END
> <cdk:Title>
ceftizoxime

> <Conformer>
1

> <SuperDrugID>
SD000490

$$$$
