mofebutazone
  CDK     0628171801

 33 34  0  0  0  0  0  0  0  0999 V2000
   -0.9806    0.7222   -2.7229 O   0  0  0  0  0  0  0  0  0  0  0  0
    0.1355    0.0462   -3.0972 C   0  0  0  0  0  0  0  0  0  0  0  0
    0.5565   -0.1618   -4.3673 N   0  0  0  0  0  0  0  0  0  0  0  0
    1.0973   -0.4686   -2.2297 C   0  0  0  0  0  0  0  0  0  0  0  0
    1.6648   -0.8378   -4.3207 N   0  0  0  0  0  0  0  0  0  0  0  0
    0.0066    0.3295   -5.5241 C   0  0  0  0  0  0  0  0  0  0  0  0
    1.1354   -0.3823   -0.7516 C   0  0  1  0  0  0  0  0  0  0  0  0
    2.0605   -1.0303   -3.0580 C   0  0  0  0  0  0  0  0  0  0  0  0
   -1.3946    0.4277   -5.7005 C   0  0  0  0  0  0  0  0  0  0  0  0
    0.8497    0.7791   -6.5702 C   0  0  0  0  0  0  0  0  0  0  0  0
    2.2412    0.5851   -0.2440 C   0  0  1  0  0  0  0  0  0  0  0  0
    3.1129   -1.6116   -2.7121 O   0  0  0  0  0  0  0  0  0  0  0  0
   -1.9352    0.9913   -6.8697 C   0  0  0  0  0  0  0  0  0  0  0  0
    0.3104    1.3427   -7.7404 C   0  0  0  0  0  0  0  0  0  0  0  0
    2.0131    2.0876   -0.5745 C   0  0  2  0  0  0  0  0  0  0  0  0
   -1.0831    1.4574   -7.8862 C   0  0  0  0  0  0  0  0  0  0  0  0
    0.8616    2.7587    0.2071 C   0  0  0  0  0  0  0  0  0  0  0  0
   -1.2891    0.2854   -1.9030 H   0  0  0  0  0  0  0  0  0  0  0  0
    2.1432   -1.1651   -5.0982 H   0  0  0  0  0  0  0  0  0  0  0  0
    0.1692   -0.0568   -0.3661 H   0  0  0  0  0  0  0  0  0  0  0  0
    1.3201   -1.3823   -0.3512 H   0  0  0  0  0  0  0  0  0  0  0  0
   -2.0349    0.0841   -4.9815 H   0  0  0  0  0  0  0  0  0  0  0  0
    1.8674    0.7150   -6.4799 H   0  0  0  0  0  0  0  0  0  0  0  0
    2.3364    0.4764    0.8388 H   0  0  0  0  0  0  0  0  0  0  0  0
    3.2000    0.2825   -0.6753 H   0  0  0  0  0  0  0  0  0  0  0  0
   -2.9485    1.0609   -6.9800 H   0  0  0  0  0  0  0  0  0  0  0  0
    0.9325    1.6709   -8.4821 H   0  0  0  0  0  0  0  0  0  0  0  0
    1.8293    2.2053   -1.6452 H   0  0  0  0  0  0  0  0  0  0  0  0
    2.9304    2.6291   -0.3334 H   0  0  0  0  0  0  0  0  0  0  0  0
   -1.4756    1.8844   -8.7273 H   0  0  0  0  0  0  0  0  0  0  0  0
    0.8449    3.8313   -0.0033 H   0  0  0  0  0  0  0  0  0  0  0  0
    0.9999    2.6196    1.2803 H   0  0  0  0  0  0  0  0  0  0  0  0
   -0.0986    2.3363   -0.0918 H   0  0  0  0  0  0  0  0  0  0  0  0
  1  2  1  0  0  0  0 
  2  3  1  0  0  0  0 
  2  4  2  0  0  0  0 
  3  5  1  0  0  0  0 
  3  6  1  0  0  0  0 
  4  7  1  0  0  0  0 
  4  8  1  0  0  0  0 
  5  8  1  0  0  0  0 
  6  9  2  0  0  0  0 
  6 10  1  0  0  0  0 
  7 11  1  0  0  0  0 
  8 12  2  0  0  0  0 
  9 13  1  0  0  0  0 
 10 14  2  0  0  0  0 
 11 15  1  0  0  0  0 
 13 16  2  0  0  0  0 
 14 16  1  0  0  0  0 
 15 17  1  0  0  0  0 
 18  1  1  0  0  0  0 
 19  5  1  0  0  0  0 
 20  7  1  0  0  0  0 
 21  7  1  0  0  0  0 
 22  9  1  0  0  0  0 
 23 10  1  0  0  0  0 
 24 11  1  0  0  0  0 
 25 11  1  0  0  0  0 
 26 13  1  0  0  0  0 
 27 14  1  0  0  0  0 
 28 15  1  0  0  0  0 
 29 15  1  0  0  0  0 
 30 16  1  0  0  0  0 
 31 17  1  0  0  0  0 
 32 17  1  0  0  0  0 
 33 17  1  0  0  0  0 
M  END
> <cdk:Title>
mofebutazone

> <Conformer>
1

> <SuperDrugID>
SD001627

$$$$
