nintedanib
  CDK     0628171802

 73 77  0  0  0  0  0  0  0  0999 V2000
   -1.5937   -2.7234   11.0603 C   0  0  0  0  0  0  0  0  0  0  0  0
   -2.6804   -2.6849   12.0205 C   0  0  0  0  0  0  0  0  0  0  0  0
   -2.8550   -1.6308   13.0507 C   0  0  0  0  0  0  0  0  0  0  0  0
   -1.7814   -0.6063   12.9940 C   0  0  0  0  0  0  0  0  0  0  0  0
   -0.6940   -0.6515   12.0406 C   0  0  0  0  0  0  0  0  0  0  0  0
   -0.6364   -1.6865   11.1031 C   0  0  0  0  0  0  0  0  0  0  0  0
    0.3494    0.1656   11.8747 N   0  0  0  0  0  0  0  0  0  0  0  0
    0.5311   -1.4965   10.2217 C   0  0  2  0  0  0  0  0  0  0  0  0
    1.1141   -0.2934   10.8661 C   0  0  0  0  0  0  0  0  0  0  0  0
   -3.9147   -1.6051   13.9756 C   0  0  0  0  0  0  0  0  0  0  0  0
   -3.9483   -0.7123   14.8557 O   0  0  0  0  0  0  0  0  0  0  0  0
   -4.9052   -2.5432   13.9064 O   0  0  0  0  0  0  0  0  0  0  0  0
   -6.0247   -2.6336   14.7916 C   0  0  0  0  0  0  0  0  0  0  0  0
    2.1855    0.2493   10.5131 O   0  0  0  0  0  0  0  0  0  0  0  0
    0.1536   -1.3153    8.8113 C   0  0  0  0  0  0  0  0  0  0  0  0
   -0.4494   -0.1296    8.4049 C   0  0  0  0  0  0  0  0  0  0  0  0
    0.3968   -2.3054    8.0197 N   0  0  0  0  0  0  0  0  0  0  0  0
    0.3288    0.9128    7.8483 C   0  0  0  0  0  0  0  0  0  0  0  0
   -0.2773    2.1264    7.4757 C   0  0  0  0  0  0  0  0  0  0  0  0
   -1.6594    2.3100    7.6625 C   0  0  0  0  0  0  0  0  0  0  0  0
   -2.4400    1.2761    8.2111 C   0  0  0  0  0  0  0  0  0  0  0  0
   -1.8412    0.0558    8.5686 C   0  0  0  0  0  0  0  0  0  0  0  0
    0.2311   -2.6083    6.7277 C   0  0  0  0  0  0  0  0  0  0  0  0
   -0.3721   -1.7975    5.7345 C   0  0  0  0  0  0  0  0  0  0  0  0
    0.7329   -3.8712    6.3398 C   0  0  0  0  0  0  0  0  0  0  0  0
    0.6684   -4.2992    5.0004 C   0  0  0  0  0  0  0  0  0  0  0  0
    0.1002   -3.4706    4.0103 C   0  0  0  0  0  0  0  0  0  0  0  0
   -0.4289   -2.2204    4.3942 C   0  0  0  0  0  0  0  0  0  0  0  0
    0.0692   -3.8756    2.6969 N   0  0  0  0  0  0  0  0  0  0  0  0
   -1.1188   -4.2193    2.0623 C   0  0  0  0  0  0  0  0  0  0  0  0
    1.3224   -3.9272    1.9784 C   0  0  0  0  0  0  0  0  0  0  0  0
   -1.1059   -4.5148    0.8415 O   0  0  0  0  0  0  0  0  0  0  0  0
   -2.4589   -4.2470    2.7124 C   0  0  1  0  0  0  0  0  0  0  0  0
   -3.3417   -5.3870    2.2987 N   0  0  2  0  0  0  0  0  0  0  0  0
   -4.9200   -5.6606    4.2628 C   0  0  2  0  0  0  0  0  0  0  0  0
   -4.7540   -5.2444    2.7778 C   0  0  1  0  0  0  0  0  0  0  0  0
   -2.8151   -6.7661    2.5575 C   0  0  1  0  0  0  0  0  0  0  0  0
   -2.9634   -7.1885    4.0410 C   0  0  2  0  0  0  0  0  0  0  0  0
   -4.3815   -7.0359    4.4886 N   0  0  1  0  0  0  0  0  0  0  0  0
   -4.6101   -7.5279    5.8752 C   0  0  0  0  0  0  0  0  0  0  0  0
   -1.5245   -3.4740   10.3697 H   0  0  0  0  0  0  0  0  0  0  0  0
   -3.3403   -3.5175   11.8883 H   0  0  0  0  0  0  0  0  0  0  0  0
   -1.7144    0.2439   13.6393 H   0  0  0  0  0  0  0  0  0  0  0  0
    0.5325    0.9566   12.4072 H   0  0  0  0  0  0  0  0  0  0  0  0
    1.2178   -2.3395   10.3568 H   0  0  0  0  0  0  0  0  0  0  0  0
   -5.6779   -2.8123   15.8112 H   0  0  0  0  0  0  0  0  0  0  0  0
   -6.6653   -3.4594   14.4824 H   0  0  0  0  0  0  0  0  0  0  0  0
   -6.6013   -1.7078   14.7573 H   0  0  0  0  0  0  0  0  0  0  0  0
    1.3367    0.7969    7.7114 H   0  0  0  0  0  0  0  0  0  0  0  0
    0.2859    2.8756    7.0698 H   0  0  0  0  0  0  0  0  0  0  0  0
   -2.0980    3.1937    7.3954 H   0  0  0  0  0  0  0  0  0  0  0  0
   -3.4443    1.4092    8.3481 H   0  0  0  0  0  0  0  0  0  0  0  0
   -2.4300   -0.6917    8.9466 H   0  0  0  0  0  0  0  0  0  0  0  0
   -0.7706   -0.8894    5.9546 H   0  0  0  0  0  0  0  0  0  0  0  0
    1.1624   -4.4940    7.0316 H   0  0  0  0  0  0  0  0  0  0  0  0
    1.0403   -5.2183    4.7479 H   0  0  0  0  0  0  0  0  0  0  0  0
   -0.8535   -1.6090    3.6947 H   0  0  0  0  0  0  0  0  0  0  0  0
    1.2599   -3.3183    1.0728 H   0  0  0  0  0  0  0  0  0  0  0  0
    2.1724   -3.5606    2.5625 H   0  0  0  0  0  0  0  0  0  0  0  0
    1.5358   -4.9601    1.6966 H   0  0  0  0  0  0  0  0  0  0  0  0
   -2.3709   -4.2399    3.7996 H   0  0  0  0  0  0  0  0  0  0  0  0
   -2.9401   -3.3114    2.4191 H   0  0  0  0  0  0  0  0  0  0  0  0
   -5.9854   -5.6321    4.5042 H   0  0  0  0  0  0  0  0  0  0  0  0
   -4.4130   -4.9384    4.9082 H   0  0  0  0  0  0  0  0  0  0  0  0
   -5.1104   -4.2181    2.6492 H   0  0  0  0  0  0  0  0  0  0  0  0
   -5.3989   -5.8775    2.1628 H   0  0  0  0  0  0  0  0  0  0  0  0
   -3.3805   -7.4717    1.9411 H   0  0  0  0  0  0  0  0  0  0  0  0
   -1.7689   -6.8560    2.2549 H   0  0  0  0  0  0  0  0  0  0  0  0
   -2.2934   -6.5883    4.6629 H   0  0  0  0  0  0  0  0  0  0  0  0
   -2.6564   -8.2342    4.1301 H   0  0  0  0  0  0  0  0  0  0  0  0
   -4.0470   -6.9387    6.6035 H   0  0  0  0  0  0  0  0  0  0  0  0
   -4.3068   -8.5730    5.9605 H   0  0  0  0  0  0  0  0  0  0  0  0
   -5.6711   -7.4746    6.1271 H   0  0  0  0  0  0  0  0  0  0  0  0
  1  2  2  0  0  0  0 
  1  6  1  0  0  0  0 
  2  3  1  0  0  0  0 
  3  4  2  0  0  0  0 
  4  5  1  0  0  0  0 
  5  6  2  0  0  0  0 
  8  9  1  0  0  0  0 
  7  9  1  0  0  0  0 
  7  5  1  0  0  0  0 
  6  8  1  0  0  0  0 
  3 10  1  0  0  0  0 
 10 11  2  0  0  0  0 
 10 12  1  0  0  0  0 
 12 13  1  0  0  0  0 
  9 14  2  0  0  0  0 
  8 15  1  0  0  0  0 
 15 16  1  0  0  0  0 
 15 17  2  0  0  0  0 
 18 19  1  0  0  0  0 
 19 20  2  0  0  0  0 
 20 21  1  0  0  0  0 
 21 22  2  0  0  0  0 
 16 18  2  0  0  0  0 
 16 22  1  0  0  0  0 
 17 23  1  0  0  0  0 
 25 26  2  0  0  0  0 
 26 27  1  0  0  0  0 
 27 28  2  0  0  0  0 
 24 28  1  0  0  0  0 
 24 23  2  0  0  0  0 
 23 25  1  0  0  0  0 
 27 29  1  0  0  0  0 
 29 30  1  0  0  0  0 
 29 31  1  0  0  0  0 
 30 32  2  0  0  0  0 
 30 33  1  0  0  0  0 
 33 34  1  0  0  0  0 
 35 36  1  0  0  0  0 
 37 38  1  0  0  0  0 
 38 39  1  0  0  0  0 
 35 39  1  0  0  0  0 
 36 34  1  0  0  0  0 
 34 37  1  0  0  0  0 
 39 40  1  0  0  0  0 
 41  1  1  0  0  0  0 
 42  2  1  0  0  0  0 
 43  4  1  0  0  0  0 
 44  7  1  0  0  0  0 
 45  8  1  0  0  0  0 
 46 13  1  0  0  0  0 
 47 13  1  0  0  0  0 
 48 13  1  0  0  0  0 
 49 18  1  0  0  0  0 
 50 19  1  0  0  0  0 
 51 20  1  0  0  0  0 
 52 21  1  0  0  0  0 
 53 22  1  0  0  0  0 
 54 24  1  0  0  0  0 
 55 25  1  0  0  0  0 
 56 26  1  0  0  0  0 
 57 28  1  0  0  0  0 
 58 31  1  0  0  0  0 
 59 31  1  0  0  0  0 
 60 31  1  0  0  0  0 
 61 33  1  0  0  0  0 
 62 33  1  0  0  0  0 
 63 35  1  0  0  0  0 
 64 35  1  0  0  0  0 
 65 36  1  0  0  0  0 
 66 36  1  0  0  0  0 
 67 37  1  0  0  0  0 
 68 37  1  0  0  0  0 
 69 38  1  0  0  0  0 
 70 38  1  0  0  0  0 
 71 40  1  0  0  0  0 
 72 40  1  0  0  0  0 
 73 40  1  0  0  0  0 
M  END
> <cdk:Title>
nintedanib

> <Conformer>
1

> <SuperDrugID>
SD003840

$$$$
