pentagastrin
  CDK     0628171801

103105  0  0  0  0  0  0  0  0999 V2000
    0.9337   -5.0591    9.6194 C   0  0  0  0  0  0  0  0  0  0  0  0
    0.0750   -4.0304    9.3698 N   0  0  0  0  0  0  0  0  0  0  0  0
    1.5816   -2.2935   11.6585 N   0  0  0  0  0  0  0  0  0  0  0  0
    4.9133   -1.3192   11.6665 N   0  0  0  0  0  0  0  0  0  0  0  0
    7.8310   -1.3932   13.6670 N   0  0  0  0  0  0  0  0  0  0  0  0
    7.3721   -3.8784   16.0331 N   0  0  0  0  0  0  0  0  0  0  0  0
    1.5619   -5.1424   10.7014 O   0  0  0  0  0  0  0  0  0  0  0  0
    1.0687   -6.1453    8.6222 C   0  0  1  0  0  0  0  0  0  0  0  0
    1.9292   -5.7697    7.3881 C   0  0  1  0  0  0  0  0  0  0  0  0
    2.0153   -6.8756    6.4831 N   0  0  0  0  0  0  0  0  0  0  0  0
    2.8979   -7.9040    6.5767 C   0  0  0  0  0  0  0  0  0  0  0  0
    3.7997   -7.9176    7.4464 O   0  0  0  0  0  0  0  0  0  0  0  0
    2.7393   -8.9467    5.7075 O   0  0  0  0  0  0  0  0  0  0  0  0
    3.4480  -10.2025    5.6038 C   0  0  2  0  0  0  0  0  0  0  0  0
    3.3290  -11.0007    6.9385 C   0  0  0  0  0  0  0  0  0  0  0  0
    4.9410   -9.9691    5.2143 C   0  0  0  0  0  0  0  0  0  0  0  0
    2.7273  -10.9845    4.4655 C   0  0  0  0  0  0  0  0  0  0  0  0
    0.7193   -2.0390   10.6315 C   0  0  0  0  0  0  0  0  0  0  0  0
   -1.1073   -3.5578   11.5366 C   0  0  2  0  0  0  0  0  0  0  0  0
   -2.3416   -4.2946   11.1758 C   0  0  0  0  0  0  0  0  0  0  0  0
   -3.5462   -3.7167   10.7684 C   0  0  0  0  0  0  0  0  0  0  0  0
   -4.4372   -4.6817   10.4854 N   0  0  0  0  0  0  0  0  0  0  0  0
   -3.8591   -5.8752   10.6853 C   0  0  0  0  0  0  0  0  0  0  0  0
   -2.5528   -5.6739   11.1343 C   0  0  0  0  0  0  0  0  0  0  0  0
   -1.7194   -6.7697   11.4329 C   0  0  0  0  0  0  0  0  0  0  0  0
   -2.2295   -8.0730   11.2519 C   0  0  0  0  0  0  0  0  0  0  0  0
   -3.5474   -8.2712   10.7800 C   0  0  0  0  0  0  0  0  0  0  0  0
   -4.3791   -7.1665   10.4985 C   0  0  0  0  0  0  0  0  0  0  0  0
   -0.3557   -3.0045   10.2802 C   0  0  2  0  0  0  0  0  0  0  0  0
    0.7665   -0.9498   10.0101 O   0  0  0  0  0  0  0  0  0  0  0  0
    3.8687   -1.9596   12.2706 C   0  0  0  0  0  0  0  0  0  0  0  0
    2.6991    0.2569   14.2656 C   0  0  2  0  0  0  0  0  0  0  0  0
    1.9876   -0.9745   13.6527 C   0  0  1  0  0  0  0  0  0  0  0  0
    2.5104   -1.3617   12.2356 C   0  0  2  0  0  0  0  0  0  0  0  0
    2.6493    2.3175   16.2420 C   0  0  0  0  0  0  0  0  0  0  0  0
    2.0008    0.6549   15.9018 S   0  0  0  0  0  0  0  0  0  0  0  0
    4.0404   -3.0390   12.8874 O   0  0  0  0  0  0  0  0  0  0  0  0
    7.0390   -0.9479   12.6456 C   0  0  0  0  0  0  0  0  0  0  0  0
    6.8497   -1.6144   10.1952 C   0  0  2  0  0  0  0  0  0  0  0  0
    8.1842   -2.2263   10.0351 C   0  0  0  0  0  0  0  0  0  0  0  0
    9.2700   -1.4746    9.7361 O   0  0  0  0  0  0  0  0  0  0  0  0
    8.3294   -3.4617   10.1751 O   0  0  0  0  0  0  0  0  0  0  0  0
    6.2822   -1.7566   11.6429 C   0  0  2  0  0  0  0  0  0  0  0  0
    6.9734    0.3009   12.5637 O   0  0  0  0  0  0  0  0  0  0  0  0
    8.1173   -2.8991   15.4869 C   0  0  0  0  0  0  0  0  0  0  0  0
    9.6782   -2.9565   13.5137 C   0  0  2  0  0  0  0  0  0  0  0  0
   10.2202   -4.3286   13.7185 C   0  0  0  0  0  0  0  0  0  0  0  0
    9.6140   -5.4507   13.1024 C   0  0  0  0  0  0  0  0  0  0  0  0
   10.1586   -6.7384   13.2623 C   0  0  0  0  0  0  0  0  0  0  0  0
   11.3229   -6.9207   14.0291 C   0  0  0  0  0  0  0  0  0  0  0  0
   11.9335   -5.8178   14.6497 C   0  0  0  0  0  0  0  0  0  0  0  0
   11.3764   -4.5344   14.5092 C   0  0  0  0  0  0  0  0  0  0  0  0
    8.2203   -2.7310   14.0157 C   0  0  2  0  0  0  0  0  0  0  0  0
    8.7335   -2.1391   16.2690 O   0  0  0  0  0  0  0  0  0  0  0  0
   -0.3266   -4.0158    8.4858 H   0  0  0  0  0  0  0  0  0  0  0  0
    1.5226   -3.1671   12.0748 H   0  0  0  0  0  0  0  0  0  0  0  0
    4.7145   -0.4768   11.2245 H   0  0  0  0  0  0  0  0  0  0  0  0
    8.2178   -0.6945   14.2203 H   0  0  0  0  0  0  0  0  0  0  0  0
    6.8837   -4.4935   15.4657 H   0  0  0  0  0  0  0  0  0  0  0  0
    7.3305   -3.9776   16.9971 H   0  0  0  0  0  0  0  0  0  0  0  0
    1.5071   -7.0224    9.1076 H   0  0  0  0  0  0  0  0  0  0  0  0
    0.0663   -6.4322    8.2888 H   0  0  0  0  0  0  0  0  0  0  0  0
    1.4583   -4.9423    6.8559 H   0  0  0  0  0  0  0  0  0  0  0  0
    2.9265   -5.4438    7.6975 H   0  0  0  0  0  0  0  0  0  0  0  0
    1.3551   -6.9194    5.7739 H   0  0  0  0  0  0  0  0  0  0  0  0
    3.7292  -12.0111    6.8283 H   0  0  0  0  0  0  0  0  0  0  0  0
    2.2833  -11.0748    7.2436 H   0  0  0  0  0  0  0  0  0  0  0  0
    3.8808  -10.5083    7.7401 H   0  0  0  0  0  0  0  0  0  0  0  0
    5.4496  -10.9182    5.0272 H   0  0  0  0  0  0  0  0  0  0  0  0
    5.0051   -9.3608    4.3093 H   0  0  0  0  0  0  0  0  0  0  0  0
    5.4822   -9.4495    6.0062 H   0  0  0  0  0  0  0  0  0  0  0  0
    3.1224  -11.9990    4.3704 H   0  0  0  0  0  0  0  0  0  0  0  0
    2.8569  -10.4748    3.5084 H   0  0  0  0  0  0  0  0  0  0  0  0
    1.6565  -11.0518    4.6690 H   0  0  0  0  0  0  0  0  0  0  0  0
   -0.4468   -4.2107   12.1100 H   0  0  0  0  0  0  0  0  0  0  0  0
   -1.3844   -2.7333   12.2009 H   0  0  0  0  0  0  0  0  0  0  0  0
   -3.7263   -2.7139   10.6907 H   0  0  0  0  0  0  0  0  0  0  0  0
   -5.3468   -4.5374   10.1813 H   0  0  0  0  0  0  0  0  0  0  0  0
   -0.7665   -6.6317   11.7724 H   0  0  0  0  0  0  0  0  0  0  0  0
   -1.6413   -8.8814   11.4635 H   0  0  0  0  0  0  0  0  0  0  0  0
   -3.9022   -9.2206   10.6427 H   0  0  0  0  0  0  0  0  0  0  0  0
   -5.3348   -7.3017   10.1623 H   0  0  0  0  0  0  0  0  0  0  0  0
   -1.0988   -2.4378    9.7084 H   0  0  0  0  0  0  0  0  0  0  0  0
    2.5621    1.1181   13.6079 H   0  0  0  0  0  0  0  0  0  0  0  0
    3.7684    0.0678   14.3811 H   0  0  0  0  0  0  0  0  0  0  0  0
    2.0845   -1.8274   14.3312 H   0  0  0  0  0  0  0  0  0  0  0  0
    0.9210   -0.7362   13.5748 H   0  0  0  0  0  0  0  0  0  0  0  0
    2.5461   -0.4448   11.6405 H   0  0  0  0  0  0  0  0  0  0  0  0
    3.7383    2.3032   16.2346 H   0  0  0  0  0  0  0  0  0  0  0  0
    2.2884    3.0072   15.4801 H   0  0  0  0  0  0  0  0  0  0  0  0
    2.2975    2.6465   17.2192 H   0  0  0  0  0  0  0  0  0  0  0  0
    6.1821   -2.1110    9.4849 H   0  0  0  0  0  0  0  0  0  0  0  0
    6.8943   -0.5589    9.9100 H   0  0  0  0  0  0  0  0  0  0  0  0
   10.1554   -1.8902    9.6436 H   0  0  0  0  0  0  0  0  0  0  0  0
    6.3199   -2.8166   11.8881 H   0  0  0  0  0  0  0  0  0  0  0  0
    9.7235   -2.7509   12.4434 H   0  0  0  0  0  0  0  0  0  0  0  0
   10.3265   -2.2151   13.9927 H   0  0  0  0  0  0  0  0  0  0  0  0
    8.7724   -5.3409   12.5306 H   0  0  0  0  0  0  0  0  0  0  0  0
    9.7079   -7.5419   12.8188 H   0  0  0  0  0  0  0  0  0  0  0  0
   11.7212   -7.8551   14.1423 H   0  0  0  0  0  0  0  0  0  0  0  0
   12.7819   -5.9459   15.2047 H   0  0  0  0  0  0  0  0  0  0  0  0
   11.8265   -3.7486   14.9850 H   0  0  0  0  0  0  0  0  0  0  0  0
    7.5672   -3.4661   13.5454 H   0  0  0  0  0  0  0  0  0  0  0  0
  1  2  1  0  0  0  0 
 18  3  1  0  0  0  0 
 31  4  1  0  0  0  0 
 38  5  1  0  0  0  0 
 45  6  1  0  0  0  0 
  1  7  2  0  0  0  0 
  1  8  1  0  0  0  0 
  8  9  1  0  0  0  0 
  9 10  1  0  0  0  0 
 10 11  1  0  0  0  0 
 11 12  2  0  0  0  0 
 11 13  1  0  0  0  0 
 13 14  1  0  0  0  0 
 14 15  1  0  0  0  0 
 14 16  1  0  0  0  0 
 14 17  1  0  0  0  0 
 29  2  1  0  0  0  0 
 29 19  1  0  0  0  0 
 19 20  1  0  0  0  0 
 20 21  2  0  0  0  0 
 21 22  1  0  0  0  0 
 22 23  1  0  0  0  0 
 23 24  1  0  0  0  0 
 20 24  1  0  0  0  0 
 24 25  2  0  0  0  0 
 25 26  1  0  0  0  0 
 26 27  2  0  0  0  0 
 27 28  1  0  0  0  0 
 23 28  2  0  0  0  0 
 29 18  1  0  0  0  0 
 18 30  2  0  0  0  0 
 35 36  1  0  0  0  0 
 36 32  1  0  0  0  0 
 32 33  1  0  0  0  0 
 34 33  1  0  0  0  0 
 34  3  1  0  0  0  0 
 34 31  1  0  0  0  0 
 31 37  2  0  0  0  0 
 43  4  1  0  0  0  0 
 43 39  1  0  0  0  0 
 39 40  1  0  0  0  0 
 40 41  1  0  0  0  0 
 40 42  2  0  0  0  0 
 43 38  1  0  0  0  0 
 38 44  2  0  0  0  0 
 53  5  1  0  0  0  0 
 53 46  1  0  0  0  0 
 46 47  1  0  0  0  0 
 47 48  2  0  0  0  0 
 48 49  1  0  0  0  0 
 49 50  2  0  0  0  0 
 50 51  1  0  0  0  0 
 51 52  2  0  0  0  0 
 47 52  1  0  0  0  0 
 53 45  1  0  0  0  0 
 45 54  2  0  0  0  0 
 55  2  1  0  0  0  0 
 56  3  1  0  0  0  0 
 57  4  1  0  0  0  0 
 58  5  1  0  0  0  0 
 59  6  1  0  0  0  0 
 60  6  1  0  0  0  0 
 61  8  1  0  0  0  0 
 62  8  1  0  0  0  0 
 63  9  1  0  0  0  0 
 64  9  1  0  0  0  0 
 65 10  1  0  0  0  0 
 66 15  1  0  0  0  0 
 67 15  1  0  0  0  0 
 68 15  1  0  0  0  0 
 69 16  1  0  0  0  0 
 70 16  1  0  0  0  0 
 71 16  1  0  0  0  0 
 72 17  1  0  0  0  0 
 73 17  1  0  0  0  0 
 74 17  1  0  0  0  0 
 75 19  1  0  0  0  0 
 76 19  1  0  0  0  0 
 77 21  1  0  0  0  0 
 78 22  1  0  0  0  0 
 79 25  1  0  0  0  0 
 80 26  1  0  0  0  0 
 81 27  1  0  0  0  0 
 82 28  1  0  0  0  0 
 29 83  1  0  0  0  0 
 84 32  1  0  0  0  0 
 85 32  1  0  0  0  0 
 86 33  1  0  0  0  0 
 87 33  1  0  0  0  0 
 34 88  1  0  0  0  0 
 89 35  1  0  0  0  0 
 90 35  1  0  0  0  0 
 91 35  1  0  0  0  0 
 92 39  1  0  0  0  0 
 93 39  1  0  0  0  0 
 94 41  1  0  0  0  0 
 43 95  1  0  0  0  0 
 96 46  1  0  0  0  0 
 97 46  1  0  0  0  0 
 98 48  1  0  0  0  0 
 99 49  1  0  0  0  0 
100 50  1  0  0  0  0 
101 51  1  0  0  0  0 
102 52  1  0  0  0  0 
 53103  1  0  0  0  0 
M  END
> <cdk:Title>
pentagastrin

> <Conformer>
1

> <SuperDrugID>
SD001872

$$$$
