tazanolast
  CDK     0628171801

 36 37  0  0  0  0  0  0  0  0999 V2000
   -4.3633    0.1260    0.0071 N   0  0  0  0  0  0  0  0  0  0  0  0
   -3.2349    0.8407   -0.2868 C   0  0  0  0  0  0  0  0  0  0  0  0
   -5.6128    0.1775   -0.5561 C   0  0  0  0  0  0  0  0  0  0  0  0
   -2.0165    0.4938    0.3274 C   0  0  0  0  0  0  0  0  0  0  0  0
   -3.2307    1.8006   -1.0916 O   0  0  0  0  0  0  0  0  0  0  0  0
   -5.9317    0.7727   -1.8024 C   0  0  0  0  0  0  0  0  0  0  0  0
   -6.6491   -0.4709    0.1525 C   0  0  0  0  0  0  0  0  0  0  0  0
   -0.8355    0.8815   -0.2433 O   0  0  0  0  0  0  0  0  0  0  0  0
   -2.0143   -0.2060    1.3680 O   0  0  0  0  0  0  0  0  0  0  0  0
   -7.2492    0.7623   -2.3242 C   0  0  0  0  0  0  0  0  0  0  0  0
   -7.9641   -0.4893   -0.3429 C   0  0  0  0  0  0  0  0  0  0  0  0
    0.4802    0.5610    0.2325 C   0  0  2  0  0  0  0  0  0  0  0  0
   -8.2648    0.1338   -1.5665 C   0  0  0  0  0  0  0  0  0  0  0  0
   -7.5380    1.3539   -3.5813 C   0  0  0  0  0  0  0  0  0  0  0  0
    1.5331    0.9603   -0.8313 C   0  0  2  0  0  0  0  0  0  0  0  0
   -6.6708    1.9328   -4.4193 N   0  0  0  0  0  0  0  0  0  0  0  0
   -8.7330    1.4435   -4.1833 N   0  0  0  0  0  0  0  0  0  0  0  0
    2.9511    0.4061   -0.5252 C   0  0  1  0  0  0  0  0  0  0  0  0
   -7.3011    2.3478   -5.4621 N   0  0  0  0  0  0  0  0  0  0  0  0
   -8.5510    2.0477   -5.3138 N   0  0  0  0  0  0  0  0  0  0  0  0
    3.9731    0.6537   -1.6594 C   0  0  0  0  0  0  0  0  0  0  0  0
   -4.2635   -0.5265    0.7207 H   0  0  0  0  0  0  0  0  0  0  0  0
   -5.1927    1.2053   -2.3504 H   0  0  0  0  0  0  0  0  0  0  0  0
   -6.4547   -0.9370    1.0439 H   0  0  0  0  0  0  0  0  0  0  0  0
   -8.7000   -0.9608    0.1884 H   0  0  0  0  0  0  0  0  0  0  0  0
    0.5383   -0.5146    0.4217 H   0  0  0  0  0  0  0  0  0  0  0  0
    0.6650    1.0903    1.1706 H   0  0  0  0  0  0  0  0  0  0  0  0
   -9.2328    0.1108   -1.8972 H   0  0  0  0  0  0  0  0  0  0  0  0
    1.5715    2.0516   -0.8928 H   0  0  0  0  0  0  0  0  0  0  0  0
    1.2066    0.5765   -1.8014 H   0  0  0  0  0  0  0  0  0  0  0  0
   -5.7187    2.0270   -4.2683 H   0  0  0  0  0  0  0  0  0  0  0  0
    3.3244    0.8642    0.3943 H   0  0  0  0  0  0  0  0  0  0  0  0
    2.8903   -0.6735   -0.3649 H   0  0  0  0  0  0  0  0  0  0  0  0
    4.9376    0.2259   -1.3803 H   0  0  0  0  0  0  0  0  0  0  0  0
    4.1056    1.7216   -1.8388 H   0  0  0  0  0  0  0  0  0  0  0  0
    3.6409    0.1770   -2.5838 H   0  0  0  0  0  0  0  0  0  0  0  0
  1  2  1  0  0  0  0 
  1  3  1  0  0  0  0 
  2  4  1  0  0  0  0 
  2  5  2  0  0  0  0 
  3  6  2  0  0  0  0 
  3  7  1  0  0  0  0 
  4  8  1  0  0  0  0 
  4  9  2  0  0  0  0 
  6 10  1  0  0  0  0 
  7 11  2  0  0  0  0 
  8 12  1  0  0  0  0 
 10 13  2  0  0  0  0 
 10 14  1  0  0  0  0 
 11 13  1  0  0  0  0 
 12 15  1  0  0  0  0 
 14 16  1  0  0  0  0 
 14 17  2  0  0  0  0 
 15 18  1  0  0  0  0 
 16 19  1  0  0  0  0 
 17 20  1  0  0  0  0 
 18 21  1  0  0  0  0 
 19 20  2  0  0  0  0 
 22  1  1  0  0  0  0 
 23  6  1  0  0  0  0 
 24  7  1  0  0  0  0 
 25 11  1  0  0  0  0 
 26 12  1  0  0  0  0 
 27 12  1  0  0  0  0 
 28 13  1  0  0  0  0 
 29 15  1  0  0  0  0 
 30 15  1  0  0  0  0 
 31 16  1  0  0  0  0 
 32 18  1  0  0  0  0 
 33 18  1  0  0  0  0 
 34 21  1  0  0  0  0 
 35 21  1  0  0  0  0 
 36 21  1  0  0  0  0 
M  END
> <cdk:Title>
tazanolast

> <Conformer>
1

> <SuperDrugID>
SD002312

$$$$
