homofenazine
  CDK     0628171801

 59 62  0  0  0  0  0  0  0  0999 V2000
   -7.4560   -0.7390    0.1220 O   0  0  0  0  0  0  0  0  0  0  0  0
   -6.1516   -0.4801   -0.3824 C   0  0  1  0  0  0  0  0  0  0  0  0
   -6.1017   -0.6937   -1.9128 C   0  0  1  0  0  0  0  0  0  0  0  0
   -4.6871   -0.6458   -2.4024 N   0  0  0  0  0  0  0  0  0  0  0  0
   -4.2703   -1.6040   -3.4728 C   0  0  2  0  0  0  0  0  0  0  0  0
   -2.8911   -2.2408   -3.1678 C   0  0  1  0  0  0  0  0  0  0  0  0
   -1.7583   -1.2438   -2.7978 C   0  0  1  0  0  0  0  0  0  0  0  0
   -1.9373   -0.5152   -1.4987 N   0  0  0  0  0  0  0  0  0  0  0  0
   -1.8946   -1.3357   -0.2432 C   0  0  1  0  0  0  0  0  0  0  0  0
   -1.3362   -0.6042    1.0125 C   0  0  2  0  0  0  0  0  0  0  0  0
   -0.0147    0.1764    0.7678 C   0  0  1  0  0  0  0  0  0  0  0  0
    1.0772   -0.6555    0.2696 N   0  0  0  0  0  0  0  0  0  0  0  0
    1.5542   -1.7102    1.0508 C   0  0  0  0  0  0  0  0  0  0  0  0
    1.7944   -1.5745    2.4446 C   0  0  0  0  0  0  0  0  0  0  0  0
    2.2180   -2.6666    3.2257 C   0  0  0  0  0  0  0  0  0  0  0  0
    2.4291   -3.9193    2.6262 C   0  0  0  0  0  0  0  0  0  0  0  0
    2.2306   -4.0775    1.2456 C   0  0  0  0  0  0  0  0  0  0  0  0
    1.8015   -2.9827    0.4706 C   0  0  0  0  0  0  0  0  0  0  0  0
    1.5924   -3.2018   -1.2606 S   0  0  0  0  0  0  0  0  0  0  0  0
    1.7859   -1.5685   -1.8830 C   0  0  0  0  0  0  0  0  0  0  0  0
    2.1636   -1.3880   -3.2255 C   0  0  0  0  0  0  0  0  0  0  0  0
    2.3661   -0.0943   -3.7290 C   0  0  0  0  0  0  0  0  0  0  0  0
    2.2108    1.0379   -2.8966 C   0  0  0  0  0  0  0  0  0  0  0  0
    1.8172    0.8287   -1.5501 C   0  0  0  0  0  0  0  0  0  0  0  0
    1.5579   -0.4632   -1.0260 C   0  0  0  0  0  0  0  0  0  0  0  0
    2.4333    2.4271   -3.3928 C   0  0  1  0  0  0  0  0  0  0  0  0
    2.8691    2.5104   -4.6959 F   0  0  0  0  0  0  0  0  0  0  0  0
    1.2576    3.1359   -3.3179 F   0  0  0  0  0  0  0  0  0  0  0  0
    3.3800    3.0613   -2.6233 F   0  0  0  0  0  0  0  0  0  0  0  0
   -2.7937    0.7175   -1.5059 C   0  0  2  0  0  0  0  0  0  0  0  0
   -4.0194    0.6942   -2.4504 C   0  0  1  0  0  0  0  0  0  0  0  0
   -7.3699   -0.6348    1.0925 H   0  0  0  0  0  0  0  0  0  0  0  0
   -5.8721    0.5444   -0.1336 H   0  0  0  0  0  0  0  0  0  0  0  0
   -5.4506   -1.1585    0.1053 H   0  0  0  0  0  0  0  0  0  0  0  0
   -6.5568   -1.6665   -2.1197 H   0  0  0  0  0  0  0  0  0  0  0  0
   -6.7077    0.0640   -2.4197 H   0  0  0  0  0  0  0  0  0  0  0  0
   -4.2459   -1.1067   -4.4464 H   0  0  0  0  0  0  0  0  0  0  0  0
   -4.9791   -2.4301   -3.5674 H   0  0  0  0  0  0  0  0  0  0  0  0
   -3.0014   -2.9694   -2.3594 H   0  0  0  0  0  0  0  0  0  0  0  0
   -2.5756   -2.7978   -4.0560 H   0  0  0  0  0  0  0  0  0  0  0  0
   -0.8342   -1.8202   -2.7473 H   0  0  0  0  0  0  0  0  0  0  0  0
   -1.6184   -0.5276   -3.6126 H   0  0  0  0  0  0  0  0  0  0  0  0
   -2.8997   -1.6990   -0.0206 H   0  0  0  0  0  0  0  0  0  0  0  0
   -1.2642   -2.2142   -0.3990 H   0  0  0  0  0  0  0  0  0  0  0  0
   -1.1747   -1.3428    1.8013 H   0  0  0  0  0  0  0  0  0  0  0  0
   -2.0877    0.0911    1.3966 H   0  0  0  0  0  0  0  0  0  0  0  0
   -0.2697    0.9870    0.0832 H   0  0  0  0  0  0  0  0  0  0  0  0
    0.2814    0.6719    1.6937 H   0  0  0  0  0  0  0  0  0  0  0  0
    1.6699   -0.6750    2.9122 H   0  0  0  0  0  0  0  0  0  0  0  0
    2.3760   -2.5486    4.2299 H   0  0  0  0  0  0  0  0  0  0  0  0
    2.7333   -4.7151    3.1929 H   0  0  0  0  0  0  0  0  0  0  0  0
    2.4085   -4.9891    0.8136 H   0  0  0  0  0  0  0  0  0  0  0  0
    2.2886   -2.1949   -3.8434 H   0  0  0  0  0  0  0  0  0  0  0  0
    2.6333    0.0083   -4.7090 H   0  0  0  0  0  0  0  0  0  0  0  0
    1.7172    1.6407   -0.9347 H   0  0  0  0  0  0  0  0  0  0  0  0
   -2.1602    1.5581   -1.7961 H   0  0  0  0  0  0  0  0  0  0  0  0
   -3.1626    0.9399   -0.5021 H   0  0  0  0  0  0  0  0  0  0  0  0
   -3.6958    0.9472   -3.4631 H   0  0  0  0  0  0  0  0  0  0  0  0
   -4.7012    1.4954   -2.1541 H   0  0  0  0  0  0  0  0  0  0  0  0
  1  2  1  0  0  0  0 
  2  3  1  0  0  0  0 
  3  4  1  0  0  0  0 
  4  5  1  0  0  0  0 
  5  6  1  0  0  0  0 
  6  7  1  0  0  0  0 
  7  8  1  0  0  0  0 
  8  9  1  0  0  0  0 
  9 10  1  0  0  0  0 
 10 11  1  0  0  0  0 
 11 12  1  0  0  0  0 
 12 13  1  0  0  0  0 
 13 14  2  0  0  0  0 
 14 15  1  0  0  0  0 
 15 16  2  0  0  0  0 
 16 17  1  0  0  0  0 
 17 18  2  0  0  0  0 
 13 18  1  0  0  0  0 
 18 19  1  0  0  0  0 
 19 20  1  0  0  0  0 
 20 21  2  0  0  0  0 
 21 22  1  0  0  0  0 
 22 23  2  0  0  0  0 
 23 24  1  0  0  0  0 
 24 25  2  0  0  0  0 
 12 25  1  0  0  0  0 
 20 25  1  0  0  0  0 
 23 26  1  0  0  0  0 
 26 27  1  0  0  0  0 
 26 28  1  0  0  0  0 
 26 29  1  0  0  0  0 
  8 30  1  0  0  0  0 
 30 31  1  0  0  0  0 
  4 31  1  0  0  0  0 
  1 32  1  0  0  0  0 
  2 33  1  0  0  0  0 
  2 34  1  0  0  0  0 
  3 35  1  0  0  0  0 
  3 36  1  0  0  0  0 
  5 37  1  0  0  0  0 
  5 38  1  0  0  0  0 
  6 39  1  0  0  0  0 
  6 40  1  0  0  0  0 
  7 41  1  0  0  0  0 
  7 42  1  0  0  0  0 
  9 43  1  0  0  0  0 
  9 44  1  0  0  0  0 
 10 45  1  0  0  0  0 
 10 46  1  0  0  0  0 
 11 47  1  0  0  0  0 
 11 48  1  0  0  0  0 
 14 49  1  0  0  0  0 
 15 50  1  0  0  0  0 
 16 51  1  0  0  0  0 
 17 52  1  0  0  0  0 
 21 53  1  0  0  0  0 
 22 54  1  0  0  0  0 
 24 55  1  0  0  0  0 
 30 56  1  0  0  0  0 
 30 57  1  0  0  0  0 
 31 58  1  0  0  0  0 
 31 59  1  0  0  0  0 
M  END
> <cdk:Title>
homofenazine

> <Conformer>
1

> <SuperDrugID>
SD001228

$$$$
