cyclopentamine
  CDK     0628171802

 29 29  0  0  0  0  0  0  0  0999 V2000
    1.5795    0.1032   -0.0736 C   0  0  0  0  0  0  0  0  0  0  0  0
    0.2184   -0.1828    0.4247 N   0  0  2  0  0  0  0  0  0  0  0  0
   -0.3848   -1.4869    0.0331 C   0  0  1  0  0  0  0  0  0  0  0  0
    0.3595   -2.6894    0.6741 C   0  0  0  0  0  0  0  0  0  0  0  0
   -1.8934   -1.4880    0.4402 C   0  0  1  0  0  0  0  0  0  0  0  0
   -2.7665   -0.3991   -0.2602 C   0  0  2  0  0  0  0  0  0  0  0  0
   -4.2637   -0.4502    0.1238 C   0  0  2  0  0  0  0  0  0  0  0  0
   -4.9593    0.3982   -0.9555 C   0  0  1  0  0  0  0  0  0  0  0  0
   -4.1167    0.2097   -2.2354 C   0  0  2  0  0  0  0  0  0  0  0  0
   -2.8116   -0.4965   -1.8041 C   0  0  2  0  0  0  0  0  0  0  0  0
    1.8135    1.1417    0.1624 H   0  0  0  0  0  0  0  0  0  0  0  0
    2.3185   -0.5336    0.4127 H   0  0  0  0  0  0  0  0  0  0  0  0
    1.6401   -0.0308   -1.1563 H   0  0  0  0  0  0  0  0  0  0  0  0
   -0.3752    0.5426    0.0169 H   0  0  0  0  0  0  0  0  0  0  0  0
   -0.3209   -1.6060   -1.0521 H   0  0  0  0  0  0  0  0  0  0  0  0
   -0.1482   -3.6260    0.4338 H   0  0  0  0  0  0  0  0  0  0  0  0
    1.3802   -2.7576    0.2972 H   0  0  0  0  0  0  0  0  0  0  0  0
    0.3974   -2.5772    1.7586 H   0  0  0  0  0  0  0  0  0  0  0  0
   -2.3190   -2.4716    0.2211 H   0  0  0  0  0  0  0  0  0  0  0  0
   -1.9644   -1.3410    1.5229 H   0  0  0  0  0  0  0  0  0  0  0  0
   -2.3869    0.5907    0.0219 H   0  0  0  0  0  0  0  0  0  0  0  0
   -4.4409   -0.0433    1.1216 H   0  0  0  0  0  0  0  0  0  0  0  0
   -4.6419   -1.4750    0.0856 H   0  0  0  0  0  0  0  0  0  0  0  0
   -5.9948    0.0848   -1.1028 H   0  0  0  0  0  0  0  0  0  0  0  0
   -4.9530    1.4491   -0.6546 H   0  0  0  0  0  0  0  0  0  0  0  0
   -3.8985    1.1821   -2.6860 H   0  0  0  0  0  0  0  0  0  0  0  0
   -4.6553   -0.4001   -2.9641 H   0  0  0  0  0  0  0  0  0  0  0  0
   -2.8409   -1.5456   -2.1149 H   0  0  0  0  0  0  0  0  0  0  0  0
   -1.9364   -0.0194   -2.2523 H   0  0  0  0  0  0  0  0  0  0  0  0
  1  2  1  0  0  0  0 
  3  2  1  0  0  0  0 
  3  4  1  0  0  0  0 
  3  5  1  0  0  0  0 
  5  6  1  0  0  0  0 
  6  7  1  0  0  0  0 
  7  8  1  0  0  0  0 
  8  9  1  0  0  0  0 
  9 10  1  0  0  0  0 
  6 10  1  0  0  0  0 
  1 11  1  0  0  0  0 
  1 12  1  0  0  0  0 
  1 13  1  0  0  0  0 
  2 14  1  0  0  0  0 
  3 15  1  0  0  0  0 
  4 16  1  0  0  0  0 
  4 17  1  0  0  0  0 
  4 18  1  0  0  0  0 
  5 19  1  0  0  0  0 
  5 20  1  0  0  0  0 
  6 21  1  0  0  0  0 
  7 22  1  0  0  0  0 
  7 23  1  0  0  0  0 
  8 24  1  0  0  0  0 
  8 25  1  0  0  0  0 
  9 26  1  0  0  0  0 
  9 27  1  0  0  0  0 
 10 28  1  0  0  0  0 
 10 29  1  0  0  0  0 
M  END
> <cdk:Title>
cyclopentamine

> <Conformer>
1

> <SuperDrugID>
SD000664

$$$$
