pyrrobutamine
  CDK     0628171801

 44 46  0  0  0  0  0  0  0  0999 V2000
   -1.0815    5.5410   -1.5316 C   0  0  0  0  0  0  0  0  0  0  0  0
   -1.5889    5.1349   -0.2106 C   0  0  2  0  0  0  0  0  0  0  0  0
   -0.8872    6.8516   -1.8144 C   0  0  0  0  0  0  0  0  0  0  0  0
   -0.7370    4.5339   -2.4327 C   0  0  0  0  0  0  0  0  0  0  0  0
   -2.8201    5.8516    0.2384 C   0  0  0  0  0  0  0  0  0  0  0  0
   -0.4186    7.4124   -3.0744 C   0  0  2  0  0  0  0  0  0  0  0  0
    0.6286    4.2430   -2.6671 C   0  0  0  0  0  0  0  0  0  0  0  0
   -1.7241    3.7525   -3.0811 C   0  0  0  0  0  0  0  0  0  0  0  0
   -4.0752    5.6123   -0.3718 C   0  0  0  0  0  0  0  0  0  0  0  0
   -2.7532    6.8000    1.2876 C   0  0  0  0  0  0  0  0  0  0  0  0
   -1.3191    7.1048   -4.2251 N   0  0  1  0  0  0  0  0  0  0  0  0
    1.0008    3.1851   -3.5147 C   0  0  0  0  0  0  0  0  0  0  0  0
   -1.3480    2.6962   -3.9321 C   0  0  0  0  0  0  0  0  0  0  0  0
   -5.2279    6.2956    0.0604 C   0  0  0  0  0  0  0  0  0  0  0  0
   -3.9019    7.4896    1.7132 C   0  0  0  0  0  0  0  0  0  0  0  0
   -2.7313    7.5618   -4.1145 C   0  0  1  0  0  0  0  0  0  0  0  0
   -0.8123    7.5536   -5.5428 C   0  0  1  0  0  0  0  0  0  0  0  0
    0.0124    2.4062   -4.1417 C   0  0  0  0  0  0  0  0  0  0  0  0
   -5.1445    7.2369    1.1036 C   0  0  0  0  0  0  0  0  0  0  0  0
   -3.1928    7.9495   -5.5363 C   0  0  1  0  0  0  0  0  0  0  0  0
   -2.0446    7.5095   -6.4579 C   0  0  1  0  0  0  0  0  0  0  0  0
   -6.5280    8.0641    1.6242 Cl  0  0  0  0  0  0  0  0  0  0  0  0
   -0.7719    5.2995    0.4990 H   0  0  0  0  0  0  0  0  0  0  0  0
   -1.8009    4.0608   -0.1681 H   0  0  0  0  0  0  0  0  0  0  0  0
   -1.0949    7.5174   -1.1055 H   0  0  0  0  0  0  0  0  0  0  0  0
    0.5825    7.0301   -3.2810 H   0  0  0  0  0  0  0  0  0  0  0  0
   -0.3243    8.4990   -2.9703 H   0  0  0  0  0  0  0  0  0  0  0  0
    1.3639    4.7921   -2.2129 H   0  0  0  0  0  0  0  0  0  0  0  0
   -2.7188    3.9413   -2.9358 H   0  0  0  0  0  0  0  0  0  0  0  0
   -4.1601    4.9376   -1.1334 H   0  0  0  0  0  0  0  0  0  0  0  0
   -1.8616    7.0024    1.7454 H   0  0  0  0  0  0  0  0  0  0  0  0
    1.9897    2.9793   -3.6707 H   0  0  0  0  0  0  0  0  0  0  0  0
   -2.0652    2.1341   -4.3954 H   0  0  0  0  0  0  0  0  0  0  0  0
   -6.1261    6.1041   -0.3893 H   0  0  0  0  0  0  0  0  0  0  0  0
   -3.8251    8.1762    2.4670 H   0  0  0  0  0  0  0  0  0  0  0  0
   -3.3380    6.7407   -3.7223 H   0  0  0  0  0  0  0  0  0  0  0  0
   -2.8401    8.4201   -3.4447 H   0  0  0  0  0  0  0  0  0  0  0  0
   -0.4208    8.5758   -5.4928 H   0  0  0  0  0  0  0  0  0  0  0  0
   -0.0271    6.8879   -5.9128 H   0  0  0  0  0  0  0  0  0  0  0  0
    0.2847    1.6300   -4.7494 H   0  0  0  0  0  0  0  0  0  0  0  0
   -4.1317    7.4580   -5.8056 H   0  0  0  0  0  0  0  0  0  0  0  0
   -3.3307    9.0328   -5.6080 H   0  0  0  0  0  0  0  0  0  0  0  0
   -1.9328    8.1737   -7.3193 H   0  0  0  0  0  0  0  0  0  0  0  0
   -2.2145    6.4887   -6.8111 H   0  0  0  0  0  0  0  0  0  0  0  0
  1  2  1  0  0  0  0 
  1  3  2  0  0  0  0 
  1  4  1  0  0  0  0 
  2  5  1  0  0  0  0 
  3  6  1  0  0  0  0 
  4  7  2  0  0  0  0 
  4  8  1  0  0  0  0 
  5  9  2  0  0  0  0 
  5 10  1  0  0  0  0 
  6 11  1  0  0  0  0 
  7 12  1  0  0  0  0 
  8 13  2  0  0  0  0 
  9 14  1  0  0  0  0 
 10 15  2  0  0  0  0 
 11 16  1  0  0  0  0 
 11 17  1  0  0  0  0 
 12 18  2  0  0  0  0 
 13 18  1  0  0  0  0 
 14 19  2  0  0  0  0 
 15 19  1  0  0  0  0 
 16 20  1  0  0  0  0 
 17 21  1  0  0  0  0 
 19 22  1  0  0  0  0 
 20 21  1  0  0  0  0 
  2 23  1  0  0  0  0 
  2 24  1  0  0  0  0 
  3 25  1  0  0  0  0 
  6 26  1  0  0  0  0 
  6 27  1  0  0  0  0 
  7 28  1  0  0  0  0 
  8 29  1  0  0  0  0 
  9 30  1  0  0  0  0 
 10 31  1  0  0  0  0 
 12 32  1  0  0  0  0 
 13 33  1  0  0  0  0 
 14 34  1  0  0  0  0 
 15 35  1  0  0  0  0 
 16 36  1  0  0  0  0 
 16 37  1  0  0  0  0 
 17 38  1  0  0  0  0 
 17 39  1  0  0  0  0 
 18 40  1  0  0  0  0 
 20 41  1  0  0  0  0 
 20 42  1  0  0  0  0 
 21 43  1  0  0  0  0 
 21 44  1  0  0  0  0 
M  END
> <cdk:Title>
pyrrobutamine

> <Conformer>
1

> <SuperDrugID>
SD002098

$$$$
