artemotil
  CDK     0628171801

 50 53  0  0  0  0  0  0  0  0999 V2000
    2.2694   -0.6235   -4.1208 C   0  0  0  0  0  0  0  0  0  0  0  0
    2.6646   -1.9374   -3.3916 C   0  0  2  0  0  0  0  0  0  0  0  0
    1.6733   -3.1361   -3.6274 C   0  0  1  0  0  0  0  0  0  0  0  0
    2.9493   -1.7080   -1.8754 C   0  0  1  0  0  0  0  0  0  0  0  0
    2.1840   -4.4212   -2.8747 C   0  0  1  0  0  0  0  0  0  0  0  0
    0.1717   -2.8247   -3.2785 C   0  0  1  0  0  0  0  0  0  0  0  0
    1.8087   -1.1067   -1.2300 O   0  0  0  0  0  0  0  0  0  0  0  0
    3.3546   -2.9474   -1.2563 O   0  0  0  0  0  0  0  0  0  0  0  0
    2.4142   -4.0379   -1.3680 C   0  0  2  0  0  0  0  0  0  0  0  0
    1.2033   -5.6257   -3.1840 C   0  0  1  0  0  0  0  0  0  0  0  0
    3.5030   -4.8056   -3.3418 O   0  0  0  0  0  0  0  0  0  0  0  0
   -0.7811   -4.0502   -3.3450 C   0  0  2  0  0  0  0  0  0  0  0  0
    1.9327   -0.8154    0.1713 C   0  0  2  0  0  0  0  0  0  0  0  0
    2.9960   -5.0860   -0.5814 O   0  0  0  0  0  0  0  0  0  0  0  0
    1.8209   -7.0425   -2.9235 C   0  0  1  0  0  0  0  0  0  0  0  0
   -0.2350   -5.3311   -2.6276 C   0  0  1  0  0  0  0  0  0  0  0  0
    4.2430   -5.6222   -2.5571 O   0  0  0  0  0  0  0  0  0  0  0  0
    0.5486   -0.3876    0.6944 C   0  0  0  0  0  0  0  0  0  0  0  0
    3.6507   -6.1306   -1.3269 C   0  0  2  0  0  0  0  0  0  0  0  0
    2.5816   -7.2404   -1.5931 C   0  0  2  0  0  0  0  0  0  0  0  0
   -1.2613   -6.4939   -2.7653 C   0  0  0  0  0  0  0  0  0  0  0  0
    4.8174   -6.6403   -0.4416 C   0  0  0  0  0  0  0  0  0  0  0  0
    1.4925   -3.7517   -0.8634 H   0  0  0  0  0  0  0  0  0  0  0  0
    1.0787   -5.6440   -4.2741 H   0  0  0  0  0  0  0  0  0  0  0  0
    1.7013   -3.3536   -4.7019 H   0  0  0  0  0  0  0  0  0  0  0  0
    2.0840   -0.8192   -5.1792 H   0  0  0  0  0  0  0  0  0  0  0  0
    1.3744   -0.1766   -3.6832 H   0  0  0  0  0  0  0  0  0  0  0  0
    3.0828    0.1006   -4.0424 H   0  0  0  0  0  0  0  0  0  0  0  0
    3.6189   -2.2355   -3.8406 H   0  0  0  0  0  0  0  0  0  0  0  0
    3.7948   -1.0197   -1.7889 H   0  0  0  0  0  0  0  0  0  0  0  0
    0.0754   -2.4048   -2.2795 H   0  0  0  0  0  0  0  0  0  0  0  0
   -0.2079   -2.0697   -3.9726 H   0  0  0  0  0  0  0  0  0  0  0  0
   -0.9669   -4.2788   -4.3995 H   0  0  0  0  0  0  0  0  0  0  0  0
   -1.7400   -3.7620   -2.9021 H   0  0  0  0  0  0  0  0  0  0  0  0
    2.6433   -0.0005    0.3202 H   0  0  0  0  0  0  0  0  0  0  0  0
    2.2644   -1.6905    0.7367 H   0  0  0  0  0  0  0  0  0  0  0  0
    1.0707   -7.8256   -3.0259 H   0  0  0  0  0  0  0  0  0  0  0  0
    2.5421   -7.2418   -3.7230 H   0  0  0  0  0  0  0  0  0  0  0  0
   -0.1716   -5.1304   -1.5567 H   0  0  0  0  0  0  0  0  0  0  0  0
    0.6017   -0.1866    1.7669 H   0  0  0  0  0  0  0  0  0  0  0  0
   -0.1818   -1.1820    0.5188 H   0  0  0  0  0  0  0  0  0  0  0  0
    0.2138    0.5174    0.1821 H   0  0  0  0  0  0  0  0  0  0  0  0
    3.0642   -8.2211   -1.6397 H   0  0  0  0  0  0  0  0  0  0  0  0
    1.8635   -7.2782   -0.7683 H   0  0  0  0  0  0  0  0  0  0  0  0
   -0.9904   -7.3192   -2.1052 H   0  0  0  0  0  0  0  0  0  0  0  0
   -1.3061   -6.8564   -3.7939 H   0  0  0  0  0  0  0  0  0  0  0  0
   -2.2576   -6.1626   -2.4660 H   0  0  0  0  0  0  0  0  0  0  0  0
    5.3759   -7.4246   -0.9576 H   0  0  0  0  0  0  0  0  0  0  0  0
    4.4468   -7.0397    0.5052 H   0  0  0  0  0  0  0  0  0  0  0  0
    5.5033   -5.8177   -0.2240 H   0  0  0  0  0  0  0  0  0  0  0  0
  2  1  1  0  0  0  0 
  3  2  1  0  0  0  0 
  2  4  1  0  0  0  0 
  5  3  1  0  0  0  0 
  3  6  1  0  0  0  0 
  3 25  1  0  0  0  0 
  4  7  1  0  0  0  0 
  4  8  1  0  0  0  0 
  5  9  1  0  0  0  0 
 10  5  1  0  0  0  0 
  5 11  1  0  0  0  0 
  6 12  1  0  0  0  0 
  7 13  1  0  0  0  0 
  9  8  1  0  0  0  0 
  9 14  1  0  0  0  0 
  9 23  1  0  0  0  0 
 10 15  1  0  0  0  0 
 10 16  1  0  0  0  0 
 10 24  1  0  0  0  0 
 11 17  1  0  0  0  0 
 16 12  1  0  0  0  0 
 13 18  1  0  0  0  0 
 19 14  1  0  0  0  0 
 15 20  1  0  0  0  0 
 16 21  1  0  0  0  0 
 19 17  1  0  0  0  0 
 19 20  1  0  0  0  0 
 19 22  1  0  0  0  0 
  1 26  1  0  0  0  0 
  1 27  1  0  0  0  0 
  1 28  1  0  0  0  0 
  2 29  1  0  0  0  0 
  4 30  1  0  0  0  0 
  6 31  1  0  0  0  0 
  6 32  1  0  0  0  0 
 12 33  1  0  0  0  0 
 12 34  1  0  0  0  0 
 13 35  1  0  0  0  0 
 13 36  1  0  0  0  0 
 15 37  1  0  0  0  0 
 15 38  1  0  0  0  0 
 16 39  1  0  0  0  0 
 18 40  1  0  0  0  0 
 18 41  1  0  0  0  0 
 18 42  1  0  0  0  0 
 20 43  1  0  0  0  0 
 20 44  1  0  0  0  0 
 21 45  1  0  0  0  0 
 21 46  1  0  0  0  0 
 21 47  1  0  0  0  0 
 22 48  1  0  0  0  0 
 22 49  1  0  0  0  0 
 22 50  1  0  0  0  0 
M  END
> <cdk:Title>
artemotil

> <Conformer>
1

> <SuperDrugID>
SD000203

$$$$
