amfecloral
  CDK     0628171802

 27 27  0  0  0  0  0  0  0  0999 V2000
    1.2534    3.1486    3.7603 C   0  0  0  0  0  0  0  0  0  0  0  0
    0.3030    4.1124    4.1451 C   0  0  0  0  0  0  0  0  0  0  0  0
   -0.5943    4.6353    3.1967 C   0  0  0  0  0  0  0  0  0  0  0  0
   -0.5319    4.2030    1.8607 C   0  0  0  0  0  0  0  0  0  0  0  0
    0.4203    3.2421    1.4756 C   0  0  0  0  0  0  0  0  0  0  0  0
    1.3127    2.6851    2.4235 C   0  0  0  0  0  0  0  0  0  0  0  0
    2.2681    1.6109    2.0254 C   0  0  1  0  0  0  0  0  0  0  0  0
    1.6365    0.1813    2.0088 C   0  0  2  0  0  0  0  0  0  0  0  0
    0.5202    0.0982    1.1689 N   0  0  0  0  0  0  0  0  0  0  0  0
    0.4905    0.0960   -0.1160 C   0  0  0  0  0  0  0  0  0  0  0  0
   -0.7555    0.0479   -0.8565 C   0  0  1  0  0  0  0  0  0  0  0  0
   -1.0118   -1.5940   -1.4280 Cl  0  0  0  0  0  0  0  0  0  0  0  0
   -2.1807    0.5318    0.0652 Cl  0  0  0  0  0  0  0  0  0  0  0  0
   -0.6820    1.1149   -2.2556 Cl  0  0  0  0  0  0  0  0  0  0  0  0
    1.2052   -0.2963    3.4192 C   0  0  0  0  0  0  0  0  0  0  0  0
    1.8920    2.7771    4.4684 H   0  0  0  0  0  0  0  0  0  0  0  0
    0.2640    4.4301    5.1162 H   0  0  0  0  0  0  0  0  0  0  0  0
   -1.2895    5.3300    3.4782 H   0  0  0  0  0  0  0  0  0  0  0  0
   -1.1795    4.5834    1.1679 H   0  0  0  0  0  0  0  0  0  0  0  0
    0.4537    2.9494    0.4963 H   0  0  0  0  0  0  0  0  0  0  0  0
    2.6695    1.8357    1.0332 H   0  0  0  0  0  0  0  0  0  0  0  0
    3.1291    1.6082    2.7011 H   0  0  0  0  0  0  0  0  0  0  0  0
    2.4010   -0.5223    1.6579 H   0  0  0  0  0  0  0  0  0  0  0  0
    1.3476    0.1212   -0.6216 H   0  0  0  0  0  0  0  0  0  0  0  0
    0.8962   -1.3419    3.3771 H   0  0  0  0  0  0  0  0  0  0  0  0
    0.3683    0.2939    3.7965 H   0  0  0  0  0  0  0  0  0  0  0  0
    2.0346   -0.2135    4.1234 H   0  0  0  0  0  0  0  0  0  0  0  0
  1  2  2  0  0  0  0 
  1  6  1  0  0  0  0 
  2  3  1  0  0  0  0 
  3  4  2  0  0  0  0 
  4  5  1  0  0  0  0 
  5  6  2  0  0  0  0 
  6  7  1  0  0  0  0 
  8  7  1  0  0  0  0 
  8  9  1  0  0  0  0 
  9 10  2  0  0  0  0 
 10 11  1  0  0  0  0 
 11 12  1  0  0  0  0 
 11 13  1  0  0  0  0 
 11 14  1  0  0  0  0 
  8 15  1  0  0  0  0 
  1 16  1  0  0  0  0 
  2 17  1  0  0  0  0 
  3 18  1  0  0  0  0 
  4 19  1  0  0  0  0 
  5 20  1  0  0  0  0 
  7 21  1  0  0  0  0 
  7 22  1  0  0  0  0 
  8 23  1  0  0  0  0 
 10 24  1  0  0  0  0 
 15 25  1  0  0  0  0 
 15 26  1  0  0  0  0 
 15 27  1  0  0  0  0 
M  END
> <cdk:Title>
amfecloral

> <Conformer>
1

> <SuperDrugID>
SD003911

$$$$
