nandrolone cyclotate
  CDK     0628171801

 69 74  0  0  0  0  0  0  0  0999 V2000
   -4.6637    1.9109   -5.1730 C   0  0  0  0  0  0  0  0  0  0  0  0
   -3.7537    0.6406   -5.3981 C   0  0  2  0  0  0  0  0  0  0  0  0
   -2.2301    0.8306   -5.0931 C   0  0  2  0  0  0  0  0  0  0  0  0
   -3.7073    0.3106   -6.9293 C   0  0  1  0  0  0  0  0  0  0  0  0
   -4.2362   -0.5299   -4.4726 C   0  0  2  0  0  0  0  0  0  0  0  0
   -1.9665    1.2913   -3.6234 C   0  0  1  0  0  0  0  0  0  0  0  0
   -1.7026    1.6646   -6.2716 C   0  0  1  0  0  0  0  0  0  0  0  0
   -4.8707    0.7417   -7.6620 O   0  0  0  0  0  0  0  0  0  0  0  0
   -2.4443    1.0459   -7.4770 C   0  0  1  0  0  0  0  0  0  0  0  0
   -3.9559   -0.2433   -2.9611 C   0  0  2  0  0  0  0  0  0  0  0  0
   -2.4649    0.1602   -2.6467 C   0  0  2  0  0  0  0  0  0  0  0  0
   -0.4803    1.6377   -3.3320 C   0  0  1  0  0  0  0  0  0  0  0  0
   -5.1602    0.4775   -8.9710 C   0  0  0  0  0  0  0  0  0  0  0  0
   -2.1998    0.5235   -1.1296 C   0  0  2  0  0  0  0  0  0  0  0  0
   -0.3147    2.0730   -1.8561 C   0  0  2  0  0  0  0  0  0  0  0  0
   -4.5059   -0.4011   -9.5847 O   0  0  0  0  0  0  0  0  0  0  0  0
   -6.2253    1.2713   -9.6503 C   0  0  2  0  0  0  0  0  0  0  0  0
   -0.8502    1.1036   -0.8898 C   0  0  0  0  0  0  0  0  0  0  0  0
   -2.4766   -0.7144   -0.2045 C   0  0  1  0  0  0  0  0  0  0  0  0
   -7.6131    1.2199   -8.9054 C   0  0  1  0  0  0  0  0  0  0  0  0
   -6.4879    0.8086  -11.1346 C   0  0  1  0  0  0  0  0  0  0  0  0
   -5.8659    2.7033   -9.7362 C   0  0  0  0  0  0  0  0  0  0  0  0
   -0.1389    0.8330    0.2286 C   0  0  0  0  0  0  0  0  0  0  0  0
   -1.9750   -0.5169    1.2469 C   0  0  1  0  0  0  0  0  0  0  0  0
   -8.6460    2.1881   -9.6010 C   0  0  2  0  0  0  0  0  0  0  0  0
   -7.5367    1.7448  -11.8339 C   0  0  1  0  0  0  0  0  0  0  0  0
   -6.7618    3.5579  -10.3586 C   0  0  0  0  0  0  0  0  0  0  0  0
   -0.6128    0.0568    1.2739 C   0  0  0  0  0  0  0  0  0  0  0  0
   -7.9905    2.8915  -10.8531 C   0  0  2  0  0  0  0  0  0  0  0  0
    0.0926   -0.0977    2.3001 O   0  0  0  0  0  0  0  0  0  0  0  0
   -8.9794    3.8657  -11.5648 C   0  0  0  0  0  0  0  0  0  0  0  0
   -4.6424    2.2812   -4.1519 H   0  0  0  0  0  0  0  0  0  0  0  0
   -4.3703    2.7348   -5.8236 H   0  0  0  0  0  0  0  0  0  0  0  0
   -5.7056    1.6712   -5.3957 H   0  0  0  0  0  0  0  0  0  0  0  0
   -1.7186   -0.1387   -5.1958 H   0  0  0  0  0  0  0  0  0  0  0  0
   -3.5899   -0.7703   -7.0630 H   0  0  0  0  0  0  0  0  0  0  0  0
   -3.7148   -1.4545   -4.7398 H   0  0  0  0  0  0  0  0  0  0  0  0
   -5.3026   -0.7195   -4.6254 H   0  0  0  0  0  0  0  0  0  0  0  0
   -2.5267    2.2088   -3.4348 H   0  0  0  0  0  0  0  0  0  0  0  0
   -1.9571    2.7211   -6.1501 H   0  0  0  0  0  0  0  0  0  0  0  0
   -0.6190    1.5689   -6.3851 H   0  0  0  0  0  0  0  0  0  0  0  0
   -1.7982    0.3260   -7.9887 H   0  0  0  0  0  0  0  0  0  0  0  0
   -2.7021    1.8364   -8.1869 H   0  0  0  0  0  0  0  0  0  0  0  0
   -4.2185   -1.1484   -2.4091 H   0  0  0  0  0  0  0  0  0  0  0  0
   -4.6278    0.5449   -2.6169 H   0  0  0  0  0  0  0  0  0  0  0  0
   -1.8597   -0.7294   -2.8644 H   0  0  0  0  0  0  0  0  0  0  0  0
    0.1694    0.7833   -3.5448 H   0  0  0  0  0  0  0  0  0  0  0  0
   -0.1670    2.4685   -3.9718 H   0  0  0  0  0  0  0  0  0  0  0  0
   -2.9115    1.3069   -0.8502 H   0  0  0  0  0  0  0  0  0  0  0  0
   -0.8584    3.0084   -1.7068 H   0  0  0  0  0  0  0  0  0  0  0  0
    0.7435    2.2998   -1.6913 H   0  0  0  0  0  0  0  0  0  0  0  0
   -3.5470   -0.9266   -0.1664 H   0  0  0  0  0  0  0  0  0  0  0  0
   -1.9728   -1.5955   -0.6129 H   0  0  0  0  0  0  0  0  0  0  0  0
   -7.9987    0.1954   -8.9100 H   0  0  0  0  0  0  0  0  0  0  0  0
   -7.4910    1.5133   -7.8572 H   0  0  0  0  0  0  0  0  0  0  0  0
   -5.5513    0.8367  -11.6994 H   0  0  0  0  0  0  0  0  0  0  0  0
   -6.8468   -0.2254  -11.1454 H   0  0  0  0  0  0  0  0  0  0  0  0
   -5.0192    3.0671   -9.3634 H   0  0  0  0  0  0  0  0  0  0  0  0
    0.7668    1.2288    0.3393 H   0  0  0  0  0  0  0  0  0  0  0  0
   -2.6467    0.1584    1.7846 H   0  0  0  0  0  0  0  0  0  0  0  0
   -1.9786   -1.4845    1.7575 H   0  0  0  0  0  0  0  0  0  0  0  0
   -8.9785    2.9462   -8.8832 H   0  0  0  0  0  0  0  0  0  0  0  0
   -9.5295    1.6209   -9.9070 H   0  0  0  0  0  0  0  0  0  0  0  0
   -7.0951    2.1764  -12.7390 H   0  0  0  0  0  0  0  0  0  0  0  0
   -8.4046    1.1548  -12.1467 H   0  0  0  0  0  0  0  0  0  0  0  0
   -6.6934    4.6049  -10.5174 H   0  0  0  0  0  0  0  0  0  0  0  0
   -8.5132    4.3132  -12.4470 H   0  0  0  0  0  0  0  0  0  0  0  0
   -9.2803    4.6721  -10.8922 H   0  0  0  0  0  0  0  0  0  0  0  0
   -9.8765    3.3342  -11.8879 H   0  0  0  0  0  0  0  0  0  0  0  0
  2  1  1  0  0  0  0 
  2  3  1  0  0  0  0 
  2  4  1  0  0  0  0 
  2  5  1  0  0  0  0 
  3  6  1  0  0  0  0 
  3  7  1  0  0  0  0 
  4  8  1  0  0  0  0 
  4  9  1  0  0  0  0 
  5 10  1  0  0  0  0 
  6 11  1  0  0  0  0 
  6 12  1  0  0  0  0 
  7  9  1  0  0  0  0 
  8 13  1  0  0  0  0 
 11 10  1  0  0  0  0 
 11 14  1  0  0  0  0 
 12 15  1  0  0  0  0 
 13 16  2  0  0  0  0 
 13 17  1  0  0  0  0 
 14 18  1  0  0  0  0 
 14 19  1  0  0  0  0 
 15 18  1  0  0  0  0 
 17 20  1  0  0  0  0 
 17 21  1  0  0  0  0 
 17 22  1  0  0  0  0 
 18 23  2  0  0  0  0 
 19 24  1  0  0  0  0 
 20 25  1  0  0  0  0 
 21 26  1  0  0  0  0 
 22 27  2  0  0  0  0 
 23 28  1  0  0  0  0 
 24 28  1  0  0  0  0 
 25 29  1  0  0  0  0 
 26 29  1  0  0  0  0 
 27 29  1  0  0  0  0 
 28 30  2  0  0  0  0 
 29 31  1  0  0  0  0 
 32  1  1  0  0  0  0 
 33  1  1  0  0  0  0 
 34  1  1  0  0  0  0 
  3 35  1  0  0  0  0 
  4 36  1  0  0  0  0 
 37  5  1  0  0  0  0 
 38  5  1  0  0  0  0 
  6 39  1  0  0  0  0 
 40  7  1  0  0  0  0 
 41  7  1  0  0  0  0 
 42  9  1  0  0  0  0 
 43  9  1  0  0  0  0 
 44 10  1  0  0  0  0 
 45 10  1  0  0  0  0 
 11 46  1  0  0  0  0 
 47 12  1  0  0  0  0 
 48 12  1  0  0  0  0 
 14 49  1  0  0  0  0 
 50 15  1  0  0  0  0 
 51 15  1  0  0  0  0 
 52 19  1  0  0  0  0 
 53 19  1  0  0  0  0 
 54 20  1  0  0  0  0 
 55 20  1  0  0  0  0 
 56 21  1  0  0  0  0 
 57 21  1  0  0  0  0 
 58 22  1  0  0  0  0 
 59 23  1  0  0  0  0 
 60 24  1  0  0  0  0 
 61 24  1  0  0  0  0 
 62 25  1  0  0  0  0 
 63 25  1  0  0  0  0 
 64 26  1  0  0  0  0 
 65 26  1  0  0  0  0 
 66 27  1  0  0  0  0 
 67 31  1  0  0  0  0 
 68 31  1  0  0  0  0 
 69 31  1  0  0  0  0 
M  END
> <cdk:Title>
nandrolone cyclotate

> <Conformer>
1

> <SuperDrugID>
SD001676

$$$$
