fospropofol
  CDK     0628171801

 40 40  0  0  0  0  0  0  0  0999 V2000
    4.9939    4.3059   -0.5346 O   0  0  0  0  0  0  0  0  0  0  0  0
    3.9579    3.6406   -1.2937 C   0  0  2  0  0  0  0  0  0  0  0  0
    6.2338    4.3149   -1.1277 C   0  0  0  0  0  0  0  0  0  0  0  0
    2.6868    3.7204   -0.6204 O   0  0  0  0  0  0  0  0  0  0  0  0
    6.5899    5.3885   -1.9966 C   0  0  0  0  0  0  0  0  0  0  0  0
    7.1606    3.2752   -0.8254 C   0  0  0  0  0  0  0  0  0  0  0  0
    2.0884    5.1926   -0.4380 P   0  0  2  0  0  0  0  0  0  0  0  0
    5.6484    6.5264   -2.2952 C   0  0  1  0  0  0  0  0  0  0  0  0
    7.8759    5.3777   -2.5889 C   0  0  0  0  0  0  0  0  0  0  0  0
    6.8270    2.1566    0.1264 C   0  0  2  0  0  0  0  0  0  0  0  0
    8.4344    3.3109   -1.4425 C   0  0  0  0  0  0  0  0  0  0  0  0
    2.9200    5.9952    0.4648 O   0  0  0  0  0  0  0  0  0  0  0  0
    0.6308    5.0525    0.1686 O   0  0  0  0  0  0  0  0  0  0  0  0
    1.9624    5.8985   -1.8499 O   0  0  0  0  0  0  0  0  0  0  0  0
    6.1981    7.8990   -1.8199 C   0  0  0  0  0  0  0  0  0  0  0  0
    5.2313    6.5683   -3.7912 C   0  0  0  0  0  0  0  0  0  0  0  0
    8.7903    4.3493   -2.3160 C   0  0  0  0  0  0  0  0  0  0  0  0
    7.7552    2.1415    1.3715 C   0  0  0  0  0  0  0  0  0  0  0  0
    6.8048    0.7748   -0.5826 C   0  0  0  0  0  0  0  0  0  0  0  0
    4.1911    2.5787   -1.3829 H   0  0  0  0  0  0  0  0  0  0  0  0
    3.8738    4.0350   -2.3101 H   0  0  0  0  0  0  0  0  0  0  0  0
    4.7193    6.3986   -1.7386 H   0  0  0  0  0  0  0  0  0  0  0  0
    8.1689    6.1243   -3.2253 H   0  0  0  0  0  0  0  0  0  0  0  0
    5.8211    2.2935    0.5310 H   0  0  0  0  0  0  0  0  0  0  0  0
    9.1264    2.5804   -1.2593 H   0  0  0  0  0  0  0  0  0  0  0  0
    0.1364    4.5116   -0.4805 H   0  0  0  0  0  0  0  0  0  0  0  0
    1.4248    5.2835   -2.3910 H   0  0  0  0  0  0  0  0  0  0  0  0
    5.4510    8.6809   -1.9814 H   0  0  0  0  0  0  0  0  0  0  0  0
    7.1015    8.1746   -2.3660 H   0  0  0  0  0  0  0  0  0  0  0  0
    6.4278    7.8650   -0.7529 H   0  0  0  0  0  0  0  0  0  0  0  0
    4.4741    7.3391   -3.9515 H   0  0  0  0  0  0  0  0  0  0  0  0
    6.0847    6.7915   -4.4320 H   0  0  0  0  0  0  0  0  0  0  0  0
    4.8073    5.6113   -4.0972 H   0  0  0  0  0  0  0  0  0  0  0  0
    9.7153    4.3566   -2.7533 H   0  0  0  0  0  0  0  0  0  0  0  0
    7.4317    1.3670    2.0717 H   0  0  0  0  0  0  0  0  0  0  0  0
    8.7895    1.9353    1.0910 H   0  0  0  0  0  0  0  0  0  0  0  0
    7.7147    3.1043    1.8863 H   0  0  0  0  0  0  0  0  0  0  0  0
    6.4692    0.0014    0.1115 H   0  0  0  0  0  0  0  0  0  0  0  0
    7.7973    0.5013   -0.9425 H   0  0  0  0  0  0  0  0  0  0  0  0
    6.1177    0.7907   -1.4302 H   0  0  0  0  0  0  0  0  0  0  0  0
  1  2  1  0  0  0  0 
  1  3  1  0  0  0  0 
  2  4  1  0  0  0  0 
  3  5  2  0  0  0  0 
  3  6  1  0  0  0  0 
  4  7  1  0  0  0  0 
  5  8  1  0  0  0  0 
  5  9  1  0  0  0  0 
  6 10  1  0  0  0  0 
  6 11  2  0  0  0  0 
  7 12  2  0  0  0  0 
  7 13  1  0  0  0  0 
  7 14  1  0  0  0  0 
  8 15  1  0  0  0  0 
  8 16  1  0  0  0  0 
  9 17  2  0  0  0  0 
 10 18  1  0  0  0  0 
 10 19  1  0  0  0  0 
 11 17  1  0  0  0  0 
  2 20  1  0  0  0  0 
  2 21  1  0  0  0  0 
  8 22  1  0  0  0  0 
  9 23  1  0  0  0  0 
 10 24  1  0  0  0  0 
 11 25  1  0  0  0  0 
 13 26  1  0  0  0  0 
 14 27  1  0  0  0  0 
 15 28  1  0  0  0  0 
 15 29  1  0  0  0  0 
 15 30  1  0  0  0  0 
 16 31  1  0  0  0  0 
 16 32  1  0  0  0  0 
 16 33  1  0  0  0  0 
 17 34  1  0  0  0  0 
 18 35  1  0  0  0  0 
 18 36  1  0  0  0  0 
 18 37  1  0  0  0  0 
 19 38  1  0  0  0  0 
 19 39  1  0  0  0  0 
 19 40  1  0  0  0  0 
M  END
> <cdk:Title>
fospropofol

> <Conformer>
1

> <SuperDrugID>
SD002810

$$$$
