apraclonidine
  CDK     0628171801

 25 26  0  0  0  0  0  0  0  0999 V2000
   -1.1790    3.4511    2.4965 N   0  0  0  0  0  0  0  0  0  0  0  0
   -0.6795    2.4685    1.7462 C   0  0  0  0  0  0  0  0  0  0  0  0
   -2.1919    3.4661    3.2858 C   0  0  0  0  0  0  0  0  0  0  0  0
   -0.4224    2.7603    0.3819 C   0  0  0  0  0  0  0  0  0  0  0  0
   -0.3616    1.1734    2.2432 C   0  0  0  0  0  0  0  0  0  0  0  0
   -2.5433    4.5230    3.9730 N   0  0  0  0  0  0  0  0  0  0  0  0
   -3.0368    2.4896    3.5154 N   0  0  0  0  0  0  0  0  0  0  0  0
   -0.7015    4.2995   -0.2799 Cl  0  0  0  0  0  0  0  0  0  0  0  0
    0.0779    1.7634   -0.4779 C   0  0  0  0  0  0  0  0  0  0  0  0
   -0.4654    0.7630    3.8870 Cl  0  0  0  0  0  0  0  0  0  0  0  0
    0.1159    0.1776    1.3657 C   0  0  0  0  0  0  0  0  0  0  0  0
   -3.6996    4.3070    4.7574 C   0  0  1  0  0  0  0  0  0  0  0  0
   -4.0141    2.8210    4.4793 C   0  0  2  0  0  0  0  0  0  0  0  0
    0.3348    0.4695    0.0068 C   0  0  0  0  0  0  0  0  0  0  0  0
    0.7983   -0.4802   -0.8273 N   0  0  0  0  0  0  0  0  0  0  0  0
   -2.0676    5.3682    3.9407 H   0  0  0  0  0  0  0  0  0  0  0  0
   -2.9966    1.6307    3.0656 H   0  0  0  0  0  0  0  0  0  0  0  0
    0.2575    1.9785   -1.4627 H   0  0  0  0  0  0  0  0  0  0  0  0
    0.3194   -0.7636    1.7157 H   0  0  0  0  0  0  0  0  0  0  0  0
   -3.4852    4.4854    5.8122 H   0  0  0  0  0  0  0  0  0  0  0  0
   -4.5113    4.9568    4.4219 H   0  0  0  0  0  0  0  0  0  0  0  0
   -3.8882    2.2028    5.3729 H   0  0  0  0  0  0  0  0  0  0  0  0
   -5.0170    2.6889    4.0676 H   0  0  0  0  0  0  0  0  0  0  0  0
    1.0010   -1.3670   -0.4919 H   0  0  0  0  0  0  0  0  0  0  0  0
    0.9270   -0.2775   -1.7668 H   0  0  0  0  0  0  0  0  0  0  0  0
  1  2  1  0  0  0  0 
  1  3  2  0  0  0  0 
  2  4  2  0  0  0  0 
  2  5  1  0  0  0  0 
  3  6  1  0  0  0  0 
  3  7  1  0  0  0  0 
  4  8  1  0  0  0  0 
  4  9  1  0  0  0  0 
  5 10  1  0  0  0  0 
  5 11  2  0  0  0  0 
  6 12  1  0  0  0  0 
  7 13  1  0  0  0  0 
  9 14  2  0  0  0  0 
 11 14  1  0  0  0  0 
 12 13  1  0  0  0  0 
 14 15  1  0  0  0  0 
 16  6  1  0  0  0  0 
 17  7  1  0  0  0  0 
 18  9  1  0  0  0  0 
 19 11  1  0  0  0  0 
 20 12  1  0  0  0  0 
 21 12  1  0  0  0  0 
 22 13  1  0  0  0  0 
 23 13  1  0  0  0  0 
 24 15  1  0  0  0  0 
 25 15  1  0  0  0  0 
M  END
> <cdk:Title>
apraclonidine

> <Conformer>
1

> <SuperDrugID>
SD000191

$$$$
