afloqualone
  CDK     0628171802

 35 37  0  0  0  0  0  0  0  0999 V2000
    0.5135    4.9813   -2.4933 C   0  0  0  0  0  0  0  0  0  0  0  0
    1.7353    4.2073   -2.8357 C   0  0  0  0  0  0  0  0  0  0  0  0
    2.6298    4.6908   -3.8200 C   0  0  0  0  0  0  0  0  0  0  0  0
    3.8086    3.9897   -4.1285 C   0  0  0  0  0  0  0  0  0  0  0  0
    4.1072    2.7875   -3.4667 C   0  0  0  0  0  0  0  0  0  0  0  0
    3.2214    2.2814   -2.5006 C   0  0  0  0  0  0  0  0  0  0  0  0
    2.0318    2.9752   -2.1835 C   0  0  0  0  0  0  0  0  0  0  0  0
    1.1812    2.4368   -1.2443 N   0  0  0  0  0  0  0  0  0  0  0  0
    1.3063    2.8085    0.0771 C   0  0  0  0  0  0  0  0  0  0  0  0
    2.2177    3.5935    0.4417 O   0  0  0  0  0  0  0  0  0  0  0  0
    0.4054    2.3187    1.0536 C   0  0  0  0  0  0  0  0  0  0  0  0
   -0.5921    1.4122    0.6167 C   0  0  0  0  0  0  0  0  0  0  0  0
   -1.5208    0.8739    1.5270 C   0  0  0  0  0  0  0  0  0  0  0  0
   -1.4697    1.2407    2.8831 C   0  0  0  0  0  0  0  0  0  0  0  0
   -0.4967    2.1551    3.3329 C   0  0  0  0  0  0  0  0  0  0  0  0
   -0.4792    2.5221    4.6293 N   0  0  0  0  0  0  0  0  0  0  0  0
    0.4393    2.6886    2.4213 C   0  0  0  0  0  0  0  0  0  0  0  0
   -0.6595    1.0679   -0.6878 N   0  0  0  0  0  0  0  0  0  0  0  0
    0.1929    1.5527   -1.6251 C   0  0  0  0  0  0  0  0  0  0  0  0
   -0.0365    1.0814   -3.0158 C   0  0  1  0  0  0  0  0  0  0  0  0
    1.0004    0.2897   -3.4410 F   0  0  0  0  0  0  0  0  0  0  0  0
   -0.3748    4.3769   -2.6787 H   0  0  0  0  0  0  0  0  0  0  0  0
    0.4227    5.9006   -3.0764 H   0  0  0  0  0  0  0  0  0  0  0  0
    0.5375    5.2593   -1.4383 H   0  0  0  0  0  0  0  0  0  0  0  0
    2.4306    5.5618   -4.3208 H   0  0  0  0  0  0  0  0  0  0  0  0
    4.4522    4.3552   -4.8338 H   0  0  0  0  0  0  0  0  0  0  0  0
    4.9660    2.2793   -3.6884 H   0  0  0  0  0  0  0  0  0  0  0  0
    3.4454    1.4005   -2.0317 H   0  0  0  0  0  0  0  0  0  0  0  0
   -2.2404    0.2201    1.2080 H   0  0  0  0  0  0  0  0  0  0  0  0
   -2.1509    0.8452    3.5383 H   0  0  0  0  0  0  0  0  0  0  0  0
    0.1550    3.1861    4.9440 H   0  0  0  0  0  0  0  0  0  0  0  0
   -1.1114    2.1276    5.2513 H   0  0  0  0  0  0  0  0  0  0  0  0
    1.1393    3.3545    2.7600 H   0  0  0  0  0  0  0  0  0  0  0  0
   -0.9537    0.4907   -3.0926 H   0  0  0  0  0  0  0  0  0  0  0  0
   -0.1352    1.9369   -3.6856 H   0  0  0  0  0  0  0  0  0  0  0  0
  1  2  1  0  0  0  0 
  2  3  2  0  0  0  0 
  3  4  1  0  0  0  0 
  4  5  2  0  0  0  0 
  5  6  1  0  0  0  0 
  6  7  2  0  0  0  0 
  2  7  1  0  0  0  0 
  7  8  1  0  0  0  0 
  8  9  1  0  0  0  0 
  9 10  2  0  0  0  0 
  9 11  1  0  0  0  0 
 11 12  1  0  0  0  0 
 12 13  2  0  0  0  0 
 13 14  1  0  0  0  0 
 14 15  2  0  0  0  0 
 15 16  1  0  0  0  0 
 15 17  1  0  0  0  0 
 11 17  2  0  0  0  0 
 12 18  1  0  0  0  0 
 18 19  2  0  0  0  0 
  8 19  1  0  0  0  0 
 19 20  1  0  0  0  0 
 20 21  1  0  0  0  0 
  1 22  1  0  0  0  0 
  1 23  1  0  0  0  0 
  1 24  1  0  0  0  0 
  3 25  1  0  0  0  0 
  4 26  1  0  0  0  0 
  5 27  1  0  0  0  0 
  6 28  1  0  0  0  0 
 13 29  1  0  0  0  0 
 14 30  1  0  0  0  0 
 16 31  1  0  0  0  0 
 16 32  1  0  0  0  0 
 17 33  1  0  0  0  0 
 20 34  1  0  0  0  0 
 20 35  1  0  0  0  0 
M  END
> <cdk:Title>
afloqualone

> <Conformer>
1

> <SuperDrugID>
SD000072

$$$$
