cyclofenil
  CDK     0628171802

 51 53  0  0  0  0  0  0  0  0999 V2000
    5.5356   -3.4965    2.4338 C   0  0  0  0  0  0  0  0  0  0  0  0
    6.0435   -2.9106    1.2759 C   0  0  0  0  0  0  0  0  0  0  0  0
    6.1987   -4.6539    2.8441 C   0  0  0  0  0  0  0  0  0  0  0  0
    4.5044   -2.9544    3.1436 C   0  0  0  0  0  0  0  0  0  0  0  0
    7.1973   -2.0941    1.3335 C   0  0  0  0  0  0  0  0  0  0  0  0
    5.4030   -3.0979    0.0288 C   0  0  0  0  0  0  0  0  0  0  0  0
    7.1183   -4.5944    3.9160 C   0  0  0  0  0  0  0  0  0  0  0  0
    5.9333   -5.9052    2.2440 C   0  0  0  0  0  0  0  0  0  0  0  0
    3.9415   -3.5861    4.3594 C   0  0  1  0  0  0  0  0  0  0  0  0
    3.8536   -1.6699    2.7967 C   0  0  2  0  0  0  0  0  0  0  0  0
    7.6875   -1.4640    0.1737 C   0  0  0  0  0  0  0  0  0  0  0  0
    5.8894   -2.4542   -1.1236 C   0  0  0  0  0  0  0  0  0  0  0  0
    7.7512   -5.7620    4.3808 C   0  0  0  0  0  0  0  0  0  0  0  0
    6.5629   -7.0724    2.7185 C   0  0  0  0  0  0  0  0  0  0  0  0
    2.4025   -3.7738    4.2699 C   0  0  1  0  0  0  0  0  0  0  0  0
    2.3129   -1.8067    2.6605 C   0  0  2  0  0  0  0  0  0  0  0  0
    7.0325   -1.6333   -1.0678 C   0  0  0  0  0  0  0  0  0  0  0  0
    7.4886   -7.0139    3.7874 C   0  0  0  0  0  0  0  0  0  0  0  0
    1.6899   -2.4420    3.9286 C   0  0  1  0  0  0  0  0  0  0  0  0
    7.4154   -1.0679   -2.2550 O   0  0  0  0  0  0  0  0  0  0  0  0
    8.1615   -8.0905    4.3126 O   0  0  0  0  0  0  0  0  0  0  0  0
    8.3367   -0.1131   -2.5808 C   0  0  0  0  0  0  0  0  0  0  0  0
    8.3344   -9.3769    3.8767 C   0  0  0  0  0  0  0  0  0  0  0  0
    8.5536    0.2029   -3.9988 C   0  0  0  0  0  0  0  0  0  0  0  0
    8.9827    0.5338   -1.7259 O   0  0  0  0  0  0  0  0  0  0  0  0
    9.0734  -10.3247    4.7221 C   0  0  0  0  0  0  0  0  0  0  0  0
    7.9324   -9.7701    2.7584 O   0  0  0  0  0  0  0  0  0  0  0  0
    7.6809   -1.9409    2.2241 H   0  0  0  0  0  0  0  0  0  0  0  0
    4.5712   -3.6899   -0.0481 H   0  0  0  0  0  0  0  0  0  0  0  0
    7.3262   -3.7009    4.3725 H   0  0  0  0  0  0  0  0  0  0  0  0
    5.2698   -5.9814    1.4673 H   0  0  0  0  0  0  0  0  0  0  0  0
    4.3593   -4.5693    4.5810 H   0  0  0  0  0  0  0  0  0  0  0  0
    4.1727   -2.9537    5.2217 H   0  0  0  0  0  0  0  0  0  0  0  0
    4.2255   -1.2149    1.8774 H   0  0  0  0  0  0  0  0  0  0  0  0
    4.0677   -0.9521    3.5933 H   0  0  0  0  0  0  0  0  0  0  0  0
    8.5256   -0.8873    0.2510 H   0  0  0  0  0  0  0  0  0  0  0  0
    5.3975   -2.5820   -2.0110 H   0  0  0  0  0  0  0  0  0  0  0  0
    8.4088   -5.6938    5.1617 H   0  0  0  0  0  0  0  0  0  0  0  0
    6.3210   -7.9620    2.2825 H   0  0  0  0  0  0  0  0  0  0  0  0
    2.1705   -4.5173    3.5023 H   0  0  0  0  0  0  0  0  0  0  0  0
    2.0263   -4.1496    5.2252 H   0  0  0  0  0  0  0  0  0  0  0  0
    2.0776   -2.4248    1.7889 H   0  0  0  0  0  0  0  0  0  0  0  0
    1.8701   -0.8192    2.5021 H   0  0  0  0  0  0  0  0  0  0  0  0
    0.6252   -2.6233    3.7676 H   0  0  0  0  0  0  0  0  0  0  0  0
    1.7880   -1.7504    4.7709 H   0  0  0  0  0  0  0  0  0  0  0  0
    9.5998    0.0300   -4.2536 H   0  0  0  0  0  0  0  0  0  0  0  0
    7.9291   -0.4237   -4.6378 H   0  0  0  0  0  0  0  0  0  0  0  0
    8.3061    1.2493   -4.1837 H   0  0  0  0  0  0  0  0  0  0  0  0
   10.0145  -10.5927    4.2373 H   0  0  0  0  0  0  0  0  0  0  0  0
    8.4862  -11.2328    4.8782 H   0  0  0  0  0  0  0  0  0  0  0  0
    9.2946   -9.8832    5.6955 H   0  0  0  0  0  0  0  0  0  0  0  0
  1  2  1  0  0  0  0 
  1  3  1  0  0  0  0 
  1  4  2  0  0  0  0 
  2  5  2  0  0  0  0 
  2  6  1  0  0  0  0 
  3  7  2  0  0  0  0 
  3  8  1  0  0  0  0 
  4  9  1  0  0  0  0 
  4 10  1  0  0  0  0 
  5 11  1  0  0  0  0 
  6 12  2  0  0  0  0 
  7 13  1  0  0  0  0 
  8 14  2  0  0  0  0 
  9 15  1  0  0  0  0 
 10 16  1  0  0  0  0 
 11 17  2  0  0  0  0 
 12 17  1  0  0  0  0 
 13 18  2  0  0  0  0 
 14 18  1  0  0  0  0 
 15 19  1  0  0  0  0 
 16 19  1  0  0  0  0 
 17 20  1  0  0  0  0 
 18 21  1  0  0  0  0 
 20 22  1  0  0  0  0 
 21 23  1  0  0  0  0 
 22 24  1  0  0  0  0 
 22 25  2  0  0  0  0 
 23 26  1  0  0  0  0 
 23 27  2  0  0  0  0 
  5 28  1  0  0  0  0 
  6 29  1  0  0  0  0 
  7 30  1  0  0  0  0 
  8 31  1  0  0  0  0 
  9 32  1  0  0  0  0 
  9 33  1  0  0  0  0 
 10 34  1  0  0  0  0 
 10 35  1  0  0  0  0 
 11 36  1  0  0  0  0 
 12 37  1  0  0  0  0 
 13 38  1  0  0  0  0 
 14 39  1  0  0  0  0 
 15 40  1  0  0  0  0 
 15 41  1  0  0  0  0 
 16 42  1  0  0  0  0 
 16 43  1  0  0  0  0 
 19 44  1  0  0  0  0 
 19 45  1  0  0  0  0 
 24 46  1  0  0  0  0 
 24 47  1  0  0  0  0 
 24 48  1  0  0  0  0 
 26 49  1  0  0  0  0 
 26 50  1  0  0  0  0 
 26 51  1  0  0  0  0 
M  END
> <cdk:Title>
cyclofenil

> <Conformer>
1

> <SuperDrugID>
SD000662

$$$$
