dimorpholamine
  CDK     0628171801

 66 67  0  0  0  0  0  0  0  0999 V2000
   -7.5909    4.2164    1.3970 N   0  0  0  0  0  0  0  0  0  0  0  0
   -6.8068    5.3269    1.7030 C   0  0  0  0  0  0  0  0  0  0  0  0
   -7.1362    3.2887    0.3650 C   0  0  1  0  0  0  0  0  0  0  0  0
   -8.8947    4.0108    2.0203 C   0  0  1  0  0  0  0  0  0  0  0  0
   -6.2036    5.8605    0.7385 O   0  0  0  0  0  0  0  0  0  0  0  0
   -6.6127    5.9054    2.9515 N   0  0  0  0  0  0  0  0  0  0  0  0
   -5.7519    2.6557    0.7051 C   0  0  1  0  0  0  0  0  0  0  0  0
   -9.8179    5.2564    1.9345 C   0  0  1  0  0  0  0  0  0  0  0  0
   -6.6439    5.1478    4.1851 C   0  0  1  0  0  0  0  0  0  0  0  0
   -6.2553    7.3077    3.1073 C   0  0  2  0  0  0  0  0  0  0  0  0
   -5.5562    1.3733    0.0560 N   0  0  0  0  0  0  0  0  0  0  0  0
  -11.2199    5.0179    2.5524 C   0  0  1  0  0  0  0  0  0  0  0  0
   -7.5814    5.8352    5.2088 C   0  0  1  0  0  0  0  0  0  0  0  0
   -7.1958    7.9731    4.1462 C   0  0  2  0  0  0  0  0  0  0  0  0
   -5.9013    0.1168    0.6143 C   0  0  0  0  0  0  0  0  0  0  0  0
   -4.9121    1.4480   -1.2609 C   0  0  1  0  0  0  0  0  0  0  0  0
  -12.1346    6.2559    2.4278 C   0  0  0  0  0  0  0  0  0  0  0  0
   -7.2148    7.2221    5.3786 O   0  0  0  0  0  0  0  0  0  0  0  0
   -5.5422   -0.8535   -0.1014 O   0  0  0  0  0  0  0  0  0  0  0  0
   -6.5491   -0.2563    1.8221 N   0  0  0  0  0  0  0  0  0  0  0  0
   -3.3797    1.2171   -1.1536 C   0  0  1  0  0  0  0  0  0  0  0  0
   -6.6155   -1.6701    2.2048 C   0  0  1  0  0  0  0  0  0  0  0  0
   -7.0626    0.6708    2.8201 C   0  0  2  0  0  0  0  0  0  0  0  0
   -2.6778    1.1645   -2.5362 C   0  0  2  0  0  0  0  0  0  0  0  0
   -7.8923   -2.0624    2.9859 C   0  0  1  0  0  0  0  0  0  0  0  0
   -8.2296    0.1662    3.7187 C   0  0  2  0  0  0  0  0  0  0  0  0
   -1.1538    0.9369   -2.4310 C   0  0  0  0  0  0  0  0  0  0  0  0
   -8.0648   -1.2010    4.1195 O   0  0  0  0  0  0  0  0  0  0  0  0
   -7.8486    2.4735    0.2055 H   0  0  0  0  0  0  0  0  0  0  0  0
   -7.0682    3.8072   -0.5943 H   0  0  0  0  0  0  0  0  0  0  0  0
   -9.4396    3.2070    1.5195 H   0  0  0  0  0  0  0  0  0  0  0  0
   -8.7985    3.6957    3.0563 H   0  0  0  0  0  0  0  0  0  0  0  0
   -4.9783    3.3719    0.4053 H   0  0  0  0  0  0  0  0  0  0  0  0
   -5.5991    2.5672    1.7769 H   0  0  0  0  0  0  0  0  0  0  0  0
   -9.3496    6.0927    2.4552 H   0  0  0  0  0  0  0  0  0  0  0  0
   -9.9325    5.5326    0.8822 H   0  0  0  0  0  0  0  0  0  0  0  0
   -6.9129    4.1005    4.0610 H   0  0  0  0  0  0  0  0  0  0  0  0
   -5.6312    5.1386    4.5981 H   0  0  0  0  0  0  0  0  0  0  0  0
   -6.3318    7.8765    2.1767 H   0  0  0  0  0  0  0  0  0  0  0  0
   -5.2193    7.3831    3.4561 H   0  0  0  0  0  0  0  0  0  0  0  0
  -11.7034    4.1814    2.0423 H   0  0  0  0  0  0  0  0  0  0  0  0
  -11.1159    4.7564    3.6099 H   0  0  0  0  0  0  0  0  0  0  0  0
   -8.6235    5.7528    4.8904 H   0  0  0  0  0  0  0  0  0  0  0  0
   -7.4849    5.3394    6.1762 H   0  0  0  0  0  0  0  0  0  0  0  0
   -8.2095    8.0586    3.7446 H   0  0  0  0  0  0  0  0  0  0  0  0
   -6.8397    8.9829    4.3617 H   0  0  0  0  0  0  0  0  0  0  0  0
   -5.3484    0.7206   -1.9527 H   0  0  0  0  0  0  0  0  0  0  0  0
   -5.0826    2.4194   -1.7372 H   0  0  0  0  0  0  0  0  0  0  0  0
  -13.1120    6.0293    2.8551 H   0  0  0  0  0  0  0  0  0  0  0  0
  -11.7053    7.1050    2.9635 H   0  0  0  0  0  0  0  0  0  0  0  0
  -12.2702    6.5271    1.3787 H   0  0  0  0  0  0  0  0  0  0  0  0
   -2.9422    2.0258   -0.5625 H   0  0  0  0  0  0  0  0  0  0  0  0
   -3.1940    0.2795   -0.6250 H   0  0  0  0  0  0  0  0  0  0  0  0
   -6.5845   -2.3524    1.3511 H   0  0  0  0  0  0  0  0  0  0  0  0
   -5.7422   -1.8886    2.8259 H   0  0  0  0  0  0  0  0  0  0  0  0
   -7.4731    1.5526    2.3544 H   0  0  0  0  0  0  0  0  0  0  0  0
   -6.2314    0.9664    3.4653 H   0  0  0  0  0  0  0  0  0  0  0  0
   -2.8468    2.1054   -3.0654 H   0  0  0  0  0  0  0  0  0  0  0  0
   -3.1090    0.3566   -3.1326 H   0  0  0  0  0  0  0  0  0  0  0  0
   -8.7645   -2.0155    2.3255 H   0  0  0  0  0  0  0  0  0  0  0  0
   -7.8008   -3.0890    3.3494 H   0  0  0  0  0  0  0  0  0  0  0  0
   -9.1909    0.2858    3.2059 H   0  0  0  0  0  0  0  0  0  0  0  0
   -8.2708    0.7720    4.6267 H   0  0  0  0  0  0  0  0  0  0  0  0
   -0.7253    0.8653   -3.4324 H   0  0  0  0  0  0  0  0  0  0  0  0
   -0.6873    1.7750   -1.9115 H   0  0  0  0  0  0  0  0  0  0  0  0
   -0.9309    0.0147   -1.8893 H   0  0  0  0  0  0  0  0  0  0  0  0
  1  2  1  0  0  0  0 
  1  3  1  0  0  0  0 
  1  4  1  0  0  0  0 
  2  5  2  0  0  0  0 
  2  6  1  0  0  0  0 
  3  7  1  0  0  0  0 
  4  8  1  0  0  0  0 
  6  9  1  0  0  0  0 
  6 10  1  0  0  0  0 
  7 11  1  0  0  0  0 
  8 12  1  0  0  0  0 
  9 13  1  0  0  0  0 
 10 14  1  0  0  0  0 
 11 15  1  0  0  0  0 
 11 16  1  0  0  0  0 
 12 17  1  0  0  0  0 
 13 18  1  0  0  0  0 
 14 18  1  0  0  0  0 
 15 19  2  0  0  0  0 
 15 20  1  0  0  0  0 
 16 21  1  0  0  0  0 
 20 22  1  0  0  0  0 
 20 23  1  0  0  0  0 
 21 24  1  0  0  0  0 
 22 25  1  0  0  0  0 
 23 26  1  0  0  0  0 
 24 27  1  0  0  0  0 
 25 28  1  0  0  0  0 
 26 28  1  0  0  0  0 
  3 29  1  0  0  0  0 
  3 30  1  0  0  0  0 
  4 31  1  0  0  0  0 
  4 32  1  0  0  0  0 
  7 33  1  0  0  0  0 
  7 34  1  0  0  0  0 
  8 35  1  0  0  0  0 
  8 36  1  0  0  0  0 
  9 37  1  0  0  0  0 
  9 38  1  0  0  0  0 
 10 39  1  0  0  0  0 
 10 40  1  0  0  0  0 
 12 41  1  0  0  0  0 
 12 42  1  0  0  0  0 
 13 43  1  0  0  0  0 
 13 44  1  0  0  0  0 
 14 45  1  0  0  0  0 
 14 46  1  0  0  0  0 
 16 47  1  0  0  0  0 
 16 48  1  0  0  0  0 
 17 49  1  0  0  0  0 
 17 50  1  0  0  0  0 
 17 51  1  0  0  0  0 
 21 52  1  0  0  0  0 
 21 53  1  0  0  0  0 
 22 54  1  0  0  0  0 
 22 55  1  0  0  0  0 
 23 56  1  0  0  0  0 
 23 57  1  0  0  0  0 
 24 58  1  0  0  0  0 
 24 59  1  0  0  0  0 
 25 60  1  0  0  0  0 
 25 61  1  0  0  0  0 
 26 62  1  0  0  0  0 
 26 63  1  0  0  0  0 
 27 64  1  0  0  0  0 
 27 65  1  0  0  0  0 
 27 66  1  0  0  0  0 
M  END
> <cdk:Title>
dimorpholamine

> <Conformer>
1

> <SuperDrugID>
SD003189

$$$$
