laropiprant
  CDK     0628171801

 48 51  0  0  0  0  0  0  0  0999 V2000
    0.4961    0.6789    0.3363 C   0  0  1  0  0  0  0  0  0  0  0  0
   -0.2429   -0.0440    1.3387 N   0  0  0  0  0  0  0  0  0  0  0  0
    1.6195   -0.1172   -0.2279 C   0  0  0  0  0  0  0  0  0  0  0  0
   -1.5199   -0.5663    1.3240 C   0  0  0  0  0  0  0  0  0  0  0  0
    0.3149   -0.3726    2.5322 C   0  0  0  0  0  0  0  0  0  0  0  0
    1.3677   -1.3696   -0.8375 C   0  0  0  0  0  0  0  0  0  0  0  0
    2.9504    0.3591   -0.1906 C   0  0  0  0  0  0  0  0  0  0  0  0
   -1.6794   -1.3102    2.5130 C   0  0  0  0  0  0  0  0  0  0  0  0
   -2.6297   -0.5125    0.4207 C   0  0  0  0  0  0  0  0  0  0  0  0
   -0.5079   -1.2037    3.2285 C   0  0  0  0  0  0  0  0  0  0  0  0
    1.5498   -0.0819    3.2856 C   0  0  1  0  0  0  0  0  0  0  0  0
    2.4147   -2.1199   -1.4026 C   0  0  0  0  0  0  0  0  0  0  0  0
    3.9983   -0.3862   -0.7598 C   0  0  0  0  0  0  0  0  0  0  0  0
   -2.8452   -2.0074    2.8565 C   0  0  0  0  0  0  0  0  0  0  0  0
   -2.6987    0.3919   -1.1126 S   0  0  1  0  0  0  0  0  0  0  0  0
   -3.8158   -1.2127    0.7688 C   0  0  0  0  0  0  0  0  0  0  0  0
    0.0410   -1.7196    4.4710 C   0  0  2  0  0  0  0  0  0  0  0  0
    1.5054    1.2980    4.0177 C   0  0  1  0  0  0  0  0  0  0  0  0
    1.5203   -1.2674    4.3106 C   0  0  1  0  0  0  0  0  0  0  0  0
    3.7337   -1.6288   -1.3678 C   0  0  0  0  0  0  0  0  0  0  0  0
   -3.9281   -1.9433    1.9680 C   0  0  0  0  0  0  0  0  0  0  0  0
   -2.6126    2.1993   -0.8088 C   0  0  0  0  0  0  0  0  0  0  0  0
   -1.5354   -0.0818   -2.1124 O   0  0  0  0  0  0  0  0  0  0  0  0
   -4.0791    0.1197   -1.8892 O   0  0  0  0  0  0  0  0  0  0  0  0
    1.5622    2.4827    3.1434 C   0  0  0  0  0  0  0  0  0  0  0  0
    4.9933   -2.5249   -2.0587 Cl  0  0  0  0  0  0  0  0  0  0  0  0
   -5.0426   -2.5590    2.2574 F   0  0  0  0  0  0  0  0  0  0  0  0
    2.6629    2.7419    2.4037 O   0  0  0  0  0  0  0  0  0  0  0  0
    0.6073    3.2895    3.0868 O   0  0  0  0  0  0  0  0  0  0  0  0
   -0.1132    0.9662   -0.4985 H   0  0  0  0  0  0  0  0  0  0  0  0
    0.8418    1.6203    0.7559 H   0  0  0  0  0  0  0  0  0  0  0  0
    0.4161   -1.7438   -0.8763 H   0  0  0  0  0  0  0  0  0  0  0  0
    3.1705    1.2550    0.2442 H   0  0  0  0  0  0  0  0  0  0  0  0
    2.4371   -0.1569    2.6496 H   0  0  0  0  0  0  0  0  0  0  0  0
    2.2082   -3.0200   -1.8393 H   0  0  0  0  0  0  0  0  0  0  0  0
    4.9515   -0.0146   -0.7313 H   0  0  0  0  0  0  0  0  0  0  0  0
   -2.9049   -2.5400    3.7284 H   0  0  0  0  0  0  0  0  0  0  0  0
   -4.6290   -1.2007    0.1486 H   0  0  0  0  0  0  0  0  0  0  0  0
   -0.0486   -2.8073    4.5285 H   0  0  0  0  0  0  0  0  0  0  0  0
   -0.4498   -1.2440    5.3233 H   0  0  0  0  0  0  0  0  0  0  0  0
    0.5977    1.3503    4.6275 H   0  0  0  0  0  0  0  0  0  0  0  0
    2.3623    1.3629    4.6925 H   0  0  0  0  0  0  0  0  0  0  0  0
    2.1069   -2.1004    3.9088 H   0  0  0  0  0  0  0  0  0  0  0  0
    1.9525   -0.9995    5.2774 H   0  0  0  0  0  0  0  0  0  0  0  0
   -3.5847    2.5557   -0.4669 H   0  0  0  0  0  0  0  0  0  0  0  0
   -2.3443    2.7104   -1.7343 H   0  0  0  0  0  0  0  0  0  0  0  0
   -1.8753    2.4280   -0.0410 H   0  0  0  0  0  0  0  0  0  0  0  0
    2.6833    3.5183    1.8050 H   0  0  0  0  0  0  0  0  0  0  0  0
  1  2  1  0  0  0  0 
  1  3  1  0  0  0  0 
  2  4  1  0  0  0  0 
  2  5  1  0  0  0  0 
  3  6  2  0  0  0  0 
  3  7  1  0  0  0  0 
  4  8  1  0  0  0  0 
  4  9  2  0  0  0  0 
  5 10  2  0  0  0  0 
 11  5  1  0  0  0  0 
  6 12  1  0  0  0  0 
  7 13  2  0  0  0  0 
  8 10  1  0  0  0  0 
  8 14  2  0  0  0  0 
  9 15  1  0  0  0  0 
  9 16  1  0  0  0  0 
 10 17  1  0  0  0  0 
 11 18  1  0  0  0  0 
 11 19  1  0  0  0  0 
 12 20  2  0  0  0  0 
 13 20  1  0  0  0  0 
 14 21  1  0  0  0  0 
 15 22  1  0  0  0  0 
 15 23  2  0  0  0  0 
 15 24  2  0  0  0  0 
 16 21  2  0  0  0  0 
 17 19  1  0  0  0  0 
 18 25  1  0  0  0  0 
 20 26  1  0  0  0  0 
 21 27  1  0  0  0  0 
 25 28  1  0  0  0  0 
 25 29  2  0  0  0  0 
  1 30  1  0  0  0  0 
  1 31  1  0  0  0  0 
  6 32  1  0  0  0  0 
  7 33  1  0  0  0  0 
 11 34  1  0  0  0  0 
 12 35  1  0  0  0  0 
 13 36  1  0  0  0  0 
 14 37  1  0  0  0  0 
 16 38  1  0  0  0  0 
 17 39  1  0  0  0  0 
 17 40  1  0  0  0  0 
 18 41  1  0  0  0  0 
 18 42  1  0  0  0  0 
 19 43  1  0  0  0  0 
 19 44  1  0  0  0  0 
 22 45  1  0  0  0  0 
 22 46  1  0  0  0  0 
 22 47  1  0  0  0  0 
 28 48  1  0  0  0  0 
M  END
> <cdk:Title>
laropiprant

> <Conformer>
1

> <SuperDrugID>
SD003499

$$$$
