sodium stibogluconate
  CDK     0628171801

 51 52  0  0  0  0  0  0  0  0999 V2000
    4.4712    2.0411    2.7636 O   0  0  0  0  0  0  0  0  0  0  0  0
    4.7958    4.0459    2.3085 Sb  0  0  1  0  0  0  0  0  0  0  0  0
    2.4867    1.7245    2.2204 Sb  0  0  1  0  0  0  0  0  0  0  0  0
    3.4602    4.9918    3.4262 O   0  0  0  0  0  0  0  0  0  0  0  0
    6.7423    4.8010    2.4448 O   0  0  0  0  0  0  0  0  0  0  0  0
    4.6734    4.5205    0.2794 O   0  0  0  0  0  0  0  0  0  0  0  0
    2.4912    2.1673    0.2895 O   0  0  0  0  0  0  0  0  0  0  0  0
    1.5814   -0.1071    2.6744 O   0  0  0  0  0  0  0  0  0  0  0  0
    1.0941    2.7951    3.3494 O   0  0  0  0  0  0  0  0  0  0  0  0
    6.9439    5.9493    1.5962 C   0  0  2  0  0  0  0  0  0  0  0  0
    5.9674    4.3754   -0.3223 C   0  0  2  0  0  0  0  0  0  0  0  0
    0.1509    0.0135    2.8067 C   0  0  2  0  0  0  0  0  0  0  0  0
    0.7081    2.0098    4.4860 C   0  0  2  0  0  0  0  0  0  0  0  0
    6.0461    7.1738    2.0034 C   0  0  1  0  0  0  0  0  0  0  0  0
    6.9400    5.5362    0.0796 C   0  0  1  0  0  0  0  0  0  0  0  0
    5.8046    4.2579   -1.7908 C   0  0  0  0  0  0  0  0  0  0  0  0
   -0.5481    0.4205    1.4590 C   0  0  1  0  0  0  0  0  0  0  0  0
   -0.2427    0.8285    4.0939 C   0  0  1  0  0  0  0  0  0  0  0  0
    0.1035    2.9031    5.5020 C   0  0  0  0  0  0  0  0  0  0  0  0
    5.9968    7.4167    3.5365 C   0  0  2  0  0  0  0  0  0  0  0  0
    6.5285    8.3918    1.4279 O   0  0  0  0  0  0  0  0  0  0  0  0
    6.7656    6.6717   -0.7704 O   0  0  0  0  0  0  0  0  0  0  0  0
    4.6101    4.4613   -2.3950 O   0  0  0  0  0  0  0  0  0  0  0  0
    6.7847    3.9822   -2.5185 O   0  0  0  0  0  0  0  0  0  0  0  0
   -0.0084   -0.3455    0.2208 C   0  0  1  0  0  0  0  0  0  0  0  0
   -1.9560    0.1727    1.4957 O   0  0  0  0  0  0  0  0  0  0  0  0
   -1.6004    1.2697    4.0342 O   0  0  0  0  0  0  0  0  0  0  0  0
   -0.1659    4.2030    5.2285 O   0  0  0  0  0  0  0  0  0  0  0  0
   -0.1841    2.4664    6.6405 O   0  0  0  0  0  0  0  0  0  0  0  0
    5.0836    8.4639    3.8527 O   0  0  0  0  0  0  0  0  0  0  0  0
   -0.2337   -1.7473    0.3345 O   0  0  0  0  0  0  0  0  0  0  0  0
    7.9682    6.2673    1.8173 H   0  0  0  0  0  0  0  0  0  0  0  0
   -0.1815   -1.0124    2.9933 H   0  0  0  0  0  0  0  0  0  0  0  0
    6.4028    3.4211   -0.0033 H   0  0  0  0  0  0  0  0  0  0  0  0
    1.6090    1.6013    4.9584 H   0  0  0  0  0  0  0  0  0  0  0  0
    5.0255    7.0169    1.6421 H   0  0  0  0  0  0  0  0  0  0  0  0
    7.9464    5.1743   -0.1544 H   0  0  0  0  0  0  0  0  0  0  0  0
   -0.4115    1.4903    1.2851 H   0  0  0  0  0  0  0  0  0  0  0  0
   -0.2131    0.1280    4.9357 H   0  0  0  0  0  0  0  0  0  0  0  0
    6.9852    7.6903    3.9138 H   0  0  0  0  0  0  0  0  0  0  0  0
    5.6618    6.5255    4.0689 H   0  0  0  0  0  0  0  0  0  0  0  0
    6.3083    8.3475    0.4784 H   0  0  0  0  0  0  0  0  0  0  0  0
    5.8353    6.9504   -0.6409 H   0  0  0  0  0  0  0  0  0  0  0  0
    4.5339    4.4016   -3.3695 H   0  0  0  0  0  0  0  0  0  0  0  0
   -0.5105    0.0117   -0.6811 H   0  0  0  0  0  0  0  0  0  0  0  0
    1.0617   -0.1783    0.0962 H   0  0  0  0  0  0  0  0  0  0  0  0
   -2.3356    0.8661    2.0719 H   0  0  0  0  0  0  0  0  0  0  0  0
   -1.6130    1.9590    3.3375 H   0  0  0  0  0  0  0  0  0  0  0  0
   -0.5853    4.7725    5.9068 H   0  0  0  0  0  0  0  0  0  0  0  0
    5.0971    8.5248    4.8336 H   0  0  0  0  0  0  0  0  0  0  0  0
    0.1333   -2.1294   -0.4901 H   0  0  0  0  0  0  0  0  0  0  0  0
  1  2  1  0  0  0  0 
  1  3  1  0  0  0  0 
  2  4  2  0  0  0  0 
  2  5  1  0  0  0  0 
  2  6  1  0  0  0  0 
  3  7  2  0  0  0  0 
  3  8  1  0  0  0  0 
  3  9  1  0  0  0  0 
 10  5  1  0  0  0  0 
 11  6  1  0  0  0  0 
 12  8  1  0  0  0  0 
 13  9  1  0  0  0  0 
 14 10  1  0  0  0  0 
 10 15  1  0  0  0  0 
 10 32  1  0  0  0  0 
 15 11  1  0  0  0  0 
 11 16  1  0  0  0  0 
 12 17  1  0  0  0  0 
 18 12  1  0  0  0  0 
 12 33  1  0  0  0  0 
 13 18  1  0  0  0  0 
 13 19  1  0  0  0  0 
 14 20  1  0  0  0  0 
 14 21  1  0  0  0  0 
 15 22  1  0  0  0  0 
 16 23  1  0  0  0  0 
 16 24  2  0  0  0  0 
 17 25  1  0  0  0  0 
 17 26  1  0  0  0  0 
 18 27  1  0  0  0  0 
 19 28  1  0  0  0  0 
 19 29  2  0  0  0  0 
 20 30  1  0  0  0  0 
 25 31  1  0  0  0  0 
 11 34  1  0  0  0  0 
 13 35  1  0  0  0  0 
 14 36  1  0  0  0  0 
 15 37  1  0  0  0  0 
 17 38  1  0  0  0  0 
 18 39  1  0  0  0  0 
 20 40  1  0  0  0  0 
 20 41  1  0  0  0  0 
 21 42  1  0  0  0  0 
 22 43  1  0  0  0  0 
 23 44  1  0  0  0  0 
 25 45  1  0  0  0  0 
 25 46  1  0  0  0  0 
 26 47  1  0  0  0  0 
 27 48  1  0  0  0  0 
 28 49  1  0  0  0  0 
 30 50  1  0  0  0  0 
 31 51  1  0  0  0  0 
M  END
> <cdk:Title>
sodium stibogluconate

> <Conformer>
1

> <SuperDrugID>
SD003328

$$$$
