indalpine
  CDK     0628171801

 37 39  0  0  0  0  0  0  0  0999 V2000
   -0.9234   -3.5742   -2.9872 C   0  0  1  0  0  0  0  0  0  0  0  0
    0.3121   -3.1930   -2.1203 C   0  0  2  0  0  0  0  0  0  0  0  0
   -0.8068   -4.9381   -3.5568 C   0  0  0  0  0  0  0  0  0  0  0  0
    0.3082   -1.7367   -1.5442 C   0  0  2  0  0  0  0  0  0  0  0  0
   -0.1644   -5.3176   -4.7353 C   0  0  0  0  0  0  0  0  0  0  0  0
   -1.3302   -6.1200   -3.0222 C   0  0  0  0  0  0  0  0  0  0  0  0
    0.3038   -0.6445   -2.6611 C   0  0  2  0  0  0  0  0  0  0  0  0
    1.5296   -1.5208   -0.5911 C   0  0  1  0  0  0  0  0  0  0  0  0
   -0.3283   -6.6956   -4.8744 C   0  0  0  0  0  0  0  0  0  0  0  0
    0.5427   -4.5763   -5.7011 C   0  0  0  0  0  0  0  0  0  0  0  0
   -1.0284   -7.1543   -3.8273 N   0  0  0  0  0  0  0  0  0  0  0  0
    0.4532    0.7847   -2.0838 C   0  0  1  0  0  0  0  0  0  0  0  0
    1.6340   -0.0569   -0.0902 C   0  0  1  0  0  0  0  0  0  0  0  0
    0.1989   -7.3879   -5.9778 C   0  0  0  0  0  0  0  0  0  0  0  0
    1.0782   -5.2579   -6.8142 C   0  0  0  0  0  0  0  0  0  0  0  0
    1.6532    0.8940   -1.2250 N   0  0  1  0  0  0  0  0  0  0  0  0
    0.9062   -6.6542   -6.9538 C   0  0  0  0  0  0  0  0  0  0  0  0
   -1.8230   -3.5139   -2.3691 H   0  0  0  0  0  0  0  0  0  0  0  0
   -1.0490   -2.8695   -3.8128 H   0  0  0  0  0  0  0  0  0  0  0  0
    1.2237   -3.3357   -2.7099 H   0  0  0  0  0  0  0  0  0  0  0  0
    0.3509   -3.8925   -1.2782 H   0  0  0  0  0  0  0  0  0  0  0  0
   -0.6018   -1.6121   -0.9474 H   0  0  0  0  0  0  0  0  0  0  0  0
   -1.8622   -6.1938   -2.1532 H   0  0  0  0  0  0  0  0  0  0  0  0
   -0.6331   -0.6791   -3.2190 H   0  0  0  0  0  0  0  0  0  0  0  0
    1.1249   -0.8306   -3.3598 H   0  0  0  0  0  0  0  0  0  0  0  0
    1.4469   -2.1832    0.2750 H   0  0  0  0  0  0  0  0  0  0  0  0
    2.4562   -1.7702   -1.1177 H   0  0  0  0  0  0  0  0  0  0  0  0
    0.6675   -3.5681   -5.6003 H   0  0  0  0  0  0  0  0  0  0  0  0
   -1.2736   -8.0816   -3.6784 H   0  0  0  0  0  0  0  0  0  0  0  0
    0.5487    1.4957   -2.9064 H   0  0  0  0  0  0  0  0  0  0  0  0
   -0.4370    1.0533   -1.5086 H   0  0  0  0  0  0  0  0  0  0  0  0
    0.7967    0.1777    0.5733 H   0  0  0  0  0  0  0  0  0  0  0  0
    2.5578    0.0674    0.4785 H   0  0  0  0  0  0  0  0  0  0  0  0
    0.0716   -8.3982   -6.0704 H   0  0  0  0  0  0  0  0  0  0  0  0
    1.5965   -4.7354   -7.5236 H   0  0  0  0  0  0  0  0  0  0  0  0
    2.4553    0.6441   -1.8079 H   0  0  0  0  0  0  0  0  0  0  0  0
    1.2955   -7.1354   -7.7658 H   0  0  0  0  0  0  0  0  0  0  0  0
  1  2  1  0  0  0  0 
  1  3  1  0  0  0  0 
  2  4  1  0  0  0  0 
  3  5  1  0  0  0  0 
  3  6  2  0  0  0  0 
  4  7  1  0  0  0  0 
  4  8  1  0  0  0  0 
  5  9  1  0  0  0  0 
  5 10  2  0  0  0  0 
  6 11  1  0  0  0  0 
  7 12  1  0  0  0  0 
  8 13  1  0  0  0  0 
  9 11  1  0  0  0  0 
  9 14  2  0  0  0  0 
 10 15  1  0  0  0  0 
 12 16  1  0  0  0  0 
 13 16  1  0  0  0  0 
 14 17  1  0  0  0  0 
 15 17  2  0  0  0  0 
  1 18  1  0  0  0  0 
  1 19  1  0  0  0  0 
  2 20  1  0  0  0  0 
  2 21  1  0  0  0  0 
  4 22  1  0  0  0  0 
  6 23  1  0  0  0  0 
  7 24  1  0  0  0  0 
  7 25  1  0  0  0  0 
  8 26  1  0  0  0  0 
  8 27  1  0  0  0  0 
 10 28  1  0  0  0  0 
 11 29  1  0  0  0  0 
 12 30  1  0  0  0  0 
 12 31  1  0  0  0  0 
 13 32  1  0  0  0  0 
 13 33  1  0  0  0  0 
 14 34  1  0  0  0  0 
 15 35  1  0  0  0  0 
 16 36  1  0  0  0  0 
 17 37  1  0  0  0  0 
M  END
> <cdk:Title>
indalpine

> <Conformer>
1

> <SuperDrugID>
SD001270

$$$$
