vinbarbital
  CDK     0628171801

 32 32  0  0  0  0  0  0  0  0999 V2000
    1.8791    1.3637   -3.4368 C   0  0  0  0  0  0  0  0  0  0  0  0
    2.0689    1.2243   -1.9096 C   0  0  1  0  0  0  0  0  0  0  0  0
    0.8263    0.8928   -1.2219 C   0  0  0  0  0  0  0  0  0  0  0  0
   -0.1431    1.7270   -0.7552 C   0  0  0  0  0  0  0  0  0  0  0  0
   -0.0707    3.1769   -0.9880 C   0  0  0  0  0  0  0  0  0  0  0  0
   -1.3328    1.1574   -0.0280 C   0  0  1  0  0  0  0  0  0  0  0  0
   -2.2530    2.2033    0.7264 C   0  0  2  0  0  0  0  0  0  0  0  0
   -3.4577    1.6359    1.5249 C   0  0  0  0  0  0  0  0  0  0  0  0
   -2.1875    0.4546   -1.0499 C   0  0  0  0  0  0  0  0  0  0  0  0
   -2.6868    1.0839   -2.0125 O   0  0  0  0  0  0  0  0  0  0  0  0
   -2.4665   -0.8736   -0.9743 N   0  0  0  0  0  0  0  0  0  0  0  0
   -1.9729   -1.6527    0.0181 C   0  0  0  0  0  0  0  0  0  0  0  0
   -2.2516   -2.8714    0.0388 O   0  0  0  0  0  0  0  0  0  0  0  0
   -1.1772   -1.1360    0.9869 N   0  0  0  0  0  0  0  0  0  0  0  0
   -0.8508    0.1838    1.0197 C   0  0  0  0  0  0  0  0  0  0  0  0
   -0.1061    0.5658    1.9528 O   0  0  0  0  0  0  0  0  0  0  0  0
    1.4718    0.4412   -3.8566 H   0  0  0  0  0  0  0  0  0  0  0  0
    2.8428    1.5653   -3.9063 H   0  0  0  0  0  0  0  0  0  0  0  0
    1.2033    2.1852   -3.6749 H   0  0  0  0  0  0  0  0  0  0  0  0
    2.7885    0.4184   -1.7344 H   0  0  0  0  0  0  0  0  0  0  0  0
    2.5260    2.1280   -1.4999 H   0  0  0  0  0  0  0  0  0  0  0  0
    0.6937   -0.0849   -1.0928 H   0  0  0  0  0  0  0  0  0  0  0  0
    0.0730    3.6925   -0.0384 H   0  0  0  0  0  0  0  0  0  0  0  0
   -0.9956    3.5255   -1.4498 H   0  0  0  0  0  0  0  0  0  0  0  0
    0.7303    3.4968   -1.6505 H   0  0  0  0  0  0  0  0  0  0  0  0
   -2.6764    2.9125    0.0113 H   0  0  0  0  0  0  0  0  0  0  0  0
   -1.6475    2.7840    1.4280 H   0  0  0  0  0  0  0  0  0  0  0  0
   -4.0418    2.4590    1.9418 H   0  0  0  0  0  0  0  0  0  0  0  0
   -3.1208    1.0088    2.3516 H   0  0  0  0  0  0  0  0  0  0  0  0
   -4.1096    1.0481    0.8770 H   0  0  0  0  0  0  0  0  0  0  0  0
   -3.0358   -1.2758   -1.6495 H   0  0  0  0  0  0  0  0  0  0  0  0
   -0.8321   -1.7258    1.6772 H   0  0  0  0  0  0  0  0  0  0  0  0
  1  2  1  0  0  0  0 
  2  3  1  0  0  0  0 
  3  4  2  0  0  0  0 
  4  5  1  0  0  0  0 
  4  6  1  0  0  0  0 
  6  7  1  0  0  0  0 
  7  8  1  0  0  0  0 
  6  9  1  0  0  0  0 
  9 10  2  0  0  0  0 
  9 11  1  0  0  0  0 
 11 12  1  0  0  0  0 
 12 13  2  0  0  0  0 
 12 14  1  0  0  0  0 
 14 15  1  0  0  0  0 
  6 15  1  0  0  0  0 
 15 16  2  0  0  0  0 
 17  1  1  0  0  0  0 
 18  1  1  0  0  0  0 
 19  1  1  0  0  0  0 
 20  2  1  0  0  0  0 
 21  2  1  0  0  0  0 
 22  3  1  0  0  0  0 
 23  5  1  0  0  0  0 
 24  5  1  0  0  0  0 
 25  5  1  0  0  0  0 
 26  7  1  0  0  0  0 
 27  7  1  0  0  0  0 
 28  8  1  0  0  0  0 
 29  8  1  0  0  0  0 
 30  8  1  0  0  0  0 
 31 11  1  0  0  0  0 
 32 14  1  0  0  0  0 
M  END
> <cdk:Title>
vinbarbital

> <Conformer>
1

> <SuperDrugID>
SD003283

$$$$
