fidaxomicin
  CDK     0628171801

146149  0  0  0  0  0  0  0  0999 V2000
    2.3760   -2.0518    0.4972 C   0  0  0  0  0  0  0  0  0  0  0  0
    1.6193   -2.2709    1.6107 O   0  0  0  0  0  0  0  0  0  0  0  0
    2.6276   -2.9711   -0.3171 O   0  0  0  0  0  0  0  0  0  0  0  0
    2.8904   -0.7497    0.2936 C   0  0  0  0  0  0  0  0  0  0  0  0
    1.0088   -3.4917    2.0685 C   0  0  1  0  0  0  0  0  0  0  0  0
    2.0351    0.3864    0.1358 C   0  0  0  0  0  0  0  0  0  0  0  0
    4.2999   -0.5903    0.2847 C   0  0  0  0  0  0  0  0  0  0  0  0
    1.5939   -3.8135    3.4691 C   0  0  2  0  0  0  0  0  0  0  0  0
   -0.5303   -3.2574    2.1130 C   0  0  1  0  0  0  0  0  0  0  0  0
    0.5413    0.2410    0.0638 C   0  0  2  0  0  0  0  0  0  0  0  0
    2.6308    1.6768    0.0149 C   0  0  0  0  0  0  0  0  0  0  0  0
    5.1396   -1.6619    0.3914 O   0  0  0  0  0  0  0  0  0  0  0  0
    4.8685    0.6940    0.1747 C   0  0  0  0  0  0  0  0  0  0  0  0
    1.2343   -5.1300    3.8776 O   0  0  0  0  0  0  0  0  0  0  0  0
    1.1392   -2.7618    4.5224 C   0  0  2  0  0  0  0  0  0  0  0  0
   -1.3801   -4.5535    2.1298 C   0  0  0  0  0  0  0  0  0  0  0  0
   -0.8974   -2.3262    3.1597 O   0  0  0  0  0  0  0  0  0  0  0  0
   -0.1753    0.6177    1.3827 C   0  0  0  0  0  0  0  0  0  0  0  0
    1.6955    3.0866   -0.2027 Cl  0  0  0  0  0  0  0  0  0  0  0  0
    4.0378    1.8252    0.0469 C   0  0  0  0  0  0  0  0  0  0  0  0
    6.5587    0.8777    0.2108 Cl  0  0  0  0  0  0  0  0  0  0  0  0
    1.5139   -3.1194    5.8738 O   0  0  0  0  0  0  0  0  0  0  0  0
   -0.4022   -2.5787    4.4973 C   0  0  1  0  0  0  0  0  0  0  0  0
    4.6297    3.0508   -0.0586 O   0  0  0  0  0  0  0  0  0  0  0  0
    2.8840   -2.8767    6.2393 C   0  0  0  0  0  0  0  0  0  0  0  0
   -1.0601   -3.6924    5.1430 O   0  0  0  0  0  0  0  0  0  0  0  0
   -2.4556   -3.4685    5.4175 C   0  0  2  0  0  0  0  0  0  0  0  0
   -3.0446   -4.6739    6.0025 C   0  0  0  0  0  0  0  0  0  0  0  0
   -3.9752   -5.3659    5.2490 C   0  0  0  0  0  0  0  0  0  0  0  0
   -2.8439   -5.0640    7.2825 C   0  0  0  0  0  0  0  0  0  0  0  0
   -3.7517   -5.7696    4.0846 O   0  0  0  0  0  0  0  0  0  0  0  0
   -5.1962   -5.4453    5.8314 O   0  0  0  0  0  0  0  0  0  0  0  0
   -2.2260   -4.3230    8.2248 C   0  0  0  0  0  0  0  0  0  0  0  0
   -6.5085   -5.5296    5.2745 C   0  0  2  0  0  0  0  0  0  0  0  0
   -2.9538   -3.5079    9.0117 C   0  0  0  0  0  0  0  0  0  0  0  0
   -6.8703   -4.2608    4.4272 C   0  0  1  0  0  0  0  0  0  0  0  0
   -7.4652   -5.8091    6.4751 C   0  0  1  0  0  0  0  0  0  0  0  0
   -2.4025   -2.6770   10.0682 C   0  0  2  0  0  0  0  0  0  0  0  0
   -6.6107   -2.8940    5.1124 C   0  0  0  0  0  0  0  0  0  0  0  0
   -6.1207   -4.2679    3.2092 O   0  0  0  0  0  0  0  0  0  0  0  0
   -7.2805   -4.9427    7.6520 C   0  0  0  0  0  0  0  0  0  0  0  0
   -2.9866   -1.2301   10.0977 C   0  0  2  0  0  0  0  0  0  0  0  0
   -8.1865   -4.1650    8.3617 C   0  0  0  0  0  0  0  0  0  0  0  0
   -2.3794   -0.5102   11.1737 O   0  0  0  0  0  0  0  0  0  0  0  0
   -4.4567   -1.0884   10.2361 C   0  0  0  0  0  0  0  0  0  0  0  0
   -9.5754   -4.1514    7.7488 C   0  0  0  0  0  0  0  0  0  0  0  0
   -7.9054   -3.3760    9.6009 C   0  0  0  0  0  0  0  0  0  0  0  0
   -5.1917   -0.2918    9.2470 C   0  0  0  0  0  0  0  0  0  0  0  0
   -5.0905   -1.6336   11.3054 C   0  0  0  0  0  0  0  0  0  0  0  0
   -7.2018   -3.7487   10.7003 C   0  0  0  0  0  0  0  0  0  0  0  0
   -6.5049   -1.4794   11.6990 C   0  0  1  0  0  0  0  0  0  0  0  0
   -6.4720   -5.0195   10.7702 C   0  0  0  0  0  0  0  0  0  0  0  0
   -7.2259   -2.8671   11.8982 C   0  0  1  0  0  0  0  0  0  0  0  0
   -6.5201   -0.5449   12.9660 C   0  0  1  0  0  0  0  0  0  0  0  0
   -8.5983   -2.5904   12.2662 O   0  0  0  0  0  0  0  0  0  0  0  0
   -7.8767    0.1015   13.3506 C   0  0  0  0  0  0  0  0  0  0  0  0
   -9.4627   -3.6368   12.7696 C   0  0  1  0  0  0  0  0  0  0  0  0
  -10.7510   -2.9240   13.2756 C   0  0  1  0  0  0  0  0  0  0  0  0
   -9.7547   -4.5785   11.7087 O   0  0  0  0  0  0  0  0  0  0  0  0
  -11.1460   -1.9387   12.3143 O   0  0  0  0  0  0  0  0  0  0  0  0
  -11.9328   -3.9059   13.5198 C   0  0  1  0  0  0  0  0  0  0  0  0
  -10.7910   -5.5707   11.9198 C   0  0  2  0  0  0  0  0  0  0  0  0
  -13.1066   -3.1381   13.7809 O   0  0  0  0  0  0  0  0  0  0  0  0
  -12.1293   -4.8339   12.2821 C   0  0  1  0  0  0  0  0  0  0  0  0
  -13.1999   -5.7951   12.3591 O   0  0  0  0  0  0  0  0  0  0  0  0
  -14.5248   -5.5373   12.5558 C   0  0  0  0  0  0  0  0  0  0  0  0
  -15.5025   -5.7155   11.4519 C   0  0  2  0  0  0  0  0  0  0  0  0
  -14.9213   -5.2008   13.6952 O   0  0  0  0  0  0  0  0  0  0  0  0
  -15.4877   -7.1617   10.8910 C   0  0  0  0  0  0  0  0  0  0  0  0
  -15.2566   -4.6694   10.3310 C   0  0  0  0  0  0  0  0  0  0  0  0
   -6.5505   -6.4006    4.6118 H   0  0  0  0  0  0  0  0  0  0  0  0
   -8.9721   -4.1455   13.6057 H   0  0  0  0  0  0  0  0  0  0  0  0
   -2.6353   -0.7445    9.1817 H   0  0  0  0  0  0  0  0  0  0  0  0
  -10.3479   -6.6333   12.9776 C   0  0  0  0  0  0  0  0  0  0  0  0
  -10.9387   -6.3036   10.5500 C   0  0  0  0  0  0  0  0  0  0  0  0
    1.2380   -4.3123    1.3819 H   0  0  0  0  0  0  0  0  0  0  0  0
    2.6821   -3.7959    3.3904 H   0  0  0  0  0  0  0  0  0  0  0  0
   -0.8035   -2.7626    1.1739 H   0  0  0  0  0  0  0  0  0  0  0  0
    0.2504   -0.7799   -0.1888 H   0  0  0  0  0  0  0  0  0  0  0  0
    0.1451    0.8485   -0.7513 H   0  0  0  0  0  0  0  0  0  0  0  0
    4.6469   -2.3546    0.8757 H   0  0  0  0  0  0  0  0  0  0  0  0
    1.6944   -5.2684    4.7310 H   0  0  0  0  0  0  0  0  0  0  0  0
    1.5822   -1.7933    4.2590 H   0  0  0  0  0  0  0  0  0  0  0  0
   -2.4396   -4.2929    2.0972 H   0  0  0  0  0  0  0  0  0  0  0  0
   -1.1959   -5.1452    3.0237 H   0  0  0  0  0  0  0  0  0  0  0  0
   -1.1519   -5.1698    1.2568 H   0  0  0  0  0  0  0  0  0  0  0  0
   -1.2492    0.4592    1.2719 H   0  0  0  0  0  0  0  0  0  0  0  0
   -0.0109    1.6620    1.6430 H   0  0  0  0  0  0  0  0  0  0  0  0
    0.1828   -0.0059    2.2037 H   0  0  0  0  0  0  0  0  0  0  0  0
   -0.6055   -1.6737    5.0802 H   0  0  0  0  0  0  0  0  0  0  0  0
    3.9493    3.7192    0.1668 H   0  0  0  0  0  0  0  0  0  0  0  0
    3.0230   -3.1936    7.2725 H   0  0  0  0  0  0  0  0  0  0  0  0
    3.1218   -1.8128    6.1739 H   0  0  0  0  0  0  0  0  0  0  0  0
    3.5734   -3.4458    5.6139 H   0  0  0  0  0  0  0  0  0  0  0  0
   -2.9750   -3.1903    4.4956 H   0  0  0  0  0  0  0  0  0  0  0  0
   -2.5833   -2.6259    6.1020 H   0  0  0  0  0  0  0  0  0  0  0  0
   -3.2367   -5.9224    7.6096 H   0  0  0  0  0  0  0  0  0  0  0  0
   -1.2406   -4.4057    8.3323 H   0  0  0  0  0  0  0  0  0  0  0  0
   -3.9413   -3.4689    8.8782 H   0  0  0  0  0  0  0  0  0  0  0  0
   -7.9289   -4.3124    4.1511 H   0  0  0  0  0  0  0  0  0  0  0  0
   -8.4837   -5.8291    6.0978 H   0  0  0  0  0  0  0  0  0  0  0  0
   -7.2646   -6.8272    6.8191 H   0  0  0  0  0  0  0  0  0  0  0  0
   -1.3152   -2.5999    9.9603 H   0  0  0  0  0  0  0  0  0  0  0  0
   -2.5905   -3.1766   11.0205 H   0  0  0  0  0  0  0  0  0  0  0  0
   -6.8448   -2.0817    4.4213 H   0  0  0  0  0  0  0  0  0  0  0  0
   -5.5669   -2.7951    5.4147 H   0  0  0  0  0  0  0  0  0  0  0  0
   -7.2449   -2.7754    5.9892 H   0  0  0  0  0  0  0  0  0  0  0  0
   -6.3304   -5.1221    2.7764 H   0  0  0  0  0  0  0  0  0  0  0  0
   -6.3521   -4.9278    8.0017 H   0  0  0  0  0  0  0  0  0  0  0  0
   -1.4165   -0.5514   10.9979 H   0  0  0  0  0  0  0  0  0  0  0  0
   -9.5541   -3.7100    6.7492 H   0  0  0  0  0  0  0  0  0  0  0  0
   -9.9881   -5.1592    7.6965 H   0  0  0  0  0  0  0  0  0  0  0  0
  -10.2589   -3.5580    8.3588 H   0  0  0  0  0  0  0  0  0  0  0  0
   -8.3569   -2.4919    9.6209 H   0  0  0  0  0  0  0  0  0  0  0  0
   -4.5631    0.0830    8.4384 H   0  0  0  0  0  0  0  0  0  0  0  0
   -5.6401    0.5777    9.7316 H   0  0  0  0  0  0  0  0  0  0  0  0
   -5.9796   -0.8914    8.7868 H   0  0  0  0  0  0  0  0  0  0  0  0
   -4.5413   -2.1679   11.9418 H   0  0  0  0  0  0  0  0  0  0  0  0
   -7.0645   -0.9432   10.9311 H   0  0  0  0  0  0  0  0  0  0  0  0
   -6.2707   -5.3367   11.7940 H   0  0  0  0  0  0  0  0  0  0  0  0
   -5.5133   -4.9149   10.2624 H   0  0  0  0  0  0  0  0  0  0  0  0
   -7.0337   -5.8302   10.3044 H   0  0  0  0  0  0  0  0  0  0  0  0
   -6.7466   -3.3454   12.7599 H   0  0  0  0  0  0  0  0  0  0  0  0
   -6.1326   -1.0855   13.8347 H   0  0  0  0  0  0  0  0  0  0  0  0
   -5.8470    0.3028   12.7931 H   0  0  0  0  0  0  0  0  0  0  0  0
   -8.3389    0.5745   12.4820 H   0  0  0  0  0  0  0  0  0  0  0  0
   -8.5644   -0.6305   13.7705 H   0  0  0  0  0  0  0  0  0  0  0  0
   -7.7162    0.8706   14.1109 H   0  0  0  0  0  0  0  0  0  0  0  0
  -10.5213   -2.4033   14.2102 H   0  0  0  0  0  0  0  0  0  0  0  0
  -11.9017   -1.4656   12.7210 H   0  0  0  0  0  0  0  0  0  0  0  0
  -11.7435   -4.5090   14.4102 H   0  0  0  0  0  0  0  0  0  0  0  0
  -12.9052   -2.6259   14.5927 H   0  0  0  0  0  0  0  0  0  0  0  0
  -12.3806   -4.1778   11.4419 H   0  0  0  0  0  0  0  0  0  0  0  0
  -16.5092   -5.5320   11.8437 H   0  0  0  0  0  0  0  0  0  0  0  0
  -16.2612   -7.2754   10.1276 H   0  0  0  0  0  0  0  0  0  0  0  0
  -14.5207   -7.3968   10.4408 H   0  0  0  0  0  0  0  0  0  0  0  0
  -15.6892   -7.8818   11.6868 H   0  0  0  0  0  0  0  0  0  0  0  0
  -16.0409   -4.7362    9.5739 H   0  0  0  0  0  0  0  0  0  0  0  0
  -14.2930   -4.8353    9.8441 H   0  0  0  0  0  0  0  0  0  0  0  0
  -15.2710   -3.6571   10.7421 H   0  0  0  0  0  0  0  0  0  0  0  0
  -10.1814   -6.1870   13.9563 H   0  0  0  0  0  0  0  0  0  0  0  0
   -9.4137   -7.1084   12.6693 H   0  0  0  0  0  0  0  0  0  0  0  0
  -11.1096   -7.4086   13.0874 H   0  0  0  0  0  0  0  0  0  0  0  0
  -11.6154   -7.1581   10.6324 H   0  0  0  0  0  0  0  0  0  0  0  0
  -11.3389   -5.6295    9.7918 H   0  0  0  0  0  0  0  0  0  0  0  0
   -9.9694   -6.6688   10.2008 H   0  0  0  0  0  0  0  0  0  0  0  0
  1  2  1  0  0  0  0 
  1  3  2  0  0  0  0 
  1  4  1  0  0  0  0 
  4  6  2  0  0  0  0 
  4  7  1  0  0  0  0 
  5  2  1  0  0  0  0 
  8  5  1  0  0  0  0 
  5  9  1  0  0  0  0 
  6 10  1  0  0  0  0 
  6 11  1  0  0  0  0 
  7 12  1  0  0  0  0 
  7 13  2  0  0  0  0 
  8 14  1  0  0  0  0 
 15  8  1  0  0  0  0 
  9 16  1  0  0  0  0 
  9 17  1  0  0  0  0 
 10 18  1  0  0  0  0 
 11 19  1  0  0  0  0 
 11 20  2  0  0  0  0 
 13 20  1  0  0  0  0 
 13 21  1  0  0  0  0 
 15 22  1  0  0  0  0 
 23 15  1  0  0  0  0 
 23 17  1  0  0  0  0 
 20 24  1  0  0  0  0 
 22 25  1  0  0  0  0 
 23 26  1  0  0  0  0 
 26 27  1  0  0  0  0 
 27 28  1  0  0  0  0 
 28 29  1  0  0  0  0 
 28 30  2  0  0  0  0 
 29 31  2  0  0  0  0 
 29 32  1  0  0  0  0 
 30 33  1  0  0  0  0 
 34 32  1  0  0  0  0 
 33 35  2  0  0  0  0 
 36 34  1  0  0  0  0 
 34 37  1  0  0  0  0 
 34 71  1  0  0  0  0 
 35 38  1  0  0  0  0 
 36 39  1  0  0  0  0 
 36 40  1  0  0  0  0 
 37 41  1  0  0  0  0 
 42 38  1  0  0  0  0 
 41 43  2  0  0  0  0 
 42 44  1  0  0  0  0 
 42 45  1  0  0  0  0 
 42 73  1  0  0  0  0 
 43 46  1  0  0  0  0 
 43 47  1  0  0  0  0 
 45 48  1  0  0  0  0 
 45 49  2  0  0  0  0 
 47 50  2  0  0  0  0 
 51 49  1  0  0  0  0 
 50 52  1  0  0  0  0 
 53 50  1  0  0  0  0 
 53 51  1  0  0  0  0 
 51 54  1  0  0  0  0 
 53 55  1  0  0  0  0 
 54 56  1  0  0  0  0 
 57 55  1  0  0  0  0 
 58 57  1  0  0  0  0 
 57 59  1  0  0  0  0 
 57 72  1  0  0  0  0 
 58 60  1  0  0  0  0 
 61 58  1  0  0  0  0 
 59 62  1  0  0  0  0 
 61 63  1  0  0  0  0 
 64 61  1  0  0  0  0 
 64 62  1  0  0  0  0 
 64 65  1  0  0  0  0 
 65 66  1  0  0  0  0 
 66 67  1  0  0  0  0 
 66 68  2  0  0  0  0 
 67 69  1  0  0  0  0 
 67 70  1  0  0  0  0 
 62 74  1  0  0  0  0 
 62 75  1  0  0  0  0 
  5 76  1  0  0  0  0 
  8 77  1  0  0  0  0 
  9 78  1  0  0  0  0 
 10 79  1  0  0  0  0 
 10 80  1  0  0  0  0 
 12 81  1  0  0  0  0 
 14 82  1  0  0  0  0 
 15 83  1  0  0  0  0 
 16 84  1  0  0  0  0 
 16 85  1  0  0  0  0 
 16 86  1  0  0  0  0 
 18 87  1  0  0  0  0 
 18 88  1  0  0  0  0 
 18 89  1  0  0  0  0 
 23 90  1  0  0  0  0 
 24 91  1  0  0  0  0 
 25 92  1  0  0  0  0 
 25 93  1  0  0  0  0 
 25 94  1  0  0  0  0 
 27 95  1  0  0  0  0 
 27 96  1  0  0  0  0 
 30 97  1  0  0  0  0 
 33 98  1  0  0  0  0 
 35 99  1  0  0  0  0 
 36100  1  0  0  0  0 
 37101  1  0  0  0  0 
 37102  1  0  0  0  0 
 38103  1  0  0  0  0 
 38104  1  0  0  0  0 
 39105  1  0  0  0  0 
 39106  1  0  0  0  0 
 39107  1  0  0  0  0 
 40108  1  0  0  0  0 
 41109  1  0  0  0  0 
 44110  1  0  0  0  0 
 46111  1  0  0  0  0 
 46112  1  0  0  0  0 
 46113  1  0  0  0  0 
 47114  1  0  0  0  0 
 48115  1  0  0  0  0 
 48116  1  0  0  0  0 
 48117  1  0  0  0  0 
 49118  1  0  0  0  0 
 51119  1  0  0  0  0 
 52120  1  0  0  0  0 
 52121  1  0  0  0  0 
 52122  1  0  0  0  0 
 53123  1  0  0  0  0 
 54124  1  0  0  0  0 
 54125  1  0  0  0  0 
 56126  1  0  0  0  0 
 56127  1  0  0  0  0 
 56128  1  0  0  0  0 
 58129  1  0  0  0  0 
 60130  1  0  0  0  0 
 61131  1  0  0  0  0 
 63132  1  0  0  0  0 
 64133  1  0  0  0  0 
 67134  1  0  0  0  0 
 69135  1  0  0  0  0 
 69136  1  0  0  0  0 
 69137  1  0  0  0  0 
 70138  1  0  0  0  0 
 70139  1  0  0  0  0 
 70140  1  0  0  0  0 
 74141  1  0  0  0  0 
 74142  1  0  0  0  0 
 74143  1  0  0  0  0 
 75144  1  0  0  0  0 
 75145  1  0  0  0  0 
 75146  1  0  0  0  0 
M  END
> <cdk:Title>
fidaxomicin

> <Conformer>
1

> <SuperDrugID>
SD003410

$$$$
