benzoyl peroxide
  CDK     0628171801

 28 29  0  0  0  0  0  0  0  0999 V2000
   -3.3350   -3.0269    0.8084 C   0  0  0  0  0  0  0  0  0  0  0  0
   -2.0619   -2.8192    0.3727 O   0  0  0  0  0  0  0  0  0  0  0  0
   -3.9084   -2.0951    1.4227 O   0  0  0  0  0  0  0  0  0  0  0  0
   -3.9890   -4.2705    0.5959 C   0  0  0  0  0  0  0  0  0  0  0  0
   -1.4784   -1.6371    0.4387 O   0  0  0  0  0  0  0  0  0  0  0  0
   -5.1759   -4.6072    1.2969 C   0  0  0  0  0  0  0  0  0  0  0  0
   -3.4829   -5.2012   -0.3476 C   0  0  0  0  0  0  0  0  0  0  0  0
   -0.1540   -1.4156    0.2085 C   0  0  0  0  0  0  0  0  0  0  0  0
   -5.8357   -5.8275    1.0593 C   0  0  0  0  0  0  0  0  0  0  0  0
   -4.1482   -6.4170   -0.5900 C   0  0  0  0  0  0  0  0  0  0  0  0
    0.5957   -2.4088    0.0449 O   0  0  0  0  0  0  0  0  0  0  0  0
    0.3550   -0.0877    0.1729 C   0  0  0  0  0  0  0  0  0  0  0  0
   -5.3235   -6.7306    0.1129 C   0  0  0  0  0  0  0  0  0  0  0  0
   -0.5216    1.0277    0.1866 C   0  0  0  0  0  0  0  0  0  0  0  0
    1.7480    0.1658    0.0929 C   0  0  0  0  0  0  0  0  0  0  0  0
   -0.0256    2.3404    0.0720 C   0  0  0  0  0  0  0  0  0  0  0  0
    2.2447    1.4787   -0.0175 C   0  0  0  0  0  0  0  0  0  0  0  0
    1.3566    2.5671   -0.0428 C   0  0  0  0  0  0  0  0  0  0  0  0
   -5.5748   -3.9694    1.9911 H   0  0  0  0  0  0  0  0  0  0  0  0
   -2.6307   -5.0024   -0.8796 H   0  0  0  0  0  0  0  0  0  0  0  0
   -6.6903   -6.0564    1.5725 H   0  0  0  0  0  0  0  0  0  0  0  0
   -3.7796   -7.0721   -1.2818 H   0  0  0  0  0  0  0  0  0  0  0  0
   -5.8095   -7.6124   -0.0679 H   0  0  0  0  0  0  0  0  0  0  0  0
   -1.5347    0.9010    0.2714 H   0  0  0  0  0  0  0  0  0  0  0  0
    2.4199   -0.6048    0.1117 H   0  0  0  0  0  0  0  0  0  0  0  0
   -0.6741    3.1306    0.0694 H   0  0  0  0  0  0  0  0  0  0  0  0
    3.2538    1.6422   -0.0821 H   0  0  0  0  0  0  0  0  0  0  0  0
    1.7161    3.5200   -0.1404 H   0  0  0  0  0  0  0  0  0  0  0  0
  1  2  1  0  0  0  0 
  1  3  2  0  0  0  0 
  1  4  1  0  0  0  0 
  2  5  1  0  0  0  0 
  4  6  2  0  0  0  0 
  4  7  1  0  0  0  0 
  5  8  1  0  0  0  0 
  6  9  1  0  0  0  0 
  7 10  2  0  0  0  0 
  8 11  2  0  0  0  0 
  8 12  1  0  0  0  0 
  9 13  2  0  0  0  0 
 10 13  1  0  0  0  0 
 12 14  2  0  0  0  0 
 12 15  1  0  0  0  0 
 14 16  1  0  0  0  0 
 15 17  2  0  0  0  0 
 16 18  2  0  0  0  0 
 17 18  1  0  0  0  0 
  6 19  1  0  0  0  0 
  7 20  1  0  0  0  0 
  9 21  1  0  0  0  0 
 10 22  1  0  0  0  0 
 13 23  1  0  0  0  0 
 14 24  1  0  0  0  0 
 15 25  1  0  0  0  0 
 16 26  1  0  0  0  0 
 17 27  1  0  0  0  0 
 18 28  1  0  0  0  0 
M  END
> <cdk:Title>
benzoyl peroxide

> <Conformer>
1

> <SuperDrugID>
SD000276

$$$$
