furamicid
  CDK     0628171801

 18 18  0  0  0  0  0  0  0  0999 V2000
    1.4054   -0.7842    0.2277 C   0  0  0  0  0  0  0  0  0  0  0  0
   -0.0257   -0.6720    0.3350 O   0  0  0  0  0  0  0  0  0  0  0  0
   -0.4649    0.5388    0.9812 C   0  0  1  0  0  0  0  0  0  0  0  0
   -1.9306    0.5529    1.0551 C   0  0  0  0  0  0  0  0  0  0  0  0
   -2.7302   -0.3737    1.7150 C   0  0  0  0  0  0  0  0  0  0  0  0
   -4.0403    0.0455    1.5495 C   0  0  0  0  0  0  0  0  0  0  0  0
   -4.0179    1.2171    0.7902 C   0  0  0  0  0  0  0  0  0  0  0  0
   -2.7224    1.5029    0.5004 O   0  0  0  0  0  0  0  0  0  0  0  0
   -5.0513    1.9502    0.4033 N   0  0  0  0  0  0  0  0  0  0  0  0
   -6.2440    1.6371    0.7045 O   0  0  0  0  0  0  0  0  0  0  0  0
   -4.8894    2.9157   -0.2331 O   0  0  0  0  0  0  0  0  0  0  0  0
    1.8725   -0.7835    1.2171 H   0  0  0  0  0  0  0  0  0  0  0  0
    1.6441   -1.7287   -0.2651 H   0  0  0  0  0  0  0  0  0  0  0  0
    1.8177    0.0325   -0.3724 H   0  0  0  0  0  0  0  0  0  0  0  0
   -0.0734    0.6031    2.0006 H   0  0  0  0  0  0  0  0  0  0  0  0
   -0.1375    1.4160    0.4157 H   0  0  0  0  0  0  0  0  0  0  0  0
   -2.4119   -1.1994    2.2287 H   0  0  0  0  0  0  0  0  0  0  0  0
   -4.8658   -0.4243    1.9233 H   0  0  0  0  0  0  0  0  0  0  0  0
  1  2  1  0  0  0  0 
  2  3  1  0  0  0  0 
  3  4  1  0  0  0  0 
  4  5  2  0  0  0  0 
  5  6  1  0  0  0  0 
  6  7  2  0  0  0  0 
  7  8  1  0  0  0  0 
  4  8  1  0  0  0  0 
  7  9  1  0  0  0  0 
  9 10  1  0  0  0  0 
  9 11  2  0  0  0  0 
  1 12  1  0  0  0  0 
  1 13  1  0  0  0  0 
  1 14  1  0  0  0  0 
  3 15  1  0  0  0  0 
  3 16  1  0  0  0  0 
  5 17  1  0  0  0  0 
  6 18  1  0  0  0  0 
M  CHG  1   9   1
M  CHG  1  10  -1
M  END
> <cdk:Title>
furamicid

> <Conformer>
1

> <SuperDrugID>
SD003223

$$$$
