pivagabine
  CDK     0628171801

 30 29  0  0  0  0  0  0  0  0999 V2000
   -0.3091    0.7429   -0.1017 C   0  0  0  0  0  0  0  0  0  0  0  0
   -1.5028    1.1377   -0.6333 N   0  0  0  0  0  0  0  0  0  0  0  0
    0.8359    1.7138    0.0083 C   0  0  2  0  0  0  0  0  0  0  0  0
   -0.1890   -0.4389    0.3057 O   0  0  0  0  0  0  0  0  0  0  0  0
   -2.6775    0.3256   -0.7112 C   0  0  1  0  0  0  0  0  0  0  0  0
    0.4072    2.8898    0.9445 C   0  0  0  0  0  0  0  0  0  0  0  0
    1.2060    2.2745   -1.4041 C   0  0  0  0  0  0  0  0  0  0  0  0
    2.1098    1.0317    0.6137 C   0  0  0  0  0  0  0  0  0  0  0  0
   -3.7465    1.0025   -1.6023 C   0  0  2  0  0  0  0  0  0  0  0  0
   -5.0662    0.1894   -1.6663 C   0  0  1  0  0  0  0  0  0  0  0  0
   -6.0162    0.7222   -2.6609 C   0  0  0  0  0  0  0  0  0  0  0  0
   -5.7646    0.5899   -3.9844 O   0  0  0  0  0  0  0  0  0  0  0  0
   -7.0754    1.2904   -2.3078 O   0  0  0  0  0  0  0  0  0  0  0  0
   -1.5718    2.0507   -0.9514 H   0  0  0  0  0  0  0  0  0  0  0  0
   -2.4263   -0.6528   -1.1298 H   0  0  0  0  0  0  0  0  0  0  0  0
   -3.0724    0.1801    0.2976 H   0  0  0  0  0  0  0  0  0  0  0  0
    0.1064    2.5108    1.9237 H   0  0  0  0  0  0  0  0  0  0  0  0
   -0.4343    3.4434    0.5222 H   0  0  0  0  0  0  0  0  0  0  0  0
    1.2300    3.5922    1.0916 H   0  0  0  0  0  0  0  0  0  0  0  0
    0.3694    2.8174   -1.8480 H   0  0  0  0  0  0  0  0  0  0  0  0
    2.0517    2.9630   -1.3396 H   0  0  0  0  0  0  0  0  0  0  0  0
    1.4807    1.4638   -2.0823 H   0  0  0  0  0  0  0  0  0  0  0  0
    2.9327    1.7429    0.7105 H   0  0  0  0  0  0  0  0  0  0  0  0
    1.8956    0.6262    1.6053 H   0  0  0  0  0  0  0  0  0  0  0  0
    2.4448    0.2097   -0.0241 H   0  0  0  0  0  0  0  0  0  0  0  0
   -3.3333    1.1124   -2.6073 H   0  0  0  0  0  0  0  0  0  0  0  0
   -3.9620    2.0024   -1.2099 H   0  0  0  0  0  0  0  0  0  0  0  0
   -4.8505   -0.8476   -1.9313 H   0  0  0  0  0  0  0  0  0  0  0  0
   -5.5304    0.1870   -0.6758 H   0  0  0  0  0  0  0  0  0  0  0  0
   -6.4092    0.9297   -4.6390 H   0  0  0  0  0  0  0  0  0  0  0  0
  1  2  1  0  0  0  0 
  1  3  1  0  0  0  0 
  1  4  2  0  0  0  0 
  2  5  1  0  0  0  0 
  3  6  1  0  0  0  0 
  3  7  1  0  0  0  0 
  3  8  1  0  0  0  0 
  5  9  1  0  0  0  0 
  9 10  1  0  0  0  0 
 10 11  1  0  0  0  0 
 11 12  1  0  0  0  0 
 11 13  2  0  0  0  0 
  2 14  1  0  0  0  0 
  5 15  1  0  0  0  0 
  5 16  1  0  0  0  0 
  6 17  1  0  0  0  0 
  6 18  1  0  0  0  0 
  6 19  1  0  0  0  0 
  7 20  1  0  0  0  0 
  7 21  1  0  0  0  0 
  7 22  1  0  0  0  0 
  8 23  1  0  0  0  0 
  8 24  1  0  0  0  0 
  8 25  1  0  0  0  0 
  9 26  1  0  0  0  0 
  9 27  1  0  0  0  0 
 10 28  1  0  0  0  0 
 10 29  1  0  0  0  0 
 12 30  1  0  0  0  0 
M  END
> <cdk:Title>
pivagabine

> <Conformer>
1

> <SuperDrugID>
SD001989

$$$$
