fenclozic acid
  Mrv0541 09131710093D              39.42818

 24 25  0  0  0  0            999 V2000
    2.0417    7.7467   -0.9501 O   0  0  0  0  0  0  0  0  0  0  0  0
    2.4032    8.0414    0.3221 C   0  0  0  0  0  0  0  0  0  0  0  0
    3.1127    9.0523    0.5312 O   0  0  0  0  0  0  0  0  0  0  0  0
    1.9412    7.1911    1.4339 C   0  0  2  0  0  0  0  0  0  0  0  0
    2.4050    5.7967    1.2828 C   0  0  0  0  0  0  0  0  0  0  0  0
    3.7437    5.4158    1.4395 C   0  0  0  0  0  0  0  0  0  0  0  0
    3.7851    3.6919    1.1464 S   0  0  0  0  0  0  0  0  0  0  0  0
    2.0631    3.5354    0.8247 C   0  0  0  0  0  0  0  0  0  0  0  0
    1.5496    4.7819    0.9706 N   0  0  0  0  0  0  0  0  0  0  0  0
    1.3494    2.3670    0.4478 C   0  0  0  0  0  0  0  0  0  0  0  0
   -0.0639    2.3882    0.3521 C   0  0  0  0  0  0  0  0  0  0  0  0
   -0.7750    1.2473   -0.0629 C   0  0  0  0  0  0  0  0  0  0  0  0
   -0.0883    0.0655   -0.3991 C   0  0  0  0  0  0  0  0  0  0  0  0
   -0.9445   -1.2977   -0.9290 Cl  0  0  0  0  0  0  0  0  0  0  0  0
    1.3150    0.0266   -0.2933 C   0  0  0  0  0  0  0  0  0  0  0  0
    2.0261    1.1630    0.1335 C   0  0  0  0  0  0  0  0  0  0  0  0
    2.3375    8.3107   -1.6918 H   0  0  0  0  0  0  0  0  0  0  0  0
    0.8499    7.2249    1.4506 H   0  0  0  0  0  0  0  0  0  0  0  0
    2.2977    7.5865    2.3881 H   0  0  0  0  0  0  0  0  0  0  0  0
    4.5371    6.0130    1.6786 H   0  0  0  0  0  0  0  0  0  0  0  0
   -0.5929    3.2338    0.5804 H   0  0  0  0  0  0  0  0  0  0  0  0
   -1.7953    1.2832   -0.1186 H   0  0  0  0  0  0  0  0  0  0  0  0
    1.8261   -0.8267   -0.5283 H   0  0  0  0  0  0  0  0  0  0  0  0
    3.0445    1.0999    0.1976 H   0  0  0  0  0  0  0  0  0  0  0  0
  1  2  1  0  0  0  0
  2  3  2  0  0  0  0
  2  4  1  0  0  0  0
  4  5  1  0  0  0  0
  5  6  2  0  0  0  0
  6  7  1  0  0  0  0
  7  8  1  0  0  0  0
  8  9  2  0  0  0  0
  8 10  1  0  0  0  0
 10 11  2  0  0  0  0
 11 12  1  0  0  0  0
 12 13  2  0  0  0  0
 13 14  1  0  0  0  0
 13 15  1  0  0  0  0
 15 16  2  0  0  0  0
  9  5  1  0  0  0  0
 16 10  1  0  0  0  0
  1 17  1  0  0  0  0
  4 18  1  0  0  0  0
  4 19  1  0  0  0  0
  6 20  1  0  0  0  0
 11 21  1  0  0  0  0
 12 22  1  0  0  0  0
 15 23  1  0  0  0  0
 16 24  1  0  0  0  0
M  END
>  <SuperDrugID>
SD006026

>  <_MOLCOUNT>
1

$$$$
