oxanamide
  CDK     0628171801

 26 26  0  0  0  0  0  0  0  0999 V2000
    4.1841    0.7033    2.2153 C   0  0  0  0  0  0  0  0  0  0  0  0
    3.5480    1.8766    1.4338 C   0  0  2  0  0  0  0  0  0  0  0  0
    2.7793    1.4217    0.1664 C   0  0  2  0  0  0  0  0  0  0  0  0
    2.1798    2.6289   -0.6033 C   0  0  2  0  0  0  0  0  0  0  0  0
    1.9946    2.3712   -2.0051 O   0  0  0  0  0  0  0  0  0  0  0  0
    2.9437    3.4017   -1.6742 C   0  0  1  0  0  0  0  0  0  0  0  0
    2.4752    4.8432   -2.0188 C   0  0  2  0  0  0  0  0  0  0  0  0
    2.7772    5.2459   -3.4815 C   0  0  0  0  0  0  0  0  0  0  0  0
    4.3633    3.0564   -1.8781 C   0  0  0  0  0  0  0  0  0  0  0  0
    5.3180    3.6910   -1.1758 N   0  0  0  0  0  0  0  0  0  0  0  0
    4.6950    2.1903   -2.7181 O   0  0  0  0  0  0  0  0  0  0  0  0
    3.4162    0.0024    2.5480 H   0  0  0  0  0  0  0  0  0  0  0  0
    4.7071    1.0905    3.0925 H   0  0  0  0  0  0  0  0  0  0  0  0
    4.9048    0.1723    1.5889 H   0  0  0  0  0  0  0  0  0  0  0  0
    4.3465    2.5664    1.1537 H   0  0  0  0  0  0  0  0  0  0  0  0
    2.8629    2.4088    2.0994 H   0  0  0  0  0  0  0  0  0  0  0  0
    1.9555    0.7649    0.4566 H   0  0  0  0  0  0  0  0  0  0  0  0
    3.4475    0.8435   -0.4764 H   0  0  0  0  0  0  0  0  0  0  0  0
    1.3089    3.1203   -0.1664 H   0  0  0  0  0  0  0  0  0  0  0  0
    2.9819    5.5440   -1.3517 H   0  0  0  0  0  0  0  0  0  0  0  0
    1.4012    4.9484   -1.8467 H   0  0  0  0  0  0  0  0  0  0  0  0
    2.4546    6.2747   -3.6511 H   0  0  0  0  0  0  0  0  0  0  0  0
    3.8477    5.1831   -3.6900 H   0  0  0  0  0  0  0  0  0  0  0  0
    2.2420    4.5925   -4.1729 H   0  0  0  0  0  0  0  0  0  0  0  0
    6.2546    3.4763   -1.3168 H   0  0  0  0  0  0  0  0  0  0  0  0
    5.0679    4.3663   -0.5248 H   0  0  0  0  0  0  0  0  0  0  0  0
  1  2  1  0  0  0  0 
  2  3  1  0  0  0  0 
  3  4  1  0  0  0  0 
  4  5  1  0  0  0  0 
  5  6  1  0  0  0  0 
  4  6  1  0  0  0  0 
  6  7  1  0  0  0  0 
  7  8  1  0  0  0  0 
  6  9  1  0  0  0  0 
  9 10  1  0  0  0  0 
  9 11  2  0  0  0  0 
  1 12  1  0  0  0  0 
  1 13  1  0  0  0  0 
  1 14  1  0  0  0  0 
  2 15  1  0  0  0  0 
  2 16  1  0  0  0  0 
  3 17  1  0  0  0  0 
  3 18  1  0  0  0  0 
  4 19  1  0  0  0  0 
  7 20  1  0  0  0  0 
  7 21  1  0  0  0  0 
  8 22  1  0  0  0  0 
  8 23  1  0  0  0  0 
  8 24  1  0  0  0  0 
 10 25  1  0  0  0  0 
 10 26  1  0  0  0  0 
M  END
> <cdk:Title>
oxanamide

> <Conformer>
1

> <SuperDrugID>
SD001799

$$$$
