ioglycamic acid
  CDK     0628171801

 43 44  0  0  0  0  0  0  0  0999 V2000
   -1.8505    1.6248   -1.6038 N   0  0  0  0  0  0  0  0  0  0  0  0
   -1.9212    2.3590   -0.4638 C   0  0  0  0  0  0  0  0  0  0  0  0
   -2.7438    1.6240   -2.6312 C   0  0  0  0  0  0  0  0  0  0  0  0
   -0.8540    2.2758    0.5549 C   0  0  1  0  0  0  0  0  0  0  0  0
   -2.9109    3.0920   -0.2271 O   0  0  0  0  0  0  0  0  0  0  0  0
   -2.9241    2.7353   -3.4955 C   0  0  0  0  0  0  0  0  0  0  0  0
   -3.4686    0.4360   -2.8628 C   0  0  0  0  0  0  0  0  0  0  0  0
    0.2771    1.4564    0.1698 O   0  0  0  0  0  0  0  0  0  0  0  0
   -1.9379    4.5050   -3.0974 I   0  0  0  0  0  0  0  0  0  0  0  0
   -3.7947    2.6358   -4.6134 C   0  0  0  0  0  0  0  0  0  0  0  0
   -3.2903   -1.1932   -1.6210 I   0  0  0  0  0  0  0  0  0  0  0  0
   -4.3529    0.3469   -3.9475 C   0  0  0  0  0  0  0  0  0  0  0  0
    1.4901    2.1070   -0.2782 C   0  0  2  0  0  0  0  0  0  0  0  0
   -3.9466    3.7158   -5.5082 C   0  0  0  0  0  0  0  0  0  0  0  0
   -4.5079    1.4294   -4.8300 C   0  0  0  0  0  0  0  0  0  0  0  0
    1.7139    1.8724   -1.7153 C   0  0  0  0  0  0  0  0  0  0  0  0
   -2.8686    4.2666   -6.1133 O   0  0  0  0  0  0  0  0  0  0  0  0
   -5.0759    4.1923   -5.7625 O   0  0  0  0  0  0  0  0  0  0  0  0
   -5.7798    1.1428   -6.4249 I   0  0  0  0  0  0  0  0  0  0  0  0
    0.8914    2.5011   -2.5875 N   0  0  0  0  0  0  0  0  0  0  0  0
    2.6552    1.1386   -2.1014 O   0  0  0  0  0  0  0  0  0  0  0  0
    0.8945    2.3958   -3.9397 C   0  0  0  0  0  0  0  0  0  0  0  0
    0.4904    1.2137   -4.6105 C   0  0  0  0  0  0  0  0  0  0  0  0
    1.2414    3.5438   -4.6826 C   0  0  0  0  0  0  0  0  0  0  0  0
    0.1050   -0.5094   -3.5397 I   0  0  0  0  0  0  0  0  0  0  0  0
    0.3601    1.2142   -6.0235 C   0  0  0  0  0  0  0  0  0  0  0  0
    1.8502    5.2801   -3.7618 I   0  0  0  0  0  0  0  0  0  0  0  0
    1.1790    3.5165   -6.0842 C   0  0  0  0  0  0  0  0  0  0  0  0
   -0.1560    0.0930   -6.6970 C   0  0  0  0  0  0  0  0  0  0  0  0
    0.7333    2.3666   -6.7585 C   0  0  0  0  0  0  0  0  0  0  0  0
    0.5826   -0.5503   -7.6285 O   0  0  0  0  0  0  0  0  0  0  0  0
   -1.3163   -0.3140   -6.4561 O   0  0  0  0  0  0  0  0  0  0  0  0
    0.6256    2.4703   -8.8131 I   0  0  0  0  0  0  0  0  0  0  0  0
   -1.1104    1.0021   -1.6725 H   0  0  0  0  0  0  0  0  0  0  0  0
   -0.5557    3.2844    0.8567 H   0  0  0  0  0  0  0  0  0  0  0  0
   -1.2927    1.8024    1.4347 H   0  0  0  0  0  0  0  0  0  0  0  0
   -4.8841   -0.5136   -4.1001 H   0  0  0  0  0  0  0  0  0  0  0  0
    2.3126    1.6703    0.2926 H   0  0  0  0  0  0  0  0  0  0  0  0
    1.5070    3.1856   -0.0946 H   0  0  0  0  0  0  0  0  0  0  0  0
   -2.9782    5.0237   -6.7248 H   0  0  0  0  0  0  0  0  0  0  0  0
    0.2522    3.1221   -2.2053 H   0  0  0  0  0  0  0  0  0  0  0  0
    1.4524    4.3452   -6.6147 H   0  0  0  0  0  0  0  0  0  0  0  0
    0.2123   -1.3242   -8.1001 H   0  0  0  0  0  0  0  0  0  0  0  0
  1  2  1  0  0  0  0 
  1  3  1  0  0  0  0 
  2  4  1  0  0  0  0 
  2  5  2  0  0  0  0 
  3  6  2  0  0  0  0 
  3  7  1  0  0  0  0 
  4  8  1  0  0  0  0 
  6  9  1  0  0  0  0 
  6 10  1  0  0  0  0 
  7 11  1  0  0  0  0 
  7 12  2  0  0  0  0 
  8 13  1  0  0  0  0 
 10 14  1  0  0  0  0 
 10 15  2  0  0  0  0 
 12 15  1  0  0  0  0 
 13 16  1  0  0  0  0 
 14 17  1  0  0  0  0 
 14 18  2  0  0  0  0 
 15 19  1  0  0  0  0 
 16 20  1  0  0  0  0 
 16 21  2  0  0  0  0 
 20 22  1  0  0  0  0 
 22 23  2  0  0  0  0 
 22 24  1  0  0  0  0 
 23 25  1  0  0  0  0 
 23 26  1  0  0  0  0 
 24 27  1  0  0  0  0 
 24 28  2  0  0  0  0 
 26 29  1  0  0  0  0 
 26 30  2  0  0  0  0 
 28 30  1  0  0  0  0 
 29 31  1  0  0  0  0 
 29 32  2  0  0  0  0 
 30 33  1  0  0  0  0 
  1 34  1  0  0  0  0 
  4 35  1  0  0  0  0 
  4 36  1  0  0  0  0 
 12 37  1  0  0  0  0 
 13 38  1  0  0  0  0 
 13 39  1  0  0  0  0 
 17 40  1  0  0  0  0 
 20 41  1  0  0  0  0 
 28 42  1  0  0  0  0 
 31 43  1  0  0  0  0 
M  END
> <cdk:Title>
ioglycamic acid

> <Conformer>
1

> <SuperDrugID>
SD002855

$$$$
