methadone
  CDK     0628171801

 50 51  0  0  0  0  0  0  0  0999 V2000
    3.6178    2.7781    0.3948 C   0  0  1  0  0  0  0  0  0  0  0  0
    2.8273    3.9018   -0.4081 C   0  0  2  0  0  0  0  0  0  0  0  0
    3.1939    1.4048   -0.1063 C   0  0  0  0  0  0  0  0  0  0  0  0
    5.0991    3.0376    0.1053 C   0  0  0  0  0  0  0  0  0  0  0  0
    3.3025    2.6832    1.8886 C   0  0  0  0  0  0  0  0  0  0  0  0
    3.1585    5.4091   -0.1084 C   0  0  1  0  0  0  0  0  0  0  0  0
    1.7918    0.9811   -0.3808 C   0  0  2  0  0  0  0  0  0  0  0  0
    4.0516    0.5022   -0.2733 O   0  0  0  0  0  0  0  0  0  0  0  0
    5.9966    3.6083    1.0528 C   0  0  0  0  0  0  0  0  0  0  0  0
    5.6424    2.7494   -1.1798 C   0  0  0  0  0  0  0  0  0  0  0  0
    2.2568    3.4009    2.5348 C   0  0  0  0  0  0  0  0  0  0  0  0
    4.0572    1.7991    2.7144 C   0  0  0  0  0  0  0  0  0  0  0  0
    4.4958    5.8414   -0.6537 N   0  0  1  0  0  0  0  0  0  0  0  0
    1.9938    6.3468   -0.5490 C   0  0  0  0  0  0  0  0  0  0  0  0
    1.5018    0.8599   -1.8948 C   0  0  0  0  0  0  0  0  0  0  0  0
    7.3633    3.7943    0.7656 C   0  0  0  0  0  0  0  0  0  0  0  0
    7.0033    2.9422   -1.4777 C   0  0  0  0  0  0  0  0  0  0  0  0
    2.0060    3.2731    3.9139 C   0  0  0  0  0  0  0  0  0  0  0  0
    3.8151    1.6680    4.0932 C   0  0  0  0  0  0  0  0  0  0  0  0
    4.6016    6.0777   -2.1241 C   0  0  0  0  0  0  0  0  0  0  0  0
    5.1848    6.8966    0.1462 C   0  0  0  0  0  0  0  0  0  0  0  0
    7.8682    3.4534   -0.4987 C   0  0  0  0  0  0  0  0  0  0  0  0
    2.7896    2.4116    4.6963 C   0  0  0  0  0  0  0  0  0  0  0  0
    1.7581    3.7710   -0.2352 H   0  0  0  0  0  0  0  0  0  0  0  0
    2.9522    3.7327   -1.4792 H   0  0  0  0  0  0  0  0  0  0  0  0
    3.2037    5.4886    0.9802 H   0  0  0  0  0  0  0  0  0  0  0  0
    1.0724    1.6635    0.0726 H   0  0  0  0  0  0  0  0  0  0  0  0
    1.6197    0.0065    0.0833 H   0  0  0  0  0  0  0  0  0  0  0  0
    5.6680    3.9077    1.9718 H   0  0  0  0  0  0  0  0  0  0  0  0
    5.0432    2.3841   -1.9230 H   0  0  0  0  0  0  0  0  0  0  0  0
    1.6465    4.0305    2.0182 H   0  0  0  0  0  0  0  0  0  0  0  0
    4.8100    1.2370    2.3111 H   0  0  0  0  0  0  0  0  0  0  0  0
    2.2412    7.3898   -0.3426 H   0  0  0  0  0  0  0  0  0  0  0  0
    1.0801    6.1037   -0.0006 H   0  0  0  0  0  0  0  0  0  0  0  0
    1.7905    6.2391   -1.6174 H   0  0  0  0  0  0  0  0  0  0  0  0
    0.4876    0.4857   -2.0485 H   0  0  0  0  0  0  0  0  0  0  0  0
    1.5884    1.8303   -2.3870 H   0  0  0  0  0  0  0  0  0  0  0  0
    2.2008    0.1626   -2.3635 H   0  0  0  0  0  0  0  0  0  0  0  0
    7.9919    4.1800    1.4757 H   0  0  0  0  0  0  0  0  0  0  0  0
    7.3636    2.7038   -2.4052 H   0  0  0  0  0  0  0  0  0  0  0  0
    1.2507    3.8070    4.3492 H   0  0  0  0  0  0  0  0  0  0  0  0
    4.3866    1.0348    4.6572 H   0  0  0  0  0  0  0  0  0  0  0  0
    5.6512    6.1374   -2.4178 H   0  0  0  0  0  0  0  0  0  0  0  0
    4.1562    5.2627   -2.6925 H   0  0  0  0  0  0  0  0  0  0  0  0
    4.1119    7.0116   -2.4079 H   0  0  0  0  0  0  0  0  0  0  0  0
    5.2776    6.5837    1.1883 H   0  0  0  0  0  0  0  0  0  0  0  0
    6.1964    7.0705   -0.2274 H   0  0  0  0  0  0  0  0  0  0  0  0
    4.6323    7.8379    0.1123 H   0  0  0  0  0  0  0  0  0  0  0  0
    8.8611    3.5799   -0.7059 H   0  0  0  0  0  0  0  0  0  0  0  0
    2.6102    2.3218    5.6990 H   0  0  0  0  0  0  0  0  0  0  0  0
  1  2  1  0  0  0  0 
  1  3  1  0  0  0  0 
  1  4  1  0  0  0  0 
  1  5  1  0  0  0  0 
  6  2  1  0  0  0  0 
  3  7  1  0  0  0  0 
  3  8  2  0  0  0  0 
  4  9  2  0  0  0  0 
  4 10  1  0  0  0  0 
  5 11  2  0  0  0  0 
  5 12  1  0  0  0  0 
  6 13  1  0  0  0  0 
  6 14  1  0  0  0  0 
  7 15  1  0  0  0  0 
  9 16  1  0  0  0  0 
 10 17  2  0  0  0  0 
 11 18  1  0  0  0  0 
 12 19  2  0  0  0  0 
 13 20  1  0  0  0  0 
 13 21  1  0  0  0  0 
 16 22  2  0  0  0  0 
 17 22  1  0  0  0  0 
 18 23  2  0  0  0  0 
 19 23  1  0  0  0  0 
  2 24  1  0  0  0  0 
  2 25  1  0  0  0  0 
  6 26  1  0  0  0  0 
  7 27  1  0  0  0  0 
  7 28  1  0  0  0  0 
  9 29  1  0  0  0  0 
 10 30  1  0  0  0  0 
 11 31  1  0  0  0  0 
 12 32  1  0  0  0  0 
 14 33  1  0  0  0  0 
 14 34  1  0  0  0  0 
 14 35  1  0  0  0  0 
 15 36  1  0  0  0  0 
 15 37  1  0  0  0  0 
 15 38  1  0  0  0  0 
 16 39  1  0  0  0  0 
 17 40  1  0  0  0  0 
 18 41  1  0  0  0  0 
 19 42  1  0  0  0  0 
 20 43  1  0  0  0  0 
 20 44  1  0  0  0  0 
 20 45  1  0  0  0  0 
 21 46  1  0  0  0  0 
 21 47  1  0  0  0  0 
 21 48  1  0  0  0  0 
 22 49  1  0  0  0  0 
 23 50  1  0  0  0  0 
M  END
> <cdk:Title>
methadone

> <Conformer>
1

> <SuperDrugID>
SD001529

$$$$
