picodralazine
  CDK     0628171802

 32 34  0  0  0  0  0  0  0  0999 V2000
   -0.5620    4.2386    5.3160 C   0  0  0  0  0  0  0  0  0  0  0  0
    0.4082    4.3317    4.3091 C   0  0  0  0  0  0  0  0  0  0  0  0
    0.0424    4.1520    2.9652 C   0  0  0  0  0  0  0  0  0  0  0  0
   -1.3008    3.8859    2.6000 C   0  0  0  0  0  0  0  0  0  0  0  0
   -2.2978    3.8332    3.6247 C   0  0  0  0  0  0  0  0  0  0  0  0
   -1.9053    4.0038    4.9773 C   0  0  0  0  0  0  0  0  0  0  0  0
   -1.7019    3.6807    1.2496 C   0  0  0  0  0  0  0  0  0  0  0  0
   -3.0244    3.5030    1.0025 N   0  0  0  0  0  0  0  0  0  0  0  0
   -3.9337    3.4751    1.9331 N   0  0  0  0  0  0  0  0  0  0  0  0
   -3.6504    3.6133    3.2531 C   0  0  0  0  0  0  0  0  0  0  0  0
   -0.7849    3.6107    0.0777 C   0  0  1  0  0  0  0  0  0  0  0  0
   -0.0331    2.3246    0.0427 C   0  0  0  0  0  0  0  0  0  0  0  0
   -4.6655    3.5407    4.1553 N   0  0  0  0  0  0  0  0  0  0  0  0
   -0.0190   -0.1101   -0.1510 C   0  0  0  0  0  0  0  0  0  0  0  0
    1.3302   -0.1064   -0.0157 N   0  0  0  0  0  0  0  0  0  0  0  0
    2.0404    1.0381    0.1416 C   0  0  0  0  0  0  0  0  0  0  0  0
    1.3763    2.2788    0.1726 C   0  0  0  0  0  0  0  0  0  0  0  0
   -0.7289    1.1033   -0.1303 C   0  0  0  0  0  0  0  0  0  0  0  0
   -5.9530    3.3436    3.8031 N   0  0  2  0  0  0  0  0  0  0  0  0
   -0.2890    4.3500    6.2945 H   0  0  0  0  0  0  0  0  0  0  0  0
    1.3803    4.5310    4.5539 H   0  0  0  0  0  0  0  0  0  0  0  0
    0.7739    4.2311    2.2612 H   0  0  0  0  0  0  0  0  0  0  0  0
   -2.5897    3.9622    5.7344 H   0  0  0  0  0  0  0  0  0  0  0  0
   -1.3565    3.6913   -0.8514 H   0  0  0  0  0  0  0  0  0  0  0  0
   -0.1168    4.4740    0.0905 H   0  0  0  0  0  0  0  0  0  0  0  0
   -4.4591    3.6140    5.0993 H   0  0  0  0  0  0  0  0  0  0  0  0
   -0.5138   -0.9945   -0.2723 H   0  0  0  0  0  0  0  0  0  0  0  0
    3.0566    0.9887    0.2361 H   0  0  0  0  0  0  0  0  0  0  0  0
    1.9242    3.1333    0.2887 H   0  0  0  0  0  0  0  0  0  0  0  0
   -1.7462    1.0904   -0.2431 H   0  0  0  0  0  0  0  0  0  0  0  0
   -6.5148    3.4580    4.6502 H   0  0  0  0  0  0  0  0  0  0  0  0
   -6.0360    2.3652    3.5249 H   0  0  0  0  0  0  0  0  0  0  0  0
  1  2  2  0  0  0  0 
  2  3  1  0  0  0  0 
  3  4  2  0  0  0  0 
  4  5  1  0  0  0  0 
  5  6  2  0  0  0  0 
  1  6  1  0  0  0  0 
  7  8  2  0  0  0  0 
  8  9  1  0  0  0  0 
  9 10  2  0  0  0  0 
  4  7  1  0  0  0  0 
  5 10  1  0  0  0  0 
  7 11  1  0  0  0  0 
 11 12  1  0  0  0  0 
 10 13  1  0  0  0  0 
 14 15  1  0  0  0  0 
 15 16  2  0  0  0  0 
 16 17  1  0  0  0  0 
 14 18  2  0  0  0  0 
 17 12  2  0  0  0  0 
 12 18  1  0  0  0  0 
 13 19  1  0  0  0  0 
 20  1  1  0  0  0  0 
 21  2  1  0  0  0  0 
 22  3  1  0  0  0  0 
 23  6  1  0  0  0  0 
 24 11  1  0  0  0  0 
 25 11  1  0  0  0  0 
 26 13  1  0  0  0  0 
 27 14  1  0  0  0  0 
 28 16  1  0  0  0  0 
 29 17  1  0  0  0  0 
 30 18  1  0  0  0  0 
 31 19  1  0  0  0  0 
 32 19  1  0  0  0  0 
M  END
> <cdk:Title>
picodralazine

> <Conformer>
1

> <SuperDrugID>
SD003718

$$$$
