creatinolfosfate
  CDK     0628171802

 24 23  0  0  0  0  0  0  0  0999 V2000
    0.9837    2.5392    0.7443 C   0  0  1  0  0  0  0  0  0  0  0  0
    2.2405    3.0847    1.4651 C   0  0  1  0  0  0  0  0  0  0  0  0
    1.0919    1.1076    0.6153 O   0  0  0  0  0  0  0  0  0  0  0  0
    2.1748    4.5234    1.6784 N   0  0  0  0  0  0  0  0  0  0  0  0
   -0.1200    0.3957   -0.1480 P   0  0  1  0  0  0  0  0  0  0  0  0
    2.4295    5.4020    0.6683 C   0  0  0  0  0  0  0  0  0  0  0  0
    1.8061    4.9651    3.0106 C   0  0  0  0  0  0  0  0  0  0  0  0
    0.0114   -1.0607   -0.0302 O   0  0  0  0  0  0  0  0  0  0  0  0
   -1.4993    0.8690    0.4751 O   0  0  0  0  0  0  0  0  0  0  0  0
   -0.0887    0.8031   -1.6798 O   0  0  0  0  0  0  0  0  0  0  0  0
    2.4074    6.6721    0.8275 N   0  0  0  0  0  0  0  0  0  0  0  0
    2.7275    5.0176   -0.5616 N   0  0  0  0  0  0  0  0  0  0  0  0
    0.1086    2.8024    1.3440 H   0  0  0  0  0  0  0  0  0  0  0  0
    0.8948    3.0157   -0.2353 H   0  0  0  0  0  0  0  0  0  0  0  0
    2.3354    2.5524    2.4176 H   0  0  0  0  0  0  0  0  0  0  0  0
    3.1366    2.8263    0.8928 H   0  0  0  0  0  0  0  0  0  0  0  0
    0.8839    4.4712    3.3263 H   0  0  0  0  0  0  0  0  0  0  0  0
    1.6373    6.0408    3.1000 H   0  0  0  0  0  0  0  0  0  0  0  0
    2.6041    4.6954    3.7076 H   0  0  0  0  0  0  0  0  0  0  0  0
   -1.4272    0.6608    1.4307 H   0  0  0  0  0  0  0  0  0  0  0  0
   -0.2010    1.7758   -1.6871 H   0  0  0  0  0  0  0  0  0  0  0  0
    2.5928    7.2419    0.1101 H   0  0  0  0  0  0  0  0  0  0  0  0
    2.7780    4.0744   -0.7804 H   0  0  0  0  0  0  0  0  0  0  0  0
    2.8965    5.6793   -1.2512 H   0  0  0  0  0  0  0  0  0  0  0  0
  1  2  1  0  0  0  0 
  1  3  1  0  0  0  0 
  2  4  1  0  0  0  0 
  3  5  1  0  0  0  0 
  4  6  1  0  0  0  0 
  4  7  1  0  0  0  0 
  5  8  2  0  0  0  0 
  5  9  1  0  0  0  0 
  5 10  1  0  0  0  0 
  6 11  2  0  0  0  0 
  6 12  1  0  0  0  0 
  1 13  1  0  0  0  0 
  1 14  1  0  0  0  0 
  2 15  1  0  0  0  0 
  2 16  1  0  0  0  0 
  7 17  1  0  0  0  0 
  7 18  1  0  0  0  0 
  7 19  1  0  0  0  0 
  9 20  1  0  0  0  0 
 10 21  1  0  0  0  0 
 11 22  1  0  0  0  0 
 12 23  1  0  0  0  0 
 12 24  1  0  0  0  0 
M  END
> <cdk:Title>
creatinolfosfate

> <Conformer>
1

> <SuperDrugID>
SD000650

$$$$
