amifostine
  CDK     0628171801

 27 26  0  0  0  0  0  0  0  0999 V2000
   -6.1211   -2.3268    6.6662 S   0  0  0  0  0  0  0  0  0  0  0  0
   -5.9206   -0.7498    7.5649 C   0  0  2  0  0  0  0  0  0  0  0  0
   -7.3473   -3.4155    7.7875 P   0  0  2  0  0  0  0  0  0  0  0  0
   -5.2549    0.3469    6.6978 C   0  0  2  0  0  0  0  0  0  0  0  0
   -6.8001   -3.5910    9.1361 O   0  0  0  0  0  0  0  0  0  0  0  0
   -7.5551   -4.8248    7.0965 O   0  0  0  0  0  0  0  0  0  0  0  0
   -8.7529   -2.6892    7.8610 O   0  0  0  0  0  0  0  0  0  0  0  0
   -5.9187    0.5824    5.3914 N   0  0  1  0  0  0  0  0  0  0  0  0
   -7.2568    1.2141    5.4454 C   0  0  1  0  0  0  0  0  0  0  0  0
   -7.8322    1.3878    4.0204 C   0  0  2  0  0  0  0  0  0  0  0  0
   -9.2669    1.9659    4.0361 C   0  0  2  0  0  0  0  0  0  0  0  0
   -9.8052    2.0966    2.6794 N   0  0  2  0  0  0  0  0  0  0  0  0
   -5.3096   -0.9333    8.4496 H   0  0  0  0  0  0  0  0  0  0  0  0
   -6.8973   -0.4046    7.9022 H   0  0  0  0  0  0  0  0  0  0  0  0
   -4.2266    0.0436    6.4866 H   0  0  0  0  0  0  0  0  0  0  0  0
   -5.2068    1.2807    7.2667 H   0  0  0  0  0  0  0  0  0  0  0  0
   -7.8947   -4.6200    6.1999 H   0  0  0  0  0  0  0  0  0  0  0  0
   -9.0689   -2.6544    6.9340 H   0  0  0  0  0  0  0  0  0  0  0  0
   -5.3132    1.2169    4.8646 H   0  0  0  0  0  0  0  0  0  0  0  0
   -7.9381    0.5853    6.0201 H   0  0  0  0  0  0  0  0  0  0  0  0
   -7.1866    2.1902    5.9299 H   0  0  0  0  0  0  0  0  0  0  0  0
   -7.8473    0.4166    3.5198 H   0  0  0  0  0  0  0  0  0  0  0  0
   -7.1830    2.0561    3.4500 H   0  0  0  0  0  0  0  0  0  0  0  0
   -9.2686    2.9536    4.5018 H   0  0  0  0  0  0  0  0  0  0  0  0
   -9.9308    1.3064    4.5995 H   0  0  0  0  0  0  0  0  0  0  0  0
  -10.7546    2.4647    2.7778 H   0  0  0  0  0  0  0  0  0  0  0  0
   -9.8987    1.1479    2.3101 H   0  0  0  0  0  0  0  0  0  0  0  0
  1  2  1  0  0  0  0 
  1  3  1  0  0  0  0 
  2  4  1  0  0  0  0 
  3  5  2  0  0  0  0 
  3  6  1  0  0  0  0 
  3  7  1  0  0  0  0 
  4  8  1  0  0  0  0 
  8  9  1  0  0  0  0 
  9 10  1  0  0  0  0 
 10 11  1  0  0  0  0 
 11 12  1  0  0  0  0 
  2 13  1  0  0  0  0 
  2 14  1  0  0  0  0 
  4 15  1  0  0  0  0 
  4 16  1  0  0  0  0 
  6 17  1  0  0  0  0 
  7 18  1  0  0  0  0 
  8 19  1  0  0  0  0 
  9 20  1  0  0  0  0 
  9 21  1  0  0  0  0 
 10 22  1  0  0  0  0 
 10 23  1  0  0  0  0 
 11 24  1  0  0  0  0 
 11 25  1  0  0  0  0 
 12 26  1  0  0  0  0 
 12 27  1  0  0  0  0 
M  END
> <cdk:Title>
amifostine

> <Conformer>
1

> <SuperDrugID>
SD000122

$$$$
