clofibride
  CDK     0628171802

 44 44  0  0  0  0  0  0  0  0999 V2000
   -1.2475   -1.7378   -1.1775 O   0  0  0  0  0  0  0  0  0  0  0  0
   -1.0755   -1.7534   -2.6259 C   0  0  2  0  0  0  0  0  0  0  0  0
   -0.1795   -1.5687   -0.3350 C   0  0  0  0  0  0  0  0  0  0  0  0
   -2.4432   -1.9927   -3.1753 C   0  0  0  0  0  0  0  0  0  0  0  0
   -0.1229   -2.9025   -3.0803 C   0  0  0  0  0  0  0  0  0  0  0  0
   -0.5792   -0.3737   -3.1555 C   0  0  0  0  0  0  0  0  0  0  0  0
    0.1929   -0.2791    0.0973 C   0  0  0  0  0  0  0  0  0  0  0  0
    0.4928   -2.6930    0.1853 C   0  0  0  0  0  0  0  0  0  0  0  0
   -3.5062   -1.9754   -2.3206 O   0  0  0  0  0  0  0  0  0  0  0  0
   -2.6331   -2.1646   -4.4042 O   0  0  0  0  0  0  0  0  0  0  0  0
    1.2448   -0.1131    1.0166 C   0  0  0  0  0  0  0  0  0  0  0  0
    1.5445   -2.5320    1.1056 C   0  0  0  0  0  0  0  0  0  0  0  0
   -4.8932   -2.1607   -2.6052 C   0  0  1  0  0  0  0  0  0  0  0  0
    1.9209   -1.2399    1.5263 C   0  0  0  0  0  0  0  0  0  0  0  0
   -5.6612   -1.8744   -1.2928 C   0  0  2  0  0  0  0  0  0  0  0  0
    3.1668   -1.0443    2.6535 Cl  0  0  0  0  0  0  0  0  0  0  0  0
   -7.2010   -2.0579   -1.3857 C   0  0  1  0  0  0  0  0  0  0  0  0
   -7.9102   -1.5576   -0.1699 C   0  0  0  0  0  0  0  0  0  0  0  0
   -8.9529   -0.6340   -0.1514 N   0  0  0  0  0  0  0  0  0  0  0  0
   -7.5051   -2.0563    0.9085 O   0  0  0  0  0  0  0  0  0  0  0  0
   -9.4697   -0.0995    1.0928 C   0  0  0  0  0  0  0  0  0  0  0  0
   -9.5753   -0.1744   -1.3735 C   0  0  0  0  0  0  0  0  0  0  0  0
   -0.4874   -3.8656   -2.7166 H   0  0  0  0  0  0  0  0  0  0  0  0
    0.8814   -2.7448   -2.6863 H   0  0  0  0  0  0  0  0  0  0  0  0
   -0.0445   -2.9474   -4.1687 H   0  0  0  0  0  0  0  0  0  0  0  0
   -1.2623    0.4206   -2.8443 H   0  0  0  0  0  0  0  0  0  0  0  0
    0.4116   -0.1450   -2.7630 H   0  0  0  0  0  0  0  0  0  0  0  0
   -0.5126   -0.3672   -4.2456 H   0  0  0  0  0  0  0  0  0  0  0  0
   -0.3085    0.5417   -0.2492 H   0  0  0  0  0  0  0  0  0  0  0  0
    0.2107   -3.6343   -0.0980 H   0  0  0  0  0  0  0  0  0  0  0  0
    1.5085    0.8290    1.3160 H   0  0  0  0  0  0  0  0  0  0  0  0
    2.0264   -3.3572    1.4702 H   0  0  0  0  0  0  0  0  0  0  0  0
   -5.2022   -1.4629   -3.3880 H   0  0  0  0  0  0  0  0  0  0  0  0
   -5.0636   -3.1861   -2.9410 H   0  0  0  0  0  0  0  0  0  0  0  0
   -5.4411   -0.8455   -0.9915 H   0  0  0  0  0  0  0  0  0  0  0  0
   -5.2717   -2.5408   -0.5181 H   0  0  0  0  0  0  0  0  0  0  0  0
   -7.5470   -1.5534   -2.2854 H   0  0  0  0  0  0  0  0  0  0  0  0
   -7.4270   -3.1199   -1.5022 H   0  0  0  0  0  0  0  0  0  0  0  0
  -10.4856   -0.4626    1.2567 H   0  0  0  0  0  0  0  0  0  0  0  0
   -8.8778   -0.3679    1.9690 H   0  0  0  0  0  0  0  0  0  0  0  0
   -9.4911    0.9917    1.0554 H   0  0  0  0  0  0  0  0  0  0  0  0
  -10.4185    0.4965   -1.1992 H   0  0  0  0  0  0  0  0  0  0  0  0
   -9.9548   -1.0253   -1.9420 H   0  0  0  0  0  0  0  0  0  0  0  0
   -8.8566    0.3718   -1.9861 H   0  0  0  0  0  0  0  0  0  0  0  0
  1  2  1  0  0  0  0 
  1  3  1  0  0  0  0 
  2  4  1  0  0  0  0 
  2  5  1  0  0  0  0 
  2  6  1  0  0  0  0 
  3  7  2  0  0  0  0 
  3  8  1  0  0  0  0 
  4  9  1  0  0  0  0 
  4 10  2  0  0  0  0 
  7 11  1  0  0  0  0 
  8 12  2  0  0  0  0 
  9 13  1  0  0  0  0 
 11 14  2  0  0  0  0 
 12 14  1  0  0  0  0 
 13 15  1  0  0  0  0 
 14 16  1  0  0  0  0 
 15 17  1  0  0  0  0 
 17 18  1  0  0  0  0 
 18 19  1  0  0  0  0 
 18 20  2  0  0  0  0 
 19 21  1  0  0  0  0 
 19 22  1  0  0  0  0 
  5 23  1  0  0  0  0 
  5 24  1  0  0  0  0 
  5 25  1  0  0  0  0 
  6 26  1  0  0  0  0 
  6 27  1  0  0  0  0 
  6 28  1  0  0  0  0 
  7 29  1  0  0  0  0 
  8 30  1  0  0  0  0 
 11 31  1  0  0  0  0 
 12 32  1  0  0  0  0 
 13 33  1  0  0  0  0 
 13 34  1  0  0  0  0 
 15 35  1  0  0  0  0 
 15 36  1  0  0  0  0 
 17 37  1  0  0  0  0 
 17 38  1  0  0  0  0 
 21 39  1  0  0  0  0 
 21 40  1  0  0  0  0 
 21 41  1  0  0  0  0 
 22 42  1  0  0  0  0 
 22 43  1  0  0  0  0 
 22 44  1  0  0  0  0 
M  END
> <cdk:Title>
clofibride

> <Conformer>
1

> <SuperDrugID>
SD000613

$$$$
