secobarbital
  CDK     0628171801

 35 35  0  0  0  0  0  0  0  0999 V2000
    1.2572   -1.1965   -2.4404 C   0  0  1  0  0  0  0  0  0  0  0  0
    1.3352   -0.4786   -1.0430 C   0  0  1  0  0  0  0  0  0  0  0  0
    0.6222   -0.2383   -3.5014 C   0  0  0  0  0  0  0  0  0  0  0  0
    2.6344   -1.8760   -2.8813 C   0  0  1  0  0  0  0  0  0  0  0  0
   -0.0352   -0.0459   -0.4453 C   0  0  1  0  0  0  0  0  0  0  0  0
    2.5831   -2.6249   -4.2739 C   0  0  1  0  0  0  0  0  0  0  0  0
    3.7185   -0.8318   -2.9963 C   0  0  0  0  0  0  0  0  0  0  0  0
    3.0414   -2.9021   -1.8455 C   0  0  0  0  0  0  0  0  0  0  0  0
    0.0536    0.4048    1.0303 C   0  0  0  0  0  0  0  0  0  0  0  0
    1.5016   -3.5930   -4.4268 C   0  0  0  0  0  0  0  0  0  0  0  0
    3.6313    0.1083   -3.8189 O   0  0  0  0  0  0  0  0  0  0  0  0
    4.8516   -0.8539   -2.2482 N   0  0  0  0  0  0  0  0  0  0  0  0
    2.3012   -3.8739   -1.5653 O   0  0  0  0  0  0  0  0  0  0  0  0
    4.2093   -2.8347   -1.1548 N   0  0  0  0  0  0  0  0  0  0  0  0
    1.6832   -4.9151   -4.5265 C   0  0  0  0  0  0  0  0  0  0  0  0
    5.0962   -1.8340   -1.3504 C   0  0  0  0  0  0  0  0  0  0  0  0
    6.1631   -1.8220   -0.6972 O   0  0  0  0  0  0  0  0  0  0  0  0
    0.5320   -2.0064   -2.3177 H   0  0  0  0  0  0  0  0  0  0  0  0
    1.8008   -1.1538   -0.3228 H   0  0  0  0  0  0  0  0  0  0  0  0
    1.9784    0.4016   -1.1208 H   0  0  0  0  0  0  0  0  0  0  0  0
    0.6146   -0.6775   -4.4955 H   0  0  0  0  0  0  0  0  0  0  0  0
   -0.4174   -0.0214   -3.2539 H   0  0  0  0  0  0  0  0  0  0  0  0
    1.1571    0.7095   -3.5489 H   0  0  0  0  0  0  0  0  0  0  0  0
   -0.4460    0.7829   -1.0262 H   0  0  0  0  0  0  0  0  0  0  0  0
   -0.7358   -0.8825   -0.5038 H   0  0  0  0  0  0  0  0  0  0  0  0
    2.4701   -1.9071   -5.0899 H   0  0  0  0  0  0  0  0  0  0  0  0
    3.5514   -3.1087   -4.4514 H   0  0  0  0  0  0  0  0  0  0  0  0
   -0.9329    0.7154    1.3800 H   0  0  0  0  0  0  0  0  0  0  0  0
    0.7414    1.2461    1.1349 H   0  0  0  0  0  0  0  0  0  0  0  0
    0.3995   -0.4201    1.6566 H   0  0  0  0  0  0  0  0  0  0  0  0
    0.5677   -3.2508   -4.4640 H   0  0  0  0  0  0  0  0  0  0  0  0
    5.5072   -0.1490   -2.3659 H   0  0  0  0  0  0  0  0  0  0  0  0
    4.4135   -3.5223   -0.5010 H   0  0  0  0  0  0  0  0  0  0  0  0
    2.5915   -5.3128   -4.4950 H   0  0  0  0  0  0  0  0  0  0  0  0
    0.9026   -5.5214   -4.6276 H   0  0  0  0  0  0  0  0  0  0  0  0
  1  2  1  0  0  0  0 
  1  3  1  0  0  0  0 
  1  4  1  0  0  0  0 
  2  5  1  0  0  0  0 
  4  6  1  0  0  0  0 
  4  7  1  0  0  0  0 
  4  8  1  0  0  0  0 
  5  9  1  0  0  0  0 
  6 10  1  0  0  0  0 
  7 11  2  0  0  0  0 
  7 12  1  0  0  0  0 
  8 13  2  0  0  0  0 
  8 14  1  0  0  0  0 
 10 15  2  0  0  0  0 
 12 16  1  0  0  0  0 
 14 16  1  0  0  0  0 
 16 17  2  0  0  0  0 
 18  1  1  0  0  0  0 
 19  2  1  0  0  0  0 
 20  2  1  0  0  0  0 
 21  3  1  0  0  0  0 
 22  3  1  0  0  0  0 
 23  3  1  0  0  0  0 
 24  5  1  0  0  0  0 
 25  5  1  0  0  0  0 
 26  6  1  0  0  0  0 
 27  6  1  0  0  0  0 
 28  9  1  0  0  0  0 
 29  9  1  0  0  0  0 
 30  9  1  0  0  0  0 
 31 10  1  0  0  0  0 
 32 12  1  0  0  0  0 
 33 14  1  0  0  0  0 
 34 15  1  0  0  0  0 
 35 15  1  0  0  0  0 
M  END
> <cdk:Title>
secobarbital

> <Conformer>
1

> <SuperDrugID>
SD002184

$$$$
