raloxifene
  CDK     0628171801

 61 65  0  0  0  0  0  0  0  0999 V2000
    2.9984   -0.1202    7.5202 C   0  0  0  0  0  0  0  0  0  0  0  0
    3.0026   -0.4459    8.7323 O   0  0  0  0  0  0  0  0  0  0  0  0
    4.2826    0.2540    7.0164 C   0  0  0  0  0  0  0  0  0  0  0  0
    1.7602   -0.2107    6.7883 C   0  0  0  0  0  0  0  0  0  0  0  0
    4.8667   -0.3003    5.8473 C   0  0  0  0  0  0  0  0  0  0  0  0
    5.1239    1.2006    7.6788 C   0  0  0  0  0  0  0  0  0  0  0  0
    1.6137    0.2131    5.4405 C   0  0  0  0  0  0  0  0  0  0  0  0
    0.6082   -0.7627    7.4107 C   0  0  0  0  0  0  0  0  0  0  0  0
    6.4611    0.4108    5.6492 S   0  0  0  0  0  0  0  0  0  0  0  0
    4.3494   -1.2621    4.9486 C   0  0  0  0  0  0  0  0  0  0  0  0
    6.3803    1.4113    7.0791 C   0  0  0  0  0  0  0  0  0  0  0  0
    4.8337    1.9506    8.8470 C   0  0  0  0  0  0  0  0  0  0  0  0
    0.4137    0.0121    4.7306 C   0  0  0  0  0  0  0  0  0  0  0  0
   -0.6091   -0.9104    6.7234 C   0  0  0  0  0  0  0  0  0  0  0  0
    3.7412   -2.4486    5.4172 C   0  0  0  0  0  0  0  0  0  0  0  0
    4.3954   -1.0244    3.5545 C   0  0  0  0  0  0  0  0  0  0  0  0
    7.3446    2.2984    7.5825 C   0  0  0  0  0  0  0  0  0  0  0  0
    5.7847    2.8511    9.3757 C   0  0  0  0  0  0  0  0  0  0  0  0
   -0.7146   -0.5235    5.3761 C   0  0  0  0  0  0  0  0  0  0  0  0
    3.1449   -3.3504    4.5186 C   0  0  0  0  0  0  0  0  0  0  0  0
    3.8054   -1.9291    2.6537 C   0  0  0  0  0  0  0  0  0  0  0  0
    7.0354    3.0290    8.7478 C   0  0  0  0  0  0  0  0  0  0  0  0
   -1.8941   -0.7103    4.7026 O   0  0  0  0  0  0  0  0  0  0  0  0
    3.1725   -3.0914    3.1362 C   0  0  0  0  0  0  0  0  0  0  0  0
    7.9225    3.9128    9.2749 O   0  0  0  0  0  0  0  0  0  0  0  0
   -2.8906    0.3260    4.8803 C   0  0  1  0  0  0  0  0  0  0  0  0
    2.5948   -3.9748    2.2863 O   0  0  0  0  0  0  0  0  0  0  0  0
   -2.8925    1.3490    3.7154 C   0  0  2  0  0  0  0  0  0  0  0  0
   -1.6973    2.2471    3.7828 N   0  0  2  0  0  0  0  0  0  0  0  0
   -1.8860    3.4464    4.6602 C   0  0  2  0  0  0  0  0  0  0  0  0
   -1.1113    2.6049    2.4539 C   0  0  1  0  0  0  0  0  0  0  0  0
   -0.5412    4.1709    4.9054 C   0  0  2  0  0  0  0  0  0  0  0  0
    0.2760    3.2685    2.6433 C   0  0  1  0  0  0  0  0  0  0  0  0
    0.1818    4.5019    3.5748 C   0  0  1  0  0  0  0  0  0  0  0  0
    2.3839    0.6626    4.9461 H   0  0  0  0  0  0  0  0  0  0  0  0
    0.6355   -1.0759    8.3833 H   0  0  0  0  0  0  0  0  0  0  0  0
    3.9337    1.8596    9.3238 H   0  0  0  0  0  0  0  0  0  0  0  0
    0.3606    0.2548    3.7403 H   0  0  0  0  0  0  0  0  0  0  0  0
   -1.4184   -1.3084    7.2062 H   0  0  0  0  0  0  0  0  0  0  0  0
    3.7194   -2.6625    6.4170 H   0  0  0  0  0  0  0  0  0  0  0  0
    4.8354   -0.1796    3.1802 H   0  0  0  0  0  0  0  0  0  0  0  0
    8.2454    2.4111    7.1116 H   0  0  0  0  0  0  0  0  0  0  0  0
    5.5598    3.3835   10.2195 H   0  0  0  0  0  0  0  0  0  0  0  0
    2.6902   -4.1949    4.8748 H   0  0  0  0  0  0  0  0  0  0  0  0
    3.8309   -1.7335    1.6496 H   0  0  0  0  0  0  0  0  0  0  0  0
    8.7034    3.8988    8.6822 H   0  0  0  0  0  0  0  0  0  0  0  0
   -3.8607   -0.1755    4.8724 H   0  0  0  0  0  0  0  0  0  0  0  0
   -2.8135    0.8384    5.8463 H   0  0  0  0  0  0  0  0  0  0  0  0
    2.9007   -3.7146    1.3931 H   0  0  0  0  0  0  0  0  0  0  0  0
   -3.8172    1.9370    3.7433 H   0  0  0  0  0  0  0  0  0  0  0  0
   -2.9126    0.7764    2.7822 H   0  0  0  0  0  0  0  0  0  0  0  0
   -2.2891    3.1537    5.6325 H   0  0  0  0  0  0  0  0  0  0  0  0
   -2.5969    4.1388    4.1977 H   0  0  0  0  0  0  0  0  0  0  0  0
   -0.9717    1.7055    1.8490 H   0  0  0  0  0  0  0  0  0  0  0  0
   -1.7830    3.2774    1.9085 H   0  0  0  0  0  0  0  0  0  0  0  0
    0.1009    3.5311    5.5174 H   0  0  0  0  0  0  0  0  0  0  0  0
   -0.7264    5.0952    5.4578 H   0  0  0  0  0  0  0  0  0  0  0  0
    0.9729    2.5491    3.0807 H   0  0  0  0  0  0  0  0  0  0  0  0
    0.6710    3.5664    1.6692 H   0  0  0  0  0  0  0  0  0  0  0  0
   -0.3607    5.2962    3.0559 H   0  0  0  0  0  0  0  0  0  0  0  0
    1.1902    4.8632    3.7956 H   0  0  0  0  0  0  0  0  0  0  0  0
  1  2  2  0  0  0  0 
  1  3  1  0  0  0  0 
  1  4  1  0  0  0  0 
  3  5  2  0  0  0  0 
  3  6  1  0  0  0  0 
  4  7  2  0  0  0  0 
  4  8  1  0  0  0  0 
  5  9  1  0  0  0  0 
  5 10  1  0  0  0  0 
  6 11  1  0  0  0  0 
  6 12  2  0  0  0  0 
  7 13  1  0  0  0  0 
  8 14  2  0  0  0  0 
  9 11  1  0  0  0  0 
 10 15  2  0  0  0  0 
 10 16  1  0  0  0  0 
 11 17  2  0  0  0  0 
 12 18  1  0  0  0  0 
 13 19  2  0  0  0  0 
 14 19  1  0  0  0  0 
 15 20  1  0  0  0  0 
 16 21  2  0  0  0  0 
 17 22  1  0  0  0  0 
 18 22  2  0  0  0  0 
 19 23  1  0  0  0  0 
 20 24  2  0  0  0  0 
 21 24  1  0  0  0  0 
 22 25  1  0  0  0  0 
 23 26  1  0  0  0  0 
 24 27  1  0  0  0  0 
 26 28  1  0  0  0  0 
 28 29  1  0  0  0  0 
 29 30  1  0  0  0  0 
 29 31  1  0  0  0  0 
 30 32  1  0  0  0  0 
 31 33  1  0  0  0  0 
 32 34  1  0  0  0  0 
 33 34  1  0  0  0  0 
  7 35  1  0  0  0  0 
  8 36  1  0  0  0  0 
 12 37  1  0  0  0  0 
 13 38  1  0  0  0  0 
 14 39  1  0  0  0  0 
 15 40  1  0  0  0  0 
 16 41  1  0  0  0  0 
 17 42  1  0  0  0  0 
 18 43  1  0  0  0  0 
 20 44  1  0  0  0  0 
 21 45  1  0  0  0  0 
 25 46  1  0  0  0  0 
 26 47  1  0  0  0  0 
 26 48  1  0  0  0  0 
 27 49  1  0  0  0  0 
 28 50  1  0  0  0  0 
 28 51  1  0  0  0  0 
 30 52  1  0  0  0  0 
 30 53  1  0  0  0  0 
 31 54  1  0  0  0  0 
 31 55  1  0  0  0  0 
 32 56  1  0  0  0  0 
 32 57  1  0  0  0  0 
 33 58  1  0  0  0  0 
 33 59  1  0  0  0  0 
 34 60  1  0  0  0  0 
 34 61  1  0  0  0  0 
M  END
> <cdk:Title>
raloxifene

> <Conformer>
1

> <SuperDrugID>
SD002114

$$$$
