siccanin
  CDK     0628171801

 55 59  0  0  0  0  0  0  0  0999 V2000
   -2.9430    3.3716   -1.0299 C   0  0  0  0  0  0  0  0  0  0  0  0
   -1.6957    3.0099   -0.1481 C   0  0  2  0  0  0  0  0  0  0  0  0
   -0.7602    1.9742   -0.8338 C   0  0  1  0  0  0  0  0  0  0  0  0
   -2.1795    2.4469    1.0963 O   0  0  0  0  0  0  0  0  0  0  0  0
   -0.8732    4.3272    0.0852 C   0  0  1  0  0  0  0  0  0  0  0  0
    0.6141    1.7001   -0.1279 C   0  0  2  0  0  0  0  0  0  0  0  0
   -1.3682    0.5663   -1.0117 C   0  0  1  0  0  0  0  0  0  0  0  0
   -2.7177    1.1687    1.0377 C   0  0  0  0  0  0  0  0  0  0  0  0
    0.6275    4.1872    0.4918 C   0  0  2  0  0  0  0  0  0  0  0  0
    1.4566    3.0361   -0.2135 C   0  0  1  0  0  0  0  0  0  0  0  0
    0.9555    0.4725   -1.0308 C   0  0  1  0  0  0  0  0  0  0  0  0
    0.6198    1.2122    1.3782 C   0  0  1  0  0  0  0  0  0  0  0  0
   -0.2414   -0.3228   -1.0664 O   0  0  0  0  0  0  0  0  0  0  0  0
   -2.3392    0.2018    0.0626 C   0  0  0  0  0  0  0  0  0  0  0  0
   -3.6769    0.8397    2.0121 C   0  0  0  0  0  0  0  0  0  0  0  0
    2.9508    2.9046    0.3266 C   0  0  1  0  0  0  0  0  0  0  0  0
    2.0573    1.0278    1.9403 C   0  0  2  0  0  0  0  0  0  0  0  0
   -2.9266   -1.0866    0.1025 C   0  0  0  0  0  0  0  0  0  0  0  0
   -4.2852   -0.4343    2.0399 C   0  0  0  0  0  0  0  0  0  0  0  0
    3.8441    2.0394   -0.6384 C   0  0  0  0  0  0  0  0  0  0  0  0
    3.6695    4.3021    0.3899 C   0  0  0  0  0  0  0  0  0  0  0  0
    2.9461    2.2870    1.7709 C   0  0  1  0  0  0  0  0  0  0  0  0
   -2.5720   -2.0491   -0.7924 O   0  0  0  0  0  0  0  0  0  0  0  0
   -3.8968   -1.3910    1.0774 C   0  0  0  0  0  0  0  0  0  0  0  0
   -5.3254   -0.7524    3.0485 C   0  0  0  0  0  0  0  0  0  0  0  0
   -0.5685    2.3685   -1.8446 H   0  0  0  0  0  0  0  0  0  0  0  0
    1.5292    3.3211   -1.2685 H   0  0  0  0  0  0  0  0  0  0  0  0
   -1.8849    0.5097   -1.9737 H   0  0  0  0  0  0  0  0  0  0  0  0
   -2.6412    3.7866   -1.9963 H   0  0  0  0  0  0  0  0  0  0  0  0
   -3.5608    4.1119   -0.5142 H   0  0  0  0  0  0  0  0  0  0  0  0
   -3.5625    2.4943   -1.2251 H   0  0  0  0  0  0  0  0  0  0  0  0
   -0.8808    4.9274   -0.8305 H   0  0  0  0  0  0  0  0  0  0  0  0
   -1.3826    4.9219    0.8480 H   0  0  0  0  0  0  0  0  0  0  0  0
    0.6743    4.0901    1.5781 H   0  0  0  0  0  0  0  0  0  0  0  0
    1.0924    5.1460    0.2539 H   0  0  0  0  0  0  0  0  0  0  0  0
    1.2437    0.7732   -2.0439 H   0  0  0  0  0  0  0  0  0  0  0  0
    1.7430   -0.1625   -0.6378 H   0  0  0  0  0  0  0  0  0  0  0  0
    0.1023    1.9204    2.0266 H   0  0  0  0  0  0  0  0  0  0  0  0
    0.0926    0.2616    1.4909 H   0  0  0  0  0  0  0  0  0  0  0  0
   -3.9405    1.5445    2.7054 H   0  0  0  0  0  0  0  0  0  0  0  0
    2.5404    0.1774    1.4614 H   0  0  0  0  0  0  0  0  0  0  0  0
    1.9892    0.7888    3.0042 H   0  0  0  0  0  0  0  0  0  0  0  0
    3.6214    0.9823   -0.5725 H   0  0  0  0  0  0  0  0  0  0  0  0
    4.9064    2.1247   -0.3953 H   0  0  0  0  0  0  0  0  0  0  0  0
    3.7081    2.3511   -1.6770 H   0  0  0  0  0  0  0  0  0  0  0  0
    3.2242    4.9536    1.1434 H   0  0  0  0  0  0  0  0  0  0  0  0
    4.7242    4.1982    0.6584 H   0  0  0  0  0  0  0  0  0  0  0  0
    3.6102    4.8053   -0.5788 H   0  0  0  0  0  0  0  0  0  0  0  0
    3.9672    2.0352    2.0695 H   0  0  0  0  0  0  0  0  0  0  0  0
    2.5895    3.0295    2.4883 H   0  0  0  0  0  0  0  0  0  0  0  0
   -2.8708   -2.9008   -0.4005 H   0  0  0  0  0  0  0  0  0  0  0  0
   -4.3303   -2.3182    1.0786 H   0  0  0  0  0  0  0  0  0  0  0  0
   -6.3054   -0.4633    2.6624 H   0  0  0  0  0  0  0  0  0  0  0  0
   -5.1419   -0.2128    3.9807 H   0  0  0  0  0  0  0  0  0  0  0  0
   -5.3417   -1.8205    3.2793 H   0  0  0  0  0  0  0  0  0  0  0  0
  2  1  1  0  0  0  0 
  3  2  1  0  0  0  0 
  2  4  1  0  0  0  0 
  2  5  1  0  0  0  0 
  6  3  1  0  0  0  0 
  3  7  1  0  0  0  0 
  3 26  1  0  0  0  0 
  4  8  1  0  0  0  0 
  5  9  1  0  0  0  0 
 10  6  1  0  0  0  0 
  6 11  1  0  0  0  0 
  6 12  1  0  0  0  0 
  7 13  1  0  0  0  0 
  7 14  1  0  0  0  0 
  7 28  1  0  0  0  0 
  8 14  2  0  0  0  0 
  8 15  1  0  0  0  0 
 10  9  1  0  0  0  0 
 10 16  1  0  0  0  0 
 10 27  1  0  0  0  0 
 11 13  1  0  0  0  0 
 12 17  1  0  0  0  0 
 14 18  1  0  0  0  0 
 15 19  2  0  0  0  0 
 16 20  1  0  0  0  0 
 16 21  1  0  0  0  0 
 16 22  1  0  0  0  0 
 17 22  1  0  0  0  0 
 18 23  1  0  0  0  0 
 18 24  2  0  0  0  0 
 19 24  1  0  0  0  0 
 19 25  1  0  0  0  0 
  1 29  1  0  0  0  0 
  1 30  1  0  0  0  0 
  1 31  1  0  0  0  0 
  5 32  1  0  0  0  0 
  5 33  1  0  0  0  0 
  9 34  1  0  0  0  0 
  9 35  1  0  0  0  0 
 11 36  1  0  0  0  0 
 11 37  1  0  0  0  0 
 12 38  1  0  0  0  0 
 12 39  1  0  0  0  0 
 15 40  1  0  0  0  0 
 17 41  1  0  0  0  0 
 17 42  1  0  0  0  0 
 20 43  1  0  0  0  0 
 20 44  1  0  0  0  0 
 20 45  1  0  0  0  0 
 21 46  1  0  0  0  0 
 21 47  1  0  0  0  0 
 21 48  1  0  0  0  0 
 22 49  1  0  0  0  0 
 22 50  1  0  0  0  0 
 23 51  1  0  0  0  0 
 24 52  1  0  0  0  0 
 25 53  1  0  0  0  0 
 25 54  1  0  0  0  0 
 25 55  1  0  0  0  0 
M  END
> <cdk:Title>
siccanin

> <Conformer>
1

> <SuperDrugID>
SD003051

$$$$
