ceforanide
  CDK     0628171802

 56 59  0  0  0  0  0  0  0  0999 V2000
    3.8497    4.7074    2.8886 C   0  0  0  0  0  0  0  0  0  0  0  0
    2.5194    4.9518    2.9324 O   0  0  0  0  0  0  0  0  0  0  0  0
    4.6158    5.6939    2.8005 O   0  0  0  0  0  0  0  0  0  0  0  0
    4.3702    3.4209    2.9799 C   0  0  0  0  0  0  0  0  0  0  0  0
    5.2485    3.2057    3.9874 N   0  0  0  0  0  0  0  0  0  0  0  0
    3.9792    2.3911    2.1703 C   0  0  0  0  0  0  0  0  0  0  0  0
    6.1560    2.1436    4.2504 C   0  0  1  0  0  0  0  0  0  0  0  0
    5.4034    3.7461    5.2084 C   0  0  0  0  0  0  0  0  0  0  0  0
    2.8872    2.5007    1.1902 C   0  0  1  0  0  0  0  0  0  0  0  0
    4.6220    1.0597    2.2281 C   0  0  2  0  0  0  0  0  0  0  0  0
    6.2579    2.6737    5.7151 C   0  0  1  0  0  0  0  0  0  0  0  0
    5.2630    0.5996    3.8770 S   0  0  0  0  0  0  0  0  0  0  0  0
    4.8906    4.7364    5.7772 O   0  0  0  0  0  0  0  0  0  0  0  0
    1.3858    1.8552    2.0078 S   0  0  0  0  0  0  0  0  0  0  0  0
    5.5785    1.8894    6.6957 N   0  0  0  0  0  0  0  0  0  0  0  0
    0.0819    2.0463    0.8557 C   0  0  0  0  0  0  0  0  0  0  0  0
    5.5075    2.1527    8.0283 C   0  0  0  0  0  0  0  0  0  0  0  0
   -0.3585    1.1740   -0.0672 N   0  0  0  0  0  0  0  0  0  0  0  0
   -0.7070    3.1242    0.8025 N   0  0  0  0  0  0  0  0  0  0  0  0
    4.6501    1.3043    8.8893 C   0  0  2  0  0  0  0  0  0  0  0  0
    6.1235    3.1215    8.5323 O   0  0  0  0  0  0  0  0  0  0  0  0
    0.1369   -0.1310   -0.3834 C   0  0  2  0  0  0  0  0  0  0  0  0
   -1.3806    1.7249   -0.6383 N   0  0  0  0  0  0  0  0  0  0  0  0
   -1.5841    2.8934   -0.1174 N   0  0  0  0  0  0  0  0  0  0  0  0
    5.1463   -0.1055    8.9589 C   0  0  0  0  0  0  0  0  0  0  0  0
    1.3954   -0.0810   -1.1490 C   0  0  0  0  0  0  0  0  0  0  0  0
    5.9058   -0.6309   10.0509 C   0  0  0  0  0  0  0  0  0  0  0  0
    4.8576   -0.9558    7.8611 C   0  0  0  0  0  0  0  0  0  0  0  0
    1.4518    0.5822   -2.3279 O   0  0  0  0  0  0  0  0  0  0  0  0
    2.4229   -0.6702   -0.7443 O   0  0  0  0  0  0  0  0  0  0  0  0
    6.1571    0.1361   11.3008 C   0  0  2  0  0  0  0  0  0  0  0  0
    6.4238   -1.9472    9.9571 C   0  0  0  0  0  0  0  0  0  0  0  0
    5.3593   -2.2642    7.7973 C   0  0  0  0  0  0  0  0  0  0  0  0
    4.9054    0.2390   12.0580 N   0  0  2  0  0  0  0  0  0  0  0  0
    6.1572   -2.7541    8.8396 C   0  0  0  0  0  0  0  0  0  0  0  0
    7.0825    2.2440    3.6748 H   0  0  0  0  0  0  0  0  0  0  0  0
    2.1907    5.8725    2.8613 H   0  0  0  0  0  0  0  0  0  0  0  0
    2.7136    3.5202    0.8445 H   0  0  0  0  0  0  0  0  0  0  0  0
    3.0984    1.9065    0.2964 H   0  0  0  0  0  0  0  0  0  0  0  0
    5.4642    1.0594    1.5339 H   0  0  0  0  0  0  0  0  0  0  0  0
    3.9459    0.2572    1.9228 H   0  0  0  0  0  0  0  0  0  0  0  0
    7.2635    2.9999    5.9973 H   0  0  0  0  0  0  0  0  0  0  0  0
    5.0942    1.1156    6.3746 H   0  0  0  0  0  0  0  0  0  0  0  0
    3.6319    1.3227    8.4905 H   0  0  0  0  0  0  0  0  0  0  0  0
    4.5757    1.7527    9.8803 H   0  0  0  0  0  0  0  0  0  0  0  0
   -0.5900   -0.6638   -0.9989 H   0  0  0  0  0  0  0  0  0  0  0  0
    0.2642   -0.7116    0.5346 H   0  0  0  0  0  0  0  0  0  0  0  0
    4.2763   -0.6263    7.0859 H   0  0  0  0  0  0  0  0  0  0  0  0
    2.2817    0.6037   -2.8490 H   0  0  0  0  0  0  0  0  0  0  0  0
    6.5360    1.1331   11.0720 H   0  0  0  0  0  0  0  0  0  0  0  0
    6.8921   -0.3455   11.9500 H   0  0  0  0  0  0  0  0  0  0  0  0
    6.9974   -2.3382   10.7092 H   0  0  0  0  0  0  0  0  0  0  0  0
    5.1475   -2.8560    6.9905 H   0  0  0  0  0  0  0  0  0  0  0  0
    5.0960    0.8003   12.8886 H   0  0  0  0  0  0  0  0  0  0  0  0
    4.6704   -0.7030   12.3799 H   0  0  0  0  0  0  0  0  0  0  0  0
    6.5363   -3.7022    8.7896 H   0  0  0  0  0  0  0  0  0  0  0  0
  1  2  1  0  0  0  0 
  1  3  2  0  0  0  0 
  1  4  1  0  0  0  0 
  4  5  1  0  0  0  0 
  4  6  2  0  0  0  0 
  7  5  1  0  0  0  0 
  5  8  1  0  0  0  0 
  6  9  1  0  0  0  0 
  6 10  1  0  0  0  0 
 11  7  1  0  0  0  0 
  7 12  1  0  0  0  0 
  7 36  1  0  0  0  0 
 11  8  1  0  0  0  0 
  8 13  2  0  0  0  0 
  9 14  1  0  0  0  0 
 10 12  1  0  0  0  0 
 11 15  1  0  0  0  0 
 14 16  1  0  0  0  0 
 15 17  1  0  0  0  0 
 16 18  1  0  0  0  0 
 16 19  2  0  0  0  0 
 17 20  1  0  0  0  0 
 17 21  2  0  0  0  0 
 18 22  1  0  0  0  0 
 18 23  1  0  0  0  0 
 19 24  1  0  0  0  0 
 20 25  1  0  0  0  0 
 22 26  1  0  0  0  0 
 23 24  2  0  0  0  0 
 25 27  2  0  0  0  0 
 25 28  1  0  0  0  0 
 26 29  1  0  0  0  0 
 26 30  2  0  0  0  0 
 27 31  1  0  0  0  0 
 27 32  1  0  0  0  0 
 28 33  2  0  0  0  0 
 31 34  1  0  0  0  0 
 32 35  2  0  0  0  0 
 33 35  1  0  0  0  0 
  2 37  1  0  0  0  0 
  9 38  1  0  0  0  0 
  9 39  1  0  0  0  0 
 10 40  1  0  0  0  0 
 10 41  1  0  0  0  0 
 11 42  1  0  0  0  0 
 15 43  1  0  0  0  0 
 20 44  1  0  0  0  0 
 20 45  1  0  0  0  0 
 22 46  1  0  0  0  0 
 22 47  1  0  0  0  0 
 28 48  1  0  0  0  0 
 29 49  1  0  0  0  0 
 31 50  1  0  0  0  0 
 31 51  1  0  0  0  0 
 32 52  1  0  0  0  0 
 33 53  1  0  0  0  0 
 34 54  1  0  0  0  0 
 34 55  1  0  0  0  0 
 35 56  1  0  0  0  0 
M  END
> <cdk:Title>
ceforanide

> <Conformer>
1

> <SuperDrugID>
SD000472

$$$$
