octocrylene
  CDK     0628171801

 54 55  0  0  0  0  0  0  0  0999 V2000
   -2.3172    2.6670   -7.9348 C   0  0  0  0  0  0  0  0  0  0  0  0
   -2.4530    2.4072   -6.5996 C   0  0  0  0  0  0  0  0  0  0  0  0
   -1.6404    3.8040   -8.3904 C   0  0  0  0  0  0  0  0  0  0  0  0
   -2.8360    1.8375   -8.9533 C   0  0  0  0  0  0  0  0  0  0  0  0
   -1.7813    3.0950   -5.5732 C   0  0  0  0  0  0  0  0  0  0  0  0
   -2.2098    5.0877   -8.2065 C   0  0  0  0  0  0  0  0  0  0  0  0
   -0.3783    3.7017   -9.0252 C   0  0  0  0  0  0  0  0  0  0  0  0
   -2.4239    0.4830   -9.0407 C   0  0  0  0  0  0  0  0  0  0  0  0
   -3.7570    2.3202   -9.9187 C   0  0  0  0  0  0  0  0  0  0  0  0
   -2.2919    3.1979   -4.2993 O   0  0  0  0  0  0  0  0  0  0  0  0
   -0.6513    3.6003   -5.7814 O   0  0  0  0  0  0  0  0  0  0  0  0
   -1.5266    6.2415   -8.6306 C   0  0  0  0  0  0  0  0  0  0  0  0
    0.3041    4.8597   -9.4478 C   0  0  0  0  0  0  0  0  0  0  0  0
   -2.9361   -0.3675  -10.0369 C   0  0  0  0  0  0  0  0  0  0  0  0
   -4.2656    1.4691  -10.9197 C   0  0  0  0  0  0  0  0  0  0  0  0
   -1.6980    3.9207   -3.2062 C   0  0  1  0  0  0  0  0  0  0  0  0
   -0.2691    6.1291   -9.2492 C   0  0  0  0  0  0  0  0  0  0  0  0
   -3.8569    0.1246  -10.9771 C   0  0  0  0  0  0  0  0  0  0  0  0
   -2.5498    3.8786   -1.8992 C   0  0  1  0  0  0  0  0  0  0  0  0
   -1.8460    4.7328   -0.7893 C   0  0  2  0  0  0  0  0  0  0  0  0
   -4.0498    4.2494   -2.1524 C   0  0  1  0  0  0  0  0  0  0  0  0
   -2.4571    4.6319    0.6373 C   0  0  1  0  0  0  0  0  0  0  0  0
   -4.3331    5.7038   -2.6047 C   0  0  0  0  0  0  0  0  0  0  0  0
   -1.5964    5.3916    1.6870 C   0  0  2  0  0  0  0  0  0  0  0  0
   -2.1675    5.3119    3.1200 C   0  0  0  0  0  0  0  0  0  0  0  0
   -3.2400    1.4741   -6.1976 C   0  0  0  0  0  0  0  0  0  0  0  0
   -3.9568    0.6465   -5.8484 N   0  0  0  0  0  0  0  0  0  0  0  0
   -3.1278    5.1925   -7.7636 H   0  0  0  0  0  0  0  0  0  0  0  0
    0.0581    2.7864   -9.1752 H   0  0  0  0  0  0  0  0  0  0  0  0
   -1.7415    0.1034   -8.3774 H   0  0  0  0  0  0  0  0  0  0  0  0
   -4.0698    3.2928   -9.8994 H   0  0  0  0  0  0  0  0  0  0  0  0
   -1.9452    7.1631   -8.4861 H   0  0  0  0  0  0  0  0  0  0  0  0
    1.2204    4.7775   -9.8971 H   0  0  0  0  0  0  0  0  0  0  0  0
   -2.6377   -1.3442  -10.0759 H   0  0  0  0  0  0  0  0  0  0  0  0
   -4.9332    1.8290  -11.6062 H   0  0  0  0  0  0  0  0  0  0  0  0
   -0.7122    3.4900   -3.0058 H   0  0  0  0  0  0  0  0  0  0  0  0
   -1.5605    4.9604   -3.5139 H   0  0  0  0  0  0  0  0  0  0  0  0
    0.2280    6.9690   -9.5542 H   0  0  0  0  0  0  0  0  0  0  0  0
   -4.2281   -0.4942  -11.7014 H   0  0  0  0  0  0  0  0  0  0  0  0
   -2.5385    2.8385   -1.5573 H   0  0  0  0  0  0  0  0  0  0  0  0
   -1.8350    5.7844   -1.0919 H   0  0  0  0  0  0  0  0  0  0  0  0
   -0.8014    4.4100   -0.7216 H   0  0  0  0  0  0  0  0  0  0  0  0
   -4.4558    3.5786   -2.9146 H   0  0  0  0  0  0  0  0  0  0  0  0
   -4.6270    4.0571   -1.2456 H   0  0  0  0  0  0  0  0  0  0  0  0
   -3.4645    5.0565    0.6314 H   0  0  0  0  0  0  0  0  0  0  0  0
   -2.5297    3.5796    0.9272 H   0  0  0  0  0  0  0  0  0  0  0  0
   -5.4049    5.8392   -2.7666 H   0  0  0  0  0  0  0  0  0  0  0  0
   -4.0151    6.4159   -1.8425 H   0  0  0  0  0  0  0  0  0  0  0  0
   -3.8173    5.9276   -3.5397 H   0  0  0  0  0  0  0  0  0  0  0  0
   -1.5252    6.4466    1.4038 H   0  0  0  0  0  0  0  0  0  0  0  0
   -0.5851    4.9733    1.6995 H   0  0  0  0  0  0  0  0  0  0  0  0
   -1.5133    5.8501    3.8091 H   0  0  0  0  0  0  0  0  0  0  0  0
   -3.1599    5.7643    3.1622 H   0  0  0  0  0  0  0  0  0  0  0  0
   -2.2361    4.2735    3.4494 H   0  0  0  0  0  0  0  0  0  0  0  0
  1  2  2  0  0  0  0 
  1  3  1  0  0  0  0 
  1  4  1  0  0  0  0 
  2  5  1  0  0  0  0 
  3  6  2  0  0  0  0 
  3  7  1  0  0  0  0 
  4  8  2  0  0  0  0 
  4  9  1  0  0  0  0 
  5 10  1  0  0  0  0 
  5 11  2  0  0  0  0 
  6 12  1  0  0  0  0 
  7 13  2  0  0  0  0 
  8 14  1  0  0  0  0 
  9 15  2  0  0  0  0 
 10 16  1  0  0  0  0 
 12 17  2  0  0  0  0 
 13 17  1  0  0  0  0 
 14 18  2  0  0  0  0 
 15 18  1  0  0  0  0 
 19 16  1  0  0  0  0 
 19 20  1  0  0  0  0 
 19 21  1  0  0  0  0 
 20 22  1  0  0  0  0 
 21 23  1  0  0  0  0 
 22 24  1  0  0  0  0 
 24 25  1  0  0  0  0 
  2 26  1  0  0  0  0 
 26 27  3  0  0  0  0 
  6 28  1  0  0  0  0 
  7 29  1  0  0  0  0 
  8 30  1  0  0  0  0 
  9 31  1  0  0  0  0 
 12 32  1  0  0  0  0 
 13 33  1  0  0  0  0 
 14 34  1  0  0  0  0 
 15 35  1  0  0  0  0 
 16 36  1  0  0  0  0 
 16 37  1  0  0  0  0 
 17 38  1  0  0  0  0 
 18 39  1  0  0  0  0 
 19 40  1  0  0  0  0 
 20 41  1  0  0  0  0 
 20 42  1  0  0  0  0 
 21 43  1  0  0  0  0 
 21 44  1  0  0  0  0 
 22 45  1  0  0  0  0 
 22 46  1  0  0  0  0 
 23 47  1  0  0  0  0 
 23 48  1  0  0  0  0 
 23 49  1  0  0  0  0 
 24 50  1  0  0  0  0 
 24 51  1  0  0  0  0 
 25 52  1  0  0  0  0 
 25 53  1  0  0  0  0 
 25 54  1  0  0  0  0 
M  END
> <cdk:Title>
octocrylene

> <Conformer>
1

> <SuperDrugID>
SD002923

$$$$
