buclosamide
  CDK     0628171801

 29 29  0  0  0  0  0  0  0  0999 V2000
    0.8816   -0.0315    0.0326 C   0  0  0  0  0  0  0  0  0  0  0  0
   -0.3619   -0.2100    0.5647 N   0  0  0  0  0  0  0  0  0  0  0  0
    1.4319   -0.9658   -0.5988 O   0  0  0  0  0  0  0  0  0  0  0  0
    1.5470    1.2174    0.1884 C   0  0  0  0  0  0  0  0  0  0  0  0
   -1.1531   -1.3961    0.4856 C   0  0  2  0  0  0  0  0  0  0  0  0
    2.9638    1.3199    0.2581 C   0  0  0  0  0  0  0  0  0  0  0  0
    0.7897    2.4143    0.2656 C   0  0  0  0  0  0  0  0  0  0  0  0
   -0.6443   -2.5365    1.4053 C   0  0  2  0  0  0  0  0  0  0  0  0
    3.7843    0.2366    0.2190 O   0  0  0  0  0  0  0  0  0  0  0  0
    3.5837    2.5779    0.3918 C   0  0  0  0  0  0  0  0  0  0  0  0
    1.4116    3.6660    0.4025 C   0  0  0  0  0  0  0  0  0  0  0  0
   -0.6192   -2.1467    2.9092 C   0  0  1  0  0  0  0  0  0  0  0  0
    2.8128    3.7521    0.4641 C   0  0  0  0  0  0  0  0  0  0  0  0
   -0.0513   -3.2629    3.8127 C   0  0  0  0  0  0  0  0  0  0  0  0
    3.5631    5.2606    0.6273 Cl  0  0  0  0  0  0  0  0  0  0  0  0
   -0.7396    0.5312    1.0628 H   0  0  0  0  0  0  0  0  0  0  0  0
   -1.1959   -1.7462   -0.5494 H   0  0  0  0  0  0  0  0  0  0  0  0
   -2.1690   -1.1276    0.7819 H   0  0  0  0  0  0  0  0  0  0  0  0
   -0.2311    2.3943    0.2124 H   0  0  0  0  0  0  0  0  0  0  0  0
    0.3578   -2.8375    1.0870 H   0  0  0  0  0  0  0  0  0  0  0  0
   -1.3040   -3.3991    1.2747 H   0  0  0  0  0  0  0  0  0  0  0  0
    3.2619   -0.5090    0.5754 H   0  0  0  0  0  0  0  0  0  0  0  0
    4.6050    2.6341    0.4395 H   0  0  0  0  0  0  0  0  0  0  0  0
    0.8414    4.5130    0.4507 H   0  0  0  0  0  0  0  0  0  0  0  0
   -0.0090   -1.2496    3.0461 H   0  0  0  0  0  0  0  0  0  0  0  0
   -1.6364   -1.9168    3.2382 H   0  0  0  0  0  0  0  0  0  0  0  0
   -0.0099   -2.9135    4.8453 H   0  0  0  0  0  0  0  0  0  0  0  0
    0.9575   -3.5338    3.4962 H   0  0  0  0  0  0  0  0  0  0  0  0
   -0.6873   -4.1486    3.7704 H   0  0  0  0  0  0  0  0  0  0  0  0
  1  2  1  0  0  0  0 
  1  3  2  0  0  0  0 
  1  4  1  0  0  0  0 
  2  5  1  0  0  0  0 
  4  6  2  0  0  0  0 
  4  7  1  0  0  0  0 
  5  8  1  0  0  0  0 
  6  9  1  0  0  0  0 
  6 10  1  0  0  0  0 
  7 11  2  0  0  0  0 
  8 12  1  0  0  0  0 
 10 13  2  0  0  0  0 
 11 13  1  0  0  0  0 
 12 14  1  0  0  0  0 
 13 15  1  0  0  0  0 
  2 16  1  0  0  0  0 
  5 17  1  0  0  0  0 
  5 18  1  0  0  0  0 
  7 19  1  0  0  0  0 
  8 20  1  0  0  0  0 
  8 21  1  0  0  0  0 
  9 22  1  0  0  0  0 
 10 23  1  0  0  0  0 
 11 24  1  0  0  0  0 
 12 25  1  0  0  0  0 
 12 26  1  0  0  0  0 
 14 27  1  0  0  0  0 
 14 28  1  0  0  0  0 
 14 29  1  0  0  0  0 
M  END
> <cdk:Title>
buclosamide

> <Conformer>
1

> <SuperDrugID>
SD002642

$$$$
