oxedrine
  CDK     0628171801

 25 25  0  0  0  0  0  0  0  0999 V2000
   -0.9890    1.9728   -1.4487 C   0  0  1  0  0  0  0  0  0  0  0  0
    0.3664    1.2357   -1.2960 C   0  0  1  0  0  0  0  0  0  0  0  0
   -0.7758    3.2484   -2.0540 O   0  0  0  0  0  0  0  0  0  0  0  0
   -1.9749    1.1626   -2.2256 C   0  0  0  0  0  0  0  0  0  0  0  0
    0.1859   -0.0560   -0.5940 N   0  0  1  0  0  0  0  0  0  0  0  0
   -2.0330    1.2232   -3.6403 C   0  0  0  0  0  0  0  0  0  0  0  0
   -2.8494    0.2724   -1.5566 C   0  0  0  0  0  0  0  0  0  0  0  0
    1.4207   -0.8418   -0.4143 C   0  0  0  0  0  0  0  0  0  0  0  0
   -2.9344    0.4180   -4.3616 C   0  0  0  0  0  0  0  0  0  0  0  0
   -3.7418   -0.5441   -2.2754 C   0  0  0  0  0  0  0  0  0  0  0  0
   -3.7897   -0.4667   -3.6783 C   0  0  0  0  0  0  0  0  0  0  0  0
   -4.6565   -1.2422   -4.3696 O   0  0  0  0  0  0  0  0  0  0  0  0
   -1.3884    2.1779   -0.4499 H   0  0  0  0  0  0  0  0  0  0  0  0
    0.8016    1.0680   -2.2856 H   0  0  0  0  0  0  0  0  0  0  0  0
    1.0475    1.8700   -0.7220 H   0  0  0  0  0  0  0  0  0  0  0  0
   -0.1145    3.6915   -1.4836 H   0  0  0  0  0  0  0  0  0  0  0  0
   -0.1734    0.1565    0.3396 H   0  0  0  0  0  0  0  0  0  0  0  0
   -1.4168    1.8510   -4.1605 H   0  0  0  0  0  0  0  0  0  0  0  0
   -2.8355    0.2006   -0.5354 H   0  0  0  0  0  0  0  0  0  0  0  0
    1.1666   -1.7611    0.1142 H   0  0  0  0  0  0  0  0  0  0  0  0
    2.1526   -0.2887    0.1788 H   0  0  0  0  0  0  0  0  0  0  0  0
    1.8545   -1.1053   -1.3810 H   0  0  0  0  0  0  0  0  0  0  0  0
   -2.9592    0.4776   -5.3822 H   0  0  0  0  0  0  0  0  0  0  0  0
   -4.3506   -1.1942   -1.7715 H   0  0  0  0  0  0  0  0  0  0  0  0
   -5.4717   -0.7022   -4.4479 H   0  0  0  0  0  0  0  0  0  0  0  0
  1  2  1  0  0  0  0 
  1  3  1  0  0  0  0 
  1  4  1  0  0  0  0 
  2  5  1  0  0  0  0 
  4  6  2  0  0  0  0 
  4  7  1  0  0  0  0 
  5  8  1  0  0  0  0 
  6  9  1  0  0  0  0 
  7 10  2  0  0  0  0 
  9 11  2  0  0  0  0 
 10 11  1  0  0  0  0 
 11 12  1  0  0  0  0 
  1 13  1  0  0  0  0 
  2 14  1  0  0  0  0 
  2 15  1  0  0  0  0 
  3 16  1  0  0  0  0 
  5 17  1  0  0  0  0 
  6 18  1  0  0  0  0 
  7 19  1  0  0  0  0 
  8 20  1  0  0  0  0 
  8 21  1  0  0  0  0 
  8 22  1  0  0  0  0 
  9 23  1  0  0  0  0 
 10 24  1  0  0  0  0 
 12 25  1  0  0  0  0 
M  END
> <cdk:Title>
oxedrine

> <Conformer>
1

> <SuperDrugID>
SD003073

$$$$
