clobenzepam
  CDK     0628171801

 40 42  0  0  0  0  0  0  0  0999 V2000
    1.9069    0.8514   -1.5329 C   0  0  2  0  0  0  0  0  0  0  0  0
    2.2242    0.1752   -0.1654 C   0  0  2  0  0  0  0  0  0  0  0  0
    1.9287    2.3164   -1.5226 N   0  0  0  0  0  0  0  0  0  0  0  0
    2.3904   -1.3128   -0.1997 N   0  0  1  0  0  0  0  0  0  0  0  0
    2.9818    2.9524   -2.1692 C   0  0  0  0  0  0  0  0  0  0  0  0
    0.8721    3.0205   -0.9471 C   0  0  0  0  0  0  0  0  0  0  0  0
    1.1482   -2.0943   -0.4578 C   0  0  0  0  0  0  0  0  0  0  0  0
    3.5842   -1.8260   -0.9342 C   0  0  0  0  0  0  0  0  0  0  0  0
    2.7634    3.9497   -3.1554 C   0  0  0  0  0  0  0  0  0  0  0  0
    4.3230    2.5822   -1.8931 C   0  0  0  0  0  0  0  0  0  0  0  0
    0.0291    2.3885   -0.2635 O   0  0  0  0  0  0  0  0  0  0  0  0
    0.5877    4.4100   -1.1132 C   0  0  0  0  0  0  0  0  0  0  0  0
    1.5590    4.5263   -3.3616 N   0  0  0  0  0  0  0  0  0  0  0  0
    3.8335    4.4427   -3.9322 C   0  0  0  0  0  0  0  0  0  0  0  0
    5.3935    3.1088   -2.6342 C   0  0  0  0  0  0  0  0  0  0  0  0
    0.8506    5.0732   -2.3425 C   0  0  0  0  0  0  0  0  0  0  0  0
   -0.0601    5.1445   -0.0848 C   0  0  0  0  0  0  0  0  0  0  0  0
    5.1498    4.0226   -3.6737 C   0  0  0  0  0  0  0  0  0  0  0  0
    0.3973    6.3942   -2.5532 C   0  0  0  0  0  0  0  0  0  0  0  0
   -0.4749    6.4733   -0.2877 C   0  0  0  0  0  0  0  0  0  0  0  0
    6.4325    4.6266   -4.5977 Cl  0  0  0  0  0  0  0  0  0  0  0  0
   -0.2599    7.0925   -1.5283 C   0  0  0  0  0  0  0  0  0  0  0  0
    0.9243    0.5159   -1.8794 H   0  0  0  0  0  0  0  0  0  0  0  0
    2.6181    0.4623   -2.2675 H   0  0  0  0  0  0  0  0  0  0  0  0
    1.4378    0.4164    0.5539 H   0  0  0  0  0  0  0  0  0  0  0  0
    3.1442    0.6006    0.2382 H   0  0  0  0  0  0  0  0  0  0  0  0
    0.3286   -1.7527    0.1810 H   0  0  0  0  0  0  0  0  0  0  0  0
    1.3216   -3.1488   -0.2294 H   0  0  0  0  0  0  0  0  0  0  0  0
    0.8417   -2.0086   -1.5037 H   0  0  0  0  0  0  0  0  0  0  0  0
    4.4656   -1.2144   -0.7298 H   0  0  0  0  0  0  0  0  0  0  0  0
    3.8051   -2.8449   -0.6101 H   0  0  0  0  0  0  0  0  0  0  0  0
    3.4142   -1.8427   -2.0122 H   0  0  0  0  0  0  0  0  0  0  0  0
    4.5301    1.9150   -1.1487 H   0  0  0  0  0  0  0  0  0  0  0  0
    1.2969    4.7329   -4.2718 H   0  0  0  0  0  0  0  0  0  0  0  0
    3.6577    5.1289   -4.6721 H   0  0  0  0  0  0  0  0  0  0  0  0
    6.3472    2.8132   -2.4161 H   0  0  0  0  0  0  0  0  0  0  0  0
   -0.2497    4.7141    0.8238 H   0  0  0  0  0  0  0  0  0  0  0  0
    0.5597    6.8642   -3.4508 H   0  0  0  0  0  0  0  0  0  0  0  0
   -0.9411    6.9870    0.4636 H   0  0  0  0  0  0  0  0  0  0  0  0
   -0.5752    8.0531   -1.6836 H   0  0  0  0  0  0  0  0  0  0  0  0
  1  2  1  0  0  0  0 
  1  3  1  0  0  0  0 
  2  4  1  0  0  0  0 
  3  5  1  0  0  0  0 
  3  6  1  0  0  0  0 
  4  7  1  0  0  0  0 
  4  8  1  0  0  0  0 
  5  9  2  0  0  0  0 
  5 10  1  0  0  0  0 
  6 11  2  0  0  0  0 
  6 12  1  0  0  0  0 
  9 13  1  0  0  0  0 
  9 14  1  0  0  0  0 
 10 15  2  0  0  0  0 
 12 16  2  0  0  0  0 
 12 17  1  0  0  0  0 
 13 16  1  0  0  0  0 
 14 18  2  0  0  0  0 
 15 18  1  0  0  0  0 
 16 19  1  0  0  0  0 
 17 20  2  0  0  0  0 
 18 21  1  0  0  0  0 
 19 22  2  0  0  0  0 
 20 22  1  0  0  0  0 
  1 23  1  0  0  0  0 
  1 24  1  0  0  0  0 
  2 25  1  0  0  0  0 
  2 26  1  0  0  0  0 
  7 27  1  0  0  0  0 
  7 28  1  0  0  0  0 
  7 29  1  0  0  0  0 
  8 30  1  0  0  0  0 
  8 31  1  0  0  0  0 
  8 32  1  0  0  0  0 
 10 33  1  0  0  0  0 
 13 34  1  0  0  0  0 
 14 35  1  0  0  0  0 
 15 36  1  0  0  0  0 
 17 37  1  0  0  0  0 
 19 38  1  0  0  0  0 
 20 39  1  0  0  0  0 
 22 40  1  0  0  0  0 
M  END
> <cdk:Title>
clobenzepam

> <Conformer>
1

> <SuperDrugID>
SD003174

$$$$
