testosterone
  CDK     0628171801

 49 52  0  0  0  0  0  0  0  0999 V2000
   -4.0608   -0.4535    0.0812 C   0  0  0  0  0  0  0  0  0  0  0  0
   -2.8431   -0.3393    1.0666 C   0  0  1  0  0  0  0  0  0  0  0  0
   -3.3177   -0.4288    2.5884 C   0  0  2  0  0  0  0  0  0  0  0  0
   -1.8946   -1.4638    0.7641 C   0  0  0  0  0  0  0  0  0  0  0  0
   -2.1378    1.0608    0.8245 C   0  0  1  0  0  0  0  0  0  0  0  0
   -3.7890   -1.8739    3.0089 C   0  0  2  0  0  0  0  0  0  0  0  0
   -4.3593    0.6597    3.0450 C   0  0  1  0  0  0  0  0  0  0  0  0
   -2.2562   -2.8288    1.1801 C   0  0  2  0  0  0  0  0  0  0  0  0
   -0.7306   -1.2809    0.0943 C   0  0  0  0  0  0  0  0  0  0  0  0
   -1.2465    1.0892   -0.4423 C   0  0  1  0  0  0  0  0  0  0  0  0
   -4.1298   -1.8900    4.5330 C   0  0  1  0  0  0  0  0  0  0  0  0
   -2.6847   -2.9112    2.6624 C   0  0  2  0  0  0  0  0  0  0  0  0
   -4.7978    0.5429    4.5408 C   0  0  1  0  0  0  0  0  0  0  0  0
   -0.3199   -0.0585   -0.4094 C   0  0  0  0  0  0  0  0  0  0  0  0
   -5.2796   -0.9025    4.9128 C   0  0  1  0  0  0  0  0  0  0  0  0
   -4.5247   -3.2159    5.2202 C   0  0  1  0  0  0  0  0  0  0  0  0
    0.8442    0.0746   -0.8562 O   0  0  0  0  0  0  0  0  0  0  0  0
   -6.6742   -1.1950    4.2387 C   0  0  0  0  0  0  0  0  0  0  0  0
   -5.3708   -1.2160    6.4422 C   0  0  2  0  0  0  0  0  0  0  0  0
   -5.1557   -2.7532    6.5580 C   0  0  2  0  0  0  0  0  0  0  0  0
   -6.5839   -0.8028    7.0714 O   0  0  0  0  0  0  0  0  0  0  0  0
   -3.7266   -0.5543   -0.9528 H   0  0  0  0  0  0  0  0  0  0  0  0
   -4.6861   -1.3160    0.3070 H   0  0  0  0  0  0  0  0  0  0  0  0
   -4.6966    0.4313    0.1324 H   0  0  0  0  0  0  0  0  0  0  0  0
   -2.4236   -0.2262    3.1897 H   0  0  0  0  0  0  0  0  0  0  0  0
   -2.8738    1.8655    0.7431 H   0  0  0  0  0  0  0  0  0  0  0  0
   -1.4903    1.3088    1.6729 H   0  0  0  0  0  0  0  0  0  0  0  0
   -4.6855   -2.1532    2.4527 H   0  0  0  0  0  0  0  0  0  0  0  0
   -3.9364    1.6567    2.9052 H   0  0  0  0  0  0  0  0  0  0  0  0
   -5.2487    0.6040    2.4187 H   0  0  0  0  0  0  0  0  0  0  0  0
   -1.4371   -3.5446    1.0456 H   0  0  0  0  0  0  0  0  0  0  0  0
   -3.0775   -3.1779    0.5494 H   0  0  0  0  0  0  0  0  0  0  0  0
   -0.1255   -2.0569   -0.0620 H   0  0  0  0  0  0  0  0  0  0  0  0
   -1.8646    1.0191   -1.3398 H   0  0  0  0  0  0  0  0  0  0  0  0
   -0.6942    2.0314   -0.4894 H   0  0  0  0  0  0  0  0  0  0  0  0
   -3.2063   -1.5701    5.0418 H   0  0  0  0  0  0  0  0  0  0  0  0
   -3.0619   -3.9197    2.8517 H   0  0  0  0  0  0  0  0  0  0  0  0
   -1.8070   -2.7551    3.2979 H   0  0  0  0  0  0  0  0  0  0  0  0
   -3.9493    0.8306    5.1693 H   0  0  0  0  0  0  0  0  0  0  0  0
   -5.5952    1.2651    4.7397 H   0  0  0  0  0  0  0  0  0  0  0  0
   -5.2453   -3.7701    4.6105 H   0  0  0  0  0  0  0  0  0  0  0  0
   -3.6531   -3.8544    5.3931 H   0  0  0  0  0  0  0  0  0  0  0  0
   -7.4204   -0.4839    4.5971 H   0  0  0  0  0  0  0  0  0  0  0  0
   -7.0357   -2.1957    4.4738 H   0  0  0  0  0  0  0  0  0  0  0  0
   -6.6420   -1.1102    3.1547 H   0  0  0  0  0  0  0  0  0  0  0  0
   -4.5567   -0.7118    6.9752 H   0  0  0  0  0  0  0  0  0  0  0  0
   -4.4831   -2.9765    7.3914 H   0  0  0  0  0  0  0  0  0  0  0  0
   -6.1008   -3.2781    6.7240 H   0  0  0  0  0  0  0  0  0  0  0  0
   -6.5865    0.1748    6.9977 H   0  0  0  0  0  0  0  0  0  0  0  0
  2  1  1  0  0  0  0 
  3  2  1  0  0  0  0 
  2  4  1  0  0  0  0 
  2  5  1  0  0  0  0 
  3  6  1  0  0  0  0 
  3  7  1  0  0  0  0 
  4  8  1  0  0  0  0 
  4  9  2  0  0  0  0 
  5 10  1  0  0  0  0 
  6 11  1  0  0  0  0 
  6 12  1  0  0  0  0 
  7 13  1  0  0  0  0 
  8 12  1  0  0  0  0 
  9 14  1  0  0  0  0 
 10 14  1  0  0  0  0 
 11 15  1  0  0  0  0 
 11 16  1  0  0  0  0 
 15 13  1  0  0  0  0 
 14 17  2  0  0  0  0 
 15 18  1  0  0  0  0 
 15 19  1  0  0  0  0 
 16 20  1  0  0  0  0 
 19 20  1  0  0  0  0 
 19 21  1  0  0  0  0 
 22  1  1  0  0  0  0 
 23  1  1  0  0  0  0 
 24  1  1  0  0  0  0 
  3 25  1  0  0  0  0 
 26  5  1  0  0  0  0 
 27  5  1  0  0  0  0 
  6 28  1  0  0  0  0 
 29  7  1  0  0  0  0 
 30  7  1  0  0  0  0 
 31  8  1  0  0  0  0 
 32  8  1  0  0  0  0 
 33  9  1  0  0  0  0 
 34 10  1  0  0  0  0 
 35 10  1  0  0  0  0 
 11 36  1  0  0  0  0 
 37 12  1  0  0  0  0 
 38 12  1  0  0  0  0 
 39 13  1  0  0  0  0 
 40 13  1  0  0  0  0 
 41 16  1  0  0  0  0 
 42 16  1  0  0  0  0 
 43 18  1  0  0  0  0 
 44 18  1  0  0  0  0 
 45 18  1  0  0  0  0 
 19 46  1  0  0  0  0 
 47 20  1  0  0  0  0 
 48 20  1  0  0  0  0 
 49 21  1  0  0  0  0 
M  END
> <cdk:Title>
testosterone

> <Conformer>
1

> <SuperDrugID>
SD002346

$$$$
