tryptophan
  CDK     0628171801

 27 28  0  0  0  0  0  0  0  0999 V2000
    2.9761   -5.7238    1.0235 C   0  0  1  0  0  0  0  0  0  0  0  0
    3.1195   -4.9303   -0.3061 C   0  0  1  0  0  0  0  0  0  0  0  0
    3.5533   -4.9877    2.1742 C   0  0  0  0  0  0  0  0  0  0  0  0
    4.5301   -4.6534   -0.6600 C   0  0  0  0  0  0  0  0  0  0  0  0
    2.4717   -5.6501   -1.4124 N   0  0  2  0  0  0  0  0  0  0  0  0
    2.9304   -4.0557    3.0038 C   0  0  0  0  0  0  0  0  0  0  0  0
    4.8775   -5.0550    2.6152 C   0  0  0  0  0  0  0  0  0  0  0  0
    4.9838   -3.3773   -0.6773 O   0  0  0  0  0  0  0  0  0  0  0  0
    5.3327   -5.5800   -0.9195 O   0  0  0  0  0  0  0  0  0  0  0  0
    3.8923   -3.5903    3.9018 C   0  0  0  0  0  0  0  0  0  0  0  0
    1.6119   -3.5648    3.0396 C   0  0  0  0  0  0  0  0  0  0  0  0
    5.0548   -4.2035    3.6403 N   0  0  0  0  0  0  0  0  0  0  0  0
    3.5812   -2.6250    4.8740 C   0  0  0  0  0  0  0  0  0  0  0  0
    1.2838   -2.5970    4.0144 C   0  0  0  0  0  0  0  0  0  0  0  0
    2.2596   -2.1329    4.9275 C   0  0  0  0  0  0  0  0  0  0  0  0
    1.9160   -5.9102    1.2115 H   0  0  0  0  0  0  0  0  0  0  0  0
    3.4590   -6.7007    0.9332 H   0  0  0  0  0  0  0  0  0  0  0  0
    2.5882   -3.9806   -0.1956 H   0  0  0  0  0  0  0  0  0  0  0  0
    2.5213   -5.0445   -2.2348 H   0  0  0  0  0  0  0  0  0  0  0  0
    1.4816   -5.7366   -1.1749 H   0  0  0  0  0  0  0  0  0  0  0  0
    5.6059   -5.6477    2.2136 H   0  0  0  0  0  0  0  0  0  0  0  0
    5.9235   -3.1902   -0.8856 H   0  0  0  0  0  0  0  0  0  0  0  0
    0.9070   -3.8971    2.3751 H   0  0  0  0  0  0  0  0  0  0  0  0
    5.8875   -4.0510    4.1118 H   0  0  0  0  0  0  0  0  0  0  0  0
    4.2958   -2.2883    5.5243 H   0  0  0  0  0  0  0  0  0  0  0  0
    0.3310   -2.2262    4.0583 H   0  0  0  0  0  0  0  0  0  0  0  0
    2.0088   -1.4328    5.6291 H   0  0  0  0  0  0  0  0  0  0  0  0
  2  1  1  0  0  0  0 
  1  3  1  0  0  0  0 
  2  4  1  0  0  0  0 
  2  5  1  0  0  0  0 
  3  6  1  0  0  0  0 
  3  7  2  0  0  0  0 
  4  8  1  0  0  0  0 
  4  9  2  0  0  0  0 
  6 10  1  0  0  0  0 
  6 11  2  0  0  0  0 
  7 12  1  0  0  0  0 
 10 12  1  0  0  0  0 
 10 13  2  0  0  0  0 
 11 14  1  0  0  0  0 
 13 15  1  0  0  0  0 
 14 15  2  0  0  0  0 
  1 16  1  0  0  0  0 
  1 17  1  0  0  0  0 
  2 18  1  0  0  0  0 
  5 19  1  0  0  0  0 
  5 20  1  0  0  0  0 
  7 21  1  0  0  0  0 
  8 22  1  0  0  0  0 
 11 23  1  0  0  0  0 
 12 24  1  0  0  0  0 
 13 25  1  0  0  0  0 
 14 26  1  0  0  0  0 
 15 27  1  0  0  0  0 
M  END
> <cdk:Title>
tryptophan

> <Conformer>
1

> <SuperDrugID>
SD002509

$$$$
