falecalcitriol
  CDK     0628171801

 74 76  0  0  0  0  0  0  0  0999 V2000
   -0.0932   -1.0455   -1.7648 C   0  0  0  0  0  0  0  0  0  0  0  0
   -1.2719   -0.5047   -1.0614 C   0  0  2  0  0  0  0  0  0  0  0  0
   -2.2625   -1.6431   -0.6786 C   0  0  2  0  0  0  0  0  0  0  0  0
   -1.5171   -2.7863    0.0685 C   0  0  1  0  0  0  0  0  0  0  0  0
   -0.2323   -3.2175   -0.6999 C   0  0  1  0  0  0  0  0  0  0  0  0
    0.5729   -2.0377   -1.0725 C   0  0  0  0  0  0  0  0  0  0  0  0
    1.8704   -1.9009   -0.7354 C   0  0  0  0  0  0  0  0  0  0  0  0
    0.3192   -0.6754   -3.0018 C   0  0  0  0  0  0  0  0  0  0  0  0
   -0.2818    0.2312   -3.8214 C   0  0  0  0  0  0  0  0  0  0  0  0
    0.3214    1.0495   -4.7153 C   0  0  0  0  0  0  0  0  0  0  0  0
    1.2659    1.4951   -7.4568 C   0  0  1  0  0  0  0  0  0  0  0  0
    2.1523    0.7674   -6.3974 C   0  0  1  0  0  0  0  0  0  0  0  0
    1.7806    1.1361   -4.9309 C   0  0  1  0  0  0  0  0  0  0  0  0
   -0.4379    1.9116   -5.6488 C   0  0  1  0  0  0  0  0  0  0  0  0
   -0.2745    1.4150   -7.1296 C   0  0  1  0  0  0  0  0  0  0  0  0
   -1.9512    2.1891   -5.5061 C   0  0  1  0  0  0  0  0  0  0  0  0
   -2.3451    2.7560   -6.8878 C   0  0  2  0  0  0  0  0  0  0  0  0
   -1.1774    2.4649   -7.8920 C   0  0  2  0  0  0  0  0  0  0  0  0
    0.0067    2.9152   -5.5526 H   0  0  0  0  0  0  0  0  0  0  0  0
   -0.7929   -0.0624   -7.3191 C   0  0  0  0  0  0  0  0  0  0  0  0
   -1.6880    2.1458   -9.3542 C   0  0  2  0  0  0  0  0  0  0  0  0
   -0.5499    1.8072  -10.3655 C   0  0  0  0  0  0  0  0  0  0  0  0
   -2.6257    3.2540   -9.9563 C   0  0  1  0  0  0  0  0  0  0  0  0
   -1.9917    4.6609  -10.1803 C   0  0  1  0  0  0  0  0  0  0  0  0
   -3.0561    5.6469  -10.8324 C   0  0  1  0  0  0  0  0  0  0  0  0
   -2.4767    6.9885  -11.4133 C   0  0  2  0  0  0  0  0  0  0  0  0
   -3.6250    7.8015  -12.1165 C   0  0  2  0  0  0  0  0  0  0  0  0
   -1.5259    6.6463  -12.4301 O   0  0  0  0  0  0  0  0  0  0  0  0
   -1.7222    7.8529  -10.3379 C   0  0  2  0  0  0  0  0  0  0  0  0
    0.4462   -4.1961    0.0927 O   0  0  0  0  0  0  0  0  0  0  0  0
   -2.8962   -2.1516   -1.8542 O   0  0  0  0  0  0  0  0  0  0  0  0
   -2.3120    1.2487   -9.2928 H   0  0  0  0  0  0  0  0  0  0  0  0
   -0.5871    3.3855   -7.9717 H   0  0  0  0  0  0  0  0  0  0  0  0
   -1.3010    9.0636  -10.8350 F   0  0  0  0  0  0  0  0  0  0  0  0
   -0.5792    7.2455   -9.8766 F   0  0  0  0  0  0  0  0  0  0  0  0
   -2.5165    8.1132   -9.2476 F   0  0  0  0  0  0  0  0  0  0  0  0
   -3.1490    8.8874  -12.8113 F   0  0  0  0  0  0  0  0  0  0  0  0
   -4.5558    8.2613  -11.2157 F   0  0  0  0  0  0  0  0  0  0  0  0
   -4.3037    7.0492  -13.0462 F   0  0  0  0  0  0  0  0  0  0  0  0
   -1.8205    0.2482   -1.6291 H   0  0  0  0  0  0  0  0  0  0  0  0
   -0.9312   -0.0092   -0.1466 H   0  0  0  0  0  0  0  0  0  0  0  0
   -3.0437   -1.2376   -0.0301 H   0  0  0  0  0  0  0  0  0  0  0  0
   -1.2420   -2.4374    1.0693 H   0  0  0  0  0  0  0  0  0  0  0  0
   -2.1836   -3.6455    0.1873 H   0  0  0  0  0  0  0  0  0  0  0  0
   -0.5334   -3.7258   -1.6217 H   0  0  0  0  0  0  0  0  0  0  0  0
    2.3884   -1.0899   -0.9874 H   0  0  0  0  0  0  0  0  0  0  0  0
    2.3503   -2.6047   -0.2275 H   0  0  0  0  0  0  0  0  0  0  0  0
    1.1179   -1.1358   -3.3746 H   0  0  0  0  0  0  0  0  0  0  0  0
   -1.2697    0.2450   -3.7859 H   0  0  0  0  0  0  0  0  0  0  0  0
    1.5766    2.5429   -7.4987 H   0  0  0  0  0  0  0  0  0  0  0  0
    1.4779    1.0633   -8.4342 H   0  0  0  0  0  0  0  0  0  0  0  0
    2.0598   -0.3146   -6.5274 H   0  0  0  0  0  0  0  0  0  0  0  0
    3.1989    1.0262   -6.5763 H   0  0  0  0  0  0  0  0  0  0  0  0
    2.1054    2.1629   -4.7367 H   0  0  0  0  0  0  0  0  0  0  0  0
    2.3668    0.5098   -4.2565 H   0  0  0  0  0  0  0  0  0  0  0  0
   -2.5224    1.2776   -5.3195 H   0  0  0  0  0  0  0  0  0  0  0  0
   -2.1548    2.9000   -4.7004 H   0  0  0  0  0  0  0  0  0  0  0  0
   -2.5201    3.8329   -6.8127 H   0  0  0  0  0  0  0  0  0  0  0  0
   -3.2782    2.2817   -7.2036 H   0  0  0  0  0  0  0  0  0  0  0  0
   -0.5841   -0.4278   -8.3214 H   0  0  0  0  0  0  0  0  0  0  0  0
   -1.8694   -0.1354   -7.1578 H   0  0  0  0  0  0  0  0  0  0  0  0
   -0.3085   -0.7553   -6.6316 H   0  0  0  0  0  0  0  0  0  0  0  0
   -0.1095    0.8374  -10.1559 H   0  0  0  0  0  0  0  0  0  0  0  0
    0.2425    2.5562  -10.3222 H   0  0  0  0  0  0  0  0  0  0  0  0
   -0.9386    1.7540  -11.3861 H   0  0  0  0  0  0  0  0  0  0  0  0
   -2.9978    2.8884  -10.9186 H   0  0  0  0  0  0  0  0  0  0  0  0
   -3.5096    3.3692   -9.3241 H   0  0  0  0  0  0  0  0  0  0  0  0
   -1.8088    5.0830   -9.1451 H   0  0  0  0  0  0  0  0  0  0  0  0
   -1.0430    4.4812  -10.8296 H   0  0  0  0  0  0  0  0  0  0  0  0
   -3.5354    5.1033  -11.6516 H   0  0  0  0  0  0  0  0  0  0  0  0
   -3.8346    5.8681  -10.0965 H   0  0  0  0  0  0  0  0  0  0  0  0
   -2.0283    6.1248  -13.0924 H   0  0  0  0  0  0  0  0  0  0  0  0
    1.1884   -4.5107   -0.4663 H   0  0  0  0  0  0  0  0  0  0  0  0
   -3.5329   -2.8232   -1.5299 H   0  0  0  0  0  0  0  0  0  0  0  0
  1  2  1  0  0  0  0 
  2  3  1  0  0  0  0 
  3  4  1  0  0  0  0 
  4  5  1  0  0  0  0 
  5  6  1  0  0  0  0 
  1  6  1  0  0  0  0 
  6  7  2  0  0  0  0 
  1  8  2  0  0  0  0 
  8  9  1  0  0  0  0 
  9 10  2  0  0  0  0 
 11 12  1  0  0  0  0 
 12 13  1  0  0  0  0 
 14 15  1  0  0  0  0 
 11 15  1  0  0  0  0 
 13 10  1  0  0  0  0 
 10 14  1  0  0  0  0 
 16 17  1  0  0  0  0 
 17 18  1  0  0  0  0 
 14 16  1  0  0  0  0 
 15 18  1  0  0  0  0 
 14 19  1  0  0  0  0 
 15 20  1  0  0  0  0 
 18 21  1  0  0  0  0 
 21 22  1  0  0  0  0 
 21 23  1  0  0  0  0 
 23 24  1  0  0  0  0 
 24 25  1  0  0  0  0 
 25 26  1  0  0  0  0 
 26 27  1  0  0  0  0 
 26 28  1  0  0  0  0 
 26 29  1  0  0  0  0 
  5 30  1  0  0  0  0 
  3 31  1  0  0  0  0 
 21 32  1  0  0  0  0 
 18 33  1  0  0  0  0 
 34 29  1  0  0  0  0 
 29 35  1  0  0  0  0 
 29 36  1  0  0  0  0 
 37 27  1  0  0  0  0 
 27 38  1  0  0  0  0 
 27 39  1  0  0  0  0 
  2 40  1  0  0  0  0 
  2 41  1  0  0  0  0 
  3 42  1  0  0  0  0 
  4 43  1  0  0  0  0 
  4 44  1  0  0  0  0 
  5 45  1  0  0  0  0 
  7 46  1  0  0  0  0 
  7 47  1  0  0  0  0 
  8 48  1  0  0  0  0 
  9 49  1  0  0  0  0 
 11 50  1  0  0  0  0 
 11 51  1  0  0  0  0 
 12 52  1  0  0  0  0 
 12 53  1  0  0  0  0 
 13 54  1  0  0  0  0 
 13 55  1  0  0  0  0 
 16 56  1  0  0  0  0 
 16 57  1  0  0  0  0 
 17 58  1  0  0  0  0 
 17 59  1  0  0  0  0 
 20 60  1  0  0  0  0 
 20 61  1  0  0  0  0 
 20 62  1  0  0  0  0 
 22 63  1  0  0  0  0 
 22 64  1  0  0  0  0 
 22 65  1  0  0  0  0 
 23 66  1  0  0  0  0 
 23 67  1  0  0  0  0 
 24 68  1  0  0  0  0 
 24 69  1  0  0  0  0 
 25 70  1  0  0  0  0 
 25 71  1  0  0  0  0 
 28 72  1  0  0  0  0 
 30 73  1  0  0  0  0 
 31 74  1  0  0  0  0 
M  END
> <cdk:Title>
falecalcitriol

> <Conformer>
1

> <SuperDrugID>
SD001006

$$$$
