aceglatone
  CDK     0628171802

 28 29  0  0  0  0  0  0  0  0999 V2000
    2.4868   -3.9882    0.5665 O   0  0  0  0  0  0  0  0  0  0  0  0
    2.6898   -4.7073   -0.5786 C   0  0  0  0  0  0  0  0  0  0  0  0
    1.4922   -4.0943    1.6035 C   0  0  1  0  0  0  0  0  0  0  0  0
    3.8376   -4.3448   -1.4198 C   0  0  0  0  0  0  0  0  0  0  0  0
    1.9273   -5.6344   -0.9367 O   0  0  0  0  0  0  0  0  0  0  0  0
    0.3881   -3.0193    1.4569 C   0  0  2  0  0  0  0  0  0  0  0  0
    0.7229   -5.3374    1.6881 C   0  0  0  0  0  0  0  0  0  0  0  0
   -0.9579   -3.7697    1.5772 C   0  0  2  0  0  0  0  0  0  0  0  0
    0.3479   -2.4244    0.1605 O   0  0  0  0  0  0  0  0  0  0  0  0
    1.2356   -6.4679    1.8441 O   0  0  0  0  0  0  0  0  0  0  0  0
   -0.6073   -5.1484    1.6427 O   0  0  0  0  0  0  0  0  0  0  0  0
   -1.7677   -3.4224    0.3074 C   0  0  2  0  0  0  0  0  0  0  0  0
   -0.8170   -2.6416   -0.4771 C   0  0  0  0  0  0  0  0  0  0  0  0
   -2.9044   -2.6165    0.6486 O   0  0  0  0  0  0  0  0  0  0  0  0
   -1.0496   -2.2106   -1.6281 O   0  0  0  0  0  0  0  0  0  0  0  0
   -4.2230   -2.9130    0.4610 C   0  0  0  0  0  0  0  0  0  0  0  0
   -5.2426   -1.9742    0.9442 C   0  0  0  0  0  0  0  0  0  0  0  0
   -4.5890   -3.9726   -0.0991 O   0  0  0  0  0  0  0  0  0  0  0  0
    0.4868   -2.2379    2.2179 H   0  0  0  0  0  0  0  0  0  0  0  0
   -1.4917   -3.4944    2.4923 H   0  0  0  0  0  0  0  0  0  0  0  0
    2.0079   -3.9682    2.5569 H   0  0  0  0  0  0  0  0  0  0  0  0
    3.8453   -4.9144   -2.3526 H   0  0  0  0  0  0  0  0  0  0  0  0
    3.7923   -3.2803   -1.6573 H   0  0  0  0  0  0  0  0  0  0  0  0
    4.7597   -4.5478   -0.8736 H   0  0  0  0  0  0  0  0  0  0  0  0
   -2.0437   -4.3247   -0.2446 H   0  0  0  0  0  0  0  0  0  0  0  0
   -5.8669   -2.4657    1.6923 H   0  0  0  0  0  0  0  0  0  0  0  0
   -5.8665   -1.6422    0.1125 H   0  0  0  0  0  0  0  0  0  0  0  0
   -4.7744   -1.1021    1.4024 H   0  0  0  0  0  0  0  0  0  0  0  0
  1  2  1  0  0  0  0 
  2  4  1  0  0  0  0 
  2  5  2  0  0  0  0 
  3  1  1  0  0  0  0 
  6  3  1  0  0  0  0 
  3  7  1  0  0  0  0 
  8  6  1  0  0  0  0 
  6  9  1  0  0  0  0 
  6 19  1  0  0  0  0 
  7 10  2  0  0  0  0 
  7 11  1  0  0  0  0 
  8 11  1  0  0  0  0 
 12  8  1  0  0  0  0 
  8 20  1  0  0  0  0 
  9 13  1  0  0  0  0 
 12 13  1  0  0  0  0 
 12 14  1  0  0  0  0 
 13 15  2  0  0  0  0 
 14 16  1  0  0  0  0 
 16 17  1  0  0  0  0 
 16 18  2  0  0  0  0 
  3 21  1  0  0  0  0 
  4 22  1  0  0  0  0 
  4 23  1  0  0  0  0 
  4 24  1  0  0  0  0 
 12 25  1  0  0  0  0 
 17 26  1  0  0  0  0 
 17 27  1  0  0  0  0 
 17 28  1  0  0  0  0 
M  END
> <cdk:Title>
aceglatone

> <Conformer>
1

> <SuperDrugID>
SD000022

$$$$
