sitafloxacin
  CDK     0628171801

 46 50  0  0  0  0  0  0  0  0999 V2000
    1.2247   -1.7386   -0.1920 N   0  0  2  0  0  0  0  0  0  0  0  0
    0.4096   -0.7164    0.4826 C   0  0  1  0  0  0  0  0  0  0  0  0
   -0.3646   -1.3385    1.6556 C   0  0  2  0  0  0  0  0  0  0  0  0
    1.2966    0.2850    1.2496 C   0  0  2  0  0  0  0  0  0  0  0  0
    0.5017   -1.2688    2.9246 C   0  0  1  0  0  0  0  0  0  0  0  0
   -1.3817   -2.4740    1.4545 C   0  0  1  0  0  0  0  0  0  0  0  0
   -1.8777   -1.0526    1.7690 C   0  0  2  0  0  0  0  0  0  0  0  0
    1.4928   -0.3068    2.5416 N   0  0  0  0  0  0  0  0  0  0  0  0
    2.5410    0.0560    3.3496 C   0  0  0  0  0  0  0  0  0  0  0  0
    3.8607   -0.4344    3.1487 C   0  0  0  0  0  0  0  0  0  0  0  0
    2.2876    0.9523    4.4027 C   0  0  0  0  0  0  0  0  0  0  0  0
    3.9991   -1.7154    2.0316 Cl  0  0  0  0  0  0  0  0  0  0  0  0
    4.9664    0.0640    3.9207 C   0  0  0  0  0  0  0  0  0  0  0  0
    1.0858    1.4169    4.6250 F   0  0  0  0  0  0  0  0  0  0  0  0
    3.3278    1.3555    5.2452 C   0  0  0  0  0  0  0  0  0  0  0  0
    6.3071   -0.2148    3.6823 N   0  0  0  0  0  0  0  0  0  0  0  0
    4.6550    0.9111    5.0348 C   0  0  0  0  0  0  0  0  0  0  0  0
    7.2638    0.0638    4.6257 C   0  0  0  0  0  0  0  0  0  0  0  0
    6.8215   -0.7970    2.4568 C   0  0  1  0  0  0  0  0  0  0  0  0
    5.6791    1.2955    5.9399 C   0  0  0  0  0  0  0  0  0  0  0  0
    7.0026    0.8262    5.7821 C   0  0  0  0  0  0  0  0  0  0  0  0
    6.5771   -0.1039    1.0952 C   0  0  2  0  0  0  0  0  0  0  0  0
    7.9673   -0.0578    1.7238 C   0  0  1  0  0  0  0  0  0  0  0  0
    5.4110    2.0601    6.8993 O   0  0  0  0  0  0  0  0  0  0  0  0
    8.0509    1.1079    6.7156 C   0  0  0  0  0  0  0  0  0  0  0  0
    5.9048    1.0950    1.0771 F   0  0  0  0  0  0  0  0  0  0  0  0
    7.8291    1.6889    7.9209 O   0  0  0  0  0  0  0  0  0  0  0  0
    9.2481    0.8297    6.4739 O   0  0  0  0  0  0  0  0  0  0  0  0
    1.7803   -1.2582   -0.9037 H   0  0  0  0  0  0  0  0  0  0  0  0
    0.5783   -2.3544   -0.6895 H   0  0  0  0  0  0  0  0  0  0  0  0
   -0.2261   -0.2115   -0.2497 H   0  0  0  0  0  0  0  0  0  0  0  0
    0.7698    1.2385    1.3679 H   0  0  0  0  0  0  0  0  0  0  0  0
    2.2361    0.4687    0.7189 H   0  0  0  0  0  0  0  0  0  0  0  0
   -0.0699   -0.9440    3.7992 H   0  0  0  0  0  0  0  0  0  0  0  0
    0.9634   -2.2416    3.1186 H   0  0  0  0  0  0  0  0  0  0  0  0
   -1.5397   -2.8094    0.4279 H   0  0  0  0  0  0  0  0  0  0  0  0
   -1.4629   -3.1981    2.2684 H   0  0  0  0  0  0  0  0  0  0  0  0
   -2.3641   -0.5491    0.9302 H   0  0  0  0  0  0  0  0  0  0  0  0
   -2.2986   -0.9276    2.7689 H   0  0  0  0  0  0  0  0  0  0  0  0
    3.1010    1.9832    6.0211 H   0  0  0  0  0  0  0  0  0  0  0  0
    8.2225   -0.2739    4.4820 H   0  0  0  0  0  0  0  0  0  0  0  0
    6.9314   -1.8837    2.4222 H   0  0  0  0  0  0  0  0  0  0  0  0
    6.4868   -0.7668    0.2330 H   0  0  0  0  0  0  0  0  0  0  0  0
    8.2618    0.9248    2.0992 H   0  0  0  0  0  0  0  0  0  0  0  0
    8.7162   -0.6784    1.2280 H   0  0  0  0  0  0  0  0  0  0  0  0
    8.5760    1.8691    8.5318 H   0  0  0  0  0  0  0  0  0  0  0  0
  2  1  1  0  0  0  0 
  2  3  1  0  0  0  0 
  2  4  1  0  0  0  0 
  3  5  1  0  0  0  0 
  3  6  1  0  0  0  0 
  3  7  1  0  0  0  0 
  4  8  1  0  0  0  0 
  5  8  1  0  0  0  0 
  6  7  1  0  0  0  0 
  8  9  1  0  0  0  0 
  9 10  1  0  0  0  0 
  9 11  2  0  0  0  0 
 10 12  1  0  0  0  0 
 10 13  2  0  0  0  0 
 11 14  1  0  0  0  0 
 11 15  1  0  0  0  0 
 13 16  1  0  0  0  0 
 13 17  1  0  0  0  0 
 15 17  2  0  0  0  0 
 16 18  1  0  0  0  0 
 17 20  1  0  0  0  0 
 18 21  2  0  0  0  0 
 19 16  1  0  0  0  0 
 22 19  1  0  0  0  0 
 19 23  1  0  0  0  0 
 20 21  1  0  0  0  0 
 20 24  2  0  0  0  0 
 21 25  1  0  0  0  0 
 22 23  1  0  0  0  0 
 22 26  1  0  0  0  0 
 25 27  1  0  0  0  0 
 25 28  2  0  0  0  0 
  1 29  1  0  0  0  0 
  1 30  1  0  0  0  0 
  2 31  1  0  0  0  0 
  4 32  1  0  0  0  0 
  4 33  1  0  0  0  0 
  5 34  1  0  0  0  0 
  5 35  1  0  0  0  0 
  6 36  1  0  0  0  0 
  6 37  1  0  0  0  0 
  7 38  1  0  0  0  0 
  7 39  1  0  0  0  0 
 15 40  1  0  0  0  0 
 18 41  1  0  0  0  0 
 19 42  1  0  0  0  0 
 22 43  1  0  0  0  0 
 23 44  1  0  0  0  0 
 23 45  1  0  0  0  0 
 27 46  1  0  0  0  0 
M  END
> <cdk:Title>
sitafloxacin

> <Conformer>
1

> <SuperDrugID>
SD002201

$$$$
