carbocisteine
  CDK     0628171801

 20 19  0  0  0  0  0  0  0  0999 V2000
    4.5478    1.2117    1.0464 C   0  0  0  0  0  0  0  0  0  0  0  0
    3.2508    0.9264    0.4148 C   0  0  1  0  0  0  0  0  0  0  0  0
    5.1217    0.3440    1.7433 O   0  0  0  0  0  0  0  0  0  0  0  0
    5.1499    2.4130    0.8818 O   0  0  0  0  0  0  0  0  0  0  0  0
    1.9678    0.6971    1.6881 S   0  0  0  0  0  0  0  0  0  0  0  0
    0.4469    0.4189    0.7186 C   0  0  2  0  0  0  0  0  0  0  0  0
   -0.7890    0.1480    1.6173 C   0  0  2  0  0  0  0  0  0  0  0  0
   -1.9585   -0.1389    0.7740 N   0  0  1  0  0  0  0  0  0  0  0  0
   -1.1204    1.2685    2.5239 C   0  0  0  0  0  0  0  0  0  0  0  0
   -1.1756    1.0809    3.8621 O   0  0  0  0  0  0  0  0  0  0  0  0
   -1.3694    2.4109    2.0770 O   0  0  0  0  0  0  0  0  0  0  0  0
    2.9611    1.7536   -0.2361 H   0  0  0  0  0  0  0  0  0  0  0  0
    3.3304    0.0212   -0.1901 H   0  0  0  0  0  0  0  0  0  0  0  0
    6.0117    2.5951    1.3146 H   0  0  0  0  0  0  0  0  0  0  0  0
    0.6173   -0.4455    0.0717 H   0  0  0  0  0  0  0  0  0  0  0  0
    0.2694    1.2914    0.0868 H   0  0  0  0  0  0  0  0  0  0  0  0
   -0.5959   -0.7520    2.2060 H   0  0  0  0  0  0  0  0  0  0  0  0
   -2.7488   -0.3146    1.3999 H   0  0  0  0  0  0  0  0  0  0  0  0
   -2.1769    0.7154    0.2582 H   0  0  0  0  0  0  0  0  0  0  0  0
   -1.4211    1.8225    4.4531 H   0  0  0  0  0  0  0  0  0  0  0  0
  1  2  1  0  0  0  0 
  1  3  2  0  0  0  0 
  1  4  1  0  0  0  0 
  2  5  1  0  0  0  0 
  5  6  1  0  0  0  0 
  6  7  1  0  0  0  0 
  7  8  1  0  0  0  0 
  7  9  1  0  0  0  0 
  9 10  1  0  0  0  0 
  9 11  2  0  0  0  0 
  2 12  1  0  0  0  0 
  2 13  1  0  0  0  0 
  4 14  1  0  0  0  0 
  6 15  1  0  0  0  0 
  6 16  1  0  0  0  0 
  7 17  1  0  0  0  0 
  8 18  1  0  0  0  0 
  8 19  1  0  0  0  0 
 10 20  1  0  0  0  0 
M  END
> <cdk:Title>
carbocisteine

> <Conformer>
1

> <SuperDrugID>
SD003392

$$$$
