ioversol
  CDK     0628171801

 57 57  0  0  0  0  0  0  0  0999 V2000
   -1.1749    6.7047   -3.3460 N   0  0  0  0  0  0  0  0  0  0  0  0
   -2.0524    6.7829   -4.4244 C   0  0  0  0  0  0  0  0  0  0  0  0
    0.1127    7.3875   -3.3533 C   0  0  1  0  0  0  0  0  0  0  0  0
   -1.4638    5.8854   -2.2826 C   0  0  0  0  0  0  0  0  0  0  0  0
   -3.3017    5.9867   -4.5691 C   0  0  1  0  0  0  0  0  0  0  0  0
   -1.7746    7.5289   -5.3941 O   0  0  0  0  0  0  0  0  0  0  0  0
    0.0552    8.9282   -3.2163 C   0  0  1  0  0  0  0  0  0  0  0  0
   -2.3184    6.3250   -1.2437 C   0  0  0  0  0  0  0  0  0  0  0  0
   -0.9083    4.5844   -2.2351 C   0  0  0  0  0  0  0  0  0  0  0  0
   -4.3283    6.4723   -3.7163 O   0  0  0  0  0  0  0  0  0  0  0  0
    1.3348    9.4827   -3.5152 O   0  0  0  0  0  0  0  0  0  0  0  0
   -3.0559    8.2540   -1.2846 I   0  0  0  0  0  0  0  0  0  0  0  0
   -2.6522    5.4512   -0.1804 C   0  0  0  0  0  0  0  0  0  0  0  0
    0.2947    3.9313   -3.7830 I   0  0  0  0  0  0  0  0  0  0  0  0
   -1.1715    3.7404   -1.1317 C   0  0  0  0  0  0  0  0  0  0  0  0
   -3.6139    5.8434    0.7713 C   0  0  0  0  0  0  0  0  0  0  0  0
   -2.0573    4.1663   -0.1113 C   0  0  0  0  0  0  0  0  0  0  0  0
   -0.5422    2.4855   -1.0460 C   0  0  0  0  0  0  0  0  0  0  0  0
   -3.2714    6.0539    2.0743 N   0  0  0  0  0  0  0  0  0  0  0  0
   -4.7947    5.9748    0.3706 O   0  0  0  0  0  0  0  0  0  0  0  0
   -2.5333    2.8796    1.4364 I   0  0  0  0  0  0  0  0  0  0  0  0
    0.4247    2.3176   -0.1055 N   0  0  0  0  0  0  0  0  0  0  0  0
   -0.8854    1.5716   -1.8325 O   0  0  0  0  0  0  0  0  0  0  0  0
   -4.1782    6.3773    3.1333 C   0  0  2  0  0  0  0  0  0  0  0  0
    1.1981    1.1404    0.1174 C   0  0  1  0  0  0  0  0  0  0  0  0
   -4.0408    5.3542    4.2937 C   0  0  2  0  0  0  0  0  0  0  0  0
    0.7020    0.3722    1.3704 C   0  0  2  0  0  0  0  0  0  0  0  0
   -5.2337    5.3795    5.2782 C   0  0  1  0  0  0  0  0  0  0  0  0
   -2.8477    5.6122    5.0349 O   0  0  0  0  0  0  0  0  0  0  0  0
    1.6635   -0.7616    1.7976 C   0  0  2  0  0  0  0  0  0  0  0  0
   -0.5771   -0.2022    1.1036 O   0  0  0  0  0  0  0  0  0  0  0  0
   -6.4242    4.9103    4.6507 O   0  0  0  0  0  0  0  0  0  0  0  0
    2.9109   -0.2320    2.2347 O   0  0  0  0  0  0  0  0  0  0  0  0
    0.7701    7.0236   -2.5547 H   0  0  0  0  0  0  0  0  0  0  0  0
    0.6179    7.1363   -4.2897 H   0  0  0  0  0  0  0  0  0  0  0  0
   -3.6850    6.0333   -5.5916 H   0  0  0  0  0  0  0  0  0  0  0  0
   -3.1064    4.9373   -4.3402 H   0  0  0  0  0  0  0  0  0  0  0  0
   -0.6741    9.3563   -3.9035 H   0  0  0  0  0  0  0  0  0  0  0  0
   -0.2162    9.2065   -2.1973 H   0  0  0  0  0  0  0  0  0  0  0  0
   -5.1030    5.9029   -3.9114 H   0  0  0  0  0  0  0  0  0  0  0  0
    1.2308   10.4522   -3.4149 H   0  0  0  0  0  0  0  0  0  0  0  0
   -2.3361    5.9577    2.3126 H   0  0  0  0  0  0  0  0  0  0  0  0
    0.6130    3.0767    0.4689 H   0  0  0  0  0  0  0  0  0  0  0  0
   -5.2133    6.3954    2.7838 H   0  0  0  0  0  0  0  0  0  0  0  0
   -3.9369    7.3777    3.4944 H   0  0  0  0  0  0  0  0  0  0  0  0
    1.1888    0.4788   -0.7529 H   0  0  0  0  0  0  0  0  0  0  0  0
    2.2257    1.4732    0.2712 H   0  0  0  0  0  0  0  0  0  0  0  0
   -3.9718    4.3435    3.8801 H   0  0  0  0  0  0  0  0  0  0  0  0
    0.5985    1.0684    2.2071 H   0  0  0  0  0  0  0  0  0  0  0  0
   -5.0189    4.7249    6.1262 H   0  0  0  0  0  0  0  0  0  0  0  0
   -5.3982    6.3924    5.6521 H   0  0  0  0  0  0  0  0  0  0  0  0
   -2.1175    5.5664    4.3832 H   0  0  0  0  0  0  0  0  0  0  0  0
    1.8364   -1.4487    0.9660 H   0  0  0  0  0  0  0  0  0  0  0  0
    1.2274   -1.3246    2.6247 H   0  0  0  0  0  0  0  0  0  0  0  0
   -1.1552    0.5493    0.8578 H   0  0  0  0  0  0  0  0  0  0  0  0
   -7.0968    4.9021    5.3632 H   0  0  0  0  0  0  0  0  0  0  0  0
    3.4117   -1.0059    2.5674 H   0  0  0  0  0  0  0  0  0  0  0  0
  1  2  1  0  0  0  0 
  1  3  1  0  0  0  0 
  1  4  1  0  0  0  0 
  2  5  1  0  0  0  0 
  2  6  2  0  0  0  0 
  3  7  1  0  0  0  0 
  4  8  2  0  0  0  0 
  4  9  1  0  0  0  0 
  5 10  1  0  0  0  0 
  7 11  1  0  0  0  0 
  8 12  1  0  0  0  0 
  8 13  1  0  0  0  0 
  9 14  1  0  0  0  0 
  9 15  2  0  0  0  0 
 13 16  1  0  0  0  0 
 13 17  2  0  0  0  0 
 15 17  1  0  0  0  0 
 15 18  1  0  0  0  0 
 16 19  1  0  0  0  0 
 16 20  2  0  0  0  0 
 17 21  1  0  0  0  0 
 18 22  1  0  0  0  0 
 18 23  2  0  0  0  0 
 19 24  1  0  0  0  0 
 22 25  1  0  0  0  0 
 24 26  1  0  0  0  0 
 25 27  1  0  0  0  0 
 26 28  1  0  0  0  0 
 26 29  1  0  0  0  0 
 27 30  1  0  0  0  0 
 27 31  1  0  0  0  0 
 28 32  1  0  0  0  0 
 30 33  1  0  0  0  0 
  3 34  1  0  0  0  0 
  3 35  1  0  0  0  0 
  5 36  1  0  0  0  0 
  5 37  1  0  0  0  0 
  7 38  1  0  0  0  0 
  7 39  1  0  0  0  0 
 10 40  1  0  0  0  0 
 11 41  1  0  0  0  0 
 19 42  1  0  0  0  0 
 22 43  1  0  0  0  0 
 24 44  1  0  0  0  0 
 24 45  1  0  0  0  0 
 25 46  1  0  0  0  0 
 25 47  1  0  0  0  0 
 26 48  1  0  0  0  0 
 27 49  1  0  0  0  0 
 28 50  1  0  0  0  0 
 28 51  1  0  0  0  0 
 29 52  1  0  0  0  0 
 30 53  1  0  0  0  0 
 30 54  1  0  0  0  0 
 31 55  1  0  0  0  0 
 32 56  1  0  0  0  0 
 33 57  1  0  0  0  0 
M  END
> <cdk:Title>
ioversol

> <Conformer>
1

> <SuperDrugID>
SD001302

$$$$
