glutathione
  CDK     0628171801

 37 36  0  0  0  0  0  0  0  0999 V2000
    2.8052   -1.4129    1.0113 C   0  0  1  0  0  0  0  0  0  0  0  0
    2.4745   -2.1318   -0.2430 C   0  0  0  0  0  0  0  0  0  0  0  0
    3.4547   -2.3215    1.9162 N   0  0  0  0  0  0  0  0  0  0  0  0
    3.7162   -0.1871    0.7216 C   0  0  1  0  0  0  0  0  0  0  0  0
    1.1846   -2.1741   -0.6728 N   0  0  0  0  0  0  0  0  0  0  0  0
    3.3921   -2.6704   -0.9094 O   0  0  0  0  0  0  0  0  0  0  0  0
    2.9500   -2.8029    3.0893 C   0  0  0  0  0  0  0  0  0  0  0  0
    4.0129    0.8091    2.2014 S   0  0  0  0  0  0  0  0  0  0  0  0
    0.7578   -2.7493   -1.9061 C   0  0  1  0  0  0  0  0  0  0  0  0
    3.7775   -3.6896    3.9373 C   0  0  1  0  0  0  0  0  0  0  0  0
    1.7874   -2.5221    3.4663 O   0  0  0  0  0  0  0  0  0  0  0  0
   -0.6882   -2.5429   -2.0750 C   0  0  0  0  0  0  0  0  0  0  0  0
    4.0641   -3.0928    5.3463 C   0  0  1  0  0  0  0  0  0  0  0  0
   -1.1466   -1.7029   -3.0293 O   0  0  0  0  0  0  0  0  0  0  0  0
   -1.5094   -3.1309   -1.3347 O   0  0  0  0  0  0  0  0  0  0  0  0
    5.1435   -3.8729    6.1583 C   0  0  1  0  0  0  0  0  0  0  0  0
    5.4268   -3.3060    7.4971 C   0  0  0  0  0  0  0  0  0  0  0  0
    4.7576   -5.2791    6.3451 N   0  0  2  0  0  0  0  0  0  0  0  0
    4.6994   -2.2991    8.0358 O   0  0  0  0  0  0  0  0  0  0  0  0
    6.3686   -3.7626    8.1842 O   0  0  0  0  0  0  0  0  0  0  0  0
    1.8784   -1.0236    1.4475 H   0  0  0  0  0  0  0  0  0  0  0  0
    4.3476   -2.6142    1.6695 H   0  0  0  0  0  0  0  0  0  0  0  0
    4.6833   -0.5099    0.3330 H   0  0  0  0  0  0  0  0  0  0  0  0
    3.2507    0.4646   -0.0217 H   0  0  0  0  0  0  0  0  0  0  0  0
    0.5070   -1.7671   -0.1099 H   0  0  0  0  0  0  0  0  0  0  0  0
    2.7040    1.1572    2.3389 H   0  0  0  0  0  0  0  0  0  0  0  0
    1.2927   -2.2608   -2.7257 H   0  0  0  0  0  0  0  0  0  0  0  0
    0.9809   -3.8197   -1.9373 H   0  0  0  0  0  0  0  0  0  0  0  0
    3.2580   -4.6448    4.0467 H   0  0  0  0  0  0  0  0  0  0  0  0
    4.7286   -3.8884    3.4356 H   0  0  0  0  0  0  0  0  0  0  0  0
    4.4081   -2.0619    5.2233 H   0  0  0  0  0  0  0  0  0  0  0  0
    3.1322   -3.0701    5.9189 H   0  0  0  0  0  0  0  0  0  0  0  0
   -2.1100   -1.5629   -3.1371 H   0  0  0  0  0  0  0  0  0  0  0  0
    6.0785   -3.8528    5.5925 H   0  0  0  0  0  0  0  0  0  0  0  0
    4.6877   -5.7016    5.4185 H   0  0  0  0  0  0  0  0  0  0  0  0
    3.8194   -5.2863    6.7514 H   0  0  0  0  0  0  0  0  0  0  0  0
    4.9217   -1.9489    8.9248 H   0  0  0  0  0  0  0  0  0  0  0  0
  1  2  1  0  0  0  0 
  1  3  1  0  0  0  0 
  1  4  1  0  0  0  0 
  2  5  1  0  0  0  0 
  2  6  2  0  0  0  0 
  3  7  1  0  0  0  0 
  4  8  1  0  0  0  0 
  5  9  1  0  0  0  0 
  7 10  1  0  0  0  0 
  7 11  2  0  0  0  0 
  9 12  1  0  0  0  0 
 10 13  1  0  0  0  0 
 12 14  1  0  0  0  0 
 12 15  2  0  0  0  0 
 16 13  1  0  0  0  0 
 16 17  1  0  0  0  0 
 16 18  1  0  0  0  0 
 17 19  1  0  0  0  0 
 17 20  2  0  0  0  0 
  1 21  1  0  0  0  0 
  3 22  1  0  0  0  0 
  4 23  1  0  0  0  0 
  4 24  1  0  0  0  0 
  5 25  1  0  0  0  0 
  8 26  1  0  0  0  0 
  9 27  1  0  0  0  0 
  9 28  1  0  0  0  0 
 10 29  1  0  0  0  0 
 10 30  1  0  0  0  0 
 13 31  1  0  0  0  0 
 13 32  1  0  0  0  0 
 14 33  1  0  0  0  0 
 16 34  1  0  0  0  0 
 18 35  1  0  0  0  0 
 18 36  1  0  0  0  0 
 19 37  1  0  0  0  0 
M  END
> <cdk:Title>
glutathione

> <Conformer>
1

> <SuperDrugID>
SD001168

$$$$
