benznidazole
  CDK     0628171801

 31 32  0  0  0  0  0  0  0  0999 V2000
    0.3557    1.9845   -0.1041 C   0  0  1  0  0  0  0  0  0  0  0  0
    1.1077    0.8623   -0.7060 C   0  0  0  0  0  0  0  0  0  0  0  0
    0.2942    3.1025   -1.0107 N   0  0  0  0  0  0  0  0  0  0  0  0
    0.5090   -0.3446   -0.8907 N   0  0  0  0  0  0  0  0  0  0  0  0
    2.3005    1.0548   -1.0448 O   0  0  0  0  0  0  0  0  0  0  0  0
   -0.4901    3.2707   -2.1111 C   0  0  0  0  0  0  0  0  0  0  0  0
    1.0791    4.1927   -0.9126 C   0  0  0  0  0  0  0  0  0  0  0  0
    1.1198   -1.4744   -1.5177 C   0  0  1  0  0  0  0  0  0  0  0  0
   -1.4281    2.4631   -2.6092 N   0  0  0  0  0  0  0  0  0  0  0  0
   -0.1801    4.4513   -2.6922 N   0  0  0  0  0  0  0  0  0  0  0  0
    0.7856    5.0294   -1.9725 C   0  0  0  0  0  0  0  0  0  0  0  0
    0.1251   -2.5716   -1.6237 C   0  0  0  0  0  0  0  0  0  0  0  0
   -1.7267    1.3452   -2.0959 O   0  0  0  0  0  0  0  0  0  0  0  0
   -2.0387    2.7595   -3.5595 O   0  0  0  0  0  0  0  0  0  0  0  0
   -0.2789   -3.2802   -0.4662 C   0  0  0  0  0  0  0  0  0  0  0  0
   -0.4550   -2.9211   -2.8679 C   0  0  0  0  0  0  0  0  0  0  0  0
   -1.2535   -4.2931   -0.5470 C   0  0  0  0  0  0  0  0  0  0  0  0
   -1.4317   -3.9318   -2.9480 C   0  0  0  0  0  0  0  0  0  0  0  0
   -1.8343   -4.6149   -1.7869 C   0  0  0  0  0  0  0  0  0  0  0  0
   -0.6547    1.6810    0.1810 H   0  0  0  0  0  0  0  0  0  0  0  0
    0.8598    2.2637    0.8265 H   0  0  0  0  0  0  0  0  0  0  0  0
   -0.4062   -0.4411   -0.5847 H   0  0  0  0  0  0  0  0  0  0  0  0
    1.7816    4.3738   -0.1933 H   0  0  0  0  0  0  0  0  0  0  0  0
    1.4777   -1.1810   -2.5083 H   0  0  0  0  0  0  0  0  0  0  0  0
    1.9844   -1.8061   -0.9362 H   0  0  0  0  0  0  0  0  0  0  0  0
    1.2256    5.9289   -2.1722 H   0  0  0  0  0  0  0  0  0  0  0  0
    0.1325   -3.0601    0.4450 H   0  0  0  0  0  0  0  0  0  0  0  0
   -0.1779   -2.4363   -3.7243 H   0  0  0  0  0  0  0  0  0  0  0  0
   -1.5407   -4.7946    0.2967 H   0  0  0  0  0  0  0  0  0  0  0  0
   -1.8515   -4.1687   -3.8493 H   0  0  0  0  0  0  0  0  0  0  0  0
   -2.5475   -5.3451   -1.8423 H   0  0  0  0  0  0  0  0  0  0  0  0
  1  2  1  0  0  0  0 
  1  3  1  0  0  0  0 
  2  4  1  0  0  0  0 
  2  5  2  0  0  0  0 
  3  6  1  0  0  0  0 
  3  7  1  0  0  0  0 
  4  8  1  0  0  0  0 
  6  9  1  0  0  0  0 
  6 10  2  0  0  0  0 
  7 11  2  0  0  0  0 
  8 12  1  0  0  0  0 
  9 13  1  0  0  0  0 
  9 14  2  0  0  0  0 
 10 11  1  0  0  0  0 
 12 15  2  0  0  0  0 
 12 16  1  0  0  0  0 
 15 17  1  0  0  0  0 
 16 18  2  0  0  0  0 
 17 19  2  0  0  0  0 
 18 19  1  0  0  0  0 
  1 20  1  0  0  0  0 
  1 21  1  0  0  0  0 
  4 22  1  0  0  0  0 
  7 23  1  0  0  0  0 
  8 24  1  0  0  0  0 
  8 25  1  0  0  0  0 
 11 26  1  0  0  0  0 
 15 27  1  0  0  0  0 
 16 28  1  0  0  0  0 
 17 29  1  0  0  0  0 
 18 30  1  0  0  0  0 
 19 31  1  0  0  0  0 
M  CHG  1   9   1
M  CHG  1  13  -1
M  END
> <cdk:Title>
benznidazole

> <Conformer>
1

> <SuperDrugID>
SD000271

$$$$
