picrotin
  CDK     0628171801

 40 44  0  0  0  0  0  0  0  0999 V2000
   -1.4129   -0.6945   -2.7143 C   0  0  2  0  0  0  0  0  0  0  0  0
   -2.2602    0.4819   -2.0709 C   0  0  1  0  0  0  0  0  0  0  0  0
   -2.1650    0.6177   -0.5151 C   0  0  1  0  0  0  0  0  0  0  0  0
   -2.2180   -0.7327    0.2538 C   0  0  2  0  0  0  0  0  0  0  0  0
   -0.8130   -1.2582   -0.1827 C   0  0  1  0  0  0  0  0  0  0  0  0
   -0.7090   -1.6887   -1.7003 C   0  0  2  0  0  0  0  0  0  0  0  0
   -0.2805    0.1173   -3.3631 C   0  0  2  0  0  0  0  0  0  0  0  0
    1.0507   -0.4541   -2.9428 C   0  0  1  0  0  0  0  0  0  0  0  0
    0.7655   -1.7683   -2.2006 C   0  0  2  0  0  0  0  0  0  0  0  0
   -1.7375    1.7027   -2.6276 O   0  0  0  0  0  0  0  0  0  0  0  0
   -0.5812    1.5349   -3.3008 C   0  0  0  0  0  0  0  0  0  0  0  0
   -3.5043   -1.6391    0.1582 C   0  0  2  0  0  0  0  0  0  0  0  0
   -0.8455    1.0569   -0.1680 O   0  0  0  0  0  0  0  0  0  0  0  0
   -0.0589   -0.0138    0.0597 C   0  0  0  0  0  0  0  0  0  0  0  0
    1.1300    0.0582    0.4437 O   0  0  0  0  0  0  0  0  0  0  0  0
   -4.7793   -0.8611    0.6072 C   0  0  0  0  0  0  0  0  0  0  0  0
   -3.3528   -2.9213    1.0331 C   0  0  0  0  0  0  0  0  0  0  0  0
   -3.7559   -2.0669   -1.1740 O   0  0  0  0  0  0  0  0  0  0  0  0
   -1.2527   -3.0098   -1.7874 O   0  0  0  0  0  0  0  0  0  0  0  0
    0.0811    2.4562   -3.8273 O   0  0  0  0  0  0  0  0  0  0  0  0
    0.6572   -0.3927   -4.3227 O   0  0  0  0  0  0  0  0  0  0  0  0
    1.7538    0.2858   -2.5538 H   0  0  0  0  0  0  0  0  0  0  0  0
   -2.1713   -1.3895   -3.8970 C   0  0  0  0  0  0  0  0  0  0  0  0
   -3.3149    0.4020   -2.3503 H   0  0  0  0  0  0  0  0  0  0  0  0
   -2.8965    1.3339   -0.1322 H   0  0  0  0  0  0  0  0  0  0  0  0
   -2.1660   -0.4883    1.3270 H   0  0  0  0  0  0  0  0  0  0  0  0
   -0.4633   -2.0483    0.4868 H   0  0  0  0  0  0  0  0  0  0  0  0
    0.8956   -2.5925   -2.9062 H   0  0  0  0  0  0  0  0  0  0  0  0
    1.4797   -1.9156   -1.3875 H   0  0  0  0  0  0  0  0  0  0  0  0
   -4.9661   -0.0116   -0.0509 H   0  0  0  0  0  0  0  0  0  0  0  0
   -4.6742   -0.4907    1.6297 H   0  0  0  0  0  0  0  0  0  0  0  0
   -5.6583   -1.5078    0.5644 H   0  0  0  0  0  0  0  0  0  0  0  0
   -4.2289   -3.5650    0.9272 H   0  0  0  0  0  0  0  0  0  0  0  0
   -3.2412   -2.6635    2.0892 H   0  0  0  0  0  0  0  0  0  0  0  0
   -2.4813   -3.4993    0.7275 H   0  0  0  0  0  0  0  0  0  0  0  0
   -4.5631   -2.6205   -1.1229 H   0  0  0  0  0  0  0  0  0  0  0  0
   -0.6941   -3.5607   -1.2013 H   0  0  0  0  0  0  0  0  0  0  0  0
   -3.0196   -1.9685   -3.5396 H   0  0  0  0  0  0  0  0  0  0  0  0
   -2.5528   -0.6516   -4.6086 H   0  0  0  0  0  0  0  0  0  0  0  0
   -1.5080   -2.0702   -4.4359 H   0  0  0  0  0  0  0  0  0  0  0  0
  2  3  1  0  0  0  0 
  3  4  1  0  0  0  0 
  4  5  1  0  0  0  0 
  5  6  1  0  0  0  0 
  6  9  1  0  0  0  0 
  6  1  1  0  0  0  0 
  7  8  1  0  0  0  0 
  8  9  1  0  0  0  0 
  2 10  1  0  0  0  0 
 11  7  1  0  0  0  0 
  7  1  1  0  0  0  0 
  2  1  1  0  0  0  0 
 10 11  1  0  0  0  0 
  4 12  1  0  0  0  0 
  3 13  1  0  0  0  0 
  5 14  1  0  0  0  0 
 13 14  1  0  0  0  0 
 14 15  2  0  0  0  0 
 12 16  1  0  0  0  0 
 12 17  1  0  0  0  0 
 12 18  1  0  0  0  0 
  6 19  1  0  0  0  0 
 11 20  2  0  0  0  0 
  7 21  1  0  0  0  0 
  8 21  1  0  0  0  0 
  8 22  1  0  0  0  0 
  1 23  1  0  0  0  0 
  2 24  1  0  0  0  0 
  3 25  1  0  0  0  0 
  4 26  1  0  0  0  0 
  5 27  1  0  0  0  0 
  9 28  1  0  0  0  0 
  9 29  1  0  0  0  0 
 16 30  1  0  0  0  0 
 16 31  1  0  0  0  0 
 16 32  1  0  0  0  0 
 17 33  1  0  0  0  0 
 17 34  1  0  0  0  0 
 17 35  1  0  0  0  0 
 18 36  1  0  0  0  0 
 19 37  1  0  0  0  0 
 23 38  1  0  0  0  0 
 23 39  1  0  0  0  0 
 23 40  1  0  0  0  0 
M  END
> <cdk:Title>
picrotin

> <Conformer>
1

> <SuperDrugID>
SD001940

$$$$
