emepronium
  CDK     0628171801

 49 50  0  0  0  0  0  0  0  0999 V2000
   -0.1833    2.4608   -0.4561 C   0  0  0  0  0  0  0  0  0  0  0  0
    0.3312    1.7880   -1.5765 C   0  0  0  0  0  0  0  0  0  0  0  0
    0.1558    0.3991   -1.6970 C   0  0  0  0  0  0  0  0  0  0  0  0
   -0.5331   -0.3155   -0.6995 C   0  0  0  0  0  0  0  0  0  0  0  0
   -1.0466    0.3383    0.4501 C   0  0  0  0  0  0  0  0  0  0  0  0
   -0.8634    1.7424    0.5445 C   0  0  0  0  0  0  0  0  0  0  0  0
   -1.7432   -0.4074    1.5589 C   0  0  2  0  0  0  0  0  0  0  0  0
   -1.1114   -1.7906    1.9630 C   0  0  2  0  0  0  0  0  0  0  0  0
   -3.2166   -0.5390    1.2890 C   0  0  0  0  0  0  0  0  0  0  0  0
   -3.7076   -1.2159    0.1429 C   0  0  0  0  0  0  0  0  0  0  0  0
   -5.0892   -1.3412   -0.0931 C   0  0  0  0  0  0  0  0  0  0  0  0
   -6.0123   -0.8025    0.8187 C   0  0  0  0  0  0  0  0  0  0  0  0
   -5.5507   -0.1377    1.9668 C   0  0  0  0  0  0  0  0  0  0  0  0
   -4.1688   -0.0064    2.1970 C   0  0  0  0  0  0  0  0  0  0  0  0
    0.4478   -1.8262    2.2323 C   0  0  2  0  0  0  0  0  0  0  0  0
    1.1177   -3.2242    2.2307 N   0  0  2  0  0  0  0  0  0  0  0  0
    0.7531   -0.9380    3.4885 C   0  0  0  0  0  0  0  0  0  0  0  0
    2.6395   -3.1560    2.4211 C   0  0  1  0  0  0  0  0  0  0  0  0
    3.4656   -2.3124    1.4095 C   0  0  0  0  0  0  0  0  0  0  0  0
    0.8636   -3.9612    0.9223 C   0  0  0  0  0  0  0  0  0  0  0  0
    0.5634   -4.0916    3.3445 C   0  0  0  0  0  0  0  0  0  0  0  0
   -0.0618    3.4724   -0.3690 H   0  0  0  0  0  0  0  0  0  0  0  0
    0.8316    2.3082   -2.3019 H   0  0  0  0  0  0  0  0  0  0  0  0
    0.5357   -0.0918   -2.5080 H   0  0  0  0  0  0  0  0  0  0  0  0
   -0.6382   -1.3263   -0.8092 H   0  0  0  0  0  0  0  0  0  0  0  0
   -1.2235    2.2591    1.3517 H   0  0  0  0  0  0  0  0  0  0  0  0
   -1.6395    0.2077    2.4595 H   0  0  0  0  0  0  0  0  0  0  0  0
   -1.3639   -2.4942    1.1746 H   0  0  0  0  0  0  0  0  0  0  0  0
   -1.6248   -2.1448    2.8622 H   0  0  0  0  0  0  0  0  0  0  0  0
   -3.0627   -1.6289   -0.5334 H   0  0  0  0  0  0  0  0  0  0  0  0
   -5.4228   -1.8282   -0.9277 H   0  0  0  0  0  0  0  0  0  0  0  0
   -7.0168   -0.8975    0.6501 H   0  0  0  0  0  0  0  0  0  0  0  0
   -6.2194    0.2487    2.6373 H   0  0  0  0  0  0  0  0  0  0  0  0
   -3.8646    0.4795    3.0442 H   0  0  0  0  0  0  0  0  0  0  0  0
    0.8915   -1.2829    1.3973 H   0  0  0  0  0  0  0  0  0  0  0  0
    0.4637    0.0991    3.3202 H   0  0  0  0  0  0  0  0  0  0  0  0
    0.2145   -1.3038    4.3628 H   0  0  0  0  0  0  0  0  0  0  0  0
    1.8131   -0.9015    3.7219 H   0  0  0  0  0  0  0  0  0  0  0  0
    2.8902   -2.7944    3.4201 H   0  0  0  0  0  0  0  0  0  0  0  0
    3.0717   -4.1616    2.3848 H   0  0  0  0  0  0  0  0  0  0  0  0
    4.5218   -2.3271    1.6856 H   0  0  0  0  0  0  0  0  0  0  0  0
    3.3776   -2.7291    0.4055 H   0  0  0  0  0  0  0  0  0  0  0  0
    3.1468   -1.2703    1.3967 H   0  0  0  0  0  0  0  0  0  0  0  0
   -0.1681   -4.3013    0.8225 H   0  0  0  0  0  0  0  0  0  0  0  0
    1.0764   -3.3275    0.0585 H   0  0  0  0  0  0  0  0  0  0  0  0
    1.4726   -4.8650    0.8266 H   0  0  0  0  0  0  0  0  0  0  0  0
    0.7196   -3.6417    4.3279 H   0  0  0  0  0  0  0  0  0  0  0  0
   -0.5095   -4.2706    3.2328 H   0  0  0  0  0  0  0  0  0  0  0  0
    1.0429   -5.0751    3.3688 H   0  0  0  0  0  0  0  0  0  0  0  0
  1  2  2  0  0  0  0 
  2  3  1  0  0  0  0 
  3  4  2  0  0  0  0 
  4  5  1  0  0  0  0 
  5  6  2  0  0  0  0 
  1  6  1  0  0  0  0 
  5  7  1  0  0  0  0 
  7  8  1  0  0  0  0 
  7  9  1  0  0  0  0 
 10 11  1  0  0  0  0 
 11 12  2  0  0  0  0 
 12 13  1  0  0  0  0 
 13 14  2  0  0  0  0 
  9 10  2  0  0  0  0 
  9 14  1  0  0  0  0 
 15  8  1  0  0  0  0 
 15 16  1  0  0  0  0 
 15 17  1  0  0  0  0 
 16 18  1  0  0  0  0 
 18 19  1  0  0  0  0 
 16 20  1  0  0  0  0 
 16 21  1  0  0  0  0 
  1 22  1  0  0  0  0 
  2 23  1  0  0  0  0 
  3 24  1  0  0  0  0 
  4 25  1  0  0  0  0 
  6 26  1  0  0  0  0 
  7 27  1  0  0  0  0 
  8 28  1  0  0  0  0 
  8 29  1  0  0  0  0 
 10 30  1  0  0  0  0 
 11 31  1  0  0  0  0 
 12 32  1  0  0  0  0 
 13 33  1  0  0  0  0 
 14 34  1  0  0  0  0 
 15 35  1  0  0  0  0 
 17 36  1  0  0  0  0 
 17 37  1  0  0  0  0 
 17 38  1  0  0  0  0 
 18 39  1  0  0  0  0 
 18 40  1  0  0  0  0 
 19 41  1  0  0  0  0 
 19 42  1  0  0  0  0 
 19 43  1  0  0  0  0 
 20 44  1  0  0  0  0 
 20 45  1  0  0  0  0 
 20 46  1  0  0  0  0 
 21 47  1  0  0  0  0 
 21 48  1  0  0  0  0 
 21 49  1  0  0  0  0 
M  CHG  1  16   1
M  END
> <cdk:Title>
emepronium

> <Conformer>
1

> <SuperDrugID>
SD000888

$$$$
