pronilide
  CDK     0628171801

 31 31  0  0  0  0  0  0  0  0999 V2000
    3.6942   -0.9359    2.9598 N   0  0  0  0  0  0  0  0  0  0  0  0
    4.5467   -1.9117    3.3958 C   0  0  0  0  0  0  0  0  0  0  0  0
    2.3713   -0.7392    3.2590 C   0  0  0  0  0  0  0  0  0  0  0  0
    5.9527   -1.8540    2.9632 C   0  0  0  0  0  0  0  0  0  0  0  0
    4.1894   -2.8676    4.1252 O   0  0  0  0  0  0  0  0  0  0  0  0
    1.5890   -0.0002    2.3383 C   0  0  0  0  0  0  0  0  0  0  0  0
    1.7595   -1.1997    4.4510 C   0  0  0  0  0  0  0  0  0  0  0  0
    2.1349    0.4885    1.1767 O   0  0  0  0  0  0  0  0  0  0  0  0
    0.2376    0.2741    2.6207 C   0  0  0  0  0  0  0  0  0  0  0  0
    0.3861   -0.9862    4.7291 C   0  0  0  0  0  0  0  0  0  0  0  0
    1.8532   -0.3202    0.0124 C   0  0  1  0  0  0  0  0  0  0  0  0
   -0.3539   -0.2157    3.7970 C   0  0  0  0  0  0  0  0  0  0  0  0
   -0.1899   -1.5003    5.8342 N   0  0  0  0  0  0  0  0  0  0  0  0
    2.4852    0.3077   -1.2541 C   0  0  1  0  0  0  0  0  0  0  0  0
   -1.2854   -1.2536    6.1566 O   0  0  0  0  0  0  0  0  0  0  0  0
    0.4136   -2.3149    6.6029 O   0  0  0  0  0  0  0  0  0  0  0  0
    2.0066    1.7511   -1.5300 C   0  0  0  0  0  0  0  0  0  0  0  0
    4.0783   -0.3030    2.3327 H   0  0  0  0  0  0  0  0  0  0  0  0
    6.5163   -2.7192    3.3240 H   0  0  0  0  0  0  0  0  0  0  0  0
    6.0039   -1.8342    1.8733 H   0  0  0  0  0  0  0  0  0  0  0  0
    6.4165   -0.9476    3.3554 H   0  0  0  0  0  0  0  0  0  0  0  0
    2.3273   -1.6871    5.1440 H   0  0  0  0  0  0  0  0  0  0  0  0
   -0.3218    0.8247    1.9632 H   0  0  0  0  0  0  0  0  0  0  0  0
    2.2683   -1.3259    0.1396 H   0  0  0  0  0  0  0  0  0  0  0  0
    0.7733   -0.4097   -0.1475 H   0  0  0  0  0  0  0  0  0  0  0  0
   -1.3416   -0.0092    3.9633 H   0  0  0  0  0  0  0  0  0  0  0  0
    3.5718    0.3093   -1.1496 H   0  0  0  0  0  0  0  0  0  0  0  0
    2.2355   -0.3137   -2.1180 H   0  0  0  0  0  0  0  0  0  0  0  0
    2.4444    2.1156   -2.4620 H   0  0  0  0  0  0  0  0  0  0  0  0
    2.3155    2.4158   -0.7206 H   0  0  0  0  0  0  0  0  0  0  0  0
    0.9186    1.7816   -1.6195 H   0  0  0  0  0  0  0  0  0  0  0  0
  1  2  1  0  0  0  0 
  1  3  1  0  0  0  0 
  2  4  1  0  0  0  0 
  2  5  2  0  0  0  0 
  3  6  2  0  0  0  0 
  3  7  1  0  0  0  0 
  6  8  1  0  0  0  0 
  6  9  1  0  0  0  0 
  7 10  2  0  0  0  0 
  8 11  1  0  0  0  0 
  9 12  2  0  0  0  0 
 10 12  1  0  0  0  0 
 10 13  1  0  0  0  0 
 11 14  1  0  0  0  0 
 13 15  2  0  0  0  0 
 13 16  1  0  0  0  0 
 14 17  1  0  0  0  0 
  1 18  1  0  0  0  0 
  4 19  1  0  0  0  0 
  4 20  1  0  0  0  0 
  4 21  1  0  0  0  0 
  7 22  1  0  0  0  0 
  9 23  1  0  0  0  0 
 11 24  1  0  0  0  0 
 11 25  1  0  0  0  0 
 12 26  1  0  0  0  0 
 14 27  1  0  0  0  0 
 14 28  1  0  0  0  0 
 17 29  1  0  0  0  0 
 17 30  1  0  0  0  0 
 17 31  1  0  0  0  0 
M  CHG  1  13   1
M  CHG  1  16  -1
M  END
> <cdk:Title>
pronilide

> <Conformer>
1

> <SuperDrugID>
SD002916

$$$$
