garenoxacin
  CDK     0628171801

 51 55  0  0  0  0  0  0  0  0999 V2000
    2.8763   -2.1720   -6.1356 O   0  0  0  0  0  0  0  0  0  0  0  0
    1.7789   -1.2713   -6.3967 C   0  0  2  0  0  0  0  0  0  0  0  0
    3.7206   -1.7807   -5.1244 C   0  0  0  0  0  0  0  0  0  0  0  0
    0.9992   -1.0225   -5.2902 F   0  0  0  0  0  0  0  0  0  0  0  0
    0.9794   -1.8609   -7.3423 F   0  0  0  0  0  0  0  0  0  0  0  0
    3.5913   -2.3177   -3.8019 C   0  0  0  0  0  0  0  0  0  0  0  0
    4.7165   -0.8162   -5.4410 C   0  0  0  0  0  0  0  0  0  0  0  0
    2.7467   -3.3649   -3.4602 N   0  0  0  0  0  0  0  0  0  0  0  0
    4.3806   -1.7178   -2.7687 C   0  0  0  0  0  0  0  0  0  0  0  0
    5.4988   -0.2771   -4.4047 C   0  0  0  0  0  0  0  0  0  0  0  0
    4.9479   -0.3905   -6.7790 C   0  0  0  0  0  0  0  0  0  0  0  0
    2.5664   -3.7210   -2.1476 C   0  0  0  0  0  0  0  0  0  0  0  0
    1.9843   -4.1453   -4.4176 C   0  0  1  0  0  0  0  0  0  0  0  0
    4.2141   -2.1309   -1.4222 C   0  0  0  0  0  0  0  0  0  0  0  0
    5.3204   -0.7092   -3.0872 C   0  0  0  0  0  0  0  0  0  0  0  0
    4.7347    0.9566   -7.1675 C   0  0  0  0  0  0  0  0  0  0  0  0
    5.3737   -1.3291   -7.7552 C   0  0  0  0  0  0  0  0  0  0  0  0
    3.2837   -3.1385   -1.0816 C   0  0  0  0  0  0  0  0  0  0  0  0
    2.7274   -4.9495   -5.5054 C   0  0  2  0  0  0  0  0  0  0  0  0
    2.0586   -5.6903   -4.3529 C   0  0  1  0  0  0  0  0  0  0  0  0
    4.8964   -1.5888   -0.5183 O   0  0  0  0  0  0  0  0  0  0  0  0
    4.9064    1.3210   -8.5173 C   0  0  0  0  0  0  0  0  0  0  0  0
    5.5549   -0.9468   -9.0996 C   0  0  0  0  0  0  0  0  0  0  0  0
    3.0609   -3.5756    0.2621 C   0  0  0  0  0  0  0  0  0  0  0  0
    5.2933    0.3843   -9.4686 C   0  0  0  0  0  0  0  0  0  0  0  0
    4.7038    2.6225   -9.1460 C   0  0  2  0  0  0  0  0  0  0  0  0
    3.7267   -3.0583    1.3220 O   0  0  0  0  0  0  0  0  0  0  0  0
    2.2337   -4.4733    0.5454 O   0  0  0  0  0  0  0  0  0  0  0  0
    5.3403    0.9884  -10.8030 C   0  0  2  0  0  0  0  0  0  0  0  0
    5.2016    2.4391  -10.5275 N   0  0  1  0  0  0  0  0  0  0  0  0
    4.2036    0.4817  -11.7240 C   0  0  0  0  0  0  0  0  0  0  0  0
    2.1332   -0.3214   -6.8024 H   0  0  0  0  0  0  0  0  0  0  0  0
    6.2100    0.4334   -4.5976 H   0  0  0  0  0  0  0  0  0  0  0  0
    1.8831   -4.4513   -1.9172 H   0  0  0  0  0  0  0  0  0  0  0  0
    0.9995   -3.7715   -4.7062 H   0  0  0  0  0  0  0  0  0  0  0  0
    5.8984   -0.2776   -2.3621 H   0  0  0  0  0  0  0  0  0  0  0  0
    4.4360    1.6601   -6.4868 H   0  0  0  0  0  0  0  0  0  0  0  0
    5.5506   -2.3036   -7.4951 H   0  0  0  0  0  0  0  0  0  0  0  0
    3.8171   -4.9078   -5.4764 H   0  0  0  0  0  0  0  0  0  0  0  0
    2.2242   -5.0234   -6.4712 H   0  0  0  0  0  0  0  0  0  0  0  0
    2.7510   -6.1320   -3.6333 H   0  0  0  0  0  0  0  0  0  0  0  0
    1.1362   -6.2201   -4.5992 H   0  0  0  0  0  0  0  0  0  0  0  0
    5.8683   -1.6281   -9.7948 H   0  0  0  0  0  0  0  0  0  0  0  0
    5.2829    3.4005   -8.6459 H   0  0  0  0  0  0  0  0  0  0  0  0
    3.6428    2.8807   -9.1504 H   0  0  0  0  0  0  0  0  0  0  0  0
    3.5484   -3.3850    2.2295 H   0  0  0  0  0  0  0  0  0  0  0  0
    6.3109    0.8032  -11.2708 H   0  0  0  0  0  0  0  0  0  0  0  0
    4.5116    2.8299  -11.1739 H   0  0  0  0  0  0  0  0  0  0  0  0
    4.3031   -0.5915  -11.9000 H   0  0  0  0  0  0  0  0  0  0  0  0
    4.2520    0.9961  -12.6853 H   0  0  0  0  0  0  0  0  0  0  0  0
    3.2259    0.6762  -11.2749 H   0  0  0  0  0  0  0  0  0  0  0  0
  1  2  1  0  0  0  0 
  1  3  1  0  0  0  0 
  2  4  1  0  0  0  0 
  2  5  1  0  0  0  0 
  3  6  2  0  0  0  0 
  3  7  1  0  0  0  0 
  6  8  1  0  0  0  0 
  6  9  1  0  0  0  0 
  7 10  2  0  0  0  0 
  7 11  1  0  0  0  0 
  8 12  1  0  0  0  0 
  8 13  1  0  0  0  0 
  9 14  1  0  0  0  0 
  9 15  2  0  0  0  0 
 10 15  1  0  0  0  0 
 11 16  2  0  0  0  0 
 11 17  1  0  0  0  0 
 12 18  2  0  0  0  0 
 13 19  1  0  0  0  0 
 13 20  1  0  0  0  0 
 14 18  1  0  0  0  0 
 14 21  2  0  0  0  0 
 16 22  1  0  0  0  0 
 17 23  2  0  0  0  0 
 18 24  1  0  0  0  0 
 19 20  1  0  0  0  0 
 22 25  2  0  0  0  0 
 22 26  1  0  0  0  0 
 23 25  1  0  0  0  0 
 24 27  1  0  0  0  0 
 24 28  2  0  0  0  0 
 29 25  1  0  0  0  0 
 26 30  1  0  0  0  0 
 29 30  1  0  0  0  0 
 29 31  1  0  0  0  0 
  2 32  1  0  0  0  0 
 10 33  1  0  0  0  0 
 12 34  1  0  0  0  0 
 13 35  1  0  0  0  0 
 15 36  1  0  0  0  0 
 16 37  1  0  0  0  0 
 17 38  1  0  0  0  0 
 19 39  1  0  0  0  0 
 19 40  1  0  0  0  0 
 20 41  1  0  0  0  0 
 20 42  1  0  0  0  0 
 23 43  1  0  0  0  0 
 26 44  1  0  0  0  0 
 26 45  1  0  0  0  0 
 27 46  1  0  0  0  0 
 29 47  1  0  0  0  0 
 30 48  1  0  0  0  0 
 31 49  1  0  0  0  0 
 31 50  1  0  0  0  0 
 31 51  1  0  0  0  0 
M  END
> <cdk:Title>
garenoxacin

> <Conformer>
1

> <SuperDrugID>
SD003340

$$$$
