bromfenac
  CDK     0628171801

 32 33  0  0  0  0  0  0  0  0999 V2000
    0.5731    0.2024   -1.0582 C   0  0  0  0  0  0  0  0  0  0  0  0
   -0.2569   -0.6957   -1.3434 O   0  0  0  0  0  0  0  0  0  0  0  0
    0.2059    1.5464   -1.3487 C   0  0  0  0  0  0  0  0  0  0  0  0
    1.8156   -0.1665   -0.4663 C   0  0  0  0  0  0  0  0  0  0  0  0
    0.2503    2.5840   -0.3740 C   0  0  0  0  0  0  0  0  0  0  0  0
   -0.2293    1.8552   -2.6583 C   0  0  0  0  0  0  0  0  0  0  0  0
    2.9900    0.5947   -0.6926 C   0  0  0  0  0  0  0  0  0  0  0  0
    1.9070   -1.3055    0.3708 C   0  0  0  0  0  0  0  0  0  0  0  0
    0.6451    2.3084    0.8927 N   0  0  0  0  0  0  0  0  0  0  0  0
   -0.1456    3.9101   -0.7088 C   0  0  0  0  0  0  0  0  0  0  0  0
   -0.6092    3.1623   -2.9977 C   0  0  0  0  0  0  0  0  0  0  0  0
    4.2103    0.2328   -0.0941 C   0  0  0  0  0  0  0  0  0  0  0  0
    3.1267   -1.6670    0.9706 C   0  0  0  0  0  0  0  0  0  0  0  0
   -0.1071    5.0258    0.2839 C   0  0  1  0  0  0  0  0  0  0  0  0
   -0.5747    4.1767   -2.0300 C   0  0  0  0  0  0  0  0  0  0  0  0
    4.2809   -0.8977    0.7397 C   0  0  0  0  0  0  0  0  0  0  0  0
    1.2802    5.4661    0.5172 C   0  0  0  0  0  0  0  0  0  0  0  0
    5.8899   -1.3703    1.5441 Br  0  0  0  0  0  0  0  0  0  0  0  0
    2.0238    5.9420   -0.5088 O   0  0  0  0  0  0  0  0  0  0  0  0
    1.7911    5.4123    1.6589 O   0  0  0  0  0  0  0  0  0  0  0  0
   -0.2676    1.1304   -3.3804 H   0  0  0  0  0  0  0  0  0  0  0  0
    2.9698    1.4190   -1.2979 H   0  0  0  0  0  0  0  0  0  0  0  0
    1.0806   -1.8782    0.5638 H   0  0  0  0  0  0  0  0  0  0  0  0
    0.6841    3.0124    1.5583 H   0  0  0  0  0  0  0  0  0  0  0  0
    0.8831    1.4033    1.1433 H   0  0  0  0  0  0  0  0  0  0  0  0
   -0.9106    3.3751   -3.9512 H   0  0  0  0  0  0  0  0  0  0  0  0
    5.0465    0.7951   -0.2645 H   0  0  0  0  0  0  0  0  0  0  0  0
    3.1720   -2.4855    1.5812 H   0  0  0  0  0  0  0  0  0  0  0  0
   -0.6735    5.8952   -0.0634 H   0  0  0  0  0  0  0  0  0  0  0  0
   -0.5781    4.7024    1.2174 H   0  0  0  0  0  0  0  0  0  0  0  0
   -0.8621    5.1209   -2.3017 H   0  0  0  0  0  0  0  0  0  0  0  0
    2.9442    6.2363   -0.3551 H   0  0  0  0  0  0  0  0  0  0  0  0
  1  2  2  0  0  0  0 
  1  3  1  0  0  0  0 
  1  4  1  0  0  0  0 
  3  5  2  0  0  0  0 
  3  6  1  0  0  0  0 
  4  7  2  0  0  0  0 
  4  8  1  0  0  0  0 
  5  9  1  0  0  0  0 
  5 10  1  0  0  0  0 
  6 11  2  0  0  0  0 
  7 12  1  0  0  0  0 
  8 13  2  0  0  0  0 
 10 14  1  0  0  0  0 
 10 15  2  0  0  0  0 
 11 15  1  0  0  0  0 
 12 16  2  0  0  0  0 
 13 16  1  0  0  0  0 
 14 17  1  0  0  0  0 
 16 18  1  0  0  0  0 
 17 19  1  0  0  0  0 
 17 20  2  0  0  0  0 
  6 21  1  0  0  0  0 
  7 22  1  0  0  0  0 
  8 23  1  0  0  0  0 
  9 24  1  0  0  0  0 
  9 25  1  0  0  0  0 
 11 26  1  0  0  0  0 
 12 27  1  0  0  0  0 
 13 28  1  0  0  0  0 
 14 29  1  0  0  0  0 
 14 30  1  0  0  0  0 
 15 31  1  0  0  0  0 
 19 32  1  0  0  0  0 
M  END
> <cdk:Title>
bromfenac

> <Conformer>
1

> <SuperDrugID>
SD000343

$$$$
