fadrozole
  CDK     0628171801

 30 32  0  0  0  0  0  0  0  0999 V2000
    4.0798    1.4964    2.5808 N   0  0  0  0  0  0  0  0  0  0  0  0
    4.4878    2.7195    2.1940 C   0  0  0  0  0  0  0  0  0  0  0  0
    4.6216    3.1566    0.7921 C   0  0  1  0  0  0  0  0  0  0  0  0
    3.8271    2.2226   -0.1608 C   0  0  1  0  0  0  0  0  0  0  0  0
    4.0280    0.7232    0.1895 C   0  0  1  0  0  0  0  0  0  0  0  0
    3.7132    0.4132    1.6948 C   0  0  1  0  0  0  0  0  0  0  0  0
    4.7384    3.4640    3.3401 C   0  0  0  0  0  0  0  0  0  0  0  0
    4.4588    2.7015    4.4066 N   0  0  0  0  0  0  0  0  0  0  0  0
    4.0508    1.5128    3.9312 C   0  0  0  0  0  0  0  0  0  0  0  0
    4.3353   -0.8815    2.1236 C   0  0  0  0  0  0  0  0  0  0  0  0
    5.7434   -1.0091    2.2068 C   0  0  0  0  0  0  0  0  0  0  0  0
    6.3374   -2.2076    2.6405 C   0  0  0  0  0  0  0  0  0  0  0  0
    5.5328   -3.3102    2.9960 C   0  0  0  0  0  0  0  0  0  0  0  0
    4.1286   -3.1972    2.9152 C   0  0  0  0  0  0  0  0  0  0  0  0
    3.5384   -1.9938    2.4846 C   0  0  0  0  0  0  0  0  0  0  0  0
    6.0858   -4.4210    3.3948 C   0  0  0  0  0  0  0  0  0  0  0  0
    6.5792   -5.3975    3.7428 N   0  0  0  0  0  0  0  0  0  0  0  0
    4.2447    4.1768    0.6901 H   0  0  0  0  0  0  0  0  0  0  0  0
    5.6815    3.1496    0.5281 H   0  0  0  0  0  0  0  0  0  0  0  0
    2.7620    2.4616   -0.0973 H   0  0  0  0  0  0  0  0  0  0  0  0
    4.1482    2.4035   -1.1907 H   0  0  0  0  0  0  0  0  0  0  0  0
    3.3824    0.1148   -0.4502 H   0  0  0  0  0  0  0  0  0  0  0  0
    5.0615    0.4669   -0.0551 H   0  0  0  0  0  0  0  0  0  0  0  0
    2.6231    0.3397    1.7709 H   0  0  0  0  0  0  0  0  0  0  0  0
    5.0684    4.4313    3.3682 H   0  0  0  0  0  0  0  0  0  0  0  0
    3.7651    0.7321    4.5250 H   0  0  0  0  0  0  0  0  0  0  0  0
    6.3503   -0.2247    1.9553 H   0  0  0  0  0  0  0  0  0  0  0  0
    7.3591   -2.2602    2.6943 H   0  0  0  0  0  0  0  0  0  0  0  0
    3.5211   -3.9816    3.1697 H   0  0  0  0  0  0  0  0  0  0  0  0
    2.5174   -1.9368    2.4407 H   0  0  0  0  0  0  0  0  0  0  0  0
  1  2  1  0  0  0  0 
  2  3  1  0  0  0  0 
  3  4  1  0  0  0  0 
  4  5  1  0  0  0  0 
  6  5  1  0  0  0  0 
  6  1  1  0  0  0  0 
  7  8  1  0  0  0  0 
  8  9  2  0  0  0  0 
  1  9  1  0  0  0  0 
  2  7  2  0  0  0  0 
  6 10  1  0  0  0  0 
 11 12  1  0  0  0  0 
 12 13  2  0  0  0  0 
 13 14  1  0  0  0  0 
 14 15  2  0  0  0  0 
 10 11  2  0  0  0  0 
 10 15  1  0  0  0  0 
 13 16  1  0  0  0  0 
 16 17  3  0  0  0  0 
  3 18  1  0  0  0  0 
  3 19  1  0  0  0  0 
  4 20  1  0  0  0  0 
  4 21  1  0  0  0  0 
  5 22  1  0  0  0  0 
  5 23  1  0  0  0  0 
  6 24  1  0  0  0  0 
  7 25  1  0  0  0  0 
  9 26  1  0  0  0  0 
 11 27  1  0  0  0  0 
 12 28  1  0  0  0  0 
 14 29  1  0  0  0  0 
 15 30  1  0  0  0  0 
M  END
> <cdk:Title>
fadrozole

> <Conformer>
1

> <SuperDrugID>
SD001005

$$$$
