floxuridine
  CDK     0628171801

 28 29  0  0  0  0  0  0  0  0999 V2000
    4.2348   -4.6175    0.8159 O   0  0  0  0  0  0  0  0  0  0  0  0
    5.3086   -4.0265    0.5497 C   0  0  0  0  0  0  0  0  0  0  0  0
    5.3817   -2.6669    0.3533 N   0  0  0  0  0  0  0  0  0  0  0  0
    6.4173   -4.8031    0.4565 N   0  0  0  0  0  0  0  0  0  0  0  0
    4.1804   -1.8496    0.4053 C   0  0  2  0  0  0  0  0  0  0  0  0
    6.6117   -2.1044    0.1150 C   0  0  0  0  0  0  0  0  0  0  0  0
    7.6343   -4.2795    0.1763 C   0  0  0  0  0  0  0  0  0  0  0  0
    4.3142   -0.5885   -0.2810 O   0  0  0  0  0  0  0  0  0  0  0  0
    3.7405   -1.5433    1.8563 C   0  0  1  0  0  0  0  0  0  0  0  0
    7.7709   -2.8923    0.0073 C   0  0  0  0  0  0  0  0  0  0  0  0
    8.6185   -5.0465    0.0760 O   0  0  0  0  0  0  0  0  0  0  0  0
    3.8820    0.4676    0.5849 C   0  0  1  0  0  0  0  0  0  0  0  0
    4.0867   -0.0613    2.0180 C   0  0  1  0  0  0  0  0  0  0  0  0
    8.9295   -2.3422   -0.2414 F   0  0  0  0  0  0  0  0  0  0  0  0
    4.6517    1.7694    0.2621 C   0  0  2  0  0  0  0  0  0  0  0  0
    3.2542    0.5916    2.9718 O   0  0  0  0  0  0  0  0  0  0  0  0
    6.0510    1.6085    0.4719 O   0  0  0  0  0  0  0  0  0  0  0  0
    6.3343   -5.7601    0.5911 H   0  0  0  0  0  0  0  0  0  0  0  0
    3.3711   -2.3721   -0.1134 H   0  0  0  0  0  0  0  0  0  0  0  0
    6.7138   -1.0928    0.0082 H   0  0  0  0  0  0  0  0  0  0  0  0
    2.6622   -1.6961    1.9638 H   0  0  0  0  0  0  0  0  0  0  0  0
    4.2608   -2.1519    2.5996 H   0  0  0  0  0  0  0  0  0  0  0  0
    2.8150    0.6422    0.4079 H   0  0  0  0  0  0  0  0  0  0  0  0
    5.1301    0.0384    2.3315 H   0  0  0  0  0  0  0  0  0  0  0  0
    4.2865    2.5852    0.8884 H   0  0  0  0  0  0  0  0  0  0  0  0
    4.4907    2.0389   -0.7835 H   0  0  0  0  0  0  0  0  0  0  0  0
    3.5729    1.5192    2.9929 H   0  0  0  0  0  0  0  0  0  0  0  0
    6.4498    2.4733    0.2384 H   0  0  0  0  0  0  0  0  0  0  0  0
  1  2  2  0  0  0  0 
  2  3  1  0  0  0  0 
  2  4  1  0  0  0  0 
  3  6  1  0  0  0  0 
  4  7  1  0  0  0  0 
  5  3  1  0  0  0  0 
  5  8  1  0  0  0  0 
  5  9  1  0  0  0  0 
  6 10  2  0  0  0  0 
  7 10  1  0  0  0  0 
  7 11  2  0  0  0  0 
 12  8  1  0  0  0  0 
 13  9  1  0  0  0  0 
 10 14  1  0  0  0  0 
 12 13  1  0  0  0  0 
 12 15  1  0  0  0  0 
 13 16  1  0  0  0  0 
 15 17  1  0  0  0  0 
 18  4  1  0  0  0  0 
  5 19  1  0  0  0  0 
 20  6  1  0  0  0  0 
 21  9  1  0  0  0  0 
 22  9  1  0  0  0  0 
 12 23  1  0  0  0  0 
 13 24  1  0  0  0  0 
 25 15  1  0  0  0  0 
 26 15  1  0  0  0  0 
 27 16  1  0  0  0  0 
 28 17  1  0  0  0  0 
M  END
> <cdk:Title>
floxuridine

> <Conformer>
1

> <SuperDrugID>
SD001060

$$$$
