dexfenfluramine
  CDK     0628171802

 32 32  0  0  0  0  0  0  0  0999 V2000
    2.2920   -3.0057    0.0321 C   0  0  2  0  0  0  0  0  0  0  0  0
    1.5788   -2.2372   -1.1245 C   0  0  1  0  0  0  0  0  0  0  0  0
    2.2187   -4.4873   -0.1052 C   0  0  0  0  0  0  0  0  0  0  0  0
    1.6466   -0.7654   -0.9328 N   0  0  1  0  0  0  0  0  0  0  0  0
    2.2152   -2.5245   -2.5111 C   0  0  0  0  0  0  0  0  0  0  0  0
    3.2877   -5.2258   -0.6649 C   0  0  0  0  0  0  0  0  0  0  0  0
    1.0634   -5.1828    0.3130 C   0  0  0  0  0  0  0  0  0  0  0  0
    0.7824   -0.1560    0.1035 C   0  0  2  0  0  0  0  0  0  0  0  0
    3.2212   -6.6330   -0.8152 C   0  0  0  0  0  0  0  0  0  0  0  0
    0.9863   -6.5801    0.1973 C   0  0  0  0  0  0  0  0  0  0  0  0
    0.8497    1.3788   -0.0186 C   0  0  0  0  0  0  0  0  0  0  0  0
    4.3593   -7.3830   -1.4195 C   0  0  2  0  0  0  0  0  0  0  0  0
    2.0585   -7.2990   -0.3581 C   0  0  0  0  0  0  0  0  0  0  0  0
    5.3216   -7.5754   -0.4608 F   0  0  0  0  0  0  0  0  0  0  0  0
    4.9266   -6.7006   -2.4694 F   0  0  0  0  0  0  0  0  0  0  0  0
    4.0005   -8.6114   -1.9245 F   0  0  0  0  0  0  0  0  0  0  0  0
    1.8398   -2.7327    0.9882 H   0  0  0  0  0  0  0  0  0  0  0  0
    3.3337   -2.6816    0.0905 H   0  0  0  0  0  0  0  0  0  0  0  0
    0.5280   -2.5426   -1.1707 H   0  0  0  0  0  0  0  0  0  0  0  0
    2.6151   -0.5206   -0.7163 H   0  0  0  0  0  0  0  0  0  0  0  0
    1.7245   -1.9279   -3.2835 H   0  0  0  0  0  0  0  0  0  0  0  0
    2.0932   -3.5736   -2.7822 H   0  0  0  0  0  0  0  0  0  0  0  0
    3.2813   -2.2814   -2.5017 H   0  0  0  0  0  0  0  0  0  0  0  0
    4.1230   -4.7280   -0.9837 H   0  0  0  0  0  0  0  0  0  0  0  0
    0.2692   -4.6748    0.7088 H   0  0  0  0  0  0  0  0  0  0  0  0
    1.1249   -0.4472    1.0988 H   0  0  0  0  0  0  0  0  0  0  0  0
   -0.2551   -0.4770   -0.0270 H   0  0  0  0  0  0  0  0  0  0  0  0
    0.1504   -7.0759    0.5185 H   0  0  0  0  0  0  0  0  0  0  0  0
    0.2642    1.8415    0.7778 H   0  0  0  0  0  0  0  0  0  0  0  0
    0.4492    1.6984   -0.9834 H   0  0  0  0  0  0  0  0  0  0  0  0
    1.8820    1.7224    0.0678 H   0  0  0  0  0  0  0  0  0  0  0  0
    1.9809   -8.3176   -0.4217 H   0  0  0  0  0  0  0  0  0  0  0  0
  2  1  1  0  0  0  0 
  1  3  1  0  0  0  0 
  2  4  1  0  0  0  0 
  2  5  1  0  0  0  0 
  3  6  2  0  0  0  0 
  3  7  1  0  0  0  0 
  4  8  1  0  0  0  0 
  6  9  1  0  0  0  0 
  7 10  2  0  0  0  0 
  8 11  1  0  0  0  0 
  9 12  1  0  0  0  0 
  9 13  2  0  0  0  0 
 10 13  1  0  0  0  0 
 12 14  1  0  0  0  0 
 12 15  1  0  0  0  0 
 12 16  1  0  0  0  0 
  1 17  1  0  0  0  0 
  1 18  1  0  0  0  0 
  2 19  1  0  0  0  0 
  4 20  1  0  0  0  0 
  5 21  1  0  0  0  0 
  5 22  1  0  0  0  0 
  5 23  1  0  0  0  0 
  6 24  1  0  0  0  0 
  7 25  1  0  0  0  0 
  8 26  1  0  0  0  0 
  8 27  1  0  0  0  0 
 10 28  1  0  0  0  0 
 11 29  1  0  0  0  0 
 11 30  1  0  0  0  0 
 11 31  1  0  0  0  0 
 13 32  1  0  0  0  0 
M  END
> <cdk:Title>
dexfenfluramine

> <Conformer>
1

> <SuperDrugID>
SD000736

$$$$
