bisoxatin
  CDK     0628171801

 40 43  0  0  0  0  0  0  0  0999 V2000
    4.2143    2.2901   -0.2629 O   0  0  0  0  0  0  0  0  0  0  0  0
    3.4577    3.2649   -0.4876 C   0  0  0  0  0  0  0  0  0  0  0  0
    2.4802    3.7533    0.5439 C   0  0  1  0  0  0  0  0  0  0  0  0
    3.5425    3.8505   -1.7059 N   0  0  0  0  0  0  0  0  0  0  0  0
    1.8356    5.0128    0.1768 O   0  0  0  0  0  0  0  0  0  0  0  0
    1.3053    2.8290    0.7835 C   0  0  0  0  0  0  0  0  0  0  0  0
    3.3049    4.0358    1.7779 C   0  0  0  0  0  0  0  0  0  0  0  0
    2.7667    4.9011   -2.0657 C   0  0  0  0  0  0  0  0  0  0  0  0
    1.8880    5.4704   -1.1168 C   0  0  0  0  0  0  0  0  0  0  0  0
    0.3175    3.2146    1.7294 C   0  0  0  0  0  0  0  0  0  0  0  0
    1.1087    1.5899    0.1158 C   0  0  0  0  0  0  0  0  0  0  0  0
    4.0514    5.2404    1.8703 C   0  0  0  0  0  0  0  0  0  0  0  0
    3.4300    3.1104    2.8492 C   0  0  0  0  0  0  0  0  0  0  0  0
    2.8348    5.4317   -3.3698 C   0  0  0  0  0  0  0  0  0  0  0  0
    1.0749    6.5603   -1.4824 C   0  0  0  0  0  0  0  0  0  0  0  0
   -0.7864    2.3954    2.0213 C   0  0  0  0  0  0  0  0  0  0  0  0
    0.0099    0.7607    0.4133 C   0  0  0  0  0  0  0  0  0  0  0  0
    4.8591    5.5222    2.9861 C   0  0  0  0  0  0  0  0  0  0  0  0
    4.2378    3.3891    3.9681 C   0  0  0  0  0  0  0  0  0  0  0  0
    2.0150    6.5178   -3.7308 C   0  0  0  0  0  0  0  0  0  0  0  0
    1.1312    7.0775   -2.7895 C   0  0  0  0  0  0  0  0  0  0  0  0
   -0.9381    1.1606    1.3726 C   0  0  0  0  0  0  0  0  0  0  0  0
    4.9507    4.5987    4.0420 C   0  0  0  0  0  0  0  0  0  0  0  0
   -1.9974    0.3771    1.6873 O   0  0  0  0  0  0  0  0  0  0  0  0
    5.7245    4.8623    5.1244 O   0  0  0  0  0  0  0  0  0  0  0  0
    4.1767    3.4949   -2.3491 H   0  0  0  0  0  0  0  0  0  0  0  0
    0.3969    4.1069    2.2239 H   0  0  0  0  0  0  0  0  0  0  0  0
    1.7623    1.2647   -0.5983 H   0  0  0  0  0  0  0  0  0  0  0  0
    4.0206    5.9293    1.1149 H   0  0  0  0  0  0  0  0  0  0  0  0
    2.9407    2.2134    2.8223 H   0  0  0  0  0  0  0  0  0  0  0  0
    3.4794    5.0340   -4.0577 H   0  0  0  0  0  0  0  0  0  0  0  0
    0.4450    6.9816   -0.7957 H   0  0  0  0  0  0  0  0  0  0  0  0
   -1.4759    2.6989    2.7130 H   0  0  0  0  0  0  0  0  0  0  0  0
   -0.0966   -0.1338   -0.0713 H   0  0  0  0  0  0  0  0  0  0  0  0
    5.3840    6.3997    3.0245 H   0  0  0  0  0  0  0  0  0  0  0  0
    4.3119    2.7066    4.7265 H   0  0  0  0  0  0  0  0  0  0  0  0
    2.0630    6.9015   -4.6766 H   0  0  0  0  0  0  0  0  0  0  0  0
    0.5323    7.8629   -3.0537 H   0  0  0  0  0  0  0  0  0  0  0  0
   -1.7648   -0.5214    1.3754 H   0  0  0  0  0  0  0  0  0  0  0  0
    6.1425    5.7304    4.9448 H   0  0  0  0  0  0  0  0  0  0  0  0
  1  2  2  0  0  0  0 
  2  3  1  0  0  0  0 
  2  4  1  0  0  0  0 
  3  5  1  0  0  0  0 
  3  6  1  0  0  0  0 
  3  7  1  0  0  0  0 
  4  8  1  0  0  0  0 
  5  9  1  0  0  0  0 
  6 10  2  0  0  0  0 
  6 11  1  0  0  0  0 
  7 12  2  0  0  0  0 
  7 13  1  0  0  0  0 
  8  9  2  0  0  0  0 
  8 14  1  0  0  0  0 
  9 15  1  0  0  0  0 
 10 16  1  0  0  0  0 
 11 17  2  0  0  0  0 
 12 18  1  0  0  0  0 
 13 19  2  0  0  0  0 
 14 20  2  0  0  0  0 
 15 21  2  0  0  0  0 
 16 22  2  0  0  0  0 
 17 22  1  0  0  0  0 
 18 23  2  0  0  0  0 
 19 23  1  0  0  0  0 
 20 21  1  0  0  0  0 
 22 24  1  0  0  0  0 
 23 25  1  0  0  0  0 
  4 26  1  0  0  0  0 
 10 27  1  0  0  0  0 
 11 28  1  0  0  0  0 
 12 29  1  0  0  0  0 
 13 30  1  0  0  0  0 
 14 31  1  0  0  0  0 
 15 32  1  0  0  0  0 
 16 33  1  0  0  0  0 
 17 34  1  0  0  0  0 
 18 35  1  0  0  0  0 
 19 36  1  0  0  0  0 
 20 37  1  0  0  0  0 
 21 38  1  0  0  0  0 
 24 39  1  0  0  0  0 
 25 40  1  0  0  0  0 
M  END
> <cdk:Title>
bisoxatin

> <Conformer>
1

> <SuperDrugID>
SD003515

$$$$
