lycopene
  CDK     0628171802

 96 95  0  0  0  0  0  0  0  0999 V2000
   20.6169   -1.4416  -21.5654 C   0  0  0  0  0  0  0  0  0  0  0  0
   20.4982   -1.9639  -20.3211 C   0  0  0  0  0  0  0  0  0  0  0  0
   19.6087   -1.6292  -22.4653 C   0  0  0  0  0  0  0  0  0  0  0  0
   21.7892   -0.6787  -21.9966 C   0  0  0  0  0  0  0  0  0  0  0  0
   21.4350   -1.8774  -19.3374 C   0  0  0  0  0  0  0  0  0  0  0  0
   19.3053   -2.8387  -22.9743 C   0  0  0  0  0  0  0  0  0  0  0  0
   21.7394   -2.9225  -18.5460 C   0  0  0  0  0  0  0  0  0  0  0  0
   18.2767   -3.0431  -23.8367 C   0  0  0  0  0  0  0  0  0  0  0  0
   22.6869   -2.8822  -17.5649 C   0  0  0  0  0  0  0  0  0  0  0  0
   17.4465   -4.1136  -23.8529 C   0  0  0  0  0  0  0  0  0  0  0  0
   22.3013   -2.9317  -16.2650 C   0  0  0  0  0  0  0  0  0  0  0  0
   24.0920   -2.8298  -17.9738 C   0  0  0  0  0  0  0  0  0  0  0  0
   16.3694   -4.1535  -24.8523 C   0  0  2  0  0  0  0  0  0  0  0  0
   17.5079   -5.2282  -22.9015 C   0  0  0  0  0  0  0  0  0  0  0  0
   23.1331   -2.9768  -15.1721 C   0  0  0  0  0  0  0  0  0  0  0  0
   15.2224   -3.1624  -24.5035 C   0  0  1  0  0  0  0  0  0  0  0  0
   22.7011   -2.8897  -13.8986 C   0  0  0  0  0  0  0  0  0  0  0  0
   14.0944   -3.3045  -25.4138 C   0  0  0  0  0  0  0  0  0  0  0  0
   23.5151   -2.9959  -12.8008 C   0  0  0  0  0  0  0  0  0  0  0  0
   12.9905   -4.0659  -25.2234 C   0  0  0  0  0  0  0  0  0  0  0  0
   23.1327   -3.4068  -11.5659 C   0  0  0  0  0  0  0  0  0  0  0  0
   11.9437   -4.1051  -26.2453 C   0  0  0  0  0  0  0  0  0  0  0  0
   12.7860   -4.8692  -24.0148 C   0  0  0  0  0  0  0  0  0  0  0  0
   24.0590   -3.4500  -10.5553 C   0  0  0  0  0  0  0  0  0  0  0  0
   21.7620   -3.8434  -11.2748 C   0  0  0  0  0  0  0  0  0  0  0  0
   23.9042   -2.8060   -9.3839 C   0  0  0  0  0  0  0  0  0  0  0  0
   24.7746   -2.9209   -8.3480 C   0  0  0  0  0  0  0  0  0  0  0  0
   24.4571   -3.4542   -7.1431 C   0  0  0  0  0  0  0  0  0  0  0  0
   25.4115   -3.5072   -6.1596 C   0  0  0  0  0  0  0  0  0  0  0  0
   23.1200   -4.0005   -6.8772 C   0  0  0  0  0  0  0  0  0  0  0  0
   25.2244   -3.0208   -4.9168 C   0  0  0  0  0  0  0  0  0  0  0  0
   26.1478   -3.1086   -3.9175 C   0  0  0  0  0  0  0  0  0  0  0  0
   25.8809   -3.4222   -2.6258 C   0  0  0  0  0  0  0  0  0  0  0  0
   26.9690   -3.4338   -1.6325 C   0  0  2  0  0  0  0  0  0  0  0  0
   24.5241   -3.7585   -2.1775 C   0  0  0  0  0  0  0  0  0  0  0  0
   27.5612   -4.8572   -1.4101 C   0  0  2  0  0  0  0  0  0  0  0  0
   28.6281   -4.9216   -0.4129 C   0  0  0  0  0  0  0  0  0  0  0  0
   29.3493   -6.0241   -0.0951 C   0  0  0  0  0  0  0  0  0  0  0  0
   30.3998   -5.9212    0.9211 C   0  0  0  0  0  0  0  0  0  0  0  0
   29.1250   -7.3272   -0.7259 C   0  0  0  0  0  0  0  0  0  0  0  0
   19.6672   -2.4692  -20.0921 H   0  0  0  0  0  0  0  0  0  0  0  0
   19.0848   -0.8264  -22.7404 H   0  0  0  0  0  0  0  0  0  0  0  0
   22.6963   -1.2743  -21.8649 H   0  0  0  0  0  0  0  0  0  0  0  0
   21.7405   -0.3859  -23.0480 H   0  0  0  0  0  0  0  0  0  0  0  0
   21.8709    0.2323  -21.4002 H   0  0  0  0  0  0  0  0  0  0  0  0
   21.9128   -1.0119  -19.2098 H   0  0  0  0  0  0  0  0  0  0  0  0
   19.8536   -3.6225  -22.7022 H   0  0  0  0  0  0  0  0  0  0  0  0
   21.2702   -3.7917  -18.6776 H   0  0  0  0  0  0  0  0  0  0  0  0
   18.1220   -2.3238  -24.5103 H   0  0  0  0  0  0  0  0  0  0  0  0
   21.3206   -2.9523  -16.0779 H   0  0  0  0  0  0  0  0  0  0  0  0
   24.6163   -3.7233  -17.6235 H   0  0  0  0  0  0  0  0  0  0  0  0
   24.2221   -2.7758  -19.0595 H   0  0  0  0  0  0  0  0  0  0  0  0
   24.5681   -1.9471  -17.5408 H   0  0  0  0  0  0  0  0  0  0  0  0
   15.9515   -5.1638  -24.9305 H   0  0  0  0  0  0  0  0  0  0  0  0
   16.7707   -3.9142  -25.8415 H   0  0  0  0  0  0  0  0  0  0  0  0
   16.5263   -5.3741  -22.4434 H   0  0  0  0  0  0  0  0  0  0  0  0
   18.2154   -5.0924  -22.0863 H   0  0  0  0  0  0  0  0  0  0  0  0
   17.7828   -6.1402  -23.4357 H   0  0  0  0  0  0  0  0  0  0  0  0
   24.1083   -3.1052  -15.3206 H   0  0  0  0  0  0  0  0  0  0  0  0
   14.9125   -3.3031  -23.4655 H   0  0  0  0  0  0  0  0  0  0  0  0
   15.5917   -2.1348  -24.5802 H   0  0  0  0  0  0  0  0  0  0  0  0
   21.7287   -2.7460  -13.7482 H   0  0  0  0  0  0  0  0  0  0  0  0
   14.1750   -2.7868  -26.2616 H   0  0  0  0  0  0  0  0  0  0  0  0
   24.4730   -2.7491  -12.9327 H   0  0  0  0  0  0  0  0  0  0  0  0
   11.8310   -5.1249  -26.6179 H   0  0  0  0  0  0  0  0  0  0  0  0
   12.1537   -3.4593  -27.1016 H   0  0  0  0  0  0  0  0  0  0  0  0
   10.9936   -3.7852  -25.8137 H   0  0  0  0  0  0  0  0  0  0  0  0
   11.8841   -5.4849  -24.0670 H   0  0  0  0  0  0  0  0  0  0  0  0
   12.6854   -4.2167  -23.1454 H   0  0  0  0  0  0  0  0  0  0  0  0
   13.6283   -5.5454  -23.8588 H   0  0  0  0  0  0  0  0  0  0  0  0
   24.8747   -4.0035  -10.7021 H   0  0  0  0  0  0  0  0  0  0  0  0
   21.4673   -4.6359  -11.9655 H   0  0  0  0  0  0  0  0  0  0  0  0
   21.6490   -4.2391  -10.2616 H   0  0  0  0  0  0  0  0  0  0  0  0
   21.0707   -3.0058  -11.3841 H   0  0  0  0  0  0  0  0  0  0  0  0
   23.0977   -2.2400   -9.2418 H   0  0  0  0  0  0  0  0  0  0  0  0
   25.7016   -2.5893   -8.5031 H   0  0  0  0  0  0  0  0  0  0  0  0
   26.2833   -3.9317   -6.3881 H   0  0  0  0  0  0  0  0  0  0  0  0
   22.3837   -3.1942   -6.8683 H   0  0  0  0  0  0  0  0  0  0  0  0
   23.0591   -4.5242   -5.9192 H   0  0  0  0  0  0  0  0  0  0  0  0
   22.8452   -4.7162   -7.6556 H   0  0  0  0  0  0  0  0  0  0  0  0
   24.3617   -2.5724   -4.7057 H   0  0  0  0  0  0  0  0  0  0  0  0
   27.0937   -2.9247   -4.1723 H   0  0  0  0  0  0  0  0  0  0  0  0
   26.5971   -3.0443   -0.6794 H   0  0  0  0  0  0  0  0  0  0  0  0
   27.7761   -2.7581   -1.9340 H   0  0  0  0  0  0  0  0  0  0  0  0
   24.1215   -4.5785   -2.7762 H   0  0  0  0  0  0  0  0  0  0  0  0
   24.4963   -4.0737   -1.1325 H   0  0  0  0  0  0  0  0  0  0  0  0
   23.8684   -2.8911   -2.2754 H   0  0  0  0  0  0  0  0  0  0  0  0
   27.9542   -5.2170   -2.3650 H   0  0  0  0  0  0  0  0  0  0  0  0
   26.7534   -5.5218   -1.0931 H   0  0  0  0  0  0  0  0  0  0  0  0
   28.8308   -4.0770    0.0745 H   0  0  0  0  0  0  0  0  0  0  0  0
   29.9193   -6.1361    1.9247 H   0  0  0  0  0  0  0  0  0  0  0  0
   30.9566   -4.9410    0.7928 H   0  0  0  0  0  0  0  0  0  0  0  0
   31.1590   -6.6942    0.7737 H   0  0  0  0  0  0  0  0  0  0  0  0
   29.6301   -7.3597   -1.6925 H   0  0  0  0  0  0  0  0  0  0  0  0
   28.0629   -7.5264   -0.8717 H   0  0  0  0  0  0  0  0  0  0  0  0
   29.5146   -8.1461   -0.1158 H   0  0  0  0  0  0  0  0  0  0  0  0
  1  2  2  0  0  0  0 
  1  3  1  0  0  0  0 
  1  4  1  0  0  0  0 
  2  5  1  0  0  0  0 
  3  6  2  0  0  0  0 
  5  7  2  0  0  0  0 
  6  8  1  0  0  0  0 
  7  9  1  0  0  0  0 
  8 10  2  0  0  0  0 
  9 11  2  0  0  0  0 
  9 12  1  0  0  0  0 
 10 13  1  0  0  0  0 
 10 14  1  0  0  0  0 
 11 15  1  0  0  0  0 
 13 16  1  0  0  0  0 
 15 17  2  0  0  0  0 
 16 18  1  0  0  0  0 
 17 19  1  0  0  0  0 
 18 20  2  0  0  0  0 
 19 21  2  0  0  0  0 
 20 22  1  0  0  0  0 
 20 23  1  0  0  0  0 
 21 24  1  0  0  0  0 
 21 25  1  0  0  0  0 
 24 26  2  0  0  0  0 
 26 27  1  0  0  0  0 
 27 28  2  0  0  0  0 
 28 29  1  0  0  0  0 
 28 30  1  0  0  0  0 
 29 31  2  0  0  0  0 
 31 32  1  0  0  0  0 
 32 33  2  0  0  0  0 
 33 34  1  0  0  0  0 
 33 35  1  0  0  0  0 
 34 36  1  0  0  0  0 
 36 37  1  0  0  0  0 
 37 38  2  0  0  0  0 
 38 39  1  0  0  0  0 
 38 40  1  0  0  0  0 
  2 41  1  0  0  0  0 
  3 42  1  0  0  0  0 
  4 43  1  0  0  0  0 
  4 44  1  0  0  0  0 
  4 45  1  0  0  0  0 
  5 46  1  0  0  0  0 
  6 47  1  0  0  0  0 
  7 48  1  0  0  0  0 
  8 49  1  0  0  0  0 
 11 50  1  0  0  0  0 
 12 51  1  0  0  0  0 
 12 52  1  0  0  0  0 
 12 53  1  0  0  0  0 
 13 54  1  0  0  0  0 
 13 55  1  0  0  0  0 
 14 56  1  0  0  0  0 
 14 57  1  0  0  0  0 
 14 58  1  0  0  0  0 
 15 59  1  0  0  0  0 
 16 60  1  0  0  0  0 
 16 61  1  0  0  0  0 
 17 62  1  0  0  0  0 
 18 63  1  0  0  0  0 
 19 64  1  0  0  0  0 
 22 65  1  0  0  0  0 
 22 66  1  0  0  0  0 
 22 67  1  0  0  0  0 
 23 68  1  0  0  0  0 
 23 69  1  0  0  0  0 
 23 70  1  0  0  0  0 
 24 71  1  0  0  0  0 
 25 72  1  0  0  0  0 
 25 73  1  0  0  0  0 
 25 74  1  0  0  0  0 
 26 75  1  0  0  0  0 
 27 76  1  0  0  0  0 
 29 77  1  0  0  0  0 
 30 78  1  0  0  0  0 
 30 79  1  0  0  0  0 
 30 80  1  0  0  0  0 
 31 81  1  0  0  0  0 
 32 82  1  0  0  0  0 
 34 83  1  0  0  0  0 
 34 84  1  0  0  0  0 
 35 85  1  0  0  0  0 
 35 86  1  0  0  0  0 
 35 87  1  0  0  0  0 
 36 88  1  0  0  0  0 
 36 89  1  0  0  0  0 
 37 90  1  0  0  0  0 
 39 91  1  0  0  0  0 
 39 92  1  0  0  0  0 
 39 93  1  0  0  0  0 
 40 94  1  0  0  0  0 
 40 95  1  0  0  0  0 
 40 96  1  0  0  0  0 
M  END
> <cdk:Title>
lycopene

> <Conformer>
1

> <SuperDrugID>
SD003661

$$$$
