alprazolam
  CDK     0628171801

 35 38  0  0  0  0  0  0  0  0999 V2000
    8.7957    2.9830    0.1371 C   0  0  0  0  0  0  0  0  0  0  0  0
    7.9527    1.7764    0.2809 C   0  0  0  0  0  0  0  0  0  0  0  0
    6.5942    1.6111    0.2477 N   0  0  0  0  0  0  0  0  0  0  0  0
    8.5622    0.5899    0.4140 N   0  0  0  0  0  0  0  0  0  0  0  0
    5.5896    2.5807    0.1397 C   0  0  0  0  0  0  0  0  0  0  0  0
    6.4702    0.2642    0.2730 C   0  0  0  0  0  0  0  0  0  0  0  0
    7.6665   -0.3242    0.4130 N   0  0  0  0  0  0  0  0  0  0  0  0
    4.2762    2.3617   -0.3959 C   0  0  0  0  0  0  0  0  0  0  0  0
    5.8687    3.9020    0.5850 C   0  0  0  0  0  0  0  0  0  0  0  0
    5.2993   -0.6028    0.1533 C   0  0  2  0  0  0  0  0  0  0  0  0
    3.6056    1.1161   -0.4034 C   0  0  0  0  0  0  0  0  0  0  0  0
    3.5581    3.5024   -0.8750 C   0  0  0  0  0  0  0  0  0  0  0  0
    5.0816    5.0054    0.2289 C   0  0  0  0  0  0  0  0  0  0  0  0
    4.0812   -0.0497   -0.1565 N   0  0  0  0  0  0  0  0  0  0  0  0
    2.2220    1.0108   -0.5483 C   0  0  0  0  0  0  0  0  0  0  0  0
    3.9513    4.8134   -0.5700 C   0  0  0  0  0  0  0  0  0  0  0  0
    1.6424    0.3982   -1.6847 C   0  0  0  0  0  0  0  0  0  0  0  0
    1.3689    1.5209    0.4622 C   0  0  0  0  0  0  0  0  0  0  0  0
    3.0378    6.1388   -1.0990 Cl  0  0  0  0  0  0  0  0  0  0  0  0
    0.2447    0.2816   -1.7961 C   0  0  0  0  0  0  0  0  0  0  0  0
   -0.0269    1.4072    0.3461 C   0  0  0  0  0  0  0  0  0  0  0  0
   -0.5901    0.7854   -0.7812 C   0  0  0  0  0  0  0  0  0  0  0  0
    9.8185    2.7064   -0.1264 H   0  0  0  0  0  0  0  0  0  0  0  0
    8.4099    3.6228   -0.6573 H   0  0  0  0  0  0  0  0  0  0  0  0
    8.8363    3.5345    1.0764 H   0  0  0  0  0  0  0  0  0  0  0  0
    6.6603    4.0912    1.1922 H   0  0  0  0  0  0  0  0  0  0  0  0
    5.1814   -1.1383    1.0964 H   0  0  0  0  0  0  0  0  0  0  0  0
    5.5019   -1.3409   -0.6268 H   0  0  0  0  0  0  0  0  0  0  0  0
    2.7045    3.3920   -1.4280 H   0  0  0  0  0  0  0  0  0  0  0  0
    5.3401    5.9430    0.5461 H   0  0  0  0  0  0  0  0  0  0  0  0
    2.2334    0.0360   -2.4374 H   0  0  0  0  0  0  0  0  0  0  0  0
    1.7558    1.9779    1.2919 H   0  0  0  0  0  0  0  0  0  0  0  0
   -0.1644   -0.1660   -2.6179 H   0  0  0  0  0  0  0  0  0  0  0  0
   -0.6324    1.7761    1.0830 H   0  0  0  0  0  0  0  0  0  0  0  0
   -1.6058    0.7054   -0.8645 H   0  0  0  0  0  0  0  0  0  0  0  0
  1  2  1  0  0  0  0 
  2  3  1  0  0  0  0 
  2  4  2  0  0  0  0 
  3  5  1  0  0  0  0 
  3  6  1  0  0  0  0 
  4  7  1  0  0  0  0 
  5  8  2  0  0  0  0 
  5  9  1  0  0  0  0 
  6  7  2  0  0  0  0 
  6 10  1  0  0  0  0 
  8 11  1  0  0  0  0 
  8 12  1  0  0  0  0 
  9 13  2  0  0  0  0 
 10 14  1  0  0  0  0 
 11 14  2  0  0  0  0 
 11 15  1  0  0  0  0 
 12 16  2  0  0  0  0 
 13 16  1  0  0  0  0 
 15 17  2  0  0  0  0 
 15 18  1  0  0  0  0 
 16 19  1  0  0  0  0 
 17 20  1  0  0  0  0 
 18 21  2  0  0  0  0 
 20 22  2  0  0  0  0 
 21 22  1  0  0  0  0 
  1 23  1  0  0  0  0 
  1 24  1  0  0  0  0 
  1 25  1  0  0  0  0 
  9 26  1  0  0  0  0 
 10 27  1  0  0  0  0 
 10 28  1  0  0  0  0 
 12 29  1  0  0  0  0 
 13 30  1  0  0  0  0 
 17 31  1  0  0  0  0 
 18 32  1  0  0  0  0 
 20 33  1  0  0  0  0 
 21 34  1  0  0  0  0 
 22 35  1  0  0  0  0 
M  END
> <cdk:Title>
alprazolam

> <Conformer>
1

> <SuperDrugID>
SD000105

$$$$
