primidone
  CDK     0628171801

 30 31  0  0  0  0  0  0  0  0999 V2000
   -1.8389   -0.8115    0.9701 C   0  0  2  0  0  0  0  0  0  0  0  0
   -0.9374   -1.3409    2.1176 C   0  0  0  0  0  0  0  0  0  0  0  0
   -1.6818   -1.5317   -0.4285 C   0  0  1  0  0  0  0  0  0  0  0  0
   -0.2160   -1.5438   -0.7605 C   0  0  0  0  0  0  0  0  0  0  0  0
   -2.2185   -2.9246   -0.2934 C   0  0  0  0  0  0  0  0  0  0  0  0
   -2.4563   -0.8991   -1.5743 C   0  0  0  0  0  0  0  0  0  0  0  0
    0.4104   -0.4714   -0.9297 O   0  0  0  0  0  0  0  0  0  0  0  0
    0.4973   -2.6910   -0.8948 N   0  0  0  0  0  0  0  0  0  0  0  0
   -3.4241   -3.1226   -0.0125 O   0  0  0  0  0  0  0  0  0  0  0  0
   -1.4532   -4.0292   -0.4507 N   0  0  0  0  0  0  0  0  0  0  0  0
   -3.5456   -0.0083   -1.3725 C   0  0  0  0  0  0  0  0  0  0  0  0
   -2.1443   -1.2295   -2.9234 C   0  0  0  0  0  0  0  0  0  0  0  0
   -0.0652   -3.9938   -0.7655 C   0  0  1  0  0  0  0  0  0  0  0  0
   -4.2663    0.5353   -2.4520 C   0  0  0  0  0  0  0  0  0  0  0  0
   -2.8533   -0.6795   -4.0064 C   0  0  0  0  0  0  0  0  0  0  0  0
   -3.9209    0.2001   -3.7701 C   0  0  0  0  0  0  0  0  0  0  0  0
   -1.6321    0.2563    0.8522 H   0  0  0  0  0  0  0  0  0  0  0  0
   -2.8712   -0.8995    1.3223 H   0  0  0  0  0  0  0  0  0  0  0  0
   -1.1971   -0.8409    3.0524 H   0  0  0  0  0  0  0  0  0  0  0  0
    0.1143   -1.1400    1.9091 H   0  0  0  0  0  0  0  0  0  0  0  0
   -1.0699   -2.4155    2.2502 H   0  0  0  0  0  0  0  0  0  0  0  0
    1.4445   -2.6225   -1.0936 H   0  0  0  0  0  0  0  0  0  0  0  0
   -1.8763   -4.8960   -0.3412 H   0  0  0  0  0  0  0  0  0  0  0  0
   -3.8489    0.2560   -0.4342 H   0  0  0  0  0  0  0  0  0  0  0  0
   -1.3861   -1.8818   -3.1376 H   0  0  0  0  0  0  0  0  0  0  0  0
    0.0818   -4.5216   -1.7084 H   0  0  0  0  0  0  0  0  0  0  0  0
    0.4762   -4.5259    0.0179 H   0  0  0  0  0  0  0  0  0  0  0  0
   -5.0465    1.1736   -2.2779 H   0  0  0  0  0  0  0  0  0  0  0  0
   -2.5922   -0.9233   -4.9642 H   0  0  0  0  0  0  0  0  0  0  0  0
   -4.4448    0.5907   -4.5555 H   0  0  0  0  0  0  0  0  0  0  0  0
  1  2  1  0  0  0  0 
  1  3  1  0  0  0  0 
  3  4  1  0  0  0  0 
  3  5  1  0  0  0  0 
  3  6  1  0  0  0  0 
  4  7  2  0  0  0  0 
  4  8  1  0  0  0  0 
  5  9  2  0  0  0  0 
  5 10  1  0  0  0  0 
  6 11  2  0  0  0  0 
  6 12  1  0  0  0  0 
  8 13  1  0  0  0  0 
 10 13  1  0  0  0  0 
 11 14  1  0  0  0  0 
 12 15  2  0  0  0  0 
 14 16  2  0  0  0  0 
 15 16  1  0  0  0  0 
 17  1  1  0  0  0  0 
 18  1  1  0  0  0  0 
 19  2  1  0  0  0  0 
 20  2  1  0  0  0  0 
 21  2  1  0  0  0  0 
 22  8  1  0  0  0  0 
 23 10  1  0  0  0  0 
 24 11  1  0  0  0  0 
 25 12  1  0  0  0  0 
 26 13  1  0  0  0  0 
 27 13  1  0  0  0  0 
 28 14  1  0  0  0  0 
 29 15  1  0  0  0  0 
 30 16  1  0  0  0  0 
M  END
> <cdk:Title>
primidone

> <Conformer>
1

> <SuperDrugID>
SD002033

$$$$
