moperone
  CDK     0628171801

 52 54  0  0  0  0  0  0  0  0999 V2000
   -1.7182   -5.3165    7.9339 O   0  0  0  0  0  0  0  0  0  0  0  0
   -1.9250   -4.5025    6.7746 C   0  0  2  0  0  0  0  0  0  0  0  0
   -2.5321   -5.4334    5.7356 C   0  0  0  0  0  0  0  0  0  0  0  0
   -0.5439   -3.8625    6.3808 C   0  0  2  0  0  0  0  0  0  0  0  0
   -2.8223   -3.2999    7.2381 C   0  0  1  0  0  0  0  0  0  0  0  0
   -3.9183   -5.4508    5.4185 C   0  0  0  0  0  0  0  0  0  0  0  0
   -1.7292   -6.3965    5.0682 C   0  0  0  0  0  0  0  0  0  0  0  0
   -0.7041   -2.7688    5.2889 C   0  0  1  0  0  0  0  0  0  0  0  0
   -2.9686   -2.2198    6.1242 C   0  0  1  0  0  0  0  0  0  0  0  0
   -4.4630   -6.3549    4.4890 C   0  0  0  0  0  0  0  0  0  0  0  0
   -2.2626   -7.2886    4.1200 C   0  0  0  0  0  0  0  0  0  0  0  0
   -1.6403   -1.6674    5.6982 N   0  0  1  0  0  0  0  0  0  0  0  0
   -3.6411   -7.2889    3.8268 C   0  0  0  0  0  0  0  0  0  0  0  0
   -1.1026   -0.6058    6.6204 C   0  0  2  0  0  0  0  0  0  0  0  0
   -4.1909   -8.2612    2.8526 C   0  0  0  0  0  0  0  0  0  0  0  0
    0.0745    0.2551    6.0829 C   0  0  1  0  0  0  0  0  0  0  0  0
   -0.2698    1.0410    4.7900 C   0  0  2  0  0  0  0  0  0  0  0  0
    0.9245    1.7232    4.2192 C   0  0  0  0  0  0  0  0  0  0  0  0
    1.5328    1.0671    3.3389 O   0  0  0  0  0  0  0  0  0  0  0  0
    1.4112    3.0208    4.5969 C   0  0  0  0  0  0  0  0  0  0  0  0
    0.8056    3.8037    5.6161 C   0  0  0  0  0  0  0  0  0  0  0  0
    2.5400    3.5784    3.9379 C   0  0  0  0  0  0  0  0  0  0  0  0
    1.2871    5.0858    5.9417 C   0  0  0  0  0  0  0  0  0  0  0  0
    3.0350    4.8518    4.2718 C   0  0  0  0  0  0  0  0  0  0  0  0
    2.4040    5.6127    5.2702 C   0  0  0  0  0  0  0  0  0  0  0  0
    2.8536    6.8006    5.5703 F   0  0  0  0  0  0  0  0  0  0  0  0
   -1.1342   -6.0522    7.6497 H   0  0  0  0  0  0  0  0  0  0  0  0
    0.1719   -4.6090    6.0387 H   0  0  0  0  0  0  0  0  0  0  0  0
   -0.0903   -3.4014    7.2640 H   0  0  0  0  0  0  0  0  0  0  0  0
   -3.8049   -3.6384    7.5726 H   0  0  0  0  0  0  0  0  0  0  0  0
   -2.3653   -2.8230    8.1113 H   0  0  0  0  0  0  0  0  0  0  0  0
   -4.5755   -4.8149    5.8644 H   0  0  0  0  0  0  0  0  0  0  0  0
   -0.7323   -6.4763    5.2632 H   0  0  0  0  0  0  0  0  0  0  0  0
    0.2774   -2.3784    5.0168 H   0  0  0  0  0  0  0  0  0  0  0  0
   -1.0998   -3.2390    4.3847 H   0  0  0  0  0  0  0  0  0  0  0  0
   -3.4562   -2.6491    5.2469 H   0  0  0  0  0  0  0  0  0  0  0  0
   -3.6339   -1.4267    6.4756 H   0  0  0  0  0  0  0  0  0  0  0  0
   -5.4680   -6.3264    4.3014 H   0  0  0  0  0  0  0  0  0  0  0  0
   -1.6373   -7.9472    3.6478 H   0  0  0  0  0  0  0  0  0  0  0  0
   -0.7923   -1.0563    7.5643 H   0  0  0  0  0  0  0  0  0  0  0  0
   -1.9079    0.0943    6.8578 H   0  0  0  0  0  0  0  0  0  0  0  0
   -3.9415   -9.2773    3.1645 H   0  0  0  0  0  0  0  0  0  0  0  0
   -3.7582   -8.0783    1.8679 H   0  0  0  0  0  0  0  0  0  0  0  0
   -5.2770   -8.1912    2.7693 H   0  0  0  0  0  0  0  0  0  0  0  0
    0.3574    0.9679    6.8633 H   0  0  0  0  0  0  0  0  0  0  0  0
    0.9417   -0.3847    5.9096 H   0  0  0  0  0  0  0  0  0  0  0  0
   -1.0653    1.7626    4.9865 H   0  0  0  0  0  0  0  0  0  0  0  0
   -0.6699    0.3393    4.0516 H   0  0  0  0  0  0  0  0  0  0  0  0
    0.0020    3.4568    6.1406 H   0  0  0  0  0  0  0  0  0  0  0  0
    3.0218    3.0620    3.1969 H   0  0  0  0  0  0  0  0  0  0  0  0
    0.8219    5.6360    6.6685 H   0  0  0  0  0  0  0  0  0  0  0  0
    3.8542    5.2228    3.7836 H   0  0  0  0  0  0  0  0  0  0  0  0
  1  2  1  0  0  0  0 
  2  3  1  0  0  0  0 
  2  4  1  0  0  0  0 
  2  5  1  0  0  0  0 
  3  6  2  0  0  0  0 
  3  7  1  0  0  0  0 
  4  8  1  0  0  0  0 
  5  9  1  0  0  0  0 
  6 10  1  0  0  0  0 
  7 11  2  0  0  0  0 
  8 12  1  0  0  0  0 
  9 12  1  0  0  0  0 
 10 13  2  0  0  0  0 
 11 13  1  0  0  0  0 
 12 14  1  0  0  0  0 
 13 15  1  0  0  0  0 
 14 16  1  0  0  0  0 
 16 17  1  0  0  0  0 
 17 18  1  0  0  0  0 
 18 19  2  0  0  0  0 
 18 20  1  0  0  0  0 
 20 21  2  0  0  0  0 
 20 22  1  0  0  0  0 
 21 23  1  0  0  0  0 
 22 24  2  0  0  0  0 
 23 25  2  0  0  0  0 
 24 25  1  0  0  0  0 
 25 26  1  0  0  0  0 
 27  1  1  0  0  0  0 
 28  4  1  0  0  0  0 
 29  4  1  0  0  0  0 
 30  5  1  0  0  0  0 
 31  5  1  0  0  0  0 
 32  6  1  0  0  0  0 
 33  7  1  0  0  0  0 
 34  8  1  0  0  0  0 
 35  8  1  0  0  0  0 
 36  9  1  0  0  0  0 
 37  9  1  0  0  0  0 
 38 10  1  0  0  0  0 
 39 11  1  0  0  0  0 
 40 14  1  0  0  0  0 
 41 14  1  0  0  0  0 
 42 15  1  0  0  0  0 
 43 15  1  0  0  0  0 
 44 15  1  0  0  0  0 
 45 16  1  0  0  0  0 
 46 16  1  0  0  0  0 
 47 17  1  0  0  0  0 
 48 17  1  0  0  0  0 
 49 21  1  0  0  0  0 
 50 22  1  0  0  0  0 
 51 23  1  0  0  0  0 
 52 24  1  0  0  0  0 
M  END
> <cdk:Title>
moperone

> <Conformer>
1

> <SuperDrugID>
SD001635

$$$$
