artesunate
  CDK     0628171801

 55 58  0  0  0  0  0  0  0  0999 V2000
    6.4138    0.9626    1.9895 C   0  0  0  0  0  0  0  0  0  0  0  0
    5.5505   -0.0677    1.2035 C   0  0  2  0  0  0  0  0  0  0  0  0
    4.6475   -0.9689    2.1163 C   0  0  1  0  0  0  0  0  0  0  0  0
    6.3965   -0.9319    0.2188 C   0  0  2  0  0  0  0  0  0  0  0  0
    3.8046   -1.9778    1.2487 C   0  0  1  0  0  0  0  0  0  0  0  0
    5.4441   -1.7177    3.2444 C   0  0  1  0  0  0  0  0  0  0  0  0
    6.9764   -0.0568   -0.7628 O   0  0  0  0  0  0  0  0  0  0  0  0
    5.5756   -1.8813   -0.4919 O   0  0  0  0  0  0  0  0  0  0  0  0
    4.8083   -2.7817    0.3402 C   0  0  2  0  0  0  0  0  0  0  0  0
    2.8505   -2.7980    2.2106 C   0  0  1  0  0  0  0  0  0  0  0  0
    2.9560   -1.2840    0.2954 O   0  0  0  0  0  0  0  0  0  0  0  0
    4.5752   -2.6926    4.0798 C   0  0  2  0  0  0  0  0  0  0  0  0
    8.2737    0.0098   -1.1870 C   0  0  0  0  0  0  0  0  0  0  0  0
    4.1664   -3.6711   -0.5837 O   0  0  0  0  0  0  0  0  0  0  0  0
    1.6278   -3.4751    1.4982 C   0  0  1  0  0  0  0  0  0  0  0  0
    3.6907   -3.6573    3.2237 C   0  0  1  0  0  0  0  0  0  0  0  0
    2.4855   -1.9831   -0.7654 O   0  0  0  0  0  0  0  0  0  0  0  0
    8.6847    1.0896   -2.1035 C   0  0  2  0  0  0  0  0  0  0  0  0
    9.1184   -0.8469   -0.8386 O   0  0  0  0  0  0  0  0  0  0  0  0
    2.7719   -3.4112   -0.8345 C   0  0  2  0  0  0  0  0  0  0  0  0
    1.9446   -4.2443    0.1995 C   0  0  2  0  0  0  0  0  0  0  0  0
    2.8469   -4.5517    4.1751 C   0  0  0  0  0  0  0  0  0  0  0  0
    8.8026    0.6157   -3.5756 C   0  0  2  0  0  0  0  0  0  0  0  0
    2.4983   -3.8949   -2.2796 C   0  0  0  0  0  0  0  0  0  0  0  0
    9.3778    1.6537   -4.4551 C   0  0  0  0  0  0  0  0  0  0  0  0
    8.6631    2.1617   -5.4864 O   0  0  0  0  0  0  0  0  0  0  0  0
   10.5443    2.0670   -4.2720 O   0  0  0  0  0  0  0  0  0  0  0  0
    5.5026   -3.3942    0.9163 H   0  0  0  0  0  0  0  0  0  0  0  0
    2.3422   -2.0553    2.8389 H   0  0  0  0  0  0  0  0  0  0  0  0
    3.9447   -0.2940    2.6193 H   0  0  0  0  0  0  0  0  0  0  0  0
    5.7924    1.5151    2.7001 H   0  0  0  0  0  0  0  0  0  0  0  0
    7.2150    0.4644    2.5363 H   0  0  0  0  0  0  0  0  0  0  0  0
    6.8725    1.6806    1.3061 H   0  0  0  0  0  0  0  0  0  0  0  0
    4.8718    0.5309    0.5880 H   0  0  0  0  0  0  0  0  0  0  0  0
    7.1834   -1.4611    0.7632 H   0  0  0  0  0  0  0  0  0  0  0  0
    6.2791   -2.2806    2.8235 H   0  0  0  0  0  0  0  0  0  0  0  0
    5.8684   -0.9878    3.9386 H   0  0  0  0  0  0  0  0  0  0  0  0
    3.9259   -2.0937    4.7261 H   0  0  0  0  0  0  0  0  0  0  0  0
    5.2370   -3.2737    4.7291 H   0  0  0  0  0  0  0  0  0  0  0  0
    1.0861   -4.1358    2.1755 H   0  0  0  0  0  0  0  0  0  0  0  0
    0.9051   -2.6931    1.2369 H   0  0  0  0  0  0  0  0  0  0  0  0
    4.3455   -4.3355    2.6740 H   0  0  0  0  0  0  0  0  0  0  0  0
    9.6434    1.4790   -1.7522 H   0  0  0  0  0  0  0  0  0  0  0  0
    7.9591    1.9045   -2.0452 H   0  0  0  0  0  0  0  0  0  0  0  0
    0.9867   -4.5453   -0.2362 H   0  0  0  0  0  0  0  0  0  0  0  0
    2.4788   -5.1630    0.4612 H   0  0  0  0  0  0  0  0  0  0  0  0
    3.4781   -4.9972    4.9465 H   0  0  0  0  0  0  0  0  0  0  0  0
    2.0689   -3.9620    4.6618 H   0  0  0  0  0  0  0  0  0  0  0  0
    2.3804   -5.3701    3.6248 H   0  0  0  0  0  0  0  0  0  0  0  0
    7.8055    0.3438   -3.9358 H   0  0  0  0  0  0  0  0  0  0  0  0
    9.4423   -0.2698   -3.6349 H   0  0  0  0  0  0  0  0  0  0  0  0
    1.4641   -3.6923   -2.5601 H   0  0  0  0  0  0  0  0  0  0  0  0
    2.6807   -4.9682   -2.3670 H   0  0  0  0  0  0  0  0  0  0  0  0
    3.1537   -3.3757   -2.9795 H   0  0  0  0  0  0  0  0  0  0  0  0
    9.0694    2.8239   -6.0845 H   0  0  0  0  0  0  0  0  0  0  0  0
  2  1  1  0  0  0  0 
  3  2  1  0  0  0  0 
  2  4  1  0  0  0  0 
  5  3  1  0  0  0  0 
  3  6  1  0  0  0  0 
  3 30  1  0  0  0  0 
  4  7  1  0  0  0  0 
  4  8  1  0  0  0  0 
  5  9  1  0  0  0  0 
 10  5  1  0  0  0  0 
  5 11  1  0  0  0  0 
  6 12  1  0  0  0  0 
  7 13  1  0  0  0  0 
  9  8  1  0  0  0  0 
  9 14  1  0  0  0  0 
  9 28  1  0  0  0  0 
 10 15  1  0  0  0  0 
 10 16  1  0  0  0  0 
 10 29  1  0  0  0  0 
 11 17  1  0  0  0  0 
 16 12  1  0  0  0  0 
 13 18  1  0  0  0  0 
 13 19  2  0  0  0  0 
 20 14  1  0  0  0  0 
 15 21  1  0  0  0  0 
 16 22  1  0  0  0  0 
 18 23  1  0  0  0  0 
 20 17  1  0  0  0  0 
 20 21  1  0  0  0  0 
 20 24  1  0  0  0  0 
 23 25  1  0  0  0  0 
 25 26  1  0  0  0  0 
 25 27  2  0  0  0  0 
  1 31  1  0  0  0  0 
  1 32  1  0  0  0  0 
  1 33  1  0  0  0  0 
  2 34  1  0  0  0  0 
  4 35  1  0  0  0  0 
  6 36  1  0  0  0  0 
  6 37  1  0  0  0  0 
 12 38  1  0  0  0  0 
 12 39  1  0  0  0  0 
 15 40  1  0  0  0  0 
 15 41  1  0  0  0  0 
 16 42  1  0  0  0  0 
 18 43  1  0  0  0  0 
 18 44  1  0  0  0  0 
 21 45  1  0  0  0  0 
 21 46  1  0  0  0  0 
 22 47  1  0  0  0  0 
 22 48  1  0  0  0  0 
 22 49  1  0  0  0  0 
 23 50  1  0  0  0  0 
 23 51  1  0  0  0  0 
 24 52  1  0  0  0  0 
 24 53  1  0  0  0  0 
 24 54  1  0  0  0  0 
 26 55  1  0  0  0  0 
M  END
> <cdk:Title>
artesunate

> <Conformer>
1

> <SuperDrugID>
SD000204

$$$$
