etidronic acid
  CDK     0628171801

 19 18  0  0  0  0  0  0  0  0999 V2000
    1.6158    0.6264    0.9744 C   0  0  1  0  0  0  0  0  0  0  0  0
   -0.1047    0.5339    1.0160 P   0  0  1  0  0  0  0  0  0  0  0  0
    2.2816   -0.5551   -0.0881 P   0  0  1  0  0  0  0  0  0  0  0  0
    2.0958    2.0551    0.5942 C   0  0  0  0  0  0  0  0  0  0  0  0
    2.1048    0.3214    2.2792 O   0  0  0  0  0  0  0  0  0  0  0  0
   -0.7007    0.8038   -0.3003 O   0  0  0  0  0  0  0  0  0  0  0  0
   -0.5669   -0.9068    1.5049 O   0  0  0  0  0  0  0  0  0  0  0  0
   -0.6745    1.5874    2.0634 O   0  0  0  0  0  0  0  0  0  0  0  0
    1.8421   -0.3555   -1.4770 O   0  0  0  0  0  0  0  0  0  0  0  0
    3.8714   -0.4876   -0.0389 O   0  0  0  0  0  0  0  0  0  0  0  0
    1.8630   -2.0169    0.3793 O   0  0  0  0  0  0  0  0  0  0  0  0
    1.7128    2.7922    1.3014 H   0  0  0  0  0  0  0  0  0  0  0  0
    1.7611    2.3343   -0.4073 H   0  0  0  0  0  0  0  0  0  0  0  0
    3.1849    2.1159    0.6207 H   0  0  0  0  0  0  0  0  0  0  0  0
    1.7397    1.0116    2.8713 H   0  0  0  0  0  0  0  0  0  0  0  0
   -0.1322   -1.0391    2.3734 H   0  0  0  0  0  0  0  0  0  0  0  0
   -0.2569    1.3545    2.9195 H   0  0  0  0  0  0  0  0  0  0  0  0
    4.1096   -0.6421    0.9001 H   0  0  0  0  0  0  0  0  0  0  0  0
    2.1694   -2.0902    1.3079 H   0  0  0  0  0  0  0  0  0  0  0  0
  1  2  1  0  0  0  0 
  1  3  1  0  0  0  0 
  1  4  1  0  0  0  0 
  1  5  1  0  0  0  0 
  2  6  2  0  0  0  0 
  2  7  1  0  0  0  0 
  2  8  1  0  0  0  0 
  3  9  2  0  0  0  0 
  3 10  1  0  0  0  0 
  3 11  1  0  0  0  0 
  4 12  1  0  0  0  0 
  4 13  1  0  0  0  0 
  4 14  1  0  0  0  0 
  5 15  1  0  0  0  0 
  7 16  1  0  0  0  0 
  8 17  1  0  0  0  0 
 10 18  1  0  0  0  0 
 11 19  1  0  0  0  0 
M  END
> <cdk:Title>
etidronic acid

> <Conformer>
1

> <SuperDrugID>
SD000979

$$$$
