octisalate
  CDK     0628171801

 40 40  0  0  0  0  0  0  0  0999 V2000
   -0.0030    0.2328   -0.1830 C   0  0  0  0  0  0  0  0  0  0  0  0
   -0.1178   -1.1265   -0.0549 O   0  0  0  0  0  0  0  0  0  0  0  0
   -1.0581    0.9073   -0.2624 O   0  0  0  0  0  0  0  0  0  0  0  0
    1.2828    0.8559   -0.2222 C   0  0  0  0  0  0  0  0  0  0  0  0
   -1.3320   -1.8909   -0.1357 C   0  0  2  0  0  0  0  0  0  0  0  0
    1.4545    2.2465   -0.4795 C   0  0  0  0  0  0  0  0  0  0  0  0
    2.4534    0.0783   -0.0190 C   0  0  0  0  0  0  0  0  0  0  0  0
   -1.1084   -3.4188    0.0928 C   0  0  2  0  0  0  0  0  0  0  0  0
    0.4149    3.0952   -0.6796 O   0  0  0  0  0  0  0  0  0  0  0  0
    2.7413    2.8163   -0.5521 C   0  0  0  0  0  0  0  0  0  0  0  0
    3.7367    0.6519   -0.0838 C   0  0  0  0  0  0  0  0  0  0  0  0
    0.2008   -3.9621   -0.5720 C   0  0  2  0  0  0  0  0  0  0  0  0
   -2.4103   -4.2034   -0.2817 C   0  0  1  0  0  0  0  0  0  0  0  0
    3.8813    2.0210   -0.3560 C   0  0  0  0  0  0  0  0  0  0  0  0
    0.2716   -3.8951   -2.1222 C   0  0  1  0  0  0  0  0  0  0  0  0
   -2.3890   -5.7158    0.0356 C   0  0  0  0  0  0  0  0  0  0  0  0
    1.5840   -4.5149   -2.6762 C   0  0  1  0  0  0  0  0  0  0  0  0
    1.6547   -4.4540   -4.2170 C   0  0  0  0  0  0  0  0  0  0  0  0
   -1.7723   -1.7205   -1.1244 H   0  0  0  0  0  0  0  0  0  0  0  0
   -2.0376   -1.5186    0.6152 H   0  0  0  0  0  0  0  0  0  0  0  0
    2.3901   -0.9223    0.1792 H   0  0  0  0  0  0  0  0  0  0  0  0
   -0.9662   -3.5460    1.1726 H   0  0  0  0  0  0  0  0  0  0  0  0
   -0.1344    2.6632   -1.3661 H   0  0  0  0  0  0  0  0  0  0  0  0
    2.8538    3.8136   -0.7549 H   0  0  0  0  0  0  0  0  0  0  0  0
    4.5643    0.0722    0.0631 H   0  0  0  0  0  0  0  0  0  0  0  0
    0.3457   -4.9987   -0.2613 H   0  0  0  0  0  0  0  0  0  0  0  0
    1.0516   -3.4061   -0.1672 H   0  0  0  0  0  0  0  0  0  0  0  0
   -3.2450   -3.7744    0.2800 H   0  0  0  0  0  0  0  0  0  0  0  0
   -2.6383   -4.0713   -1.3430 H   0  0  0  0  0  0  0  0  0  0  0  0
    4.8143    2.4367   -0.4154 H   0  0  0  0  0  0  0  0  0  0  0  0
   -0.5748   -4.4353   -2.5524 H   0  0  0  0  0  0  0  0  0  0  0  0
    0.2072   -2.8527   -2.4429 H   0  0  0  0  0  0  0  0  0  0  0  0
   -3.3668   -6.1469   -0.1866 H   0  0  0  0  0  0  0  0  0  0  0  0
   -1.6494   -6.2332   -0.5762 H   0  0  0  0  0  0  0  0  0  0  0  0
   -2.1668   -5.8811    1.0914 H   0  0  0  0  0  0  0  0  0  0  0  0
    2.4462   -3.9838   -2.2626 H   0  0  0  0  0  0  0  0  0  0  0  0
    1.6536   -5.5623   -2.3669 H   0  0  0  0  0  0  0  0  0  0  0  0
    2.5813   -4.9173   -4.5600 H   0  0  0  0  0  0  0  0  0  0  0  0
    0.8116   -4.9913   -4.6565 H   0  0  0  0  0  0  0  0  0  0  0  0
    1.6343   -3.4165   -4.5561 H   0  0  0  0  0  0  0  0  0  0  0  0
  1  2  1  0  0  0  0 
  1  3  2  0  0  0  0 
  1  4  1  0  0  0  0 
  2  5  1  0  0  0  0 
  4  6  2  0  0  0  0 
  4  7  1  0  0  0  0 
  8  5  1  0  0  0  0 
  6  9  1  0  0  0  0 
  6 10  1  0  0  0  0 
  7 11  2  0  0  0  0 
  8 12  1  0  0  0  0 
  8 13  1  0  0  0  0 
 10 14  2  0  0  0  0 
 11 14  1  0  0  0  0 
 12 15  1  0  0  0  0 
 13 16  1  0  0  0  0 
 15 17  1  0  0  0  0 
 17 18  1  0  0  0  0 
  5 19  1  0  0  0  0 
  5 20  1  0  0  0  0 
  7 21  1  0  0  0  0 
  8 22  1  0  0  0  0 
  9 23  1  0  0  0  0 
 10 24  1  0  0  0  0 
 11 25  1  0  0  0  0 
 12 26  1  0  0  0  0 
 12 27  1  0  0  0  0 
 13 28  1  0  0  0  0 
 13 29  1  0  0  0  0 
 14 30  1  0  0  0  0 
 15 31  1  0  0  0  0 
 15 32  1  0  0  0  0 
 16 33  1  0  0  0  0 
 16 34  1  0  0  0  0 
 16 35  1  0  0  0  0 
 17 36  1  0  0  0  0 
 17 37  1  0  0  0  0 
 18 38  1  0  0  0  0 
 18 39  1  0  0  0  0 
 18 40  1  0  0  0  0 
M  END
> <cdk:Title>
octisalate

> <Conformer>
1

> <SuperDrugID>
SD003448

$$$$
