eliglustat
  CDK     0628171802

 65 67  0  0  0  0  0  0  0  0999 V2000
    0.5699   -1.4518   -2.1955 C   0  0  2  0  0  0  0  0  0  0  0  0
    0.0977   -2.0449   -0.8237 C   0  0  1  0  0  0  0  0  0  0  0  0
   -0.4515   -1.0072    0.2051 C   0  0  2  0  0  0  0  0  0  0  0  0
    0.5679   -0.0058    0.6526 N   0  0  1  0  0  0  0  0  0  0  0  0
    0.0194    1.1802    1.3491 C   0  0  1  0  0  0  0  0  0  0  0  0
    1.2415    1.8631    1.9855 C   0  0  1  0  0  0  0  0  0  0  0  0
    2.2583    0.7290    2.2151 C   0  0  2  0  0  0  0  0  0  0  0  0
    1.6422   -0.5151    1.5431 C   0  0  1  0  0  0  0  0  0  0  0  0
   -0.8569   -3.1147   -0.9791 N   0  0  0  0  0  0  0  0  0  0  0  0
   -0.5421   -4.4046   -1.3165 C   0  0  0  0  0  0  0  0  0  0  0  0
   -1.5398   -5.4983   -1.1780 C   0  0  1  0  0  0  0  0  0  0  0  0
   -2.5977   -5.5330   -2.3635 C   0  0  1  0  0  0  0  0  0  0  0  0
   -3.4482   -6.8367   -2.3082 C   0  0  1  0  0  0  0  0  0  0  0  0
   -4.6944   -6.8887   -3.2357 C   0  0  1  0  0  0  0  0  0  0  0  0
   -4.3973   -6.9575   -4.7596 C   0  0  1  0  0  0  0  0  0  0  0  0
   -5.6437   -7.3799   -5.5899 C   0  0  1  0  0  0  0  0  0  0  0  0
   -5.4062   -7.3630   -7.1161 C   0  0  0  0  0  0  0  0  0  0  0  0
    0.6266   -4.7079   -1.6591 O   0  0  0  0  0  0  0  0  0  0  0  0
    1.8514   -0.8394   -2.0428 O   0  0  0  0  0  0  0  0  0  0  0  0
   -0.3762   -0.5046   -2.8635 C   0  0  0  0  0  0  0  0  0  0  0  0
   -0.3098    0.8917   -2.6293 C   0  0  0  0  0  0  0  0  0  0  0  0
   -1.1696    1.7907   -3.2895 C   0  0  0  0  0  0  0  0  0  0  0  0
   -2.1296    1.2946   -4.2061 C   0  0  0  0  0  0  0  0  0  0  0  0
   -2.2160   -0.0897   -4.4361 C   0  0  0  0  0  0  0  0  0  0  0  0
   -1.3484   -0.9789   -3.7756 C   0  0  0  0  0  0  0  0  0  0  0  0
   -3.0034    2.1412   -4.8561 O   0  0  0  0  0  0  0  0  0  0  0  0
   -2.5754    3.5193   -4.9398 C   0  0  1  0  0  0  0  0  0  0  0  0
   -2.0734    4.0012   -3.5556 C   0  0  2  0  0  0  0  0  0  0  0  0
   -1.0155    3.1448   -3.0648 O   0  0  0  0  0  0  0  0  0  0  0  0
    0.7631   -2.2799   -2.8841 H   0  0  0  0  0  0  0  0  0  0  0  0
    0.9752   -2.4937   -0.3483 H   0  0  0  0  0  0  0  0  0  0  0  0
   -0.8412   -1.5411    1.0774 H   0  0  0  0  0  0  0  0  0  0  0  0
   -1.3002   -0.4912   -0.2506 H   0  0  0  0  0  0  0  0  0  0  0  0
   -0.4738    1.8516    0.6423 H   0  0  0  0  0  0  0  0  0  0  0  0
   -0.6931    0.8943    2.1308 H   0  0  0  0  0  0  0  0  0  0  0  0
    1.6550    2.6091    1.3021 H   0  0  0  0  0  0  0  0  0  0  0  0
    0.9689    2.3555    2.9220 H   0  0  0  0  0  0  0  0  0  0  0  0
    2.4078    0.5513    3.2827 H   0  0  0  0  0  0  0  0  0  0  0  0
    3.2228    0.9760    1.7619 H   0  0  0  0  0  0  0  0  0  0  0  0
    1.2500   -1.1900    2.3138 H   0  0  0  0  0  0  0  0  0  0  0  0
    2.3963   -1.0490    0.9611 H   0  0  0  0  0  0  0  0  0  0  0  0
   -1.7855   -2.9237   -0.7705 H   0  0  0  0  0  0  0  0  0  0  0  0
   -0.9602   -6.4697   -1.2992 H   0  0  0  0  0  0  0  0  0  0  0  0
   -1.9966   -5.3310   -0.1178 H   0  0  0  0  0  0  0  0  0  0  0  0
   -3.2545   -4.6660   -2.2731 H   0  0  0  0  0  0  0  0  0  0  0  0
   -2.0819   -5.4802   -3.3258 H   0  0  0  0  0  0  0  0  0  0  0  0
   -2.8044   -7.6918   -2.5315 H   0  0  0  0  0  0  0  0  0  0  0  0
   -3.8076   -6.9678   -1.2840 H   0  0  0  0  0  0  0  0  0  0  0  0
   -5.2618   -7.7807   -2.9574 H   0  0  0  0  0  0  0  0  0  0  0  0
   -5.3301   -6.0233   -3.0355 H   0  0  0  0  0  0  0  0  0  0  0  0
   -4.0523   -5.9766   -5.0954 H   0  0  0  0  0  0  0  0  0  0  0  0
   -3.5990   -7.6815   -4.9424 H   0  0  0  0  0  0  0  0  0  0  0  0
   -5.9368   -8.3951   -5.3072 H   0  0  0  0  0  0  0  0  0  0  0  0
   -6.4828   -6.7143   -5.3684 H   0  0  0  0  0  0  0  0  0  0  0  0
   -6.2969   -7.7309   -7.6307 H   0  0  0  0  0  0  0  0  0  0  0  0
   -5.2027   -6.3467   -7.4578 H   0  0  0  0  0  0  0  0  0  0  0  0
   -4.5638   -8.0052   -7.3802 H   0  0  0  0  0  0  0  0  0  0  0  0
    2.4377   -1.5560   -1.7211 H   0  0  0  0  0  0  0  0  0  0  0  0
    0.3775    1.2673   -1.9743 H   0  0  0  0  0  0  0  0  0  0  0  0
   -2.9106   -0.4554   -5.0900 H   0  0  0  0  0  0  0  0  0  0  0  0
   -1.4283   -1.9796   -3.9684 H   0  0  0  0  0  0  0  0  0  0  0  0
   -1.7704    3.6087   -5.6758 H   0  0  0  0  0  0  0  0  0  0  0  0
   -3.4114    4.1405   -5.2720 H   0  0  0  0  0  0  0  0  0  0  0  0
   -2.9012    3.9990   -2.8414 H   0  0  0  0  0  0  0  0  0  0  0  0
   -1.6958    5.0226   -3.6320 H   0  0  0  0  0  0  0  0  0  0  0  0
  2  1  1  0  0  0  0 
  1 19  1  0  0  0  0 
  1 20  1  0  0  0  0 
  2  3  1  0  0  0  0 
  2  9  1  0  0  0  0 
  3  4  1  0  0  0  0 
  4  5  1  0  0  0  0 
  4  8  1  0  0  0  0 
  5  6  1  0  0  0  0 
  6  7  1  0  0  0  0 
  8  7  1  0  0  0  0 
  9 10  1  0  0  0  0 
 10 11  1  0  0  0  0 
 10 18  2  0  0  0  0 
 11 12  1  0  0  0  0 
 12 13  1  0  0  0  0 
 13 14  1  0  0  0  0 
 14 15  1  0  0  0  0 
 15 16  1  0  0  0  0 
 16 17  1  0  0  0  0 
 20 21  2  0  0  0  0 
 20 25  1  0  0  0  0 
 21 22  1  0  0  0  0 
 22 23  2  0  0  0  0 
 22 29  1  0  0  0  0 
 23 26  1  0  0  0  0 
 24 23  1  0  0  0  0 
 25 24  2  0  0  0  0 
 26 27  1  0  0  0  0 
 28 27  1  0  0  0  0 
 29 28  1  0  0  0  0 
  1 30  1  0  0  0  0 
  2 31  1  0  0  0  0 
  3 32  1  0  0  0  0 
  3 33  1  0  0  0  0 
  5 34  1  0  0  0  0 
  5 35  1  0  0  0  0 
  6 36  1  0  0  0  0 
  6 37  1  0  0  0  0 
  7 38  1  0  0  0  0 
  7 39  1  0  0  0  0 
  8 40  1  0  0  0  0 
  8 41  1  0  0  0  0 
  9 42  1  0  0  0  0 
 11 43  1  0  0  0  0 
 11 44  1  0  0  0  0 
 12 45  1  0  0  0  0 
 12 46  1  0  0  0  0 
 13 47  1  0  0  0  0 
 13 48  1  0  0  0  0 
 14 49  1  0  0  0  0 
 14 50  1  0  0  0  0 
 15 51  1  0  0  0  0 
 15 52  1  0  0  0  0 
 16 53  1  0  0  0  0 
 16 54  1  0  0  0  0 
 17 55  1  0  0  0  0 
 17 56  1  0  0  0  0 
 17 57  1  0  0  0  0 
 19 58  1  0  0  0  0 
 21 59  1  0  0  0  0 
 24 60  1  0  0  0  0 
 25 61  1  0  0  0  0 
 27 62  1  0  0  0  0 
 27 63  1  0  0  0  0 
 28 64  1  0  0  0  0 
 28 65  1  0  0  0  0 
M  END
> <cdk:Title>
eliglustat

> <Conformer>
1

> <SuperDrugID>
SD003795

$$$$
