clidinium
  CDK     0628171802

 52 55  0  0  0  0  0  0  0  0999 V2000
   -2.5119   -2.1717    0.1860 C   0  0  2  0  0  0  0  0  0  0  0  0
   -2.1288   -1.7363    1.5652 C   0  0  0  0  0  0  0  0  0  0  0  0
   -3.5534   -1.2923   -0.2682 O   0  0  0  0  0  0  0  0  0  0  0  0
   -3.1169   -3.5547    0.0833 C   0  0  0  0  0  0  0  0  0  0  0  0
   -1.2742   -1.9647   -0.6570 C   0  0  0  0  0  0  0  0  0  0  0  0
   -0.9178   -2.1350    2.0690 O   0  0  0  0  0  0  0  0  0  0  0  0
   -2.8933   -1.0217    2.2565 O   0  0  0  0  0  0  0  0  0  0  0  0
   -3.4833   -4.0575   -1.1950 C   0  0  0  0  0  0  0  0  0  0  0  0
   -3.3463   -4.3995    1.2017 C   0  0  0  0  0  0  0  0  0  0  0  0
   -0.3961   -3.0310   -0.9968 C   0  0  0  0  0  0  0  0  0  0  0  0
   -0.8908   -0.6547   -1.0466 C   0  0  0  0  0  0  0  0  0  0  0  0
   -0.2543   -1.7525    3.2862 C   0  0  1  0  0  0  0  0  0  0  0  0
   -4.0067   -5.3532   -1.3562 C   0  0  0  0  0  0  0  0  0  0  0  0
   -3.8859   -5.6905    1.0461 C   0  0  0  0  0  0  0  0  0  0  0  0
    0.8027   -2.7991   -1.6947 C   0  0  0  0  0  0  0  0  0  0  0  0
    0.3107   -0.4190   -1.7386 C   0  0  0  0  0  0  0  0  0  0  0  0
   -0.1468   -2.9799    4.2436 C   0  0  2  0  0  0  0  0  0  0  0  0
    1.1942   -1.2257    2.9723 C   0  0  1  0  0  0  0  0  0  0  0  0
   -4.2087   -6.1714   -0.2332 C   0  0  0  0  0  0  0  0  0  0  0  0
    1.1575   -1.4920   -2.0666 C   0  0  0  0  0  0  0  0  0  0  0  0
    0.5887   -2.5129    5.5384 C   0  0  1  0  0  0  0  0  0  0  0  0
    0.7188   -4.0874    3.5623 C   0  0  2  0  0  0  0  0  0  0  0  0
    2.2691   -2.0541    3.6637 N   0  0  1  0  0  0  0  0  0  0  0  0
    2.0183   -1.9919    5.1610 C   0  0  1  0  0  0  0  0  0  0  0  0
    2.1244   -3.4967    3.2087 C   0  0  2  0  0  0  0  0  0  0  0  0
    3.6473   -1.5438    3.3273 C   0  0  0  0  0  0  0  0  0  0  0  0
   -3.7153   -1.5334   -1.2041 H   0  0  0  0  0  0  0  0  0  0  0  0
   -3.3575   -3.4824   -2.0329 H   0  0  0  0  0  0  0  0  0  0  0  0
   -3.1229   -4.0887    2.1483 H   0  0  0  0  0  0  0  0  0  0  0  0
   -0.6061   -3.9915   -0.7200 H   0  0  0  0  0  0  0  0  0  0  0  0
   -1.4789    0.1477   -0.8084 H   0  0  0  0  0  0  0  0  0  0  0  0
   -0.8253   -0.9601    3.7824 H   0  0  0  0  0  0  0  0  0  0  0  0
   -4.2374   -5.7022   -2.2898 H   0  0  0  0  0  0  0  0  0  0  0  0
   -4.0404   -6.2823    1.8656 H   0  0  0  0  0  0  0  0  0  0  0  0
    1.4244   -3.5790   -1.9262 H   0  0  0  0  0  0  0  0  0  0  0  0
    0.5712    0.5343   -2.0009 H   0  0  0  0  0  0  0  0  0  0  0  0
   -1.1415   -3.3622    4.4910 H   0  0  0  0  0  0  0  0  0  0  0  0
    1.3522   -1.2234    1.8885 H   0  0  0  0  0  0  0  0  0  0  0  0
    1.2628   -0.1807    3.2930 H   0  0  0  0  0  0  0  0  0  0  0  0
   -4.5876   -7.1151   -0.3471 H   0  0  0  0  0  0  0  0  0  0  0  0
    2.0337   -1.3209   -2.5669 H   0  0  0  0  0  0  0  0  0  0  0  0
    0.0106   -1.7188    6.0239 H   0  0  0  0  0  0  0  0  0  0  0  0
    0.6565   -3.3420    6.2490 H   0  0  0  0  0  0  0  0  0  0  0  0
    0.2282   -4.4623    2.6591 H   0  0  0  0  0  0  0  0  0  0  0  0
    0.8265   -4.9344    4.2468 H   0  0  0  0  0  0  0  0  0  0  0  0
    2.1200   -0.9618    5.5205 H   0  0  0  0  0  0  0  0  0  0  0  0
    2.7622   -2.5874    5.6999 H   0  0  0  0  0  0  0  0  0  0  0  0
    2.2825   -3.5626    2.1254 H   0  0  0  0  0  0  0  0  0  0  0  0
    2.8880   -4.1286    3.6789 H   0  0  0  0  0  0  0  0  0  0  0  0
    3.8029   -1.5249    2.2440 H   0  0  0  0  0  0  0  0  0  0  0  0
    4.4268   -2.1773    3.7650 H   0  0  0  0  0  0  0  0  0  0  0  0
    3.7948   -0.5273    3.7019 H   0  0  0  0  0  0  0  0  0  0  0  0
  1  2  1  0  0  0  0 
  1  3  1  0  0  0  0 
  1  4  1  0  0  0  0 
  1  5  1  0  0  0  0 
  2  6  1  0  0  0  0 
  2  7  2  0  0  0  0 
  4  8  2  0  0  0  0 
  4  9  1  0  0  0  0 
  5 10  2  0  0  0  0 
  5 11  1  0  0  0  0 
  6 12  1  0  0  0  0 
  8 13  1  0  0  0  0 
  9 14  2  0  0  0  0 
 10 15  1  0  0  0  0 
 11 16  2  0  0  0  0 
 12 17  1  0  0  0  0 
 12 18  1  0  0  0  0 
 13 19  2  0  0  0  0 
 14 19  1  0  0  0  0 
 15 20  2  0  0  0  0 
 16 20  1  0  0  0  0 
 17 21  1  0  0  0  0 
 17 22  1  0  0  0  0 
 18 23  1  0  0  0  0 
 21 24  1  0  0  0  0 
 22 25  1  0  0  0  0 
 23 24  1  0  0  0  0 
 23 25  1  0  0  0  0 
 23 26  1  0  0  0  0 
  3 27  1  0  0  0  0 
  8 28  1  0  0  0  0 
  9 29  1  0  0  0  0 
 10 30  1  0  0  0  0 
 11 31  1  0  0  0  0 
 12 32  1  0  0  0  0 
 13 33  1  0  0  0  0 
 14 34  1  0  0  0  0 
 15 35  1  0  0  0  0 
 16 36  1  0  0  0  0 
 17 37  1  0  0  0  0 
 18 38  1  0  0  0  0 
 18 39  1  0  0  0  0 
 19 40  1  0  0  0  0 
 20 41  1  0  0  0  0 
 21 42  1  0  0  0  0 
 21 43  1  0  0  0  0 
 22 44  1  0  0  0  0 
 22 45  1  0  0  0  0 
 24 46  1  0  0  0  0 
 24 47  1  0  0  0  0 
 25 48  1  0  0  0  0 
 25 49  1  0  0  0  0 
 26 50  1  0  0  0  0 
 26 51  1  0  0  0  0 
 26 52  1  0  0  0  0 
M  CHG  1  23   1
M  END
> <cdk:Title>
clidinium

> <Conformer>
1

> <SuperDrugID>
SD000595

$$$$
