mitomycin
  CDK     0628171801

 42 45  0  0  0  0  0  0  0  0999 V2000
   -1.7971   -3.0621    1.4243 C   0  0  0  0  0  0  0  0  0  0  0  0
   -1.7044   -4.3178    1.8806 C   0  0  0  0  0  0  0  0  0  0  0  0
   -2.2670   -2.0440    2.2596 C   0  0  0  0  0  0  0  0  0  0  0  0
   -2.4955   -2.3163    3.6205 C   0  0  0  0  0  0  0  0  0  0  0  0
   -2.3801   -3.5857    4.1040 C   0  0  0  0  0  0  0  0  0  0  0  0
   -2.0368   -4.6289    3.2056 C   0  0  0  0  0  0  0  0  0  0  0  0
   -2.5129   -0.9115    1.7803 O   0  0  0  0  0  0  0  0  0  0  0  0
   -2.0589   -5.8320    3.5584 O   0  0  0  0  0  0  0  0  0  0  0  0
   -2.8155   -1.2941    4.4071 N   0  0  0  0  0  0  0  0  0  0  0  0
   -2.6120   -3.8648    5.5260 C   0  0  0  0  0  0  0  0  0  0  0  0
   -1.2667   -5.1031    0.9070 N   0  0  0  0  0  0  0  0  0  0  0  0
   -1.1995   -4.4573   -0.3575 C   0  0  1  0  0  0  0  0  0  0  0  0
   -1.3774   -2.9500    0.0357 C   0  0  2  0  0  0  0  0  0  0  0  0
   -0.6146   -6.3697    0.9756 C   0  0  2  0  0  0  0  0  0  0  0  0
    0.4847   -6.2134   -0.0853 C   0  0  1  0  0  0  0  0  0  0  0  0
    0.1820   -4.9533   -0.8764 C   0  0  2  0  0  0  0  0  0  0  0  0
   -0.1186   -2.0531   -0.1669 C   0  0  2  0  0  0  0  0  0  0  0  0
   -2.3172   -4.9713   -1.1317 O   0  0  0  0  0  0  0  0  0  0  0  0
    1.3624   -5.0357    0.0088 N   0  0  2  0  0  0  0  0  0  0  0  0
   -2.4114   -4.5991   -2.5221 C   0  0  0  0  0  0  0  0  0  0  0  0
   -0.4567   -0.6721    0.0020 O   0  0  0  0  0  0  0  0  0  0  0  0
    0.3894    0.3923   -0.0532 C   0  0  0  0  0  0  0  0  0  0  0  0
   -0.1230    1.6207    0.1187 N   0  0  0  0  0  0  0  0  0  0  0  0
    1.6179    0.2617   -0.2555 O   0  0  0  0  0  0  0  0  0  0  0  0
   -2.9885   -1.4313    5.3520 H   0  0  0  0  0  0  0  0  0  0  0  0
   -2.8695   -0.3977    4.0396 H   0  0  0  0  0  0  0  0  0  0  0  0
   -3.6571   -3.6671    5.7725 H   0  0  0  0  0  0  0  0  0  0  0  0
   -2.3942   -4.8963    5.8088 H   0  0  0  0  0  0  0  0  0  0  0  0
   -1.9798   -3.2228    6.1441 H   0  0  0  0  0  0  0  0  0  0  0  0
   -2.2045   -2.5135   -0.5325 H   0  0  0  0  0  0  0  0  0  0  0  0
   -1.3015   -7.1769    0.7058 H   0  0  0  0  0  0  0  0  0  0  0  0
   -0.1554   -6.5673    1.9466 H   0  0  0  0  0  0  0  0  0  0  0  0
    0.8337   -7.0620   -0.6768 H   0  0  0  0  0  0  0  0  0  0  0  0
    0.3829   -5.0370   -1.9449 H   0  0  0  0  0  0  0  0  0  0  0  0
    0.2662   -2.1857   -1.1814 H   0  0  0  0  0  0  0  0  0  0  0  0
    0.6635   -2.3263    0.5472 H   0  0  0  0  0  0  0  0  0  0  0  0
    2.1671   -5.2244   -0.5937 H   0  0  0  0  0  0  0  0  0  0  0  0
   -3.3879   -4.9162   -2.8917 H   0  0  0  0  0  0  0  0  0  0  0  0
   -1.6519   -5.1087   -3.1156 H   0  0  0  0  0  0  0  0  0  0  0  0
   -2.3254   -3.5212   -2.6698 H   0  0  0  0  0  0  0  0  0  0  0  0
    0.4592    2.3978    0.1091 H   0  0  0  0  0  0  0  0  0  0  0  0
   -1.0789    1.7312    0.2534 H   0  0  0  0  0  0  0  0  0  0  0  0
  1  2  2  0  0  0  0 
  1  3  1  0  0  0  0 
  3  4  1  0  0  0  0 
  5  4  2  0  0  0  0 
  5  6  1  0  0  0  0 
  2  6  1  0  0  0  0 
  3  7  2  0  0  0  0 
  6  8  2  0  0  0  0 
  4  9  1  0  0  0  0 
  5 10  1  0  0  0  0 
  2 11  1  0  0  0  0 
 12 11  1  0  0  0  0 
 12 13  1  0  0  0  0 
 13  1  1  0  0  0  0 
 11 14  1  0  0  0  0 
 15 14  1  0  0  0  0 
 16 15  1  0  0  0  0 
 12 16  1  0  0  0  0 
 13 17  1  0  0  0  0 
 12 18  1  0  0  0  0 
 16 19  1  0  0  0  0 
 15 19  1  0  0  0  0 
 18 20  1  0  0  0  0 
 17 21  1  0  0  0  0 
 21 22  1  0  0  0  0 
 22 23  1  0  0  0  0 
 22 24  2  0  0  0  0 
 25  9  1  0  0  0  0 
 26  9  1  0  0  0  0 
 27 10  1  0  0  0  0 
 28 10  1  0  0  0  0 
 29 10  1  0  0  0  0 
 13 30  1  0  0  0  0 
 31 14  1  0  0  0  0 
 32 14  1  0  0  0  0 
 15 33  1  0  0  0  0 
 16 34  1  0  0  0  0 
 35 17  1  0  0  0  0 
 36 17  1  0  0  0  0 
 37 19  1  0  0  0  0 
 38 20  1  0  0  0  0 
 39 20  1  0  0  0  0 
 40 20  1  0  0  0  0 
 41 23  1  0  0  0  0 
 42 23  1  0  0  0  0 
M  END
> <cdk:Title>
mitomycin

> <Conformer>
1

> <SuperDrugID>
SD001618

$$$$
