iodamide
  CDK     0628171801

 32 32  0  0  0  0  0  0  0  0999 V2000
   -5.7405   -2.3387    1.7401 N   0  0  0  0  0  0  0  0  0  0  0  0
   -6.3095   -3.5805    1.7051 C   0  0  0  0  0  0  0  0  0  0  0  0
   -5.0035   -1.7478    0.7574 C   0  0  0  0  0  0  0  0  0  0  0  0
   -6.1980   -4.5713    0.6106 C   0  0  0  0  0  0  0  0  0  0  0  0
   -6.9818   -3.9079    2.7087 O   0  0  0  0  0  0  0  0  0  0  0  0
   -5.5817   -1.4233   -0.4904 C   0  0  0  0  0  0  0  0  0  0  0  0
   -3.6532   -1.4163    1.0134 C   0  0  0  0  0  0  0  0  0  0  0  0
   -7.6283   -1.5958   -0.7285 I   0  0  0  0  0  0  0  0  0  0  0  0
   -4.7778   -0.9207   -1.5406 C   0  0  0  0  0  0  0  0  0  0  0  0
   -2.9265   -1.8146    2.9064 I   0  0  0  0  0  0  0  0  0  0  0  0
   -2.8425   -0.8389   -0.0052 C   0  0  0  0  0  0  0  0  0  0  0  0
   -5.3574   -0.6901   -2.8099 C   0  0  0  0  0  0  0  0  0  0  0  0
   -3.4063   -0.6461   -1.2991 C   0  0  0  0  0  0  0  0  0  0  0  0
   -1.4391   -0.3963    0.2606 C   0  0  1  0  0  0  0  0  0  0  0  0
   -6.0294   -1.6771   -3.4498 O   0  0  0  0  0  0  0  0  0  0  0  0
   -5.2766    0.4246   -3.3746 O   0  0  0  0  0  0  0  0  0  0  0  0
   -2.2202    0.0251   -2.8577 I   0  0  0  0  0  0  0  0  0  0  0  0
   -0.4677   -1.2231   -0.3853 N   0  0  0  0  0  0  0  0  0  0  0  0
    0.8726   -0.9846   -0.3789 C   0  0  0  0  0  0  0  0  0  0  0  0
    1.7621   -1.9096   -1.0977 C   0  0  0  0  0  0  0  0  0  0  0  0
    1.3663   -0.0025    0.2261 O   0  0  0  0  0  0  0  0  0  0  0  0
   -5.8368   -1.8412    2.5682 H   0  0  0  0  0  0  0  0  0  0  0  0
   -5.8390   -5.5229    1.0062 H   0  0  0  0  0  0  0  0  0  0  0  0
   -5.5017   -4.2483   -0.1616 H   0  0  0  0  0  0  0  0  0  0  0  0
   -7.1777   -4.7315    0.1541 H   0  0  0  0  0  0  0  0  0  0  0  0
   -1.3309    0.6319   -0.0917 H   0  0  0  0  0  0  0  0  0  0  0  0
   -1.2014   -0.3682    1.3214 H   0  0  0  0  0  0  0  0  0  0  0  0
   -6.4527   -1.5076   -4.3175 H   0  0  0  0  0  0  0  0  0  0  0  0
   -0.7802   -2.0028   -0.8701 H   0  0  0  0  0  0  0  0  0  0  0  0
    2.8059   -1.5970   -1.0185 H   0  0  0  0  0  0  0  0  0  0  0  0
    1.6661   -2.9111   -0.6756 H   0  0  0  0  0  0  0  0  0  0  0  0
    1.4898   -1.9360   -2.1536 H   0  0  0  0  0  0  0  0  0  0  0  0
  1  2  1  0  0  0  0 
  1  3  1  0  0  0  0 
  2  4  1  0  0  0  0 
  2  5  2  0  0  0  0 
  3  6  2  0  0  0  0 
  3  7  1  0  0  0  0 
  6  8  1  0  0  0  0 
  6  9  1  0  0  0  0 
  7 10  1  0  0  0  0 
  7 11  2  0  0  0  0 
  9 12  1  0  0  0  0 
  9 13  2  0  0  0  0 
 11 13  1  0  0  0  0 
 11 14  1  0  0  0  0 
 12 15  1  0  0  0  0 
 12 16  2  0  0  0  0 
 13 17  1  0  0  0  0 
 14 18  1  0  0  0  0 
 18 19  1  0  0  0  0 
 19 20  1  0  0  0  0 
 19 21  2  0  0  0  0 
  1 22  1  0  0  0  0 
  4 23  1  0  0  0  0 
  4 24  1  0  0  0  0 
  4 25  1  0  0  0  0 
 14 26  1  0  0  0  0 
 14 27  1  0  0  0  0 
 15 28  1  0  0  0  0 
 18 29  1  0  0  0  0 
 20 30  1  0  0  0  0 
 20 31  1  0  0  0  0 
 20 32  1  0  0  0  0 
M  END
> <cdk:Title>
iodamide

> <Conformer>
1

> <SuperDrugID>
SD001287

$$$$
