eberconazole
  CDK     0628171802

 36 39  0  0  0  0  0  0  0  0999 V2000
   -3.7005    1.9448   -2.7069 Cl  0  0  0  0  0  0  0  0  0  0  0  0
   -2.6369    3.0739   -2.0074 C   0  0  0  0  0  0  0  0  0  0  0  0
   -1.7920    2.8027   -0.8864 C   0  0  0  0  0  0  0  0  0  0  0  0
   -2.6459    4.3460   -2.6124 C   0  0  0  0  0  0  0  0  0  0  0  0
   -1.7407    1.4443   -0.2274 C   0  0  2  0  0  0  0  0  0  0  0  0
   -0.9730    3.8631   -0.3933 C   0  0  0  0  0  0  0  0  0  0  0  0
   -1.8074    5.3668   -2.1426 C   0  0  0  0  0  0  0  0  0  0  0  0
   -2.3644    1.4775    1.1459 C   0  0  0  0  0  0  0  0  0  0  0  0
   -0.4518    0.7819   -0.2943 N   0  0  0  0  0  0  0  0  0  0  0  0
   -0.1224    3.6913    0.8173 C   0  0  1  0  0  0  0  0  0  0  0  0
   -0.9680    5.1186   -1.0466 C   0  0  0  0  0  0  0  0  0  0  0  0
   -1.8037    6.8871   -2.8884 Cl  0  0  0  0  0  0  0  0  0  0  0  0
   -1.9735    2.3770    2.1900 C   0  0  0  0  0  0  0  0  0  0  0  0
   -3.3930    0.5348    1.4258 C   0  0  0  0  0  0  0  0  0  0  0  0
    0.1216   -0.0265    0.6227 C   0  0  0  0  0  0  0  0  0  0  0  0
    0.3968    0.7881   -1.3488 C   0  0  0  0  0  0  0  0  0  0  0  0
   -0.9501    3.4683    2.1034 C   0  0  2  0  0  0  0  0  0  0  0  0
   -2.6143    2.2767    3.4543 C   0  0  0  0  0  0  0  0  0  0  0  0
   -4.0142    0.4611    2.6822 C   0  0  0  0  0  0  0  0  0  0  0  0
    1.3205   -0.4919    0.1033 C   0  0  0  0  0  0  0  0  0  0  0  0
    1.4802    0.0271   -1.1198 N   0  0  0  0  0  0  0  0  0  0  0  0
   -3.6183    1.3296    3.7038 C   0  0  0  0  0  0  0  0  0  0  0  0
   -3.2678    4.5359   -3.4050 H   0  0  0  0  0  0  0  0  0  0  0  0
   -2.3290    0.7602   -0.8375 H   0  0  0  0  0  0  0  0  0  0  0  0
    0.5844    2.8771    0.6765 H   0  0  0  0  0  0  0  0  0  0  0  0
    0.4967    4.5767    0.9947 H   0  0  0  0  0  0  0  0  0  0  0  0
   -0.3527    5.8687   -0.7212 H   0  0  0  0  0  0  0  0  0  0  0  0
   -3.7026   -0.1272    0.7109 H   0  0  0  0  0  0  0  0  0  0  0  0
   -0.2536   -0.2765    1.5406 H   0  0  0  0  0  0  0  0  0  0  0  0
    0.2448    1.2978   -2.2217 H   0  0  0  0  0  0  0  0  0  0  0  0
   -1.4658    4.4111    2.3132 H   0  0  0  0  0  0  0  0  0  0  0  0
   -0.2232    3.3133    2.9038 H   0  0  0  0  0  0  0  0  0  0  0  0
   -2.3522    2.9029    4.2216 H   0  0  0  0  0  0  0  0  0  0  0  0
   -4.7487   -0.2293    2.8540 H   0  0  0  0  0  0  0  0  0  0  0  0
    1.9693   -1.1264    0.5705 H   0  0  0  0  0  0  0  0  0  0  0  0
   -4.0580    1.2716    4.6264 H   0  0  0  0  0  0  0  0  0  0  0  0
  1  2  1  0  0  0  0 
  2  3  2  0  0  0  0 
  2  4  1  0  0  0  0 
  5  3  1  0  0  0  0 
  3  6  1  0  0  0  0 
  4  7  2  0  0  0  0 
  5  8  1  0  0  0  0 
  5  9  1  0  0  0  0 
  6 10  1  0  0  0  0 
  6 11  2  0  0  0  0 
  7 11  1  0  0  0  0 
  7 12  1  0  0  0  0 
  8 13  2  0  0  0  0 
  8 14  1  0  0  0  0 
  9 15  1  0  0  0  0 
  9 16  1  0  0  0  0 
 10 17  1  0  0  0  0 
 13 17  1  0  0  0  0 
 13 18  1  0  0  0  0 
 14 19  2  0  0  0  0 
 15 20  2  0  0  0  0 
 16 21  2  0  0  0  0 
 18 22  2  0  0  0  0 
 19 22  1  0  0  0  0 
 20 21  1  0  0  0  0 
  4 23  1  0  0  0  0 
  5 24  1  0  0  0  0 
 10 25  1  0  0  0  0 
 10 26  1  0  0  0  0 
 11 27  1  0  0  0  0 
 14 28  1  0  0  0  0 
 15 29  1  0  0  0  0 
 16 30  1  0  0  0  0 
 17 31  1  0  0  0  0 
 17 32  1  0  0  0  0 
 18 33  1  0  0  0  0 
 19 34  1  0  0  0  0 
 20 35  1  0  0  0  0 
 22 36  1  0  0  0  0 
M  END
> <cdk:Title>
eberconazole

> <Conformer>
1

> <SuperDrugID>
SD000868

$$$$
