deferiprone
  CDK     0628171801

 19 19  0  0  0  0  0  0  0  0999 V2000
   -0.7320   -1.1594   -0.0845 N   0  0  0  0  0  0  0  0  0  0  0  0
   -2.0974   -1.1347    0.0672 C   0  0  0  0  0  0  0  0  0  0  0  0
   -2.8189    0.0662    0.0491 C   0  0  0  0  0  0  0  0  0  0  0  0
   -2.1266    1.2710   -0.1287 C   0  0  0  0  0  0  0  0  0  0  0  0
   -0.7295    1.2557   -0.2893 C   0  0  0  0  0  0  0  0  0  0  0  0
   -0.0255    0.0202   -0.2561 C   0  0  0  0  0  0  0  0  0  0  0  0
   -2.7648    2.3493   -0.1485 O   0  0  0  0  0  0  0  0  0  0  0  0
   -0.1008    2.4466   -0.4792 O   0  0  0  0  0  0  0  0  0  0  0  0
    1.4608    0.0185   -0.4107 C   0  0  0  0  0  0  0  0  0  0  0  0
   -0.0667   -2.4500   -0.0575 C   0  0  0  0  0  0  0  0  0  0  0  0
   -2.6346   -1.9968    0.1967 H   0  0  0  0  0  0  0  0  0  0  0  0
   -3.8347    0.0565    0.1631 H   0  0  0  0  0  0  0  0  0  0  0  0
    0.1257    2.4586   -1.4336 H   0  0  0  0  0  0  0  0  0  0  0  0
    1.7373   -0.5175   -1.3213 H   0  0  0  0  0  0  0  0  0  0  0  0
    1.9204   -0.4760    0.4469 H   0  0  0  0  0  0  0  0  0  0  0  0
    1.8904    1.0191   -0.4729 H   0  0  0  0  0  0  0  0  0  0  0  0
   -0.7567   -3.2935    0.0411 H   0  0  0  0  0  0  0  0  0  0  0  0
    0.6248   -2.5021    0.7881 H   0  0  0  0  0  0  0  0  0  0  0  0
    0.4953   -2.6075   -0.9817 H   0  0  0  0  0  0  0  0  0  0  0  0
  1  2  1  0  0  0  0 
  1  6  1  0  0  0  0 
  2  3  2  0  0  0  0 
  3  4  1  0  0  0  0 
  4  5  1  0  0  0  0 
  5  6  2  0  0  0  0 
  4  7  2  0  0  0  0 
  5  8  1  0  0  0  0 
  6  9  1  0  0  0  0 
  1 10  1  0  0  0  0 
  2 11  1  0  0  0  0 
  3 12  1  0  0  0  0 
  8 13  1  0  0  0  0 
  9 14  1  0  0  0  0 
  9 15  1  0  0  0  0 
  9 16  1  0  0  0  0 
 10 17  1  0  0  0  0 
 10 18  1  0  0  0  0 
 10 19  1  0  0  0  0 
M  END
> <cdk:Title>
deferiprone

> <Conformer>
1

> <SuperDrugID>
SD003418

$$$$
