etomidate
  CDK     0628171801

 34 35  0  0  0  0  0  0  0  0999 V2000
   -4.5653    1.9704    0.9296 C   0  0  1  0  0  0  0  0  0  0  0  0
   -6.0522    2.4152    1.0486 C   0  0  0  0  0  0  0  0  0  0  0  0
   -3.6844    2.8547    0.1858 N   0  0  0  0  0  0  0  0  0  0  0  0
   -3.9988    1.7224    2.2927 C   0  0  0  0  0  0  0  0  0  0  0  0
   -2.4205    2.5892   -0.2403 C   0  0  0  0  0  0  0  0  0  0  0  0
   -3.9418    4.1343   -0.1798 C   0  0  0  0  0  0  0  0  0  0  0  0
   -3.7329    0.4078    2.7487 C   0  0  0  0  0  0  0  0  0  0  0  0
   -3.6961    2.8064    3.1525 C   0  0  0  0  0  0  0  0  0  0  0  0
   -1.6429    1.4132   -0.1053 C   0  0  0  0  0  0  0  0  0  0  0  0
   -1.9554    3.7489   -0.8542 C   0  0  0  0  0  0  0  0  0  0  0  0
   -2.9013    4.6923   -0.8132 N   0  0  0  0  0  0  0  0  0  0  0  0
   -3.1559    0.1873    4.0137 C   0  0  0  0  0  0  0  0  0  0  0  0
   -3.1245    2.5868    4.4183 C   0  0  0  0  0  0  0  0  0  0  0  0
   -0.2838    1.4868   -0.2320 O   0  0  0  0  0  0  0  0  0  0  0  0
   -2.1823    0.3026    0.1028 O   0  0  0  0  0  0  0  0  0  0  0  0
   -2.8526    1.2774    4.8480 C   0  0  0  0  0  0  0  0  0  0  0  0
    0.6582    0.4278   -0.0148 C   0  0  1  0  0  0  0  0  0  0  0  0
    2.0616    0.8717   -0.4596 C   0  0  0  0  0  0  0  0  0  0  0  0
   -4.6150    1.0378    0.3617 H   0  0  0  0  0  0  0  0  0  0  0  0
   -6.6379    1.6463    1.5622 H   0  0  0  0  0  0  0  0  0  0  0  0
   -6.4786    2.5597    0.0544 H   0  0  0  0  0  0  0  0  0  0  0  0
   -6.1475    3.3469    1.6091 H   0  0  0  0  0  0  0  0  0  0  0  0
   -4.8076    4.6447    0.0019 H   0  0  0  0  0  0  0  0  0  0  0  0
   -3.9526   -0.3989    2.1586 H   0  0  0  0  0  0  0  0  0  0  0  0
   -3.8806    3.7679    2.8541 H   0  0  0  0  0  0  0  0  0  0  0  0
   -1.0343    3.8732   -1.2744 H   0  0  0  0  0  0  0  0  0  0  0  0
   -2.9567   -0.7665    4.3266 H   0  0  0  0  0  0  0  0  0  0  0  0
   -2.9013    3.3799    5.0227 H   0  0  0  0  0  0  0  0  0  0  0  0
   -2.4326    1.1190    5.7655 H   0  0  0  0  0  0  0  0  0  0  0  0
    0.6793    0.1788    1.0488 H   0  0  0  0  0  0  0  0  0  0  0  0
    0.3737   -0.4611   -0.5830 H   0  0  0  0  0  0  0  0  0  0  0  0
    2.7850    0.0810   -0.2559 H   0  0  0  0  0  0  0  0  0  0  0  0
    2.0614    1.0801   -1.5309 H   0  0  0  0  0  0  0  0  0  0  0  0
    2.3639    1.7708    0.0796 H   0  0  0  0  0  0  0  0  0  0  0  0
  1  2  1  0  0  0  0 
  1  3  1  0  0  0  0 
  1  4  1  0  0  0  0 
  3  5  1  0  0  0  0 
  3  6  1  0  0  0  0 
  4  7  2  0  0  0  0 
  4  8  1  0  0  0  0 
  5  9  1  0  0  0  0 
  5 10  2  0  0  0  0 
  6 11  2  0  0  0  0 
  7 12  1  0  0  0  0 
  8 13  2  0  0  0  0 
  9 14  1  0  0  0  0 
  9 15  2  0  0  0  0 
 10 11  1  0  0  0  0 
 12 16  2  0  0  0  0 
 13 16  1  0  0  0  0 
 14 17  1  0  0  0  0 
 17 18  1  0  0  0  0 
  1 19  1  0  0  0  0 
  2 20  1  0  0  0  0 
  2 21  1  0  0  0  0 
  2 22  1  0  0  0  0 
  6 23  1  0  0  0  0 
  7 24  1  0  0  0  0 
  8 25  1  0  0  0  0 
 10 26  1  0  0  0  0 
 12 27  1  0  0  0  0 
 13 28  1  0  0  0  0 
 16 29  1  0  0  0  0 
 17 30  1  0  0  0  0 
 17 31  1  0  0  0  0 
 18 32  1  0  0  0  0 
 18 33  1  0  0  0  0 
 18 34  1  0  0  0  0 
M  END
> <cdk:Title>
etomidate

> <Conformer>
1

> <SuperDrugID>
SD000990

$$$$
