iocetamic acid
  CDK     0628171801

 33 33  0  0  0  0  0  0  0  0999 V2000
   -0.0496    1.5977   -2.1833 N   0  0  0  0  0  0  0  0  0  0  0  0
    0.8265    1.1421   -1.1053 C   0  0  2  0  0  0  0  0  0  0  0  0
   -1.4354    1.4995   -2.0942 C   0  0  0  0  0  0  0  0  0  0  0  0
    0.5336    2.0144   -3.3613 C   0  0  0  0  0  0  0  0  0  0  0  0
    0.8488    2.0397    0.1809 C   0  0  1  0  0  0  0  0  0  0  0  0
   -2.4136    2.0087   -3.0871 C   0  0  0  0  0  0  0  0  0  0  0  0
   -1.9653    0.8968   -1.1302 O   0  0  0  0  0  0  0  0  0  0  0  0
    0.7661    3.3842   -3.6508 C   0  0  0  0  0  0  0  0  0  0  0  0
    0.8870    1.0383   -4.3252 C   0  0  0  0  0  0  0  0  0  0  0  0
   -0.3283    1.8177    1.0565 C   0  0  0  0  0  0  0  0  0  0  0  0
    2.1527    1.8508    1.0076 C   0  0  0  0  0  0  0  0  0  0  0  0
    0.1638    4.8491   -2.3331 I   0  0  0  0  0  0  0  0  0  0  0  0
    1.3783    3.7611   -4.8710 C   0  0  0  0  0  0  0  0  0  0  0  0
    0.5156   -0.9639   -4.0265 I   0  0  0  0  0  0  0  0  0  0  0  0
    1.4892    1.4180   -5.5372 C   0  0  0  0  0  0  0  0  0  0  0  0
   -1.2529    2.7875    1.2527 O   0  0  0  0  0  0  0  0  0  0  0  0
   -0.5123    0.7194    1.6292 O   0  0  0  0  0  0  0  0  0  0  0  0
    1.5997    5.0630   -5.1544 N   0  0  0  0  0  0  0  0  0  0  0  0
    1.7462    2.7719   -5.8094 C   0  0  0  0  0  0  0  0  0  0  0  0
    2.6486    3.2525   -7.5949 I   0  0  0  0  0  0  0  0  0  0  0  0
    1.8564    1.0682   -1.4704 H   0  0  0  0  0  0  0  0  0  0  0  0
    0.5541    0.1175   -0.8295 H   0  0  0  0  0  0  0  0  0  0  0  0
    0.8433    3.0850   -0.1308 H   0  0  0  0  0  0  0  0  0  0  0  0
   -3.1564    2.6270   -2.5810 H   0  0  0  0  0  0  0  0  0  0  0  0
   -1.9562    2.6177   -3.8642 H   0  0  0  0  0  0  0  0  0  0  0  0
   -2.9182    1.1669   -3.5645 H   0  0  0  0  0  0  0  0  0  0  0  0
    2.1161    2.4328    1.9314 H   0  0  0  0  0  0  0  0  0  0  0  0
    3.0153    2.1923    0.4317 H   0  0  0  0  0  0  0  0  0  0  0  0
    2.3016    0.7995    1.2628 H   0  0  0  0  0  0  0  0  0  0  0  0
    1.7363    0.7062   -6.2283 H   0  0  0  0  0  0  0  0  0  0  0  0
   -2.0364    2.6068    1.8136 H   0  0  0  0  0  0  0  0  0  0  0  0
    1.3502    5.7522   -4.5200 H   0  0  0  0  0  0  0  0  0  0  0  0
    2.0063    5.3186   -5.9962 H   0  0  0  0  0  0  0  0  0  0  0  0
  1  2  1  0  0  0  0 
  1  3  1  0  0  0  0 
  1  4  1  0  0  0  0 
  2  5  1  0  0  0  0 
  3  6  1  0  0  0  0 
  3  7  2  0  0  0  0 
  4  8  2  0  0  0  0 
  4  9  1  0  0  0  0 
  5 10  1  0  0  0  0 
  5 11  1  0  0  0  0 
  8 12  1  0  0  0  0 
  8 13  1  0  0  0  0 
  9 14  1  0  0  0  0 
  9 15  2  0  0  0  0 
 10 16  1  0  0  0  0 
 10 17  2  0  0  0  0 
 13 18  1  0  0  0  0 
 13 19  2  0  0  0  0 
 15 19  1  0  0  0  0 
 19 20  1  0  0  0  0 
  2 21  1  0  0  0  0 
  2 22  1  0  0  0  0 
  5 23  1  0  0  0  0 
  6 24  1  0  0  0  0 
  6 25  1  0  0  0  0 
  6 26  1  0  0  0  0 
 11 27  1  0  0  0  0 
 11 28  1  0  0  0  0 
 11 29  1  0  0  0  0 
 15 30  1  0  0  0  0 
 16 31  1  0  0  0  0 
 18 32  1  0  0  0  0 
 18 33  1  0  0  0  0 
M  END
> <cdk:Title>
iocetamic acid

> <Conformer>
1

> <SuperDrugID>
SD001286

$$$$
