octamylamine
  CDK     0628171801

 43 42  0  0  0  0  0  0  0  0999 V2000
   -0.8496    1.8384   -0.4224 C   0  0  1  0  0  0  0  0  0  0  0  0
   -0.0826    2.0009   -1.7736 C   0  0  2  0  0  0  0  0  0  0  0  0
   -0.9703    0.4248    0.0433 N   0  0  1  0  0  0  0  0  0  0  0  0
   -0.2900    2.7744    0.6831 C   0  0  0  0  0  0  0  0  0  0  0  0
   -0.7087    1.1978   -2.9529 C   0  0  2  0  0  0  0  0  0  0  0  0
    0.2556   -0.3105    0.4510 C   0  0  2  0  0  0  0  0  0  0  0  0
    0.2431    1.0683   -4.1782 C   0  0  2  0  0  0  0  0  0  0  0  0
   -0.0268   -1.8149    0.7100 C   0  0  2  0  0  0  0  0  0  0  0  0
   -0.3404    0.2660   -5.3892 C   0  0  1  0  0  0  0  0  0  0  0  0
   -0.5933   -2.6247   -0.5032 C   0  0  1  0  0  0  0  0  0  0  0  0
    0.5837    0.3820   -6.6344 C   0  0  0  0  0  0  0  0  0  0  0  0
   -0.5898   -1.2341   -5.0657 C   0  0  0  0  0  0  0  0  0  0  0  0
    0.3787   -2.6717   -1.7139 C   0  0  0  0  0  0  0  0  0  0  0  0
   -0.9631   -4.0729   -0.0759 C   0  0  0  0  0  0  0  0  0  0  0  0
   -1.8751    2.1689   -0.6041 H   0  0  0  0  0  0  0  0  0  0  0  0
    0.9573    1.6978   -1.6291 H   0  0  0  0  0  0  0  0  0  0  0  0
   -0.0750    3.0604   -2.0531 H   0  0  0  0  0  0  0  0  0  0  0  0
   -1.6022    0.4286    0.8484 H   0  0  0  0  0  0  0  0  0  0  0  0
   -0.8487    2.6343    1.6099 H   0  0  0  0  0  0  0  0  0  0  0  0
   -0.3868    3.8208    0.3843 H   0  0  0  0  0  0  0  0  0  0  0  0
    0.7630    2.5606    0.8761 H   0  0  0  0  0  0  0  0  0  0  0  0
   -1.6345    1.6909   -3.2645 H   0  0  0  0  0  0  0  0  0  0  0  0
   -0.9660    0.2009   -2.5990 H   0  0  0  0  0  0  0  0  0  0  0  0
    0.6411    0.1271    1.3741 H   0  0  0  0  0  0  0  0  0  0  0  0
    1.0339   -0.2203   -0.3063 H   0  0  0  0  0  0  0  0  0  0  0  0
    1.1718    0.5903   -3.8560 H   0  0  0  0  0  0  0  0  0  0  0  0
    0.4923    2.0786   -4.5148 H   0  0  0  0  0  0  0  0  0  0  0  0
   -0.7383   -1.8810    1.5372 H   0  0  0  0  0  0  0  0  0  0  0  0
    0.9013   -2.2859    1.0442 H   0  0  0  0  0  0  0  0  0  0  0  0
   -1.3032    0.7093   -5.6618 H   0  0  0  0  0  0  0  0  0  0  0  0
   -1.5157   -2.1373   -0.8366 H   0  0  0  0  0  0  0  0  0  0  0  0
    0.1477   -0.1470   -7.4843 H   0  0  0  0  0  0  0  0  0  0  0  0
    0.7097    1.4264   -6.9210 H   0  0  0  0  0  0  0  0  0  0  0  0
    1.5670   -0.0453   -6.4291 H   0  0  0  0  0  0  0  0  0  0  0  0
   -0.9645   -1.7577   -5.9477 H   0  0  0  0  0  0  0  0  0  0  0  0
   -1.3370   -1.3420   -4.2796 H   0  0  0  0  0  0  0  0  0  0  0  0
    0.3350   -1.7173   -4.7446 H   0  0  0  0  0  0  0  0  0  0  0  0
   -0.0683   -3.2404   -2.5330 H   0  0  0  0  0  0  0  0  0  0  0  0
    0.5877   -1.6676   -2.0809 H   0  0  0  0  0  0  0  0  0  0  0  0
    1.3230   -3.1448   -1.4362 H   0  0  0  0  0  0  0  0  0  0  0  0
   -1.4305   -4.6089   -0.9047 H   0  0  0  0  0  0  0  0  0  0  0  0
   -1.6685   -4.0602    0.7557 H   0  0  0  0  0  0  0  0  0  0  0  0
   -0.0724   -4.6241    0.2327 H   0  0  0  0  0  0  0  0  0  0  0  0
  1  2  1  0  0  0  0 
  1  3  1  0  0  0  0 
  1  4  1  0  0  0  0 
  2  5  1  0  0  0  0 
  3  6  1  0  0  0  0 
  5  7  1  0  0  0  0 
  6  8  1  0  0  0  0 
  7  9  1  0  0  0  0 
  8 10  1  0  0  0  0 
  9 11  1  0  0  0  0 
  9 12  1  0  0  0  0 
 10 13  1  0  0  0  0 
 10 14  1  0  0  0  0 
  1 15  1  0  0  0  0 
  2 16  1  0  0  0  0 
  2 17  1  0  0  0  0 
  3 18  1  0  0  0  0 
  4 19  1  0  0  0  0 
  4 20  1  0  0  0  0 
  4 21  1  0  0  0  0 
  5 22  1  0  0  0  0 
  5 23  1  0  0  0  0 
  6 24  1  0  0  0  0 
  6 25  1  0  0  0  0 
  7 26  1  0  0  0  0 
  7 27  1  0  0  0  0 
  8 28  1  0  0  0  0 
  8 29  1  0  0  0  0 
  9 30  1  0  0  0  0 
 10 31  1  0  0  0  0 
 11 32  1  0  0  0  0 
 11 33  1  0  0  0  0 
 11 34  1  0  0  0  0 
 12 35  1  0  0  0  0 
 12 36  1  0  0  0  0 
 12 37  1  0  0  0  0 
 13 38  1  0  0  0  0 
 13 39  1  0  0  0  0 
 13 40  1  0  0  0  0 
 14 41  1  0  0  0  0 
 14 42  1  0  0  0  0 
 14 43  1  0  0  0  0 
M  END
> <cdk:Title>
octamylamine

> <Conformer>
1

> <SuperDrugID>
SD003241

$$$$
