florantyrone
  CDK     0628171801

 37 40  0  0  0  0  0  0  0  0999 V2000
    0.3497   -0.6730    2.0915 C   0  0  0  0  0  0  0  0  0  0  0  0
    0.8506   -0.6540    0.6897 C   0  0  2  0  0  0  0  0  0  0  0  0
   -0.7966   -0.2149    2.3153 O   0  0  0  0  0  0  0  0  0  0  0  0
    1.1285   -1.1831    3.1803 C   0  0  0  0  0  0  0  0  0  0  0  0
   -0.1037   -0.0836   -0.3914 C   0  0  2  0  0  0  0  0  0  0  0  0
    2.4284   -1.7207    2.9635 C   0  0  0  0  0  0  0  0  0  0  0  0
    0.6241   -1.1687    4.5152 C   0  0  0  0  0  0  0  0  0  0  0  0
    0.5631   -0.0337   -1.7070 C   0  0  0  0  0  0  0  0  0  0  0  0
    3.1716   -2.2197    4.0421 C   0  0  0  0  0  0  0  0  0  0  0  0
    1.3743   -1.6711    5.6011 C   0  0  0  0  0  0  0  0  0  0  0  0
    1.5782    0.8366   -1.9162 O   0  0  0  0  0  0  0  0  0  0  0  0
    0.2247   -0.8029   -2.6350 O   0  0  0  0  0  0  0  0  0  0  0  0
    4.4476   -2.7909    4.0744 C   0  0  0  0  0  0  0  0  0  0  0  0
    2.6506   -2.1964    5.3455 C   0  0  0  0  0  0  0  0  0  0  0  0
    4.6782   -3.1070    5.4033 C   0  0  0  0  0  0  0  0  0  0  0  0
    5.4340   -3.0741    3.1126 C   0  0  0  0  0  0  0  0  0  0  0  0
    3.6009   -2.7568    6.2037 C   0  0  0  0  0  0  0  0  0  0  0  0
    5.8547   -3.7064    5.8768 C   0  0  0  0  0  0  0  0  0  0  0  0
    6.6383   -3.6791    3.5454 C   0  0  0  0  0  0  0  0  0  0  0  0
    3.6584   -3.0054    7.5855 C   0  0  0  0  0  0  0  0  0  0  0  0
    6.8500   -3.9939    4.9131 C   0  0  0  0  0  0  0  0  0  0  0  0
    5.9150   -3.9581    7.2675 C   0  0  0  0  0  0  0  0  0  0  0  0
    4.8262   -3.6098    8.1094 C   0  0  0  0  0  0  0  0  0  0  0  0
    1.0953   -1.6790    0.4033 H   0  0  0  0  0  0  0  0  0  0  0  0
    1.7707   -0.0683    0.6791 H   0  0  0  0  0  0  0  0  0  0  0  0
   -0.4160    0.9268   -0.1182 H   0  0  0  0  0  0  0  0  0  0  0  0
   -0.9940   -0.7149   -0.4497 H   0  0  0  0  0  0  0  0  0  0  0  0
    2.8487   -1.7594    2.0338 H   0  0  0  0  0  0  0  0  0  0  0  0
   -0.3066   -0.7888    4.7155 H   0  0  0  0  0  0  0  0  0  0  0  0
    0.9954   -1.6537    6.5506 H   0  0  0  0  0  0  0  0  0  0  0  0
    2.0261    0.8700   -2.7868 H   0  0  0  0  0  0  0  0  0  0  0  0
    5.2877   -2.8498    2.1264 H   0  0  0  0  0  0  0  0  0  0  0  0
    7.3659   -3.8921    2.8602 H   0  0  0  0  0  0  0  0  0  0  0  0
    2.8788   -2.7569    8.1949 H   0  0  0  0  0  0  0  0  0  0  0  0
    7.7295   -4.4314    5.1973 H   0  0  0  0  0  0  0  0  0  0  0  0
    6.7466   -4.3940    7.6729 H   0  0  0  0  0  0  0  0  0  0  0  0
    4.8841   -3.7980    9.1118 H   0  0  0  0  0  0  0  0  0  0  0  0
  1  2  1  0  0  0  0 
  1  3  2  0  0  0  0 
  1  4  1  0  0  0  0 
  2  5  1  0  0  0  0 
  4  6  2  0  0  0  0 
  4  7  1  0  0  0  0 
  5  8  1  0  0  0  0 
  6  9  1  0  0  0  0 
  7 10  2  0  0  0  0 
  8 11  1  0  0  0  0 
  8 12  2  0  0  0  0 
  9 13  1  0  0  0  0 
  9 14  2  0  0  0  0 
 10 14  1  0  0  0  0 
 13 15  2  0  0  0  0 
 13 16  1  0  0  0  0 
 14 17  1  0  0  0  0 
 15 17  1  0  0  0  0 
 15 18  1  0  0  0  0 
 16 19  2  0  0  0  0 
 17 20  2  0  0  0  0 
 18 21  2  0  0  0  0 
 18 22  1  0  0  0  0 
 19 21  1  0  0  0  0 
 20 23  1  0  0  0  0 
 22 23  2  0  0  0  0 
 24  2  1  0  0  0  0 
 25  2  1  0  0  0  0 
 26  5  1  0  0  0  0 
 27  5  1  0  0  0  0 
 28  6  1  0  0  0  0 
 29  7  1  0  0  0  0 
 30 10  1  0  0  0  0 
 31 11  1  0  0  0  0 
 32 16  1  0  0  0  0 
 33 19  1  0  0  0  0 
 34 20  1  0  0  0  0 
 35 21  1  0  0  0  0 
 36 22  1  0  0  0  0 
 37 23  1  0  0  0  0 
M  END
> <cdk:Title>
florantyrone

> <Conformer>
1

> <SuperDrugID>
SD001057

$$$$
