clobazam
  CDK     0628171802

 34 36  0  0  0  0  0  0  0  0999 V2000
   -0.2298   -4.5769   -1.6686 C   0  0  0  0  0  0  0  0  0  0  0  0
   -1.0812   -3.6118   -1.0007 N   0  0  0  0  0  0  0  0  0  0  0  0
   -1.6023   -2.5361   -1.7088 C   0  0  0  0  0  0  0  0  0  0  0  0
   -2.2390   -2.7834   -2.9521 C   0  0  0  0  0  0  0  0  0  0  0  0
   -2.7901   -1.7416   -3.7136 C   0  0  0  0  0  0  0  0  0  0  0  0
   -2.7336   -0.4225   -3.2390 C   0  0  0  0  0  0  0  0  0  0  0  0
   -3.4088    0.8384   -4.1441 Cl  0  0  0  0  0  0  0  0  0  0  0  0
   -2.1167   -0.1561   -2.0053 C   0  0  0  0  0  0  0  0  0  0  0  0
   -1.5450   -1.1926   -1.2228 C   0  0  0  0  0  0  0  0  0  0  0  0
   -0.9643   -0.8609   -0.0042 N   0  0  0  0  0  0  0  0  0  0  0  0
   -0.0555    0.1813    0.0246 C   0  0  0  0  0  0  0  0  0  0  0  0
   -0.3022    1.3473    0.7871 C   0  0  0  0  0  0  0  0  0  0  0  0
    0.6170    2.4117    0.7879 C   0  0  0  0  0  0  0  0  0  0  0  0
    1.7970    2.3251    0.0269 C   0  0  0  0  0  0  0  0  0  0  0  0
    2.0526    1.1745   -0.7403 C   0  0  0  0  0  0  0  0  0  0  0  0
    1.1318    0.1118   -0.7439 C   0  0  0  0  0  0  0  0  0  0  0  0
   -1.2750   -1.5539    1.1598 C   0  0  0  0  0  0  0  0  0  0  0  0
   -0.8208   -1.1956    2.2746 O   0  0  0  0  0  0  0  0  0  0  0  0
   -2.0985   -2.7864    1.1523 C   0  0  2  0  0  0  0  0  0  0  0  0
   -1.3673   -3.7928    0.3474 C   0  0  0  0  0  0  0  0  0  0  0  0
   -0.9767   -4.8171    0.9595 O   0  0  0  0  0  0  0  0  0  0  0  0
   -0.7264   -5.5489   -1.6998 H   0  0  0  0  0  0  0  0  0  0  0  0
    0.7145   -4.6815   -1.1289 H   0  0  0  0  0  0  0  0  0  0  0  0
    0.0210   -4.2961   -2.6946 H   0  0  0  0  0  0  0  0  0  0  0  0
   -2.3136   -3.7364   -3.3158 H   0  0  0  0  0  0  0  0  0  0  0  0
   -3.2325   -1.9496   -4.6116 H   0  0  0  0  0  0  0  0  0  0  0  0
   -2.0887    0.8102   -1.6693 H   0  0  0  0  0  0  0  0  0  0  0  0
   -1.1601    1.4288    1.3379 H   0  0  0  0  0  0  0  0  0  0  0  0
    0.4248    3.2503    1.3391 H   0  0  0  0  0  0  0  0  0  0  0  0
    2.4665    3.0974    0.0299 H   0  0  0  0  0  0  0  0  0  0  0  0
    2.9080    1.1121   -1.2971 H   0  0  0  0  0  0  0  0  0  0  0  0
    1.3291   -0.7169   -1.3113 H   0  0  0  0  0  0  0  0  0  0  0  0
   -3.0763   -2.5908    0.7108 H   0  0  0  0  0  0  0  0  0  0  0  0
   -2.2728   -3.1476    2.1718 H   0  0  0  0  0  0  0  0  0  0  0  0
  1  2  1  0  0  0  0 
  2  3  1  0  0  0  0 
  3  4  2  0  0  0  0 
  4  5  1  0  0  0  0 
  5  6  2  0  0  0  0 
  6  7  1  0  0  0  0 
  6  8  1  0  0  0  0 
  8  9  2  0  0  0  0 
  3  9  1  0  0  0  0 
  9 10  1  0  0  0  0 
 10 11  1  0  0  0  0 
 11 12  2  0  0  0  0 
 12 13  1  0  0  0  0 
 13 14  2  0  0  0  0 
 14 15  1  0  0  0  0 
 15 16  2  0  0  0  0 
 11 16  1  0  0  0  0 
 10 17  1  0  0  0  0 
 17 18  2  0  0  0  0 
 17 19  1  0  0  0  0 
 19 20  1  0  0  0  0 
  2 20  1  0  0  0  0 
 20 21  2  0  0  0  0 
  1 22  1  0  0  0  0 
  1 23  1  0  0  0  0 
  1 24  1  0  0  0  0 
  4 25  1  0  0  0  0 
  5 26  1  0  0  0  0 
  8 27  1  0  0  0  0 
 12 28  1  0  0  0  0 
 13 29  1  0  0  0  0 
 14 30  1  0  0  0  0 
 15 31  1  0  0  0  0 
 16 32  1  0  0  0  0 
 19 33  1  0  0  0  0 
 19 34  1  0  0  0  0 
M  END
> <cdk:Title>
clobazam

> <Conformer>
1

> <SuperDrugID>
SD000601

$$$$
