suclofenide
  CDK     0628171801

 37 39  0  0  0  0  0  0  0  0999 V2000
   -4.7946   -0.0810    4.6282 O   0  0  0  0  0  0  0  0  0  0  0  0
   -3.7156   -0.1494    5.4459 C   0  0  0  0  0  0  0  0  0  0  0  0
   -2.4257   -0.2576    5.0519 N   0  0  0  0  0  0  0  0  0  0  0  0
   -3.7833   -0.1738    6.8378 C   0  0  0  0  0  0  0  0  0  0  0  0
   -1.6588   -0.3729    6.1592 C   0  0  0  0  0  0  0  0  0  0  0  0
   -1.9789   -0.2799    3.7556 C   0  0  0  0  0  0  0  0  0  0  0  0
   -2.4773   -0.3324    7.2817 C   0  0  0  0  0  0  0  0  0  0  0  0
   -4.9435   -0.0667    7.6331 C   0  0  0  0  0  0  0  0  0  0  0  0
   -0.3110   -0.5046    6.1992 O   0  0  0  0  0  0  0  0  0  0  0  0
   -2.1894    0.8041    2.8629 C   0  0  0  0  0  0  0  0  0  0  0  0
   -1.2860   -1.4212    3.2859 C   0  0  0  0  0  0  0  0  0  0  0  0
   -5.7857    1.0618    7.5062 C   0  0  0  0  0  0  0  0  0  0  0  0
   -5.2874   -1.0802    8.5575 C   0  0  0  0  0  0  0  0  0  0  0  0
   -2.9533    2.2404    3.3471 Cl  0  0  0  0  0  0  0  0  0  0  0  0
   -1.7337    0.7214    1.5313 C   0  0  0  0  0  0  0  0  0  0  0  0
   -0.8185   -1.4907    1.9620 C   0  0  0  0  0  0  0  0  0  0  0  0
   -6.9513    1.1743    8.2850 C   0  0  0  0  0  0  0  0  0  0  0  0
   -6.4619   -0.9743    9.3261 C   0  0  0  0  0  0  0  0  0  0  0  0
   -1.0465   -0.4203    1.0749 C   0  0  0  0  0  0  0  0  0  0  0  0
   -7.2913    0.1540    9.1912 C   0  0  0  0  0  0  0  0  0  0  0  0
   -0.4840   -0.4827   -0.6025 S   0  0  1  0  0  0  0  0  0  0  0  0
   -1.8648   -0.3602   -1.6850 N   0  0  2  0  0  0  0  0  0  0  0  0
    0.4876    0.7576   -0.9038 O   0  0  0  0  0  0  0  0  0  0  0  0
    0.2929   -1.8489   -0.9219 O   0  0  0  0  0  0  0  0  0  0  0  0
   -5.0158   -1.0192    4.4476 H   0  0  0  0  0  0  0  0  0  0  0  0
   -2.1731   -0.3988    8.2549 H   0  0  0  0  0  0  0  0  0  0  0  0
    0.0299    0.4111    6.1168 H   0  0  0  0  0  0  0  0  0  0  0  0
   -1.1222   -2.2183    3.9064 H   0  0  0  0  0  0  0  0  0  0  0  0
   -5.5544    1.8144    6.8537 H   0  0  0  0  0  0  0  0  0  0  0  0
   -4.6967   -1.9071    8.6692 H   0  0  0  0  0  0  0  0  0  0  0  0
   -1.8977    1.4990    0.8871 H   0  0  0  0  0  0  0  0  0  0  0  0
   -0.3177   -2.3278    1.6548 H   0  0  0  0  0  0  0  0  0  0  0  0
   -7.5499    1.9981    8.1922 H   0  0  0  0  0  0  0  0  0  0  0  0
   -6.7145   -1.7179    9.9812 H   0  0  0  0  0  0  0  0  0  0  0  0
   -8.1399    0.2347    9.7540 H   0  0  0  0  0  0  0  0  0  0  0  0
   -1.5040   -0.4347   -2.6391 H   0  0  0  0  0  0  0  0  0  0  0  0
   -2.2331    0.5888   -1.5847 H   0  0  0  0  0  0  0  0  0  0  0  0
  1  2  1  0  0  0  0 
  2  3  1  0  0  0  0 
  4  2  2  0  0  0  0 
  3  5  1  0  0  0  0 
  3  6  1  0  0  0  0 
  4  7  1  0  0  0  0 
  4  8  1  0  0  0  0 
  5  7  2  0  0  0  0 
  5  9  1  0  0  0  0 
  6 10  2  0  0  0  0 
  6 11  1  0  0  0  0 
  8 12  2  0  0  0  0 
  8 13  1  0  0  0  0 
 10 14  1  0  0  0  0 
 10 15  1  0  0  0  0 
 11 16  2  0  0  0  0 
 12 17  1  0  0  0  0 
 13 18  2  0  0  0  0 
 15 19  2  0  0  0  0 
 16 19  1  0  0  0  0 
 17 20  2  0  0  0  0 
 18 20  1  0  0  0  0 
 19 21  1  0  0  0  0 
 21 22  1  0  0  0  0 
 21 23  2  0  0  0  0 
 21 24  2  0  0  0  0 
 25  1  1  0  0  0  0 
 26  7  1  0  0  0  0 
 27  9  1  0  0  0  0 
 28 11  1  0  0  0  0 
 29 12  1  0  0  0  0 
 30 13  1  0  0  0  0 
 31 15  1  0  0  0  0 
 32 16  1  0  0  0  0 
 33 17  1  0  0  0  0 
 34 18  1  0  0  0  0 
 35 20  1  0  0  0  0 
 36 22  1  0  0  0  0 
 37 22  1  0  0  0  0 
M  END
> <cdk:Title>
suclofenide

> <Conformer>
1

> <SuperDrugID>
SD003270

$$$$
