endralazine
  CDK     0628171801

 35 37  0  0  0  0  0  0  0  0999 V2000
   -0.3639   -0.5878    0.4846 C   0  0  0  0  0  0  0  0  0  0  0  0
   -1.3562   -1.3241    0.2671 O   0  0  0  0  0  0  0  0  0  0  0  0
    0.8727   -1.1395    0.8211 N   0  0  0  0  0  0  0  0  0  0  0  0
   -0.6490    0.7959    0.3502 C   0  0  0  0  0  0  0  0  0  0  0  0
    2.0476   -0.3086    1.0695 C   0  0  2  0  0  0  0  0  0  0  0  0
    1.0246   -2.5792    0.9730 C   0  0  1  0  0  0  0  0  0  0  0  0
   -0.5115    1.6855    1.4411 C   0  0  0  0  0  0  0  0  0  0  0  0
   -1.1126    1.3029   -0.8884 C   0  0  0  0  0  0  0  0  0  0  0  0
    3.3725   -0.9823    0.9326 C   0  0  0  0  0  0  0  0  0  0  0  0
    2.2415   -3.0981    0.1708 C   0  0  1  0  0  0  0  0  0  0  0  0
   -0.8175    3.0532    1.2935 C   0  0  0  0  0  0  0  0  0  0  0  0
   -1.4172    2.6685   -1.0362 C   0  0  0  0  0  0  0  0  0  0  0  0
    3.4539   -2.3269    0.5017 C   0  0  0  0  0  0  0  0  0  0  0  0
    4.5784   -0.3131    1.2386 C   0  0  0  0  0  0  0  0  0  0  0  0
   -1.2699    3.5436    0.0545 C   0  0  0  0  0  0  0  0  0  0  0  0
    4.6751   -2.9116    0.3936 N   0  0  0  0  0  0  0  0  0  0  0  0
    5.8081   -0.9892    1.1010 C   0  0  0  0  0  0  0  0  0  0  0  0
    5.7834   -2.2805    0.6784 N   0  0  0  0  0  0  0  0  0  0  0  0
    6.9752   -0.3620    1.3852 N   0  0  0  0  0  0  0  0  0  0  0  0
    8.1760   -0.9734    1.3053 N   0  0  2  0  0  0  0  0  0  0  0  0
    1.9737    0.0734    2.0903 H   0  0  0  0  0  0  0  0  0  0  0  0
    2.0590    0.5429    0.3834 H   0  0  0  0  0  0  0  0  0  0  0  0
    1.1721   -2.7999    2.0340 H   0  0  0  0  0  0  0  0  0  0  0  0
    0.1545   -3.1545    0.6441 H   0  0  0  0  0  0  0  0  0  0  0  0
   -0.1979    1.3437    2.3529 H   0  0  0  0  0  0  0  0  0  0  0  0
   -1.2312    0.6803   -1.6937 H   0  0  0  0  0  0  0  0  0  0  0  0
    2.3920   -4.1576    0.3982 H   0  0  0  0  0  0  0  0  0  0  0  0
    2.0467   -2.9974   -0.9006 H   0  0  0  0  0  0  0  0  0  0  0  0
   -0.7221    3.6883    2.0893 H   0  0  0  0  0  0  0  0  0  0  0  0
   -1.7489    3.0273   -1.9358 H   0  0  0  0  0  0  0  0  0  0  0  0
    4.5603    0.6581    1.5657 H   0  0  0  0  0  0  0  0  0  0  0  0
   -1.4941    4.5355   -0.0528 H   0  0  0  0  0  0  0  0  0  0  0  0
    6.9490    0.5692    1.6542 H   0  0  0  0  0  0  0  0  0  0  0  0
    8.8743   -0.3026    1.6342 H   0  0  0  0  0  0  0  0  0  0  0  0
    8.3657   -1.1361    0.3134 H   0  0  0  0  0  0  0  0  0  0  0  0
  1  2  2  0  0  0  0 
  1  3  1  0  0  0  0 
  1  4  1  0  0  0  0 
  3  5  1  0  0  0  0 
  3  6  1  0  0  0  0 
  4  7  2  0  0  0  0 
  4  8  1  0  0  0  0 
  5  9  1  0  0  0  0 
  6 10  1  0  0  0  0 
  7 11  1  0  0  0  0 
  8 12  2  0  0  0  0 
  9 13  2  0  0  0  0 
  9 14  1  0  0  0  0 
 10 13  1  0  0  0  0 
 11 15  2  0  0  0  0 
 12 15  1  0  0  0  0 
 13 16  1  0  0  0  0 
 14 17  2  0  0  0  0 
 16 18  2  0  0  0  0 
 17 18  1  0  0  0  0 
 17 19  1  0  0  0  0 
 19 20  1  0  0  0  0 
 21  5  1  0  0  0  0 
 22  5  1  0  0  0  0 
 23  6  1  0  0  0  0 
 24  6  1  0  0  0  0 
 25  7  1  0  0  0  0 
 26  8  1  0  0  0  0 
 27 10  1  0  0  0  0 
 28 10  1  0  0  0  0 
 29 11  1  0  0  0  0 
 30 12  1  0  0  0  0 
 31 14  1  0  0  0  0 
 32 15  1  0  0  0  0 
 33 19  1  0  0  0  0 
 34 20  1  0  0  0  0 
 35 20  1  0  0  0  0 
M  END
> <cdk:Title>
endralazine

> <Conformer>
1

> <SuperDrugID>
SD000896

$$$$
