mafenide
  CDK     0628171801

 22 22  0  0  0  0  0  0  0  0999 V2000
   -3.7665    2.8800   -1.0448 N   0  0  1  0  0  0  0  0  0  0  0  0
   -3.0729    3.9410   -0.3124 C   0  0  2  0  0  0  0  0  0  0  0  0
   -2.5866    3.4062    0.9820 C   0  0  0  0  0  0  0  0  0  0  0  0
   -1.3000    2.8278    1.0828 C   0  0  0  0  0  0  0  0  0  0  0  0
   -0.8442    2.2972    2.3041 C   0  0  0  0  0  0  0  0  0  0  0  0
   -1.6665    2.3366    3.4484 C   0  0  0  0  0  0  0  0  0  0  0  0
   -2.9528    2.9071    3.3548 C   0  0  0  0  0  0  0  0  0  0  0  0
   -3.4075    3.4371    2.1337 C   0  0  0  0  0  0  0  0  0  0  0  0
   -1.1030    1.6896    4.9983 S   0  0  1  0  0  0  0  0  0  0  0  0
   -1.0835    2.9804    6.1907 N   0  0  2  0  0  0  0  0  0  0  0  0
   -2.0936    0.5461    5.5315 O   0  0  0  0  0  0  0  0  0  0  0  0
    0.3808    1.0908    4.8909 O   0  0  0  0  0  0  0  0  0  0  0  0
   -4.0318    3.2599   -1.9547 H   0  0  0  0  0  0  0  0  0  0  0  0
   -3.0808    2.1448   -1.2228 H   0  0  0  0  0  0  0  0  0  0  0  0
   -3.7606    4.7743   -0.1622 H   0  0  0  0  0  0  0  0  0  0  0  0
   -2.2466    4.3054   -0.9238 H   0  0  0  0  0  0  0  0  0  0  0  0
   -0.6867    2.7872    0.2654 H   0  0  0  0  0  0  0  0  0  0  0  0
    0.0897    1.8833    2.3491 H   0  0  0  0  0  0  0  0  0  0  0  0
   -3.5637    2.9393    4.1753 H   0  0  0  0  0  0  0  0  0  0  0  0
   -4.3448    3.8461    2.0883 H   0  0  0  0  0  0  0  0  0  0  0  0
   -0.6776    2.5946    7.0441 H   0  0  0  0  0  0  0  0  0  0  0  0
   -2.0582    3.1991    6.4025 H   0  0  0  0  0  0  0  0  0  0  0  0
  1  2  1  0  0  0  0 
  2  3  1  0  0  0  0 
  3  4  2  0  0  0  0 
  4  5  1  0  0  0  0 
  5  6  2  0  0  0  0 
  6  7  1  0  0  0  0 
  7  8  2  0  0  0  0 
  3  8  1  0  0  0  0 
  6  9  1  0  0  0  0 
  9 10  1  0  0  0  0 
  9 11  2  0  0  0  0 
  9 12  2  0  0  0  0 
  1 13  1  0  0  0  0 
  1 14  1  0  0  0  0 
  2 15  1  0  0  0  0 
  2 16  1  0  0  0  0 
  4 17  1  0  0  0  0 
  5 18  1  0  0  0  0 
  7 19  1  0  0  0  0 
  8 20  1  0  0  0  0 
 10 21  1  0  0  0  0 
 10 22  1  0  0  0  0 
M  END
> <cdk:Title>
mafenide

> <Conformer>
1

> <SuperDrugID>
SD001438

$$$$
