tedizolid phosphate
  CDK     0628171802

 47 50  0  0  0  0  0  0  0  0999 V2000
    9.6734    1.8515   -2.8001 C   0  0  0  0  0  0  0  0  0  0  0  0
    9.0657    2.3106   -1.6122 C   0  0  0  0  0  0  0  0  0  0  0  0
    9.8973    2.7753   -0.5711 C   0  0  0  0  0  0  0  0  0  0  0  0
   11.2464    2.7581   -0.7248 N   0  0  0  0  0  0  0  0  0  0  0  0
   11.8686    2.3057   -1.8482 C   0  0  0  0  0  0  0  0  0  0  0  0
   11.0745    1.8410   -2.9206 C   0  0  0  0  0  0  0  0  0  0  0  0
   13.2765    2.3061   -1.9067 C   0  0  0  0  0  0  0  0  0  0  0  0
    7.6635    2.2575   -1.4611 C   0  0  0  0  0  0  0  0  0  0  0  0
   14.1087    2.7441   -0.9505 N   0  0  0  0  0  0  0  0  0  0  0  0
   15.3129    2.5673   -1.3883 N   0  0  0  0  0  0  0  0  0  0  0  0
   15.2561    2.0346   -2.5677 N   0  0  0  0  0  0  0  0  0  0  0  0
   14.0257    1.8577   -2.9234 N   0  0  0  0  0  0  0  0  0  0  0  0
    5.4075    3.0900   -1.9024 C   0  0  0  0  0  0  0  0  0  0  0  0
    4.8314    2.0323   -1.1529 C   0  0  0  0  0  0  0  0  0  0  0  0
    5.7162    1.1024   -0.5543 C   0  0  0  0  0  0  0  0  0  0  0  0
    7.1077    1.2131   -0.6965 C   0  0  0  0  0  0  0  0  0  0  0  0
    6.8040    3.2007   -2.0684 C   0  0  0  0  0  0  0  0  0  0  0  0
    3.4602    1.9056   -0.9971 N   0  0  0  0  0  0  0  0  0  0  0  0
    2.5111    2.2032   -1.9205 C   0  0  0  0  0  0  0  0  0  0  0  0
    1.2696    1.9972   -1.4481 O   0  0  0  0  0  0  0  0  0  0  0  0
    1.3013    1.4058   -0.1561 C   0  0  2  0  0  0  0  0  0  0  0  0
    2.8130    1.4437    0.1970 C   0  0  1  0  0  0  0  0  0  0  0  0
    2.6968    2.5988   -3.0938 O   0  0  0  0  0  0  0  0  0  0  0  0
    7.2807    4.1849   -2.7878 F   0  0  0  0  0  0  0  0  0  0  0  0
   16.3897    1.6937   -3.3587 C   0  0  0  0  0  0  0  0  0  0  0  0
    0.6989   -0.0167   -0.2653 C   0  0  1  0  0  0  0  0  0  0  0  0
   -0.6428    0.1037   -0.7802 O   0  0  0  0  0  0  0  0  0  0  0  0
   -1.2639   -1.2250   -1.4108 P   0  0  2  0  0  0  0  0  0  0  0  0
   -1.1634   -2.4085   -0.3636 O   0  0  0  0  0  0  0  0  0  0  0  0
   -0.4284   -1.6131   -2.7020 O   0  0  0  0  0  0  0  0  0  0  0  0
   -2.6653   -0.9910   -1.7762 O   0  0  0  0  0  0  0  0  0  0  0  0
    9.1038    1.5070   -3.5780 H   0  0  0  0  0  0  0  0  0  0  0  0
    9.5035    3.1201    0.3090 H   0  0  0  0  0  0  0  0  0  0  0  0
   11.5014    1.4902   -3.7837 H   0  0  0  0  0  0  0  0  0  0  0  0
    4.8106    3.8011   -2.3292 H   0  0  0  0  0  0  0  0  0  0  0  0
    5.3628    0.3155   -0.0093 H   0  0  0  0  0  0  0  0  0  0  0  0
    7.7077    0.5151   -0.2454 H   0  0  0  0  0  0  0  0  0  0  0  0
    0.7216    2.0131    0.5446 H   0  0  0  0  0  0  0  0  0  0  0  0
    3.1634    0.4553    0.5002 H   0  0  0  0  0  0  0  0  0  0  0  0
    3.0029    2.1446    1.0144 H   0  0  0  0  0  0  0  0  0  0  0  0
   16.9587    2.5972   -3.5909 H   0  0  0  0  0  0  0  0  0  0  0  0
   16.0844    1.2180   -4.2944 H   0  0  0  0  0  0  0  0  0  0  0  0
   17.0301    0.9984   -2.8108 H   0  0  0  0  0  0  0  0  0  0  0  0
    1.3490   -0.6091   -0.9219 H   0  0  0  0  0  0  0  0  0  0  0  0
    0.6778   -0.4848    0.7238 H   0  0  0  0  0  0  0  0  0  0  0  0
   -0.2051   -2.4964   -0.1823 H   0  0  0  0  0  0  0  0  0  0  0  0
   -0.8504   -2.4305   -3.0371 H   0  0  0  0  0  0  0  0  0  0  0  0
  1  2  2  0  0  0  0 
  1  6  1  0  0  0  0 
  2  3  1  0  0  0  0 
  3  4  2  0  0  0  0 
  4  5  1  0  0  0  0 
  5  6  2  0  0  0  0 
  5  7  1  0  0  0  0 
  2  8  1  0  0  0  0 
  9 10  2  0  0  0  0 
 10 11  1  0  0  0  0 
 11 12  1  0  0  0  0 
  7  9  1  0  0  0  0 
  7 12  2  0  0  0  0 
 13 14  1  0  0  0  0 
 14 15  2  0  0  0  0 
 15 16  1  0  0  0  0 
 13 17  2  0  0  0  0 
 16  8  2  0  0  0  0 
  8 17  1  0  0  0  0 
 14 18  1  0  0  0  0 
 19 20  1  0  0  0  0 
 20 21  1  0  0  0  0 
 21 22  1  0  0  0  0 
 18 19  1  0  0  0  0 
 18 22  1  0  0  0  0 
 19 23  2  0  0  0  0 
 17 24  1  0  0  0  0 
 11 25  1  0  0  0  0 
 21 26  1  0  0  0  0 
 26 27  1  0  0  0  0 
 27 28  1  0  0  0  0 
 28 29  1  0  0  0  0 
 28 30  1  0  0  0  0 
 28 31  2  0  0  0  0 
  1 32  1  0  0  0  0 
  3 33  1  0  0  0  0 
  6 34  1  0  0  0  0 
 13 35  1  0  0  0  0 
 15 36  1  0  0  0  0 
 16 37  1  0  0  0  0 
 21 38  1  0  0  0  0 
 22 39  1  0  0  0  0 
 22 40  1  0  0  0  0 
 25 41  1  0  0  0  0 
 25 42  1  0  0  0  0 
 25 43  1  0  0  0  0 
 26 44  1  0  0  0  0 
 26 45  1  0  0  0  0 
 29 46  1  0  0  0  0 
 30 47  1  0  0  0  0 
M  END
> <cdk:Title>
tedizolid phosphate

> <Conformer>
1

> <SuperDrugID>
SD003815

$$$$
