calcifediol
  CDK     0628171802

 73 75  0  0  0  0  0  0  0  0999 V2000
    7.4979   -5.5911    4.5785 C   0  0  0  0  0  0  0  0  0  0  0  0
    9.0108   -5.2905    4.2371 C   0  0  2  0  0  0  0  0  0  0  0  0
    9.1804   -4.5627    2.8533 C   0  0  2  0  0  0  0  0  0  0  0  0
    9.8322   -6.6155    3.9871 C   0  0  1  0  0  0  0  0  0  0  0  0
    9.6346   -4.3350    5.3236 C   0  0  1  0  0  0  0  0  0  0  0  0
    8.4456   -3.2745    2.8430 C   0  0  0  0  0  0  0  0  0  0  0  0
    8.9381   -5.6887    1.8199 C   0  0  1  0  0  0  0  0  0  0  0  0
    9.6210   -7.8606    4.9381 C   0  0  1  0  0  0  0  0  0  0  0  0
    9.5687   -6.9376    2.4769 C   0  0  1  0  0  0  0  0  0  0  0  0
    9.0274   -2.9022    5.2732 C   0  0  1  0  0  0  0  0  0  0  0  0
    7.3718   -3.0641    2.0425 C   0  0  0  0  0  0  0  0  0  0  0  0
    8.9795   -2.3146    3.8335 C   0  0  2  0  0  0  0  0  0  0  0  0
   10.4673   -9.1221    4.5323 C   0  0  1  0  0  0  0  0  0  0  0  0
    9.8311   -7.5559    6.4569 C   0  0  0  0  0  0  0  0  0  0  0  0
    6.4775   -2.0248    2.0747 C   0  0  0  0  0  0  0  0  0  0  0  0
   12.0114   -9.0362    4.7368 C   0  0  1  0  0  0  0  0  0  0  0  0
    5.2724   -1.9848    1.4533 C   0  0  0  0  0  0  0  0  0  0  0  0
   12.6884  -10.4585    4.5170 C   0  0  2  0  0  0  0  0  0  0  0  0
    4.7717   -2.9741    0.6347 C   0  0  0  0  0  0  0  0  0  0  0  0
    4.3932   -0.8075    1.5657 C   0  0  2  0  0  0  0  0  0  0  0  0
   14.2336  -10.5238    4.7724 C   0  0  2  0  0  0  0  0  0  0  0  0
    4.4644   -4.2000    1.0954 C   0  0  0  0  0  0  0  0  0  0  0  0
    4.5332   -2.5816   -0.7593 C   0  0  2  0  0  0  0  0  0  0  0  0
    4.0677   -0.2187    0.1603 C   0  0  2  0  0  0  0  0  0  0  0  0
   14.7864  -11.9049    4.3151 C   0  0  0  0  0  0  0  0  0  0  0  0
   14.6071  -10.2816    6.2652 C   0  0  0  0  0  0  0  0  0  0  0  0
   14.8846   -9.5220    3.9880 O   0  0  0  0  0  0  0  0  0  0  0  0
    3.6036   -1.3351   -0.8218 C   0  0  2  0  0  0  0  0  0  0  0  0
    5.2161    0.4478   -0.3643 O   0  0  0  0  0  0  0  0  0  0  0  0
   10.2392   -4.3009    2.7040 H   0  0  0  0  0  0  0  0  0  0  0  0
   10.8918   -6.3491    4.0684 H   0  0  0  0  0  0  0  0  0  0  0  0
    6.8765   -4.6973    4.5162 H   0  0  0  0  0  0  0  0  0  0  0  0
    7.3896   -5.9743    5.5914 H   0  0  0  0  0  0  0  0  0  0  0  0
    7.0670   -6.3274    3.9008 H   0  0  0  0  0  0  0  0  0  0  0  0
    9.4876   -4.7316    6.3274 H   0  0  0  0  0  0  0  0  0  0  0  0
   10.7151   -4.2500    5.1684 H   0  0  0  0  0  0  0  0  0  0  0  0
    7.8725   -5.8741    1.6633 H   0  0  0  0  0  0  0  0  0  0  0  0
    9.3972   -5.4553    0.8552 H   0  0  0  0  0  0  0  0  0  0  0  0
    8.5766   -8.1705    4.8248 H   0  0  0  0  0  0  0  0  0  0  0  0
   10.5052   -7.1998    1.9751 H   0  0  0  0  0  0  0  0  0  0  0  0
    8.8777   -7.7778    2.3611 H   0  0  0  0  0  0  0  0  0  0  0  0
    8.0139   -2.9185    5.6839 H   0  0  0  0  0  0  0  0  0  0  0  0
    9.6206   -2.2398    5.9101 H   0  0  0  0  0  0  0  0  0  0  0  0
    7.1853   -3.7584    1.3656 H   0  0  0  0  0  0  0  0  0  0  0  0
    8.4367   -1.3722    3.8833 H   0  0  0  0  0  0  0  0  0  0  0  0
    9.9990   -2.0557    3.5305 H   0  0  0  0  0  0  0  0  0  0  0  0
   10.0881   -9.9694    5.1126 H   0  0  0  0  0  0  0  0  0  0  0  0
   10.2856   -9.3746    3.4858 H   0  0  0  0  0  0  0  0  0  0  0  0
    9.0208   -6.9563    6.8666 H   0  0  0  0  0  0  0  0  0  0  0  0
   10.7675   -7.0197    6.6166 H   0  0  0  0  0  0  0  0  0  0  0  0
    9.8580   -8.4771    7.0442 H   0  0  0  0  0  0  0  0  0  0  0  0
    6.7168   -1.2249    2.6047 H   0  0  0  0  0  0  0  0  0  0  0  0
   12.3936   -8.1923    4.1017 H   0  0  0  0  0  0  0  0  0  0  0  0
   12.1965   -8.7548    5.7720 H   0  0  0  0  0  0  0  0  0  0  0  0
   12.4890  -10.7485    3.4816 H   0  0  0  0  0  0  0  0  0  0  0  0
   12.1950  -11.1911    5.1621 H   0  0  0  0  0  0  0  0  0  0  0  0
    4.8195   -0.0126    2.1859 H   0  0  0  0  0  0  0  0  0  0  0  0
    3.4592   -1.1129    2.0503 H   0  0  0  0  0  0  0  0  0  0  0  0
    4.5979   -4.4409    2.0501 H   0  0  0  0  0  0  0  0  0  0  0  0
    4.0825   -4.8899    0.4938 H   0  0  0  0  0  0  0  0  0  0  0  0
    4.0837   -3.3862   -1.3486 H   0  0  0  0  0  0  0  0  0  0  0  0
    5.4928   -2.3367   -1.2254 H   0  0  0  0  0  0  0  0  0  0  0  0
    3.2739    0.5267    0.2587 H   0  0  0  0  0  0  0  0  0  0  0  0
   14.5709  -12.0758    3.2588 H   0  0  0  0  0  0  0  0  0  0  0  0
   14.3323  -12.7099    4.8965 H   0  0  0  0  0  0  0  0  0  0  0  0
   15.8691  -11.9520    4.4484 H   0  0  0  0  0  0  0  0  0  0  0  0
   15.6817  -10.4119    6.4158 H   0  0  0  0  0  0  0  0  0  0  0  0
   14.0818  -10.9889    6.9102 H   0  0  0  0  0  0  0  0  0  0  0  0
   14.3536   -9.2676    6.5787 H   0  0  0  0  0  0  0  0  0  0  0  0
   15.8429   -9.6248    4.1772 H   0  0  0  0  0  0  0  0  0  0  0  0
    2.5864   -1.6383   -0.5578 H   0  0  0  0  0  0  0  0  0  0  0  0
    3.5806   -0.9450   -1.8428 H   0  0  0  0  0  0  0  0  0  0  0  0
    5.4129    1.1636    0.2774 H   0  0  0  0  0  0  0  0  0  0  0  0
  2  1  1  0  0  0  0 
  2  3  1  0  0  0  0 
  4  2  1  0  0  0  0 
  2  5  1  0  0  0  0 
  3  6  1  0  0  0  0 
  3  7  1  0  0  0  0 
  3 30  1  0  0  0  0 
  8  4  1  0  0  0  0 
  4  9  1  0  0  0  0 
  4 31  1  0  0  0  0 
  5 10  1  0  0  0  0 
  6 11  2  0  0  0  0 
  6 12  1  0  0  0  0 
  7  9  1  0  0  0  0 
  8 13  1  0  0  0  0 
  8 14  1  0  0  0  0 
 10 12  1  0  0  0  0 
 11 15  1  0  0  0  0 
 13 16  1  0  0  0  0 
 15 17  2  0  0  0  0 
 16 18  1  0  0  0  0 
 17 19  1  0  0  0  0 
 17 20  1  0  0  0  0 
 18 21  1  0  0  0  0 
 19 22  2  0  0  0  0 
 19 23  1  0  0  0  0 
 24 20  1  0  0  0  0 
 21 25  1  0  0  0  0 
 21 26  1  0  0  0  0 
 21 27  1  0  0  0  0 
 23 28  1  0  0  0  0 
 24 28  1  0  0  0  0 
 24 29  1  0  0  0  0 
  1 32  1  0  0  0  0 
  1 33  1  0  0  0  0 
  1 34  1  0  0  0  0 
  5 35  1  0  0  0  0 
  5 36  1  0  0  0  0 
  7 37  1  0  0  0  0 
  7 38  1  0  0  0  0 
  8 39  1  0  0  0  0 
  9 40  1  0  0  0  0 
  9 41  1  0  0  0  0 
 10 42  1  0  0  0  0 
 10 43  1  0  0  0  0 
 11 44  1  0  0  0  0 
 12 45  1  0  0  0  0 
 12 46  1  0  0  0  0 
 13 47  1  0  0  0  0 
 13 48  1  0  0  0  0 
 14 49  1  0  0  0  0 
 14 50  1  0  0  0  0 
 14 51  1  0  0  0  0 
 15 52  1  0  0  0  0 
 16 53  1  0  0  0  0 
 16 54  1  0  0  0  0 
 18 55  1  0  0  0  0 
 18 56  1  0  0  0  0 
 20 57  1  0  0  0  0 
 20 58  1  0  0  0  0 
 22 59  1  0  0  0  0 
 22 60  1  0  0  0  0 
 23 61  1  0  0  0  0 
 23 62  1  0  0  0  0 
 24 63  1  0  0  0  0 
 25 64  1  0  0  0  0 
 25 65  1  0  0  0  0 
 25 66  1  0  0  0  0 
 26 67  1  0  0  0  0 
 26 68  1  0  0  0  0 
 26 69  1  0  0  0  0 
 27 70  1  0  0  0  0 
 28 71  1  0  0  0  0 
 28 72  1  0  0  0  0 
 29 73  1  0  0  0  0 
M  END
> <cdk:Title>
calcifediol

> <Conformer>
1

> <SuperDrugID>
SD000404

$$$$
