adrenalone
  CDK     0628171802

 24 24  0  0  0  0  0  0  0  0999 V2000
    0.6741   -2.2745   -0.5116 C   0  0  0  0  0  0  0  0  0  0  0  0
    0.1477   -1.1017    0.2327 C   0  0  2  0  0  0  0  0  0  0  0  0
    1.8776   -2.5626   -0.2966 O   0  0  0  0  0  0  0  0  0  0  0  0
   -0.0878   -3.0791   -1.4232 C   0  0  0  0  0  0  0  0  0  0  0  0
   -0.0693    0.0238   -0.7025 N   0  0  2  0  0  0  0  0  0  0  0  0
   -1.4922   -2.9322   -1.5734 C   0  0  0  0  0  0  0  0  0  0  0  0
    0.5453   -4.0854   -2.2015 C   0  0  0  0  0  0  0  0  0  0  0  0
   -0.6376    1.2353   -0.0779 C   0  0  0  0  0  0  0  0  0  0  0  0
   -2.2375   -3.7688   -2.4302 C   0  0  0  0  0  0  0  0  0  0  0  0
   -0.1913   -4.9220   -3.0612 C   0  0  0  0  0  0  0  0  0  0  0  0
   -3.5833   -3.6189   -2.5503 O   0  0  0  0  0  0  0  0  0  0  0  0
   -1.5851   -4.7751   -3.1701 C   0  0  0  0  0  0  0  0  0  0  0  0
   -2.2811   -5.6088   -3.9874 O   0  0  0  0  0  0  0  0  0  0  0  0
    0.8651   -0.7876    0.9971 H   0  0  0  0  0  0  0  0  0  0  0  0
   -0.7775   -1.3682    0.7489 H   0  0  0  0  0  0  0  0  0  0  0  0
   -0.7396   -0.2859   -1.4086 H   0  0  0  0  0  0  0  0  0  0  0  0
   -1.9993   -2.2169   -1.0504 H   0  0  0  0  0  0  0  0  0  0  0  0
    1.5568   -4.2292   -2.1481 H   0  0  0  0  0  0  0  0  0  0  0  0
   -0.6837    2.0231   -0.8307 H   0  0  0  0  0  0  0  0  0  0  0  0
   -1.6487    1.0431    0.2890 H   0  0  0  0  0  0  0  0  0  0  0  0
   -0.0093    1.5802    0.7464 H   0  0  0  0  0  0  0  0  0  0  0  0
    0.2907   -5.6459   -3.6015 H   0  0  0  0  0  0  0  0  0  0  0  0
   -3.8723   -3.1038   -1.7677 H   0  0  0  0  0  0  0  0  0  0  0  0
   -3.2152   -5.5594   -3.6913 H   0  0  0  0  0  0  0  0  0  0  0  0
  1  2  1  0  0  0  0 
  1  3  2  0  0  0  0 
  1  4  1  0  0  0  0 
  2  5  1  0  0  0  0 
  4  6  2  0  0  0  0 
  4  7  1  0  0  0  0 
  5  8  1  0  0  0  0 
  6  9  1  0  0  0  0 
  7 10  2  0  0  0  0 
  9 11  1  0  0  0  0 
  9 12  2  0  0  0  0 
 10 12  1  0  0  0  0 
 12 13  1  0  0  0  0 
 14  2  1  0  0  0  0 
 15  2  1  0  0  0  0 
 16  5  1  0  0  0  0 
 17  6  1  0  0  0  0 
 18  7  1  0  0  0  0 
 19  8  1  0  0  0  0 
 20  8  1  0  0  0  0 
 21  8  1  0  0  0  0 
 22 10  1  0  0  0  0 
 23 11  1  0  0  0  0 
 24 13  1  0  0  0  0 
M  END
> <cdk:Title>
adrenalone

> <Conformer>
1

> <SuperDrugID>
SD000071

$$$$
