picotamide
  CDK     0628171801

 48 50  0  0  0  0  0  0  0  0999 V2000
    3.8596   -5.8124    3.2250 C   0  0  0  0  0  0  0  0  0  0  0  0
    4.4194   -6.2923    2.0750 N   0  0  0  0  0  0  0  0  0  0  0  0
    4.3321   -6.1562    4.3364 O   0  0  0  0  0  0  0  0  0  0  0  0
    2.7365   -4.9398    3.1918 C   0  0  0  0  0  0  0  0  0  0  0  0
    5.4771   -7.2542    2.0158 C   0  0  1  0  0  0  0  0  0  0  0  0
    1.7248   -5.0272    4.1840 C   0  0  0  0  0  0  0  0  0  0  0  0
    2.5892   -3.9743    2.1629 C   0  0  0  0  0  0  0  0  0  0  0  0
    4.9859   -8.6280    2.3076 C   0  0  0  0  0  0  0  0  0  0  0  0
    1.7327   -6.0109    5.1431 O   0  0  0  0  0  0  0  0  0  0  0  0
    0.6573   -4.1114    4.1876 C   0  0  0  0  0  0  0  0  0  0  0  0
    1.4792   -3.0907    2.1117 C   0  0  0  0  0  0  0  0  0  0  0  0
    5.2548   -9.2707    3.5388 C   0  0  0  0  0  0  0  0  0  0  0  0
    4.2320   -9.3419    1.3479 C   0  0  0  0  0  0  0  0  0  0  0  0
    0.9293   -7.1449    4.7584 C   0  0  0  0  0  0  0  0  0  0  0  0
    0.5351   -3.1599    3.1652 C   0  0  0  0  0  0  0  0  0  0  0  0
    1.2854   -2.1754    1.0325 C   0  0  0  0  0  0  0  0  0  0  0  0
    4.7908  -10.5764    3.7804 C   0  0  0  0  0  0  0  0  0  0  0  0
    3.7909  -10.5985    1.6120 N   0  0  0  0  0  0  0  0  0  0  0  0
    2.2897   -1.8525    0.1643 N   0  0  0  0  0  0  0  0  0  0  0  0
    0.1530   -1.6615    0.8574 O   0  0  0  0  0  0  0  0  0  0  0  0
    4.0442  -11.2300    2.7853 C   0  0  0  0  0  0  0  0  0  0  0  0
    2.1661   -0.9637   -0.9496 C   0  0  2  0  0  0  0  0  0  0  0  0
    2.0574    0.4546   -0.5214 C   0  0  0  0  0  0  0  0  0  0  0  0
    3.1577    1.1120    0.0747 C   0  0  0  0  0  0  0  0  0  0  0  0
    0.8658    1.1946   -0.6984 C   0  0  0  0  0  0  0  0  0  0  0  0
    3.0607    2.4609    0.4608 C   0  0  0  0  0  0  0  0  0  0  0  0
    0.8018    2.4966   -0.3178 N   0  0  0  0  0  0  0  0  0  0  0  0
    1.8519    3.1448    0.2477 C   0  0  0  0  0  0  0  0  0  0  0  0
    4.0534   -5.9815    1.2303 H   0  0  0  0  0  0  0  0  0  0  0  0
    5.8994   -7.2332    1.0089 H   0  0  0  0  0  0  0  0  0  0  0  0
    6.2821   -6.9664    2.6978 H   0  0  0  0  0  0  0  0  0  0  0  0
    3.3027   -3.9237    1.4333 H   0  0  0  0  0  0  0  0  0  0  0  0
   -0.0491   -4.1566    4.9272 H   0  0  0  0  0  0  0  0  0  0  0  0
    5.7855   -8.7915    4.2693 H   0  0  0  0  0  0  0  0  0  0  0  0
    4.0153   -8.9244    0.4417 H   0  0  0  0  0  0  0  0  0  0  0  0
    0.9829   -7.8927    5.5499 H   0  0  0  0  0  0  0  0  0  0  0  0
   -0.1207   -6.8652    4.6313 H   0  0  0  0  0  0  0  0  0  0  0  0
    1.2985   -7.5997    3.8347 H   0  0  0  0  0  0  0  0  0  0  0  0
   -0.2647   -2.5229    3.1991 H   0  0  0  0  0  0  0  0  0  0  0  0
    4.9952  -11.0422    4.6671 H   0  0  0  0  0  0  0  0  0  0  0  0
    3.1622   -2.2476    0.3163 H   0  0  0  0  0  0  0  0  0  0  0  0
    3.6936  -12.1771    2.9378 H   0  0  0  0  0  0  0  0  0  0  0  0
    1.3140   -1.2656   -1.5669 H   0  0  0  0  0  0  0  0  0  0  0  0
    3.0576   -1.0744   -1.5703 H   0  0  0  0  0  0  0  0  0  0  0  0
    4.0371    0.6127    0.2245 H   0  0  0  0  0  0  0  0  0  0  0  0
    0.0391    0.7624   -1.1141 H   0  0  0  0  0  0  0  0  0  0  0  0
    3.8568    2.9393    0.8859 H   0  0  0  0  0  0  0  0  0  0  0  0
    1.7620    4.1268    0.5155 H   0  0  0  0  0  0  0  0  0  0  0  0
  1  2  1  0  0  0  0 
  1  3  2  0  0  0  0 
  1  4  1  0  0  0  0 
  2  5  1  0  0  0  0 
  4  6  2  0  0  0  0 
  4  7  1  0  0  0  0 
  5  8  1  0  0  0  0 
  6  9  1  0  0  0  0 
  6 10  1  0  0  0  0 
  7 11  2  0  0  0  0 
  8 12  2  0  0  0  0 
  8 13  1  0  0  0  0 
  9 14  1  0  0  0  0 
 10 15  2  0  0  0  0 
 11 15  1  0  0  0  0 
 11 16  1  0  0  0  0 
 12 17  1  0  0  0  0 
 13 18  2  0  0  0  0 
 16 19  1  0  0  0  0 
 16 20  2  0  0  0  0 
 17 21  2  0  0  0  0 
 18 21  1  0  0  0  0 
 19 22  1  0  0  0  0 
 22 23  1  0  0  0  0 
 23 24  2  0  0  0  0 
 23 25  1  0  0  0  0 
 24 26  1  0  0  0  0 
 25 27  2  0  0  0  0 
 26 28  2  0  0  0  0 
 27 28  1  0  0  0  0 
  2 29  1  0  0  0  0 
  5 30  1  0  0  0  0 
  5 31  1  0  0  0  0 
  7 32  1  0  0  0  0 
 10 33  1  0  0  0  0 
 12 34  1  0  0  0  0 
 13 35  1  0  0  0  0 
 14 36  1  0  0  0  0 
 14 37  1  0  0  0  0 
 14 38  1  0  0  0  0 
 15 39  1  0  0  0  0 
 17 40  1  0  0  0  0 
 19 41  1  0  0  0  0 
 21 42  1  0  0  0  0 
 22 43  1  0  0  0  0 
 22 44  1  0  0  0  0 
 24 45  1  0  0  0  0 
 25 46  1  0  0  0  0 
 26 47  1  0  0  0  0 
 28 48  1  0  0  0  0 
M  END
> <cdk:Title>
picotamide

> <Conformer>
1

> <SuperDrugID>
SD001939

$$$$
