fosaprepitant
  CDK     0628171801

 63 66  0  0  0  0  0  0  0  0999 V2000
    0.8487    3.8900    6.7567 C   0  0  1  0  0  0  0  0  0  0  0  0
    0.2703    4.3417    8.0690 N   0  0  2  0  0  0  0  0  0  0  0  0
    1.2318    4.9982    5.8631 C   0  0  0  0  0  0  0  0  0  0  0  0
    0.2255    3.2519    9.1147 C   0  0  2  0  0  0  0  0  0  0  0  0
   -1.0677    5.0017    7.8891 C   0  0  1  0  0  0  0  0  0  0  0  0
    2.1744    5.9269    6.1110 N   0  0  0  0  0  0  0  0  0  0  0  0
    0.7236    5.2330    4.6476 N   0  0  0  0  0  0  0  0  0  0  0  0
   -0.4641    3.7340   10.4339 C   0  0  1  0  0  0  0  0  0  0  0  0
    1.5680    2.6614    9.4437 C   0  0  0  0  0  0  0  0  0  0  0  0
   -1.6764    5.4398    9.2400 C   0  0  1  0  0  0  0  0  0  0  0  0
    2.2687    6.6906    5.0647 N   0  0  0  0  0  0  0  0  0  0  0  0
    1.3686    6.2891    4.1456 C   0  0  0  0  0  0  0  0  0  0  0  0
    0.3752    4.6695   11.1603 O   0  0  0  0  0  0  0  0  0  0  0  0
   -1.7511    4.3189   10.1408 O   0  0  0  0  0  0  0  0  0  0  0  0
    1.7505    1.2573    9.4916 C   0  0  0  0  0  0  0  0  0  0  0  0
    2.6853    3.4913    9.7127 C   0  0  0  0  0  0  0  0  0  0  0  0
    3.3392    7.8658    4.8905 P   0  0  1  0  0  0  0  0  0  0  0  0
    1.1673    6.7686    3.0057 O   0  0  0  0  0  0  0  0  0  0  0  0
    0.2200    4.7406   12.5971 C   0  0  2  0  0  0  0  0  0  0  0  0
    3.0024    0.7006    9.8107 C   0  0  0  0  0  0  0  0  0  0  0  0
    3.9378    2.9363   10.0333 C   0  0  0  0  0  0  0  0  0  0  0  0
    2.6902    9.1756    4.7371 O   0  0  0  0  0  0  0  0  0  0  0  0
    4.3254    7.9011    6.1367 O   0  0  0  0  0  0  0  0  0  0  0  0
    4.2252    7.5631    3.6040 O   0  0  0  0  0  0  0  0  0  0  0  0
   -1.1533    5.3148   13.0435 C   0  0  0  0  0  0  0  0  0  0  0  0
    1.3407    5.5663   13.1396 C   0  0  0  0  0  0  0  0  0  0  0  0
    4.0984    1.5399   10.0784 C   0  0  0  0  0  0  0  0  0  0  0  0
    2.2550    5.0240   14.0712 C   0  0  0  0  0  0  0  0  0  0  0  0
    1.5001    6.9174   12.7538 C   0  0  0  0  0  0  0  0  0  0  0  0
    5.2645    1.0255   10.3554 F   0  0  0  0  0  0  0  0  0  0  0  0
    3.3035    5.7961   14.6210 C   0  0  0  0  0  0  0  0  0  0  0  0
    2.5274    7.7296   13.2881 C   0  0  0  0  0  0  0  0  0  0  0  0
    4.2664    5.2311   15.6102 C   0  0  1  0  0  0  0  0  0  0  0  0
    3.4248    7.1458   14.2141 C   0  0  0  0  0  0  0  0  0  0  0  0
    2.6079    9.1724   12.9148 C   0  0  2  0  0  0  0  0  0  0  0  0
    4.2295    5.9522   16.7782 F   0  0  0  0  0  0  0  0  0  0  0  0
    4.0318    3.9206   15.9552 F   0  0  0  0  0  0  0  0  0  0  0  0
    5.5404    5.2874   15.1016 F   0  0  0  0  0  0  0  0  0  0  0  0
    1.6399    9.8587   13.6042 F   0  0  0  0  0  0  0  0  0  0  0  0
    2.3921    9.3778   11.5724 F   0  0  0  0  0  0  0  0  0  0  0  0
    3.8160    9.7616   13.2052 F   0  0  0  0  0  0  0  0  0  0  0  0
    1.7663    3.3221    6.9093 H   0  0  0  0  0  0  0  0  0  0  0  0
    0.1468    3.2270    6.2443 H   0  0  0  0  0  0  0  0  0  0  0  0
   -0.4220    2.4620    8.7150 H   0  0  0  0  0  0  0  0  0  0  0  0
   -0.9747    5.8909    7.2619 H   0  0  0  0  0  0  0  0  0  0  0  0
   -1.7709    4.3178    7.4024 H   0  0  0  0  0  0  0  0  0  0  0  0
    0.0272    4.7214    4.2063 H   0  0  0  0  0  0  0  0  0  0  0  0
   -0.6547    2.8427   11.0431 H   0  0  0  0  0  0  0  0  0  0  0  0
   -1.0874    6.2540    9.6764 H   0  0  0  0  0  0  0  0  0  0  0  0
   -2.6908    5.8085    9.0727 H   0  0  0  0  0  0  0  0  0  0  0  0
    0.9690    0.6276    9.2975 H   0  0  0  0  0  0  0  0  0  0  0  0
    2.5959    4.5104    9.6746 H   0  0  0  0  0  0  0  0  0  0  0  0
    0.2957    3.7246   12.9994 H   0  0  0  0  0  0  0  0  0  0  0  0
    3.1124   -0.3150    9.8413 H   0  0  0  0  0  0  0  0  0  0  0  0
    4.7299    3.5523   10.2317 H   0  0  0  0  0  0  0  0  0  0  0  0
    5.0255    8.5357    5.8747 H   0  0  0  0  0  0  0  0  0  0  0  0
    4.8481    8.3187    3.5484 H   0  0  0  0  0  0  0  0  0  0  0  0
   -1.9530    4.6110   12.8068 H   0  0  0  0  0  0  0  0  0  0  0  0
   -1.1645    5.4924   14.1237 H   0  0  0  0  0  0  0  0  0  0  0  0
   -1.3623    6.2557   12.5299 H   0  0  0  0  0  0  0  0  0  0  0  0
    2.1502    4.0485   14.3583 H   0  0  0  0  0  0  0  0  0  0  0  0
    0.8493    7.3207   12.0747 H   0  0  0  0  0  0  0  0  0  0  0  0
    4.1774    7.7127   14.6142 H   0  0  0  0  0  0  0  0  0  0  0  0
  1  2  1  0  0  0  0 
  1  3  1  0  0  0  0 
  4  2  1  0  0  0  0 
  2  5  1  0  0  0  0 
  3  6  2  0  0  0  0 
  3  7  1  0  0  0  0 
  4  8  1  0  0  0  0 
  4  9  1  0  0  0  0 
  5 10  1  0  0  0  0 
  6 11  1  0  0  0  0 
  7 12  1  0  0  0  0 
  8 13  1  0  0  0  0 
  8 14  1  0  0  0  0 
  9 15  2  0  0  0  0 
  9 16  1  0  0  0  0 
 10 14  1  0  0  0  0 
 11 12  1  0  0  0  0 
 11 17  1  0  0  0  0 
 12 18  2  0  0  0  0 
 19 13  1  0  0  0  0 
 15 20  1  0  0  0  0 
 16 21  2  0  0  0  0 
 17 22  2  0  0  0  0 
 17 23  1  0  0  0  0 
 17 24  1  0  0  0  0 
 19 25  1  0  0  0  0 
 19 26  1  0  0  0  0 
 20 27  2  0  0  0  0 
 21 27  1  0  0  0  0 
 26 28  2  0  0  0  0 
 26 29  1  0  0  0  0 
 27 30  1  0  0  0  0 
 28 31  1  0  0  0  0 
 29 32  2  0  0  0  0 
 31 33  1  0  0  0  0 
 31 34  2  0  0  0  0 
 32 34  1  0  0  0  0 
 32 35  1  0  0  0  0 
 33 36  1  0  0  0  0 
 33 37  1  0  0  0  0 
 33 38  1  0  0  0  0 
 35 39  1  0  0  0  0 
 35 40  1  0  0  0  0 
 35 41  1  0  0  0  0 
 42  1  1  0  0  0  0 
 43  1  1  0  0  0  0 
  4 44  1  0  0  0  0 
 45  5  1  0  0  0  0 
 46  5  1  0  0  0  0 
 47  7  1  0  0  0  0 
  8 48  1  0  0  0  0 
 49 10  1  0  0  0  0 
 50 10  1  0  0  0  0 
 51 15  1  0  0  0  0 
 52 16  1  0  0  0  0 
 19 53  1  0  0  0  0 
 54 20  1  0  0  0  0 
 55 21  1  0  0  0  0 
 56 23  1  0  0  0  0 
 57 24  1  0  0  0  0 
 58 25  1  0  0  0  0 
 59 25  1  0  0  0  0 
 60 25  1  0  0  0  0 
 61 28  1  0  0  0  0 
 62 29  1  0  0  0  0 
 63 34  1  0  0  0  0 
M  END
> <cdk:Title>
fosaprepitant

> <Conformer>
1

> <SuperDrugID>
SD003585

$$$$
