droxidopa
  CDK     0628171802

 26 26  0  0  0  0  0  0  0  0999 V2000
    0.1840   -1.2476    0.4467 C   0  0  2  0  0  0  0  0  0  0  0  0
   -0.6138   -2.5865    0.5550 C   0  0  1  0  0  0  0  0  0  0  0  0
    0.9432   -1.2024   -0.7623 O   0  0  0  0  0  0  0  0  0  0  0  0
    1.1388   -1.0003    1.5695 C   0  0  0  0  0  0  0  0  0  0  0  0
   -1.5682   -2.6402    1.6839 C   0  0  0  0  0  0  0  0  0  0  0  0
   -1.3850   -2.8261   -0.6731 N   0  0  2  0  0  0  0  0  0  0  0  0
    2.2492   -1.8559    1.7728 C   0  0  0  0  0  0  0  0  0  0  0  0
    0.9914    0.1180    2.4260 C   0  0  0  0  0  0  0  0  0  0  0  0
   -2.1253   -1.5169    2.1972 O   0  0  0  0  0  0  0  0  0  0  0  0
   -1.9083   -3.7428    2.1704 O   0  0  0  0  0  0  0  0  0  0  0  0
    3.2055   -1.5858    2.7694 C   0  0  0  0  0  0  0  0  0  0  0  0
    1.9399    0.3890    3.4305 C   0  0  0  0  0  0  0  0  0  0  0  0
    4.2726   -2.4165    2.9032 O   0  0  0  0  0  0  0  0  0  0  0  0
    3.0495   -0.4628    3.6051 C   0  0  0  0  0  0  0  0  0  0  0  0
    3.9708   -0.2191    4.5715 O   0  0  0  0  0  0  0  0  0  0  0  0
   -0.5380   -0.4289    0.3744 H   0  0  0  0  0  0  0  0  0  0  0  0
    0.0886   -3.4173    0.6525 H   0  0  0  0  0  0  0  0  0  0  0  0
    0.2805   -1.2035   -1.4841 H   0  0  0  0  0  0  0  0  0  0  0  0
   -0.7145   -2.8875   -1.4428 H   0  0  0  0  0  0  0  0  0  0  0  0
   -1.9557   -1.9937   -0.8404 H   0  0  0  0  0  0  0  0  0  0  0  0
    2.3785   -2.6783    1.1808 H   0  0  0  0  0  0  0  0  0  0  0  0
    0.1960    0.7528    2.3189 H   0  0  0  0  0  0  0  0  0  0  0  0
   -2.7739   -1.5767    2.9296 H   0  0  0  0  0  0  0  0  0  0  0  0
    1.8201    1.2106    4.0296 H   0  0  0  0  0  0  0  0  0  0  0  0
    4.9752   -1.8879    3.3404 H   0  0  0  0  0  0  0  0  0  0  0  0
    3.6447    0.5603    5.0656 H   0  0  0  0  0  0  0  0  0  0  0  0
  2  1  1  0  0  0  0 
  1  3  1  0  0  0  0 
  1  4  1  0  0  0  0 
  2  5  1  0  0  0  0 
  2  6  1  0  0  0  0 
  4  7  2  0  0  0  0 
  4  8  1  0  0  0  0 
  5  9  1  0  0  0  0 
  5 10  2  0  0  0  0 
  7 11  1  0  0  0  0 
  8 12  2  0  0  0  0 
 11 13  1  0  0  0  0 
 11 14  2  0  0  0  0 
 12 14  1  0  0  0  0 
 14 15  1  0  0  0  0 
  1 16  1  0  0  0  0 
  2 17  1  0  0  0  0 
  3 18  1  0  0  0  0 
  6 19  1  0  0  0  0 
  6 20  1  0  0  0  0 
  7 21  1  0  0  0  0 
  8 22  1  0  0  0  0 
  9 23  1  0  0  0  0 
 12 24  1  0  0  0  0 
 13 25  1  0  0  0  0 
 15 26  1  0  0  0  0 
M  END
> <cdk:Title>
droxidopa

> <Conformer>
1

> <SuperDrugID>
SD000861

$$$$
