temocapril
  CDK     0628171801

 60 62  0  0  0  0  0  0  0  0999 V2000
   -5.1793    5.5200    2.1425 C   0  0  2  0  0  0  0  0  0  0  0  0
   -6.0488    4.6160    2.9181 C   0  0  0  0  0  0  0  0  0  0  0  0
   -3.7453    5.4368    2.3998 N   0  0  0  0  0  0  0  0  0  0  0  0
   -6.0505    4.6485    4.2672 O   0  0  0  0  0  0  0  0  0  0  0  0
   -6.7882    3.7891    2.3398 O   0  0  0  0  0  0  0  0  0  0  0  0
   -3.0031    6.6763    2.5601 C   0  0  1  0  0  0  0  0  0  0  0  0
   -3.1038    4.2023    2.3547 C   0  0  0  0  0  0  0  0  0  0  0  0
   -2.2619    7.1057    1.2599 C   0  0  2  0  0  0  0  0  0  0  0  0
   -3.7063    3.1858    2.7802 O   0  0  0  0  0  0  0  0  0  0  0  0
   -1.7991    3.8874    1.6938 C   0  0  1  0  0  0  0  0  0  0  0  0
   -0.5773    6.4231    1.1369 S   0  0  0  0  0  0  0  0  0  0  0  0
   -2.1621    8.5749    1.0980 C   0  0  0  0  0  0  0  0  0  0  0  0
   -1.9632    3.7540    0.2184 N   0  0  2  0  0  0  0  0  0  0  0  0
   -0.6049    4.8247    2.0115 C   0  0  2  0  0  0  0  0  0  0  0  0
   -1.5124    9.4905    1.9394 C   0  0  0  0  0  0  0  0  0  0  0  0
   -2.8691    9.5183   -0.2051 S   0  0  0  0  0  0  0  0  0  0  0  0
   -2.9721    2.7999   -0.3414 C   0  0  1  0  0  0  0  0  0  0  0  0
   -1.6045   10.8401    1.5555 C   0  0  0  0  0  0  0  0  0  0  0  0
   -2.3264   11.0770    0.3846 C   0  0  0  0  0  0  0  0  0  0  0  0
   -3.1565    3.1150   -1.8566 C   0  0  2  0  0  0  0  0  0  0  0  0
   -2.6528    1.3675   -0.1173 C   0  0  0  0  0  0  0  0  0  0  0  0
   -3.9666    4.4181   -2.1092 C   0  0  2  0  0  0  0  0  0  0  0  0
   -1.4676    0.9749    0.4346 O   0  0  0  0  0  0  0  0  0  0  0  0
   -3.5071    0.5061   -0.4381 O   0  0  0  0  0  0  0  0  0  0  0  0
   -4.0424    4.7587   -3.5548 C   0  0  0  0  0  0  0  0  0  0  0  0
   -1.1195   -0.3697    0.7919 C   0  0  1  0  0  0  0  0  0  0  0  0
   -3.3339    5.8656   -4.0795 C   0  0  0  0  0  0  0  0  0  0  0  0
   -4.8320    3.9780   -4.4332 C   0  0  0  0  0  0  0  0  0  0  0  0
    0.3028   -0.4125    1.3759 C   0  0  0  0  0  0  0  0  0  0  0  0
   -3.4336    6.1982   -5.4426 C   0  0  0  0  0  0  0  0  0  0  0  0
   -4.9271    4.3084   -5.7970 C   0  0  0  0  0  0  0  0  0  0  0  0
   -4.2321    5.4221   -6.3008 C   0  0  0  0  0  0  0  0  0  0  0  0
   -5.5762    6.5207    2.3201 H   0  0  0  0  0  0  0  0  0  0  0  0
   -5.3159    5.3319    1.0746 H   0  0  0  0  0  0  0  0  0  0  0  0
   -6.6235    4.0298    4.7674 H   0  0  0  0  0  0  0  0  0  0  0  0
   -3.6732    7.4864    2.8664 H   0  0  0  0  0  0  0  0  0  0  0  0
   -2.3053    6.5842    3.3976 H   0  0  0  0  0  0  0  0  0  0  0  0
   -2.8223    6.7218    0.4050 H   0  0  0  0  0  0  0  0  0  0  0  0
   -1.4692    2.9099    2.0603 H   0  0  0  0  0  0  0  0  0  0  0  0
   -1.0517    3.4844   -0.1604 H   0  0  0  0  0  0  0  0  0  0  0  0
    0.3174    4.3194    1.7210 H   0  0  0  0  0  0  0  0  0  0  0  0
   -0.5433    4.9987    3.0859 H   0  0  0  0  0  0  0  0  0  0  0  0
   -1.0074    9.1972    2.7766 H   0  0  0  0  0  0  0  0  0  0  0  0
   -3.9366    2.9742    0.1416 H   0  0  0  0  0  0  0  0  0  0  0  0
   -1.1756   11.5918    2.0952 H   0  0  0  0  0  0  0  0  0  0  0  0
   -2.5044   11.9833   -0.0495 H   0  0  0  0  0  0  0  0  0  0  0  0
   -3.6851    2.2922   -2.3462 H   0  0  0  0  0  0  0  0  0  0  0  0
   -2.1715    3.1993   -2.3263 H   0  0  0  0  0  0  0  0  0  0  0  0
   -3.5115    5.2364   -1.5458 H   0  0  0  0  0  0  0  0  0  0  0  0
   -4.9844    4.2985   -1.7237 H   0  0  0  0  0  0  0  0  0  0  0  0
   -1.8225   -0.7315    1.5471 H   0  0  0  0  0  0  0  0  0  0  0  0
   -1.1762   -1.0219   -0.0835 H   0  0  0  0  0  0  0  0  0  0  0  0
   -2.7409    6.4370   -3.4727 H   0  0  0  0  0  0  0  0  0  0  0  0
   -5.3477    3.1651   -4.0858 H   0  0  0  0  0  0  0  0  0  0  0  0
    0.5492   -1.4322    1.6792 H   0  0  0  0  0  0  0  0  0  0  0  0
    1.0263   -0.0843    0.6280 H   0  0  0  0  0  0  0  0  0  0  0  0
    0.3710    0.2403    2.2475 H   0  0  0  0  0  0  0  0  0  0  0  0
   -2.9262    7.0059   -5.8082 H   0  0  0  0  0  0  0  0  0  0  0  0
   -5.5051    3.7409   -6.4202 H   0  0  0  0  0  0  0  0  0  0  0  0
   -4.3058    5.6665   -7.2905 H   0  0  0  0  0  0  0  0  0  0  0  0
  1  2  1  0  0  0  0 
  1  3  1  0  0  0  0 
  2  4  1  0  0  0  0 
  2  5  2  0  0  0  0 
  3  6  1  0  0  0  0 
  3  7  1  0  0  0  0 
  8  6  1  0  0  0  0 
  7  9  2  0  0  0  0 
 10  7  1  0  0  0  0 
  8 11  1  0  0  0  0 
  8 12  1  0  0  0  0 
 10 13  1  0  0  0  0 
 10 14  1  0  0  0  0 
 11 14  1  0  0  0  0 
 12 15  2  0  0  0  0 
 12 16  1  0  0  0  0 
 17 13  1  0  0  0  0 
 15 18  1  0  0  0  0 
 16 19  1  0  0  0  0 
 17 20  1  0  0  0  0 
 17 21  1  0  0  0  0 
 18 19  2  0  0  0  0 
 20 22  1  0  0  0  0 
 21 23  1  0  0  0  0 
 21 24  2  0  0  0  0 
 22 25  1  0  0  0  0 
 23 26  1  0  0  0  0 
 25 27  2  0  0  0  0 
 25 28  1  0  0  0  0 
 26 29  1  0  0  0  0 
 27 30  1  0  0  0  0 
 28 31  2  0  0  0  0 
 30 32  2  0  0  0  0 
 31 32  1  0  0  0  0 
 33  1  1  0  0  0  0 
 34  1  1  0  0  0  0 
 35  4  1  0  0  0  0 
 36  6  1  0  0  0  0 
 37  6  1  0  0  0  0 
  8 38  1  0  0  0  0 
 10 39  1  0  0  0  0 
 40 13  1  0  0  0  0 
 41 14  1  0  0  0  0 
 42 14  1  0  0  0  0 
 43 15  1  0  0  0  0 
 17 44  1  0  0  0  0 
 45 18  1  0  0  0  0 
 46 19  1  0  0  0  0 
 47 20  1  0  0  0  0 
 48 20  1  0  0  0  0 
 49 22  1  0  0  0  0 
 50 22  1  0  0  0  0 
 51 26  1  0  0  0  0 
 52 26  1  0  0  0  0 
 53 27  1  0  0  0  0 
 54 28  1  0  0  0  0 
 55 29  1  0  0  0  0 
 56 29  1  0  0  0  0 
 57 29  1  0  0  0  0 
 58 30  1  0  0  0  0 
 59 31  1  0  0  0  0 
 60 32  1  0  0  0  0 
M  END
> <cdk:Title>
temocapril

> <Conformer>
1

> <SuperDrugID>
SD002325

$$$$
