neridronic acid
  CDK     0628171801

 33 32  0  0  0  0  0  0  0  0999 V2000
   -0.9669    3.3575   -1.0820 C   0  0  1  0  0  0  0  0  0  0  0  0
   -2.2563    2.4889   -1.3362 C   0  0  2  0  0  0  0  0  0  0  0  0
   -0.7660    3.8548    0.5595 P   0  0  1  0  0  0  0  0  0  0  0  0
    0.4861    2.6467   -1.6807 P   0  0  1  0  0  0  0  0  0  0  0  0
   -1.1245    4.5520   -1.8485 O   0  0  0  0  0  0  0  0  0  0  0  0
   -2.3417    1.0988   -0.6370 C   0  0  2  0  0  0  0  0  0  0  0  0
   -0.4448    2.7321    1.4514 O   0  0  0  0  0  0  0  0  0  0  0  0
    0.3970    4.9357    0.6732 O   0  0  0  0  0  0  0  0  0  0  0  0
   -2.0918    4.5600    1.0797 O   0  0  0  0  0  0  0  0  0  0  0  0
    0.8813    1.4496   -0.9249 O   0  0  0  0  0  0  0  0  0  0  0  0
    0.3059    2.2550   -3.2101 O   0  0  0  0  0  0  0  0  0  0  0  0
    1.6821    3.6960   -1.6200 O   0  0  0  0  0  0  0  0  0  0  0  0
   -3.6476    0.3122   -0.9401 C   0  0  2  0  0  0  0  0  0  0  0  0
   -3.6529   -1.0547   -0.2036 C   0  0  1  0  0  0  0  0  0  0  0  0
   -4.9156   -1.9124   -0.4532 C   0  0  1  0  0  0  0  0  0  0  0  0
   -4.7969   -3.1623    0.3071 N   0  0  1  0  0  0  0  0  0  0  0  0
   -2.3613    2.3271   -2.4123 H   0  0  0  0  0  0  0  0  0  0  0  0
   -3.1328    3.0691   -1.0359 H   0  0  0  0  0  0  0  0  0  0  0  0
   -1.9122    5.0052   -1.4803 H   0  0  0  0  0  0  0  0  0  0  0  0
   -2.2747    1.2315    0.4438 H   0  0  0  0  0  0  0  0  0  0  0  0
   -1.4998    0.4818   -0.9541 H   0  0  0  0  0  0  0  0  0  0  0  0
    0.1073    5.6822    0.1100 H   0  0  0  0  0  0  0  0  0  0  0  0
   -2.2162    5.3341    0.4921 H   0  0  0  0  0  0  0  0  0  0  0  0
    0.1020    3.0982   -3.6662 H   0  0  0  0  0  0  0  0  0  0  0  0
    1.3956    4.4447   -2.1823 H   0  0  0  0  0  0  0  0  0  0  0  0
   -3.7326    0.1434   -2.0173 H   0  0  0  0  0  0  0  0  0  0  0  0
   -4.5121    0.8986   -0.6170 H   0  0  0  0  0  0  0  0  0  0  0  0
   -2.7769   -1.6296   -0.5213 H   0  0  0  0  0  0  0  0  0  0  0  0
   -3.5643   -0.8745    0.8722 H   0  0  0  0  0  0  0  0  0  0  0  0
   -5.8151   -1.3840   -0.1258 H   0  0  0  0  0  0  0  0  0  0  0  0
   -5.0131   -2.1558   -1.5141 H   0  0  0  0  0  0  0  0  0  0  0  0
   -5.5981   -3.7463    0.0633 H   0  0  0  0  0  0  0  0  0  0  0  0
   -3.9616   -3.6367   -0.0443 H   0  0  0  0  0  0  0  0  0  0  0  0
  1  2  1  0  0  0  0 
  1  3  1  0  0  0  0 
  1  4  1  0  0  0  0 
  1  5  1  0  0  0  0 
  2  6  1  0  0  0  0 
  3  7  2  0  0  0  0 
  3  8  1  0  0  0  0 
  3  9  1  0  0  0  0 
  4 10  2  0  0  0  0 
  4 11  1  0  0  0  0 
  4 12  1  0  0  0  0 
  6 13  1  0  0  0  0 
 13 14  1  0  0  0  0 
 14 15  1  0  0  0  0 
 15 16  1  0  0  0  0 
  2 17  1  0  0  0  0 
  2 18  1  0  0  0  0 
  5 19  1  0  0  0  0 
  6 20  1  0  0  0  0 
  6 21  1  0  0  0  0 
  8 22  1  0  0  0  0 
  9 23  1  0  0  0  0 
 11 24  1  0  0  0  0 
 12 25  1  0  0  0  0 
 13 26  1  0  0  0  0 
 13 27  1  0  0  0  0 
 14 28  1  0  0  0  0 
 14 29  1  0  0  0  0 
 15 30  1  0  0  0  0 
 15 31  1  0  0  0  0 
 16 32  1  0  0  0  0 
 16 33  1  0  0  0  0 
M  END
> <cdk:Title>
neridronic acid

> <Conformer>
1

> <SuperDrugID>
SD002908

$$$$
