ripasudil
  CDK     0628171802

 40 42  0  0  0  0  0  0  0  0999 V2000
    4.0370    0.3135   -1.2382 C   0  0  0  0  0  0  0  0  0  0  0  0
    5.4028    0.2648   -1.6706 C   0  0  0  0  0  0  0  0  0  0  0  0
    5.7908   -0.5785   -2.7325 C   0  0  0  0  0  0  0  0  0  0  0  0
    4.8400   -1.3706   -3.3854 C   0  0  0  0  0  0  0  0  0  0  0  0
    3.5076   -1.3650   -2.9525 C   0  0  0  0  0  0  0  0  0  0  0  0
    3.0933   -0.5669   -1.8607 C   0  0  0  0  0  0  0  0  0  0  0  0
    4.7338    2.0415    0.3631 C   0  0  0  0  0  0  0  0  0  0  0  0
    6.0138    1.9238   -0.0523 N   0  0  0  0  0  0  0  0  0  0  0  0
    6.3752    1.0715   -1.0386 C   0  0  0  0  0  0  0  0  0  0  0  0
    3.7221    1.2508   -0.2135 C   0  0  0  0  0  0  0  0  0  0  0  0
    2.5211    1.4606    0.2408 F   0  0  0  0  0  0  0  0  0  0  0  0
    1.4075   -0.8039   -1.3269 S   0  0  1  0  0  0  0  0  0  0  0  0
    0.4126    0.6473   -1.6016 N   0  0  0  0  0  0  0  0  0  0  0  0
   -0.5653    0.9728   -0.5164 C   0  0  2  0  0  0  0  0  0  0  0  0
   -1.8055    0.0476   -0.4322 C   0  0  1  0  0  0  0  0  0  0  0  0
   -2.6264   -0.0310   -1.7390 C   0  0  1  0  0  0  0  0  0  0  0  0
   -1.8829   -0.8126   -2.7471 N   0  0  2  0  0  0  0  0  0  0  0  0
   -0.9924   -0.0647   -3.6618 C   0  0  2  0  0  0  0  0  0  0  0  0
   -0.0243    0.9717   -3.0019 C   0  0  2  0  0  0  0  0  0  0  0  0
    0.7312   -2.0600   -2.0609 O   0  0  0  0  0  0  0  0  0  0  0  0
    1.4231   -1.1592    0.2385 O   0  0  0  0  0  0  0  0  0  0  0  0
    1.1727    1.3136   -3.9300 C   0  0  0  0  0  0  0  0  0  0  0  0
   -0.5836    1.9115   -2.9451 H   0  0  0  0  0  0  0  0  0  0  0  0
    6.7653   -0.6167   -3.0451 H   0  0  0  0  0  0  0  0  0  0  0  0
    5.1192   -1.9613   -4.1720 H   0  0  0  0  0  0  0  0  0  0  0  0
    2.8438   -1.9617   -3.4505 H   0  0  0  0  0  0  0  0  0  0  0  0
    4.5159    2.7141    1.1016 H   0  0  0  0  0  0  0  0  0  0  0  0
    7.3609    1.0350   -1.3110 H   0  0  0  0  0  0  0  0  0  0  0  0
   -0.9026    2.0066   -0.6346 H   0  0  0  0  0  0  0  0  0  0  0  0
   -0.0602    0.9415    0.4508 H   0  0  0  0  0  0  0  0  0  0  0  0
   -1.4869   -0.9597   -0.1517 H   0  0  0  0  0  0  0  0  0  0  0  0
   -2.4558    0.4154    0.3662 H   0  0  0  0  0  0  0  0  0  0  0  0
   -3.5534   -0.5686   -1.5285 H   0  0  0  0  0  0  0  0  0  0  0  0
   -2.8956    0.9654   -2.1025 H   0  0  0  0  0  0  0  0  0  0  0  0
   -2.5712   -1.2919   -3.3311 H   0  0  0  0  0  0  0  0  0  0  0  0
   -1.6164    0.4431   -4.4021 H   0  0  0  0  0  0  0  0  0  0  0  0
   -0.4171   -0.8212   -4.1983 H   0  0  0  0  0  0  0  0  0  0  0  0
    1.8751    1.9745   -3.4177 H   0  0  0  0  0  0  0  0  0  0  0  0
    1.7027    0.4140   -4.2391 H   0  0  0  0  0  0  0  0  0  0  0  0
    0.8195    1.8217   -4.8304 H   0  0  0  0  0  0  0  0  0  0  0  0
  1  2  1  0  0  0  0 
  2  3  2  0  0  0  0 
  3  4  1  0  0  0  0 
  4  5  2  0  0  0  0 
  5  6  1  0  0  0  0 
  1  6  2  0  0  0  0 
  7  8  1  0  0  0  0 
  8  9  2  0  0  0  0 
  7 10  2  0  0  0  0 
  1 10  1  0  0  0  0 
  9  2  1  0  0  0  0 
 10 11  1  0  0  0  0 
  6 12  1  0  0  0  0 
 12 13  1  0  0  0  0 
 14 15  1  0  0  0  0 
 15 16  1  0  0  0  0 
 16 17  1  0  0  0  0 
 17 18  1  0  0  0  0 
 18 19  1  0  0  0  0 
 13 14  1  0  0  0  0 
 19 13  1  0  0  0  0 
 12 20  2  0  0  0  0 
 12 21  2  0  0  0  0 
 19 22  1  0  0  0  0 
 19 23  1  0  0  0  0 
  3 24  1  0  0  0  0 
  4 25  1  0  0  0  0 
  5 26  1  0  0  0  0 
  7 27  1  0  0  0  0 
  9 28  1  0  0  0  0 
 14 29  1  0  0  0  0 
 14 30  1  0  0  0  0 
 15 31  1  0  0  0  0 
 15 32  1  0  0  0  0 
 16 33  1  0  0  0  0 
 16 34  1  0  0  0  0 
 17 35  1  0  0  0  0 
 18 36  1  0  0  0  0 
 18 37  1  0  0  0  0 
 22 38  1  0  0  0  0 
 22 39  1  0  0  0  0 
 22 40  1  0  0  0  0 
M  END
> <cdk:Title>
ripasudil

> <Conformer>
1

> <SuperDrugID>
SD003855

$$$$
