fluticasone propionate
  CDK     0628171801

 65 68  0  0  0  0  0  0  0  0999 V2000
   -4.0944   -0.7529   -6.8881 C   0  0  0  0  0  0  0  0  0  0  0  0
   -5.3662   -0.9318   -7.2765 C   0  0  0  0  0  0  0  0  0  0  0  0
   -6.1290    0.1392   -7.6943 C   0  0  0  0  0  0  0  0  0  0  0  0
   -5.5974    1.4185   -7.7392 C   0  0  0  0  0  0  0  0  0  0  0  0
   -4.3219    1.6794   -7.3622 C   0  0  0  0  0  0  0  0  0  0  0  0
   -3.4260    0.5763   -6.8681 C   0  0  1  0  0  0  0  0  0  0  0  0
   -3.7906    3.0571   -7.3583 C   0  0  2  0  0  0  0  0  0  0  0  0
   -3.3480    3.4659   -5.9296 C   0  0  2  0  0  0  0  0  0  0  0  0
   -2.4159    2.4152   -5.2472 C   0  0  2  0  0  0  0  0  0  0  0  0
   -3.0178    0.9533   -5.3690 C   0  0  2  0  0  0  0  0  0  0  0  0
   -2.1662    2.7661   -3.7363 C   0  0  1  0  0  0  0  0  0  0  0  0
   -1.1968    1.7978   -2.9768 C   0  0  1  0  0  0  0  0  0  0  0  0
   -1.7848    0.3444   -3.1313 C   0  0  2  0  0  0  0  0  0  0  0  0
   -2.0969   -0.0758   -4.6039 C   0  0  2  0  0  0  0  0  0  0  0  0
   -2.2138    0.4175   -7.8583 C   0  0  0  0  0  0  0  0  0  0  0  0
   -1.4629    2.4525   -5.7765 H   0  0  0  0  0  0  0  0  0  0  0  0
    0.2915    1.8186   -3.5207 C   0  0  0  0  0  0  0  0  0  0  0  0
   -4.2131    0.9337   -4.6573 F   0  0  0  0  0  0  0  0  0  0  0  0
   -3.1633    2.6921   -3.2850 H   0  0  0  0  0  0  0  0  0  0  0  0
   -1.6889    4.1710   -3.3202 C   0  0  2  0  0  0  0  0  0  0  0  0
   -1.1969    3.9846   -1.8482 C   0  0  2  0  0  0  0  0  0  0  0  0
   -1.2674    2.4331   -1.5233 C   0  0  1  0  0  0  0  0  0  0  0  0
   -7.3229   -0.0503   -8.0265 O   0  0  0  0  0  0  0  0  0  0  0  0
   -2.6081   -1.0393   -4.5457 H   0  0  0  0  0  0  0  0  0  0  0  0
   -0.8752   -0.3365   -5.2899 O   0  0  0  0  0  0  0  0  0  0  0  0
   -2.5785    2.1212   -0.9737 O   0  0  0  0  0  0  0  0  0  0  0  0
   -3.1128    2.1252    0.2885 C   0  0  0  0  0  0  0  0  0  0  0  0
   -4.5501    1.8001    0.4054 C   0  0  2  0  0  0  0  0  0  0  0  0
   -5.0280    1.3726    1.8118 C   0  0  0  0  0  0  0  0  0  0  0  0
   -0.2029    1.9091   -0.6036 C   0  0  0  0  0  0  0  0  0  0  0  0
   -2.4180    2.3964    1.2963 O   0  0  0  0  0  0  0  0  0  0  0  0
   -0.2316    0.2466   -0.0262 S   0  0  0  0  0  0  0  0  0  0  0  0
    0.7199    2.6470   -0.1885 O   0  0  0  0  0  0  0  0  0  0  0  0
    1.5084   -0.2187    0.2267 C   0  0  2  0  0  0  0  0  0  0  0  0
    1.5733   -1.5542    0.5349 F   0  0  0  0  0  0  0  0  0  0  0  0
   -1.9258    4.9207   -0.8483 C   0  0  0  0  0  0  0  0  0  0  0  0
   -0.1535    4.3117   -1.8289 H   0  0  0  0  0  0  0  0  0  0  0  0
   -2.9283    3.1114   -8.0233 H   0  0  0  0  0  0  0  0  0  0  0  0
   -4.6569    4.0279   -7.8183 F   0  0  0  0  0  0  0  0  0  0  0  0
   -3.5846   -1.5614   -6.6121 H   0  0  0  0  0  0  0  0  0  0  0  0
   -5.7582   -1.8468   -7.2688 H   0  0  0  0  0  0  0  0  0  0  0  0
   -6.1931    2.1505   -8.0502 H   0  0  0  0  0  0  0  0  0  0  0  0
   -4.2405    3.6198   -5.3151 H   0  0  0  0  0  0  0  0  0  0  0  0
   -2.8225    4.4236   -5.9883 H   0  0  0  0  0  0  0  0  0  0  0  0
   -2.7152    0.2528   -2.5645 H   0  0  0  0  0  0  0  0  0  0  0  0
   -1.0961   -0.3882   -2.7048 H   0  0  0  0  0  0  0  0  0  0  0  0
   -2.5705    0.3378   -8.8904 H   0  0  0  0  0  0  0  0  0  0  0  0
   -1.5261    1.2611   -7.8057 H   0  0  0  0  0  0  0  0  0  0  0  0
   -1.6291   -0.4826   -7.6551 H   0  0  0  0  0  0  0  0  0  0  0  0
    0.8621    0.9798   -3.1155 H   0  0  0  0  0  0  0  0  0  0  0  0
    0.8283    2.7255   -3.2428 H   0  0  0  0  0  0  0  0  0  0  0  0
    0.3379    1.7561   -4.6041 H   0  0  0  0  0  0  0  0  0  0  0  0
   -2.5066    4.8939   -3.4045 H   0  0  0  0  0  0  0  0  0  0  0  0
   -0.8738    4.5030   -3.9712 H   0  0  0  0  0  0  0  0  0  0  0  0
   -0.4196   -1.0204   -4.7529 H   0  0  0  0  0  0  0  0  0  0  0  0
   -4.7757    0.9793   -0.2788 H   0  0  0  0  0  0  0  0  0  0  0  0
   -5.1188    2.6733    0.0788 H   0  0  0  0  0  0  0  0  0  0  0  0
   -6.1101    1.2262    1.7970 H   0  0  0  0  0  0  0  0  0  0  0  0
   -4.5550    0.4321    2.0956 H   0  0  0  0  0  0  0  0  0  0  0  0
   -4.7857    2.1303    2.5572 H   0  0  0  0  0  0  0  0  0  0  0  0
    1.9300    0.3626    1.0460 H   0  0  0  0  0  0  0  0  0  0  0  0
    2.0804   -0.0284   -0.6811 H   0  0  0  0  0  0  0  0  0  0  0  0
   -3.0025    4.7436   -0.8605 H   0  0  0  0  0  0  0  0  0  0  0  0
   -1.5433    4.7518    0.1577 H   0  0  0  0  0  0  0  0  0  0  0  0
   -1.7451    5.9646   -1.1137 H   0  0  0  0  0  0  0  0  0  0  0  0
  1  2  2  0  0  0  0 
  2  3  1  0  0  0  0 
  3  4  1  0  0  0  0 
  4  5  2  0  0  0  0 
  5  6  1  0  0  0  0 
  1  6  1  0  0  0  0 
  5  7  1  0  0  0  0 
  7  8  1  0  0  0  0 
  8  9  1  0  0  0  0 
  9 10  1  0  0  0  0 
  6 10  1  0  0  0  0 
  9 11  1  0  0  0  0 
 11 12  1  0  0  0  0 
 12 13  1  0  0  0  0 
 13 14  1  0  0  0  0 
 10 14  1  0  0  0  0 
  6 15  1  0  0  0  0 
  9 16  1  0  0  0  0 
 12 17  1  0  0  0  0 
 10 18  1  0  0  0  0 
 11 19  1  0  0  0  0 
 11 20  1  0  0  0  0 
 20 21  1  0  0  0  0 
 21 22  1  0  0  0  0 
 12 22  1  0  0  0  0 
  3 23  2  0  0  0  0 
 14 24  1  0  0  0  0 
 14 25  1  0  0  0  0 
 22 26  1  0  0  0  0 
 26 27  1  0  0  0  0 
 27 28  1  0  0  0  0 
 28 29  1  0  0  0  0 
 22 30  1  0  0  0  0 
 27 31  2  0  0  0  0 
 30 32  1  0  0  0  0 
 30 33  2  0  0  0  0 
 32 34  1  0  0  0  0 
 34 35  1  0  0  0  0 
 21 36  1  0  0  0  0 
 21 37  1  0  0  0  0 
  7 39  1  0  0  0  0 
  7 38  1  0  0  0  0 
  1 40  1  0  0  0  0 
  2 41  1  0  0  0  0 
  4 42  1  0  0  0  0 
  8 43  1  0  0  0  0 
  8 44  1  0  0  0  0 
 13 45  1  0  0  0  0 
 13 46  1  0  0  0  0 
 15 47  1  0  0  0  0 
 15 48  1  0  0  0  0 
 15 49  1  0  0  0  0 
 17 50  1  0  0  0  0 
 17 51  1  0  0  0  0 
 17 52  1  0  0  0  0 
 20 53  1  0  0  0  0 
 20 54  1  0  0  0  0 
 25 55  1  0  0  0  0 
 28 56  1  0  0  0  0 
 28 57  1  0  0  0  0 
 29 58  1  0  0  0  0 
 29 59  1  0  0  0  0 
 29 60  1  0  0  0  0 
 34 61  1  0  0  0  0 
 34 62  1  0  0  0  0 
 36 63  1  0  0  0  0 
 36 64  1  0  0  0  0 
 36 65  1  0  0  0  0 
M  END
> <cdk:Title>
fluticasone propionate

> <Conformer>
1

> <SuperDrugID>
SD001098

$$$$
