tiadenol
  CDK     0628171801

 48 47  0  0  0  0  0  0  0  0999 V2000
   -4.7268   -4.9871    4.5085 C   0  0  1  0  0  0  0  0  0  0  0  0
   -4.8551   -5.7868    5.8331 C   0  0  1  0  0  0  0  0  0  0  0  0
   -3.3464   -4.2928    4.3732 C   0  0  1  0  0  0  0  0  0  0  0  0
   -6.2354   -6.4811    5.9684 C   0  0  1  0  0  0  0  0  0  0  0  0
   -3.1859   -3.4837    3.0577 C   0  0  2  0  0  0  0  0  0  0  0  0
   -6.3960   -7.2902    7.2839 C   0  0  1  0  0  0  0  0  0  0  0  0
   -1.7920   -2.8064    2.9636 C   0  0  2  0  0  0  0  0  0  0  0  0
   -7.7898   -7.9675    7.3779 C   0  0  1  0  0  0  0  0  0  0  0  0
   -1.5927   -1.9902    1.6663 C   0  0  2  0  0  0  0  0  0  0  0  0
   -7.9892   -8.7838    8.6752 C   0  0  1  0  0  0  0  0  0  0  0  0
    0.0668   -1.2365    1.6484 S   0  0  0  0  0  0  0  0  0  0  0  0
   -9.6486   -9.5374    8.6932 S   0  0  0  0  0  0  0  0  0  0  0  0
    0.1141   -0.3308    0.0699 C   0  0  1  0  0  0  0  0  0  0  0  0
   -9.6960  -10.4431   10.2717 C   0  0  1  0  0  0  0  0  0  0  0  0
    1.4704    0.3785   -0.1114 C   0  0  2  0  0  0  0  0  0  0  0  0
  -11.0523  -11.1524   10.4530 C   0  0  2  0  0  0  0  0  0  0  0  0
    1.4934    1.0825   -1.3493 O   0  0  0  0  0  0  0  0  0  0  0  0
  -11.0753  -11.8564   11.6909 O   0  0  0  0  0  0  0  0  0  0  0  0
   -4.8679   -5.6671    3.6635 H   0  0  0  0  0  0  0  0  0  0  0  0
   -5.5129   -4.2276    4.4701 H   0  0  0  0  0  0  0  0  0  0  0  0
   -4.0689   -6.5463    5.8715 H   0  0  0  0  0  0  0  0  0  0  0  0
   -4.7139   -5.1068    6.6781 H   0  0  0  0  0  0  0  0  0  0  0  0
   -3.2092   -3.6170    5.2220 H   0  0  0  0  0  0  0  0  0  0  0  0
   -2.5644   -5.0561    4.4156 H   0  0  0  0  0  0  0  0  0  0  0  0
   -7.0175   -5.7179    5.9259 H   0  0  0  0  0  0  0  0  0  0  0  0
   -6.3727   -7.1569    5.1196 H   0  0  0  0  0  0  0  0  0  0  0  0
   -3.9621   -2.7146    3.0105 H   0  0  0  0  0  0  0  0  0  0  0  0
   -3.3170   -4.1544    2.2037 H   0  0  0  0  0  0  0  0  0  0  0  0
   -5.6198   -8.0594    7.3311 H   0  0  0  0  0  0  0  0  0  0  0  0
   -6.2649   -6.6195    8.1379 H   0  0  0  0  0  0  0  0  0  0  0  0
   -1.0198   -3.5801    3.0145 H   0  0  0  0  0  0  0  0  0  0  0  0
   -1.6654   -2.1394    3.8218 H   0  0  0  0  0  0  0  0  0  0  0  0
   -8.5620   -7.1938    7.3271 H   0  0  0  0  0  0  0  0  0  0  0  0
   -7.9164   -8.6346    6.5198 H   0  0  0  0  0  0  0  0  0  0  0  0
   -2.3399   -1.1964    1.6054 H   0  0  0  0  0  0  0  0  0  0  0  0
   -1.6924   -2.6414    0.7957 H   0  0  0  0  0  0  0  0  0  0  0  0
   -7.2420   -9.5775    8.7362 H   0  0  0  0  0  0  0  0  0  0  0  0
   -7.8895   -8.1326    9.5459 H   0  0  0  0  0  0  0  0  0  0  0  0
   -0.0421   -1.0373   -0.7474 H   0  0  0  0  0  0  0  0  0  0  0  0
   -0.6896    0.4077    0.0624 H   0  0  0  0  0  0  0  0  0  0  0  0
   -8.8922  -11.1817   10.2792 H   0  0  0  0  0  0  0  0  0  0  0  0
   -9.5398   -9.7366   11.0890 H   0  0  0  0  0  0  0  0  0  0  0  0
    2.2797   -0.3547   -0.1106 H   0  0  0  0  0  0  0  0  0  0  0  0
    1.6317    1.0916    0.6998 H   0  0  0  0  0  0  0  0  0  0  0  0
  -11.2136  -11.8655    9.6418 H   0  0  0  0  0  0  0  0  0  0  0  0
  -11.8616  -10.4193   10.4522 H   0  0  0  0  0  0  0  0  0  0  0  0
    2.3802    1.5012   -1.3875 H   0  0  0  0  0  0  0  0  0  0  0  0
  -11.9620  -12.2752   11.7291 H   0  0  0  0  0  0  0  0  0  0  0  0
  1  2  1  0  0  0  0 
  1  3  1  0  0  0  0 
  2  4  1  0  0  0  0 
  3  5  1  0  0  0  0 
  4  6  1  0  0  0  0 
  5  7  1  0  0  0  0 
  6  8  1  0  0  0  0 
  7  9  1  0  0  0  0 
  8 10  1  0  0  0  0 
  9 11  1  0  0  0  0 
 10 12  1  0  0  0  0 
 11 13  1  0  0  0  0 
 12 14  1  0  0  0  0 
 13 15  1  0  0  0  0 
 14 16  1  0  0  0  0 
 15 17  1  0  0  0  0 
 16 18  1  0  0  0  0 
  1 19  1  0  0  0  0 
  1 20  1  0  0  0  0 
  2 21  1  0  0  0  0 
  2 22  1  0  0  0  0 
  3 23  1  0  0  0  0 
  3 24  1  0  0  0  0 
  4 25  1  0  0  0  0 
  4 26  1  0  0  0  0 
  5 27  1  0  0  0  0 
  5 28  1  0  0  0  0 
  6 29  1  0  0  0  0 
  6 30  1  0  0  0  0 
  7 31  1  0  0  0  0 
  7 32  1  0  0  0  0 
  8 33  1  0  0  0  0 
  8 34  1  0  0  0  0 
  9 35  1  0  0  0  0 
  9 36  1  0  0  0  0 
 10 37  1  0  0  0  0 
 10 38  1  0  0  0  0 
 13 39  1  0  0  0  0 
 13 40  1  0  0  0  0 
 14 41  1  0  0  0  0 
 14 42  1  0  0  0  0 
 15 43  1  0  0  0  0 
 15 44  1  0  0  0  0 
 16 45  1  0  0  0  0 
 16 46  1  0  0  0  0 
 17 47  1  0  0  0  0 
 18 48  1  0  0  0  0 
M  END
> <cdk:Title>
tiadenol

> <Conformer>
1

> <SuperDrugID>
SD002380

$$$$
