amrubicin
  CDK     0628171801

 60 64  0  0  0  0  0  0  0  0999 V2000
   -0.7505    1.2360    0.7538 O   0  0  0  0  0  0  0  0  0  0  0  0
   -1.4817   -0.0200    0.7960 C   0  0  2  0  0  0  0  0  0  0  0  0
   -1.4503    2.3976    0.2350 C   0  0  1  0  0  0  0  0  0  0  0  0
   -0.8212   -0.9551    1.7741 C   0  0  0  0  0  0  0  0  0  0  0  0
   -1.6348   -0.6004   -0.6424 C   0  0  2  0  0  0  0  0  0  0  0  0
   -0.8267    3.7085    0.7871 C   0  0  1  0  0  0  0  0  0  0  0  0
   -1.4979    2.4166   -1.2108 O   0  0  0  0  0  0  0  0  0  0  0  0
   -0.4987   -2.2951    1.4253 C   0  0  0  0  0  0  0  0  0  0  0  0
   -0.5596   -0.5155    3.0970 C   0  0  0  0  0  0  0  0  0  0  0  0
   -2.0262   -2.1030   -0.6365 C   0  0  1  0  0  0  0  0  0  0  0  0
    0.5279    4.0372    0.1092 C   0  0  2  0  0  0  0  0  0  0  0  0
   -0.2277    2.6260   -1.8635 C   0  0  2  0  0  0  0  0  0  0  0  0
    0.1782   -3.1221    2.3540 C   0  0  0  0  0  0  0  0  0  0  0  0
   -0.8626   -2.8525    0.0848 C   0  0  2  0  0  0  0  0  0  0  0  0
   -0.9906    0.7301    3.4405 O   0  0  0  0  0  0  0  0  0  0  0  0
    0.1156   -1.3402    4.0418 C   0  0  0  0  0  0  0  0  0  0  0  0
   -3.3801   -2.3425   -0.0278 C   0  0  0  0  0  0  0  0  0  0  0  0
   -2.0593   -2.5875   -2.0286 N   0  0  1  0  0  0  0  0  0  0  0  0
    0.9769    5.3350    0.5011 O   0  0  0  0  0  0  0  0  0  0  0  0
    0.4114    3.9718   -1.4365 C   0  0  1  0  0  0  0  0  0  0  0  0
    0.4881   -4.3912    1.9615 O   0  0  0  0  0  0  0  0  0  0  0  0
    0.5127   -2.6551    3.6547 C   0  0  0  0  0  0  0  0  0  0  0  0
    0.4213   -0.8836    5.3718 C   0  0  0  0  0  0  0  0  0  0  0  0
   -4.6277   -1.8121   -0.6249 C   0  0  0  0  0  0  0  0  0  0  0  0
   -3.4945   -3.0175    1.0239 O   0  0  0  0  0  0  0  0  0  0  0  0
   -0.3923    5.0517   -1.9137 O   0  0  0  0  0  0  0  0  0  0  0  0
    1.2400   -3.4756    4.5856 C   0  0  0  0  0  0  0  0  0  0  0  0
    0.0992    0.2703    5.7457 O   0  0  0  0  0  0  0  0  0  0  0  0
    1.1071   -1.7187    6.3052 C   0  0  0  0  0  0  0  0  0  0  0  0
    1.6639   -4.6090    4.2498 O   0  0  0  0  0  0  0  0  0  0  0  0
    1.5218   -3.0195    5.9076 C   0  0  0  0  0  0  0  0  0  0  0  0
    1.3936   -1.2789    7.6250 C   0  0  0  0  0  0  0  0  0  0  0  0
    2.2101   -3.8401    6.8392 C   0  0  0  0  0  0  0  0  0  0  0  0
    2.0886   -2.0999    8.5290 C   0  0  0  0  0  0  0  0  0  0  0  0
    2.4963   -3.3825    8.1359 C   0  0  0  0  0  0  0  0  0  0  0  0
   -2.4856    2.3924    0.5847 H   0  0  0  0  0  0  0  0  0  0  0  0
   -2.4862    0.1513    1.1938 H   0  0  0  0  0  0  0  0  0  0  0  0
   -0.6830   -0.4799   -1.1713 H   0  0  0  0  0  0  0  0  0  0  0  0
   -2.3821   -0.0314   -1.1984 H   0  0  0  0  0  0  0  0  0  0  0  0
   -1.5209    4.5308    0.6012 H   0  0  0  0  0  0  0  0  0  0  0  0
   -0.6904    3.6272    1.8675 H   0  0  0  0  0  0  0  0  0  0  0  0
    1.2764    3.3129    0.4430 H   0  0  0  0  0  0  0  0  0  0  0  0
   -0.3974    2.6353   -2.9424 H   0  0  0  0  0  0  0  0  0  0  0  0
    0.4519    1.7994   -1.6407 H   0  0  0  0  0  0  0  0  0  0  0  0
   -1.1541   -3.9036    0.1719 H   0  0  0  0  0  0  0  0  0  0  0  0
    0.0427   -2.8186   -0.5299 H   0  0  0  0  0  0  0  0  0  0  0  0
   -1.4475    0.6192    4.2994 H   0  0  0  0  0  0  0  0  0  0  0  0
   -2.3982   -3.5517   -2.0038 H   0  0  0  0  0  0  0  0  0  0  0  0
   -2.7654   -2.0372   -2.5209 H   0  0  0  0  0  0  0  0  0  0  0  0
    1.0459    5.3021    1.4784 H   0  0  0  0  0  0  0  0  0  0  0  0
    1.4066    4.0638   -1.8824 H   0  0  0  0  0  0  0  0  0  0  0  0
    0.1452   -4.9734    2.6728 H   0  0  0  0  0  0  0  0  0  0  0  0
   -4.7161   -2.1243   -1.6660 H   0  0  0  0  0  0  0  0  0  0  0  0
   -4.6262   -0.7229   -0.5843 H   0  0  0  0  0  0  0  0  0  0  0  0
   -5.5113   -2.1722   -0.0908 H   0  0  0  0  0  0  0  0  0  0  0  0
   -0.3993    4.9540   -2.8913 H   0  0  0  0  0  0  0  0  0  0  0  0
    1.1011   -0.3530    7.9453 H   0  0  0  0  0  0  0  0  0  0  0  0
    2.5126   -4.7830    6.5831 H   0  0  0  0  0  0  0  0  0  0  0  0
    2.2953   -1.7650    9.4735 H   0  0  0  0  0  0  0  0  0  0  0  0
    3.0026   -3.9811    8.7932 H   0  0  0  0  0  0  0  0  0  0  0  0
  3  1  1  0  0  0  0 
  2  1  1  0  0  0  0 
  2  4  1  0  0  0  0 
  2  5  1  0  0  0  0 
  3  6  1  0  0  0  0 
  3  7  1  0  0  0  0 
  3 36  1  0  0  0  0 
  4  8  2  0  0  0  0 
  4  9  1  0  0  0  0 
  5 10  1  0  0  0  0 
 11  6  1  0  0  0  0 
  7 12  1  0  0  0  0 
  8 13  1  0  0  0  0 
  8 14  1  0  0  0  0 
  9 15  1  0  0  0  0 
  9 16  2  0  0  0  0 
 10 14  1  0  0  0  0 
 10 17  1  0  0  0  0 
 10 18  1  0  0  0  0 
 11 19  1  0  0  0  0 
 11 20  1  0  0  0  0 
 20 12  1  0  0  0  0 
 13 21  1  0  0  0  0 
 13 22  2  0  0  0  0 
 16 22  1  0  0  0  0 
 16 23  1  0  0  0  0 
 17 24  1  0  0  0  0 
 17 25  2  0  0  0  0 
 20 26  1  0  0  0  0 
 22 27  1  0  0  0  0 
 23 28  2  0  0  0  0 
 23 29  1  0  0  0  0 
 27 30  2  0  0  0  0 
 27 31  1  0  0  0  0 
 29 31  2  0  0  0  0 
 29 32  1  0  0  0  0 
 31 33  1  0  0  0  0 
 32 34  2  0  0  0  0 
 33 35  2  0  0  0  0 
 34 35  1  0  0  0  0 
  2 37  1  0  0  0  0 
  5 38  1  0  0  0  0 
  5 39  1  0  0  0  0 
  6 40  1  0  0  0  0 
  6 41  1  0  0  0  0 
 11 42  1  0  0  0  0 
 12 43  1  0  0  0  0 
 12 44  1  0  0  0  0 
 14 45  1  0  0  0  0 
 14 46  1  0  0  0  0 
 15 47  1  0  0  0  0 
 18 48  1  0  0  0  0 
 18 49  1  0  0  0  0 
 19 50  1  0  0  0  0 
 20 51  1  0  0  0  0 
 21 52  1  0  0  0  0 
 24 53  1  0  0  0  0 
 24 54  1  0  0  0  0 
 24 55  1  0  0  0  0 
 26 56  1  0  0  0  0 
 32 57  1  0  0  0  0 
 33 58  1  0  0  0  0 
 34 59  1  0  0  0  0 
 35 60  1  0  0  0  0 
M  END
> <cdk:Title>
amrubicin

> <Conformer>
1

> <SuperDrugID>
SD000167

$$$$
