brompheniramine
  CDK     0628171801

 38 39  0  0  0  0  0  0  0  0999 V2000
    0.7347    2.7690    0.8850 C   0  0  1  0  0  0  0  0  0  0  0  0
   -0.2969    1.9014    0.0903 C   0  0  2  0  0  0  0  0  0  0  0  0
    2.1531    2.2797    0.8625 C   0  0  0  0  0  0  0  0  0  0  0  0
    0.6831    4.2136    0.5147 C   0  0  0  0  0  0  0  0  0  0  0  0
   -1.7922    2.2402    0.3704 C   0  0  2  0  0  0  0  0  0  0  0  0
    2.9558    2.4108    2.0259 C   0  0  0  0  0  0  0  0  0  0  0  0
    2.7450    1.6962   -0.2853 C   0  0  0  0  0  0  0  0  0  0  0  0
    0.2250    5.1926    1.4292 C   0  0  0  0  0  0  0  0  0  0  0  0
    1.0795    4.6239   -0.7248 N   0  0  0  0  0  0  0  0  0  0  0  0
   -2.1554    2.3339    1.8240 N   0  0  1  0  0  0  0  0  0  0  0  0
    4.2807    1.9416    2.0577 C   0  0  0  0  0  0  0  0  0  0  0  0
    4.0717    1.2267   -0.2576 C   0  0  0  0  0  0  0  0  0  0  0  0
    0.1740    6.5428    1.0403 C   0  0  0  0  0  0  0  0  0  0  0  0
    1.0563    5.9223   -1.1262 C   0  0  0  0  0  0  0  0  0  0  0  0
   -3.4360    3.0590    2.0589 C   0  0  0  0  0  0  0  0  0  0  0  0
   -2.1182    1.0381    2.5635 C   0  0  0  0  0  0  0  0  0  0  0  0
    4.8388    1.3426    0.9150 C   0  0  0  0  0  0  0  0  0  0  0  0
    0.5944    6.9170   -0.2469 C   0  0  0  0  0  0  0  0  0  0  0  0
    6.5864    0.7112    0.9552 Br  0  0  0  0  0  0  0  0  0  0  0  0
    0.4142    2.6666    1.9259 H   0  0  0  0  0  0  0  0  0  0  0  0
   -0.1361    0.8487    0.3338 H   0  0  0  0  0  0  0  0  0  0  0  0
   -0.1269    2.0108   -0.9833 H   0  0  0  0  0  0  0  0  0  0  0  0
   -2.4282    1.5003   -0.1249 H   0  0  0  0  0  0  0  0  0  0  0  0
   -1.9824    3.2025   -0.1121 H   0  0  0  0  0  0  0  0  0  0  0  0
    2.5769    2.8525    2.8676 H   0  0  0  0  0  0  0  0  0  0  0  0
    2.2191    1.6027   -1.1556 H   0  0  0  0  0  0  0  0  0  0  0  0
   -0.0750    4.9334    2.3719 H   0  0  0  0  0  0  0  0  0  0  0  0
    4.8306    2.0393    2.9145 H   0  0  0  0  0  0  0  0  0  0  0  0
    4.4788    0.7998   -1.0921 H   0  0  0  0  0  0  0  0  0  0  0  0
   -0.1634    7.2517    1.6968 H   0  0  0  0  0  0  0  0  0  0  0  0
    1.3760    6.1730   -2.0635 H   0  0  0  0  0  0  0  0  0  0  0  0
   -3.6007    3.2055    3.1272 H   0  0  0  0  0  0  0  0  0  0  0  0
   -3.4088    4.0486    1.5994 H   0  0  0  0  0  0  0  0  0  0  0  0
   -4.2818    2.5040    1.6459 H   0  0  0  0  0  0  0  0  0  0  0  0
   -2.8939    0.3565    2.2064 H   0  0  0  0  0  0  0  0  0  0  0  0
   -1.1510    0.5478    2.4600 H   0  0  0  0  0  0  0  0  0  0  0  0
   -2.2672    1.2110    3.6318 H   0  0  0  0  0  0  0  0  0  0  0  0
    0.5644    7.8975   -0.5368 H   0  0  0  0  0  0  0  0  0  0  0  0
  1  2  1  0  0  0  0 
  1  3  1  0  0  0  0 
  1  4  1  0  0  0  0 
  2  5  1  0  0  0  0 
  3  6  2  0  0  0  0 
  3  7  1  0  0  0  0 
  4  8  2  0  0  0  0 
  4  9  1  0  0  0  0 
  5 10  1  0  0  0  0 
  6 11  1  0  0  0  0 
  7 12  2  0  0  0  0 
  8 13  1  0  0  0  0 
  9 14  2  0  0  0  0 
 10 15  1  0  0  0  0 
 10 16  1  0  0  0  0 
 11 17  2  0  0  0  0 
 12 17  1  0  0  0  0 
 13 18  2  0  0  0  0 
 14 18  1  0  0  0  0 
 17 19  1  0  0  0  0 
  1 20  1  0  0  0  0 
  2 21  1  0  0  0  0 
  2 22  1  0  0  0  0 
  5 23  1  0  0  0  0 
  5 24  1  0  0  0  0 
  6 25  1  0  0  0  0 
  7 26  1  0  0  0  0 
  8 27  1  0  0  0  0 
 11 28  1  0  0  0  0 
 12 29  1  0  0  0  0 
 13 30  1  0  0  0  0 
 14 31  1  0  0  0  0 
 15 32  1  0  0  0  0 
 15 33  1  0  0  0  0 
 15 34  1  0  0  0  0 
 16 35  1  0  0  0  0 
 16 36  1  0  0  0  0 
 16 37  1  0  0  0  0 
 18 38  1  0  0  0  0 
M  END
> <cdk:Title>
brompheniramine

> <Conformer>
1

> <SuperDrugID>
SD000350

$$$$
