palonosetron
  CDK     0628171801

 46 50  0  0  0  0  0  0  0  0999 V2000
   -0.5489    2.1331   -1.4831 O   0  0  0  0  0  0  0  0  0  0  0  0
   -0.9018    0.9401   -1.3089 C   0  0  0  0  0  0  0  0  0  0  0  0
   -2.1110    0.4955   -1.9382 C   0  0  0  0  0  0  0  0  0  0  0  0
   -0.1201    0.0883   -0.5227 N   0  0  0  0  0  0  0  0  0  0  0  0
   -2.4508   -0.8874   -1.9075 C   0  0  0  0  0  0  0  0  0  0  0  0
   -2.9840    1.3971   -2.5943 C   0  0  0  0  0  0  0  0  0  0  0  0
   -0.7602   -1.1408   -0.0830 C   0  0  2  0  0  0  0  0  0  0  0  0
   -1.5132   -1.8455   -1.2450 C   0  0  1  0  0  0  0  0  0  0  0  0
   -3.6539   -1.3481   -2.5165 C   0  0  0  0  0  0  0  0  0  0  0  0
   -4.1709    0.9462   -3.1907 C   0  0  0  0  0  0  0  0  0  0  0  0
   -2.2115   -3.1541   -0.7684 C   0  0  2  0  0  0  0  0  0  0  0  0
   -4.5022   -0.4163   -3.1547 C   0  0  0  0  0  0  0  0  0  0  0  0
   -4.0798   -2.7782   -2.4706 C   0  0  2  0  0  0  0  0  0  0  0  0
   -3.0148   -3.7715   -1.9350 C   0  0  2  0  0  0  0  0  0  0  0  0
   -0.7615   -2.1212   -1.9927 H   0  0  0  0  0  0  0  0  0  0  0  0
    1.2122    0.5147   -0.0694 C   0  0  2  0  0  0  0  0  0  0  0  0
    2.1515    0.9826   -1.2542 C   0  0  1  0  0  0  0  0  0  0  0  0
    3.5842    0.5583   -1.0671 N   0  0  1  0  0  0  0  0  0  0  0  0
    4.0849    1.0353    0.2689 C   0  0  2  0  0  0  0  0  0  0  0  0
    3.2611    0.3964    1.4372 C   0  0  2  0  0  0  0  0  0  0  0  0
    2.0850   -0.4449    0.8345 C   0  0  2  0  0  0  0  0  0  0  0  0
    2.7332   -1.5809   -0.0343 C   0  0  2  0  0  0  0  0  0  0  0  0
    3.6587   -0.9415   -1.1214 C   0  0  2  0  0  0  0  0  0  0  0  0
    1.0062    1.3939    0.5545 H   0  0  0  0  0  0  0  0  0  0  0  0
   -2.7673    2.3957   -2.6449 H   0  0  0  0  0  0  0  0  0  0  0  0
   -1.4704   -0.8811    0.7072 H   0  0  0  0  0  0  0  0  0  0  0  0
   -0.0750   -1.8652    0.3457 H   0  0  0  0  0  0  0  0  0  0  0  0
   -4.7961    1.6133   -3.6482 H   0  0  0  0  0  0  0  0  0  0  0  0
   -2.8871   -2.9433    0.0669 H   0  0  0  0  0  0  0  0  0  0  0  0
   -1.4620   -3.8737   -0.4261 H   0  0  0  0  0  0  0  0  0  0  0  0
   -5.3726   -0.7257   -3.5961 H   0  0  0  0  0  0  0  0  0  0  0  0
   -4.3752   -3.1069   -3.4716 H   0  0  0  0  0  0  0  0  0  0  0  0
   -4.9617   -2.8364   -1.8282 H   0  0  0  0  0  0  0  0  0  0  0  0
   -3.4997   -4.6927   -1.6001 H   0  0  0  0  0  0  0  0  0  0  0  0
   -2.3259   -4.0360   -2.7430 H   0  0  0  0  0  0  0  0  0  0  0  0
    1.7900    0.5802   -2.2055 H   0  0  0  0  0  0  0  0  0  0  0  0
    2.1200    2.0720   -1.3504 H   0  0  0  0  0  0  0  0  0  0  0  0
    4.0157    2.1262    0.3171 H   0  0  0  0  0  0  0  0  0  0  0  0
    5.1444    0.7843    0.3763 H   0  0  0  0  0  0  0  0  0  0  0  0
    2.8701    1.1765    2.0971 H   0  0  0  0  0  0  0  0  0  0  0  0
    3.9036   -0.2472    2.0447 H   0  0  0  0  0  0  0  0  0  0  0  0
    1.5021   -0.8614    1.6593 H   0  0  0  0  0  0  0  0  0  0  0  0
    1.9723   -2.1883   -0.5269 H   0  0  0  0  0  0  0  0  0  0  0  0
    3.3126   -2.2521    0.6062 H   0  0  0  0  0  0  0  0  0  0  0  0
    4.6926   -1.2681   -0.9737 H   0  0  0  0  0  0  0  0  0  0  0  0
    3.3650   -1.2863   -2.1174 H   0  0  0  0  0  0  0  0  0  0  0  0
  1  2  2  0  0  0  0 
  2  3  1  0  0  0  0 
  2  4  1  0  0  0  0 
  3  5  2  0  0  0  0 
  3  6  1  0  0  0  0 
  4  7  1  0  0  0  0 
  8  5  1  0  0  0  0 
  5  9  1  0  0  0  0 
  6 10  2  0  0  0  0 
  8  7  1  0  0  0  0 
  8 11  1  0  0  0  0 
  9 12  2  0  0  0  0 
  9 13  1  0  0  0  0 
 10 12  1  0  0  0  0 
 11 14  1  0  0  0  0 
 13 14  1  0  0  0  0 
  8 15  1  0  0  0  0 
 16  4  1  0  0  0  0 
 17 18  1  0  0  0  0 
 18 19  1  0  0  0  0 
 19 20  1  0  0  0  0 
 20 21  1  0  0  0  0 
 16 17  1  0  0  0  0 
 16 21  1  0  0  0  0 
 21 22  1  0  0  0  0 
 22 23  1  0  0  0  0 
 23 18  1  0  0  0  0 
 16 24  1  0  0  0  0 
  6 25  1  0  0  0  0 
  7 26  1  0  0  0  0 
  7 27  1  0  0  0  0 
 10 28  1  0  0  0  0 
 11 29  1  0  0  0  0 
 11 30  1  0  0  0  0 
 12 31  1  0  0  0  0 
 13 32  1  0  0  0  0 
 13 33  1  0  0  0  0 
 14 34  1  0  0  0  0 
 14 35  1  0  0  0  0 
 17 36  1  0  0  0  0 
 17 37  1  0  0  0  0 
 19 38  1  0  0  0  0 
 19 39  1  0  0  0  0 
 20 40  1  0  0  0  0 
 20 41  1  0  0  0  0 
 21 42  1  0  0  0  0 
 22 43  1  0  0  0  0 
 22 44  1  0  0  0  0 
 23 45  1  0  0  0  0 
 23 46  1  0  0  0  0 
M  END
> <cdk:Title>
palonosetron

> <Conformer>
1

> <SuperDrugID>
SD001833

$$$$
