glycobiarsol
  CDK     0628171802

 26 26  0  0  0  0  0  0  0  0999 V2000
    0.1791   -0.5349   -1.3743 As  0  0  1  0  0  0  0  0  0  0  0  0
    0.2286   -0.9158    0.4486 O   0  0  0  0  0  0  0  0  0  0  0  0
    1.9140    0.2094    1.1567 Bi  0  0  0  0  0  0  0  0  0  0  0  0
    3.4663    1.4648    1.6206 O   0  0  0  0  0  0  0  0  0  0  0  0
    0.1881    1.2164   -1.5779 O   0  0  0  0  0  0  0  0  0  0  0  0
    1.6983   -1.2697   -2.1702 O   0  0  0  0  0  0  0  0  0  0  0  0
   -1.4095   -1.2895   -2.1253 C   0  0  0  0  0  0  0  0  0  0  0  0
   -1.3516   -2.1704   -3.2218 C   0  0  0  0  0  0  0  0  0  0  0  0
   -2.5361   -2.7118   -3.7593 C   0  0  0  0  0  0  0  0  0  0  0  0
   -3.7998   -2.3850   -3.2050 C   0  0  0  0  0  0  0  0  0  0  0  0
   -3.8367   -1.5033   -2.1017 C   0  0  0  0  0  0  0  0  0  0  0  0
   -2.6562   -0.9605   -1.5646 C   0  0  0  0  0  0  0  0  0  0  0  0
   -5.0155   -2.8255   -3.6553 N   0  0  0  0  0  0  0  0  0  0  0  0
   -5.3225   -3.8350   -4.5206 C   0  0  0  0  0  0  0  0  0  0  0  0
   -6.7405   -4.0413   -4.8701 C   0  0  2  0  0  0  0  0  0  0  0  0
   -7.2519   -2.8854   -5.5255 O   0  0  0  0  0  0  0  0  0  0  0  0
   -4.4696   -4.6058   -5.0191 O   0  0  0  0  0  0  0  0  0  0  0  0
    2.4434   -0.9021   -1.6506 H   0  0  0  0  0  0  0  0  0  0  0  0
   -0.4499   -2.4168   -3.6347 H   0  0  0  0  0  0  0  0  0  0  0  0
   -2.4554   -3.3318   -4.5633 H   0  0  0  0  0  0  0  0  0  0  0  0
   -4.7313   -1.2463   -1.6755 H   0  0  0  0  0  0  0  0  0  0  0  0
   -2.7103   -0.3257   -0.7640 H   0  0  0  0  0  0  0  0  0  0  0  0
   -5.7794   -2.3464   -3.2976 H   0  0  0  0  0  0  0  0  0  0  0  0
   -7.3189   -4.2266   -3.9630 H   0  0  0  0  0  0  0  0  0  0  0  0
   -6.8636   -4.9003   -5.5367 H   0  0  0  0  0  0  0  0  0  0  0  0
   -8.1813   -3.1093   -5.7464 H   0  0  0  0  0  0  0  0  0  0  0  0
  1  2  1  0  0  0  0 
  1  5  2  0  0  0  0 
  1  6  1  0  0  0  0 
  1  7  1  0  0  0  0 
  2  3  1  0  0  0  0 
  3  4  2  0  0  0  0 
  7  8  2  0  0  0  0 
  7 12  1  0  0  0  0 
  8  9  1  0  0  0  0 
  9 10  2  0  0  0  0 
 10 13  1  0  0  0  0 
 11 10  1  0  0  0  0 
 12 11  2  0  0  0  0 
 13 14  1  0  0  0  0 
 14 15  1  0  0  0  0 
 14 17  2  0  0  0  0 
 15 16  1  0  0  0  0 
  6 18  1  0  0  0  0 
  8 19  1  0  0  0  0 
  9 20  1  0  0  0  0 
 11 21  1  0  0  0  0 
 12 22  1  0  0  0  0 
 13 23  1  0  0  0  0 
 15 24  1  0  0  0  0 
 15 25  1  0  0  0  0 
 16 26  1  0  0  0  0 
M  END
> <cdk:Title>
glycobiarsol

> <Conformer>
1

> <SuperDrugID>
SD003799

$$$$
