medrylamine
  CDK     0628171801

 44 45  0  0  0  0  0  0  0  0999 V2000
    2.1582   -2.5502    0.4315 C   0  0  2  0  0  0  0  0  0  0  0  0
    2.7897   -3.3514   -0.6005 O   0  0  0  0  0  0  0  0  0  0  0  0
    3.0229   -2.4027    1.6424 C   0  0  0  0  0  0  0  0  0  0  0  0
    0.8374   -3.1102    0.8388 C   0  0  0  0  0  0  0  0  0  0  0  0
    3.8951   -2.7240   -1.2915 C   0  0  2  0  0  0  0  0  0  0  0  0
    3.6599   -3.5265    2.2236 C   0  0  0  0  0  0  0  0  0  0  0  0
    3.2386   -1.1282    2.2183 C   0  0  0  0  0  0  0  0  0  0  0  0
    0.5784   -4.5026    0.8433 C   0  0  0  0  0  0  0  0  0  0  0  0
   -0.1932   -2.2333    1.2581 C   0  0  0  0  0  0  0  0  0  0  0  0
    4.5733   -3.7297   -2.2529 C   0  0  1  0  0  0  0  0  0  0  0  0
    4.5577   -3.3650    3.2950 C   0  0  0  0  0  0  0  0  0  0  0  0
    4.1102   -0.9699    3.3095 C   0  0  0  0  0  0  0  0  0  0  0  0
   -0.6730   -4.9990    1.2565 C   0  0  0  0  0  0  0  0  0  0  0  0
   -1.4420   -2.7284    1.6732 C   0  0  0  0  0  0  0  0  0  0  0  0
    4.8947   -5.0571   -1.6331 N   0  0  2  0  0  0  0  0  0  0  0  0
    4.8017   -2.0831    3.8261 C   0  0  0  0  0  0  0  0  0  0  0  0
   -1.6820   -4.1126    1.6736 C   0  0  0  0  0  0  0  0  0  0  0  0
    6.0059   -5.0174   -0.6362 C   0  0  0  0  0  0  0  0  0  0  0  0
    5.1331   -6.1201   -2.6570 C   0  0  0  0  0  0  0  0  0  0  0  0
    5.7079   -1.9269    4.8382 O   0  0  0  0  0  0  0  0  0  0  0  0
    7.0103   -1.5575    4.3465 C   0  0  0  0  0  0  0  0  0  0  0  0
    1.9628   -1.5661   -0.0144 H   0  0  0  0  0  0  0  0  0  0  0  0
    4.6402   -2.3402   -0.5891 H   0  0  0  0  0  0  0  0  0  0  0  0
    3.5237   -1.8805   -1.8832 H   0  0  0  0  0  0  0  0  0  0  0  0
    3.4857   -4.4673    1.8618 H   0  0  0  0  0  0  0  0  0  0  0  0
    2.7686   -0.3015    1.8402 H   0  0  0  0  0  0  0  0  0  0  0  0
    1.2990   -5.1663    0.5487 H   0  0  0  0  0  0  0  0  0  0  0  0
   -0.0396   -1.2216    1.2659 H   0  0  0  0  0  0  0  0  0  0  0  0
    3.8772   -3.8725   -3.0859 H   0  0  0  0  0  0  0  0  0  0  0  0
    5.4820   -3.2730   -2.6615 H   0  0  0  0  0  0  0  0  0  0  0  0
    5.0418   -4.1808    3.6803 H   0  0  0  0  0  0  0  0  0  0  0  0
    4.2557   -0.0414    3.7128 H   0  0  0  0  0  0  0  0  0  0  0  0
   -0.8510   -6.0065    1.2540 H   0  0  0  0  0  0  0  0  0  0  0  0
   -2.1738   -2.0797    1.9737 H   0  0  0  0  0  0  0  0  0  0  0  0
   -2.5901   -4.4724    1.9740 H   0  0  0  0  0  0  0  0  0  0  0  0
    5.8020   -4.2972    0.1549 H   0  0  0  0  0  0  0  0  0  0  0  0
    6.1156   -5.9927   -0.1562 H   0  0  0  0  0  0  0  0  0  0  0  0
    6.9532   -4.7556   -1.1148 H   0  0  0  0  0  0  0  0  0  0  0  0
    4.2842   -6.2017   -3.3384 H   0  0  0  0  0  0  0  0  0  0  0  0
    5.2536   -7.0938   -2.1762 H   0  0  0  0  0  0  0  0  0  0  0  0
    6.0318   -5.9063   -3.2449 H   0  0  0  0  0  0  0  0  0  0  0  0
    7.6994   -1.5302    5.1899 H   0  0  0  0  0  0  0  0  0  0  0  0
    7.3903   -2.2837    3.6224 H   0  0  0  0  0  0  0  0  0  0  0  0
    6.9942   -0.5645    3.8892 H   0  0  0  0  0  0  0  0  0  0  0  0
  1  2  1  0  0  0  0 
  1  3  1  0  0  0  0 
  1  4  1  0  0  0  0 
  2  5  1  0  0  0  0 
  3  6  2  0  0  0  0 
  3  7  1  0  0  0  0 
  4  8  2  0  0  0  0 
  4  9  1  0  0  0  0 
  5 10  1  0  0  0  0 
  6 11  1  0  0  0  0 
  7 12  2  0  0  0  0 
  8 13  1  0  0  0  0 
  9 14  2  0  0  0  0 
 10 15  1  0  0  0  0 
 11 16  2  0  0  0  0 
 12 16  1  0  0  0  0 
 13 17  2  0  0  0  0 
 14 17  1  0  0  0  0 
 15 18  1  0  0  0  0 
 15 19  1  0  0  0  0 
 16 20  1  0  0  0  0 
 20 21  1  0  0  0  0 
  1 22  1  0  0  0  0 
  5 23  1  0  0  0  0 
  5 24  1  0  0  0  0 
  6 25  1  0  0  0  0 
  7 26  1  0  0  0  0 
  8 27  1  0  0  0  0 
  9 28  1  0  0  0  0 
 10 29  1  0  0  0  0 
 10 30  1  0  0  0  0 
 11 31  1  0  0  0  0 
 12 32  1  0  0  0  0 
 13 33  1  0  0  0  0 
 14 34  1  0  0  0  0 
 17 35  1  0  0  0  0 
 18 36  1  0  0  0  0 
 18 37  1  0  0  0  0 
 18 38  1  0  0  0  0 
 19 39  1  0  0  0  0 
 19 40  1  0  0  0  0 
 19 41  1  0  0  0  0 
 21 42  1  0  0  0  0 
 21 43  1  0  0  0  0 
 21 44  1  0  0  0  0 
M  END
> <cdk:Title>
medrylamine

> <Conformer>
1

> <SuperDrugID>
SD001470

$$$$
