ethylestrenol
  CDK     0628171801

 53 56  0  0  0  0  0  0  0  0999 V2000
   -0.2129   -1.4540    0.1850 C   0  0  0  0  0  0  0  0  0  0  0  0
    0.6919   -1.5962   -1.1067 C   0  0  2  0  0  0  0  0  0  0  0  0
    0.7139   -3.0376   -1.7156 C   0  0  2  0  0  0  0  0  0  0  0  0
    2.2131   -1.4169   -0.6887 C   0  0  1  0  0  0  0  0  0  0  0  0
    0.1121   -0.6433   -2.2154 C   0  0  2  0  0  0  0  0  0  0  0  0
   -0.6952   -3.5533   -2.1669 C   0  0  1  0  0  0  0  0  0  0  0  0
    1.5379   -3.8545   -0.6998 C   0  0  1  0  0  0  0  0  0  0  0  0
    3.1744   -0.9204   -1.8325 C   0  0  2  0  0  0  0  0  0  0  0  0
    2.3457   -0.4546    0.3690 O   0  0  0  0  0  0  0  0  0  0  0  0
    2.5848   -2.8465   -0.1551 C   0  0  2  0  0  0  0  0  0  0  0  0
   -1.2775   -1.0976   -2.7572 C   0  0  2  0  0  0  0  0  0  0  0  0
   -1.2861   -2.5842   -3.2606 C   0  0  2  0  0  0  0  0  0  0  0  0
   -0.6641   -5.0063   -2.7248 C   0  0  1  0  0  0  0  0  0  0  0  0
    4.6544   -0.6721   -1.4440 C   0  0  0  0  0  0  0  0  0  0  0  0
   -2.6942   -3.0739   -3.7789 C   0  0  2  0  0  0  0  0  0  0  0  0
   -2.0762   -5.4500   -3.1880 C   0  0  2  0  0  0  0  0  0  0  0  0
   -2.6609   -4.5116   -4.1539 C   0  0  0  0  0  0  0  0  0  0  0  0
   -3.2464   -2.1360   -4.9097 C   0  0  2  0  0  0  0  0  0  0  0  0
   -3.1723   -4.9765   -5.3168 C   0  0  0  0  0  0  0  0  0  0  0  0
   -4.3524   -2.8132   -5.7465 C   0  0  2  0  0  0  0  0  0  0  0  0
   -3.8182   -4.1478   -6.3185 C   0  0  1  0  0  0  0  0  0  0  0  0
   -1.3620   -3.5691   -1.3011 H   0  0  0  0  0  0  0  0  0  0  0  0
   -0.6071   -2.6172   -4.1220 H   0  0  0  0  0  0  0  0  0  0  0  0
    1.3169   -3.0286   -2.6325 H   0  0  0  0  0  0  0  0  0  0  0  0
   -3.3967   -3.0002   -2.9423 H   0  0  0  0  0  0  0  0  0  0  0  0
   -1.2498   -1.7344    0.0173 H   0  0  0  0  0  0  0  0  0  0  0  0
   -0.2156   -0.4181    0.5288 H   0  0  0  0  0  0  0  0  0  0  0  0
    0.1521   -2.0666    1.0091 H   0  0  0  0  0  0  0  0  0  0  0  0
    0.7777   -0.6163   -3.0809 H   0  0  0  0  0  0  0  0  0  0  0  0
    0.0402    0.3785   -1.8332 H   0  0  0  0  0  0  0  0  0  0  0  0
    0.8990   -4.2274    0.1060 H   0  0  0  0  0  0  0  0  0  0  0  0
    2.0253   -4.7087   -1.1805 H   0  0  0  0  0  0  0  0  0  0  0  0
    2.8081    0.0378   -2.2064 H   0  0  0  0  0  0  0  0  0  0  0  0
    3.1650   -1.6269   -2.6644 H   0  0  0  0  0  0  0  0  0  0  0  0
    3.2684   -0.5380    0.6896 H   0  0  0  0  0  0  0  0  0  0  0  0
    2.5636   -2.8648    0.9386 H   0  0  0  0  0  0  0  0  0  0  0  0
    3.5832   -3.1623   -0.4615 H   0  0  0  0  0  0  0  0  0  0  0  0
   -1.5300   -0.4287   -3.5829 H   0  0  0  0  0  0  0  0  0  0  0  0
   -2.0456   -0.9622   -1.9935 H   0  0  0  0  0  0  0  0  0  0  0  0
    0.0350   -5.0764   -3.5648 H   0  0  0  0  0  0  0  0  0  0  0  0
   -0.3223   -5.6944   -1.9464 H   0  0  0  0  0  0  0  0  0  0  0  0
    5.2037   -0.3208   -2.3207 H   0  0  0  0  0  0  0  0  0  0  0  0
    5.1339   -1.5842   -1.0882 H   0  0  0  0  0  0  0  0  0  0  0  0
    4.7287    0.0943   -0.6700 H   0  0  0  0  0  0  0  0  0  0  0  0
   -2.7381   -5.5029   -2.3181 H   0  0  0  0  0  0  0  0  0  0  0  0
   -1.9937   -6.4682   -3.5824 H   0  0  0  0  0  0  0  0  0  0  0  0
   -2.4375   -1.8468   -5.5869 H   0  0  0  0  0  0  0  0  0  0  0  0
   -3.6558   -1.2218   -4.4708 H   0  0  0  0  0  0  0  0  0  0  0  0
   -3.1197   -5.9486   -5.5215 H   0  0  0  0  0  0  0  0  0  0  0  0
   -4.6594   -2.1569   -6.5642 H   0  0  0  0  0  0  0  0  0  0  0  0
   -5.2258   -3.0024   -5.1155 H   0  0  0  0  0  0  0  0  0  0  0  0
   -3.0948   -3.9446   -7.1128 H   0  0  0  0  0  0  0  0  0  0  0  0
   -4.6542   -4.6959   -6.7631 H   0  0  0  0  0  0  0  0  0  0  0  0
  2  1  1  0  0  0  0 
  3  2  1  0  0  0  0 
  2  4  1  0  0  0  0 
  2  5  1  0  0  0  0 
  6  3  1  0  0  0  0 
  3  7  1  0  0  0  0 
  3 24  1  0  0  0  0 
  4  8  1  0  0  0  0 
  4  9  1  0  0  0  0 
  4 10  1  0  0  0  0 
  5 11  1  0  0  0  0 
 12  6  1  0  0  0  0 
  6 13  1  0  0  0  0 
  6 22  1  0  0  0  0 
  7 10  1  0  0  0  0 
  8 14  1  0  0  0  0 
 12 11  1  0  0  0  0 
 15 12  1  0  0  0  0 
 12 23  1  0  0  0  0 
 13 16  1  0  0  0  0 
 15 17  1  0  0  0  0 
 15 18  1  0  0  0  0 
 15 25  1  0  0  0  0 
 16 17  1  0  0  0  0 
 17 19  2  0  0  0  0 
 18 20  1  0  0  0  0 
 19 21  1  0  0  0  0 
 20 21  1  0  0  0  0 
  1 26  1  0  0  0  0 
  1 27  1  0  0  0  0 
  1 28  1  0  0  0  0 
  5 29  1  0  0  0  0 
  5 30  1  0  0  0  0 
  7 31  1  0  0  0  0 
  7 32  1  0  0  0  0 
  8 33  1  0  0  0  0 
  8 34  1  0  0  0  0 
  9 35  1  0  0  0  0 
 10 36  1  0  0  0  0 
 10 37  1  0  0  0  0 
 11 38  1  0  0  0  0 
 11 39  1  0  0  0  0 
 13 40  1  0  0  0  0 
 13 41  1  0  0  0  0 
 14 42  1  0  0  0  0 
 14 43  1  0  0  0  0 
 14 44  1  0  0  0  0 
 16 45  1  0  0  0  0 
 16 46  1  0  0  0  0 
 18 47  1  0  0  0  0 
 18 48  1  0  0  0  0 
 19 49  1  0  0  0  0 
 20 50  1  0  0  0  0 
 20 51  1  0  0  0  0 
 21 52  1  0  0  0  0 
 21 53  1  0  0  0  0 
M  END
> <cdk:Title>
ethylestrenol

> <Conformer>
1

> <SuperDrugID>
SD000976

$$$$
