tolonium
  CDK     0628171801

 35 37  0  0  0  0  0  0  0  0999 V2000
    0.0408    0.3648    0.1406 N   0  0  0  0  0  0  0  0  0  0  0  0
   -1.0078    1.3129    0.4249 C   0  0  0  0  0  0  0  0  0  0  0  0
   -0.3182   -1.0248   -0.0213 C   0  0  0  0  0  0  0  0  0  0  0  0
    1.3530    0.7747    0.0198 C   0  0  0  0  0  0  0  0  0  0  0  0
    2.1329    0.3710   -1.0881 C   0  0  0  0  0  0  0  0  0  0  0  0
    1.9501    1.6056    0.9966 C   0  0  0  0  0  0  0  0  0  0  0  0
    3.4755    0.7718   -1.2050 C   0  0  0  0  0  0  0  0  0  0  0  0
    3.2913    2.0106    0.8791 C   0  0  0  0  0  0  0  0  0  0  0  0
    4.0678    1.5874   -0.2148 C   0  0  0  0  0  0  0  0  0  0  0  0
    4.3978    0.2534   -2.5961 S   0  0  0  0  0  0  0  0  0  0  0  0
    5.3632    1.9767   -0.2658 N   0  0  0  0  0  0  0  0  0  0  0  0
    5.9982    0.9142   -2.3514 C   0  0  0  0  0  0  0  0  0  0  0  0
    6.2913    1.6923   -1.2097 C   0  0  0  0  0  0  0  0  0  0  0  0
    6.9908    0.6585   -3.3109 C   0  0  0  0  0  0  0  0  0  0  0  0
    7.5967    2.1976   -1.0393 C   0  0  0  0  0  0  0  0  0  0  0  0
    8.2939    1.1618   -3.1356 C   0  0  0  0  0  0  0  0  0  0  0  0
    8.6134    1.9351   -1.9897 C   0  0  0  0  0  0  0  0  0  0  0  0
    9.2142    0.8785   -4.0818 N   0  0  0  0  0  0  0  0  0  0  0  0
    9.9901    2.4545   -1.7850 C   0  0  0  0  0  0  0  0  0  0  0  0
   -0.6683    2.3491    0.3352 H   0  0  0  0  0  0  0  0  0  0  0  0
   -1.8430    1.1800   -0.2665 H   0  0  0  0  0  0  0  0  0  0  0  0
   -1.3693    1.1579    1.4429 H   0  0  0  0  0  0  0  0  0  0  0  0
   -0.7294   -1.1827   -1.0208 H   0  0  0  0  0  0  0  0  0  0  0  0
   -1.0674   -1.3225    0.7165 H   0  0  0  0  0  0  0  0  0  0  0  0
    0.5415   -1.6886    0.1062 H   0  0  0  0  0  0  0  0  0  0  0  0
    1.7181   -0.2164   -1.8173 H   0  0  0  0  0  0  0  0  0  0  0  0
    1.4088    1.9135    1.8077 H   0  0  0  0  0  0  0  0  0  0  0  0
    3.6956    2.6143    1.5982 H   0  0  0  0  0  0  0  0  0  0  0  0
    6.7631    0.1026   -4.1399 H   0  0  0  0  0  0  0  0  0  0  0  0
    7.8080    2.7571   -0.2070 H   0  0  0  0  0  0  0  0  0  0  0  0
    8.9665    0.3528   -4.8585 H   0  0  0  0  0  0  0  0  0  0  0  0
   10.1232    1.2037   -3.9916 H   0  0  0  0  0  0  0  0  0  0  0  0
   10.0849    3.0487   -0.8740 H   0  0  0  0  0  0  0  0  0  0  0  0
   10.6875    1.6176   -1.7167 H   0  0  0  0  0  0  0  0  0  0  0  0
   10.2756    3.0838   -2.6297 H   0  0  0  0  0  0  0  0  0  0  0  0
  1  2  1  0  0  0  0 
  1  3  1  0  0  0  0 
  1  4  1  0  0  0  0 
  4  5  1  0  0  0  0 
  4  6  2  0  0  0  0 
  5  7  2  0  0  0  0 
  6  8  1  0  0  0  0 
  7  9  1  0  0  0  0 
  7 10  1  0  0  0  0 
  8  9  2  0  0  0  0 
  9 11  1  0  0  0  0 
 10 12  2  0  0  0  0 
 11 13  2  0  0  0  0 
 12 13  1  0  0  0  0 
 12 14  1  0  0  0  0 
 13 15  1  0  0  0  0 
 14 16  2  0  0  0  0 
 15 17  2  0  0  0  0 
 16 17  1  0  0  0  0 
 16 18  1  0  0  0  0 
 17 19  1  0  0  0  0 
  2 20  1  0  0  0  0 
  2 21  1  0  0  0  0 
  2 22  1  0  0  0  0 
  3 23  1  0  0  0  0 
  3 24  1  0  0  0  0 
  3 25  1  0  0  0  0 
  5 26  1  0  0  0  0 
  6 27  1  0  0  0  0 
  8 28  1  0  0  0  0 
 14 29  1  0  0  0  0 
 15 30  1  0  0  0  0 
 18 31  1  0  0  0  0 
 18 32  1  0  0  0  0 
 19 33  1  0  0  0  0 
 19 34  1  0  0  0  0 
 19 35  1  0  0  0  0 
M  CHG  1  10   1
M  END
> <cdk:Title>
tolonium

> <Conformer>
1

> <SuperDrugID>
SD002432

$$$$
