cefepime
  CDK     0628171802

 56 59  0  0  0  0  0  0  0  0999 V2000
    0.6960   -1.2234   -2.1380 N   0  0  0  0  0  0  0  0  0  0  0  0
    0.5484   -1.0696   -3.5497 C   0  0  1  0  0  0  0  0  0  0  0  0
   -0.8725   -1.4472   -4.0810 C   0  0  2  0  0  0  0  0  0  0  0  0
   -1.1232   -0.0509   -4.1361 N   0  0  0  0  0  0  0  0  0  0  0  0
    0.1292    0.2997   -3.8334 C   0  0  0  0  0  0  0  0  0  0  0  0
    0.7020    1.4035   -3.6941 O   0  0  0  0  0  0  0  0  0  0  0  0
   -0.8636   -1.9036   -5.0751 H   0  0  0  0  0  0  0  0  0  0  0  0
    1.3797   -1.3973   -4.1794 H   0  0  0  0  0  0  0  0  0  0  0  0
   -2.0989   -2.2368   -2.9868 S   0  0  0  0  0  0  0  0  0  0  0  0
   -2.8774   -0.7741   -2.2140 C   0  0  1  0  0  0  0  0  0  0  0  0
   -3.1920    0.3082   -3.1805 C   0  0  0  0  0  0  0  0  0  0  0  0
   -2.2738    0.6419   -4.1436 C   0  0  0  0  0  0  0  0  0  0  0  0
   -4.4794    1.0154   -2.9548 C   0  0  2  0  0  0  0  0  0  0  0  0
   -2.3560    1.6332   -5.1336 C   0  0  0  0  0  0  0  0  0  0  0  0
    1.7925   -1.6150   -1.4396 C   0  0  0  0  0  0  0  0  0  0  0  0
    1.7362   -1.6321   -0.0401 C   0  0  0  0  0  0  0  0  0  0  0  0
    2.8453   -1.9133   -2.0521 O   0  0  0  0  0  0  0  0  0  0  0  0
    2.7778   -1.6057    0.7153 N   0  0  0  0  0  0  0  0  0  0  0  0
    0.5191   -1.6510    0.6371 C   0  0  0  0  0  0  0  0  0  0  0  0
   -0.4749   -2.5295    0.3073 N   0  0  0  0  0  0  0  0  0  0  0  0
   -1.6194   -2.4733    1.0255 C   0  0  0  0  0  0  0  0  0  0  0  0
   -1.4147   -1.2004    2.2140 S   0  0  0  0  0  0  0  0  0  0  0  0
    0.2054   -0.7794    1.6957 C   0  0  0  0  0  0  0  0  0  0  0  0
   -2.7063   -3.2484    0.8736 N   0  0  0  0  0  0  0  0  0  0  0  0
    4.0053   -1.5640    0.3610 O   0  0  0  0  0  0  0  0  0  0  0  0
    4.7952   -1.0464    1.4398 C   0  0  0  0  0  0  0  0  0  0  0  0
   -4.5074    2.1324   -1.8938 N   0  0  2  0  0  0  0  0  0  0  0  0
   -3.2361    2.9510   -1.8855 C   0  0  0  0  0  0  0  0  0  0  0  0
   -4.8003    1.6105   -0.5048 C   0  0  1  0  0  0  0  0  0  0  0  0
   -6.3343    1.4912   -0.3518 C   0  0  1  0  0  0  0  0  0  0  0  0
   -6.9260    2.3537   -1.4788 C   0  0  2  0  0  0  0  0  0  0  0  0
   -5.6964    3.0429   -2.1034 C   0  0  1  0  0  0  0  0  0  0  0  0
   -3.2849    2.4595   -5.2628 O   0  0  0  0  0  0  0  0  0  0  0  0
   -1.3845    1.7606   -6.0715 O   0  0  0  0  0  0  0  0  0  0  0  0
   -0.0843   -1.0010   -1.6096 H   0  0  0  0  0  0  0  0  0  0  0  0
   -3.7597   -1.1517   -1.6934 H   0  0  0  0  0  0  0  0  0  0  0  0
   -2.1870   -0.3825   -1.4619 H   0  0  0  0  0  0  0  0  0  0  0  0
   -5.2377    0.2640   -2.7081 H   0  0  0  0  0  0  0  0  0  0  0  0
   -4.8536    1.3787   -3.9098 H   0  0  0  0  0  0  0  0  0  0  0  0
    0.7869   -0.0356    2.0842 H   0  0  0  0  0  0  0  0  0  0  0  0
   -2.7361   -3.9170    0.1716 H   0  0  0  0  0  0  0  0  0  0  0  0
   -3.4631   -3.1475    1.4720 H   0  0  0  0  0  0  0  0  0  0  0  0
    5.8372   -1.0254    1.1187 H   0  0  0  0  0  0  0  0  0  0  0  0
    4.4957   -0.0238    1.6932 H   0  0  0  0  0  0  0  0  0  0  0  0
    4.7249   -1.6823    2.3280 H   0  0  0  0  0  0  0  0  0  0  0  0
   -3.2601    3.7412   -1.1305 H   0  0  0  0  0  0  0  0  0  0  0  0
   -2.3657    2.3327   -1.6559 H   0  0  0  0  0  0  0  0  0  0  0  0
   -3.0748    3.4349   -2.8486 H   0  0  0  0  0  0  0  0  0  0  0  0
   -4.3248    0.6527   -0.2957 H   0  0  0  0  0  0  0  0  0  0  0  0
   -4.4484    2.2995    0.2726 H   0  0  0  0  0  0  0  0  0  0  0  0
   -6.6562    0.4521   -0.4601 H   0  0  0  0  0  0  0  0  0  0  0  0
   -6.6579    1.8599    0.6265 H   0  0  0  0  0  0  0  0  0  0  0  0
   -7.6386    3.0897   -1.0907 H   0  0  0  0  0  0  0  0  0  0  0  0
   -7.4339    1.7246   -2.2174 H   0  0  0  0  0  0  0  0  0  0  0  0
   -5.5685    4.0021   -1.5856 H   0  0  0  0  0  0  0  0  0  0  0  0
   -5.8827    3.2798   -3.1564 H   0  0  0  0  0  0  0  0  0  0  0  0
  2  1  1  0  0  0  0 
  2  3  1  0  0  0  0 
  3  4  1  0  0  0  0 
  4  5  1  0  0  0  0 
  2  5  1  0  0  0  0 
  5  6  2  0  0  0  0 
  3  7  1  0  0  0  0 
  2  8  1  0  0  0  0 
  3  9  1  0  0  0  0 
  9 10  1  0  0  0  0 
 10 11  1  0  0  0  0 
 11 12  2  0  0  0  0 
  4 12  1  0  0  0  0 
 11 13  1  0  0  0  0 
 12 14  1  0  0  0  0 
  1 15  1  0  0  0  0 
 15 16  1  0  0  0  0 
 15 17  2  0  0  0  0 
 16 18  2  0  0  0  0 
 16 19  1  0  0  0  0 
 19 20  1  0  0  0  0 
 20 21  2  0  0  0  0 
 21 22  1  0  0  0  0 
 22 23  1  0  0  0  0 
 19 23  2  0  0  0  0 
 21 24  1  0  0  0  0 
 18 25  1  0  0  0  0 
 25 26  1  0  0  0  0 
 13 27  1  0  0  0  0 
 27 28  1  0  0  0  0 
 27 29  1  0  0  0  0 
 29 30  1  0  0  0  0 
 30 31  1  0  0  0  0 
 31 32  1  0  0  0  0 
 27 32  1  0  0  0  0 
 14 33  2  0  0  0  0 
 14 34  1  0  0  0  0 
  1 35  1  0  0  0  0 
 10 36  1  0  0  0  0 
 10 37  1  0  0  0  0 
 13 38  1  0  0  0  0 
 13 39  1  0  0  0  0 
 23 40  1  0  0  0  0 
 24 41  1  0  0  0  0 
 24 42  1  0  0  0  0 
 26 43  1  0  0  0  0 
 26 44  1  0  0  0  0 
 26 45  1  0  0  0  0 
 28 46  1  0  0  0  0 
 28 47  1  0  0  0  0 
 28 48  1  0  0  0  0 
 29 49  1  0  0  0  0 
 29 50  1  0  0  0  0 
 30 51  1  0  0  0  0 
 30 52  1  0  0  0  0 
 31 53  1  0  0  0  0 
 31 54  1  0  0  0  0 
 32 55  1  0  0  0  0 
 32 56  1  0  0  0  0 
M  CHG  1  27   1
M  CHG  1  34  -1
M  END
> <cdk:Title>
cefepime

> <Conformer>
1

> <SuperDrugID>
SD000463

$$$$
