didanosine
  CDK     0628171802

 29 31  0  0  0  0  0  0  0  0999 V2000
    3.7059    3.1207    1.4120 O   0  0  0  0  0  0  0  0  0  0  0  0
    2.3176    2.8392    1.5496 C   0  0  1  0  0  0  0  0  0  0  0  0
    1.9321    1.6387    0.6496 C   0  0  2  0  0  0  0  0  0  0  0  0
    0.4622    1.1992    0.8051 C   0  0  1  0  0  0  0  0  0  0  0  0
    0.5577    0.1242    1.8905 C   0  0  1  0  0  0  0  0  0  0  0  0
    1.9450   -0.4983    1.6235 C   0  0  1  0  0  0  0  0  0  0  0  0
    2.7506    0.5040    0.9780 O   0  0  0  0  0  0  0  0  0  0  0  0
    2.5705   -1.0126    2.8127 N   0  0  0  0  0  0  0  0  0  0  0  0
    2.3665   -2.2310    3.3643 C   0  0  0  0  0  0  0  0  0  0  0  0
    3.1006   -2.4077    4.4828 N   0  0  0  0  0  0  0  0  0  0  0  0
    3.7855   -1.2680    4.6419 C   0  0  0  0  0  0  0  0  0  0  0  0
    3.4672   -0.3997    3.6054 C   0  0  0  0  0  0  0  0  0  0  0  0
    4.0387    0.8277    3.5294 N   0  0  0  0  0  0  0  0  0  0  0  0
    4.9270    1.2239    4.4800 C   0  0  0  0  0  0  0  0  0  0  0  0
    5.2466    0.3926    5.5120 N   0  0  0  0  0  0  0  0  0  0  0  0
    4.7027   -0.8520    5.6210 C   0  0  0  0  0  0  0  0  0  0  0  0
    5.0183   -1.5967    6.5752 O   0  0  0  0  0  0  0  0  0  0  0  0
    3.8789    3.8446    2.0497 H   0  0  0  0  0  0  0  0  0  0  0  0
    2.1034    2.6185    2.5969 H   0  0  0  0  0  0  0  0  0  0  0  0
    1.7536    3.7283    1.2607 H   0  0  0  0  0  0  0  0  0  0  0  0
    2.1244    1.9194   -0.3889 H   0  0  0  0  0  0  0  0  0  0  0  0
   -0.2046    2.0193    1.0868 H   0  0  0  0  0  0  0  0  0  0  0  0
    0.1031    0.7565   -0.1282 H   0  0  0  0  0  0  0  0  0  0  0  0
    0.5174    0.5873    2.8801 H   0  0  0  0  0  0  0  0  0  0  0  0
   -0.2451   -0.6117    1.8031 H   0  0  0  0  0  0  0  0  0  0  0  0
    1.8309   -1.3132    0.8992 H   0  0  0  0  0  0  0  0  0  0  0  0
    1.7363   -2.9405    2.9862 H   0  0  0  0  0  0  0  0  0  0  0  0
    5.3532    2.1492    4.4206 H   0  0  0  0  0  0  0  0  0  0  0  0
    5.8750    0.6953    6.1850 H   0  0  0  0  0  0  0  0  0  0  0  0
  1  2  1  0  0  0  0 
  3  2  1  0  0  0  0 
  3  4  1  0  0  0  0 
  4  5  1  0  0  0  0 
  6  5  1  0  0  0  0 
  6  7  1  0  0  0  0 
  3  7  1  0  0  0  0 
  6  8  1  0  0  0  0 
  8  9  1  0  0  0  0 
  9 10  2  0  0  0  0 
 10 11  1  0  0  0  0 
 11 12  2  0  0  0  0 
  8 12  1  0  0  0  0 
 12 13  1  0  0  0  0 
 13 14  2  0  0  0  0 
 14 15  1  0  0  0  0 
 15 16  1  0  0  0  0 
 11 16  1  0  0  0  0 
 16 17  2  0  0  0  0 
 18  1  1  0  0  0  0 
 19  2  1  0  0  0  0 
 20  2  1  0  0  0  0 
  3 21  1  0  0  0  0 
 22  4  1  0  0  0  0 
 23  4  1  0  0  0  0 
 24  5  1  0  0  0  0 
 25  5  1  0  0  0  0 
  6 26  1  0  0  0  0 
 27  9  1  0  0  0  0 
 28 14  1  0  0  0  0 
 29 15  1  0  0  0  0 
M  END
> <cdk:Title>
didanosine

> <Conformer>
1

> <SuperDrugID>
SD000772

$$$$
