piroctone
  CDK     0628171801

 40 40  0  0  0  0  0  0  0  0999 V2000
    3.8898    3.5192    0.1464 C   0  0  0  0  0  0  0  0  0  0  0  0
    2.9172    3.3089   -1.0577 C   0  0  2  0  0  0  0  0  0  0  0  0
    3.3213    2.0126   -1.8425 C   0  0  1  0  0  0  0  0  0  0  0  0
    3.1590    0.7459   -1.0575 C   0  0  0  0  0  0  0  0  0  0  0  0
    4.3059    0.0431   -0.6175 C   0  0  0  0  0  0  0  0  0  0  0  0
    4.1816   -1.1272    0.1598 C   0  0  0  0  0  0  0  0  0  0  0  0
    5.3933   -1.8448    0.6196 C   0  0  0  0  0  0  0  0  0  0  0  0
    2.8903   -1.5949    0.4729 C   0  0  0  0  0  0  0  0  0  0  0  0
    1.7647   -0.8946    0.0055 C   0  0  0  0  0  0  0  0  0  0  0  0
    0.6256   -1.3387    0.2843 O   0  0  0  0  0  0  0  0  0  0  0  0
    1.9213    0.2411   -0.7385 N   0  0  0  0  0  0  0  0  0  0  0  0
    0.8368    0.8456   -1.1562 O   0  0  0  0  0  0  0  0  0  0  0  0
    2.8704    4.6154   -1.9424 C   0  0  1  0  0  0  0  0  0  0  0  0
    1.6155    4.9633   -2.8468 C   0  0  2  0  0  0  0  0  0  0  0  0
    1.5101    4.0747   -4.1300 C   0  0  0  0  0  0  0  0  0  0  0  0
    1.7739    6.4465   -3.3395 C   0  0  0  0  0  0  0  0  0  0  0  0
    0.2739    4.8595   -2.0502 C   0  0  0  0  0  0  0  0  0  0  0  0
    3.5756    4.3794    0.7426 H   0  0  0  0  0  0  0  0  0  0  0  0
    3.8931    2.6501    0.8067 H   0  0  0  0  0  0  0  0  0  0  0  0
    4.9094    3.6948   -0.2058 H   0  0  0  0  0  0  0  0  0  0  0  0
    1.9331    3.1575   -0.6130 H   0  0  0  0  0  0  0  0  0  0  0  0
    2.7195    1.9062   -2.7383 H   0  0  0  0  0  0  0  0  0  0  0  0
    4.3527    2.1290   -2.1916 H   0  0  0  0  0  0  0  0  0  0  0  0
    5.2390    0.3886   -0.8562 H   0  0  0  0  0  0  0  0  0  0  0  0
    5.9081   -2.2734   -0.2410 H   0  0  0  0  0  0  0  0  0  0  0  0
    5.1524   -2.6520    1.3130 H   0  0  0  0  0  0  0  0  0  0  0  0
    6.0672   -1.1546    1.1290 H   0  0  0  0  0  0  0  0  0  0  0  0
    2.7668   -2.4443    1.0307 H   0  0  0  0  0  0  0  0  0  0  0  0
    0.6434    0.4309   -2.0234 H   0  0  0  0  0  0  0  0  0  0  0  0
    2.9745    5.4615   -1.2533 H   0  0  0  0  0  0  0  0  0  0  0  0
    3.7693    4.6320   -2.5668 H   0  0  0  0  0  0  0  0  0  0  0  0
    0.7523    4.4684   -4.8123 H   0  0  0  0  0  0  0  0  0  0  0  0
    2.4603    4.0498   -4.6675 H   0  0  0  0  0  0  0  0  0  0  0  0
    1.2127    3.0559   -3.8892 H   0  0  0  0  0  0  0  0  0  0  0  0
    0.9440    6.7398   -3.9880 H   0  0  0  0  0  0  0  0  0  0  0  0
    1.7927    7.1397   -2.4950 H   0  0  0  0  0  0  0  0  0  0  0  0
    2.7023    6.5722   -3.9037 H   0  0  0  0  0  0  0  0  0  0  0  0
   -0.5582    5.2588   -2.6376 H   0  0  0  0  0  0  0  0  0  0  0  0
    0.3338    5.4246   -1.1174 H   0  0  0  0  0  0  0  0  0  0  0  0
    0.0409    3.8199   -1.8084 H   0  0  0  0  0  0  0  0  0  0  0  0
  2  1  1  0  0  0  0 
  2  3  1  0  0  0  0 
  3  4  1  0  0  0  0 
  4  5  2  0  0  0  0 
  5  6  1  0  0  0  0 
  6  7  1  0  0  0  0 
  6  8  2  0  0  0  0 
  8  9  1  0  0  0  0 
  9 10  2  0  0  0  0 
  9 11  1  0  0  0  0 
  4 11  1  0  0  0  0 
 11 12  1  0  0  0  0 
  2 13  1  0  0  0  0 
 13 14  1  0  0  0  0 
 14 15  1  0  0  0  0 
 14 16  1  0  0  0  0 
 14 17  1  0  0  0  0 
  1 18  1  0  0  0  0 
  1 19  1  0  0  0  0 
  1 20  1  0  0  0  0 
  2 21  1  0  0  0  0 
  3 22  1  0  0  0  0 
  3 23  1  0  0  0  0 
  5 24  1  0  0  0  0 
  7 25  1  0  0  0  0 
  7 26  1  0  0  0  0 
  7 27  1  0  0  0  0 
  8 28  1  0  0  0  0 
 12 29  1  0  0  0  0 
 13 30  1  0  0  0  0 
 13 31  1  0  0  0  0 
 15 32  1  0  0  0  0 
 15 33  1  0  0  0  0 
 15 34  1  0  0  0  0 
 16 35  1  0  0  0  0 
 16 36  1  0  0  0  0 
 16 37  1  0  0  0  0 
 17 38  1  0  0  0  0 
 17 39  1  0  0  0  0 
 17 40  1  0  0  0  0 
M  END
> <cdk:Title>
piroctone

> <Conformer>
1

> <SuperDrugID>
SD003000

$$$$
