carbubarb
  CDK     0628171801

 36 36  0  0  0  0  0  0  0  0999 V2000
   -1.4752    0.6701   -1.2226 C   0  0  1  0  0  0  0  0  0  0  0  0
   -0.7335    0.9386    0.1231 C   0  0  1  0  0  0  0  0  0  0  0  0
   -2.3735    1.8552   -1.7369 C   0  0  1  0  0  0  0  0  0  0  0  0
    0.5467    0.2943    0.1348 O   0  0  0  0  0  0  0  0  0  0  0  0
   -3.2517    1.4776   -2.9915 C   0  0  1  0  0  0  0  0  0  0  0  0
   -3.3409    2.2275   -0.6409 C   0  0  0  0  0  0  0  0  0  0  0  0
   -1.4914    3.0328   -2.0686 C   0  0  0  0  0  0  0  0  0  0  0  0
    1.2142   -0.1905    1.2177 C   0  0  0  0  0  0  0  0  0  0  0  0
   -2.5366    1.0343   -4.3034 C   0  0  1  0  0  0  0  0  0  0  0  0
   -4.1276    1.3791   -0.1565 O   0  0  0  0  0  0  0  0  0  0  0  0
   -3.4093    3.4789   -0.1222 N   0  0  0  0  0  0  0  0  0  0  0  0
   -0.5350    2.9348   -2.8721 O   0  0  0  0  0  0  0  0  0  0  0  0
   -1.6507    4.2498   -1.4895 N   0  0  0  0  0  0  0  0  0  0  0  0
    2.4475   -0.6790    1.0350 N   0  0  0  0  0  0  0  0  0  0  0  0
    0.7205   -0.2004    2.3679 O   0  0  0  0  0  0  0  0  0  0  0  0
   -3.5489    0.7635   -5.4502 C   0  0  1  0  0  0  0  0  0  0  0  0
   -2.5949    4.4752   -0.5440 C   0  0  0  0  0  0  0  0  0  0  0  0
   -2.8797    0.3609   -6.7830 C   0  0  0  0  0  0  0  0  0  0  0  0
   -2.7099    5.6173   -0.0477 O   0  0  0  0  0  0  0  0  0  0  0  0
   -0.7340    0.4234   -1.9873 H   0  0  0  0  0  0  0  0  0  0  0  0
   -2.0876   -0.2281   -1.0957 H   0  0  0  0  0  0  0  0  0  0  0  0
   -0.5489    2.0055    0.2650 H   0  0  0  0  0  0  0  0  0  0  0  0
   -1.3589    0.6023    0.9542 H   0  0  0  0  0  0  0  0  0  0  0  0
   -3.9307    0.6653   -2.7137 H   0  0  0  0  0  0  0  0  0  0  0  0
   -3.8773    2.3428   -3.2375 H   0  0  0  0  0  0  0  0  0  0  0  0
   -1.8544    1.8146   -4.6421 H   0  0  0  0  0  0  0  0  0  0  0  0
   -1.9589    0.1265   -4.1155 H   0  0  0  0  0  0  0  0  0  0  0  0
   -4.0573    3.6645    0.5729 H   0  0  0  0  0  0  0  0  0  0  0  0
   -1.0639    4.9770   -1.7539 H   0  0  0  0  0  0  0  0  0  0  0  0
    2.8504   -0.6536    0.1547 H   0  0  0  0  0  0  0  0  0  0  0  0
    2.9433   -1.0492    1.7802 H   0  0  0  0  0  0  0  0  0  0  0  0
   -4.2306   -0.0363   -5.1491 H   0  0  0  0  0  0  0  0  0  0  0  0
   -4.1416    1.6657   -5.6276 H   0  0  0  0  0  0  0  0  0  0  0  0
   -3.6468    0.2184   -7.5473 H   0  0  0  0  0  0  0  0  0  0  0  0
   -2.1950    1.1414   -7.1216 H   0  0  0  0  0  0  0  0  0  0  0  0
   -2.3270   -0.5730   -6.6657 H   0  0  0  0  0  0  0  0  0  0  0  0
  1  2  1  0  0  0  0 
  1  3  1  0  0  0  0 
  2  4  1  0  0  0  0 
  3  5  1  0  0  0  0 
  3  6  1  0  0  0  0 
  3  7  1  0  0  0  0 
  4  8  1  0  0  0  0 
  5  9  1  0  0  0  0 
  6 10  2  0  0  0  0 
  6 11  1  0  0  0  0 
  7 12  2  0  0  0  0 
  7 13  1  0  0  0  0 
  8 14  1  0  0  0  0 
  8 15  2  0  0  0  0 
  9 16  1  0  0  0  0 
 11 17  1  0  0  0  0 
 13 17  1  0  0  0  0 
 16 18  1  0  0  0  0 
 17 19  2  0  0  0  0 
 20  1  1  0  0  0  0 
 21  1  1  0  0  0  0 
 22  2  1  0  0  0  0 
 23  2  1  0  0  0  0 
 24  5  1  0  0  0  0 
 25  5  1  0  0  0  0 
 26  9  1  0  0  0  0 
 27  9  1  0  0  0  0 
 28 11  1  0  0  0  0 
 29 13  1  0  0  0  0 
 30 14  1  0  0  0  0 
 31 14  1  0  0  0  0 
 32 16  1  0  0  0  0 
 33 16  1  0  0  0  0 
 34 18  1  0  0  0  0 
 35 18  1  0  0  0  0 
 36 18  1  0  0  0  0 
M  END
> <cdk:Title>
carbubarb

> <Conformer>
1

> <SuperDrugID>
SD003163

$$$$
