phenolsulfonphthalein
  CDK     0628171801

 39 42  0  0  0  0  0  0  0  0999 V2000
    0.7911    2.6241   -1.8508 O   0  0  0  0  0  0  0  0  0  0  0  0
    0.7976    4.2002   -2.1335 S   0  0  2  0  0  0  0  0  0  0  0  0
    1.4460    4.5957   -3.5439 O   0  0  0  0  0  0  0  0  0  0  0  0
    1.6312    5.0159   -0.8677 O   0  0  0  0  0  0  0  0  0  0  0  0
   -0.7731    4.9096   -1.9053 C   0  0  0  0  0  0  0  0  0  0  0  0
    0.7560    6.0775   -0.3782 C   0  0  1  0  0  0  0  0  0  0  0  0
   -0.6377    5.8950   -0.9264 C   0  0  0  0  0  0  0  0  0  0  0  0
   -1.9928    4.6036   -2.5303 C   0  0  0  0  0  0  0  0  0  0  0  0
    0.6577    5.9582    1.1252 C   0  0  0  0  0  0  0  0  0  0  0  0
    1.4680    7.3327   -0.8352 C   0  0  0  0  0  0  0  0  0  0  0  0
   -1.7938    6.6217   -0.5544 C   0  0  0  0  0  0  0  0  0  0  0  0
   -3.1345    5.3335   -2.1470 C   0  0  0  0  0  0  0  0  0  0  0  0
    0.5772    4.6807    1.7380 C   0  0  0  0  0  0  0  0  0  0  0  0
    0.5953    7.0942    1.9777 C   0  0  0  0  0  0  0  0  0  0  0  0
    0.8865    8.3115   -1.6849 C   0  0  0  0  0  0  0  0  0  0  0  0
    2.7993    7.5703   -0.3954 C   0  0  0  0  0  0  0  0  0  0  0  0
   -3.0363    6.3366   -1.1590 C   0  0  0  0  0  0  0  0  0  0  0  0
    0.4758    4.5421    3.1343 C   0  0  0  0  0  0  0  0  0  0  0  0
    0.4994    6.9593    3.3741 C   0  0  0  0  0  0  0  0  0  0  0  0
    1.5702    9.4929   -2.0242 C   0  0  0  0  0  0  0  0  0  0  0  0
    3.4892    8.7483   -0.7363 C   0  0  0  0  0  0  0  0  0  0  0  0
    0.4466    5.6815    3.9581 C   0  0  0  0  0  0  0  0  0  0  0  0
    2.8669    9.7240   -1.5330 C   0  0  0  0  0  0  0  0  0  0  0  0
    0.3652    5.5370    5.3047 O   0  0  0  0  0  0  0  0  0  0  0  0
    3.5255   10.8729   -1.8194 O   0  0  0  0  0  0  0  0  0  0  0  0
   -2.0495    3.8714   -3.2405 H   0  0  0  0  0  0  0  0  0  0  0  0
   -1.7366    7.3539    0.1535 H   0  0  0  0  0  0  0  0  0  0  0  0
   -4.0372    5.1342   -2.5845 H   0  0  0  0  0  0  0  0  0  0  0  0
    0.5904    3.8319    1.1675 H   0  0  0  0  0  0  0  0  0  0  0  0
    0.6163    8.0399    1.5917 H   0  0  0  0  0  0  0  0  0  0  0  0
   -0.0465    8.1842   -2.0747 H   0  0  0  0  0  0  0  0  0  0  0  0
    3.2821    6.8822    0.1910 H   0  0  0  0  0  0  0  0  0  0  0  0
   -3.8690    6.8578   -0.8766 H   0  0  0  0  0  0  0  0  0  0  0  0
    0.4206    3.6100    3.5495 H   0  0  0  0  0  0  0  0  0  0  0  0
    0.4655    7.7938    3.9634 H   0  0  0  0  0  0  0  0  0  0  0  0
    1.1187   10.1853   -2.6256 H   0  0  0  0  0  0  0  0  0  0  0  0
    4.4415    8.8994   -0.3957 H   0  0  0  0  0  0  0  0  0  0  0  0
    0.1685    6.4318    5.6540 H   0  0  0  0  0  0  0  0  0  0  0  0
    2.8359   11.5075   -2.1033 H   0  0  0  0  0  0  0  0  0  0  0  0
  1  2  2  0  0  0  0 
  2  3  2  0  0  0  0 
  2  4  1  0  0  0  0 
  2  5  1  0  0  0  0 
  4  6  1  0  0  0  0 
  5  7  2  0  0  0  0 
  5  8  1  0  0  0  0 
  6  7  1  0  0  0  0 
  6  9  1  0  0  0  0 
  6 10  1  0  0  0  0 
  7 11  1  0  0  0  0 
  8 12  2  0  0  0  0 
  9 13  2  0  0  0  0 
  9 14  1  0  0  0  0 
 10 15  2  0  0  0  0 
 10 16  1  0  0  0  0 
 11 17  2  0  0  0  0 
 12 17  1  0  0  0  0 
 13 18  1  0  0  0  0 
 14 19  2  0  0  0  0 
 15 20  1  0  0  0  0 
 16 21  2  0  0  0  0 
 18 22  2  0  0  0  0 
 19 22  1  0  0  0  0 
 20 23  2  0  0  0  0 
 21 23  1  0  0  0  0 
 22 24  1  0  0  0  0 
 23 25  1  0  0  0  0 
  8 26  1  0  0  0  0 
 11 27  1  0  0  0  0 
 12 28  1  0  0  0  0 
 13 29  1  0  0  0  0 
 14 30  1  0  0  0  0 
 15 31  1  0  0  0  0 
 16 32  1  0  0  0  0 
 17 33  1  0  0  0  0 
 18 34  1  0  0  0  0 
 19 35  1  0  0  0  0 
 20 36  1  0  0  0  0 
 21 37  1  0  0  0  0 
 24 38  1  0  0  0  0 
 25 39  1  0  0  0  0 
M  END
> <cdk:Title>
phenolsulfonphthalein

> <Conformer>
1

> <SuperDrugID>
SD002963

$$$$
