bufexamac
  CDK     0628171801

 33 33  0  0  0  0  0  0  0  0999 V2000
   -0.2125   -0.1837   -0.6703 C   0  0  2  0  0  0  0  0  0  0  0  0
    0.1520   -0.7143   -1.9986 C   0  0  0  0  0  0  0  0  0  0  0  0
   -0.0203   -1.2053    0.3949 C   0  0  0  0  0  0  0  0  0  0  0  0
   -0.7960   -0.9304   -2.9421 N   0  0  0  0  0  0  0  0  0  0  0  0
    1.3557   -0.9681   -2.2397 O   0  0  0  0  0  0  0  0  0  0  0  0
    1.2042   -1.2947    1.0980 C   0  0  0  0  0  0  0  0  0  0  0  0
   -1.0548   -2.1168    0.7185 C   0  0  0  0  0  0  0  0  0  0  0  0
   -0.4976   -1.3975   -4.1244 O   0  0  0  0  0  0  0  0  0  0  0  0
    1.3929   -2.2751    2.0905 C   0  0  0  0  0  0  0  0  0  0  0  0
   -0.8635   -3.0946    1.7131 C   0  0  0  0  0  0  0  0  0  0  0  0
    0.3647   -3.1892    2.3968 C   0  0  0  0  0  0  0  0  0  0  0  0
    0.5481   -4.1410    3.3687 O   0  0  0  0  0  0  0  0  0  0  0  0
    1.1063   -5.3757    2.8668 C   0  0  1  0  0  0  0  0  0  0  0  0
    1.3346   -6.3911    4.0143 C   0  0  1  0  0  0  0  0  0  0  0  0
    2.3345   -5.8884    5.0894 C   0  0  1  0  0  0  0  0  0  0  0  0
    2.5619   -6.9115    6.2256 C   0  0  0  0  0  0  0  0  0  0  0  0
   -1.2520    0.1584   -0.6714 H   0  0  0  0  0  0  0  0  0  0  0  0
    0.4011    0.7021   -0.4766 H   0  0  0  0  0  0  0  0  0  0  0  0
   -1.7280   -0.7346   -2.7377 H   0  0  0  0  0  0  0  0  0  0  0  0
    1.9696   -0.6473    0.8897 H   0  0  0  0  0  0  0  0  0  0  0  0
   -1.9553   -2.0741    0.2328 H   0  0  0  0  0  0  0  0  0  0  0  0
   -0.5335   -2.3719   -4.0214 H   0  0  0  0  0  0  0  0  0  0  0  0
    2.2846   -2.3212    2.5865 H   0  0  0  0  0  0  0  0  0  0  0  0
   -1.6238   -3.7399    1.9353 H   0  0  0  0  0  0  0  0  0  0  0  0
    0.4221   -5.8286    2.1428 H   0  0  0  0  0  0  0  0  0  0  0  0
    2.0626   -5.1953    2.3656 H   0  0  0  0  0  0  0  0  0  0  0  0
    0.3747   -6.6185    4.4845 H   0  0  0  0  0  0  0  0  0  0  0  0
    1.7206   -7.3183    3.5808 H   0  0  0  0  0  0  0  0  0  0  0  0
    3.2973   -5.6758    4.6161 H   0  0  0  0  0  0  0  0  0  0  0  0
    1.9599   -4.9607    5.5289 H   0  0  0  0  0  0  0  0  0  0  0  0
    1.6219   -7.1355    6.7343 H   0  0  0  0  0  0  0  0  0  0  0  0
    2.9801   -7.8384    5.8278 H   0  0  0  0  0  0  0  0  0  0  0  0
    3.2617   -6.5003    6.9560 H   0  0  0  0  0  0  0  0  0  0  0  0
  1  2  1  0  0  0  0 
  1  3  1  0  0  0  0 
  2  4  1  0  0  0  0 
  2  5  2  0  0  0  0 
  3  6  2  0  0  0  0 
  3  7  1  0  0  0  0 
  4  8  1  0  0  0  0 
  6  9  1  0  0  0  0 
  7 10  2  0  0  0  0 
  9 11  2  0  0  0  0 
 10 11  1  0  0  0  0 
 11 12  1  0  0  0  0 
 12 13  1  0  0  0  0 
 13 14  1  0  0  0  0 
 14 15  1  0  0  0  0 
 15 16  1  0  0  0  0 
  1 17  1  0  0  0  0 
  1 18  1  0  0  0  0 
  4 19  1  0  0  0  0 
  6 20  1  0  0  0  0 
  7 21  1  0  0  0  0 
  8 22  1  0  0  0  0 
  9 23  1  0  0  0  0 
 10 24  1  0  0  0  0 
 13 25  1  0  0  0  0 
 13 26  1  0  0  0  0 
 14 27  1  0  0  0  0 
 14 28  1  0  0  0  0 
 15 29  1  0  0  0  0 
 15 30  1  0  0  0  0 
 16 31  1  0  0  0  0 
 16 32  1  0  0  0  0 
 16 33  1  0  0  0  0 
M  END
> <cdk:Title>
bufexamac

> <Conformer>
1

> <SuperDrugID>
SD002646

$$$$
