talaporfin
  CDK     0628171801

 93 97  0  0  0  0  0  0  0  0999 V2000
    0.5833   -4.9650    1.2683 C   0  0  2  0  0  0  0  0  0  0  0  0
   -0.1561   -5.2354    2.5345 C   0  0  0  0  0  0  0  0  0  0  0  0
   -0.2443   -4.9876    0.0037 C   0  0  0  0  0  0  0  0  0  0  0  0
   -0.7106   -6.3973    2.9998 N   0  0  0  0  0  0  0  0  0  0  0  0
   -0.2609   -4.2903    3.3500 O   0  0  0  0  0  0  0  0  0  0  0  0
   -1.4426   -4.2217   -0.0761 C   0  0  0  0  0  0  0  0  0  0  0  0
    0.1861   -5.8143   -1.0710 C   0  0  0  0  0  0  0  0  0  0  0  0
   -0.5675   -7.7716    2.5989 C   0  0  1  0  0  0  0  0  0  0  0  0
   -1.6870   -2.9411    0.6466 C   0  0  1  0  0  0  0  0  0  0  0  0
   -2.5164   -4.5292   -0.8335 N   0  0  0  0  0  0  0  0  0  0  0  0
    1.5057   -6.1373   -1.4427 C   0  0  0  0  0  0  0  0  0  0  0  0
   -0.6207   -6.5414   -1.8687 N   0  0  0  0  0  0  0  0  0  0  0  0
   -0.7858   -8.0901    1.0929 C   0  0  1  0  0  0  0  0  0  0  0  0
    0.6940   -8.3540    3.1176 C   0  0  0  0  0  0  0  0  0  0  0  0
   -0.7708   -1.7756    0.1435 C   0  0  2  0  0  0  0  0  0  0  0  0
   -3.2045   -2.6718    0.4190 C   0  0  1  0  0  0  0  0  0  0  0  0
   -3.5376   -3.6801   -0.6041 C   0  0  0  0  0  0  0  0  0  0  0  0
    2.6966   -5.5007   -1.0125 C   0  0  0  0  0  0  0  0  0  0  0  0
    1.4389   -7.1742   -2.3811 C   0  0  0  0  0  0  0  0  0  0  0  0
    0.0779   -7.4137   -2.6235 C   0  0  0  0  0  0  0  0  0  0  0  0
   -1.1148   -9.4968    0.7712 C   0  0  0  0  0  0  0  0  0  0  0  0
    0.8263   -9.6958    3.2271 O   0  0  0  0  0  0  0  0  0  0  0  0
    1.6614   -7.6447    3.4766 O   0  0  0  0  0  0  0  0  0  0  0  0
   -0.8635   -0.5120    1.0449 C   0  0  2  0  0  0  0  0  0  0  0  0
   -4.0484   -2.9202    1.7477 C   0  0  0  0  0  0  0  0  0  0  0  0
   -4.8117   -3.6803   -1.2030 C   0  0  0  0  0  0  0  0  0  0  0  0
    3.8564   -6.1794   -0.8400 O   0  0  0  0  0  0  0  0  0  0  0  0
    2.7122   -4.2675   -0.7990 O   0  0  0  0  0  0  0  0  0  0  0  0
    2.6175   -7.8422   -2.9933 C   0  0  0  0  0  0  0  0  0  0  0  0
   -0.4533   -8.4199   -3.4552 C   0  0  0  0  0  0  0  0  0  0  0  0
   -0.2933  -10.2346   -0.0151 O   0  0  0  0  0  0  0  0  0  0  0  0
   -2.1717  -10.0205    1.1900 O   0  0  0  0  0  0  0  0  0  0  0  0
    0.0277    0.5752    0.6025 C   0  0  0  0  0  0  0  0  0  0  0  0
   -5.3468   -4.6092   -2.1104 C   0  0  0  0  0  0  0  0  0  0  0  0
   -1.8042   -8.6198   -3.7912 C   0  0  0  0  0  0  0  0  0  0  0  0
   -0.4849    1.7456    0.1550 O   0  0  0  0  0  0  0  0  0  0  0  0
    1.2717    0.4433    0.6554 O   0  0  0  0  0  0  0  0  0  0  0  0
   -4.7045   -5.6929   -2.5791 N   0  0  0  0  0  0  0  0  0  0  0  0
   -6.6422   -4.5800   -2.6536 C   0  0  0  0  0  0  0  0  0  0  0  0
   -2.3287   -9.7145   -4.4990 C   0  0  0  0  0  0  0  0  0  0  0  0
   -2.8193   -7.7815   -3.5236 N   0  0  0  0  0  0  0  0  0  0  0  0
   -5.5312   -6.3864   -3.3837 C   0  0  0  0  0  0  0  0  0  0  0  0
   -7.6869   -3.5419   -2.4530 C   0  0  0  0  0  0  0  0  0  0  0  0
   -6.7659   -5.7229   -3.4526 C   0  0  0  0  0  0  0  0  0  0  0  0
   -1.5743  -10.9078   -4.9733 C   0  0  2  0  0  0  0  0  0  0  0  0
   -3.6966   -9.4658   -4.6689 C   0  0  0  0  0  0  0  0  0  0  0  0
   -3.9687   -8.2394   -4.0478 C   0  0  0  0  0  0  0  0  0  0  0  0
   -5.2200   -7.5994   -4.0233 C   0  0  0  0  0  0  0  0  0  0  0  0
   -7.8638   -6.1249   -4.2114 C   0  0  0  0  0  0  0  0  0  0  0  0
   -0.9150  -10.6703   -6.3495 C   0  0  0  0  0  0  0  0  0  0  0  0
   -4.6949  -10.3059   -5.3767 C   0  0  0  0  0  0  0  0  0  0  0  0
   -9.1414   -6.0777   -3.8134 C   0  0  0  0  0  0  0  0  0  0  0  0
    1.3759   -5.7120    1.2601 H   0  0  0  0  0  0  0  0  0  0  0  0
    1.0799   -3.9938    1.3310 H   0  0  0  0  0  0  0  0  0  0  0  0
   -1.2387   -6.2837    3.8060 H   0  0  0  0  0  0  0  0  0  0  0  0
   -1.3702   -8.2649    3.1549 H   0  0  0  0  0  0  0  0  0  0  0  0
   -1.5025   -3.0647    1.7076 H   0  0  0  0  0  0  0  0  0  0  0  0
   -1.5875   -6.5066   -1.8325 H   0  0  0  0  0  0  0  0  0  0  0  0
   -1.5990   -7.4689    0.7109 H   0  0  0  0  0  0  0  0  0  0  0  0
    0.1318   -7.8427    0.5641 H   0  0  0  0  0  0  0  0  0  0  0  0
   -1.0386   -1.5114   -0.8843 H   0  0  0  0  0  0  0  0  0  0  0  0
    0.2683   -2.1084    0.1283 H   0  0  0  0  0  0  0  0  0  0  0  0
   -3.3454   -1.6704   -0.0788 H   0  0  0  0  0  0  0  0  0  0  0  0
    1.6472  -10.0789    3.6010 H   0  0  0  0  0  0  0  0  0  0  0  0
   -0.5981   -0.7735    2.0718 H   0  0  0  0  0  0  0  0  0  0  0  0
   -1.8911   -0.1429    1.0537 H   0  0  0  0  0  0  0  0  0  0  0  0
   -3.9182   -3.9411    2.1148 H   0  0  0  0  0  0  0  0  0  0  0  0
   -3.7235   -2.2252    2.5236 H   0  0  0  0  0  0  0  0  0  0  0  0
   -5.1098   -2.7455    1.5656 H   0  0  0  0  0  0  0  0  0  0  0  0
   -5.4228   -2.9130   -0.9220 H   0  0  0  0  0  0  0  0  0  0  0  0
    4.6663   -5.7178   -0.5281 H   0  0  0  0  0  0  0  0  0  0  0  0
    3.2483   -7.0924   -3.4736 H   0  0  0  0  0  0  0  0  0  0  0  0
    2.3559   -8.5818   -3.7462 H   0  0  0  0  0  0  0  0  0  0  0  0
    3.1936   -8.3486   -2.2170 H   0  0  0  0  0  0  0  0  0  0  0  0
    0.2065   -9.0833   -3.8559 H   0  0  0  0  0  0  0  0  0  0  0  0
   -0.5181  -11.1606   -0.2479 H   0  0  0  0  0  0  0  0  0  0  0  0
    0.1132    2.4717   -0.1208 H   0  0  0  0  0  0  0  0  0  0  0  0
   -2.7292   -6.9450   -3.0452 H   0  0  0  0  0  0  0  0  0  0  0  0
   -7.2745   -2.5886   -2.1303 H   0  0  0  0  0  0  0  0  0  0  0  0
   -8.2172   -3.3542   -3.3873 H   0  0  0  0  0  0  0  0  0  0  0  0
   -8.3983   -3.8810   -1.6997 H   0  0  0  0  0  0  0  0  0  0  0  0
   -2.2278  -11.7790   -5.0397 H   0  0  0  0  0  0  0  0  0  0  0  0
   -0.8065  -11.1727   -4.2445 H   0  0  0  0  0  0  0  0  0  0  0  0
   -5.9788   -8.0613   -4.5254 H   0  0  0  0  0  0  0  0  0  0  0  0
   -7.6862   -6.4962   -5.1159 H   0  0  0  0  0  0  0  0  0  0  0  0
   -0.3434  -11.5537   -6.6416 H   0  0  0  0  0  0  0  0  0  0  0  0
   -0.2352   -9.8171   -6.3104 H   0  0  0  0  0  0  0  0  0  0  0  0
   -1.6768  -10.4829   -7.1097 H   0  0  0  0  0  0  0  0  0  0  0  0
   -5.4635  -10.6247   -4.6713 H   0  0  0  0  0  0  0  0  0  0  0  0
   -4.2589  -11.1938   -5.8279 H   0  0  0  0  0  0  0  0  0  0  0  0
   -5.1630   -9.7269   -6.1743 H   0  0  0  0  0  0  0  0  0  0  0  0
   -9.8617   -6.3842   -4.4232 H   0  0  0  0  0  0  0  0  0  0  0  0
   -9.3970   -5.7535   -2.9131 H   0  0  0  0  0  0  0  0  0  0  0  0
  1  2  1  0  0  0  0 
  1  3  1  0  0  0  0 
  2  4  1  0  0  0  0 
  2  5  2  0  0  0  0 
  3  6  2  0  0  0  0 
  3  7  1  0  0  0  0 
  8  4  1  0  0  0  0 
  9  6  1  0  0  0  0 
  6 10  1  0  0  0  0 
  7 11  2  0  0  0  0 
  7 12  1  0  0  0  0 
  8 13  1  0  0  0  0 
  8 14  1  0  0  0  0 
  9 15  1  0  0  0  0 
  9 16  1  0  0  0  0 
 10 17  2  0  0  0  0 
 11 18  1  0  0  0  0 
 11 19  1  0  0  0  0 
 12 20  1  0  0  0  0 
 13 21  1  0  0  0  0 
 14 22  1  0  0  0  0 
 14 23  2  0  0  0  0 
 15 24  1  0  0  0  0 
 16 17  1  0  0  0  0 
 16 25  1  0  0  0  0 
 17 26  1  0  0  0  0 
 18 27  1  0  0  0  0 
 18 28  2  0  0  0  0 
 19 20  2  0  0  0  0 
 19 29  1  0  0  0  0 
 20 30  1  0  0  0  0 
 21 31  1  0  0  0  0 
 21 32  2  0  0  0  0 
 24 33  1  0  0  0  0 
 26 34  2  0  0  0  0 
 30 35  2  0  0  0  0 
 33 36  1  0  0  0  0 
 33 37  2  0  0  0  0 
 34 38  1  0  0  0  0 
 34 39  1  0  0  0  0 
 35 40  1  0  0  0  0 
 35 41  1  0  0  0  0 
 38 42  2  0  0  0  0 
 39 43  1  0  0  0  0 
 39 44  2  0  0  0  0 
 40 45  1  0  0  0  0 
 40 46  2  0  0  0  0 
 41 47  1  0  0  0  0 
 42 44  1  0  0  0  0 
 42 48  1  0  0  0  0 
 44 49  1  0  0  0  0 
 45 50  1  0  0  0  0 
 46 47  1  0  0  0  0 
 46 51  1  0  0  0  0 
 47 48  2  0  0  0  0 
 49 52  2  0  0  0  0 
 53  1  1  0  0  0  0 
 54  1  1  0  0  0  0 
 55  4  1  0  0  0  0 
  8 56  1  0  0  0  0 
  9 57  1  0  0  0  0 
 58 12  1  0  0  0  0 
 59 13  1  0  0  0  0 
 60 13  1  0  0  0  0 
 61 15  1  0  0  0  0 
 62 15  1  0  0  0  0 
 16 63  1  0  0  0  0 
 64 22  1  0  0  0  0 
 65 24  1  0  0  0  0 
 66 24  1  0  0  0  0 
 67 25  1  0  0  0  0 
 68 25  1  0  0  0  0 
 69 25  1  0  0  0  0 
 70 26  1  0  0  0  0 
 71 27  1  0  0  0  0 
 72 29  1  0  0  0  0 
 73 29  1  0  0  0  0 
 74 29  1  0  0  0  0 
 75 30  1  0  0  0  0 
 76 31  1  0  0  0  0 
 77 36  1  0  0  0  0 
 78 41  1  0  0  0  0 
 79 43  1  0  0  0  0 
 80 43  1  0  0  0  0 
 81 43  1  0  0  0  0 
 82 45  1  0  0  0  0 
 83 45  1  0  0  0  0 
 84 48  1  0  0  0  0 
 85 49  1  0  0  0  0 
 86 50  1  0  0  0  0 
 87 50  1  0  0  0  0 
 88 50  1  0  0  0  0 
 89 51  1  0  0  0  0 
 90 51  1  0  0  0  0 
 91 51  1  0  0  0  0 
 92 52  1  0  0  0  0 
 93 52  1  0  0  0  0 
M  END
> <cdk:Title>
talaporfin

> <Conformer>
1

> <SuperDrugID>
SD002299

$$$$
