itraconazole
  CDK     0628171801

 87 93  0  0  0  0  0  0  0  0999 V2000
    0.4934    3.0534    0.0718 C   0  0  2  0  0  0  0  0  0  0  0  0
   -0.6048    2.4308    0.9908 C   0  0  1  0  0  0  0  0  0  0  0  0
    0.0345    3.3277   -1.2572 N   0  0  0  0  0  0  0  0  0  0  0  0
   -0.0927    2.2147    2.3231 O   0  0  0  0  0  0  0  0  0  0  0  0
   -1.6312    3.4449    1.0892 O   0  0  0  0  0  0  0  0  0  0  0  0
   -1.1169    1.1005    0.4921 C   0  0  0  0  0  0  0  0  0  0  0  0
    0.1699    2.5294   -2.3323 C   0  0  0  0  0  0  0  0  0  0  0  0
   -0.5820    4.4094   -1.6183 N   0  0  0  0  0  0  0  0  0  0  0  0
   -0.5598    3.2892    3.1351 C   0  0  1  0  0  0  0  0  0  0  0  0
   -1.8886    3.6613    2.4690 C   0  0  2  0  0  0  0  0  0  0  0  0
   -0.3062   -0.0758    0.4395 C   0  0  0  0  0  0  0  0  0  0  0  0
   -2.4697    0.9734    0.0781 C   0  0  0  0  0  0  0  0  0  0  0  0
   -0.3701    3.1318   -3.3983 N   0  0  0  0  0  0  0  0  0  0  0  0
   -0.8301    4.3000   -2.9323 C   0  0  0  0  0  0  0  0  0  0  0  0
   -0.6903    2.8991    4.6268 C   0  0  2  0  0  0  0  0  0  0  0  0
    1.3111   -0.1414    0.9571 Cl  0  0  0  0  0  0  0  0  0  0  0  0
   -0.8361   -1.2972   -0.0318 C   0  0  0  0  0  0  0  0  0  0  0  0
   -3.0039   -0.2563   -0.3419 C   0  0  0  0  0  0  0  0  0  0  0  0
    0.5784    2.4432    5.1372 O   0  0  0  0  0  0  0  0  0  0  0  0
   -2.1879   -1.3965   -0.4026 C   0  0  0  0  0  0  0  0  0  0  0  0
    0.6549    2.4261    6.5057 C   0  0  0  0  0  0  0  0  0  0  0  0
   -2.8429   -2.8803   -0.8951 Cl  0  0  0  0  0  0  0  0  0  0  0  0
    1.3094    3.4852    7.1550 C   0  0  0  0  0  0  0  0  0  0  0  0
    0.1241    1.3719    7.2714 C   0  0  0  0  0  0  0  0  0  0  0  0
    1.4162    3.5031    8.5547 C   0  0  0  0  0  0  0  0  0  0  0  0
    0.2287    1.3956    8.6759 C   0  0  0  0  0  0  0  0  0  0  0  0
    0.8818    2.4642    9.4068 C   0  0  0  0  0  0  0  0  0  0  0  0
    0.9969    2.4872   10.8653 N   0  0  0  0  0  0  0  0  0  0  0  0
    1.1131    3.7633   11.7053 C   0  0  2  0  0  0  0  0  0  0  0  0
    1.0927    1.2077   11.6951 C   0  0  1  0  0  0  0  0  0  0  0  0
    2.2835    3.7179   12.7689 C   0  0  2  0  0  0  0  0  0  0  0  0
    2.2119    1.2397   12.8156 C   0  0  2  0  0  0  0  0  0  0  0  0
    2.1598    2.4967   13.5437 N   0  0  0  0  0  0  0  0  0  0  0  0
    1.9599    2.5187   14.9114 C   0  0  0  0  0  0  0  0  0  0  0  0
    0.9825    3.3650   15.4885 C   0  0  0  0  0  0  0  0  0  0  0  0
    2.7118    1.6842   15.7751 C   0  0  0  0  0  0  0  0  0  0  0  0
    0.7304    3.3449   16.8709 C   0  0  0  0  0  0  0  0  0  0  0  0
    2.4419    1.6405   17.1547 C   0  0  0  0  0  0  0  0  0  0  0  0
    1.4336    2.4558   17.7097 C   0  0  0  0  0  0  0  0  0  0  0  0
    1.1095    2.3564   19.0280 N   0  0  0  0  0  0  0  0  0  0  0  0
    0.5777    1.2895   19.6500 C   0  0  0  0  0  0  0  0  0  0  0  0
    1.2446    3.3059   19.9662 C   0  0  0  0  0  0  0  0  0  0  0  0
    0.2959    0.1915   19.1112 O   0  0  0  0  0  0  0  0  0  0  0  0
    0.3927    1.6089   20.9482 N   0  0  0  0  0  0  0  0  0  0  0  0
    0.8143    2.8229   21.1403 N   0  0  0  0  0  0  0  0  0  0  0  0
   -0.1674    0.7713   21.9772 C   0  0  1  0  0  0  0  0  0  0  0  0
    0.9144    0.3703   23.0233 C   0  0  2  0  0  0  0  0  0  0  0  0
   -1.3840    1.4695   22.6408 C   0  0  0  0  0  0  0  0  0  0  0  0
    2.0927   -0.4219   22.4093 C   0  0  0  0  0  0  0  0  0  0  0  0
    1.3668    2.4061    0.0310 H   0  0  0  0  0  0  0  0  0  0  0  0
    0.8443    3.9879    0.5191 H   0  0  0  0  0  0  0  0  0  0  0  0
    0.6159    1.6083   -2.3460 H   0  0  0  0  0  0  0  0  0  0  0  0
    0.1407    4.1271    3.0515 H   0  0  0  0  0  0  0  0  0  0  0  0
   -2.7104    3.0125    2.7859 H   0  0  0  0  0  0  0  0  0  0  0  0
   -2.1515    4.7058    2.6524 H   0  0  0  0  0  0  0  0  0  0  0  0
   -3.1012    1.7761    0.0818 H   0  0  0  0  0  0  0  0  0  0  0  0
   -1.2991    5.0049   -3.5009 H   0  0  0  0  0  0  0  0  0  0  0  0
   -1.4276    2.1013    4.7417 H   0  0  0  0  0  0  0  0  0  0  0  0
   -1.0423    3.7836    5.1657 H   0  0  0  0  0  0  0  0  0  0  0  0
   -0.2419   -2.1291   -0.0925 H   0  0  0  0  0  0  0  0  0  0  0  0
   -3.9921   -0.3182   -0.5992 H   0  0  0  0  0  0  0  0  0  0  0  0
    1.7114    4.2522    6.6117 H   0  0  0  0  0  0  0  0  0  0  0  0
   -0.3463    0.5900    6.8084 H   0  0  0  0  0  0  0  0  0  0  0  0
    1.9140    4.2857    8.9779 H   0  0  0  0  0  0  0  0  0  0  0  0
   -0.1868    0.6200    9.1968 H   0  0  0  0  0  0  0  0  0  0  0  0
    0.1913    3.9869   12.3123 H   0  0  0  0  0  0  0  0  0  0  0  0
    1.2705    4.7129   11.1336 H   0  0  0  0  0  0  0  0  0  0  0  0
    0.1479    0.9632   12.2535 H   0  0  0  0  0  0  0  0  0  0  0  0
    1.3030    0.2704   11.1125 H   0  0  0  0  0  0  0  0  0  0  0  0
    2.2607    4.6228   13.3832 H   0  0  0  0  0  0  0  0  0  0  0  0
    3.2427    3.7065   12.2422 H   0  0  0  0  0  0  0  0  0  0  0  0
    3.1939    1.1461   12.3459 H   0  0  0  0  0  0  0  0  0  0  0  0
    2.0748    0.3660   13.4586 H   0  0  0  0  0  0  0  0  0  0  0  0
    0.4272    3.9918   14.9022 H   0  0  0  0  0  0  0  0  0  0  0  0
    3.4591    1.0932   15.4039 H   0  0  0  0  0  0  0  0  0  0  0  0
    0.0139    3.9645   17.2567 H   0  0  0  0  0  0  0  0  0  0  0  0
    2.9820    1.0113   17.7532 H   0  0  0  0  0  0  0  0  0  0  0  0
    1.6258    4.2439   19.8250 H   0  0  0  0  0  0  0  0  0  0  0  0
   -0.5505   -0.1557   21.5359 H   0  0  0  0  0  0  0  0  0  0  0  0
    0.4524   -0.2543   23.7926 H   0  0  0  0  0  0  0  0  0  0  0  0
    1.3080    1.2654   23.5132 H   0  0  0  0  0  0  0  0  0  0  0  0
   -1.8558    0.8022   23.3651 H   0  0  0  0  0  0  0  0  0  0  0  0
   -1.0739    2.3812   23.1570 H   0  0  0  0  0  0  0  0  0  0  0  0
   -2.1248    1.7326   21.8822 H   0  0  0  0  0  0  0  0  0  0  0  0
    2.6524    0.2015   21.7089 H   0  0  0  0  0  0  0  0  0  0  0  0
    2.7705   -0.7465   23.1999 H   0  0  0  0  0  0  0  0  0  0  0  0
    1.7238   -1.3039   21.8820 H   0  0  0  0  0  0  0  0  0  0  0  0
  2  1  1  0  0  0  0 
  1  3  1  0  0  0  0 
  2  4  1  0  0  0  0 
  2  5  1  0  0  0  0 
  2  6  1  0  0  0  0 
  3  7  1  0  0  0  0 
  3  8  1  0  0  0  0 
  9  4  1  0  0  0  0 
  5 10  1  0  0  0  0 
  6 11  2  0  0  0  0 
  6 12  1  0  0  0  0 
  7 13  2  0  0  0  0 
  8 14  2  0  0  0  0 
  9 10  1  0  0  0  0 
  9 15  1  0  0  0  0 
 11 16  1  0  0  0  0 
 11 17  1  0  0  0  0 
 12 18  2  0  0  0  0 
 13 14  1  0  0  0  0 
 15 19  1  0  0  0  0 
 17 20  2  0  0  0  0 
 18 20  1  0  0  0  0 
 19 21  1  0  0  0  0 
 20 22  1  0  0  0  0 
 21 23  2  0  0  0  0 
 21 24  1  0  0  0  0 
 23 25  1  0  0  0  0 
 24 26  2  0  0  0  0 
 25 27  2  0  0  0  0 
 26 27  1  0  0  0  0 
 27 28  1  0  0  0  0 
 28 29  1  0  0  0  0 
 28 30  1  0  0  0  0 
 29 31  1  0  0  0  0 
 30 32  1  0  0  0  0 
 31 33  1  0  0  0  0 
 32 33  1  0  0  0  0 
 33 34  1  0  0  0  0 
 34 35  2  0  0  0  0 
 34 36  1  0  0  0  0 
 35 37  1  0  0  0  0 
 36 38  2  0  0  0  0 
 37 39  2  0  0  0  0 
 38 39  1  0  0  0  0 
 39 40  1  0  0  0  0 
 40 41  1  0  0  0  0 
 40 42  1  0  0  0  0 
 41 43  2  0  0  0  0 
 41 44  1  0  0  0  0 
 42 45  2  0  0  0  0 
 44 45  1  0  0  0  0 
 46 44  1  0  0  0  0 
 46 47  1  0  0  0  0 
 46 48  1  0  0  0  0 
 47 49  1  0  0  0  0 
  1 50  1  0  0  0  0 
  1 51  1  0  0  0  0 
  7 52  1  0  0  0  0 
  9 53  1  0  0  0  0 
 10 54  1  0  0  0  0 
 10 55  1  0  0  0  0 
 12 56  1  0  0  0  0 
 14 57  1  0  0  0  0 
 15 58  1  0  0  0  0 
 15 59  1  0  0  0  0 
 17 60  1  0  0  0  0 
 18 61  1  0  0  0  0 
 23 62  1  0  0  0  0 
 24 63  1  0  0  0  0 
 25 64  1  0  0  0  0 
 26 65  1  0  0  0  0 
 29 66  1  0  0  0  0 
 29 67  1  0  0  0  0 
 30 68  1  0  0  0  0 
 30 69  1  0  0  0  0 
 31 70  1  0  0  0  0 
 31 71  1  0  0  0  0 
 32 72  1  0  0  0  0 
 32 73  1  0  0  0  0 
 35 74  1  0  0  0  0 
 36 75  1  0  0  0  0 
 37 76  1  0  0  0  0 
 38 77  1  0  0  0  0 
 42 78  1  0  0  0  0 
 46 79  1  0  0  0  0 
 47 80  1  0  0  0  0 
 47 81  1  0  0  0  0 
 48 82  1  0  0  0  0 
 48 83  1  0  0  0  0 
 48 84  1  0  0  0  0 
 49 85  1  0  0  0  0 
 49 86  1  0  0  0  0 
 49 87  1  0  0  0  0 
M  END
> <cdk:Title>
itraconazole

> <Conformer>
1

> <SuperDrugID>
SD001340

$$$$
