dalbavancin
  CDK     0628171802

228240  0  0  0  0  0  0  0  0999 V2000
   11.6759   -5.1159    4.8073 O   0  0  0  0  0  0  0  0  0  0  0  0
   10.6980   -5.4620    5.7228 C   0  0  0  0  0  0  0  0  0  0  0  0
   12.2314   -3.7791    4.8584 C   0  0  1  0  0  0  0  0  0  0  0  0
    9.2994   -5.4814    5.4295 C   0  0  0  0  0  0  0  0  0  0  0  0
   11.1437   -5.9505    6.9622 C   0  0  0  0  0  0  0  0  0  0  0  0
   12.7663   -3.3751    6.1407 O   0  0  0  0  0  0  0  0  0  0  0  0
   13.2742   -3.5905    3.7170 C   0  0  1  0  0  0  0  0  0  0  0  0
    8.3586   -6.1000    6.3300 C   0  0  0  0  0  0  0  0  0  0  0  0
    8.8669   -4.8799    4.2201 C   0  0  0  0  0  0  0  0  0  0  0  0
   10.2439   -6.4020    7.9268 C   0  0  0  0  0  0  0  0  0  0  0  0
   14.0602   -3.8938    6.5375 C   0  0  2  0  0  0  0  0  0  0  0  0
   13.4310   -2.2011    3.4212 O   0  0  0  0  0  0  0  0  0  0  0  0
   14.6563   -4.1864    4.0977 C   0  0  2  0  0  0  0  0  0  0  0  0
    6.9140   -6.4686    5.9446 C   0  0  1  0  0  0  0  0  0  0  0  0
    8.8799   -6.4699    7.6080 C   0  0  0  0  0  0  0  0  0  0  0  0
    8.5089   -5.6918    3.1230 C   0  0  0  0  0  0  0  0  0  0  0  0
    8.7039   -3.4754    4.1156 C   0  0  0  0  0  0  0  0  0  0  0  0
   10.7193   -6.8041    9.1365 O   0  0  0  0  0  0  0  0  0  0  0  0
   14.3946   -3.2534    7.9070 C   0  0  1  0  0  0  0  0  0  0  0  0
   15.1453   -3.6215    5.4582 C   0  0  2  0  0  0  0  0  0  0  0  0
   15.6120   -3.9015    3.0764 O   0  0  0  0  0  0  0  0  0  0  0  0
    6.2395   -7.3247    6.9745 C   0  0  0  0  0  0  0  0  0  0  0  0
    6.0079   -5.3890    5.6385 N   0  0  0  0  0  0  0  0  0  0  0  0
    7.8041   -5.1546    2.0150 C   0  0  0  0  0  0  0  0  0  0  0  0
    9.0004   -2.6260    5.1358 O   0  0  0  0  0  0  0  0  0  0  0  0
    8.1860   -2.9136    2.9338 C   0  0  0  0  0  0  0  0  0  0  0  0
   13.3825   -3.5659    8.8608 O   0  0  0  0  0  0  0  0  0  0  0  0
   16.3876   -4.2353    5.8097 O   0  0  0  0  0  0  0  0  0  0  0  0
    5.5939   -6.9098    8.1114 N   0  0  0  0  0  0  0  0  0  0  0  0
    6.3081   -8.5695    6.8412 O   0  0  0  0  0  0  0  0  0  0  0  0
    4.8521   -5.3282    4.8695 C   0  0  0  0  0  0  0  0  0  0  0  0
    6.9619   -6.0380    1.1388 C   0  0  1  0  0  0  0  0  0  0  0  0
    7.7211   -3.7449    1.9004 C   0  0  0  0  0  0  0  0  0  0  0  0
    5.4851   -5.5919    8.6574 C   0  0  1  0  0  0  0  0  0  0  0  0
    4.2356   -4.2589    5.0949 O   0  0  0  0  0  0  0  0  0  0  0  0
    4.2632   -6.2187    3.7922 C   0  0  2  0  0  0  0  0  0  0  0  0
    7.6510   -6.8981    0.2122 N   0  0  0  0  0  0  0  0  0  0  0  0
    6.0782   -6.7564    2.1033 C   0  0  0  0  0  0  0  0  0  0  0  0
    4.0127   -5.1034    8.6727 C   0  0  1  0  0  0  0  0  0  0  0  0
    3.5898   -7.6103    4.1448 C   0  0  2  0  0  0  0  0  0  0  0  0
    5.0747   -6.0239    2.6390 N   0  0  0  0  0  0  0  0  0  0  0  0
    7.1715   -7.4089   -0.9839 C   0  0  0  0  0  0  0  0  0  0  0  0
    6.3715   -7.9046    2.5045 O   0  0  0  0  0  0  0  0  0  0  0  0
    3.8779   -3.6697    9.2597 C   0  0  1  0  0  0  0  0  0  0  0  0
    4.1447   -8.2082    5.2997 O   0  0  0  0  0  0  0  0  0  0  0  0
    3.4251   -8.6355    3.0523 C   0  0  0  0  0  0  0  0  0  0  0  0
    8.0262   -8.0269   -1.6580 O   0  0  0  0  0  0  0  0  0  0  0  0
    5.7966   -7.2860   -1.5826 C   0  0  1  0  0  0  0  0  0  0  0  0
    2.4764   -3.1350    9.3271 N   0  0  1  0  0  0  0  0  0  0  0  0
    4.2474   -9.7883    2.9551 C   0  0  0  0  0  0  0  0  0  0  0  0
    2.3963   -8.5021    2.0888 C   0  0  0  0  0  0  0  0  0  0  0  0
    5.2108   -8.5573   -2.1172 C   0  0  0  0  0  0  0  0  0  0  0  0
    4.8297   -6.9839   -0.5755 N   0  0  0  0  0  0  0  0  0  0  0  0
    1.5891   -3.8823   10.2716 C   0  0  0  0  0  0  0  0  0  0  0  0
    2.4525   -1.6628    9.5956 C   0  0  0  0  0  0  0  0  0  0  0  0
    4.1474  -10.6816    1.8663 C   0  0  0  0  0  0  0  0  0  0  0  0
    2.2991   -9.3796    0.9904 C   0  0  0  0  0  0  0  0  0  0  0  0
    4.9558   -9.6251   -1.2326 C   0  0  0  0  0  0  0  0  0  0  0  0
    4.6443   -8.6150   -3.4045 C   0  0  0  0  0  0  0  0  0  0  0  0
    3.7324   -6.1918   -0.5113 C   0  0  0  0  0  0  0  0  0  0  0  0
    5.1972  -12.0104    1.7841 Cl  0  0  0  0  0  0  0  0  0  0  0  0
    3.2169  -10.4384    0.8316 C   0  0  0  0  0  0  0  0  0  0  0  0
    3.8095  -10.4335   -1.4097 C   0  0  0  0  0  0  0  0  0  0  0  0
    3.5874   -9.5144   -3.6848 C   0  0  0  0  0  0  0  0  0  0  0  0
    3.2085   -6.2448    0.6217 O   0  0  0  0  0  0  0  0  0  0  0  0
    3.0957   -5.2790   -1.4934 C   0  0  2  0  0  0  0  0  0  0  0  0
    3.2776  -11.1622   -0.3517 O   0  0  0  0  0  0  0  0  0  0  0  0
    3.1382  -10.3856   -2.6588 C   0  0  0  0  0  0  0  0  0  0  0  0
    2.9443   -9.4702   -4.9079 O   0  0  0  0  0  0  0  0  0  0  0  0
    3.4752   -3.9028   -1.0131 C   0  0  0  0  0  0  0  0  0  0  0  0
    1.6871   -5.5961   -1.4353 N   0  0  0  0  0  0  0  0  0  0  0  0
    1.9588  -11.0532   -2.8343 O   0  0  0  0  0  0  0  0  0  0  0  0
    2.1639   -8.3419   -5.0054 C   0  0  0  0  0  0  0  0  0  0  0  0
    2.8186   -3.3664    0.1227 C   0  0  0  0  0  0  0  0  0  0  0  0
    4.5418   -3.1474   -1.5715 C   0  0  0  0  0  0  0  0  0  0  0  0
    0.6051   -5.0758   -2.0699 C   0  0  0  0  0  0  0  0  0  0  0  0
    2.0059  -12.4751   -3.0592 C   0  0  1  0  0  0  0  0  0  0  0  0
    0.8479   -8.3421   -4.5031 C   0  0  0  0  0  0  0  0  0  0  0  0
    2.6841   -7.1531   -5.5628 C   0  0  0  0  0  0  0  0  0  0  0  0
    3.1776   -2.1269    0.7006 C   0  0  0  0  0  0  0  0  0  0  0  0
    5.3620   -3.6602   -2.9677 Cl  0  0  0  0  0  0  0  0  0  0  0  0
    4.9681   -1.9480   -0.9517 C   0  0  0  0  0  0  0  0  0  0  0  0
   -0.4751   -5.5932   -1.6980 O   0  0  0  0  0  0  0  0  0  0  0  0
    0.5568   -4.0428   -3.1431 C   0  0  1  0  0  0  0  0  0  0  0  0
    0.5738  -12.9757   -2.7164 C   0  0  2  0  0  0  0  0  0  0  0  0
    2.3316  -12.7395   -4.4438 O   0  0  0  0  0  0  0  0  0  0  0  0
    0.1214   -7.1421   -4.4263 C   0  0  0  0  0  0  0  0  0  0  0  0
    1.9708   -5.9456   -5.4606 C   0  0  0  0  0  0  0  0  0  0  0  0
    2.4585   -1.5346    1.7306 O   0  0  0  0  0  0  0  0  0  0  0  0
    4.2916   -1.4490    0.1799 C   0  0  0  0  0  0  0  0  0  0  0  0
    6.0378   -1.2635   -1.4339 O   0  0  0  0  0  0  0  0  0  0  0  0
    0.0444   -4.6239   -4.5030 C   0  0  1  0  0  0  0  0  0  0  0  0
   -0.3671   -3.0583   -2.6593 N   0  0  0  0  0  0  0  0  0  0  0  0
    0.3462  -12.8314   -1.3082 N   0  0  0  0  0  0  0  0  0  0  0  0
    0.3849  -14.4625   -3.1190 C   0  0  1  0  0  0  0  0  0  0  0  0
    2.2392  -14.1311   -4.8349 C   0  0  1  0  0  0  0  0  0  0  0  0
    0.7029   -5.9186   -4.8389 C   0  0  0  0  0  0  0  0  0  0  0  0
    1.0997   -1.5765    1.5042 C   0  0  0  0  0  0  0  0  0  0  0  0
   -0.1530   -1.7389   -2.4323 C   0  0  0  0  0  0  0  0  0  0  0  0
   -0.5816  -12.0317   -0.7171 C   0  0  0  0  0  0  0  0  0  0  0  0
   -0.9762  -14.8516   -2.9233 O   0  0  0  0  0  0  0  0  0  0  0  0
    0.8028  -14.6900   -4.5956 C   0  0  1  0  0  0  0  0  0  0  0  0
    2.6297  -14.2340   -6.2555 C   0  0  0  0  0  0  0  0  0  0  0  0
    0.5674   -0.9949    0.3352 C   0  0  0  0  0  0  0  0  0  0  0  0
    0.2632   -2.3433    2.3412 C   0  0  0  0  0  0  0  0  0  0  0  0
    0.8858   -1.1630   -2.8344 O   0  0  0  0  0  0  0  0  0  0  0  0
   -1.1163   -1.0376   -1.5436 C   0  0  1  0  0  0  0  0  0  0  0  0
   -0.6909  -12.0180    0.7572 C   0  0  2  0  0  0  0  0  0  0  0  0
   -1.3402  -11.2962   -1.3929 O   0  0  0  0  0  0  0  0  0  0  0  0
    0.7406  -16.0863   -4.8901 O   0  0  0  0  0  0  0  0  0  0  0  0
    3.6374  -15.0527   -6.6365 O   0  0  0  0  0  0  0  0  0  0  0  0
    2.0332  -13.5726   -7.1353 O   0  0  0  0  0  0  0  0  0  0  0  0
   -0.7133   -1.3618   -0.1378 C   0  0  0  0  0  0  0  0  0  0  0  0
    0.7684   -2.8939    3.4744 O   0  0  0  0  0  0  0  0  0  0  0  0
   -1.0715   -2.5820    1.9585 C   0  0  0  0  0  0  0  0  0  0  0  0
   -1.1392    0.4206   -1.8127 N   0  0  1  0  0  0  0  0  0  0  0  0
   -1.1411  -13.3843    1.3425 C   0  0  1  0  0  0  0  0  0  0  0  0
   -1.5427   -2.1255    0.7139 C   0  0  0  0  0  0  0  0  0  0  0  0
   -2.2165    1.1666   -1.1282 C   0  0  0  0  0  0  0  0  0  0  0  0
   -1.3848  -13.3185    2.8758 C   0  0  2  0  0  0  0  0  0  0  0  0
   -1.7733  -14.6938    3.4826 C   0  0  2  0  0  0  0  0  0  0  0  0
   -2.0572  -14.6184    5.0072 C   0  0  2  0  0  0  0  0  0  0  0  0
   -2.4375  -16.0009    5.6028 C   0  0  2  0  0  0  0  0  0  0  0  0
   -2.6850  -15.9501    7.1348 C   0  0  1  0  0  0  0  0  0  0  0  0
   -3.0529  -17.3408    7.7313 C   0  0  1  0  0  0  0  0  0  0  0  0
   -3.0995  -17.3967    9.2937 C   0  0  1  0  0  0  0  0  0  0  0  0
   -4.2243  -16.5100    9.8983 C   0  0  0  0  0  0  0  0  0  0  0  0
   -3.2420  -18.8625    9.7953 C   0  0  0  0  0  0  0  0  0  0  0  0
    5.8233   -6.5049   -2.3450 H   0  0  0  0  0  0  0  0  0  0  0  0
    6.3502   -5.3753    0.5204 H   0  0  0  0  0  0  0  0  0  0  0  0
    3.4597   -5.5047   -2.4949 H   0  0  0  0  0  0  0  0  0  0  0  0
    3.3852   -5.6654    3.4319 H   0  0  0  0  0  0  0  0  0  0  0  0
    1.5532   -3.6192   -3.2943 H   0  0  0  0  0  0  0  0  0  0  0  0
    6.9945   -7.0747    5.0402 H   0  0  0  0  0  0  0  0  0  0  0  0
   11.4254   -3.0819    4.6469 H   0  0  0  0  0  0  0  0  0  0  0  0
   12.1349   -6.0083    7.1719 H   0  0  0  0  0  0  0  0  0  0  0  0
   12.9131   -4.0775    2.8071 H   0  0  0  0  0  0  0  0  0  0  0  0
   14.0148   -4.9739    6.6820 H   0  0  0  0  0  0  0  0  0  0  0  0
   12.5563   -1.9076    3.0923 H   0  0  0  0  0  0  0  0  0  0  0  0
   14.5691   -5.2759    4.1685 H   0  0  0  0  0  0  0  0  0  0  0  0
    8.2818   -6.8418    8.3446 H   0  0  0  0  0  0  0  0  0  0  0  0
    8.6662   -6.7021    3.1796 H   0  0  0  0  0  0  0  0  0  0  0  0
    9.9545   -7.1719    9.6266 H   0  0  0  0  0  0  0  0  0  0  0  0
   15.3466   -3.6322    8.2849 H   0  0  0  0  0  0  0  0  0  0  0  0
   14.4593   -2.1665    7.8094 H   0  0  0  0  0  0  0  0  0  0  0  0
   15.3129   -2.5440    5.3681 H   0  0  0  0  0  0  0  0  0  0  0  0
   16.4474   -4.3116    3.3866 H   0  0  0  0  0  0  0  0  0  0  0  0
    6.1892   -4.5731    6.1333 H   0  0  0  0  0  0  0  0  0  0  0  0
    9.4617   -3.1591    5.8147 H   0  0  0  0  0  0  0  0  0  0  0  0
    8.1056   -1.8981    2.8364 H   0  0  0  0  0  0  0  0  0  0  0  0
   13.6882   -3.1537    9.6962 H   0  0  0  0  0  0  0  0  0  0  0  0
   16.6829   -3.7781    6.6252 H   0  0  0  0  0  0  0  0  0  0  0  0
    5.1755   -7.6052    8.6424 H   0  0  0  0  0  0  0  0  0  0  0  0
    7.2733   -3.3136    1.0869 H   0  0  0  0  0  0  0  0  0  0  0  0
    5.8395   -5.6436    9.6906 H   0  0  0  0  0  0  0  0  0  0  0  0
    6.1211   -4.8699    8.1489 H   0  0  0  0  0  0  0  0  0  0  0  0
    8.5648   -7.1292    0.4434 H   0  0  0  0  0  0  0  0  0  0  0  0
    3.6015   -5.1098    7.6614 H   0  0  0  0  0  0  0  0  0  0  0  0
    3.4346   -5.8070    9.2753 H   0  0  0  0  0  0  0  0  0  0  0  0
    2.5719   -7.3899    4.4871 H   0  0  0  0  0  0  0  0  0  0  0  0
    4.9270   -5.1712    2.1982 H   0  0  0  0  0  0  0  0  0  0  0  0
    4.3226   -3.6535   10.2600 H   0  0  0  0  0  0  0  0  0  0  0  0
    4.4767   -3.0108    8.6241 H   0  0  0  0  0  0  0  0  0  0  0  0
    3.9939   -7.5544    6.0150 H   0  0  0  0  0  0  0  0  0  0  0  0
    4.9540   -9.9708    3.6718 H   0  0  0  0  0  0  0  0  0  0  0  0
    1.7201   -7.7375    2.1599 H   0  0  0  0  0  0  0  0  0  0  0  0
    4.9823   -7.4803    0.2419 H   0  0  0  0  0  0  0  0  0  0  0  0
    1.3880   -4.8841    9.8918 H   0  0  0  0  0  0  0  0  0  0  0  0
    0.6206   -3.3887   10.3807 H   0  0  0  0  0  0  0  0  0  0  0  0
    2.0452   -3.9652   11.2621 H   0  0  0  0  0  0  0  0  0  0  0  0
    3.0317   -1.1237    8.8413 H   0  0  0  0  0  0  0  0  0  0  0  0
    1.4311   -1.2767    9.5477 H   0  0  0  0  0  0  0  0  0  0  0  0
    2.8665   -1.4353   10.5824 H   0  0  0  0  0  0  0  0  0  0  0  0
    1.5799   -9.2276    0.2809 H   0  0  0  0  0  0  0  0  0  0  0  0
    5.5033   -9.6922   -0.3730 H   0  0  0  0  0  0  0  0  0  0  0  0
    4.9381   -7.9389   -4.1115 H   0  0  0  0  0  0  0  0  0  0  0  0
    1.4534   -6.3079   -0.8154 H   0  0  0  0  0  0  0  0  0  0  0  0
    2.0500   -3.8861    0.5502 H   0  0  0  0  0  0  0  0  0  0  0  0
    2.7380  -12.9630   -2.4032 H   0  0  0  0  0  0  0  0  0  0  0  0
    0.4301   -9.2084   -4.1591 H   0  0  0  0  0  0  0  0  0  0  0  0
    3.6046   -7.1537   -6.0053 H   0  0  0  0  0  0  0  0  0  0  0  0
   -0.1383  -12.3820   -3.3017 H   0  0  0  0  0  0  0  0  0  0  0  0
   -0.8158   -7.1615   -4.0165 H   0  0  0  0  0  0  0  0  0  0  0  0
    2.3969   -5.0825   -5.8082 H   0  0  0  0  0  0  0  0  0  0  0  0
    4.5987   -0.5787    0.6246 H   0  0  0  0  0  0  0  0  0  0  0  0
    6.3908   -0.7526   -0.6767 H   0  0  0  0  0  0  0  0  0  0  0  0
   -1.0420   -4.7593   -4.4593 H   0  0  0  0  0  0  0  0  0  0  0  0
    0.2309   -3.8958   -5.2979 H   0  0  0  0  0  0  0  0  0  0  0  0
   -1.2377   -3.3891   -2.3894 H   0  0  0  0  0  0  0  0  0  0  0  0
    0.9117  -13.3571   -0.7213 H   0  0  0  0  0  0  0  0  0  0  0  0
    1.0027  -15.0960   -2.4745 H   0  0  0  0  0  0  0  0  0  0  0  0
    2.9491  -14.7175   -4.2406 H   0  0  0  0  0  0  0  0  0  0  0  0
   -1.5013  -14.2528   -3.4956 H   0  0  0  0  0  0  0  0  0  0  0  0
    0.0904  -14.1718   -5.2467 H   0  0  0  0  0  0  0  0  0  0  0  0
    1.1712   -0.3856   -0.2221 H   0  0  0  0  0  0  0  0  0  0  0  0
   -2.1131   -1.4357   -1.7715 H   0  0  0  0  0  0  0  0  0  0  0  0
   -1.4065  -11.2485    1.0605 H   0  0  0  0  0  0  0  0  0  0  0  0
    0.2813  -11.7477    1.1764 H   0  0  0  0  0  0  0  0  0  0  0  0
    0.9731  -16.1597   -5.8394 H   0  0  0  0  0  0  0  0  0  0  0  0
    3.8848  -15.1229   -7.5822 H   0  0  0  0  0  0  0  0  0  0  0  0
    0.0710   -3.4894    3.8194 H   0  0  0  0  0  0  0  0  0  0  0  0
   -1.6934   -3.1210    2.5635 H   0  0  0  0  0  0  0  0  0  0  0  0
   -0.2473    0.8018   -1.4900 H   0  0  0  0  0  0  0  0  0  0  0  0
   -2.0653  -13.7020    0.8498 H   0  0  0  0  0  0  0  0  0  0  0  0
   -0.3721  -14.1343    1.1337 H   0  0  0  0  0  0  0  0  0  0  0  0
   -2.4889   -2.3760    0.4247 H   0  0  0  0  0  0  0  0  0  0  0  0
   -2.0906    2.2290   -1.3352 H   0  0  0  0  0  0  0  0  0  0  0  0
   -3.1962    0.8555   -1.4933 H   0  0  0  0  0  0  0  0  0  0  0  0
   -2.1738    1.0127   -0.0491 H   0  0  0  0  0  0  0  0  0  0  0  0
   -2.1861  -12.6018    3.0784 H   0  0  0  0  0  0  0  0  0  0  0  0
   -0.4771  -12.9559    3.3666 H   0  0  0  0  0  0  0  0  0  0  0  0
   -0.9590  -15.4023    3.3057 H   0  0  0  0  0  0  0  0  0  0  0  0
   -2.6658  -15.0715    2.9760 H   0  0  0  0  0  0  0  0  0  0  0  0
   -2.8758  -13.9147    5.1851 H   0  0  0  0  0  0  0  0  0  0  0  0
   -1.1678  -14.2402    5.5193 H   0  0  0  0  0  0  0  0  0  0  0  0
   -1.6313  -16.7110    5.3966 H   0  0  0  0  0  0  0  0  0  0  0  0
   -3.3438  -16.3625    5.1087 H   0  0  0  0  0  0  0  0  0  0  0  0
   -1.7835  -15.5760    7.6283 H   0  0  0  0  0  0  0  0  0  0  0  0
   -3.4958  -15.2431    7.3268 H   0  0  0  0  0  0  0  0  0  0  0  0
   -4.0193  -17.6545    7.3264 H   0  0  0  0  0  0  0  0  0  0  0  0
   -2.3057  -18.0625    7.3870 H   0  0  0  0  0  0  0  0  0  0  0  0
   -2.1424  -17.0235    9.6730 H   0  0  0  0  0  0  0  0  0  0  0  0
   -4.0739  -15.4617    9.6385 H   0  0  0  0  0  0  0  0  0  0  0  0
   -4.2232  -16.5831   10.9878 H   0  0  0  0  0  0  0  0  0  0  0  0
   -5.2029  -16.8252    9.5309 H   0  0  0  0  0  0  0  0  0  0  0  0
   -2.4300  -19.4813    9.4088 H   0  0  0  0  0  0  0  0  0  0  0  0
   -3.1985  -18.8981   10.8856 H   0  0  0  0  0  0  0  0  0  0  0  0
   -4.1909  -19.2947    9.4716 H   0  0  0  0  0  0  0  0  0  0  0  0
  1  2  1  0  0  0  0 
  2  4  2  0  0  0  0 
  2  5  1  0  0  0  0 
  3  1  1  0  0  0  0 
  3  6  1  0  0  0  0 
  7  3  1  0  0  0  0 
  4  8  1  0  0  0  0 
  4  9  1  0  0  0  0 
  5 10  2  0  0  0  0 
 11  6  1  0  0  0  0 
  7 12  1  0  0  0  0 
 13  7  1  0  0  0  0 
 14  8  1  0  0  0  0 
  8 15  2  0  0  0  0 
  9 16  2  0  0  0  0 
  9 17  1  0  0  0  0 
 10 15  1  0  0  0  0 
 10 18  1  0  0  0  0 
 11 19  1  0  0  0  0 
 20 11  1  0  0  0  0 
 20 13  1  0  0  0  0 
 13 21  1  0  0  0  0 
 14 22  1  0  0  0  0 
 14 23  1  0  0  0  0 
 14134  1  0  0  0  0 
 16 24  1  0  0  0  0 
 17 25  1  0  0  0  0 
 17 26  2  0  0  0  0 
 19 27  1  0  0  0  0 
 20 28  1  0  0  0  0 
 22 29  1  0  0  0  0 
 22 30  2  0  0  0  0 
 23 31  1  0  0  0  0 
 32 24  1  0  0  0  0 
 24 33  2  0  0  0  0 
 26 33  1  0  0  0  0 
 29 34  1  0  0  0  0 
 31 35  2  0  0  0  0 
 36 31  1  0  0  0  0 
 32 37  1  0  0  0  0 
 32 38  1  0  0  0  0 
 32130  1  0  0  0  0 
 34 39  1  0  0  0  0 
 40 36  1  0  0  0  0 
 36 41  1  0  0  0  0 
 36132  1  0  0  0  0 
 37 42  1  0  0  0  0 
 38 41  1  0  0  0  0 
 38 43  2  0  0  0  0 
 39 44  1  0  0  0  0 
 40 45  1  0  0  0  0 
 40 46  1  0  0  0  0 
 42 47  2  0  0  0  0 
 48 42  1  0  0  0  0 
 44 49  1  0  0  0  0 
 46 50  2  0  0  0  0 
 46 51  1  0  0  0  0 
 48 52  1  0  0  0  0 
 48 53  1  0  0  0  0 
 48129  1  0  0  0  0 
 49 54  1  0  0  0  0 
 49 55  1  0  0  0  0 
 50 56  1  0  0  0  0 
 51 57  2  0  0  0  0 
 52 58  2  0  0  0  0 
 52 59  1  0  0  0  0 
 53 60  1  0  0  0  0 
 56 61  1  0  0  0  0 
 56 62  2  0  0  0  0 
 57 62  1  0  0  0  0 
 58 63  1  0  0  0  0 
 59 64  2  0  0  0  0 
 60 65  2  0  0  0  0 
 66 60  1  0  0  0  0 
 62 67  1  0  0  0  0 
 63 67  1  0  0  0  0 
 63 68  2  0  0  0  0 
 64 68  1  0  0  0  0 
 64 69  1  0  0  0  0 
 66 70  1  0  0  0  0 
 66 71  1  0  0  0  0 
 66131  1  0  0  0  0 
 68 72  1  0  0  0  0 
 69 73  1  0  0  0  0 
 70 74  2  0  0  0  0 
 70 75  1  0  0  0  0 
 71 76  1  0  0  0  0 
 73 78  2  0  0  0  0 
 73 79  1  0  0  0  0 
 74 80  1  0  0  0  0 
 75 81  1  0  0  0  0 
 75 82  2  0  0  0  0 
 76 83  2  0  0  0  0 
 84 76  1  0  0  0  0 
 77 72  1  0  0  0  0 
 85 77  1  0  0  0  0 
 77 86  1  0  0  0  0 
 78 87  1  0  0  0  0 
 79 88  2  0  0  0  0 
 80 89  1  0  0  0  0 
 80 90  2  0  0  0  0 
 82 90  1  0  0  0  0 
 82 91  1  0  0  0  0 
 84 92  1  0  0  0  0 
 84 93  1  0  0  0  0 
 84133  1  0  0  0  0 
 85 94  1  0  0  0  0 
 95 85  1  0  0  0  0 
 96 86  1  0  0  0  0 
 87 97  2  0  0  0  0 
 88 97  1  0  0  0  0 
 89 98  1  0  0  0  0 
 92 97  1  0  0  0  0 
 93 99  1  0  0  0  0 
 94100  1  0  0  0  0 
 95101  1  0  0  0  0 
 95102  1  0  0  0  0 
102 96  1  0  0  0  0 
 96103  1  0  0  0  0 
 98104  2  0  0  0  0 
 98105  1  0  0  0  0 
 99106  2  0  0  0  0 
107 99  1  0  0  0  0 
100108  1  0  0  0  0 
100109  2  0  0  0  0 
102110  1  0  0  0  0 
103111  1  0  0  0  0 
103112  2  0  0  0  0 
104113  1  0  0  0  0 
105114  1  0  0  0  0 
105115  2  0  0  0  0 
107113  1  0  0  0  0 
107116  1  0  0  0  0 
108117  1  0  0  0  0 
113118  2  0  0  0  0 
115118  1  0  0  0  0 
116119  1  0  0  0  0 
117120  1  0  0  0  0 
120121  1  0  0  0  0 
121122  1  0  0  0  0 
122123  1  0  0  0  0 
123124  1  0  0  0  0 
124125  1  0  0  0  0 
125126  1  0  0  0  0 
126127  1  0  0  0  0 
126128  1  0  0  0  0 
  3135  1  0  0  0  0 
  5136  1  0  0  0  0 
  7137  1  0  0  0  0 
 11138  1  0  0  0  0 
 12139  1  0  0  0  0 
 13140  1  0  0  0  0 
 15141  1  0  0  0  0 
 16142  1  0  0  0  0 
 18143  1  0  0  0  0 
 19144  1  0  0  0  0 
 19145  1  0  0  0  0 
 20146  1  0  0  0  0 
 21147  1  0  0  0  0 
 23148  1  0  0  0  0 
 25149  1  0  0  0  0 
 26150  1  0  0  0  0 
 27151  1  0  0  0  0 
 28152  1  0  0  0  0 
 29153  1  0  0  0  0 
 33154  1  0  0  0  0 
 34155  1  0  0  0  0 
 34156  1  0  0  0  0 
 37157  1  0  0  0  0 
 39158  1  0  0  0  0 
 39159  1  0  0  0  0 
 40160  1  0  0  0  0 
 41161  1  0  0  0  0 
 44162  1  0  0  0  0 
 44163  1  0  0  0  0 
 45164  1  0  0  0  0 
 50165  1  0  0  0  0 
 51166  1  0  0  0  0 
 53167  1  0  0  0  0 
 54168  1  0  0  0  0 
 54169  1  0  0  0  0 
 54170  1  0  0  0  0 
 55171  1  0  0  0  0 
 55172  1  0  0  0  0 
 55173  1  0  0  0  0 
 57174  1  0  0  0  0 
 58175  1  0  0  0  0 
 59176  1  0  0  0  0 
 71177  1  0  0  0  0 
 74178  1  0  0  0  0 
 77179  1  0  0  0  0 
 78180  1  0  0  0  0 
 79181  1  0  0  0  0 
 85182  1  0  0  0  0 
 87183  1  0  0  0  0 
 88184  1  0  0  0  0 
 90185  1  0  0  0  0 
 91186  1  0  0  0  0 
 92187  1  0  0  0  0 
 92188  1  0  0  0  0 
 93189  1  0  0  0  0 
 94190  1  0  0  0  0 
 95191  1  0  0  0  0 
 96192  1  0  0  0  0 
101193  1  0  0  0  0 
102194  1  0  0  0  0 
104195  1  0  0  0  0 
107196  1  0  0  0  0 
108197  1  0  0  0  0 
108198  1  0  0  0  0 
110199  1  0  0  0  0 
111200  1  0  0  0  0 
114201  1  0  0  0  0 
115202  1  0  0  0  0 
116203  1  0  0  0  0 
117204  1  0  0  0  0 
117205  1  0  0  0  0 
118206  1  0  0  0  0 
119207  1  0  0  0  0 
119208  1  0  0  0  0 
119209  1  0  0  0  0 
120210  1  0  0  0  0 
120211  1  0  0  0  0 
121212  1  0  0  0  0 
121213  1  0  0  0  0 
122214  1  0  0  0  0 
122215  1  0  0  0  0 
123216  1  0  0  0  0 
123217  1  0  0  0  0 
124218  1  0  0  0  0 
124219  1  0  0  0  0 
125220  1  0  0  0  0 
125221  1  0  0  0  0 
126222  1  0  0  0  0 
127223  1  0  0  0  0 
127224  1  0  0  0  0 
127225  1  0  0  0  0 
128226  1  0  0  0  0 
128227  1  0  0  0  0 
128228  1  0  0  0  0 
M  END
> <cdk:Title>
dalbavancin

> <Conformer>
1

> <SuperDrugID>
SD000684

$$$$
