prazosin
  CDK     0628171801

 49 52  0  0  0  0  0  0  0  0999 V2000
    2.1094    3.8131    3.9848 N   0  0  0  0  0  0  0  0  0  0  0  0
    2.5115    2.5712    3.6468 C   0  0  0  0  0  0  0  0  0  0  0  0
    1.9378    1.8438    2.5762 C   0  0  0  0  0  0  0  0  0  0  0  0
    3.5188    2.0165    4.3741 N   0  0  0  0  0  0  0  0  0  0  0  0
    2.4774    0.5579    2.3136 C   0  0  0  0  0  0  0  0  0  0  0  0
    0.8785    2.3156    1.7650 C   0  0  0  0  0  0  0  0  0  0  0  0
    4.0293    0.7748    4.1312 C   0  0  0  0  0  0  0  0  0  0  0  0
    3.4811    0.0850    3.0928 N   0  0  0  0  0  0  0  0  0  0  0  0
    1.9811   -0.2264    1.2552 C   0  0  0  0  0  0  0  0  0  0  0  0
    0.3792    1.5332    0.7017 C   0  0  0  0  0  0  0  0  0  0  0  0
    5.0592    0.2250    4.8849 N   0  0  0  0  0  0  0  0  0  0  0  0
    0.9217    0.2507    0.4562 C   0  0  0  0  0  0  0  0  0  0  0  0
   -0.6477    2.0078   -0.0727 O   0  0  0  0  0  0  0  0  0  0  0  0
    5.6850   -1.0355    4.5417 C   0  0  2  0  0  0  0  0  0  0  0  0
    5.5881    0.8377    6.0862 C   0  0  1  0  0  0  0  0  0  0  0  0
    0.4454   -0.5203   -0.5707 O   0  0  0  0  0  0  0  0  0  0  0  0
   -0.1912    2.8212   -1.1691 C   0  0  0  0  0  0  0  0  0  0  0  0
    5.5214   -2.0384    5.7105 C   0  0  2  0  0  0  0  0  0  0  0  0
    5.5190   -0.1521    7.2847 C   0  0  2  0  0  0  0  0  0  0  0  0
   -0.5989   -1.4272   -0.1681 C   0  0  0  0  0  0  0  0  0  0  0  0
    5.9897   -1.5038    6.9795 N   0  0  0  0  0  0  0  0  0  0  0  0
    6.7536   -2.2299    7.9068 C   0  0  0  0  0  0  0  0  0  0  0  0
    7.0978   -1.6561    8.9713 O   0  0  0  0  0  0  0  0  0  0  0  0
    7.1745   -3.5964    7.8349 C   0  0  0  0  0  0  0  0  0  0  0  0
    7.8130   -4.3113    8.8584 C   0  0  0  0  0  0  0  0  0  0  0  0
    7.0303   -4.4596    6.7962 O   0  0  0  0  0  0  0  0  0  0  0  0
    8.0552   -5.6001    8.4088 C   0  0  0  0  0  0  0  0  0  0  0  0
    7.5543   -5.6637    7.1206 C   0  0  0  0  0  0  0  0  0  0  0  0
    2.5343    4.2761    4.7247 H   0  0  0  0  0  0  0  0  0  0  0  0
    1.4012    4.2528    3.4873 H   0  0  0  0  0  0  0  0  0  0  0  0
    0.4616    3.2326    1.9362 H   0  0  0  0  0  0  0  0  0  0  0  0
    2.3854   -1.1484    1.0651 H   0  0  0  0  0  0  0  0  0  0  0  0
    6.7504   -0.8717    4.3471 H   0  0  0  0  0  0  0  0  0  0  0  0
    5.2762   -1.5000    3.6419 H   0  0  0  0  0  0  0  0  0  0  0  0
    6.6322    1.1203    5.9153 H   0  0  0  0  0  0  0  0  0  0  0  0
    5.0575    1.7497    6.3709 H   0  0  0  0  0  0  0  0  0  0  0  0
   -1.0630    3.1671   -1.7231 H   0  0  0  0  0  0  0  0  0  0  0  0
    0.3527    3.7009   -0.8157 H   0  0  0  0  0  0  0  0  0  0  0  0
    0.4401    2.2521   -1.8563 H   0  0  0  0  0  0  0  0  0  0  0  0
    6.0377   -2.9334    5.3868 H   0  0  0  0  0  0  0  0  0  0  0  0
    4.4622   -2.2924    5.8135 H   0  0  0  0  0  0  0  0  0  0  0  0
    4.4761   -0.2304    7.6033 H   0  0  0  0  0  0  0  0  0  0  0  0
    6.0656    0.3144    8.1083 H   0  0  0  0  0  0  0  0  0  0  0  0
   -0.9220   -1.9809   -1.0500 H   0  0  0  0  0  0  0  0  0  0  0  0
   -0.2426   -2.1485    0.5720 H   0  0  0  0  0  0  0  0  0  0  0  0
   -1.4648   -0.8937    0.2325 H   0  0  0  0  0  0  0  0  0  0  0  0
    8.0596   -3.9577    9.7860 H   0  0  0  0  0  0  0  0  0  0  0  0
    8.5113   -6.3537    8.9262 H   0  0  0  0  0  0  0  0  0  0  0  0
    7.5755   -6.4817    6.5090 H   0  0  0  0  0  0  0  0  0  0  0  0
  1  2  1  0  0  0  0 
  2  3  2  0  0  0  0 
  2  4  1  0  0  0  0 
  3  5  1  0  0  0  0 
  3  6  1  0  0  0  0 
  4  7  2  0  0  0  0 
  5  8  2  0  0  0  0 
  5  9  1  0  0  0  0 
  6 10  2  0  0  0  0 
  7  8  1  0  0  0  0 
  7 11  1  0  0  0  0 
  9 12  2  0  0  0  0 
 10 12  1  0  0  0  0 
 10 13  1  0  0  0  0 
 11 14  1  0  0  0  0 
 11 15  1  0  0  0  0 
 12 16  1  0  0  0  0 
 13 17  1  0  0  0  0 
 14 18  1  0  0  0  0 
 15 19  1  0  0  0  0 
 16 20  1  0  0  0  0 
 18 21  1  0  0  0  0 
 19 21  1  0  0  0  0 
 21 22  1  0  0  0  0 
 22 23  2  0  0  0  0 
 22 24  1  0  0  0  0 
 24 25  2  0  0  0  0 
 24 26  1  0  0  0  0 
 25 27  1  0  0  0  0 
 26 28  1  0  0  0  0 
 27 28  2  0  0  0  0 
  1 29  1  0  0  0  0 
  1 30  1  0  0  0  0 
  6 31  1  0  0  0  0 
  9 32  1  0  0  0  0 
 14 33  1  0  0  0  0 
 14 34  1  0  0  0  0 
 15 35  1  0  0  0  0 
 15 36  1  0  0  0  0 
 17 37  1  0  0  0  0 
 17 38  1  0  0  0  0 
 17 39  1  0  0  0  0 
 18 40  1  0  0  0  0 
 18 41  1  0  0  0  0 
 19 42  1  0  0  0  0 
 19 43  1  0  0  0  0 
 20 44  1  0  0  0  0 
 20 45  1  0  0  0  0 
 20 46  1  0  0  0  0 
 25 47  1  0  0  0  0 
 27 48  1  0  0  0  0 
 28 49  1  0  0  0  0 
M  END
> <cdk:Title>
prazosin

> <Conformer>
1

> <SuperDrugID>
SD003427

$$$$
