omapatrilat
  CDK     0628171801

 51 53  0  0  0  0  0  0  0  0999 V2000
    1.2343   -1.7398   -1.6687 C   0  0  0  0  0  0  0  0  0  0  0  0
    1.3235   -0.6341   -2.4468 O   0  0  0  0  0  0  0  0  0  0  0  0
    2.2638   -2.4362   -1.5211 O   0  0  0  0  0  0  0  0  0  0  0  0
   -0.0541   -2.1336   -1.0325 C   0  0  1  0  0  0  0  0  0  0  0  0
   -0.6693   -1.2204   -0.0543 N   0  0  0  0  0  0  0  0  0  0  0  0
   -1.0822   -2.4004   -2.1793 C   0  0  2  0  0  0  0  0  0  0  0  0
   -1.8931   -1.7288    0.5559 C   0  0  2  0  0  0  0  0  0  0  0  0
   -0.1267    0.0220    0.2376 C   0  0  0  0  0  0  0  0  0  0  0  0
   -2.4571   -2.8812   -1.6486 C   0  0  2  0  0  0  0  0  0  0  0  0
   -2.9883   -1.9573   -0.5203 C   0  0  2  0  0  0  0  0  0  0  0  0
   -2.5314   -0.9586    2.0828 S   0  0  0  0  0  0  0  0  0  0  0  0
    1.1120    0.0978    0.4295 O   0  0  0  0  0  0  0  0  0  0  0  0
   -0.8752    1.3170    0.2148 C   0  0  1  0  0  0  0  0  0  0  0  0
   -2.9989    0.7328    1.6364 C   0  0  2  0  0  0  0  0  0  0  0  0
   -1.6310    1.4080   -1.0017 N   0  0  0  0  0  0  0  0  0  0  0  0
   -1.7519    1.6218    1.4581 C   0  0  2  0  0  0  0  0  0  0  0  0
   -1.7999    2.5186   -1.7812 C   0  0  0  0  0  0  0  0  0  0  0  0
   -2.5877    2.4444   -3.0372 C   0  0  2  0  0  0  0  0  0  0  0  0
   -1.2956    3.6200   -1.4551 O   0  0  0  0  0  0  0  0  0  0  0  0
   -4.1043    2.1714   -2.8017 C   0  0  2  0  0  0  0  0  0  0  0  0
   -1.8629    1.1885   -4.1188 S   0  0  0  0  0  0  0  0  0  0  0  0
   -4.8519    3.3965   -2.3983 C   0  0  0  0  0  0  0  0  0  0  0  0
   -5.5932    4.1311   -3.3563 C   0  0  0  0  0  0  0  0  0  0  0  0
   -4.8250    3.8612   -1.0619 C   0  0  0  0  0  0  0  0  0  0  0  0
   -6.2840    5.3015   -2.9913 C   0  0  0  0  0  0  0  0  0  0  0  0
   -5.5143    5.0329   -0.6950 C   0  0  0  0  0  0  0  0  0  0  0  0
   -6.2456    5.7499   -1.6599 C   0  0  0  0  0  0  0  0  0  0  0  0
    2.1739   -0.4021   -2.8781 H   0  0  0  0  0  0  0  0  0  0  0  0
    0.1292   -3.0885   -0.5255 H   0  0  0  0  0  0  0  0  0  0  0  0
   -0.6917   -3.1542   -2.8701 H   0  0  0  0  0  0  0  0  0  0  0  0
   -1.2388   -1.4816   -2.7483 H   0  0  0  0  0  0  0  0  0  0  0  0
   -1.6483   -2.7201    0.9507 H   0  0  0  0  0  0  0  0  0  0  0  0
   -2.3538   -3.9015   -1.2662 H   0  0  0  0  0  0  0  0  0  0  0  0
   -3.1771   -2.9045   -2.4712 H   0  0  0  0  0  0  0  0  0  0  0  0
   -3.2891   -1.0042   -0.9544 H   0  0  0  0  0  0  0  0  0  0  0  0
   -3.8723   -2.4204   -0.0706 H   0  0  0  0  0  0  0  0  0  0  0  0
   -0.1186    2.1121    0.2019 H   0  0  0  0  0  0  0  0  0  0  0  0
   -3.5978    1.1310    2.4583 H   0  0  0  0  0  0  0  0  0  0  0  0
   -3.6198    0.7294    0.7394 H   0  0  0  0  0  0  0  0  0  0  0  0
   -2.0600    0.5946   -1.3064 H   0  0  0  0  0  0  0  0  0  0  0  0
   -2.1000    2.6564    1.3785 H   0  0  0  0  0  0  0  0  0  0  0  0
   -1.1339    1.5647    2.3597 H   0  0  0  0  0  0  0  0  0  0  0  0
   -2.4873    3.3837   -3.5900 H   0  0  0  0  0  0  0  0  0  0  0  0
   -4.2434    1.3906   -2.0485 H   0  0  0  0  0  0  0  0  0  0  0  0
   -4.5443    1.7772   -3.7233 H   0  0  0  0  0  0  0  0  0  0  0  0
   -2.2494    0.1684   -3.3065 H   0  0  0  0  0  0  0  0  0  0  0  0
   -5.6313    3.8225   -4.3313 H   0  0  0  0  0  0  0  0  0  0  0  0
   -4.3041    3.3503   -0.3454 H   0  0  0  0  0  0  0  0  0  0  0  0
   -6.8121    5.8236   -3.6961 H   0  0  0  0  0  0  0  0  0  0  0  0
   -5.4850    5.3628    0.2719 H   0  0  0  0  0  0  0  0  0  0  0  0
   -6.7513    6.5984   -1.3936 H   0  0  0  0  0  0  0  0  0  0  0  0
  1  2  1  0  0  0  0 
  1  3  2  0  0  0  0 
  4  1  1  0  0  0  0 
  4  5  1  0  0  0  0 
  4  6  1  0  0  0  0 
  7  5  1  0  0  0  0 
  5  8  1  0  0  0  0 
  6  9  1  0  0  0  0 
  7 10  1  0  0  0  0 
  7 11  1  0  0  0  0 
  8 12  2  0  0  0  0 
 13  8  1  0  0  0  0 
  9 10  1  0  0  0  0 
 11 14  1  0  0  0  0 
 13 15  1  0  0  0  0 
 13 16  1  0  0  0  0 
 14 16  1  0  0  0  0 
 15 17  1  0  0  0  0 
 18 17  1  0  0  0  0 
 17 19  2  0  0  0  0 
 18 20  1  0  0  0  0 
 18 21  1  0  0  0  0 
 20 22  1  0  0  0  0 
 22 23  2  0  0  0  0 
 22 24  1  0  0  0  0 
 23 25  1  0  0  0  0 
 24 26  2  0  0  0  0 
 25 27  2  0  0  0  0 
 26 27  1  0  0  0  0 
 28  2  1  0  0  0  0 
  4 29  1  0  0  0  0 
 30  6  1  0  0  0  0 
 31  6  1  0  0  0  0 
  7 32  1  0  0  0  0 
 33  9  1  0  0  0  0 
 34  9  1  0  0  0  0 
 35 10  1  0  0  0  0 
 36 10  1  0  0  0  0 
 13 37  1  0  0  0  0 
 38 14  1  0  0  0  0 
 39 14  1  0  0  0  0 
 40 15  1  0  0  0  0 
 41 16  1  0  0  0  0 
 42 16  1  0  0  0  0 
 18 43  1  0  0  0  0 
 44 20  1  0  0  0  0 
 45 20  1  0  0  0  0 
 46 21  1  0  0  0  0 
 47 23  1  0  0  0  0 
 48 24  1  0  0  0  0 
 49 25  1  0  0  0  0 
 50 26  1  0  0  0  0 
 51 27  1  0  0  0  0 
M  END
> <cdk:Title>
omapatrilat

> <Conformer>
1

> <SuperDrugID>
SD001779

$$$$
