ketotifen
  CDK     0628171801

 41 44  0  0  0  0  0  0  0  0999 V2000
   -5.8937   -2.3975    5.2243 O   0  0  0  0  0  0  0  0  0  0  0  0
   -5.0801   -2.1302    4.3087 C   0  0  0  0  0  0  0  0  0  0  0  0
   -4.2105   -1.0189    4.4714 C   0  0  0  0  0  0  0  0  0  0  0  0
   -5.0367   -3.0193    3.1160 C   0  0  1  0  0  0  0  0  0  0  0  0
   -3.1934   -0.5703    3.5946 C   0  0  0  0  0  0  0  0  0  0  0  0
   -4.1353    0.0093    5.8943 S   0  0  0  0  0  0  0  0  0  0  0  0
   -3.6406   -3.4567    2.8084 C   0  0  0  0  0  0  0  0  0  0  0  0
   -2.9663   -1.1427    2.3376 C   0  0  0  0  0  0  0  0  0  0  0  0
   -2.3800    0.4617    4.1177 C   0  0  0  0  0  0  0  0  0  0  0  0
   -2.7370    0.9296    5.3822 C   0  0  0  0  0  0  0  0  0  0  0  0
   -2.6530   -2.5024    2.4242 C   0  0  0  0  0  0  0  0  0  0  0  0
   -3.2669   -4.8170    2.9208 C   0  0  0  0  0  0  0  0  0  0  0  0
   -3.0768   -0.4750    1.1527 C   0  0  0  0  0  0  0  0  0  0  0  0
   -1.3240   -2.9241    2.1844 C   0  0  0  0  0  0  0  0  0  0  0  0
   -1.9462   -5.2256    2.6635 C   0  0  0  0  0  0  0  0  0  0  0  0
   -2.8891   -1.1029   -0.1740 C   0  0  2  0  0  0  0  0  0  0  0  0
   -3.4169    0.9559    1.0476 C   0  0  1  0  0  0  0  0  0  0  0  0
   -0.9742   -4.2800    2.2954 C   0  0  0  0  0  0  0  0  0  0  0  0
   -1.8201   -0.3456   -1.0138 C   0  0  2  0  0  0  0  0  0  0  0  0
   -2.2811    1.7103    0.3090 C   0  0  1  0  0  0  0  0  0  0  0  0
   -2.0792    1.1294   -1.0546 N   0  0  1  0  0  0  0  0  0  0  0  0
   -1.0830    1.8815   -1.8654 C   0  0  0  0  0  0  0  0  0  0  0  0
   -5.6890   -3.8833    3.2719 H   0  0  0  0  0  0  0  0  0  0  0  0
   -5.4407   -2.4769    2.2565 H   0  0  0  0  0  0  0  0  0  0  0  0
   -1.5796    0.8465    3.6111 H   0  0  0  0  0  0  0  0  0  0  0  0
   -2.2741    1.6687    5.9114 H   0  0  0  0  0  0  0  0  0  0  0  0
   -3.9508   -5.5234    3.2005 H   0  0  0  0  0  0  0  0  0  0  0  0
   -0.6005   -2.2444    1.9341 H   0  0  0  0  0  0  0  0  0  0  0  0
   -1.6916   -6.2127    2.7526 H   0  0  0  0  0  0  0  0  0  0  0  0
   -3.8428   -1.0720   -0.7121 H   0  0  0  0  0  0  0  0  0  0  0  0
   -2.5984   -2.1537   -0.1307 H   0  0  0  0  0  0  0  0  0  0  0  0
   -4.3433    1.0617    0.4747 H   0  0  0  0  0  0  0  0  0  0  0  0
   -3.5966    1.4505    2.0010 H   0  0  0  0  0  0  0  0  0  0  0  0
   -0.0109   -4.5743    2.1145 H   0  0  0  0  0  0  0  0  0  0  0  0
   -1.8468   -0.7417   -2.0336 H   0  0  0  0  0  0  0  0  0  0  0  0
   -0.8258   -0.5451   -0.5998 H   0  0  0  0  0  0  0  0  0  0  0  0
   -2.5636    2.7633    0.2278 H   0  0  0  0  0  0  0  0  0  0  0  0
   -1.3561    1.6523    0.8948 H   0  0  0  0  0  0  0  0  0  0  0  0
   -1.0075    1.4529   -2.8686 H   0  0  0  0  0  0  0  0  0  0  0  0
   -0.0963    1.8539   -1.3931 H   0  0  0  0  0  0  0  0  0  0  0  0
   -1.3969    2.9236   -1.9726 H   0  0  0  0  0  0  0  0  0  0  0  0
  1  2  2  0  0  0  0 
  2  3  1  0  0  0  0 
  2  4  1  0  0  0  0 
  3  5  2  0  0  0  0 
  3  6  1  0  0  0  0 
  4  7  1  0  0  0  0 
  5  8  1  0  0  0  0 
  5  9  1  0  0  0  0 
  6 10  1  0  0  0  0 
  7 11  2  0  0  0  0 
  7 12  1  0  0  0  0 
  8 11  1  0  0  0  0 
  8 13  2  0  0  0  0 
  9 10  2  0  0  0  0 
 11 14  1  0  0  0  0 
 12 15  2  0  0  0  0 
 13 16  1  0  0  0  0 
 13 17  1  0  0  0  0 
 14 18  2  0  0  0  0 
 15 18  1  0  0  0  0 
 16 19  1  0  0  0  0 
 17 20  1  0  0  0  0 
 19 21  1  0  0  0  0 
 20 21  1  0  0  0  0 
 21 22  1  0  0  0  0 
 23  4  1  0  0  0  0 
 24  4  1  0  0  0  0 
 25  9  1  0  0  0  0 
 26 10  1  0  0  0  0 
 27 12  1  0  0  0  0 
 28 14  1  0  0  0  0 
 29 15  1  0  0  0  0 
 30 16  1  0  0  0  0 
 31 16  1  0  0  0  0 
 32 17  1  0  0  0  0 
 33 17  1  0  0  0  0 
 34 18  1  0  0  0  0 
 35 19  1  0  0  0  0 
 36 19  1  0  0  0  0 
 37 20  1  0  0  0  0 
 38 20  1  0  0  0  0 
 39 22  1  0  0  0  0 
 40 22  1  0  0  0  0 
 41 22  1  0  0  0  0 
M  END
> <cdk:Title>
ketotifen

> <Conformer>
1

> <SuperDrugID>
SD001353

$$$$
