aminocaproic acid
  CDK     0628171801

 22 21  0  0  0  0  0  0  0  0999 V2000
    1.6396    0.0934    0.3417 N   0  0  2  0  0  0  0  0  0  0  0  0
    0.2309    0.4994    0.3760 C   0  0  1  0  0  0  0  0  0  0  0  0
   -0.6908   -0.7380    0.4940 C   0  0  1  0  0  0  0  0  0  0  0  0
   -2.1944   -0.3583    0.5440 C   0  0  2  0  0  0  0  0  0  0  0  0
   -3.1209   -1.5977    0.6683 C   0  0  2  0  0  0  0  0  0  0  0  0
   -4.6240   -1.2204    0.7336 C   0  0  2  0  0  0  0  0  0  0  0  0
   -5.4921   -2.4082    0.8411 C   0  0  0  0  0  0  0  0  0  0  0  0
   -6.3856   -2.7022   -0.1310 O   0  0  0  0  0  0  0  0  0  0  0  0
   -5.4207   -3.1633    1.8370 O   0  0  0  0  0  0  0  0  0  0  0  0
    2.1908    0.9408    0.1965 H   0  0  0  0  0  0  0  0  0  0  0  0
    1.7620   -0.4813   -0.4925 H   0  0  0  0  0  0  0  0  0  0  0  0
    0.0822    1.1632    1.2289 H   0  0  0  0  0  0  0  0  0  0  0  0
    0.0060    1.0488   -0.5405 H   0  0  0  0  0  0  0  0  0  0  0  0
   -0.5125   -1.3890   -0.3662 H   0  0  0  0  0  0  0  0  0  0  0  0
   -0.4282   -1.2881    1.4016 H   0  0  0  0  0  0  0  0  0  0  0  0
   -2.4508    0.1891   -0.3668 H   0  0  0  0  0  0  0  0  0  0  0  0
   -2.3630    0.3010    1.4001 H   0  0  0  0  0  0  0  0  0  0  0  0
   -2.8503   -2.1487    1.5735 H   0  0  0  0  0  0  0  0  0  0  0  0
   -2.9559   -2.2503   -0.1936 H   0  0  0  0  0  0  0  0  0  0  0  0
   -4.8916   -0.6603   -0.1663 H   0  0  0  0  0  0  0  0  0  0  0  0
   -4.8049   -0.5793    1.5991 H   0  0  0  0  0  0  0  0  0  0  0  0
   -6.9514   -3.4996   -0.0586 H   0  0  0  0  0  0  0  0  0  0  0  0
  1  2  1  0  0  0  0 
  2  3  1  0  0  0  0 
  3  4  1  0  0  0  0 
  4  5  1  0  0  0  0 
  5  6  1  0  0  0  0 
  6  7  1  0  0  0  0 
  7  8  1  0  0  0  0 
  7  9  2  0  0  0  0 
  1 10  1  0  0  0  0 
  1 11  1  0  0  0  0 
  2 12  1  0  0  0  0 
  2 13  1  0  0  0  0 
  3 14  1  0  0  0  0 
  3 15  1  0  0  0  0 
  4 16  1  0  0  0  0 
  4 17  1  0  0  0  0 
  5 18  1  0  0  0  0 
  5 19  1  0  0  0  0 
  6 20  1  0  0  0  0 
  6 21  1  0  0  0  0 
  8 22  1  0  0  0  0 
M  END
> <cdk:Title>
aminocaproic acid

> <Conformer>
1

> <SuperDrugID>
SD000129

$$$$
