cathine
  CDK     0628171801

 24 24  0  0  0  0  0  0  0  0999 V2000
   -1.4086   -0.8454   -0.7598 C   0  0  1  0  0  0  0  0  0  0  0  0
   -2.3384   -0.2591   -1.8675 C   0  0  2  0  0  0  0  0  0  0  0  0
   -0.4787   -1.7611   -1.3392 O   0  0  0  0  0  0  0  0  0  0  0  0
   -0.6385    0.1881   -0.0062 C   0  0  0  0  0  0  0  0  0  0  0  0
   -3.4772    0.6244   -1.2995 C   0  0  0  0  0  0  0  0  0  0  0  0
   -2.9436   -1.3474   -2.6536 N   0  0  2  0  0  0  0  0  0  0  0  0
   -0.9090    0.4578    1.3591 C   0  0  0  0  0  0  0  0  0  0  0  0
    0.3993    0.9130   -0.6410 C   0  0  0  0  0  0  0  0  0  0  0  0
   -0.1568    1.4158    2.0663 C   0  0  0  0  0  0  0  0  0  0  0  0
    1.1522    1.8673    0.0661 C   0  0  0  0  0  0  0  0  0  0  0  0
    0.8745    2.1194    1.4204 C   0  0  0  0  0  0  0  0  0  0  0  0
   -2.0278   -1.4323   -0.0744 H   0  0  0  0  0  0  0  0  0  0  0  0
   -1.7496    0.3425   -2.5644 H   0  0  0  0  0  0  0  0  0  0  0  0
    0.0701   -2.0746   -0.5903 H   0  0  0  0  0  0  0  0  0  0  0  0
   -4.1353    0.9568   -2.1049 H   0  0  0  0  0  0  0  0  0  0  0  0
   -4.0703    0.0638   -0.5731 H   0  0  0  0  0  0  0  0  0  0  0  0
   -3.0650    1.5088   -0.8101 H   0  0  0  0  0  0  0  0  0  0  0  0
   -3.4152   -1.9749   -1.9975 H   0  0  0  0  0  0  0  0  0  0  0  0
   -2.1792   -1.8804   -3.0765 H   0  0  0  0  0  0  0  0  0  0  0  0
   -1.6542   -0.0430    1.8514 H   0  0  0  0  0  0  0  0  0  0  0  0
    0.6214    0.7431   -1.6244 H   0  0  0  0  0  0  0  0  0  0  0  0
   -0.3603    1.6013    3.0520 H   0  0  0  0  0  0  0  0  0  0  0  0
    1.9047    2.3746   -0.4042 H   0  0  0  0  0  0  0  0  0  0  0  0
    1.4238    2.8129    1.9344 H   0  0  0  0  0  0  0  0  0  0  0  0
  2  1  1  0  0  0  0 
  1  3  1  0  0  0  0 
  1  4  1  0  0  0  0 
  2  5  1  0  0  0  0 
  2  6  1  0  0  0  0 
  4  7  2  0  0  0  0 
  4  8  1  0  0  0  0 
  7  9  1  0  0  0  0 
  8 10  2  0  0  0  0 
  9 11  2  0  0  0  0 
 10 11  1  0  0  0  0 
  1 12  1  0  0  0  0 
  2 13  1  0  0  0  0 
  3 14  1  0  0  0  0 
  5 15  1  0  0  0  0 
  5 16  1  0  0  0  0 
  5 17  1  0  0  0  0 
  6 18  1  0  0  0  0 
  6 19  1  0  0  0  0 
  7 20  1  0  0  0  0 
  8 21  1  0  0  0  0 
  9 22  1  0  0  0  0 
 10 23  1  0  0  0  0 
 11 24  1  0  0  0  0 
M  END
> <cdk:Title>
cathine

> <Conformer>
1

> <SuperDrugID>
SD002917

$$$$
