suramin
  CDK     0628171801

126133  0  0  0  0  0  0  0  0999 V2000
   -1.5222   -0.5601    8.0131 N   0  0  0  0  0  0  0  0  0  0  0  0
   -2.8026   -1.0096    7.7573 C   0  0  0  0  0  0  0  0  0  0  0  0
   -0.4307   -1.2082    8.5487 C   0  0  0  0  0  0  0  0  0  0  0  0
   -3.1794   -2.1026    8.2450 O   0  0  0  0  0  0  0  0  0  0  0  0
   -3.7280   -0.2508    6.9613 C   0  0  0  0  0  0  0  0  0  0  0  0
    0.6397   -0.5131    9.2061 C   0  0  0  0  0  0  0  0  0  0  0  0
   -0.2866   -2.5889    8.2878 C   0  0  0  0  0  0  0  0  0  0  0  0
   -3.3215    0.9231    6.2834 C   0  0  0  0  0  0  0  0  0  0  0  0
   -5.0832   -0.6386    6.8046 C   0  0  0  0  0  0  0  0  0  0  0  0
    1.8889   -1.2030    9.4192 C   0  0  0  0  0  0  0  0  0  0  0  0
    0.6187    0.8798    9.6935 C   0  0  0  0  0  0  0  0  0  0  0  0
    0.8837   -3.2749    8.6052 C   0  0  0  0  0  0  0  0  0  0  0  0
   -4.2100    1.7150    5.5130 C   0  0  0  0  0  0  0  0  0  0  0  0
   -5.9752    0.1129    6.0140 C   0  0  0  0  0  0  0  0  0  0  0  0
    1.9878   -2.6011    9.1468 C   0  0  0  0  0  0  0  0  0  0  0  0
    3.0335   -0.4985    9.8883 C   0  0  0  0  0  0  0  0  0  0  0  0
   -0.9699    1.7471    9.8810 S   0  0  2  0  0  0  0  0  0  0  0  0
    1.8373    1.5882   10.1264 C   0  0  0  0  0  0  0  0  0  0  0  0
   -3.7838    2.9267    5.0310 N   0  0  0  0  0  0  0  0  0  0  0  0
   -5.5544    1.2956    5.3614 C   0  0  0  0  0  0  0  0  0  0  0  0
    3.4411   -3.5876    9.4395 S   0  0  2  0  0  0  0  0  0  0  0  0
    3.0356    0.8741   10.1881 C   0  0  0  0  0  0  0  0  0  0  0  0
   -2.1410    0.7769   10.3835 O   0  0  0  0  0  0  0  0  0  0  0  0
   -1.3880    2.5043    8.5337 O   0  0  0  0  0  0  0  0  0  0  0  0
   -0.8024    2.9466   11.0945 O   0  0  0  0  0  0  0  0  0  0  0  0
   -2.5590    3.1645    4.4859 C   0  0  0  0  0  0  0  0  0  0  0  0
   -6.5089    2.0896    4.5437 C   0  0  0  0  0  0  0  0  0  0  0  0
    3.8537   -3.5376   10.9883 O   0  0  0  0  0  0  0  0  0  0  0  0
    4.6698   -3.0667    8.5509 O   0  0  0  0  0  0  0  0  0  0  0  0
    3.1863   -5.2291    9.0277 O   0  0  0  0  0  0  0  0  0  0  0  0
    4.5258    1.7012   10.6713 S   0  0  2  0  0  0  0  0  0  0  0  0
   -1.8943    2.2553    3.9320 O   0  0  0  0  0  0  0  0  0  0  0  0
   -1.9244    4.3894    4.7576 C   0  0  0  0  0  0  0  0  0  0  0  0
    4.3963    2.2991   12.1531 O   0  0  0  0  0  0  0  0  0  0  0  0
    4.8717    2.9017    9.6665 O   0  0  0  0  0  0  0  0  0  0  0  0
    5.8573    0.6238   10.6717 O   0  0  0  0  0  0  0  0  0  0  0  0
   -0.8117    4.3402    5.6249 C   0  0  0  0  0  0  0  0  0  0  0  0
   -2.3764    5.6440    4.2902 C   0  0  0  0  0  0  0  0  0  0  0  0
   -0.1611    5.5167    6.0573 C   0  0  0  0  0  0  0  0  0  0  0  0
   -1.7153    6.8233    4.6911 C   0  0  0  0  0  0  0  0  0  0  0  0
    0.8220    5.4331    7.0031 N   0  0  0  0  0  0  0  0  0  0  0  0
   -0.6229    6.7621    5.5813 C   0  0  0  0  0  0  0  0  0  0  0  0
    1.8186    4.4992    7.0209 C   0  0  0  0  0  0  0  0  0  0  0  0
    2.3785    3.9357    5.9135 N   0  0  0  0  0  0  0  0  0  0  0  0
    2.2723    4.1483    8.1304 O   0  0  0  0  0  0  0  0  0  0  0  0
    2.4869    4.5719    4.7108 C   0  0  0  0  0  0  0  0  0  0  0  0
    2.9195    5.9186    4.6706 C   0  0  0  0  0  0  0  0  0  0  0  0
    2.2400    3.8989    3.4970 C   0  0  0  0  0  0  0  0  0  0  0  0
    3.0818    6.6146    3.4532 C   0  0  0  0  0  0  0  0  0  0  0  0
    2.4105    4.5685    2.2716 C   0  0  0  0  0  0  0  0  0  0  0  0
    3.5218    7.9671    3.4409 C   0  0  0  0  0  0  0  0  0  0  0  0
    2.8234    5.9130    2.2496 C   0  0  0  0  0  0  0  0  0  0  0  0
    3.1957    8.8157    4.4707 N   0  0  0  0  0  0  0  0  0  0  0  0
    4.2298    8.3351    2.4759 O   0  0  0  0  0  0  0  0  0  0  0  0
    3.4476   10.1592    4.6529 C   0  0  0  0  0  0  0  0  0  0  0  0
    3.7653   11.0293    3.5815 C   0  0  0  0  0  0  0  0  0  0  0  0
    3.3225   10.7129    5.9604 C   0  0  0  0  0  0  0  0  0  0  0  0
    3.9549   12.4145    3.7579 C   0  0  0  0  0  0  0  0  0  0  0  0
    2.9605    9.8684    7.1310 C   0  0  0  0  0  0  0  0  0  0  0  0
    3.5441   12.0977    6.1499 C   0  0  0  0  0  0  0  0  0  0  0  0
    4.2027   13.2670    2.6505 C   0  0  0  0  0  0  0  0  0  0  0  0
    3.8527   12.9356    5.0667 C   0  0  0  0  0  0  0  0  0  0  0  0
    4.9998   12.8816    1.5923 N   0  0  0  0  0  0  0  0  0  0  0  0
    3.6602   14.3990    2.6664 O   0  0  0  0  0  0  0  0  0  0  0  0
    5.4589   13.6882    0.5739 C   0  0  0  0  0  0  0  0  0  0  0  0
    5.5291   13.3331   -0.8193 C   0  0  0  0  0  0  0  0  0  0  0  0
    5.9346   14.9524    0.9909 C   0  0  0  0  0  0  0  0  0  0  0  0
    5.9428   14.3625   -1.7478 C   0  0  0  0  0  0  0  0  0  0  0  0
    5.2150   12.0348   -1.3583 C   0  0  0  0  0  0  0  0  0  0  0  0
    6.3145   15.9327    0.0802 C   0  0  0  0  0  0  0  0  0  0  0  0
    6.2955   15.6703   -1.2955 C   0  0  0  0  0  0  0  0  0  0  0  0
    6.0038   14.0737   -3.1343 C   0  0  0  0  0  0  0  0  0  0  0  0
    4.6967   10.6011   -0.4388 S   0  0  1  0  0  0  0  0  0  0  0  0
    5.3025   11.8045   -2.7506 C   0  0  0  0  0  0  0  0  0  0  0  0
    6.7446   17.0340   -2.3509 S   0  0  1  0  0  0  0  0  0  0  0  0
    5.6833   12.8115   -3.6413 C   0  0  0  0  0  0  0  0  0  0  0  0
    5.7834   10.1791    0.6615 O   0  0  0  0  0  0  0  0  0  0  0  0
    3.2590   10.8522    0.2224 O   0  0  0  0  0  0  0  0  0  0  0  0
    4.5119    9.2217   -1.4416 O   0  0  0  0  0  0  0  0  0  0  0  0
    8.1117   16.7103   -3.1238 O   0  0  0  0  0  0  0  0  0  0  0  0
    5.5892   17.3333   -3.4219 O   0  0  0  0  0  0  0  0  0  0  0  0
    6.9875   18.4739   -1.4544 O   0  0  0  0  0  0  0  0  0  0  0  0
    5.7500   12.4737   -5.3789 S   0  0  1  0  0  0  0  0  0  0  0  0
    6.8031   11.3026   -5.6807 O   0  0  0  0  0  0  0  0  0  0  0  0
    4.3065   12.0317   -5.9199 O   0  0  0  0  0  0  0  0  0  0  0  0
    6.2405   13.8589   -6.2568 O   0  0  0  0  0  0  0  0  0  0  0  0
   -1.3509    0.3561    7.7636 H   0  0  0  0  0  0  0  0  0  0  0  0
   -1.0168   -3.1204    7.8149 H   0  0  0  0  0  0  0  0  0  0  0  0
   -2.3538    1.2321    6.3708 H   0  0  0  0  0  0  0  0  0  0  0  0
   -5.4420   -1.4803    7.2659 H   0  0  0  0  0  0  0  0  0  0  0  0
    0.9229   -4.2755    8.4001 H   0  0  0  0  0  0  0  0  0  0  0  0
   -6.9442   -0.2065    5.9257 H   0  0  0  0  0  0  0  0  0  0  0  0
    3.9203   -0.9808   10.0143 H   0  0  0  0  0  0  0  0  0  0  0  0
    1.7999    2.5738   10.3988 H   0  0  0  0  0  0  0  0  0  0  0  0
   -4.3652    3.6905    5.1819 H   0  0  0  0  0  0  0  0  0  0  0  0
   -0.6010    3.7745   10.6100 H   0  0  0  0  0  0  0  0  0  0  0  0
   -6.6684    3.0646    5.0084 H   0  0  0  0  0  0  0  0  0  0  0  0
   -7.4775    1.5977    4.4482 H   0  0  0  0  0  0  0  0  0  0  0  0
   -6.1125    2.2367    3.5360 H   0  0  0  0  0  0  0  0  0  0  0  0
    3.2172   -5.2467    8.0481 H   0  0  0  0  0  0  0  0  0  0  0  0
    6.2141    0.6561    9.7590 H   0  0  0  0  0  0  0  0  0  0  0  0
   -0.4996    3.4336    5.9923 H   0  0  0  0  0  0  0  0  0  0  0  0
   -3.1865    5.7145    3.6683 H   0  0  0  0  0  0  0  0  0  0  0  0
   -2.0406    7.7310    4.3473 H   0  0  0  0  0  0  0  0  0  0  0  0
    0.7575    6.0311    7.7620 H   0  0  0  0  0  0  0  0  0  0  0  0
   -0.1734    7.6278    5.8903 H   0  0  0  0  0  0  0  0  0  0  0  0
    2.7958    3.0651    6.0100 H   0  0  0  0  0  0  0  0  0  0  0  0
    3.1516    6.3882    5.5488 H   0  0  0  0  0  0  0  0  0  0  0  0
    1.9391    2.9211    3.4977 H   0  0  0  0  0  0  0  0  0  0  0  0
    2.2409    4.0754    1.3912 H   0  0  0  0  0  0  0  0  0  0  0  0
    2.9347    6.3723    1.3420 H   0  0  0  0  0  0  0  0  0  0  0  0
    2.7052    8.3969    5.1918 H   0  0  0  0  0  0  0  0  0  0  0  0
    3.8207   10.6611    2.6407 H   0  0  0  0  0  0  0  0  0  0  0  0
    1.9678    9.4379    6.9850 H   0  0  0  0  0  0  0  0  0  0  0  0
    2.9460   10.4312    8.0679 H   0  0  0  0  0  0  0  0  0  0  0  0
    3.6868    9.0608    7.2383 H   0  0  0  0  0  0  0  0  0  0  0  0
    3.4736   12.5171    7.0803 H   0  0  0  0  0  0  0  0  0  0  0  0
    3.9949   13.9342    5.2415 H   0  0  0  0  0  0  0  0  0  0  0  0
    5.2833   11.9607    1.5849 H   0  0  0  0  0  0  0  0  0  0  0  0
    6.0084   15.1818    1.9866 H   0  0  0  0  0  0  0  0  0  0  0  0
    6.6001   16.8429    0.4465 H   0  0  0  0  0  0  0  0  0  0  0  0
    6.2886   14.7819   -3.8083 H   0  0  0  0  0  0  0  0  0  0  0  0
    5.0850   10.8884   -3.1475 H   0  0  0  0  0  0  0  0  0  0  0  0
    5.2136    8.6060   -1.1435 H   0  0  0  0  0  0  0  0  0  0  0  0
    7.8780   18.7876   -1.7195 H   0  0  0  0  0  0  0  0  0  0  0  0
    7.2034   13.7321   -6.3918 H   0  0  0  0  0  0  0  0  0  0  0  0
  1  2  1  0  0  0  0 
  1  3  1  0  0  0  0 
  2  4  2  0  0  0  0 
  2  5  1  0  0  0  0 
  3  6  2  0  0  0  0 
  3  7  1  0  0  0  0 
  5  8  2  0  0  0  0 
  5  9  1  0  0  0  0 
  6 10  1  0  0  0  0 
  6 11  1  0  0  0  0 
  7 12  2  0  0  0  0 
  8 13  1  0  0  0  0 
  9 14  2  0  0  0  0 
 10 15  2  0  0  0  0 
 10 16  1  0  0  0  0 
 11 17  1  0  0  0  0 
 11 18  2  0  0  0  0 
 12 15  1  0  0  0  0 
 13 19  1  0  0  0  0 
 13 20  2  0  0  0  0 
 14 20  1  0  0  0  0 
 15 21  1  0  0  0  0 
 16 22  2  0  0  0  0 
 17 23  2  0  0  0  0 
 17 24  2  0  0  0  0 
 17 25  1  0  0  0  0 
 18 22  1  0  0  0  0 
 19 26  1  0  0  0  0 
 20 27  1  0  0  0  0 
 21 28  2  0  0  0  0 
 21 29  2  0  0  0  0 
 21 30  1  0  0  0  0 
 22 31  1  0  0  0  0 
 26 32  2  0  0  0  0 
 26 33  1  0  0  0  0 
 31 34  2  0  0  0  0 
 31 35  2  0  0  0  0 
 31 36  1  0  0  0  0 
 33 37  2  0  0  0  0 
 33 38  1  0  0  0  0 
 37 39  1  0  0  0  0 
 38 40  2  0  0  0  0 
 39 41  1  0  0  0  0 
 39 42  2  0  0  0  0 
 40 42  1  0  0  0  0 
 41 43  1  0  0  0  0 
 43 44  1  0  0  0  0 
 43 45  2  0  0  0  0 
 44 46  1  0  0  0  0 
 46 47  2  0  0  0  0 
 46 48  1  0  0  0  0 
 47 49  1  0  0  0  0 
 48 50  2  0  0  0  0 
 49 51  1  0  0  0  0 
 49 52  2  0  0  0  0 
 50 52  1  0  0  0  0 
 51 53  1  0  0  0  0 
 51 54  2  0  0  0  0 
 53 55  1  0  0  0  0 
 55 56  2  0  0  0  0 
 55 57  1  0  0  0  0 
 56 58  1  0  0  0  0 
 57 59  1  0  0  0  0 
 57 60  2  0  0  0  0 
 58 61  1  0  0  0  0 
 58 62  2  0  0  0  0 
 60 62  1  0  0  0  0 
 61 63  1  0  0  0  0 
 61 64  2  0  0  0  0 
 63 65  1  0  0  0  0 
 65 66  2  0  0  0  0 
 65 67  1  0  0  0  0 
 66 68  1  0  0  0  0 
 66 69  1  0  0  0  0 
 67 70  2  0  0  0  0 
 68 71  2  0  0  0  0 
 68 72  1  0  0  0  0 
 69 73  1  0  0  0  0 
 69 74  2  0  0  0  0 
 70 71  1  0  0  0  0 
 71 75  1  0  0  0  0 
 72 76  2  0  0  0  0 
 73 77  2  0  0  0  0 
 73 78  2  0  0  0  0 
 73 79  1  0  0  0  0 
 74 76  1  0  0  0  0 
 75 80  2  0  0  0  0 
 75 81  2  0  0  0  0 
 75 82  1  0  0  0  0 
 76 83  1  0  0  0  0 
 83 84  2  0  0  0  0 
 83 85  2  0  0  0  0 
 83 86  1  0  0  0  0 
  1 87  1  0  0  0  0 
  7 88  1  0  0  0  0 
  8 89  1  0  0  0  0 
  9 90  1  0  0  0  0 
 12 91  1  0  0  0  0 
 14 92  1  0  0  0  0 
 16 93  1  0  0  0  0 
 18 94  1  0  0  0  0 
 19 95  1  0  0  0  0 
 25 96  1  0  0  0  0 
 27 97  1  0  0  0  0 
 27 98  1  0  0  0  0 
 27 99  1  0  0  0  0 
 30100  1  0  0  0  0 
 36101  1  0  0  0  0 
 37102  1  0  0  0  0 
 38103  1  0  0  0  0 
 40104  1  0  0  0  0 
 41105  1  0  0  0  0 
 42106  1  0  0  0  0 
 44107  1  0  0  0  0 
 47108  1  0  0  0  0 
 48109  1  0  0  0  0 
 50110  1  0  0  0  0 
 52111  1  0  0  0  0 
 53112  1  0  0  0  0 
 56113  1  0  0  0  0 
 59114  1  0  0  0  0 
 59115  1  0  0  0  0 
 59116  1  0  0  0  0 
 60117  1  0  0  0  0 
 62118  1  0  0  0  0 
 63119  1  0  0  0  0 
 67120  1  0  0  0  0 
 70121  1  0  0  0  0 
 72122  1  0  0  0  0 
 74123  1  0  0  0  0 
 79124  1  0  0  0  0 
 82125  1  0  0  0  0 
 86126  1  0  0  0  0 
M  END
> <cdk:Title>
suramin

> <Conformer>
1

> <SuperDrugID>
SD002602

$$$$
