cymarin
  CDK     0628171801

 83 88  0  0  0  0  0  0  0  0999 V2000
   43.0293   15.0369   -0.3060 C   0  0  0  0  0  0  0  0  0  0  0  0
   42.4373   15.0306   -1.4113 O   0  0  0  0  0  0  0  0  0  0  0  0
   44.5278   15.0668   -0.1489 C   0  0  1  0  0  0  0  0  0  0  0  0
   44.9271   16.4304    0.5852 C   0  0  2  0  0  0  0  0  0  0  0  0
   45.0019   13.8208    0.7211 C   0  0  1  0  0  0  0  0  0  0  0  0
   45.1893   14.9088   -1.5814 C   0  0  2  0  0  0  0  0  0  0  0  0
   44.4719   16.4826    2.0951 C   0  0  2  0  0  0  0  0  0  0  0  0
   44.4448   17.7374   -0.1307 C   0  0  1  0  0  0  0  0  0  0  0  0
   44.4476   12.6056    0.1939 O   0  0  0  0  0  0  0  0  0  0  0  0
   46.5641   13.6361    0.6987 C   0  0  1  0  0  0  0  0  0  0  0  0
   44.5019   13.8949    2.2005 C   0  0  2  0  0  0  0  0  0  0  0  0
   46.7248   14.6789   -1.6016 C   0  0  1  0  0  0  0  0  0  0  0  0
   44.8804   17.8031    2.8562 C   0  0  2  0  0  0  0  0  0  0  0  0
   44.8986   15.2147    2.8980 C   0  0  2  0  0  0  0  0  0  0  0  0
   44.8987   19.0351    0.5965 C   0  0  1  0  0  0  0  0  0  0  0  0
   47.1632   13.4725   -0.7284 C   0  0  2  0  0  0  0  0  0  0  0  0
   44.2206   17.7451    4.1303 O   0  0  0  0  0  0  0  0  0  0  0  0
   44.4820   19.1315    2.1213 C   0  0  1  0  0  0  0  0  0  0  0  0
   46.4045   17.9742    3.1521 C   0  0  2  0  0  0  0  0  0  0  0  0
   46.7972   12.2333   -1.3917 O   0  0  0  0  0  0  0  0  0  0  0  0
   42.9447   19.4474    2.1780 C   0  0  0  0  0  0  0  0  0  0  0  0
   45.3600   20.2097    2.8759 C   0  0  2  0  0  0  0  0  0  0  0  0
   46.7222   19.4876    3.0958 C   0  0  1  0  0  0  0  0  0  0  0  0
   47.4316   11.0200   -0.9096 C   0  0  1  0  0  0  0  0  0  0  0  0
   44.8090   20.7895    4.1244 C   0  0  0  0  0  0  0  0  0  0  0  0
   46.7533    9.7621   -1.5160 C   0  0  1  0  0  0  0  0  0  0  0  0
   48.8669   11.0159   -1.0971 O   0  0  0  0  0  0  0  0  0  0  0  0
   44.0555   22.0258    4.1788 C   0  0  2  0  0  0  0  0  0  0  0  0
   44.9233   20.3117    5.3706 C   0  0  0  0  0  0  0  0  0  0  0  0
   47.2164    9.4733   -2.9715 C   0  0  2  0  0  0  0  0  0  0  0  0
   49.3756   10.7720   -2.4287 C   0  0  1  0  0  0  0  0  0  0  0  0
   43.7788   22.1759    5.5701 O   0  0  0  0  0  0  0  0  0  0  0  0
   44.3056   21.1371    6.2417 C   0  0  0  0  0  0  0  0  0  0  0  0
   46.7540    8.1924   -3.4648 O   0  0  0  0  0  0  0  0  0  0  0  0
   48.7703    9.4730   -3.0407 C   0  0  1  0  0  0  0  0  0  0  0  0
   49.2788   12.0148   -3.3506 C   0  0  0  0  0  0  0  0  0  0  0  0
   44.2352   20.9705    7.4808 O   0  0  0  0  0  0  0  0  0  0  0  0
   45.3373    8.0581   -3.6804 C   0  0  0  0  0  0  0  0  0  0  0  0
   49.2892    8.3414   -2.3353 O   0  0  0  0  0  0  0  0  0  0  0  0
   43.3791   16.4782    2.0919 H   0  0  0  0  0  0  0  0  0  0  0  0
   46.0149   16.4849    0.5771 H   0  0  0  0  0  0  0  0  0  0  0  0
   47.2733   10.9318    0.1668 H   0  0  0  0  0  0  0  0  0  0  0  0
   42.4262   15.0320    0.5150 H   0  0  0  0  0  0  0  0  0  0  0  0
   44.9674   15.7733   -2.2098 H   0  0  0  0  0  0  0  0  0  0  0  0
   44.7467   14.0463   -2.0918 H   0  0  0  0  0  0  0  0  0  0  0  0
   44.8514   17.7811   -1.1428 H   0  0  0  0  0  0  0  0  0  0  0  0
   43.3570   17.7375   -0.2196 H   0  0  0  0  0  0  0  0  0  0  0  0
   43.4745   12.7092    0.2538 H   0  0  0  0  0  0  0  0  0  0  0  0
   47.0583   14.4982    1.1526 H   0  0  0  0  0  0  0  0  0  0  0  0
   46.8424   12.7822    1.3177 H   0  0  0  0  0  0  0  0  0  0  0  0
   44.9072   13.0582    2.7776 H   0  0  0  0  0  0  0  0  0  0  0  0
   43.4146   13.7902    2.2412 H   0  0  0  0  0  0  0  0  0  0  0  0
   47.0506   14.5101   -2.6320 H   0  0  0  0  0  0  0  0  0  0  0  0
   47.2301   15.5835   -1.2560 H   0  0  0  0  0  0  0  0  0  0  0  0
   44.4246   15.2236    3.8820 H   0  0  0  0  0  0  0  0  0  0  0  0
   45.9759   15.2203    3.0646 H   0  0  0  0  0  0  0  0  0  0  0  0
   45.9829   19.0823    0.4862 H   0  0  0  0  0  0  0  0  0  0  0  0
   44.5067   19.8974    0.0493 H   0  0  0  0  0  0  0  0  0  0  0  0
   48.2546   13.5196   -0.6500 H   0  0  0  0  0  0  0  0  0  0  0  0
   43.2654   17.6652    3.9341 H   0  0  0  0  0  0  0  0  0  0  0  0
   47.0183   17.4534    2.4147 H   0  0  0  0  0  0  0  0  0  0  0  0
   46.6644   17.5699    4.1340 H   0  0  0  0  0  0  0  0  0  0  0  0
   42.3560   18.6762    1.6821 H   0  0  0  0  0  0  0  0  0  0  0  0
   42.5805   19.5144    3.2030 H   0  0  0  0  0  0  0  0  0  0  0  0
   42.7361   20.3989    1.6852 H   0  0  0  0  0  0  0  0  0  0  0  0
   45.5380   21.0549    2.2016 H   0  0  0  0  0  0  0  0  0  0  0  0
   47.2438   19.8214    3.9969 H   0  0  0  0  0  0  0  0  0  0  0  0
   47.3962   19.6915    2.2578 H   0  0  0  0  0  0  0  0  0  0  0  0
   46.9920    8.8931   -0.8953 H   0  0  0  0  0  0  0  0  0  0  0  0
   45.6702    9.8991   -1.4860 H   0  0  0  0  0  0  0  0  0  0  0  0
   43.1190   21.9590    3.6254 H   0  0  0  0  0  0  0  0  0  0  0  0
   44.6479   22.8657    3.8121 H   0  0  0  0  0  0  0  0  0  0  0  0
   45.3961   19.4846    5.6375 H   0  0  0  0  0  0  0  0  0  0  0  0
   46.8435   10.2655   -3.6294 H   0  0  0  0  0  0  0  0  0  0  0  0
   50.4468   10.5969   -2.2965 H   0  0  0  0  0  0  0  0  0  0  0  0
   49.0843    9.3694   -4.0836 H   0  0  0  0  0  0  0  0  0  0  0  0
   49.7180   12.8789   -2.8464 H   0  0  0  0  0  0  0  0  0  0  0  0
   48.2438   12.2447   -3.6050 H   0  0  0  0  0  0  0  0  0  0  0  0
   49.8329   11.8390   -4.2768 H   0  0  0  0  0  0  0  0  0  0  0  0
   45.1601    7.1022   -4.1711 H   0  0  0  0  0  0  0  0  0  0  0  0
   44.9524    8.8524   -4.3232 H   0  0  0  0  0  0  0  0  0  0  0  0
   44.7938    8.0537   -2.7349 H   0  0  0  0  0  0  0  0  0  0  0  0
   50.2602    8.3850   -2.4659 H   0  0  0  0  0  0  0  0  0  0  0  0
  1  2  2  0  0  0  0 
  3  1  1  0  0  0  0 
  4  3  1  0  0  0  0 
  3  5  1  0  0  0  0 
  3  6  1  0  0  0  0 
  7  4  1  0  0  0  0 
  4  8  1  0  0  0  0 
  4 41  1  0  0  0  0 
  5  9  1  0  0  0  0 
  5 10  1  0  0  0  0 
  5 11  1  0  0  0  0 
  6 12  1  0  0  0  0 
 13  7  1  0  0  0  0 
  7 14  1  0  0  0  0 
  7 40  1  0  0  0  0 
  8 15  1  0  0  0  0 
 16 10  1  0  0  0  0 
 11 14  1  0  0  0  0 
 16 12  1  0  0  0  0 
 13 17  1  0  0  0  0 
 13 18  1  0  0  0  0 
 13 19  1  0  0  0  0 
 18 15  1  0  0  0  0 
 16 20  1  0  0  0  0 
 18 21  1  0  0  0  0 
 18 22  1  0  0  0  0 
 19 23  1  0  0  0  0 
 24 20  1  0  0  0  0 
 22 23  1  0  0  0  0 
 22 25  1  0  0  0  0 
 24 26  1  0  0  0  0 
 24 27  1  0  0  0  0 
 24 42  1  0  0  0  0 
 25 28  1  0  0  0  0 
 25 29  2  0  0  0  0 
 30 26  1  0  0  0  0 
 31 27  1  0  0  0  0 
 28 32  1  0  0  0  0 
 29 33  1  0  0  0  0 
 30 34  1  0  0  0  0 
 30 35  1  0  0  0  0 
 35 31  1  0  0  0  0 
 31 36  1  0  0  0  0 
 32 33  1  0  0  0  0 
 33 37  2  0  0  0  0 
 34 38  1  0  0  0  0 
 35 39  1  0  0  0  0 
  1 43  1  0  0  0  0 
  6 44  1  0  0  0  0 
  6 45  1  0  0  0  0 
  8 46  1  0  0  0  0 
  8 47  1  0  0  0  0 
  9 48  1  0  0  0  0 
 10 49  1  0  0  0  0 
 10 50  1  0  0  0  0 
 11 51  1  0  0  0  0 
 11 52  1  0  0  0  0 
 12 53  1  0  0  0  0 
 12 54  1  0  0  0  0 
 14 55  1  0  0  0  0 
 14 56  1  0  0  0  0 
 15 57  1  0  0  0  0 
 15 58  1  0  0  0  0 
 16 59  1  0  0  0  0 
 17 60  1  0  0  0  0 
 19 61  1  0  0  0  0 
 19 62  1  0  0  0  0 
 21 63  1  0  0  0  0 
 21 64  1  0  0  0  0 
 21 65  1  0  0  0  0 
 22 66  1  0  0  0  0 
 23 67  1  0  0  0  0 
 23 68  1  0  0  0  0 
 26 69  1  0  0  0  0 
 26 70  1  0  0  0  0 
 28 71  1  0  0  0  0 
 28 72  1  0  0  0  0 
 29 73  1  0  0  0  0 
 30 74  1  0  0  0  0 
 31 75  1  0  0  0  0 
 35 76  1  0  0  0  0 
 36 77  1  0  0  0  0 
 36 78  1  0  0  0  0 
 36 79  1  0  0  0  0 
 38 80  1  0  0  0  0 
 38 81  1  0  0  0  0 
 38 82  1  0  0  0  0 
 39 83  1  0  0  0  0 
M  END
> <cdk:Title>
cymarin

> <Conformer>
1

> <SuperDrugID>
SD003548

$$$$
