phenindamine
  CDK     0628171801

 39 42  0  0  0  0  0  0  0  0999 V2000
    0.1879   -2.6327    4.7868 C   0  0  0  0  0  0  0  0  0  0  0  0
   -0.7744   -2.1486    3.7576 N   0  0  1  0  0  0  0  0  0  0  0  0
   -0.1657   -2.0394    2.3930 C   0  0  2  0  0  0  0  0  0  0  0  0
   -2.0681   -2.8962    3.7583 C   0  0  1  0  0  0  0  0  0  0  0  0
   -1.1312   -1.7304    1.3453 C   0  0  0  0  0  0  0  0  0  0  0  0
   -3.0796   -2.2357    2.7787 C   0  0  1  0  0  0  0  0  0  0  0  0
   -0.7716   -1.2891    0.0073 C   0  0  2  0  0  0  0  0  0  0  0  0
   -2.4578   -1.8131    1.5319 C   0  0  0  0  0  0  0  0  0  0  0  0
   -2.1140   -1.0308   -0.5345 C   0  0  0  0  0  0  0  0  0  0  0  0
    0.0196   -2.3226   -0.7391 C   0  0  0  0  0  0  0  0  0  0  0  0
   -3.0905   -1.3985    0.3910 C   0  0  0  0  0  0  0  0  0  0  0  0
   -2.4649   -0.5162   -1.7969 C   0  0  0  0  0  0  0  0  0  0  0  0
   -0.5826   -3.4278   -1.3973 C   0  0  0  0  0  0  0  0  0  0  0  0
    1.4313   -2.2258   -0.7644 C   0  0  0  0  0  0  0  0  0  0  0  0
   -4.4597   -1.3093    0.0663 C   0  0  0  0  0  0  0  0  0  0  0  0
   -3.8297   -0.4390   -2.1400 C   0  0  0  0  0  0  0  0  0  0  0  0
    0.1988   -4.3865   -2.0697 C   0  0  0  0  0  0  0  0  0  0  0  0
    2.2145   -3.1909   -1.4250 C   0  0  0  0  0  0  0  0  0  0  0  0
   -4.8202   -0.8485   -1.2194 C   0  0  0  0  0  0  0  0  0  0  0  0
    1.5985   -4.2696   -2.0806 C   0  0  0  0  0  0  0  0  0  0  0  0
    0.4853   -3.6667    4.5896 H   0  0  0  0  0  0  0  0  0  0  0  0
   -0.2623   -2.5806    5.7809 H   0  0  0  0  0  0  0  0  0  0  0  0
    1.0824   -2.0053    4.7960 H   0  0  0  0  0  0  0  0  0  0  0  0
    0.3410   -2.9712    2.1283 H   0  0  0  0  0  0  0  0  0  0  0  0
    0.5745   -1.2369    2.4156 H   0  0  0  0  0  0  0  0  0  0  0  0
   -1.8939   -3.9364    3.4614 H   0  0  0  0  0  0  0  0  0  0  0  0
   -2.5086   -2.8970    4.7600 H   0  0  0  0  0  0  0  0  0  0  0  0
   -3.8870   -2.9449    2.5791 H   0  0  0  0  0  0  0  0  0  0  0  0
   -3.5146   -1.3517    3.2509 H   0  0  0  0  0  0  0  0  0  0  0  0
   -0.2387   -0.3361    0.0737 H   0  0  0  0  0  0  0  0  0  0  0  0
   -1.7418   -0.2214   -2.4573 H   0  0  0  0  0  0  0  0  0  0  0  0
   -1.5986   -3.5471   -1.3900 H   0  0  0  0  0  0  0  0  0  0  0  0
    1.9010   -1.4527   -0.2866 H   0  0  0  0  0  0  0  0  0  0  0  0
   -5.1810   -1.5786    0.7416 H   0  0  0  0  0  0  0  0  0  0  0  0
   -4.1008   -0.0909   -3.0621 H   0  0  0  0  0  0  0  0  0  0  0  0
   -0.2492   -5.1738   -2.5453 H   0  0  0  0  0  0  0  0  0  0  0  0
    3.2343   -3.1131   -1.4229 H   0  0  0  0  0  0  0  0  0  0  0  0
   -5.8060   -0.8073   -1.4862 H   0  0  0  0  0  0  0  0  0  0  0  0
    2.1688   -4.9719   -2.5561 H   0  0  0  0  0  0  0  0  0  0  0  0
  1  2  1  0  0  0  0 
  2  3  1  0  0  0  0 
  2  4  1  0  0  0  0 
  3  5  1  0  0  0  0 
  4  6  1  0  0  0  0 
  7  5  1  0  0  0  0 
  5  8  2  0  0  0  0 
  6  8  1  0  0  0  0 
  7  9  1  0  0  0  0 
  7 10  1  0  0  0  0 
  8 11  1  0  0  0  0 
  9 11  2  0  0  0  0 
  9 12  1  0  0  0  0 
 10 13  2  0  0  0  0 
 10 14  1  0  0  0  0 
 11 15  1  0  0  0  0 
 12 16  2  0  0  0  0 
 13 17  1  0  0  0  0 
 14 18  2  0  0  0  0 
 15 19  2  0  0  0  0 
 16 19  1  0  0  0  0 
 17 20  2  0  0  0  0 
 18 20  1  0  0  0  0 
  1 21  1  0  0  0  0 
  1 22  1  0  0  0  0 
  1 23  1  0  0  0  0 
  3 24  1  0  0  0  0 
  3 25  1  0  0  0  0 
  4 26  1  0  0  0  0 
  4 27  1  0  0  0  0 
  6 28  1  0  0  0  0 
  6 29  1  0  0  0  0 
  7 30  1  0  0  0  0 
 12 31  1  0  0  0  0 
 13 32  1  0  0  0  0 
 14 33  1  0  0  0  0 
 15 34  1  0  0  0  0 
 16 35  1  0  0  0  0 
 17 36  1  0  0  0  0 
 18 37  1  0  0  0  0 
 19 38  1  0  0  0  0 
 20 39  1  0  0  0  0 
M  END
> <cdk:Title>
phenindamine

> <Conformer>
1

> <SuperDrugID>
SD001909

$$$$
