chloralodol
  CDK     0628171802

 29 28  0  0  0  0  0  0  0  0999 V2000
    2.0826   -1.0451    0.9073 C   0  0  1  0  0  0  0  0  0  0  0  0
    1.1244   -0.2883    0.1287 O   0  0  0  0  0  0  0  0  0  0  0  0
    3.1873   -1.5865   -0.0518 C   0  0  1  0  0  0  0  0  0  0  0  0
    2.7276   -0.1894    2.0321 C   0  0  0  0  0  0  0  0  0  0  0  0
   -0.1146    0.1013    0.7616 C   0  0  1  0  0  0  0  0  0  0  0  0
    2.7327   -2.5208   -1.2256 C   0  0  2  0  0  0  0  0  0  0  0  0
   -0.9971    0.8614   -0.2623 C   0  0  2  0  0  0  0  0  0  0  0  0
   -0.8065   -1.0433    1.2640 O   0  0  0  0  0  0  0  0  0  0  0  0
    1.9790   -3.7915   -0.7346 C   0  0  0  0  0  0  0  0  0  0  0  0
    3.9641   -2.9460   -2.0794 C   0  0  0  0  0  0  0  0  0  0  0  0
    1.8523   -1.8027   -2.0926 O   0  0  0  0  0  0  0  0  0  0  0  0
   -0.1511    2.2598   -0.9197 Cl  0  0  0  0  0  0  0  0  0  0  0  0
   -2.4727    1.4668    0.4841 Cl  0  0  0  0  0  0  0  0  0  0  0  0
   -1.4588   -0.1695   -1.6145 Cl  0  0  0  0  0  0  0  0  0  0  0  0
    1.5938   -1.9025    1.3767 H   0  0  0  0  0  0  0  0  0  0  0  0
    3.7035   -0.7215   -0.4808 H   0  0  0  0  0  0  0  0  0  0  0  0
    3.9206   -2.1345    0.5479 H   0  0  0  0  0  0  0  0  0  0  0  0
    3.5245   -0.7470    2.5287 H   0  0  0  0  0  0  0  0  0  0  0  0
    1.9874    0.0665    2.7892 H   0  0  0  0  0  0  0  0  0  0  0  0
    3.1446    0.7314    1.6190 H   0  0  0  0  0  0  0  0  0  0  0  0
    0.0903    0.7715    1.5989 H   0  0  0  0  0  0  0  0  0  0  0  0
   -1.5902   -0.6907    1.7357 H   0  0  0  0  0  0  0  0  0  0  0  0
    1.7501   -4.4490   -1.5763 H   0  0  0  0  0  0  0  0  0  0  0  0
    2.5862   -4.3466   -0.0154 H   0  0  0  0  0  0  0  0  0  0  0  0
    1.0326   -3.5240   -0.2643 H   0  0  0  0  0  0  0  0  0  0  0  0
    3.6526   -3.5635   -2.9254 H   0  0  0  0  0  0  0  0  0  0  0  0
    4.6733   -3.5210   -1.4789 H   0  0  0  0  0  0  0  0  0  0  0  0
    4.4820   -2.0697   -2.4773 H   0  0  0  0  0  0  0  0  0  0  0  0
    2.3694   -1.0321   -2.4086 H   0  0  0  0  0  0  0  0  0  0  0  0
  1  2  1  0  0  0  0 
  1  3  1  0  0  0  0 
  1  4  1  0  0  0  0 
  2  5  1  0  0  0  0 
  3  6  1  0  0  0  0 
  5  7  1  0  0  0  0 
  5  8  1  0  0  0  0 
  6  9  1  0  0  0  0 
  6 10  1  0  0  0  0 
  6 11  1  0  0  0  0 
  7 12  1  0  0  0  0 
  7 13  1  0  0  0  0 
  7 14  1  0  0  0  0 
  1 15  1  0  0  0  0 
  3 16  1  0  0  0  0 
  3 17  1  0  0  0  0 
  4 18  1  0  0  0  0 
  4 19  1  0  0  0  0 
  4 20  1  0  0  0  0 
  5 21  1  0  0  0  0 
  8 22  1  0  0  0  0 
  9 23  1  0  0  0  0 
  9 24  1  0  0  0  0 
  9 25  1  0  0  0  0 
 10 26  1  0  0  0  0 
 10 27  1  0  0  0  0 
 10 28  1  0  0  0  0 
 11 29  1  0  0  0  0 
M  END
> <cdk:Title>
chloralodol

> <Conformer>
1

> <SuperDrugID>
SD000520

$$$$
