fluoxymesterone
  CDK     0628171801

 53 56  0  0  0  0  0  0  0  0999 V2000
   -2.0731   -0.7111    3.2283 F   0  0  0  0  0  0  0  0  0  0  0  0
   -3.2044   -0.5086    2.4478 C   0  0  2  0  0  0  0  0  0  0  0  0
   -4.0016   -1.8745    2.5333 C   0  0  2  0  0  0  0  0  0  0  0  0
   -2.6873   -0.1850    0.9640 C   0  0  2  0  0  0  0  0  0  0  0  0
   -3.9591    0.6742    3.1804 C   0  0  1  0  0  0  0  0  0  0  0  0
   -4.4692   -2.1558    4.0033 C   0  0  1  0  0  0  0  0  0  0  0  0
   -3.1321   -3.0304    1.9529 C   0  0  2  0  0  0  0  0  0  0  0  0
   -3.8503    0.1957   -0.0296 C   0  0  0  0  0  0  0  0  0  0  0  0
   -2.0241   -1.3952    0.3772 C   0  0  0  0  0  0  0  0  0  0  0  0
   -1.6776    1.0372    1.0161 C   0  0  1  0  0  0  0  0  0  0  0  0
   -5.0195    1.2307    2.4095 O   0  0  0  0  0  0  0  0  0  0  0  0
   -4.5054    0.2935    4.5937 C   0  0  1  0  0  0  0  0  0  0  0  0
   -5.3634   -1.0227    4.6048 C   0  0  1  0  0  0  0  0  0  0  0  0
   -5.2471   -3.4478    4.3272 C   0  0  1  0  0  0  0  0  0  0  0  0
   -2.6795   -2.7085    0.5099 C   0  0  2  0  0  0  0  0  0  0  0  0
   -0.8805   -1.3108   -0.3429 C   0  0  0  0  0  0  0  0  0  0  0  0
   -0.8210    1.1858   -0.2621 C   0  0  1  0  0  0  0  0  0  0  0  0
   -6.7166   -0.7814    3.8166 C   0  0  0  0  0  0  0  0  0  0  0  0
   -5.7143   -1.6352    6.0199 C   0  0  1  0  0  0  0  0  0  0  0  0
   -5.8896   -3.1612    5.7098 C   0  0  2  0  0  0  0  0  0  0  0  0
   -0.2428   -0.1178   -0.6436 C   0  0  0  0  0  0  0  0  0  0  0  0
   -4.6724   -1.3990    7.1601 C   0  0  0  0  0  0  0  0  0  0  0  0
   -6.9333   -1.0967    6.5501 O   0  0  0  0  0  0  0  0  0  0  0  0
    0.8254   -0.1352   -1.3001 O   0  0  0  0  0  0  0  0  0  0  0  0
   -4.8923   -1.8253    1.9087 H   0  0  0  0  0  0  0  0  0  0  0  0
   -3.2553    1.4978    3.3273 H   0  0  0  0  0  0  0  0  0  0  0  0
   -3.5473   -2.2327    4.5920 H   0  0  0  0  0  0  0  0  0  0  0  0
   -3.7081   -3.9601    1.9380 H   0  0  0  0  0  0  0  0  0  0  0  0
   -2.2505   -3.2004    2.5786 H   0  0  0  0  0  0  0  0  0  0  0  0
   -4.7111   -0.4622    0.0761 H   0  0  0  0  0  0  0  0  0  0  0  0
   -4.1979    1.2163    0.1225 H   0  0  0  0  0  0  0  0  0  0  0  0
   -3.5271    0.1397   -1.0709 H   0  0  0  0  0  0  0  0  0  0  0  0
   -2.2047    1.9778    1.1927 H   0  0  0  0  0  0  0  0  0  0  0  0
   -0.9698    0.9183    1.8409 H   0  0  0  0  0  0  0  0  0  0  0  0
   -5.3383    2.0085    2.9141 H   0  0  0  0  0  0  0  0  0  0  0  0
   -3.6324    0.1777    5.2399 H   0  0  0  0  0  0  0  0  0  0  0  0
   -5.0856    1.1254    5.0035 H   0  0  0  0  0  0  0  0  0  0  0  0
   -6.0140   -3.6382    3.5708 H   0  0  0  0  0  0  0  0  0  0  0  0
   -4.5831   -4.3159    4.3757 H   0  0  0  0  0  0  0  0  0  0  0  0
   -3.5588   -2.7171   -0.1395 H   0  0  0  0  0  0  0  0  0  0  0  0
   -2.0431   -3.5356    0.1781 H   0  0  0  0  0  0  0  0  0  0  0  0
   -0.4718   -2.1404   -0.7122 H   0  0  0  0  0  0  0  0  0  0  0  0
   -1.4333    1.5571   -1.0861 H   0  0  0  0  0  0  0  0  0  0  0  0
   -0.0233    1.9108   -0.0784 H   0  0  0  0  0  0  0  0  0  0  0  0
   -7.2298    0.1016    4.2026 H   0  0  0  0  0  0  0  0  0  0  0  0
   -7.4042   -1.6221    3.9144 H   0  0  0  0  0  0  0  0  0  0  0  0
   -6.5727   -0.6318    2.7512 H   0  0  0  0  0  0  0  0  0  0  0  0
   -5.4272   -3.7878    6.4750 H   0  0  0  0  0  0  0  0  0  0  0  0
   -6.9489   -3.4271    5.6749 H   0  0  0  0  0  0  0  0  0  0  0  0
   -4.9845   -1.9115    8.0734 H   0  0  0  0  0  0  0  0  0  0  0  0
   -3.6860   -1.7737    6.8909 H   0  0  0  0  0  0  0  0  0  0  0  0
   -4.5863   -0.3340    7.3869 H   0  0  0  0  0  0  0  0  0  0  0  0
   -7.0969   -1.5882    7.3837 H   0  0  0  0  0  0  0  0  0  0  0  0
  2  1  1  0  0  0  0 
  2  3  1  0  0  0  0 
  2  4  1  0  0  0  0 
  2  5  1  0  0  0  0 
  3  6  1  0  0  0  0 
  3  7  1  0  0  0  0 
  4  8  1  0  0  0  0 
  4  9  1  0  0  0  0 
  4 10  1  0  0  0  0 
  5 11  1  0  0  0  0 
  5 12  1  0  0  0  0 
  6 13  1  0  0  0  0 
  6 14  1  0  0  0  0 
  7 15  1  0  0  0  0 
  9 15  1  0  0  0  0 
  9 16  2  0  0  0  0 
 10 17  1  0  0  0  0 
 13 12  1  0  0  0  0 
 13 18  1  0  0  0  0 
 13 19  1  0  0  0  0 
 14 20  1  0  0  0  0 
 16 21  1  0  0  0  0 
 17 21  1  0  0  0  0 
 19 20  1  0  0  0  0 
 19 22  1  0  0  0  0 
 19 23  1  0  0  0  0 
 21 24  2  0  0  0  0 
  3 25  1  0  0  0  0 
  5 26  1  0  0  0  0 
  6 27  1  0  0  0  0 
 28  7  1  0  0  0  0 
 29  7  1  0  0  0  0 
 30  8  1  0  0  0  0 
 31  8  1  0  0  0  0 
 32  8  1  0  0  0  0 
 33 10  1  0  0  0  0 
 34 10  1  0  0  0  0 
 35 11  1  0  0  0  0 
 36 12  1  0  0  0  0 
 37 12  1  0  0  0  0 
 38 14  1  0  0  0  0 
 39 14  1  0  0  0  0 
 40 15  1  0  0  0  0 
 41 15  1  0  0  0  0 
 42 16  1  0  0  0  0 
 43 17  1  0  0  0  0 
 44 17  1  0  0  0  0 
 45 18  1  0  0  0  0 
 46 18  1  0  0  0  0 
 47 18  1  0  0  0  0 
 48 20  1  0  0  0  0 
 49 20  1  0  0  0  0 
 50 22  1  0  0  0  0 
 51 22  1  0  0  0  0 
 52 22  1  0  0  0  0 
 53 23  1  0  0  0  0 
M  END
> <cdk:Title>
fluoxymesterone

> <Conformer>
1

> <SuperDrugID>
SD001083

$$$$
