gepirone
  CDK     0628171801

 55 57  0  0  0  0  0  0  0  0999 V2000
   -2.9321    2.1571    1.5677 C   0  0  1  0  0  0  0  0  0  0  0  0
   -4.0744    1.2254    1.0719 C   0  0  1  0  0  0  0  0  0  0  0  0
   -2.9248    3.5078    0.9110 N   0  0  1  0  0  0  0  0  0  0  0  0
   -5.4746    1.9011    1.1229 C   0  0  2  0  0  0  0  0  0  0  0  0
   -2.2310    4.5592    1.7219 C   0  0  2  0  0  0  0  0  0  0  0  0
   -2.4696    3.4774   -0.5155 C   0  0  1  0  0  0  0  0  0  0  0  0
   -6.6121    1.0248    0.5292 C   0  0  2  0  0  0  0  0  0  0  0  0
   -2.2700    5.9423    1.0210 C   0  0  2  0  0  0  0  0  0  0  0  0
   -2.5396    4.8814   -1.1585 C   0  0  2  0  0  0  0  0  0  0  0  0
   -7.8904    1.7305    0.5298 N   0  0  0  0  0  0  0  0  0  0  0  0
   -1.7743    5.7927   -0.3328 N   0  0  0  0  0  0  0  0  0  0  0  0
   -8.1870    2.6277   -0.4899 C   0  0  0  0  0  0  0  0  0  0  0  0
   -8.8018    1.5408    1.5596 C   0  0  0  0  0  0  0  0  0  0  0  0
   -0.6145    6.3998   -0.7779 C   0  0  0  0  0  0  0  0  0  0  0  0
   -7.3604    2.8695   -1.4041 O   0  0  0  0  0  0  0  0  0  0  0  0
   -9.4606    3.3905   -0.5670 C   0  0  1  0  0  0  0  0  0  0  0  0
   -8.5779    0.7340    2.4947 O   0  0  0  0  0  0  0  0  0  0  0  0
  -10.0632    2.3163    1.6685 C   0  0  2  0  0  0  0  0  0  0  0  0
    0.0867    7.2747    0.0000 N   0  0  0  0  0  0  0  0  0  0  0  0
   -0.1070    6.1194   -2.0118 N   0  0  0  0  0  0  0  0  0  0  0  0
  -10.6292    2.7893    0.2883 C   0  0  2  0  0  0  0  0  0  0  0  0
    1.2442    7.8553   -0.4060 C   0  0  0  0  0  0  0  0  0  0  0  0
    1.0425    6.6620   -2.4815 C   0  0  0  0  0  0  0  0  0  0  0  0
    1.7615    7.5606   -1.6777 C   0  0  0  0  0  0  0  0  0  0  0  0
  -11.2959    1.5900   -0.4648 C   0  0  0  0  0  0  0  0  0  0  0  0
  -11.7362    3.8745    0.5164 C   0  0  0  0  0  0  0  0  0  0  0  0
   -3.0488    2.2642    2.6504 H   0  0  0  0  0  0  0  0  0  0  0  0
   -1.9729    1.6567    1.4065 H   0  0  0  0  0  0  0  0  0  0  0  0
   -3.8587    0.9047    0.0500 H   0  0  0  0  0  0  0  0  0  0  0  0
   -4.0834    0.3248    1.6955 H   0  0  0  0  0  0  0  0  0  0  0  0
   -5.4415    2.8425    0.5685 H   0  0  0  0  0  0  0  0  0  0  0  0
   -5.7058    2.1394    2.1648 H   0  0  0  0  0  0  0  0  0  0  0  0
   -1.1899    4.2711    1.8958 H   0  0  0  0  0  0  0  0  0  0  0  0
   -2.7192    4.6563    2.6949 H   0  0  0  0  0  0  0  0  0  0  0  0
   -1.4393    3.1118   -0.5675 H   0  0  0  0  0  0  0  0  0  0  0  0
   -3.1002    2.8123   -1.1083 H   0  0  0  0  0  0  0  0  0  0  0  0
   -6.6599    0.0933    1.0993 H   0  0  0  0  0  0  0  0  0  0  0  0
   -6.3441    0.7297   -0.4900 H   0  0  0  0  0  0  0  0  0  0  0  0
   -1.7002    6.6528    1.6233 H   0  0  0  0  0  0  0  0  0  0  0  0
   -3.2990    6.3148    0.9940 H   0  0  0  0  0  0  0  0  0  0  0  0
   -3.5789    5.2165   -1.2109 H   0  0  0  0  0  0  0  0  0  0  0  0
   -2.1868    4.8068   -2.1894 H   0  0  0  0  0  0  0  0  0  0  0  0
   -9.2386    4.4098   -0.2428 H   0  0  0  0  0  0  0  0  0  0  0  0
   -9.7741    3.4555   -1.6128 H   0  0  0  0  0  0  0  0  0  0  0  0
   -9.8461    3.1809    2.2995 H   0  0  0  0  0  0  0  0  0  0  0  0
  -10.8172    1.7227    2.1933 H   0  0  0  0  0  0  0  0  0  0  0  0
    1.7337    8.4970    0.2177 H   0  0  0  0  0  0  0  0  0  0  0  0
    1.3768    6.4088   -3.4109 H   0  0  0  0  0  0  0  0  0  0  0  0
    2.6293    7.9866   -2.0090 H   0  0  0  0  0  0  0  0  0  0  0  0
  -10.5694    0.8020   -0.6650 H   0  0  0  0  0  0  0  0  0  0  0  0
  -12.1098    1.1626    0.1264 H   0  0  0  0  0  0  0  0  0  0  0  0
  -11.7163    1.9159   -1.4198 H   0  0  0  0  0  0  0  0  0  0  0  0
  -12.1406    4.2273   -0.4359 H   0  0  0  0  0  0  0  0  0  0  0  0
  -11.3346    4.7403    1.0491 H   0  0  0  0  0  0  0  0  0  0  0  0
  -12.5619    3.4718    1.1093 H   0  0  0  0  0  0  0  0  0  0  0  0
  1  2  1  0  0  0  0 
  1  3  1  0  0  0  0 
  2  4  1  0  0  0  0 
  3  5  1  0  0  0  0 
  3  6  1  0  0  0  0 
  4  7  1  0  0  0  0 
  5  8  1  0  0  0  0 
  6  9  1  0  0  0  0 
  7 10  1  0  0  0  0 
  8 11  1  0  0  0  0 
  9 11  1  0  0  0  0 
 10 12  1  0  0  0  0 
 10 13  1  0  0  0  0 
 11 14  1  0  0  0  0 
 12 15  2  0  0  0  0 
 12 16  1  0  0  0  0 
 13 17  2  0  0  0  0 
 13 18  1  0  0  0  0 
 14 19  2  0  0  0  0 
 14 20  1  0  0  0  0 
 16 21  1  0  0  0  0 
 18 21  1  0  0  0  0 
 19 22  1  0  0  0  0 
 20 23  2  0  0  0  0 
 22 24  2  0  0  0  0 
 23 24  1  0  0  0  0 
 21 25  1  0  0  0  0 
 21 26  1  0  0  0  0 
  1 27  1  0  0  0  0 
  1 28  1  0  0  0  0 
  2 29  1  0  0  0  0 
  2 30  1  0  0  0  0 
  4 31  1  0  0  0  0 
  4 32  1  0  0  0  0 
  5 33  1  0  0  0  0 
  5 34  1  0  0  0  0 
  6 35  1  0  0  0  0 
  6 36  1  0  0  0  0 
  7 37  1  0  0  0  0 
  7 38  1  0  0  0  0 
  8 39  1  0  0  0  0 
  8 40  1  0  0  0  0 
  9 41  1  0  0  0  0 
  9 42  1  0  0  0  0 
 16 43  1  0  0  0  0 
 16 44  1  0  0  0  0 
 18 45  1  0  0  0  0 
 18 46  1  0  0  0  0 
 22 47  1  0  0  0  0 
 23 48  1  0  0  0  0 
 24 49  1  0  0  0  0 
 25 50  1  0  0  0  0 
 25 51  1  0  0  0  0 
 25 52  1  0  0  0  0 
 26 53  1  0  0  0  0 
 26 54  1  0  0  0  0 
 26 55  1  0  0  0  0 
M  END
> <cdk:Title>
gepirone

> <Conformer>
1

> <SuperDrugID>
SD003621

$$$$
