bucloxic acid
  CDK     0628171801

 39 40  0  0  0  0  0  0  0  0999 V2000
   -0.9376   -0.0845   -4.5605 Cl  0  0  0  0  0  0  0  0  0  0  0  0
   -0.4732   -1.4978   -3.7373 C   0  0  0  0  0  0  0  0  0  0  0  0
   -0.7203   -2.8074   -4.2322 C   0  0  0  0  0  0  0  0  0  0  0  0
    0.1636   -1.3090   -2.4952 C   0  0  0  0  0  0  0  0  0  0  0  0
   -0.3397   -3.8937   -3.4059 C   0  0  0  0  0  0  0  0  0  0  0  0
   -1.4011   -3.0362   -5.5558 C   0  0  2  0  0  0  0  0  0  0  0  0
    0.5806   -2.3941   -1.6853 C   0  0  0  0  0  0  0  0  0  0  0  0
    0.3098   -3.6954   -2.1754 C   0  0  0  0  0  0  0  0  0  0  0  0
   -2.9447   -3.1248   -5.3651 C   0  0  1  0  0  0  0  0  0  0  0  0
   -0.8657   -4.2324   -6.4046 C   0  0  2  0  0  0  0  0  0  0  0  0
    1.2363   -2.1977   -0.4231 C   0  0  0  0  0  0  0  0  0  0  0  0
   -3.6879   -3.2620   -6.7205 C   0  0  2  0  0  0  0  0  0  0  0  0
   -1.6116   -4.3484   -7.7618 C   0  0  2  0  0  0  0  0  0  0  0  0
    1.4340   -0.8504    0.1886 C   0  0  1  0  0  0  0  0  0  0  0  0
    1.6537   -3.1992    0.2088 O   0  0  0  0  0  0  0  0  0  0  0  0
   -3.1447   -4.4519   -7.5529 C   0  0  2  0  0  0  0  0  0  0  0  0
    2.1636   -0.8234    1.5593 C   0  0  2  0  0  0  0  0  0  0  0  0
    2.2439    0.5340    2.1328 C   0  0  0  0  0  0  0  0  0  0  0  0
    1.1140    1.1872    2.4979 O   0  0  0  0  0  0  0  0  0  0  0  0
    3.3503    1.0921    2.3127 O   0  0  0  0  0  0  0  0  0  0  0  0
    0.3181   -0.3485   -2.1848 H   0  0  0  0  0  0  0  0  0  0  0  0
   -0.5342   -4.8573   -3.6855 H   0  0  0  0  0  0  0  0  0  0  0  0
   -1.2115   -2.1683   -6.1897 H   0  0  0  0  0  0  0  0  0  0  0  0
    0.5779   -4.5247   -1.6354 H   0  0  0  0  0  0  0  0  0  0  0  0
   -3.1942   -3.9822   -4.7322 H   0  0  0  0  0  0  0  0  0  0  0  0
   -3.3080   -2.2210   -4.8668 H   0  0  0  0  0  0  0  0  0  0  0  0
   -0.9935   -5.1779   -5.8728 H   0  0  0  0  0  0  0  0  0  0  0  0
    0.2009   -4.0936   -6.5976 H   0  0  0  0  0  0  0  0  0  0  0  0
   -3.5724   -2.3361   -7.2928 H   0  0  0  0  0  0  0  0  0  0  0  0
   -4.7549   -3.4090   -6.5319 H   0  0  0  0  0  0  0  0  0  0  0  0
   -1.2613   -5.2375   -8.2901 H   0  0  0  0  0  0  0  0  0  0  0  0
   -1.3850   -3.4777   -8.3848 H   0  0  0  0  0  0  0  0  0  0  0  0
    2.0152   -0.2372   -0.5068 H   0  0  0  0  0  0  0  0  0  0  0  0
    0.4456   -0.3955    0.3084 H   0  0  0  0  0  0  0  0  0  0  0  0
   -3.6435   -4.4704   -8.5259 H   0  0  0  0  0  0  0  0  0  0  0  0
   -3.3784   -5.3893   -7.0382 H   0  0  0  0  0  0  0  0  0  0  0  0
    3.1735   -1.2234    1.4243 H   0  0  0  0  0  0  0  0  0  0  0  0
    1.6361   -1.4624    2.2710 H   0  0  0  0  0  0  0  0  0  0  0  0
    1.1676    2.0821    2.8936 H   0  0  0  0  0  0  0  0  0  0  0  0
  1  2  1  0  0  0  0 
  2  3  2  0  0  0  0 
  2  4  1  0  0  0  0 
  3  5  1  0  0  0  0 
  3  6  1  0  0  0  0 
  4  7  2  0  0  0  0 
  5  8  2  0  0  0  0 
  6  9  1  0  0  0  0 
  6 10  1  0  0  0  0 
  7  8  1  0  0  0  0 
  7 11  1  0  0  0  0 
  9 12  1  0  0  0  0 
 10 13  1  0  0  0  0 
 11 14  1  0  0  0  0 
 11 15  2  0  0  0  0 
 12 16  1  0  0  0  0 
 13 16  1  0  0  0  0 
 14 17  1  0  0  0  0 
 17 18  1  0  0  0  0 
 18 19  1  0  0  0  0 
 18 20  2  0  0  0  0 
 21  4  1  0  0  0  0 
 22  5  1  0  0  0  0 
 23  6  1  0  0  0  0 
 24  8  1  0  0  0  0 
 25  9  1  0  0  0  0 
 26  9  1  0  0  0  0 
 27 10  1  0  0  0  0 
 28 10  1  0  0  0  0 
 29 12  1  0  0  0  0 
 30 12  1  0  0  0  0 
 31 13  1  0  0  0  0 
 32 13  1  0  0  0  0 
 33 14  1  0  0  0  0 
 34 14  1  0  0  0  0 
 35 16  1  0  0  0  0 
 36 16  1  0  0  0  0 
 37 17  1  0  0  0  0 
 38 17  1  0  0  0  0 
 39 19  1  0  0  0  0 
M  END
> <cdk:Title>
bucloxic acid

> <Conformer>
1

> <SuperDrugID>
SD000359

$$$$
