bucladesine
  CDK     0628171801

 56 59  0  0  0  0  0  0  0  0999 V2000
    2.8048    1.4567   -0.1253 O   0  0  0  0  0  0  0  0  0  0  0  0
    1.7422    1.7641   -0.9269 C   0  0  0  0  0  0  0  0  0  0  0  0
    3.1133    2.0338    1.1545 C   0  0  1  0  0  0  0  0  0  0  0  0
    1.5979    1.0798   -2.2266 C   0  0  2  0  0  0  0  0  0  0  0  0
    0.8853    2.6071   -0.5701 O   0  0  0  0  0  0  0  0  0  0  0  0
    2.0570    1.7027    2.2584 C   0  0  1  0  0  0  0  0  0  0  0  0
    4.4033    1.4281    1.7409 C   0  0  1  0  0  0  0  0  0  0  0  0
    1.4548    2.0751   -3.4115 C   0  0  1  0  0  0  0  0  0  0  0  0
    2.7627    1.0725    3.3492 O   0  0  0  0  0  0  0  0  0  0  0  0
    1.3044    2.8491    2.6953 N   0  0  0  0  0  0  0  0  0  0  0  0
    3.8311    0.3722    2.7032 C   0  0  2  0  0  0  0  0  0  0  0  0
    5.3324    0.8297    0.8089 O   0  0  0  0  0  0  0  0  0  0  0  0
    1.5964    1.3832   -4.7865 C   0  0  0  0  0  0  0  0  0  0  0  0
    1.7553    3.9484    3.3271 C   0  0  0  0  0  0  0  0  0  0  0  0
   -0.0232    3.0463    2.5138 C   0  0  0  0  0  0  0  0  0  0  0  0
    4.9938   -0.1567    3.5781 C   0  0  1  0  0  0  0  0  0  0  0  0
    6.5708    0.1378    1.5617 P   0  0  1  0  0  0  0  0  0  0  0  0
    0.6777    4.8169    3.4708 C   0  0  0  0  0  0  0  0  0  0  0  0
    2.9902    4.2894    3.7763 N   0  0  0  0  0  0  0  0  0  0  0  0
   -0.4246    4.2454    2.9719 N   0  0  0  0  0  0  0  0  0  0  0  0
    6.0063   -0.7808    2.7511 O   0  0  0  0  0  0  0  0  0  0  0  0
    7.3369   -0.6812    0.6182 O   0  0  0  0  0  0  0  0  0  0  0  0
    7.4932    1.2630    2.1828 O   0  0  0  0  0  0  0  0  0  0  0  0
    0.8693    6.0786    4.0578 C   0  0  0  0  0  0  0  0  0  0  0  0
    3.1722    5.4997    4.3718 C   0  0  0  0  0  0  0  0  0  0  0  0
   -0.1939    6.9246    4.1366 N   0  0  0  0  0  0  0  0  0  0  0  0
    2.1293    6.3699    4.4992 N   0  0  0  0  0  0  0  0  0  0  0  0
   -0.2123    8.1959    4.6249 C   0  0  0  0  0  0  0  0  0  0  0  0
   -1.4857    8.9474    4.6404 C   0  0  1  0  0  0  0  0  0  0  0  0
    0.8154    8.7590    5.0722 O   0  0  0  0  0  0  0  0  0  0  0  0
   -2.0301    9.1057    6.0845 C   0  0  1  0  0  0  0  0  0  0  0  0
   -3.3963    9.8257    6.1333 C   0  0  0  0  0  0  0  0  0  0  0  0
    4.9010    2.2286    2.3085 H   0  0  0  0  0  0  0  0  0  0  0  0
    3.4334   -0.4866    2.1442 H   0  0  0  0  0  0  0  0  0  0  0  0
    3.2431    3.1123    1.0246 H   0  0  0  0  0  0  0  0  0  0  0  0
    0.7093    0.4437   -2.1844 H   0  0  0  0  0  0  0  0  0  0  0  0
    2.4653    0.4339   -2.3901 H   0  0  0  0  0  0  0  0  0  0  0  0
    1.3589    0.9525    1.8636 H   0  0  0  0  0  0  0  0  0  0  0  0
    0.4678    2.5468   -3.3603 H   0  0  0  0  0  0  0  0  0  0  0  0
    2.2157    2.8611   -3.3401 H   0  0  0  0  0  0  0  0  0  0  0  0
    0.9156    0.5307   -4.8580 H   0  0  0  0  0  0  0  0  0  0  0  0
    2.6235    1.0365   -4.9272 H   0  0  0  0  0  0  0  0  0  0  0  0
    1.3552    2.0919   -5.5833 H   0  0  0  0  0  0  0  0  0  0  0  0
   -0.6574    2.3803    2.0678 H   0  0  0  0  0  0  0  0  0  0  0  0
    5.4270    0.6430    4.1863 H   0  0  0  0  0  0  0  0  0  0  0  0
    4.6062   -0.9155    4.2606 H   0  0  0  0  0  0  0  0  0  0  0  0
    7.7820    1.7979    1.4143 H   0  0  0  0  0  0  0  0  0  0  0  0
    4.0956    5.7602    4.7200 H   0  0  0  0  0  0  0  0  0  0  0  0
   -1.0396    6.5819    3.8031 H   0  0  0  0  0  0  0  0  0  0  0  0
   -1.3228    9.9323    4.1933 H   0  0  0  0  0  0  0  0  0  0  0  0
   -2.2343    8.4289    4.0330 H   0  0  0  0  0  0  0  0  0  0  0  0
   -2.1460    8.1144    6.5329 H   0  0  0  0  0  0  0  0  0  0  0  0
   -1.3155    9.6704    6.6907 H   0  0  0  0  0  0  0  0  0  0  0  0
   -3.7303    9.9118    7.1695 H   0  0  0  0  0  0  0  0  0  0  0  0
   -3.3182   10.8280    5.7064 H   0  0  0  0  0  0  0  0  0  0  0  0
   -4.1397    9.2553    5.5728 H   0  0  0  0  0  0  0  0  0  0  0  0
  1  2  1  0  0  0  0 
  2  4  1  0  0  0  0 
  2  5  2  0  0  0  0 
  3  1  1  0  0  0  0 
  3  6  1  0  0  0  0 
  7  3  1  0  0  0  0 
  4  8  1  0  0  0  0 
  6  9  1  0  0  0  0 
  6 10  1  0  0  0  0 
 11  7  1  0  0  0  0 
  7 12  1  0  0  0  0 
  7 33  1  0  0  0  0 
  8 13  1  0  0  0  0 
 11  9  1  0  0  0  0 
 10 14  1  0  0  0  0 
 10 15  1  0  0  0  0 
 11 16  1  0  0  0  0 
 11 34  1  0  0  0  0 
 12 17  1  0  0  0  0 
 14 18  1  0  0  0  0 
 14 19  2  0  0  0  0 
 15 20  2  0  0  0  0 
 16 21  1  0  0  0  0 
 17 21  1  0  0  0  0 
 17 22  2  0  0  0  0 
 17 23  1  0  0  0  0 
 18 20  1  0  0  0  0 
 18 24  2  0  0  0  0 
 19 25  1  0  0  0  0 
 24 26  1  0  0  0  0 
 24 27  1  0  0  0  0 
 25 27  2  0  0  0  0 
 26 28  1  0  0  0  0 
 28 29  1  0  0  0  0 
 28 30  2  0  0  0  0 
 29 31  1  0  0  0  0 
 31 32  1  0  0  0  0 
  3 35  1  0  0  0  0 
  4 36  1  0  0  0  0 
  4 37  1  0  0  0  0 
  6 38  1  0  0  0  0 
  8 39  1  0  0  0  0 
  8 40  1  0  0  0  0 
 13 41  1  0  0  0  0 
 13 42  1  0  0  0  0 
 13 43  1  0  0  0  0 
 15 44  1  0  0  0  0 
 16 45  1  0  0  0  0 
 16 46  1  0  0  0  0 
 23 47  1  0  0  0  0 
 25 48  1  0  0  0  0 
 26 49  1  0  0  0  0 
 29 50  1  0  0  0  0 
 29 51  1  0  0  0  0 
 31 52  1  0  0  0  0 
 31 53  1  0  0  0  0 
 32 54  1  0  0  0  0 
 32 55  1  0  0  0  0 
 32 56  1  0  0  0  0 
M  END
> <cdk:Title>
bucladesine

> <Conformer>
1

> <SuperDrugID>
SD000357

$$$$
