fosphenytoin
  CDK     0628171801

 40 42  0  0  0  0  0  0  0  0999 V2000
    3.1773   -0.4076   -3.7506 O   0  0  0  0  0  0  0  0  0  0  0  0
    3.8118   -0.1974   -2.6882 C   0  0  0  0  0  0  0  0  0  0  0  0
    5.2597   -0.4863   -2.5351 C   0  0  2  0  0  0  0  0  0  0  0  0
    3.2690    0.3194   -1.5574 N   0  0  0  0  0  0  0  0  0  0  0  0
    5.3797   -0.1234   -1.1588 N   0  0  0  0  0  0  0  0  0  0  0  0
    6.2022    0.4291   -3.2757 C   0  0  0  0  0  0  0  0  0  0  0  0
    5.4810   -1.9552   -2.7972 C   0  0  0  0  0  0  0  0  0  0  0  0
    1.9149    0.7627   -1.3700 C   0  0  2  0  0  0  0  0  0  0  0  0
    4.2455    0.3557   -0.6308 C   0  0  0  0  0  0  0  0  0  0  0  0
    5.7748    1.4040   -4.2152 C   0  0  0  0  0  0  0  0  0  0  0  0
    7.5951    0.3228   -3.0278 C   0  0  0  0  0  0  0  0  0  0  0  0
    5.8897   -2.4138   -4.0784 C   0  0  0  0  0  0  0  0  0  0  0  0
    5.2343   -2.9346   -1.7981 C   0  0  0  0  0  0  0  0  0  0  0  0
    1.3306    0.0769   -0.2444 O   0  0  0  0  0  0  0  0  0  0  0  0
    4.1437    0.7588    0.5509 O   0  0  0  0  0  0  0  0  0  0  0  0
    6.6995    2.2491   -4.8549 C   0  0  0  0  0  0  0  0  0  0  0  0
    8.5204    1.1682   -3.6649 C   0  0  0  0  0  0  0  0  0  0  0  0
    6.0426   -3.7847   -4.3498 C   0  0  0  0  0  0  0  0  0  0  0  0
    5.3749   -4.3074   -2.0719 C   0  0  0  0  0  0  0  0  0  0  0  0
   -0.2312    0.3379   -0.0291 P   0  0  2  0  0  0  0  0  0  0  0  0
    8.0712    2.1379   -4.5754 C   0  0  0  0  0  0  0  0  0  0  0  0
    5.7739   -4.7320   -3.3498 C   0  0  0  0  0  0  0  0  0  0  0  0
   -1.0212   -0.4540   -0.9770 O   0  0  0  0  0  0  0  0  0  0  0  0
   -0.5580    1.8794   -0.1840 O   0  0  0  0  0  0  0  0  0  0  0  0
   -0.5812   -0.0813    1.4560 O   0  0  0  0  0  0  0  0  0  0  0  0
    6.2086   -0.2089   -0.6595 H   0  0  0  0  0  0  0  0  0  0  0  0
    1.3331    0.5856   -2.2828 H   0  0  0  0  0  0  0  0  0  0  0  0
    1.9372    1.8432   -1.1798 H   0  0  0  0  0  0  0  0  0  0  0  0
    4.7863    1.5155   -4.4478 H   0  0  0  0  0  0  0  0  0  0  0  0
    7.9461   -0.3802   -2.3736 H   0  0  0  0  0  0  0  0  0  0  0  0
    6.0762   -1.7518   -4.8354 H   0  0  0  0  0  0  0  0  0  0  0  0
    4.9363   -2.6585   -0.8594 H   0  0  0  0  0  0  0  0  0  0  0  0
    6.3734    2.9472   -5.5257 H   0  0  0  0  0  0  0  0  0  0  0  0
    9.5183    1.0770   -3.4653 H   0  0  0  0  0  0  0  0  0  0  0  0
    6.3441   -4.0932   -5.2763 H   0  0  0  0  0  0  0  0  0  0  0  0
    5.1816   -4.9957   -1.3412 H   0  0  0  0  0  0  0  0  0  0  0  0
    8.7406    2.7571   -5.0350 H   0  0  0  0  0  0  0  0  0  0  0  0
    5.8690   -5.7285   -3.5521 H   0  0  0  0  0  0  0  0  0  0  0  0
   -1.5295    1.9419   -0.0619 H   0  0  0  0  0  0  0  0  0  0  0  0
   -0.0630    0.5411    2.0096 H   0  0  0  0  0  0  0  0  0  0  0  0
  1  2  2  0  0  0  0 
  2  3  1  0  0  0  0 
  2  4  1  0  0  0  0 
  3  5  1  0  0  0  0 
  3  6  1  0  0  0  0 
  3  7  1  0  0  0  0 
  4  8  1  0  0  0  0 
  4  9  1  0  0  0  0 
  5  9  1  0  0  0  0 
  6 10  2  0  0  0  0 
  6 11  1  0  0  0  0 
  7 12  2  0  0  0  0 
  7 13  1  0  0  0  0 
  8 14  1  0  0  0  0 
  9 15  2  0  0  0  0 
 10 16  1  0  0  0  0 
 11 17  2  0  0  0  0 
 12 18  1  0  0  0  0 
 13 19  2  0  0  0  0 
 14 20  1  0  0  0  0 
 16 21  2  0  0  0  0 
 17 21  1  0  0  0  0 
 18 22  2  0  0  0  0 
 19 22  1  0  0  0  0 
 20 23  2  0  0  0  0 
 20 24  1  0  0  0  0 
 20 25  1  0  0  0  0 
  5 26  1  0  0  0  0 
  8 27  1  0  0  0  0 
  8 28  1  0  0  0  0 
 10 29  1  0  0  0  0 
 11 30  1  0  0  0  0 
 12 31  1  0  0  0  0 
 13 32  1  0  0  0  0 
 16 33  1  0  0  0  0 
 17 34  1  0  0  0  0 
 18 35  1  0  0  0  0 
 19 36  1  0  0  0  0 
 21 37  1  0  0  0  0 
 22 38  1  0  0  0  0 
 24 39  1  0  0  0  0 
 25 40  1  0  0  0  0 
M  END
> <cdk:Title>
fosphenytoin

> <Conformer>
1

> <SuperDrugID>
SD001119

$$$$
