teclozan
  CDK     0628171801

 58 58  0  0  0  0  0  0  0  0999 V2000
    3.3153    2.7720   -6.0876 N   0  0  0  0  0  0  0  0  0  0  0  0
    3.8910    3.0795   -4.7784 C   0  0  1  0  0  0  0  0  0  0  0  0
    3.2762    3.8706   -7.0445 C   0  0  2  0  0  0  0  0  0  0  0  0
    2.9469    1.4647   -6.4333 C   0  0  0  0  0  0  0  0  0  0  0  0
    3.2971    2.4124   -3.5790 C   0  0  0  0  0  0  0  0  0  0  0  0
    4.6803    4.1306   -7.6494 C   0  0  1  0  0  0  0  0  0  0  0  0
    2.1951    1.0246   -7.6441 C   0  0  1  0  0  0  0  0  0  0  0  0
    3.2533    0.5202   -5.6648 O   0  0  0  0  0  0  0  0  0  0  0  0
    1.9160    2.4988   -3.2900 C   0  0  0  0  0  0  0  0  0  0  0  0
    4.1162    1.6727   -2.6959 C   0  0  0  0  0  0  0  0  0  0  0  0
    4.5755    4.9627   -8.8208 O   0  0  0  0  0  0  0  0  0  0  0  0
    0.5986    1.7648   -7.6942 Cl  0  0  0  0  0  0  0  0  0  0  0  0
    3.0632    1.2846   -9.1557 Cl  0  0  0  0  0  0  0  0  0  0  0  0
    1.3715    1.8530   -2.1612 C   0  0  0  0  0  0  0  0  0  0  0  0
    3.5784    1.0371   -1.5637 C   0  0  0  0  0  0  0  0  0  0  0  0
    5.8292    5.1825   -9.4966 C   0  0  2  0  0  0  0  0  0  0  0  0
    2.1973    1.1178   -1.2748 C   0  0  0  0  0  0  0  0  0  0  0  0
    5.5839    6.0304  -10.7574 C   0  0  0  0  0  0  0  0  0  0  0  0
    1.6327    0.4025   -0.0943 C   0  0  1  0  0  0  0  0  0  0  0  0
    2.2380    0.6535    1.2140 N   0  0  0  0  0  0  0  0  0  0  0  0
    2.6914   -0.5218    1.9623 C   0  0  2  0  0  0  0  0  0  0  0  0
    2.3348    1.9204    1.8155 C   0  0  0  0  0  0  0  0  0  0  0  0
    4.1417   -0.9260    1.6105 C   0  0  1  0  0  0  0  0  0  0  0  0
    1.7857    3.2259    1.3431 C   0  0  2  0  0  0  0  0  0  0  0  0
    2.9471    2.0239    2.9091 O   0  0  0  0  0  0  0  0  0  0  0  0
    4.5734   -1.9839    2.4865 O   0  0  0  0  0  0  0  0  0  0  0  0
    0.0848    3.1728    0.9013 Cl  0  0  0  0  0  0  0  0  0  0  0  0
    2.7475    3.9746    0.0751 Cl  0  0  0  0  0  0  0  0  0  0  0  0
    5.8726   -2.5292    2.1844 C   0  0  2  0  0  0  0  0  0  0  0  0
    6.2442   -3.5524    3.2727 C   0  0  0  0  0  0  0  0  0  0  0  0
    4.9576    2.8503   -4.8505 H   0  0  0  0  0  0  0  0  0  0  0  0
    3.8211    4.1489   -4.5636 H   0  0  0  0  0  0  0  0  0  0  0  0
    2.9174    4.7884   -6.5704 H   0  0  0  0  0  0  0  0  0  0  0  0
    2.5845    3.6895   -7.8635 H   0  0  0  0  0  0  0  0  0  0  0  0
    5.3126    4.6202   -6.9042 H   0  0  0  0  0  0  0  0  0  0  0  0
    5.1368    3.1727   -7.9150 H   0  0  0  0  0  0  0  0  0  0  0  0
    2.0105   -0.0528   -7.6052 H   0  0  0  0  0  0  0  0  0  0  0  0
    1.2943    3.0277   -3.9063 H   0  0  0  0  0  0  0  0  0  0  0  0
    5.1188    1.5874   -2.8722 H   0  0  0  0  0  0  0  0  0  0  0  0
    0.3630    1.9254   -1.9915 H   0  0  0  0  0  0  0  0  0  0  0  0
    4.2097    0.5145   -0.9559 H   0  0  0  0  0  0  0  0  0  0  0  0
    6.2791    4.2312   -9.7975 H   0  0  0  0  0  0  0  0  0  0  0  0
    6.5252    5.7113   -8.8397 H   0  0  0  0  0  0  0  0  0  0  0  0
    6.5246    6.1955  -11.2860 H   0  0  0  0  0  0  0  0  0  0  0  0
    4.8914    5.5126  -11.4236 H   0  0  0  0  0  0  0  0  0  0  0  0
    5.1573    6.9959  -10.4812 H   0  0  0  0  0  0  0  0  0  0  0  0
    0.5605    0.5765   -0.0005 H   0  0  0  0  0  0  0  0  0  0  0  0
    1.7180   -0.6546   -0.3674 H   0  0  0  0  0  0  0  0  0  0  0  0
    2.0371   -1.3798    1.7804 H   0  0  0  0  0  0  0  0  0  0  0  0
    2.6275   -0.3662    3.0429 H   0  0  0  0  0  0  0  0  0  0  0  0
    4.1727   -1.2694    0.5744 H   0  0  0  0  0  0  0  0  0  0  0  0
    4.7968   -0.0584    1.7272 H   0  0  0  0  0  0  0  0  0  0  0  0
    1.8251    3.9514    2.1614 H   0  0  0  0  0  0  0  0  0  0  0  0
    6.6347   -1.7436    2.1655 H   0  0  0  0  0  0  0  0  0  0  0  0
    5.8577   -3.0351    1.2140 H   0  0  0  0  0  0  0  0  0  0  0  0
    6.2624   -3.0658    4.2490 H   0  0  0  0  0  0  0  0  0  0  0  0
    7.2297   -3.9767    3.0727 H   0  0  0  0  0  0  0  0  0  0  0  0
    5.5112   -4.3602    3.2955 H   0  0  0  0  0  0  0  0  0  0  0  0
  1  2  1  0  0  0  0 
  1  3  1  0  0  0  0 
  1  4  1  0  0  0  0 
  2  5  1  0  0  0  0 
  3  6  1  0  0  0  0 
  4  7  1  0  0  0  0 
  4  8  2  0  0  0  0 
  5  9  2  0  0  0  0 
  5 10  1  0  0  0  0 
  6 11  1  0  0  0  0 
  7 12  1  0  0  0  0 
  7 13  1  0  0  0  0 
  9 14  1  0  0  0  0 
 10 15  2  0  0  0  0 
 11 16  1  0  0  0  0 
 14 17  2  0  0  0  0 
 15 17  1  0  0  0  0 
 16 18  1  0  0  0  0 
 17 19  1  0  0  0  0 
 19 20  1  0  0  0  0 
 20 21  1  0  0  0  0 
 20 22  1  0  0  0  0 
 21 23  1  0  0  0  0 
 22 24  1  0  0  0  0 
 22 25  2  0  0  0  0 
 23 26  1  0  0  0  0 
 24 27  1  0  0  0  0 
 24 28  1  0  0  0  0 
 26 29  1  0  0  0  0 
 29 30  1  0  0  0  0 
  2 31  1  0  0  0  0 
  2 32  1  0  0  0  0 
  3 33  1  0  0  0  0 
  3 34  1  0  0  0  0 
  6 35  1  0  0  0  0 
  6 36  1  0  0  0  0 
  7 37  1  0  0  0  0 
  9 38  1  0  0  0  0 
 10 39  1  0  0  0  0 
 14 40  1  0  0  0  0 
 15 41  1  0  0  0  0 
 16 42  1  0  0  0  0 
 16 43  1  0  0  0  0 
 18 44  1  0  0  0  0 
 18 45  1  0  0  0  0 
 18 46  1  0  0  0  0 
 19 47  1  0  0  0  0 
 19 48  1  0  0  0  0 
 21 49  1  0  0  0  0 
 21 50  1  0  0  0  0 
 23 51  1  0  0  0  0 
 23 52  1  0  0  0  0 
 24 53  1  0  0  0  0 
 29 54  1  0  0  0  0 
 29 55  1  0  0  0  0 
 30 56  1  0  0  0  0 
 30 57  1  0  0  0  0 
 30 58  1  0  0  0  0 
M  END
> <cdk:Title>
teclozan

> <Conformer>
1

> <SuperDrugID>
SD002317

$$$$
