fluoromethylcholine (18F)
  CDK     0628171802

 21 20  0  0  0  0  0  0  0  0999 V2000
   -0.0445    0.1263    2.5428 F   0  0  0  0  0  0  0  0  0  0  0  0
   -0.7619    1.0691    1.8407 C   0  0  1  0  0  0  0  0  0  0  0  0
    0.0831    2.2126    1.3190 N   0  0  2  0  0  0  0  0  0  0  0  0
    1.2400    1.7226    0.4567 C   0  0  1  0  0  0  0  0  0  0  0  0
    0.6481    2.9786    2.4996 C   0  0  0  0  0  0  0  0  0  0  0  0
   -0.8045    3.1565    0.5406 C   0  0  0  0  0  0  0  0  0  0  0  0
    0.9137    0.9075   -0.8263 C   0  0  1  0  0  0  0  0  0  0  0  0
    2.1205    0.5309   -1.4802 O   0  0  0  0  0  0  0  0  0  0  0  0
   -1.2701    0.5450    1.0286 H   0  0  0  0  0  0  0  0  0  0  0  0
   -1.5463    1.4333    2.5107 H   0  0  0  0  0  0  0  0  0  0  0  0
    1.8394    2.5807    0.1314 H   0  0  0  0  0  0  0  0  0  0  0  0
    1.9058    1.0955    1.0604 H   0  0  0  0  0  0  0  0  0  0  0  0
    1.3017    2.3517    3.1123 H   0  0  0  0  0  0  0  0  0  0  0  0
    1.2365    3.8416    2.1737 H   0  0  0  0  0  0  0  0  0  0  0  0
   -0.1440    3.3563    3.1543 H   0  0  0  0  0  0  0  0  0  0  0  0
   -1.3111    2.6508   -0.2844 H   0  0  0  0  0  0  0  0  0  0  0  0
   -0.2317    3.9862    0.1176 H   0  0  0  0  0  0  0  0  0  0  0  0
   -1.5870    3.5862    1.1728 H   0  0  0  0  0  0  0  0  0  0  0  0
    0.3679   -0.0052   -0.5864 H   0  0  0  0  0  0  0  0  0  0  0  0
    0.3277    1.4992   -1.5302 H   0  0  0  0  0  0  0  0  0  0  0  0
    1.8346    0.0276   -2.2735 H   0  0  0  0  0  0  0  0  0  0  0  0
  1  2  1  0  0  0  0 
  2  3  1  0  0  0  0 
  3  4  1  0  0  0  0 
  3  5  1  0  0  0  0 
  3  6  1  0  0  0  0 
  4  7  1  0  0  0  0 
  7  8  1  0  0  0  0 
  2  9  1  0  0  0  0 
  2 10  1  0  0  0  0 
  4 11  1  0  0  0  0 
  4 12  1  0  0  0  0 
  5 13  1  0  0  0  0 
  5 14  1  0  0  0  0 
  5 15  1  0  0  0  0 
  6 16  1  0  0  0  0 
  6 17  1  0  0  0  0 
  6 18  1  0  0  0  0 
  7 19  1  0  0  0  0 
  7 20  1  0  0  0  0 
  8 21  1  0  0  0  0 
M  CHG  1   3   1
M  ISO  1   1  18
M  END
> <cdk:Title>
fluoromethylcholine (18F)

> <Conformer>
1

> <SuperDrugID>
SD003757

$$$$
