trenbolone hexahydrobenzylcarbonate
  CDK     0628171802

 64 68  0  0  0  0  0  0  0  0999 V2000
   -1.1072    0.2839   -0.8831 C   0  0  1  0  0  0  0  0  0  0  0  0
   -1.2946    0.4601    0.6523 C   0  0  1  0  0  0  0  0  0  0  0  0
   -0.6966    1.7256    1.1330 C   0  0  0  0  0  0  0  0  0  0  0  0
   -0.3829    2.7358    0.2397 C   0  0  0  0  0  0  0  0  0  0  0  0
   -0.6726    2.6492   -1.0799 C   0  0  0  0  0  0  0  0  0  0  0  0
   -1.3513    1.5509   -1.6166 C   0  0  0  0  0  0  0  0  0  0  0  0
   -2.1210    1.6924   -2.7423 C   0  0  0  0  0  0  0  0  0  0  0  0
   -0.2744    3.7290   -1.9840 C   0  0  2  0  0  0  0  0  0  0  0  0
   -1.5425    4.2214   -2.7026 C   0  0  2  0  0  0  0  0  0  0  0  0
   -2.2982    3.0379   -3.3866 C   0  0  1  0  0  0  0  0  0  0  0  0
   -2.9828    0.6230   -4.7509 C   0  0  0  0  0  0  0  0  0  0  0  0
   -2.6769    0.6112   -3.4309 C   0  0  0  0  0  0  0  0  0  0  0  0
   -1.9276    2.8347   -4.8950 C   0  0  1  0  0  0  0  0  0  0  0  0
   -2.9442    1.8477   -5.5663 C   0  0  1  0  0  0  0  0  0  0  0  0
   -1.8028    3.9911   -5.9005 C   0  0  2  0  0  0  0  0  0  0  0  0
   -1.7769    3.2346   -7.2495 C   0  0  1  0  0  0  0  0  0  0  0  0
   -2.3393    1.7938   -7.0124 C   0  0  2  0  0  0  0  0  0  0  0  0
   -0.4866    1.8837    2.3580 O   0  0  0  0  0  0  0  0  0  0  0  0
   -4.4416    2.3342   -5.6461 C   0  0  0  0  0  0  0  0  0  0  0  0
   -3.2674    1.4269   -8.0629 O   0  0  0  0  0  0  0  0  0  0  0  0
   -2.9988    1.3396   -9.4025 C   0  0  0  0  0  0  0  0  0  0  0  0
   -1.8333    1.5250   -9.8253 O   0  0  0  0  0  0  0  0  0  0  0  0
   -4.0254    1.0604  -10.2635 O   0  0  0  0  0  0  0  0  0  0  0  0
   -3.9477    0.8828  -11.6930 C   0  0  1  0  0  0  0  0  0  0  0  0
   -4.7886    1.9340  -12.4756 C   0  0  2  0  0  0  0  0  0  0  0  0
   -4.6706    1.7211  -14.0196 C   0  0  1  0  0  0  0  0  0  0  0  0
   -5.5147    2.7510  -14.8185 C   0  0  2  0  0  0  0  0  0  0  0  0
   -5.1423    4.2056  -14.4352 C   0  0  2  0  0  0  0  0  0  0  0  0
   -5.2380    4.4340  -12.9045 C   0  0  1  0  0  0  0  0  0  0  0  0
   -4.3926    3.3984  -12.1169 C   0  0  1  0  0  0  0  0  0  0  0  0
   -0.0710   -0.0176   -1.0737 H   0  0  0  0  0  0  0  0  0  0  0  0
   -1.7359   -0.5514   -1.1795 H   0  0  0  0  0  0  0  0  0  0  0  0
   -2.3577    0.4658    0.9034 H   0  0  0  0  0  0  0  0  0  0  0  0
   -0.8267   -0.3846    1.1632 H   0  0  0  0  0  0  0  0  0  0  0  0
    0.0764    3.5411    0.6009 H   0  0  0  0  0  0  0  0  0  0  0  0
    0.4371    3.3423   -2.7189 H   0  0  0  0  0  0  0  0  0  0  0  0
    0.2018    4.5763   -1.4765 H   0  0  0  0  0  0  0  0  0  0  0  0
   -1.2795    5.0070   -3.4140 H   0  0  0  0  0  0  0  0  0  0  0  0
   -2.1999    4.6804   -1.9561 H   0  0  0  0  0  0  0  0  0  0  0  0
   -3.3532    3.3078   -3.3130 H   0  0  0  0  0  0  0  0  0  0  0  0
   -3.3197   -0.2131   -5.1732 H   0  0  0  0  0  0  0  0  0  0  0  0
   -2.8538   -0.2417   -2.9642 H   0  0  0  0  0  0  0  0  0  0  0  0
   -0.9224    2.3785   -4.8873 H   0  0  0  0  0  0  0  0  0  0  0  0
   -0.8853    4.5669   -5.7565 H   0  0  0  0  0  0  0  0  0  0  0  0
   -2.6573    4.6668   -5.8328 H   0  0  0  0  0  0  0  0  0  0  0  0
   -2.3680    3.7845   -7.9843 H   0  0  0  0  0  0  0  0  0  0  0  0
   -0.7472    3.1691   -7.6151 H   0  0  0  0  0  0  0  0  0  0  0  0
   -1.5074    1.0770   -7.0222 H   0  0  0  0  0  0  0  0  0  0  0  0
   -5.0474    1.6091   -6.1936 H   0  0  0  0  0  0  0  0  0  0  0  0
   -4.9035    2.4429   -4.6650 H   0  0  0  0  0  0  0  0  0  0  0  0
   -4.5345    3.2880   -6.1633 H   0  0  0  0  0  0  0  0  0  0  0  0
   -2.9098    0.9168  -12.0379 H   0  0  0  0  0  0  0  0  0  0  0  0
   -4.3383   -0.1157  -11.9088 H   0  0  0  0  0  0  0  0  0  0  0  0
   -5.8351    1.7875  -12.1892 H   0  0  0  0  0  0  0  0  0  0  0  0
   -3.6226    1.8056  -14.3308 H   0  0  0  0  0  0  0  0  0  0  0  0
   -5.0075    0.7159  -14.2821 H   0  0  0  0  0  0  0  0  0  0  0  0
   -6.5781    2.5847  -14.6238 H   0  0  0  0  0  0  0  0  0  0  0  0
   -5.3499    2.6065  -15.8892 H   0  0  0  0  0  0  0  0  0  0  0  0
   -5.8121    4.8983  -14.9476 H   0  0  0  0  0  0  0  0  0  0  0  0
   -4.1233    4.4172  -14.7679 H   0  0  0  0  0  0  0  0  0  0  0  0
   -4.8902    5.4421  -12.6638 H   0  0  0  0  0  0  0  0  0  0  0  0
   -6.2832    4.3591  -12.5917 H   0  0  0  0  0  0  0  0  0  0  0  0
   -4.5377    3.5731  -11.0485 H   0  0  0  0  0  0  0  0  0  0  0  0
   -3.3336    3.5598  -12.3397 H   0  0  0  0  0  0  0  0  0  0  0  0
  1  2  1  0  0  0  0 
  1  6  1  0  0  0  0 
  2  3  1  0  0  0  0 
  3  4  1  0  0  0  0 
  4  5  2  0  0  0  0 
  5  6  1  0  0  0  0 
  8  9  1  0  0  0  0 
 10  9  1  0  0  0  0 
 10  7  1  0  0  0  0 
  5  8  1  0  0  0  0 
  7  6  2  0  0  0  0 
 11 12  2  0  0  0  0 
 13 14  1  0  0  0  0 
 14 11  1  0  0  0  0 
 12  7  1  0  0  0  0 
 13 10  1  0  0  0  0 
 15 16  1  0  0  0  0 
 17 16  1  0  0  0  0 
 13 15  1  0  0  0  0 
 14 17  1  0  0  0  0 
  3 18  2  0  0  0  0 
 14 19  1  0  0  0  0 
 17 20  1  0  0  0  0 
 20 21  1  0  0  0  0 
 21 22  2  0  0  0  0 
 21 23  1  0  0  0  0 
 23 24  1  0  0  0  0 
 24 25  1  0  0  0  0 
 26 27  1  0  0  0  0 
 27 28  1  0  0  0  0 
 28 29  1  0  0  0  0 
 29 30  1  0  0  0  0 
 25 26  1  0  0  0  0 
 25 30  1  0  0  0  0 
 31  1  1  0  0  0  0 
 32  1  1  0  0  0  0 
 33  2  1  0  0  0  0 
 34  2  1  0  0  0  0 
 35  4  1  0  0  0  0 
 36  8  1  0  0  0  0 
 37  8  1  0  0  0  0 
 38  9  1  0  0  0  0 
 39  9  1  0  0  0  0 
 10 40  1  0  0  0  0 
 41 11  1  0  0  0  0 
 42 12  1  0  0  0  0 
 13 43  1  0  0  0  0 
 44 15  1  0  0  0  0 
 45 15  1  0  0  0  0 
 46 16  1  0  0  0  0 
 47 16  1  0  0  0  0 
 17 48  1  0  0  0  0 
 49 19  1  0  0  0  0 
 50 19  1  0  0  0  0 
 51 19  1  0  0  0  0 
 52 24  1  0  0  0  0 
 53 24  1  0  0  0  0 
 54 25  1  0  0  0  0 
 55 26  1  0  0  0  0 
 56 26  1  0  0  0  0 
 57 27  1  0  0  0  0 
 58 27  1  0  0  0  0 
 59 28  1  0  0  0  0 
 60 28  1  0  0  0  0 
 61 29  1  0  0  0  0 
 62 29  1  0  0  0  0 
 63 30  1  0  0  0  0 
 64 30  1  0  0  0  0 
M  END
> <cdk:Title>
trenbolone hexahydrobenzylcarbonate

> <Conformer>
1

> <SuperDrugID>
SD003895

$$$$
