piperazine
  CDK     0628171801

 16 16  0  0  0  0  0  0  0  0999 V2000
    2.6049   -0.7591   -1.4612 C   0  0  2  0  0  0  0  0  0  0  0  0
    2.5642   -0.0276   -2.8253 C   0  0  2  0  0  0  0  0  0  0  0  0
    1.3905   -0.4610   -3.6210 N   0  0  2  0  0  0  0  0  0  0  0  0
    0.1020   -0.3285   -2.8984 C   0  0  1  0  0  0  0  0  0  0  0  0
    0.1542   -1.0553   -1.5314 C   0  0  2  0  0  0  0  0  0  0  0  0
    1.3203   -0.5919   -0.7431 N   0  0  1  0  0  0  0  0  0  0  0  0
    3.4077   -0.3478   -0.8475 H   0  0  0  0  0  0  0  0  0  0  0  0
    2.8058   -1.8228   -1.6155 H   0  0  0  0  0  0  0  0  0  0  0  0
    3.4680   -0.2633   -3.3882 H   0  0  0  0  0  0  0  0  0  0  0  0
    2.5311    1.0564   -2.6730 H   0  0  0  0  0  0  0  0  0  0  0  0
    1.5170   -1.4581   -3.8091 H   0  0  0  0  0  0  0  0  0  0  0  0
   -0.1327    0.7299   -2.7508 H   0  0  0  0  0  0  0  0  0  0  0  0
   -0.6874   -0.7694   -3.5126 H   0  0  0  0  0  0  0  0  0  0  0  0
    0.2207   -2.1351   -1.6890 H   0  0  0  0  0  0  0  0  0  0  0  0
   -0.7595   -0.8493   -0.9684 H   0  0  0  0  0  0  0  0  0  0  0  0
    1.3662   -1.1699    0.0998 H   0  0  0  0  0  0  0  0  0  0  0  0
  1  2  1  0  0  0  0 
  2  3  1  0  0  0  0 
  3  4  1  0  0  0  0 
  4  5  1  0  0  0  0 
  5  6  1  0  0  0  0 
  1  6  1  0  0  0  0 
  1  7  1  0  0  0  0 
  1  8  1  0  0  0  0 
  2  9  1  0  0  0  0 
  2 10  1  0  0  0  0 
  3 11  1  0  0  0  0 
  4 12  1  0  0  0  0 
  4 13  1  0  0  0  0 
  5 14  1  0  0  0  0 
  5 15  1  0  0  0  0 
  6 16  1  0  0  0  0 
M  END
> <cdk:Title>
piperazine

> <Conformer>
1

> <SuperDrugID>
SD001963

$$$$
