chloralose
  CDK     0628171801

 28 29  0  0  0  0  0  0  0  0999 V2000
    1.1142   -0.1476   -2.4100 O   0  0  0  0  0  0  0  0  0  0  0  0
    1.4955    0.3355   -3.6947 C   0  0  2  0  0  0  0  0  0  0  0  0
    0.8859    1.7102   -3.9991 C   0  0  2  0  0  0  0  0  0  0  0  0
    1.0505   -0.5225   -4.9044 C   0  0  1  0  0  0  0  0  0  0  0  0
    0.6840    1.6868   -5.5153 C   0  0  2  0  0  0  0  0  0  0  0  0
    1.7725    2.7993   -3.7394 O   0  0  0  0  0  0  0  0  0  0  0  0
   -0.3585   -1.1989   -4.8269 C   0  0  1  0  0  0  0  0  0  0  0  0
    1.1275    0.4097   -5.9989 O   0  0  0  0  0  0  0  0  0  0  0  0
    1.5010    2.7431   -6.0150 O   0  0  0  0  0  0  0  0  0  0  0  0
    1.6590    3.6318   -4.8996 C   0  0  2  0  0  0  0  0  0  0  0  0
   -0.7168   -1.9494   -6.1364 C   0  0  2  0  0  0  0  0  0  0  0  0
   -0.4215   -2.1467   -3.7621 O   0  0  0  0  0  0  0  0  0  0  0  0
    2.9021    4.5417   -5.0665 C   0  0  1  0  0  0  0  0  0  0  0  0
   -2.0494   -2.4516   -6.0916 O   0  0  0  0  0  0  0  0  0  0  0  0
    3.1335    5.5622   -3.6514 Cl  0  0  0  0  0  0  0  0  0  0  0  0
    4.3742    3.6038   -5.3058 Cl  0  0  0  0  0  0  0  0  0  0  0  0
    2.7150    5.6118   -6.4527 Cl  0  0  0  0  0  0  0  0  0  0  0  0
   -0.0693    1.8513   -3.4819 H   0  0  0  0  0  0  0  0  0  0  0  0
   -0.3641    1.8588   -5.7891 H   0  0  0  0  0  0  0  0  0  0  0  0
    1.7941   -1.3067   -5.0750 H   0  0  0  0  0  0  0  0  0  0  0  0
    1.5928   -0.9958   -2.3037 H   0  0  0  0  0  0  0  0  0  0  0  0
    2.5868    0.4195   -3.7085 H   0  0  0  0  0  0  0  0  0  0  0  0
   -1.1235   -0.4409   -4.6454 H   0  0  0  0  0  0  0  0  0  0  0  0
    0.7694    4.2669   -4.8047 H   0  0  0  0  0  0  0  0  0  0  0  0
   -0.0359   -2.7899   -6.2879 H   0  0  0  0  0  0  0  0  0  0  0  0
   -0.6418   -1.2795   -6.9957 H   0  0  0  0  0  0  0  0  0  0  0  0
   -0.4220   -1.6178   -2.9390 H   0  0  0  0  0  0  0  0  0  0  0  0
   -2.1871   -2.8719   -6.9679 H   0  0  0  0  0  0  0  0  0  0  0  0
  2  1  1  0  0  0  0 
  2  3  1  0  0  0  0 
  4  2  1  0  0  0  0 
  3  5  1  0  0  0  0 
  3  6  1  0  0  0  0 
  3 18  1  0  0  0  0 
  7  4  1  0  0  0  0 
  4  8  1  0  0  0  0 
  4 20  1  0  0  0  0 
  5  8  1  0  0  0  0 
  5  9  1  0  0  0  0 
  5 19  1  0  0  0  0 
 10  6  1  0  0  0  0 
  7 11  1  0  0  0  0 
  7 12  1  0  0  0  0 
 10  9  1  0  0  0  0 
 10 13  1  0  0  0  0 
 11 14  1  0  0  0  0 
 13 15  1  0  0  0  0 
 13 16  1  0  0  0  0 
 13 17  1  0  0  0  0 
  1 21  1  0  0  0  0 
  2 22  1  0  0  0  0 
  7 23  1  0  0  0  0 
 10 24  1  0  0  0  0 
 11 25  1  0  0  0  0 
 11 26  1  0  0  0  0 
 12 27  1  0  0  0  0 
 14 28  1  0  0  0  0 
M  END
> <cdk:Title>
chloralose

> <Conformer>
1

> <SuperDrugID>
SD002679

$$$$
