tolbutamide
  CDK     0628171801

 36 36  0  0  0  0  0  0  0  0999 V2000
    0.1737   -0.1436   -0.2729 S   0  0  1  0  0  0  0  0  0  0  0  0
   -0.5315   -1.2164    0.8725 N   0  0  0  0  0  0  0  0  0  0  0  0
   -0.9906    0.4530   -1.2036 O   0  0  0  0  0  0  0  0  0  0  0  0
    0.8679    1.0648    0.5232 O   0  0  0  0  0  0  0  0  0  0  0  0
    1.3849   -0.9990   -1.2402 C   0  0  0  0  0  0  0  0  0  0  0  0
   -0.8441   -2.5157    0.6372 C   0  0  0  0  0  0  0  0  0  0  0  0
    2.3999   -1.7391   -0.6013 C   0  0  0  0  0  0  0  0  0  0  0  0
    1.3121   -0.9945   -2.6473 C   0  0  0  0  0  0  0  0  0  0  0  0
   -1.3436   -3.2241    1.6798 N   0  0  0  0  0  0  0  0  0  0  0  0
   -0.6762   -3.0471   -0.4868 O   0  0  0  0  0  0  0  0  0  0  0  0
    3.2898   -2.5212   -1.3587 C   0  0  0  0  0  0  0  0  0  0  0  0
    2.2002   -1.7775   -3.4053 C   0  0  0  0  0  0  0  0  0  0  0  0
   -1.6835   -4.6113    1.6559 C   0  0  1  0  0  0  0  0  0  0  0  0
    3.1861   -2.5653   -2.7678 C   0  0  0  0  0  0  0  0  0  0  0  0
   -2.2854   -5.0359    3.0171 C   0  0  2  0  0  0  0  0  0  0  0  0
    4.0984   -3.4342   -3.5398 C   0  0  0  0  0  0  0  0  0  0  0  0
   -2.5608   -6.5611    3.1193 C   0  0  2  0  0  0  0  0  0  0  0  0
   -3.3428   -6.9391    4.3994 C   0  0  0  0  0  0  0  0  0  0  0  0
   -0.7152   -0.8663    1.7573 H   0  0  0  0  0  0  0  0  0  0  0  0
    2.4882   -1.7294    0.4186 H   0  0  0  0  0  0  0  0  0  0  0  0
    0.6073   -0.4335   -3.1318 H   0  0  0  0  0  0  0  0  0  0  0  0
   -1.4623   -2.7521    2.5160 H   0  0  0  0  0  0  0  0  0  0  0  0
    4.0047   -3.0706   -0.8748 H   0  0  0  0  0  0  0  0  0  0  0  0
    2.1150   -1.7721   -4.4255 H   0  0  0  0  0  0  0  0  0  0  0  0
   -2.4130   -4.7963    0.8633 H   0  0  0  0  0  0  0  0  0  0  0  0
   -0.7873   -5.2022    1.4491 H   0  0  0  0  0  0  0  0  0  0  0  0
   -3.2202   -4.4886    3.1692 H   0  0  0  0  0  0  0  0  0  0  0  0
   -1.5930   -4.7510    3.8141 H   0  0  0  0  0  0  0  0  0  0  0  0
    5.1173   -3.0603   -3.4454 H   0  0  0  0  0  0  0  0  0  0  0  0
    3.8365   -3.4654   -4.5987 H   0  0  0  0  0  0  0  0  0  0  0  0
    4.0572   -4.4534   -3.1511 H   0  0  0  0  0  0  0  0  0  0  0  0
   -1.6099   -7.1000    3.1160 H   0  0  0  0  0  0  0  0  0  0  0  0
   -3.1408   -6.8895    2.2522 H   0  0  0  0  0  0  0  0  0  0  0  0
   -3.5172   -8.0164    4.4252 H   0  0  0  0  0  0  0  0  0  0  0  0
   -4.3098   -6.4323    4.4132 H   0  0  0  0  0  0  0  0  0  0  0  0
   -2.7808   -6.6557    5.2915 H   0  0  0  0  0  0  0  0  0  0  0  0
  1  2  1  0  0  0  0 
  1  3  2  0  0  0  0 
  1  4  2  0  0  0  0 
  1  5  1  0  0  0  0 
  2  6  1  0  0  0  0 
  5  7  2  0  0  0  0 
  5  8  1  0  0  0  0 
  6  9  1  0  0  0  0 
  6 10  2  0  0  0  0 
  7 11  1  0  0  0  0 
  8 12  2  0  0  0  0 
  9 13  1  0  0  0  0 
 11 14  2  0  0  0  0 
 12 14  1  0  0  0  0 
 13 15  1  0  0  0  0 
 14 16  1  0  0  0  0 
 15 17  1  0  0  0  0 
 17 18  1  0  0  0  0 
  2 19  1  0  0  0  0 
  7 20  1  0  0  0  0 
  8 21  1  0  0  0  0 
  9 22  1  0  0  0  0 
 11 23  1  0  0  0  0 
 12 24  1  0  0  0  0 
 13 25  1  0  0  0  0 
 13 26  1  0  0  0  0 
 15 27  1  0  0  0  0 
 15 28  1  0  0  0  0 
 16 29  1  0  0  0  0 
 16 30  1  0  0  0  0 
 16 31  1  0  0  0  0 
 17 32  1  0  0  0  0 
 17 33  1  0  0  0  0 
 18 34  1  0  0  0  0 
 18 35  1  0  0  0  0 
 18 36  1  0  0  0  0 
M  END
> <cdk:Title>
tolbutamide

> <Conformer>
1

> <SuperDrugID>
SD002427

$$$$
