dibenzepin
  CDK     0628171802

 43 45  0  0  0  0  0  0  0  0999 V2000
    1.8576    1.2201   -1.1400 C   0  0  2  0  0  0  0  0  0  0  0  0
    3.4013    1.3582   -1.2484 C   0  0  2  0  0  0  0  0  0  0  0  0
    1.1863    2.4197   -1.6421 N   0  0  0  0  0  0  0  0  0  0  0  0
    3.8771    1.3575   -2.6710 N   0  0  1  0  0  0  0  0  0  0  0  0
    0.8845    2.4960   -3.0026 C   0  0  0  0  0  0  0  0  0  0  0  0
    0.9460    3.4745   -0.7530 C   0  0  0  0  0  0  0  0  0  0  0  0
    5.0953    2.1862   -2.8987 C   0  0  0  0  0  0  0  0  0  0  0  0
    4.0099   -0.0052   -3.2668 C   0  0  0  0  0  0  0  0  0  0  0  0
    1.2299    3.6427   -3.7748 C   0  0  0  0  0  0  0  0  0  0  0  0
    0.2546    1.4177   -3.6784 C   0  0  0  0  0  0  0  0  0  0  0  0
    1.2036    3.3234    0.4684 O   0  0  0  0  0  0  0  0  0  0  0  0
    0.4663    4.7736   -1.0962 C   0  0  0  0  0  0  0  0  0  0  0  0
    1.7041    4.7845   -3.1881 N   0  0  0  0  0  0  0  0  0  0  0  0
    1.0407    3.6428   -5.1775 C   0  0  0  0  0  0  0  0  0  0  0  0
    0.0621    1.4286   -5.0717 C   0  0  0  0  0  0  0  0  0  0  0  0
    0.8744    5.4169   -2.2961 C   0  0  0  0  0  0  0  0  0  0  0  0
   -0.3868    5.4743   -0.2040 C   0  0  0  0  0  0  0  0  0  0  0  0
    2.9868    5.3424   -3.5383 C   0  0  0  0  0  0  0  0  0  0  0  0
    0.4751    2.5347   -5.8256 C   0  0  0  0  0  0  0  0  0  0  0  0
    0.4055    6.7227   -2.5823 C   0  0  0  0  0  0  0  0  0  0  0  0
   -0.8297    6.7758   -0.4916 C   0  0  0  0  0  0  0  0  0  0  0  0
   -0.4416    7.3970   -1.6879 C   0  0  0  0  0  0  0  0  0  0  0  0
    1.6010    1.0251   -0.0939 H   0  0  0  0  0  0  0  0  0  0  0  0
    1.5453    0.3117   -1.6519 H   0  0  0  0  0  0  0  0  0  0  0  0
    3.8772    0.5497   -0.6841 H   0  0  0  0  0  0  0  0  0  0  0  0
    3.6702    2.2951   -0.7483 H   0  0  0  0  0  0  0  0  0  0  0  0
    4.9306    3.2091   -2.5587 H   0  0  0  0  0  0  0  0  0  0  0  0
    5.3313    2.2346   -3.9634 H   0  0  0  0  0  0  0  0  0  0  0  0
    5.9548    1.7764   -2.3643 H   0  0  0  0  0  0  0  0  0  0  0  0
    3.0949   -0.5861   -3.1492 H   0  0  0  0  0  0  0  0  0  0  0  0
    4.2073    0.0718   -4.3366 H   0  0  0  0  0  0  0  0  0  0  0  0
    4.8274   -0.5563   -2.7974 H   0  0  0  0  0  0  0  0  0  0  0  0
   -0.0725    0.6017   -3.1605 H   0  0  0  0  0  0  0  0  0  0  0  0
    1.3035    4.4582   -5.7357 H   0  0  0  0  0  0  0  0  0  0  0  0
   -0.3739    0.6298   -5.5376 H   0  0  0  0  0  0  0  0  0  0  0  0
   -0.6947    5.0457    0.6746 H   0  0  0  0  0  0  0  0  0  0  0  0
    3.5671    5.5567   -2.6391 H   0  0  0  0  0  0  0  0  0  0  0  0
    3.5746    4.6548   -4.1514 H   0  0  0  0  0  0  0  0  0  0  0  0
    2.8608    6.2699   -4.1002 H   0  0  0  0  0  0  0  0  0  0  0  0
    0.3594    2.5378   -6.8418 H   0  0  0  0  0  0  0  0  0  0  0  0
    0.6708    7.1904   -3.4507 H   0  0  0  0  0  0  0  0  0  0  0  0
   -1.4339    7.2688    0.1696 H   0  0  0  0  0  0  0  0  0  0  0  0
   -0.7759    8.3381   -1.9048 H   0  0  0  0  0  0  0  0  0  0  0  0
  1  2  1  0  0  0  0 
  1  3  1  0  0  0  0 
  2  4  1  0  0  0  0 
  3  5  1  0  0  0  0 
  3  6  1  0  0  0  0 
  4  7  1  0  0  0  0 
  4  8  1  0  0  0  0 
  5  9  2  0  0  0  0 
  5 10  1  0  0  0  0 
  6 11  2  0  0  0  0 
  6 12  1  0  0  0  0 
  9 13  1  0  0  0  0 
  9 14  1  0  0  0  0 
 10 15  2  0  0  0  0 
 12 16  2  0  0  0  0 
 12 17  1  0  0  0  0 
 13 16  1  0  0  0  0 
 13 18  1  0  0  0  0 
 14 19  2  0  0  0  0 
 15 19  1  0  0  0  0 
 16 20  1  0  0  0  0 
 17 21  2  0  0  0  0 
 20 22  2  0  0  0  0 
 21 22  1  0  0  0  0 
  1 23  1  0  0  0  0 
  1 24  1  0  0  0  0 
  2 25  1  0  0  0  0 
  2 26  1  0  0  0  0 
  7 27  1  0  0  0  0 
  7 28  1  0  0  0  0 
  7 29  1  0  0  0  0 
  8 30  1  0  0  0  0 
  8 31  1  0  0  0  0 
  8 32  1  0  0  0  0 
 10 33  1  0  0  0  0 
 14 34  1  0  0  0  0 
 15 35  1  0  0  0  0 
 17 36  1  0  0  0  0 
 18 37  1  0  0  0  0 
 18 38  1  0  0  0  0 
 18 39  1  0  0  0  0 
 19 40  1  0  0  0  0 
 20 41  1  0  0  0  0 
 21 42  1  0  0  0  0 
 22 43  1  0  0  0  0 
M  END
> <cdk:Title>
dibenzepin

> <Conformer>
1

> <SuperDrugID>
SD000759

$$$$
