testolactone
  CDK     0628171801

 46 49  0  0  0  0  0  0  0  0999 V2000
   -5.9799   -1.0112   -3.8312 C   0  0  0  0  0  0  0  0  0  0  0  0
   -6.0208    0.1033   -2.7243 C   0  0  1  0  0  0  0  0  0  0  0  0
   -4.7593    0.0679   -1.7492 C   0  0  2  0  0  0  0  0  0  0  0  0
   -6.0474    1.4429   -3.4025 C   0  0  0  0  0  0  0  0  0  0  0  0
   -7.2663   -0.1586   -1.9586 C   0  0  0  0  0  0  0  0  0  0  0  0
   -3.4183    0.5027   -2.4697 C   0  0  2  0  0  0  0  0  0  0  0  0
   -4.5749   -1.2789   -0.9595 C   0  0  1  0  0  0  0  0  0  0  0  0
   -4.8430    1.9065   -4.1019 C   0  0  2  0  0  0  0  0  0  0  0  0
   -7.1416    2.2349   -3.3499 C   0  0  0  0  0  0  0  0  0  0  0  0
   -8.3143    0.6799   -1.9436 C   0  0  0  0  0  0  0  0  0  0  0  0
   -2.1931    0.4622   -1.4815 C   0  0  1  0  0  0  0  0  0  0  0  0
   -3.6227    1.8946   -3.1507 C   0  0  2  0  0  0  0  0  0  0  0  0
   -3.3161   -1.3158   -0.0563 C   0  0  1  0  0  0  0  0  0  0  0  0
   -8.2767    1.8634   -2.6508 C   0  0  0  0  0  0  0  0  0  0  0  0
   -2.0141   -0.9672   -0.8376 C   0  0  1  0  0  0  0  0  0  0  0  0
   -0.8191    0.9393   -2.0495 C   0  0  1  0  0  0  0  0  0  0  0  0
   -9.2793    2.6145   -2.6468 O   0  0  0  0  0  0  0  0  0  0  0  0
   -1.6331   -2.1221   -1.8251 C   0  0  0  0  0  0  0  0  0  0  0  0
   -0.9400   -0.9289    0.1218 O   0  0  0  0  0  0  0  0  0  0  0  0
    0.3097    0.9209   -0.9783 C   0  0  1  0  0  0  0  0  0  0  0  0
    0.1837   -0.1602    0.0227 C   0  0  0  0  0  0  0  0  0  0  0  0
    1.0990   -0.3454    0.8551 O   0  0  0  0  0  0  0  0  0  0  0  0
   -4.9464    0.8246   -0.9758 H   0  0  0  0  0  0  0  0  0  0  0  0
   -3.2025   -0.1991   -3.2749 H   0  0  0  0  0  0  0  0  0  0  0  0
   -2.4282    1.1653   -0.6727 H   0  0  0  0  0  0  0  0  0  0  0  0
   -6.8014   -0.8792   -4.5416 H   0  0  0  0  0  0  0  0  0  0  0  0
   -5.0512   -0.9932   -4.3989 H   0  0  0  0  0  0  0  0  0  0  0  0
   -6.0723   -2.0132   -3.4064 H   0  0  0  0  0  0  0  0  0  0  0  0
   -7.3557   -1.0066   -1.4470 H   0  0  0  0  0  0  0  0  0  0  0  0
   -5.4318   -1.4492   -0.3058 H   0  0  0  0  0  0  0  0  0  0  0  0
   -4.5269   -2.1170   -1.6542 H   0  0  0  0  0  0  0  0  0  0  0  0
   -4.9510    2.9208   -4.5031 H   0  0  0  0  0  0  0  0  0  0  0  0
   -4.6431    1.2577   -4.9579 H   0  0  0  0  0  0  0  0  0  0  0  0
   -7.1491    3.1146   -3.8146 H   0  0  0  0  0  0  0  0  0  0  0  0
   -9.1285    0.4414   -1.4255 H   0  0  0  0  0  0  0  0  0  0  0  0
   -2.7472    2.1591   -3.7472 H   0  0  0  0  0  0  0  0  0  0  0  0
   -3.7585    2.6671   -2.3881 H   0  0  0  0  0  0  0  0  0  0  0  0
   -3.4519   -0.6024    0.7623 H   0  0  0  0  0  0  0  0  0  0  0  0
   -3.2315   -2.3088    0.3978 H   0  0  0  0  0  0  0  0  0  0  0  0
   -0.5325    0.3134   -2.8977 H   0  0  0  0  0  0  0  0  0  0  0  0
   -0.8950    1.9631   -2.4219 H   0  0  0  0  0  0  0  0  0  0  0  0
   -1.5883   -3.0743   -1.2926 H   0  0  0  0  0  0  0  0  0  0  0  0
   -0.6524   -1.9511   -2.2675 H   0  0  0  0  0  0  0  0  0  0  0  0
   -2.3514   -2.2314   -2.6346 H   0  0  0  0  0  0  0  0  0  0  0  0
    1.2749    0.8290   -1.4830 H   0  0  0  0  0  0  0  0  0  0  0  0
    0.3018    1.8701   -0.4369 H   0  0  0  0  0  0  0  0  0  0  0  0
  2  1  1  0  0  0  0 
  3  2  1  0  0  0  0 
  2  4  1  0  0  0  0 
  2  5  1  0  0  0  0 
  6  3  1  0  0  0  0 
  3  7  1  0  0  0  0 
  3 23  1  0  0  0  0 
  4  8  1  0  0  0  0 
  4  9  2  0  0  0  0 
  5 10  2  0  0  0  0 
 11  6  1  0  0  0  0 
  6 12  1  0  0  0  0 
  6 24  1  0  0  0  0 
  7 13  1  0  0  0  0 
  8 12  1  0  0  0  0 
  9 14  1  0  0  0  0 
 10 14  1  0  0  0  0 
 15 11  1  0  0  0  0 
 11 16  1  0  0  0  0 
 11 25  1  0  0  0  0 
 15 13  1  0  0  0  0 
 14 17  2  0  0  0  0 
 15 18  1  0  0  0  0 
 15 19  1  0  0  0  0 
 16 20  1  0  0  0  0 
 19 21  1  0  0  0  0 
 20 21  1  0  0  0  0 
 21 22  2  0  0  0  0 
  1 26  1  0  0  0  0 
  1 27  1  0  0  0  0 
  1 28  1  0  0  0  0 
  5 29  1  0  0  0  0 
  7 30  1  0  0  0  0 
  7 31  1  0  0  0  0 
  8 32  1  0  0  0  0 
  8 33  1  0  0  0  0 
  9 34  1  0  0  0  0 
 10 35  1  0  0  0  0 
 12 36  1  0  0  0  0 
 12 37  1  0  0  0  0 
 13 38  1  0  0  0  0 
 13 39  1  0  0  0  0 
 16 40  1  0  0  0  0 
 16 41  1  0  0  0  0 
 18 42  1  0  0  0  0 
 18 43  1  0  0  0  0 
 18 44  1  0  0  0  0 
 20 45  1  0  0  0  0 
 20 46  1  0  0  0  0 
M  END
> <cdk:Title>
testolactone

> <Conformer>
1

> <SuperDrugID>
SD002345

$$$$
