flumethiazide
  CDK     0628171801

 26 27  0  0  0  0  0  0  0  0999 V2000
   -1.4959   -5.6162    4.0336 O   0  0  0  0  0  0  0  0  0  0  0  0
   -2.1735   -4.2890    4.6265 S   0  0  1  0  0  0  0  0  0  0  0  0
   -2.3376   -4.4023    6.2180 O   0  0  0  0  0  0  0  0  0  0  0  0
   -1.2416   -2.8512    4.1932 C   0  0  0  0  0  0  0  0  0  0  0  0
   -3.7143   -4.0721    3.9075 N   0  0  0  0  0  0  0  0  0  0  0  0
   -1.8785   -1.8971    3.3784 C   0  0  0  0  0  0  0  0  0  0  0  0
    0.0662   -2.6379    4.6533 C   0  0  0  0  0  0  0  0  0  0  0  0
   -3.9726   -2.9955    3.1740 C   0  0  0  0  0  0  0  0  0  0  0  0
   -1.1714   -0.7331    3.0258 C   0  0  0  0  0  0  0  0  0  0  0  0
   -3.1357   -2.0410    2.9479 N   0  0  0  0  0  0  0  0  0  0  0  0
    0.7653   -1.4507    4.3367 C   0  0  0  0  0  0  0  0  0  0  0  0
    0.1459   -0.4734    3.4940 C   0  0  0  0  0  0  0  0  0  0  0  0
    2.4076   -1.3227    5.0189 S   0  0  2  0  0  0  0  0  0  0  0  0
    0.8120    0.8129    3.1055 C   0  0  2  0  0  0  0  0  0  0  0  0
    3.5705   -1.8772    3.8211 N   0  0  2  0  0  0  0  0  0  0  0  0
    2.5781   -2.2585    6.3124 O   0  0  0  0  0  0  0  0  0  0  0  0
    2.7985    0.1726    5.4457 O   0  0  0  0  0  0  0  0  0  0  0  0
    0.8516    1.6616    4.1840 F   0  0  0  0  0  0  0  0  0  0  0  0
    0.1803    1.5174    2.1058 F   0  0  0  0  0  0  0  0  0  0  0  0
    2.0830    0.6076    2.6266 F   0  0  0  0  0  0  0  0  0  0  0  0
   -4.4006   -4.7465    4.0344 H   0  0  0  0  0  0  0  0  0  0  0  0
    0.5005   -3.3608    5.2294 H   0  0  0  0  0  0  0  0  0  0  0  0
   -4.8753   -2.9214    2.7730 H   0  0  0  0  0  0  0  0  0  0  0  0
   -1.6469   -0.0578    2.4228 H   0  0  0  0  0  0  0  0  0  0  0  0
    4.4974   -1.7577    4.2370 H   0  0  0  0  0  0  0  0  0  0  0  0
    3.5140   -1.2317    3.0297 H   0  0  0  0  0  0  0  0  0  0  0  0
  1  2  2  0  0  0  0 
  2  3  2  0  0  0  0 
  2  4  1  0  0  0  0 
  2  5  1  0  0  0  0 
  4  6  2  0  0  0  0 
  4  7  1  0  0  0  0 
  5  8  1  0  0  0  0 
  6  9  1  0  0  0  0 
  6 10  1  0  0  0  0 
  7 11  2  0  0  0  0 
  8 10  2  0  0  0  0 
  9 12  2  0  0  0  0 
 11 12  1  0  0  0  0 
 11 13  1  0  0  0  0 
 12 14  1  0  0  0  0 
 13 15  1  0  0  0  0 
 13 16  2  0  0  0  0 
 13 17  2  0  0  0  0 
 14 18  1  0  0  0  0 
 14 19  1  0  0  0  0 
 14 20  1  0  0  0  0 
  5 21  1  0  0  0  0 
  7 22  1  0  0  0  0 
  8 23  1  0  0  0  0 
  9 24  1  0  0  0  0 
 15 25  1  0  0  0  0 
 15 26  1  0  0  0  0 
M  END
> <cdk:Title>
flumethiazide

> <Conformer>
1

> <SuperDrugID>
SD001073

$$$$
