metrizoic acid
  CDK     0628171801

 32 32  0  0  0  0  0  0  0  0999 V2000
   -0.9265    2.3149   -0.0667 N   0  0  0  0  0  0  0  0  0  0  0  0
   -1.6896    2.0052   -1.1836 C   0  0  0  0  0  0  0  0  0  0  0  0
   -1.3964    3.2817    0.8997 C   0  0  0  0  0  0  0  0  0  0  0  0
    0.2889    1.7062    0.1455 C   0  0  0  0  0  0  0  0  0  0  0  0
   -1.2582    1.0647   -2.2456 C   0  0  0  0  0  0  0  0  0  0  0  0
   -2.8181    2.5352   -1.3412 O   0  0  0  0  0  0  0  0  0  0  0  0
    0.3475    0.4723    0.8344 C   0  0  0  0  0  0  0  0  0  0  0  0
    1.4820    2.2974   -0.3316 C   0  0  0  0  0  0  0  0  0  0  0  0
   -1.3797   -0.3660    1.5918 I   0  0  0  0  0  0  0  0  0  0  0  0
    1.5822   -0.1882    1.0136 C   0  0  0  0  0  0  0  0  0  0  0  0
    1.3734    4.1337   -1.2705 I   0  0  0  0  0  0  0  0  0  0  0  0
    2.7274    1.6457   -0.1496 C   0  0  0  0  0  0  0  0  0  0  0  0
    1.5706   -1.3945    1.6456 N   0  0  0  0  0  0  0  0  0  0  0  0
    2.7705    0.3880    0.5031 C   0  0  0  0  0  0  0  0  0  0  0  0
    3.9189    2.2349   -0.6204 C   0  0  0  0  0  0  0  0  0  0  0  0
    2.1660   -1.6742    2.8370 C   0  0  0  0  0  0  0  0  0  0  0  0
    4.5453   -0.6624    0.6321 I   0  0  0  0  0  0  0  0  0  0  0  0
    4.9193    2.5501    0.2351 O   0  0  0  0  0  0  0  0  0  0  0  0
    4.0850    2.4690   -1.8384 O   0  0  0  0  0  0  0  0  0  0  0  0
    2.0268   -3.0274    3.3982 C   0  0  0  0  0  0  0  0  0  0  0  0
    2.8050   -0.8069    3.4788 O   0  0  0  0  0  0  0  0  0  0  0  0
   -0.7033    3.4333    1.7325 H   0  0  0  0  0  0  0  0  0  0  0  0
   -2.3529    2.9594    1.3182 H   0  0  0  0  0  0  0  0  0  0  0  0
   -1.5376    4.2489    0.4124 H   0  0  0  0  0  0  0  0  0  0  0  0
   -1.0153    0.0937   -1.8110 H   0  0  0  0  0  0  0  0  0  0  0  0
   -2.0395    0.9140   -2.9948 H   0  0  0  0  0  0  0  0  0  0  0  0
   -0.3772    1.4651   -2.7501 H   0  0  0  0  0  0  0  0  0  0  0  0
    1.0413   -2.1002    1.2394 H   0  0  0  0  0  0  0  0  0  0  0  0
    4.8115    2.3904    1.1961 H   0  0  0  0  0  0  0  0  0  0  0  0
    2.5422   -3.1145    4.3574 H   0  0  0  0  0  0  0  0  0  0  0  0
    2.4464   -3.7576    2.7041 H   0  0  0  0  0  0  0  0  0  0  0  0
    0.9704   -3.2518    3.5525 H   0  0  0  0  0  0  0  0  0  0  0  0
  1  2  1  0  0  0  0 
  1  3  1  0  0  0  0 
  1  4  1  0  0  0  0 
  2  5  1  0  0  0  0 
  2  6  2  0  0  0  0 
  4  7  2  0  0  0  0 
  4  8  1  0  0  0  0 
  7  9  1  0  0  0  0 
  7 10  1  0  0  0  0 
  8 11  1  0  0  0  0 
  8 12  2  0  0  0  0 
 10 13  1  0  0  0  0 
 10 14  2  0  0  0  0 
 12 14  1  0  0  0  0 
 12 15  1  0  0  0  0 
 13 16  1  0  0  0  0 
 14 17  1  0  0  0  0 
 15 18  1  0  0  0  0 
 15 19  2  0  0  0  0 
 16 20  1  0  0  0  0 
 16 21  2  0  0  0  0 
  3 22  1  0  0  0  0 
  3 23  1  0  0  0  0 
  3 24  1  0  0  0  0 
  5 25  1  0  0  0  0 
  5 26  1  0  0  0  0 
  5 27  1  0  0  0  0 
 13 28  1  0  0  0  0 
 18 29  1  0  0  0  0 
 20 30  1  0  0  0  0 
 20 31  1  0  0  0  0 
 20 32  1  0  0  0  0 
M  END
> <cdk:Title>
metrizoic acid

> <Conformer>
1

> <SuperDrugID>
SD001589

$$$$
