chloropyrilene
  CDK     0628171802

 37 38  0  0  0  0  0  0  0  0999 V2000
    0.0417   -2.1495    0.1647 N   0  0  0  0  0  0  0  0  0  0  0  0
   -1.0519   -1.4707   -0.5147 C   0  0  1  0  0  0  0  0  0  0  0  0
    1.0222   -2.8583   -0.6357 C   0  0  1  0  0  0  0  0  0  0  0  0
    0.0834   -2.1701    1.5482 C   0  0  0  0  0  0  0  0  0  0  0  0
   -1.3891   -0.1427    0.0370 C   0  0  0  0  0  0  0  0  0  0  0  0
    0.4211   -4.0549   -1.4171 C   0  0  1  0  0  0  0  0  0  0  0  0
    1.2728   -2.0479    2.3085 C   0  0  0  0  0  0  0  0  0  0  0  0
   -1.0943   -2.2732    2.2272 N   0  0  0  0  0  0  0  0  0  0  0  0
   -0.5420    0.9648    0.1717 C   0  0  0  0  0  0  0  0  0  0  0  0
   -2.9477    0.3347    0.6903 S   0  0  0  0  0  0  0  0  0  0  0  0
    1.4880   -4.6430   -2.2866 N   0  0  1  0  0  0  0  0  0  0  0  0
    1.2049   -2.0318    3.7127 C   0  0  0  0  0  0  0  0  0  0  0  0
   -1.1986   -2.2548    3.5774 C   0  0  0  0  0  0  0  0  0  0  0  0
   -1.1268    2.1041    0.7542 C   0  0  0  0  0  0  0  0  0  0  0  0
   -2.4689    1.9646    1.1194 C   0  0  0  0  0  0  0  0  0  0  0  0
    2.0886   -5.8977   -1.7667 C   0  0  0  0  0  0  0  0  0  0  0  0
    1.1873   -4.6790   -3.7438 C   0  0  0  0  0  0  0  0  0  0  0  0
   -0.0392   -2.1271    4.3575 C   0  0  0  0  0  0  0  0  0  0  0  0
   -3.4641    3.1300    1.8286 Cl  0  0  0  0  0  0  0  0  0  0  0  0
   -0.8384   -1.3167   -1.5769 H   0  0  0  0  0  0  0  0  0  0  0  0
   -1.9339   -2.1122   -0.4551 H   0  0  0  0  0  0  0  0  0  0  0  0
    1.4784   -2.1596   -1.3423 H   0  0  0  0  0  0  0  0  0  0  0  0
    1.8343   -3.2607   -0.0277 H   0  0  0  0  0  0  0  0  0  0  0  0
    0.0261   -4.7829   -0.6991 H   0  0  0  0  0  0  0  0  0  0  0  0
   -0.4286   -3.7147   -2.0156 H   0  0  0  0  0  0  0  0  0  0  0  0
    2.1862   -1.9533    1.8611 H   0  0  0  0  0  0  0  0  0  0  0  0
    0.4350    0.9466   -0.1223 H   0  0  0  0  0  0  0  0  0  0  0  0
    2.0604   -1.9439    4.2648 H   0  0  0  0  0  0  0  0  0  0  0  0
   -2.1171   -2.3341    4.0155 H   0  0  0  0  0  0  0  0  0  0  0  0
   -0.6085    2.9717    0.8998 H   0  0  0  0  0  0  0  0  0  0  0  0
    3.0056   -6.1237   -2.3122 H   0  0  0  0  0  0  0  0  0  0  0  0
    2.3516   -5.7837   -0.7138 H   0  0  0  0  0  0  0  0  0  0  0  0
    1.3873   -6.7299   -1.8681 H   0  0  0  0  0  0  0  0  0  0  0  0
    0.8007   -3.7150   -4.0804 H   0  0  0  0  0  0  0  0  0  0  0  0
    2.1006   -4.8769   -4.3055 H   0  0  0  0  0  0  0  0  0  0  0  0
    0.4524   -5.4535   -3.9738 H   0  0  0  0  0  0  0  0  0  0  0  0
   -0.1006   -2.1012    5.3766 H   0  0  0  0  0  0  0  0  0  0  0  0
  1  2  1  0  0  0  0 
  1  3  1  0  0  0  0 
  1  4  1  0  0  0  0 
  2  5  1  0  0  0  0 
  3  6  1  0  0  0  0 
  4  7  2  0  0  0  0 
  4  8  1  0  0  0  0 
  5  9  2  0  0  0  0 
  5 10  1  0  0  0  0 
  6 11  1  0  0  0  0 
  7 12  1  0  0  0  0 
  8 13  2  0  0  0  0 
  9 14  1  0  0  0  0 
 10 15  1  0  0  0  0 
 11 16  1  0  0  0  0 
 11 17  1  0  0  0  0 
 12 18  2  0  0  0  0 
 13 18  1  0  0  0  0 
 14 15  2  0  0  0  0 
 15 19  1  0  0  0  0 
  2 20  1  0  0  0  0 
  2 21  1  0  0  0  0 
  3 22  1  0  0  0  0 
  3 23  1  0  0  0  0 
  6 24  1  0  0  0  0 
  6 25  1  0  0  0  0 
  7 26  1  0  0  0  0 
  9 27  1  0  0  0  0 
 12 28  1  0  0  0  0 
 13 29  1  0  0  0  0 
 14 30  1  0  0  0  0 
 16 31  1  0  0  0  0 
 16 32  1  0  0  0  0 
 16 33  1  0  0  0  0 
 17 34  1  0  0  0  0 
 17 35  1  0  0  0  0 
 17 36  1  0  0  0  0 
 18 37  1  0  0  0  0 
M  END
> <cdk:Title>
chloropyrilene

> <Conformer>
1

> <SuperDrugID>
SD000530

$$$$
