ethchlorvynol
  CDK     0628171801

 18 17  0  0  0  0  0  0  0  0999 V2000
    1.1890    1.4559   -0.6775 C   0  0  0  0  0  0  0  0  0  0  0  0
    2.4372    0.5532   -0.8489 C   0  0  1  0  0  0  0  0  0  0  0  0
    3.5307    0.7255    0.2576 C   0  0  1  0  0  0  0  0  0  0  0  0
    4.0878    2.0382    0.1478 O   0  0  0  0  0  0  0  0  0  0  0  0
    2.9917    0.4228    1.5861 C   0  0  0  0  0  0  0  0  0  0  0  0
    2.8736    1.3012    2.5934 C   0  0  0  0  0  0  0  0  0  0  0  0
    4.5977   -0.1111    0.0195 C   0  0  0  0  0  0  0  0  0  0  0  0
    5.5326   -0.8262   -0.1858 C   0  0  0  0  0  0  0  0  0  0  0  0
    2.1757    0.8724    4.0388 Cl  0  0  0  0  0  0  0  0  0  0  0  0
    0.6751    1.2354    0.2593 H   0  0  0  0  0  0  0  0  0  0  0  0
    0.4901    1.2791   -1.4961 H   0  0  0  0  0  0  0  0  0  0  0  0
    1.4717    2.5094   -0.6883 H   0  0  0  0  0  0  0  0  0  0  0  0
    2.0925   -0.4842   -0.8781 H   0  0  0  0  0  0  0  0  0  0  0  0
    2.8717    0.7773   -1.8287 H   0  0  0  0  0  0  0  0  0  0  0  0
    3.3507    2.6538    0.3392 H   0  0  0  0  0  0  0  0  0  0  0  0
    2.6548   -0.5032    1.7381 H   0  0  0  0  0  0  0  0  0  0  0  0
    3.1820    2.2381    2.4976 H   0  0  0  0  0  0  0  0  0  0  0  0
    6.2539   -1.3776   -0.3428 H   0  0  0  0  0  0  0  0  0  0  0  0
  1  2  1  0  0  0  0 
  3  2  1  0  0  0  0 
  3  4  1  0  0  0  0 
  3  5  1  0  0  0  0 
  5  6  2  0  0  0  0 
  3  7  1  0  0  0  0 
  7  8  3  0  0  0  0 
  6  9  1  0  0  0  0 
  1 10  1  0  0  0  0 
  1 11  1  0  0  0  0 
  1 12  1  0  0  0  0 
  2 13  1  0  0  0  0 
  2 14  1  0  0  0  0 
  4 15  1  0  0  0  0 
  5 16  1  0  0  0  0 
  6 17  1  0  0  0  0 
  8 18  1  0  0  0  0 
M  END
> <cdk:Title>
ethchlorvynol

> <Conformer>
1

> <SuperDrugID>
SD000962

$$$$
