valproic acid
  CDK     0628171801

 26 25  0  0  0  0  0  0  0  0999 V2000
    2.3234    3.6741   -4.0459 C   0  0  0  0  0  0  0  0  0  0  0  0
    1.8170    2.2154   -3.9952 C   0  0  2  0  0  0  0  0  0  0  0  0
    2.1943    1.4891   -2.6730 C   0  0  1  0  0  0  0  0  0  0  0  0
    1.6421    0.0305   -2.5514 C   0  0  2  0  0  0  0  0  0  0  0  0
    2.0144   -0.6790   -1.2074 C   0  0  2  0  0  0  0  0  0  0  0  0
    1.4313   -0.0189    0.0711 C   0  0  1  0  0  0  0  0  0  0  0  0
    1.7876   -0.8022    1.3543 C   0  0  0  0  0  0  0  0  0  0  0  0
    2.1052   -0.8184   -3.6826 C   0  0  0  0  0  0  0  0  0  0  0  0
    1.2270   -1.3370   -4.5724 O   0  0  0  0  0  0  0  0  0  0  0  0
    3.3212   -1.0749   -3.8466 O   0  0  0  0  0  0  0  0  0  0  0  0
    3.4124    3.6943   -3.9867 H   0  0  0  0  0  0  0  0  0  0  0  0
    1.9105    4.2529   -3.2176 H   0  0  0  0  0  0  0  0  0  0  0  0
    2.0143    4.1413   -4.9833 H   0  0  0  0  0  0  0  0  0  0  0  0
    2.2385    1.6776   -4.8470 H   0  0  0  0  0  0  0  0  0  0  0  0
    0.7303    2.2192   -4.1041 H   0  0  0  0  0  0  0  0  0  0  0  0
    3.2808    1.4758   -2.5724 H   0  0  0  0  0  0  0  0  0  0  0  0
    1.7941    2.0875   -1.8525 H   0  0  0  0  0  0  0  0  0  0  0  0
    0.5493    0.0898   -2.5982 H   0  0  0  0  0  0  0  0  0  0  0  0
    3.1034   -0.7194   -1.1103 H   0  0  0  0  0  0  0  0  0  0  0  0
    1.6470   -1.7116   -1.2442 H   0  0  0  0  0  0  0  0  0  0  0  0
    1.8296    0.9912    0.1811 H   0  0  0  0  0  0  0  0  0  0  0  0
    0.3445    0.0473   -0.0150 H   0  0  0  0  0  0  0  0  0  0  0  0
    1.3815   -0.2871    2.2269 H   0  0  0  0  0  0  0  0  0  0  0  0
    2.8716   -0.8678    1.4663 H   0  0  0  0  0  0  0  0  0  0  0  0
    1.3725   -1.8109    1.3182 H   0  0  0  0  0  0  0  0  0  0  0  0
    1.5556   -1.8983   -5.3055 H   0  0  0  0  0  0  0  0  0  0  0  0
  1  2  1  0  0  0  0 
  2  3  1  0  0  0  0 
  3  4  1  0  0  0  0 
  4  5  1  0  0  0  0 
  5  6  1  0  0  0  0 
  6  7  1  0  0  0  0 
  4  8  1  0  0  0  0 
  8  9  1  0  0  0  0 
  8 10  2  0  0  0  0 
  1 11  1  0  0  0  0 
  1 12  1  0  0  0  0 
  1 13  1  0  0  0  0 
  2 14  1  0  0  0  0 
  2 15  1  0  0  0  0 
  3 16  1  0  0  0  0 
  3 17  1  0  0  0  0 
  4 18  1  0  0  0  0 
  5 19  1  0  0  0  0 
  5 20  1  0  0  0  0 
  6 21  1  0  0  0  0 
  6 22  1  0  0  0  0 
  7 23  1  0  0  0  0 
  7 24  1  0  0  0  0 
  7 25  1  0  0  0  0 
  9 26  1  0  0  0  0 
M  END
> <cdk:Title>
valproic acid

> <Conformer>
1

> <SuperDrugID>
SD002528

$$$$
