prednisolone succinate
  CDK     0628171801

 65 68  0  0  0  0  0  0  0  0999 V2000
   -3.4176   -1.1728    0.8220 C   0  0  0  0  0  0  0  0  0  0  0  0
   -2.8758   -2.6510    0.7000 C   0  0  2  0  0  0  0  0  0  0  0  0
   -3.8590   -3.7471    1.2226 C   0  0  2  0  0  0  0  0  0  0  0  0
   -1.6763   -2.8585    1.7124 C   0  0  2  0  0  0  0  0  0  0  0  0
   -2.6069   -2.9883   -0.8122 C   0  0  2  0  0  0  0  0  0  0  0  0
   -5.2334   -3.7971    0.4815 C   0  0  1  0  0  0  0  0  0  0  0  0
   -3.8418   -3.5725    2.7563 C   0  0  1  0  0  0  0  0  0  0  0  0
   -0.6413   -1.7692    1.7263 C   0  0  0  0  0  0  0  0  0  0  0  0
   -0.9727   -4.0780    1.4308 O   0  0  0  0  0  0  0  0  0  0  0  0
   -2.4029   -3.0982    3.0844 C   0  0  2  0  0  0  0  0  0  0  0  0
   -3.9047   -3.1290   -1.6849 C   0  0  1  0  0  0  0  0  0  0  0  0
   -5.0140   -4.0676   -1.0609 C   0  0  2  0  0  0  0  0  0  0  0  0
   -6.1582   -4.8925    1.0991 C   0  0  1  0  0  0  0  0  0  0  0  0
    0.4137   -1.6323    0.6984 C   0  0  2  0  0  0  0  0  0  0  0  0
   -0.6585   -0.8814    2.6124 O   0  0  0  0  0  0  0  0  0  0  0  0
   -4.3939   -1.8321   -2.0169 O   0  0  0  0  0  0  0  0  0  0  0  0
   -6.4012   -4.2128   -1.8428 C   0  0  2  0  0  0  0  0  0  0  0  0
   -7.4771   -5.0727    0.3143 C   0  0  2  0  0  0  0  0  0  0  0  0
    0.0785   -0.5408   -0.1614 O   0  0  0  0  0  0  0  0  0  0  0  0
   -7.2556   -2.8936   -1.9110 C   0  0  0  0  0  0  0  0  0  0  0  0
   -7.2186   -5.2478   -1.1213 C   0  0  0  0  0  0  0  0  0  0  0  0
   -6.1572   -4.5879   -3.2595 C   0  0  0  0  0  0  0  0  0  0  0  0
    0.8678    0.4969   -0.5668 C   0  0  0  0  0  0  0  0  0  0  0  0
   -7.6958   -6.3420   -1.7579 C   0  0  0  0  0  0  0  0  0  0  0  0
   -6.6660   -5.6911   -3.8319 C   0  0  0  0  0  0  0  0  0  0  0  0
    0.2808    1.4989   -1.4761 C   0  0  2  0  0  0  0  0  0  0  0  0
    2.0594    0.6014   -0.1900 O   0  0  0  0  0  0  0  0  0  0  0  0
   -7.4524   -6.5637   -3.1019 C   0  0  0  0  0  0  0  0  0  0  0  0
   -0.3045    0.8502   -2.7563 C   0  0  2  0  0  0  0  0  0  0  0  0
   -7.9452   -7.5711   -3.6606 O   0  0  0  0  0  0  0  0  0  0  0  0
   -1.1164    1.8752   -3.5830 C   0  0  0  0  0  0  0  0  0  0  0  0
   -2.4572    1.6956   -3.8829 O   0  0  0  0  0  0  0  0  0  0  0  0
   -0.6618    2.9632   -4.0624 O   0  0  0  0  0  0  0  0  0  0  0  0
   -4.3691   -1.0298    0.3192 H   0  0  0  0  0  0  0  0  0  0  0  0
   -3.5616   -0.8711    1.8605 H   0  0  0  0  0  0  0  0  0  0  0  0
   -2.7089   -0.4752    0.3724 H   0  0  0  0  0  0  0  0  0  0  0  0
   -3.4099   -4.7340    1.0395 H   0  0  0  0  0  0  0  0  0  0  0  0
   -2.0596   -3.9327   -0.8797 H   0  0  0  0  0  0  0  0  0  0  0  0
   -1.9576   -2.2257   -1.2517 H   0  0  0  0  0  0  0  0  0  0  0  0
   -5.7336   -2.8389    0.6199 H   0  0  0  0  0  0  0  0  0  0  0  0
   -4.5794   -2.8255    3.0625 H   0  0  0  0  0  0  0  0  0  0  0  0
   -4.0712   -4.5150    3.2593 H   0  0  0  0  0  0  0  0  0  0  0  0
   -0.3048   -4.1623    2.1432 H   0  0  0  0  0  0  0  0  0  0  0  0
   -2.4649   -2.1857    3.6833 H   0  0  0  0  0  0  0  0  0  0  0  0
   -1.8821   -3.8434    3.6940 H   0  0  0  0  0  0  0  0  0  0  0  0
   -3.5889   -3.5701   -2.6357 H   0  0  0  0  0  0  0  0  0  0  0  0
   -4.5538   -5.0647   -1.1153 H   0  0  0  0  0  0  0  0  0  0  0  0
   -5.6321   -5.8526    1.1206 H   0  0  0  0  0  0  0  0  0  0  0  0
   -6.4082   -4.6267    2.1302 H   0  0  0  0  0  0  0  0  0  0  0  0
    0.4786   -2.5225    0.0722 H   0  0  0  0  0  0  0  0  0  0  0  0
    1.3820   -1.4897    1.1876 H   0  0  0  0  0  0  0  0  0  0  0  0
   -3.6561   -1.3973   -2.4976 H   0  0  0  0  0  0  0  0  0  0  0  0
   -8.1174   -4.2021    0.4679 H   0  0  0  0  0  0  0  0  0  0  0  0
   -8.0060   -5.9241    0.7521 H   0  0  0  0  0  0  0  0  0  0  0  0
   -6.8064   -2.1444   -2.5630 H   0  0  0  0  0  0  0  0  0  0  0  0
   -7.3877   -2.4344   -0.9316 H   0  0  0  0  0  0  0  0  0  0  0  0
   -8.2521   -3.1022   -2.3115 H   0  0  0  0  0  0  0  0  0  0  0  0
   -5.6119   -3.9864   -3.8332 H   0  0  0  0  0  0  0  0  0  0  0  0
   -8.2342   -7.0167   -1.2635 H   0  0  0  0  0  0  0  0  0  0  0  0
   -6.4798   -5.8782   -4.7921 H   0  0  0  0  0  0  0  0  0  0  0  0
    1.0412    2.2317   -1.7630 H   0  0  0  0  0  0  0  0  0  0  0  0
   -0.5096    2.0250   -0.9343 H   0  0  0  0  0  0  0  0  0  0  0  0
   -0.9727    0.0262   -2.4970 H   0  0  0  0  0  0  0  0  0  0  0  0
    0.5049    0.4589   -3.3760 H   0  0  0  0  0  0  0  0  0  0  0  0
   -2.9441    2.3694   -4.4036 H   0  0  0  0  0  0  0  0  0  0  0  0
  2  1  1  0  0  0  0 
  3  2  1  0  0  0  0 
  2  4  1  0  0  0  0 
  2  5  1  0  0  0  0 
  6  3  1  0  0  0  0 
  3  7  1  0  0  0  0 
  4  8  1  0  0  0  0 
  4  9  1  0  0  0  0 
  4 10  1  0  0  0  0 
 11  5  1  0  0  0  0 
 12  6  1  0  0  0  0 
  6 13  1  0  0  0  0 
  7 10  1  0  0  0  0 
  8 14  1  0  0  0  0 
  8 15  2  0  0  0  0 
 12 11  1  0  0  0  0 
 11 16  1  0  0  0  0 
 12 17  1  0  0  0  0 
 13 18  1  0  0  0  0 
 14 19  1  0  0  0  0 
 17 20  1  0  0  0  0 
 17 21  1  0  0  0  0 
 17 22  1  0  0  0  0 
 18 21  1  0  0  0  0 
 19 23  1  0  0  0  0 
 21 24  2  0  0  0  0 
 22 25  2  0  0  0  0 
 23 26  1  0  0  0  0 
 23 27  2  0  0  0  0 
 24 28  1  0  0  0  0 
 25 28  1  0  0  0  0 
 26 29  1  0  0  0  0 
 28 30  2  0  0  0  0 
 29 31  1  0  0  0  0 
 31 32  1  0  0  0  0 
 31 33  2  0  0  0  0 
 34  1  1  0  0  0  0 
 35  1  1  0  0  0  0 
 36  1  1  0  0  0  0 
  3 37  1  0  0  0  0 
 38  5  1  0  0  0  0 
 39  5  1  0  0  0  0 
  6 40  1  0  0  0  0 
 41  7  1  0  0  0  0 
 42  7  1  0  0  0  0 
 43  9  1  0  0  0  0 
 44 10  1  0  0  0  0 
 45 10  1  0  0  0  0 
 11 46  1  0  0  0  0 
 12 47  1  0  0  0  0 
 48 13  1  0  0  0  0 
 49 13  1  0  0  0  0 
 50 14  1  0  0  0  0 
 51 14  1  0  0  0  0 
 52 16  1  0  0  0  0 
 53 18  1  0  0  0  0 
 54 18  1  0  0  0  0 
 55 20  1  0  0  0  0 
 56 20  1  0  0  0  0 
 57 20  1  0  0  0  0 
 58 22  1  0  0  0  0 
 59 24  1  0  0  0  0 
 60 25  1  0  0  0  0 
 61 26  1  0  0  0  0 
 62 26  1  0  0  0  0 
 63 29  1  0  0  0  0 
 64 29  1  0  0  0  0 
 65 32  1  0  0  0  0 
M  END
> <cdk:Title>
prednisolone succinate

> <Conformer>
1

> <SuperDrugID>
SD002014

$$$$
