talipexole
  CDK     0628171801

 29 30  0  0  0  0  0  0  0  0999 V2000
    3.1111   -6.0905   -6.2625 N   0  0  0  0  0  0  0  0  0  0  0  0
    2.2970   -5.4397   -5.4153 C   0  0  0  0  0  0  0  0  0  0  0  0
    2.4467   -4.1663   -4.9962 N   0  0  0  0  0  0  0  0  0  0  0  0
    0.8671   -6.0762   -4.6226 S   0  0  0  0  0  0  0  0  0  0  0  0
    1.5245   -3.6975   -4.1058 C   0  0  0  0  0  0  0  0  0  0  0  0
    0.5229   -4.6080   -3.7266 C   0  0  0  0  0  0  0  0  0  0  0  0
    1.6018   -2.3224   -3.5735 C   0  0  1  0  0  0  0  0  0  0  0  0
   -0.5722   -4.3989   -2.7640 C   0  0  2  0  0  0  0  0  0  0  0  0
    1.7150   -2.2707   -2.0258 C   0  0  1  0  0  0  0  0  0  0  0  0
   -0.0637   -3.9550   -1.3672 C   0  0  2  0  0  0  0  0  0  0  0  0
    0.4172   -2.5269   -1.3024 N   0  0  1  0  0  0  0  0  0  0  0  0
    0.4354   -1.9757    0.0999 C   0  0  2  0  0  0  0  0  0  0  0  0
   -0.8862   -1.8192    0.6855 C   0  0  0  0  0  0  0  0  0  0  0  0
   -1.8024   -0.9680    0.2103 C   0  0  0  0  0  0  0  0  0  0  0  0
    2.9242   -7.0074   -6.5176 H   0  0  0  0  0  0  0  0  0  0  0  0
    3.9015   -5.6472   -6.6108 H   0  0  0  0  0  0  0  0  0  0  0  0
    2.4764   -1.8233   -4.0043 H   0  0  0  0  0  0  0  0  0  0  0  0
    0.7181   -1.7651   -3.8926 H   0  0  0  0  0  0  0  0  0  0  0  0
   -1.1242   -5.3364   -2.6563 H   0  0  0  0  0  0  0  0  0  0  0  0
   -1.2624   -3.6524   -3.1597 H   0  0  0  0  0  0  0  0  0  0  0  0
    2.4905   -2.9613   -1.6789 H   0  0  0  0  0  0  0  0  0  0  0  0
    2.0726   -1.2616   -1.7953 H   0  0  0  0  0  0  0  0  0  0  0  0
    0.7189   -4.6377   -1.0221 H   0  0  0  0  0  0  0  0  0  0  0  0
   -0.9113   -4.0916   -0.6910 H   0  0  0  0  0  0  0  0  0  0  0  0
    0.8969   -0.9818    0.1237 H   0  0  0  0  0  0  0  0  0  0  0  0
    1.0469   -2.6237    0.7381 H   0  0  0  0  0  0  0  0  0  0  0  0
   -1.1232   -2.3782    1.4743 H   0  0  0  0  0  0  0  0  0  0  0  0
   -1.6118   -0.3935   -0.5769 H   0  0  0  0  0  0  0  0  0  0  0  0
   -2.6918   -0.8980    0.6456 H   0  0  0  0  0  0  0  0  0  0  0  0
  1  2  1  0  0  0  0 
  2  3  2  0  0  0  0 
  2  4  1  0  0  0  0 
  3  5  1  0  0  0  0 
  4  6  1  0  0  0  0 
  5  6  2  0  0  0  0 
  5  7  1  0  0  0  0 
  6  8  1  0  0  0  0 
  7  9  1  0  0  0  0 
  8 10  1  0  0  0  0 
  9 11  1  0  0  0  0 
 10 11  1  0  0  0  0 
 11 12  1  0  0  0  0 
 12 13  1  0  0  0  0 
 13 14  2  0  0  0  0 
  1 15  1  0  0  0  0 
  1 16  1  0  0  0  0 
  7 17  1  0  0  0  0 
  7 18  1  0  0  0  0 
  8 19  1  0  0  0  0 
  8 20  1  0  0  0  0 
  9 21  1  0  0  0  0 
  9 22  1  0  0  0  0 
 10 23  1  0  0  0  0 
 10 24  1  0  0  0  0 
 12 25  1  0  0  0  0 
 12 26  1  0  0  0  0 
 13 27  1  0  0  0  0 
 14 28  1  0  0  0  0 
 14 29  1  0  0  0  0 
M  END
> <cdk:Title>
talipexole

> <Conformer>
1

> <SuperDrugID>
SD002302

$$$$
