chlorothiazide
  CDK     0628171802

 23 24  0  0  0  0  0  0  0  0999 V2000
    7.9292    1.4840    1.3543 N   0  0  2  0  0  0  0  0  0  0  0  0
    6.5796    2.6117    1.3517 S   0  0  2  0  0  0  0  0  0  0  0  0
    7.1860    4.0975    1.3656 O   0  0  0  0  0  0  0  0  0  0  0  0
    5.7514    2.4046    2.7092 O   0  0  0  0  0  0  0  0  0  0  0  0
    5.5816    2.3379   -0.0935 C   0  0  0  0  0  0  0  0  0  0  0  0
    4.5637    1.3510   -0.1718 C   0  0  0  0  0  0  0  0  0  0  0  0
    4.1759    0.3251    1.1232 Cl  0  0  0  0  0  0  0  0  0  0  0  0
    3.8246    1.1912   -1.3646 C   0  0  0  0  0  0  0  0  0  0  0  0
    4.0740    2.0030   -2.4879 C   0  0  0  0  0  0  0  0  0  0  0  0
    3.3217    1.8386   -3.5804 N   0  0  0  0  0  0  0  0  0  0  0  0
    3.3575    2.4796   -4.6991 C   0  0  0  0  0  0  0  0  0  0  0  0
    4.2025    3.4654   -4.9833 N   0  0  0  0  0  0  0  0  0  0  0  0
    5.3974    3.9429   -3.8497 S   0  0  2  0  0  0  0  0  0  0  0  0
    5.2578    5.5092   -3.5371 O   0  0  0  0  0  0  0  0  0  0  0  0
    6.8529    3.6236   -4.4424 O   0  0  0  0  0  0  0  0  0  0  0  0
    5.0974    2.9713   -2.4060 C   0  0  0  0  0  0  0  0  0  0  0  0
    5.8418    3.1391   -1.2263 C   0  0  0  0  0  0  0  0  0  0  0  0
    8.5077    1.7203    2.1636 H   0  0  0  0  0  0  0  0  0  0  0  0
    8.4912    1.6902    0.5264 H   0  0  0  0  0  0  0  0  0  0  0  0
    3.0911    0.4792   -1.4158 H   0  0  0  0  0  0  0  0  0  0  0  0
    2.7043    2.2191   -5.3958 H   0  0  0  0  0  0  0  0  0  0  0  0
    4.1451    3.9177   -5.8404 H   0  0  0  0  0  0  0  0  0  0  0  0
    6.5773    3.8485   -1.2034 H   0  0  0  0  0  0  0  0  0  0  0  0
  1  2  1  0  0  0  0 
  2  3  2  0  0  0  0 
  2  4  2  0  0  0  0 
  2  5  1  0  0  0  0 
  5  6  2  0  0  0  0 
  6  7  1  0  0  0  0 
  6  8  1  0  0  0  0 
  8  9  2  0  0  0  0 
  9 10  1  0  0  0  0 
 10 11  2  0  0  0  0 
 11 12  1  0  0  0  0 
 12 13  1  0  0  0  0 
 13 14  2  0  0  0  0 
 13 15  2  0  0  0  0 
 13 16  1  0  0  0  0 
  9 16  1  0  0  0  0 
 16 17  2  0  0  0  0 
  5 17  1  0  0  0  0 
  1 18  1  0  0  0  0 
  1 19  1  0  0  0  0 
  8 20  1  0  0  0  0 
 11 21  1  0  0  0  0 
 12 22  1  0  0  0  0 
 17 23  1  0  0  0  0 
M  END
> <cdk:Title>
chlorothiazide

> <Conformer>
1

> <SuperDrugID>
SD000531

$$$$
