acedapsone
  CDK     0628171801

 39 40  0  0  0  0  0  0  0  0999 V2000
    2.7194    5.1055   -1.1288 S   0  0  1  0  0  0  0  0  0  0  0  0
    3.5272    3.7340   -0.9146 O   0  0  0  0  0  0  0  0  0  0  0  0
    1.4353    5.0720   -0.1639 O   0  0  0  0  0  0  0  0  0  0  0  0
    3.7722    6.4756   -0.7119 C   0  0  0  0  0  0  0  0  0  0  0  0
    2.2052    5.2454   -2.8248 C   0  0  0  0  0  0  0  0  0  0  0  0
    5.0748    6.5503   -1.2432 C   0  0  0  0  0  0  0  0  0  0  0  0
    3.3169    7.5034    0.1357 C   0  0  0  0  0  0  0  0  0  0  0  0
    3.0544    4.8129   -3.8629 C   0  0  0  0  0  0  0  0  0  0  0  0
    0.9666    5.8310   -3.1534 C   0  0  0  0  0  0  0  0  0  0  0  0
    5.9015    7.6519   -0.9528 C   0  0  0  0  0  0  0  0  0  0  0  0
    4.1459    8.6020    0.4264 C   0  0  0  0  0  0  0  0  0  0  0  0
    2.6831    4.9895   -5.2085 C   0  0  0  0  0  0  0  0  0  0  0  0
    0.5944    5.9995   -4.5004 C   0  0  0  0  0  0  0  0  0  0  0  0
    5.4405    8.7057   -0.1278 C   0  0  0  0  0  0  0  0  0  0  0  0
    1.4465    5.5887   -5.5514 C   0  0  0  0  0  0  0  0  0  0  0  0
    6.1514    9.8271    0.2030 N   0  0  0  0  0  0  0  0  0  0  0  0
    1.0126    5.8526   -6.8238 N   0  0  0  0  0  0  0  0  0  0  0  0
    7.2107   10.4094   -0.4283 C   0  0  0  0  0  0  0  0  0  0  0  0
    1.4345    5.3475   -8.0196 C   0  0  0  0  0  0  0  0  0  0  0  0
    7.8036   11.6107    0.1850 C   0  0  0  0  0  0  0  0  0  0  0  0
    7.6855    9.9873   -1.5090 O   0  0  0  0  0  0  0  0  0  0  0  0
    0.8417    5.8603   -9.2678 C   0  0  0  0  0  0  0  0  0  0  0  0
    2.2913    4.4384   -8.1172 O   0  0  0  0  0  0  0  0  0  0  0  0
    5.4287    5.8048   -1.8465 H   0  0  0  0  0  0  0  0  0  0  0  0
    2.3799    7.4653    0.5417 H   0  0  0  0  0  0  0  0  0  0  0  0
    3.9561    4.3819   -3.6478 H   0  0  0  0  0  0  0  0  0  0  0  0
    0.3325    6.1483   -2.4167 H   0  0  0  0  0  0  0  0  0  0  0  0
    6.8432    7.6622   -1.3416 H   0  0  0  0  0  0  0  0  0  0  0  0
    3.7893    9.3346    1.0447 H   0  0  0  0  0  0  0  0  0  0  0  0
    3.3449    4.6988   -5.9270 H   0  0  0  0  0  0  0  0  0  0  0  0
   -0.3074    6.4381   -4.7104 H   0  0  0  0  0  0  0  0  0  0  0  0
    5.8409   10.2966    0.9931 H   0  0  0  0  0  0  0  0  0  0  0  0
    0.2862    6.4934   -6.8844 H   0  0  0  0  0  0  0  0  0  0  0  0
    8.6155   12.0089   -0.4275 H   0  0  0  0  0  0  0  0  0  0  0  0
    7.0428   12.3862    0.2988 H   0  0  0  0  0  0  0  0  0  0  0  0
    8.2013   11.3638    1.1695 H   0  0  0  0  0  0  0  0  0  0  0  0
    0.2684    5.0703   -9.7542 H   0  0  0  0  0  0  0  0  0  0  0  0
    1.6318    6.1888   -9.9450 H   0  0  0  0  0  0  0  0  0  0  0  0
    0.1761    6.7062   -9.0828 H   0  0  0  0  0  0  0  0  0  0  0  0
  1  2  2  0  0  0  0 
  1  3  2  0  0  0  0 
  1  4  1  0  0  0  0 
  1  5  1  0  0  0  0 
  4  6  2  0  0  0  0 
  4  7  1  0  0  0  0 
  5  8  2  0  0  0  0 
  5  9  1  0  0  0  0 
  6 10  1  0  0  0  0 
  7 11  2  0  0  0  0 
  8 12  1  0  0  0  0 
  9 13  2  0  0  0  0 
 10 14  2  0  0  0  0 
 11 14  1  0  0  0  0 
 12 15  2  0  0  0  0 
 13 15  1  0  0  0  0 
 14 16  1  0  0  0  0 
 15 17  1  0  0  0  0 
 16 18  1  0  0  0  0 
 17 19  1  0  0  0  0 
 18 20  1  0  0  0  0 
 18 21  2  0  0  0  0 
 19 22  1  0  0  0  0 
 19 23  2  0  0  0  0 
  6 24  1  0  0  0  0 
  7 25  1  0  0  0  0 
  8 26  1  0  0  0  0 
  9 27  1  0  0  0  0 
 10 28  1  0  0  0  0 
 11 29  1  0  0  0  0 
 12 30  1  0  0  0  0 
 13 31  1  0  0  0  0 
 16 32  1  0  0  0  0 
 17 33  1  0  0  0  0 
 20 34  1  0  0  0  0 
 20 35  1  0  0  0  0 
 20 36  1  0  0  0  0 
 22 37  1  0  0  0  0 
 22 38  1  0  0  0  0 
 22 39  1  0  0  0  0 
M  END
> <cdk:Title>
acedapsone

> <Conformer>
1

> <SuperDrugID>
SD003134

$$$$
