azapetine
  CDK     0628171801

 35 37  0  0  0  0  0  0  0  0999 V2000
    1.6981   -0.9398   -0.0745 C   0  0  1  0  0  0  0  0  0  0  0  0
    1.3562    0.2931    0.6135 C   0  0  0  0  0  0  0  0  0  0  0  0
    1.5637   -2.1164    0.8368 N   0  0  0  0  0  0  0  0  0  0  0  0
    2.0150    0.7395    1.6897 C   0  0  0  0  0  0  0  0  0  0  0  0
    0.1971   -2.5839    1.1867 C   0  0  2  0  0  0  0  0  0  0  0  0
    2.6659   -3.1122    0.9223 C   0  0  1  0  0  0  0  0  0  0  0  0
    0.0669   -3.4940    2.3700 C   0  0  0  0  0  0  0  0  0  0  0  0
    3.1893   -2.8874    2.2862 C   0  0  0  0  0  0  0  0  0  0  0  0
    1.0840   -3.7714    3.3450 C   0  0  0  0  0  0  0  0  0  0  0  0
   -1.1881   -4.1449    2.4866 C   0  0  0  0  0  0  0  0  0  0  0  0
    2.3646   -3.1152    3.4261 C   0  0  0  0  0  0  0  0  0  0  0  0
    4.4900   -2.3524    2.4514 C   0  0  0  0  0  0  0  0  0  0  0  0
    0.8276   -4.7906    4.3032 C   0  0  0  0  0  0  0  0  0  0  0  0
   -1.4250   -5.1119    3.4742 C   0  0  0  0  0  0  0  0  0  0  0  0
    2.8485   -2.6825    4.6919 C   0  0  0  0  0  0  0  0  0  0  0  0
    4.9530   -1.9656    3.7189 C   0  0  0  0  0  0  0  0  0  0  0  0
   -0.4073   -5.4506    4.3726 C   0  0  0  0  0  0  0  0  0  0  0  0
    4.1251   -2.1163    4.8395 C   0  0  0  0  0  0  0  0  0  0  0  0
    1.0452   -1.0752   -0.9403 H   0  0  0  0  0  0  0  0  0  0  0  0
    2.7164   -0.8389   -0.4601 H   0  0  0  0  0  0  0  0  0  0  0  0
    0.5903    0.8309    0.2766 H   0  0  0  0  0  0  0  0  0  0  0  0
    2.7863    0.2433    2.0640 H   0  0  0  0  0  0  0  0  0  0  0  0
    1.7371    1.5829    2.1353 H   0  0  0  0  0  0  0  0  0  0  0  0
   -0.1713   -3.1039    0.2967 H   0  0  0  0  0  0  0  0  0  0  0  0
   -0.4557   -1.7223    1.3533 H   0  0  0  0  0  0  0  0  0  0  0  0
    2.3130   -4.1397    0.8074 H   0  0  0  0  0  0  0  0  0  0  0  0
    3.4220   -2.9554    0.1489 H   0  0  0  0  0  0  0  0  0  0  0  0
   -1.9495   -3.9304    1.8361 H   0  0  0  0  0  0  0  0  0  0  0  0
    5.1042   -2.2150    1.6458 H   0  0  0  0  0  0  0  0  0  0  0  0
    1.5486   -5.0759    4.9712 H   0  0  0  0  0  0  0  0  0  0  0  0
   -2.3336   -5.5776    3.5309 H   0  0  0  0  0  0  0  0  0  0  0  0
    2.2704   -2.7766    5.5321 H   0  0  0  0  0  0  0  0  0  0  0  0
    5.8863   -1.5601    3.8224 H   0  0  0  0  0  0  0  0  0  0  0  0
   -0.5623   -6.1756    5.0761 H   0  0  0  0  0  0  0  0  0  0  0  0
    4.4515   -1.8183    5.7623 H   0  0  0  0  0  0  0  0  0  0  0  0
  1  2  1  0  0  0  0 
  1  3  1  0  0  0  0 
  2  4  2  0  0  0  0 
  3  5  1  0  0  0  0 
  3  6  1  0  0  0  0 
  5  7  1  0  0  0  0 
  6  8  1  0  0  0  0 
  7  9  2  0  0  0  0 
  7 10  1  0  0  0  0 
  8 11  2  0  0  0  0 
  8 12  1  0  0  0  0 
  9 11  1  0  0  0  0 
  9 13  1  0  0  0  0 
 10 14  2  0  0  0  0 
 11 15  1  0  0  0  0 
 12 16  2  0  0  0  0 
 13 17  2  0  0  0  0 
 14 17  1  0  0  0  0 
 15 18  2  0  0  0  0 
 16 18  1  0  0  0  0 
  1 19  1  0  0  0  0 
  1 20  1  0  0  0  0 
  2 21  1  0  0  0  0 
  4 22  1  0  0  0  0 
  4 23  1  0  0  0  0 
  5 24  1  0  0  0  0 
  5 25  1  0  0  0  0 
  6 26  1  0  0  0  0 
  6 27  1  0  0  0  0 
 10 28  1  0  0  0  0 
 12 29  1  0  0  0  0 
 13 30  1  0  0  0  0 
 14 31  1  0  0  0  0 
 15 32  1  0  0  0  0 
 16 33  1  0  0  0  0 
 17 34  1  0  0  0  0 
 18 35  1  0  0  0  0 
M  END
> <cdk:Title>
azapetine

> <Conformer>
1

> <SuperDrugID>
SD000219

$$$$
