glucosaminylmuramyl dipeptide
  CDK     0628171801

 93 93  0  0  0  0  0  0  0  0999 V2000
    3.6388    0.8620    1.6014 O   0  0  0  0  0  0  0  0  0  0  0  0
    4.2126    0.9901    2.9333 C   0  0  1  0  0  0  0  0  0  0  0  0
    2.4930    0.0203    1.3254 C   0  0  1  0  0  0  0  0  0  0  0  0
    3.4284    1.9218    3.9386 C   0  0  1  0  0  0  0  0  0  0  0  0
    4.7608   -0.3298    3.5738 C   0  0  1  0  0  0  0  0  0  0  0  0
    2.3476   -0.1213   -0.2180 C   0  0  2  0  0  0  0  0  0  0  0  0
    2.6602   -1.2986    1.8954 O   0  0  0  0  0  0  0  0  0  0  0  0
    3.6009    3.4556    3.6553 C   0  0  1  0  0  0  0  0  0  0  0  0
    2.0010    1.7171    4.1182 O   0  0  0  0  0  0  0  0  0  0  0  0
    5.6474   -1.1661    2.6087 C   0  0  2  0  0  0  0  0  0  0  0  0
    5.5420   -0.0381    4.7332 O   0  0  0  0  0  0  0  0  0  0  0  0
    2.0705    1.1553   -0.8145 N   0  0  0  0  0  0  0  0  0  0  0  0
    1.2134   -1.1361   -0.5585 C   0  0  1  0  0  0  0  0  0  0  0  0
    1.5822   -2.2363    1.7147 C   0  0  1  0  0  0  0  0  0  0  0  0
    4.9561    3.8819    3.8882 N   0  0  0  0  0  0  0  0  0  0  0  0
    3.1772    3.8861    2.3050 C   0  0  0  0  0  0  0  0  0  0  0  0
    1.4145    0.5021    4.6508 C   0  0  1  0  0  0  0  0  0  0  0  0
    5.7244   -2.5089    3.0719 O   0  0  0  0  0  0  0  0  0  0  0  0
    2.4378    1.5439   -2.0685 C   0  0  0  0  0  0  0  0  0  0  0  0
    1.1774   -1.3902   -1.9620 O   0  0  0  0  0  0  0  0  0  0  0  0
    1.3907   -2.4857    0.1932 C   0  0  1  0  0  0  0  0  0  0  0  0
    1.9478   -3.5269    2.4931 C   0  0  1  0  0  0  0  0  0  0  0  0
    5.4561    4.3272    5.0758 C   0  0  0  0  0  0  0  0  0  0  0  0
    2.0557    3.5766    1.8442 O   0  0  0  0  0  0  0  0  0  0  0  0
    1.8264    0.0109    5.9943 C   0  0  0  0  0  0  0  0  0  0  0  0
   -0.1197    0.7347    4.6172 C   0  0  0  0  0  0  0  0  0  0  0  0
    2.0374    2.8740   -2.5566 C   0  0  0  0  0  0  0  0  0  0  0  0
    3.1012    0.7940   -2.8239 O   0  0  0  0  0  0  0  0  0  0  0  0
    0.2643   -3.3309   -0.0410 O   0  0  0  0  0  0  0  0  0  0  0  0
    2.1341   -3.2546    3.8793 O   0  0  0  0  0  0  0  0  0  0  0  0
    6.8742    4.7152    5.1647 C   0  0  0  0  0  0  0  0  0  0  0  0
    4.7362    4.4113    6.0994 O   0  0  0  0  0  0  0  0  0  0  0  0
    2.6468    0.7149    6.8232 N   0  0  0  0  0  0  0  0  0  0  0  0
    1.3867   -1.1122    6.3401 O   0  0  0  0  0  0  0  0  0  0  0  0
    3.2021    0.2956    8.0781 C   0  0  2  0  0  0  0  0  0  0  0  0
    4.1250   -0.8652    7.9585 C   0  0  0  0  0  0  0  0  0  0  0  0
    2.1210    0.0529    9.1648 C   0  0  0  0  0  0  0  0  0  0  0  0
    5.4421   -0.7170    8.2931 N   0  0  0  0  0  0  0  0  0  0  0  0
    3.6636   -1.9744    7.6050 O   0  0  0  0  0  0  0  0  0  0  0  0
    6.4937   -1.7428    8.4944 C   0  0  2  0  0  0  0  0  0  0  0  0
    6.7049   -2.6307    7.1746 C   0  0  2  0  0  0  0  0  0  0  0  0
    5.9745   -2.6653    9.6043 C   0  0  0  0  0  0  0  0  0  0  0  0
    7.8922   -2.1259    6.3120 C   0  0  1  0  0  0  0  0  0  0  0  0
    6.5867   -2.6623   10.7974 N   0  0  0  0  0  0  0  0  0  0  0  0
    5.0142   -3.4548    9.4506 O   0  0  0  0  0  0  0  0  0  0  0  0
    8.1810   -2.9540    5.1234 C   0  0  0  0  0  0  0  0  0  0  0  0
    7.5083   -4.1039    4.8670 O   0  0  0  0  0  0  0  0  0  0  0  0
    9.0745   -2.5929    4.3246 O   0  0  0  0  0  0  0  0  0  0  0  0
    5.1373    1.5283    2.7091 H   0  0  0  0  0  0  0  0  0  0  0  0
    1.6008    0.5063    1.7270 H   0  0  0  0  0  0  0  0  0  0  0  0
    3.8943    1.7960    4.9106 H   0  0  0  0  0  0  0  0  0  0  0  0
    3.9327   -0.9399    3.9290 H   0  0  0  0  0  0  0  0  0  0  0  0
    3.2975   -0.5140   -0.5974 H   0  0  0  0  0  0  0  0  0  0  0  0
    2.9498    4.0026    4.3438 H   0  0  0  0  0  0  0  0  0  0  0  0
    6.6517   -0.7419    2.5516 H   0  0  0  0  0  0  0  0  0  0  0  0
    5.2437   -1.1925    1.5956 H   0  0  0  0  0  0  0  0  0  0  0  0
    5.7466   -0.9133    5.1216 H   0  0  0  0  0  0  0  0  0  0  0  0
    1.5560    1.7870   -0.2871 H   0  0  0  0  0  0  0  0  0  0  0  0
    0.2507   -0.6988   -0.2753 H   0  0  0  0  0  0  0  0  0  0  0  0
    0.6567   -1.8344    2.1424 H   0  0  0  0  0  0  0  0  0  0  0  0
    5.5705    3.8374    3.1375 H   0  0  0  0  0  0  0  0  0  0  0  0
    3.7739    4.4961    1.7400 H   0  0  0  0  0  0  0  0  0  0  0  0
    1.6292   -0.3049    3.9607 H   0  0  0  0  0  0  0  0  0  0  0  0
    5.9985   -2.4312    4.0099 H   0  0  0  0  0  0  0  0  0  0  0  0
    2.0529   -1.7801   -2.1719 H   0  0  0  0  0  0  0  0  0  0  0  0
    2.2767   -2.9958   -0.1986 H   0  0  0  0  0  0  0  0  0  0  0  0
    1.1538   -4.2698    2.3916 H   0  0  0  0  0  0  0  0  0  0  0  0
    2.8761   -3.9504    2.1046 H   0  0  0  0  0  0  0  0  0  0  0  0
   -0.6620   -0.1788    4.8723 H   0  0  0  0  0  0  0  0  0  0  0  0
   -0.4022    1.5151    5.3273 H   0  0  0  0  0  0  0  0  0  0  0  0
   -0.4409    1.0423    3.6194 H   0  0  0  0  0  0  0  0  0  0  0  0
    2.3816    3.0389   -3.5808 H   0  0  0  0  0  0  0  0  0  0  0  0
    2.4673    3.6464   -1.9172 H   0  0  0  0  0  0  0  0  0  0  0  0
    0.9498    2.9614   -2.5396 H   0  0  0  0  0  0  0  0  0  0  0  0
   -0.5034   -2.8383    0.3189 H   0  0  0  0  0  0  0  0  0  0  0  0
    2.3851   -4.1173    4.2753 H   0  0  0  0  0  0  0  0  0  0  0  0
    7.5063    3.8623    4.9158 H   0  0  0  0  0  0  0  0  0  0  0  0
    7.0840    5.5257    4.4659 H   0  0  0  0  0  0  0  0  0  0  0  0
    7.1267    5.0522    6.1727 H   0  0  0  0  0  0  0  0  0  0  0  0
    2.8911    1.6059    6.5338 H   0  0  0  0  0  0  0  0  0  0  0  0
    3.7828    1.1580    8.4193 H   0  0  0  0  0  0  0  0  0  0  0  0
    1.4717    0.9262    9.2482 H   0  0  0  0  0  0  0  0  0  0  0  0
    2.5930   -0.1208   10.1336 H   0  0  0  0  0  0  0  0  0  0  0  0
    1.5032   -0.8136    8.9293 H   0  0  0  0  0  0  0  0  0  0  0  0
    5.7262    0.1913    8.4808 H   0  0  0  0  0  0  0  0  0  0  0  0
    7.5252   -1.2016    8.8089 H   0  0  0  0  0  0  0  0  0  0  0  0
    5.8029   -2.6670    6.5602 H   0  0  0  0  0  0  0  0  0  0  0  0
    6.9382   -3.6614    7.4579 H   0  0  0  0  0  0  0  0  0  0  0  0
    7.6909   -1.1051    5.9846 H   0  0  0  0  0  0  0  0  0  0  0  0
    8.7918   -2.1151    6.9318 H   0  0  0  0  0  0  0  0  0  0  0  0
    6.2716   -3.2411   11.5102 H   0  0  0  0  0  0  0  0  0  0  0  0
    7.3487   -2.0808   10.9463 H   0  0  0  0  0  0  0  0  0  0  0  0
    7.7102   -4.6371    4.0695 H   0  0  0  0  0  0  0  0  0  0  0  0
  2  1  1  0  0  0  0 
  4  2  1  0  0  0  0 
  2  5  1  0  0  0  0 
  2 49  1  0  0  0  0 
  3  1  1  0  0  0  0 
  6  3  1  0  0  0  0 
  3  7  1  0  0  0  0 
  8  4  1  0  0  0  0 
  4  9  1  0  0  0  0 
  5 10  1  0  0  0  0 
  5 11  1  0  0  0  0 
  6 12  1  0  0  0  0 
 13  6  1  0  0  0  0 
 14  7  1  0  0  0  0 
  8 15  1  0  0  0  0 
  8 16  1  0  0  0  0 
 17  9  1  0  0  0  0 
 10 18  1  0  0  0  0 
 12 19  1  0  0  0  0 
 13 20  1  0  0  0  0 
 21 13  1  0  0  0  0 
 14 21  1  0  0  0  0 
 14 22  1  0  0  0  0 
 15 23  1  0  0  0  0 
 16 24  2  0  0  0  0 
 17 25  1  0  0  0  0 
 17 26  1  0  0  0  0 
 19 27  1  0  0  0  0 
 19 28  2  0  0  0  0 
 21 29  1  0  0  0  0 
 22 30  1  0  0  0  0 
 23 31  1  0  0  0  0 
 23 32  2  0  0  0  0 
 25 33  1  0  0  0  0 
 25 34  2  0  0  0  0 
 35 33  1  0  0  0  0 
 35 36  1  0  0  0  0 
 35 37  1  0  0  0  0 
 36 38  1  0  0  0  0 
 36 39  2  0  0  0  0 
 40 38  1  0  0  0  0 
 40 41  1  0  0  0  0 
 40 42  1  0  0  0  0 
 41 43  1  0  0  0  0 
 42 44  1  0  0  0  0 
 42 45  2  0  0  0  0 
 43 46  1  0  0  0  0 
 46 47  1  0  0  0  0 
 46 48  2  0  0  0  0 
  3 50  1  0  0  0  0 
  4 51  1  0  0  0  0 
  5 52  1  0  0  0  0 
  6 53  1  0  0  0  0 
  8 54  1  0  0  0  0 
 10 55  1  0  0  0  0 
 10 56  1  0  0  0  0 
 11 57  1  0  0  0  0 
 12 58  1  0  0  0  0 
 13 59  1  0  0  0  0 
 14 60  1  0  0  0  0 
 15 61  1  0  0  0  0 
 16 62  1  0  0  0  0 
 17 63  1  0  0  0  0 
 18 64  1  0  0  0  0 
 20 65  1  0  0  0  0 
 21 66  1  0  0  0  0 
 22 67  1  0  0  0  0 
 22 68  1  0  0  0  0 
 26 69  1  0  0  0  0 
 26 70  1  0  0  0  0 
 26 71  1  0  0  0  0 
 27 72  1  0  0  0  0 
 27 73  1  0  0  0  0 
 27 74  1  0  0  0  0 
 29 75  1  0  0  0  0 
 30 76  1  0  0  0  0 
 31 77  1  0  0  0  0 
 31 78  1  0  0  0  0 
 31 79  1  0  0  0  0 
 33 80  1  0  0  0  0 
 35 81  1  0  0  0  0 
 37 82  1  0  0  0  0 
 37 83  1  0  0  0  0 
 37 84  1  0  0  0  0 
 38 85  1  0  0  0  0 
 40 86  1  0  0  0  0 
 41 87  1  0  0  0  0 
 41 88  1  0  0  0  0 
 43 89  1  0  0  0  0 
 43 90  1  0  0  0  0 
 44 91  1  0  0  0  0 
 44 92  1  0  0  0  0 
 47 93  1  0  0  0  0 
M  END
> <cdk:Title>
glucosaminylmuramyl dipeptide

> <Conformer>
1

> <SuperDrugID>
SD001175

$$$$
