permethrin
  CDK     0628171801

 46 48  0  0  0  0  0  0  0  0999 V2000
   -5.4422   -1.9307   -4.7083 C   0  0  0  0  0  0  0  0  0  0  0  0
   -6.7060   -2.6856   -4.2172 C   0  0  2  0  0  0  0  0  0  0  0  0
   -7.8020   -1.7848   -3.5754 C   0  0  0  0  0  0  0  0  0  0  0  0
   -6.4063   -4.0852   -3.6126 C   0  0  1  0  0  0  0  0  0  0  0  0
   -7.1023   -4.6102   -2.4501 C   0  0  0  0  0  0  0  0  0  0  0  0
   -7.2514   -5.9244   -2.2132 C   0  0  0  0  0  0  0  0  0  0  0  0
   -7.9906   -6.4574   -0.8261 Cl  0  0  0  0  0  0  0  0  0  0  0  0
   -6.7091   -7.1186   -3.2394 Cl  0  0  0  0  0  0  0  0  0  0  0  0
   -7.1181   -3.9718   -4.9849 C   0  0  1  0  0  0  0  0  0  0  0  0
   -8.5624   -4.2185   -5.1806 C   0  0  0  0  0  0  0  0  0  0  0  0
   -9.1771   -3.5235   -6.0237 O   0  0  0  0  0  0  0  0  0  0  0  0
   -9.2040   -5.1786   -4.4579 O   0  0  0  0  0  0  0  0  0  0  0  0
  -10.5897   -5.5290   -4.5443 C   0  0  1  0  0  0  0  0  0  0  0  0
  -10.8883   -6.5114   -3.4743 C   0  0  0  0  0  0  0  0  0  0  0  0
  -10.6088   -7.8822   -3.6722 C   0  0  0  0  0  0  0  0  0  0  0  0
  -10.8722   -8.8218   -2.6594 C   0  0  0  0  0  0  0  0  0  0  0  0
  -11.4073   -8.3989   -1.4311 C   0  0  0  0  0  0  0  0  0  0  0  0
  -11.6702   -7.0325   -1.2010 C   0  0  0  0  0  0  0  0  0  0  0  0
  -12.1850   -6.6144    0.0004 O   0  0  0  0  0  0  0  0  0  0  0  0
  -11.1947   -6.3883    0.9189 C   0  0  0  0  0  0  0  0  0  0  0  0
  -10.6362   -5.0999    1.0620 C   0  0  0  0  0  0  0  0  0  0  0  0
   -9.6029   -4.8736    1.9908 C   0  0  0  0  0  0  0  0  0  0  0  0
   -9.1293   -5.9329    2.7878 C   0  0  0  0  0  0  0  0  0  0  0  0
   -9.7049   -7.2121    2.6745 C   0  0  0  0  0  0  0  0  0  0  0  0
  -10.7438   -7.4345    1.7527 C   0  0  0  0  0  0  0  0  0  0  0  0
  -11.4267   -6.0996   -2.2319 C   0  0  0  0  0  0  0  0  0  0  0  0
   -4.7166   -2.6053   -5.1689 H   0  0  0  0  0  0  0  0  0  0  0  0
   -5.7166   -1.1697   -5.4405 H   0  0  0  0  0  0  0  0  0  0  0  0
   -4.9667   -1.4422   -3.8553 H   0  0  0  0  0  0  0  0  0  0  0  0
   -7.3954   -1.2843   -2.6963 H   0  0  0  0  0  0  0  0  0  0  0  0
   -8.6850   -2.3471   -3.2717 H   0  0  0  0  0  0  0  0  0  0  0  0
   -8.1106   -1.0243   -4.2944 H   0  0  0  0  0  0  0  0  0  0  0  0
   -5.3687   -4.4174   -3.7087 H   0  0  0  0  0  0  0  0  0  0  0  0
   -7.4447   -3.9624   -1.7806 H   0  0  0  0  0  0  0  0  0  0  0  0
   -6.4828   -4.2135   -5.8409 H   0  0  0  0  0  0  0  0  0  0  0  0
  -11.2042   -4.6302   -4.4297 H   0  0  0  0  0  0  0  0  0  0  0  0
  -10.7974   -5.9516   -5.5335 H   0  0  0  0  0  0  0  0  0  0  0  0
  -10.2173   -8.2057   -4.5596 H   0  0  0  0  0  0  0  0  0  0  0  0
  -10.6738   -9.8132   -2.8155 H   0  0  0  0  0  0  0  0  0  0  0  0
  -11.6014   -9.0883   -0.7033 H   0  0  0  0  0  0  0  0  0  0  0  0
  -10.9769   -4.3278    0.4861 H   0  0  0  0  0  0  0  0  0  0  0  0
   -9.1934   -3.9409    2.0853 H   0  0  0  0  0  0  0  0  0  0  0  0
   -8.3715   -5.7719    3.4556 H   0  0  0  0  0  0  0  0  0  0  0  0
   -9.3686   -7.9796    3.2617 H   0  0  0  0  0  0  0  0  0  0  0  0
  -11.1668   -8.3619    1.6856 H   0  0  0  0  0  0  0  0  0  0  0  0
  -11.6422   -5.1131   -2.0669 H   0  0  0  0  0  0  0  0  0  0  0  0
  1  2  1  0  0  0  0 
  2  3  1  0  0  0  0 
  2  4  1  0  0  0  0 
  4  5  1  0  0  0  0 
  5  6  2  0  0  0  0 
  6  7  1  0  0  0  0 
  6  8  1  0  0  0  0 
  4  9  1  0  0  0  0 
  2  9  1  0  0  0  0 
  9 10  1  0  0  0  0 
 10 11  2  0  0  0  0 
 10 12  1  0  0  0  0 
 12 13  1  0  0  0  0 
 13 14  1  0  0  0  0 
 14 15  2  0  0  0  0 
 15 16  1  0  0  0  0 
 16 17  2  0  0  0  0 
 17 18  1  0  0  0  0 
 18 19  1  0  0  0  0 
 19 20  1  0  0  0  0 
 20 21  2  0  0  0  0 
 21 22  1  0  0  0  0 
 22 23  2  0  0  0  0 
 23 24  1  0  0  0  0 
 24 25  2  0  0  0  0 
 20 25  1  0  0  0  0 
 18 26  2  0  0  0  0 
 14 26  1  0  0  0  0 
  1 27  1  0  0  0  0 
  1 28  1  0  0  0  0 
  1 29  1  0  0  0  0 
  3 30  1  0  0  0  0 
  3 31  1  0  0  0  0 
  3 32  1  0  0  0  0 
  4 33  1  0  0  0  0 
  5 34  1  0  0  0  0 
  9 35  1  0  0  0  0 
 13 36  1  0  0  0  0 
 13 37  1  0  0  0  0 
 15 38  1  0  0  0  0 
 16 39  1  0  0  0  0 
 17 40  1  0  0  0  0 
 21 41  1  0  0  0  0 
 22 42  1  0  0  0  0 
 23 43  1  0  0  0  0 
 24 44  1  0  0  0  0 
 25 45  1  0  0  0  0 
 26 46  1  0  0  0  0 
M  END
> <cdk:Title>
permethrin

> <Conformer>
1

> <SuperDrugID>
SD003387

$$$$
