trimethoprim
  CDK     0628171801

 39 40  0  0  0  0  0  0  0  0999 V2000
   -2.9584    3.4723   -1.5289 C   0  0  1  0  0  0  0  0  0  0  0  0
   -1.5342    3.8127   -1.7820 C   0  0  0  0  0  0  0  0  0  0  0  0
   -3.2422    3.4809   -0.0677 C   0  0  0  0  0  0  0  0  0  0  0  0
   -0.5594    2.7920   -1.8644 C   0  0  0  0  0  0  0  0  0  0  0  0
   -1.1179    5.1591   -1.9081 C   0  0  0  0  0  0  0  0  0  0  0  0
   -3.7268    4.6176    0.6288 C   0  0  0  0  0  0  0  0  0  0  0  0
   -3.0188    2.3192    0.7091 C   0  0  0  0  0  0  0  0  0  0  0  0
    0.8002    3.1037   -2.0587 C   0  0  0  0  0  0  0  0  0  0  0  0
    0.2408    5.4821   -2.1000 C   0  0  0  0  0  0  0  0  0  0  0  0
   -3.9560    5.8050    0.0376 N   0  0  0  0  0  0  0  0  0  0  0  0
   -3.9851    4.5437    1.9587 N   0  0  0  0  0  0  0  0  0  0  0  0
   -3.2994    2.3056    2.0360 N   0  0  0  0  0  0  0  0  0  0  0  0
    1.7263    2.0949   -2.0952 O   0  0  0  0  0  0  0  0  0  0  0  0
    1.1964    4.4491   -2.2244 C   0  0  0  0  0  0  0  0  0  0  0  0
    0.6245    6.7958   -2.1815 O   0  0  0  0  0  0  0  0  0  0  0  0
   -3.7873    3.4042    2.6631 C   0  0  0  0  0  0  0  0  0  0  0  0
    2.2762    1.8070   -0.7948 C   0  0  0  0  0  0  0  0  0  0  0  0
    2.5084    4.7512   -2.4757 O   0  0  0  0  0  0  0  0  0  0  0  0
    0.9998    7.3468   -0.9035 C   0  0  0  0  0  0  0  0  0  0  0  0
   -4.0824    3.3638    3.9710 N   0  0  0  0  0  0  0  0  0  0  0  0
    2.8100    4.7907   -3.8838 C   0  0  0  0  0  0  0  0  0  0  0  0
   -3.6205    4.1636   -2.0556 H   0  0  0  0  0  0  0  0  0  0  0  0
   -3.1930    2.4870   -1.9421 H   0  0  0  0  0  0  0  0  0  0  0  0
   -0.8356    1.8098   -1.7735 H   0  0  0  0  0  0  0  0  0  0  0  0
   -1.8054    5.9157   -1.8558 H   0  0  0  0  0  0  0  0  0  0  0  0
   -2.6449    1.4696    0.2814 H   0  0  0  0  0  0  0  0  0  0  0  0
   -4.2508    6.5587    0.5719 H   0  0  0  0  0  0  0  0  0  0  0  0
   -3.8208    5.9174   -0.9169 H   0  0  0  0  0  0  0  0  0  0  0  0
    3.0051    1.0047   -0.9043 H   0  0  0  0  0  0  0  0  0  0  0  0
    2.7911    2.6747   -0.3732 H   0  0  0  0  0  0  0  0  0  0  0  0
    1.5042    1.4692   -0.0981 H   0  0  0  0  0  0  0  0  0  0  0  0
    1.3104    8.3805   -1.0554 H   0  0  0  0  0  0  0  0  0  0  0  0
    0.1580    7.3463   -0.2063 H   0  0  0  0  0  0  0  0  0  0  0  0
    1.8401    6.8066   -0.4584 H   0  0  0  0  0  0  0  0  0  0  0  0
   -4.3923    4.1643    4.4256 H   0  0  0  0  0  0  0  0  0  0  0  0
   -3.9949    2.5328    4.4648 H   0  0  0  0  0  0  0  0  0  0  0  0
    3.8673    5.0299   -3.9988 H   0  0  0  0  0  0  0  0  0  0  0  0
    2.6299    3.8247   -4.3633 H   0  0  0  0  0  0  0  0  0  0  0  0
    2.2322    5.5633   -4.3979 H   0  0  0  0  0  0  0  0  0  0  0  0
  1  2  1  0  0  0  0 
  1  3  1  0  0  0  0 
  2  4  2  0  0  0  0 
  2  5  1  0  0  0  0 
  3  6  2  0  0  0  0 
  3  7  1  0  0  0  0 
  4  8  1  0  0  0  0 
  5  9  2  0  0  0  0 
  6 10  1  0  0  0  0 
  6 11  1  0  0  0  0 
  7 12  2  0  0  0  0 
  8 13  1  0  0  0  0 
  8 14  2  0  0  0  0 
  9 14  1  0  0  0  0 
  9 15  1  0  0  0  0 
 11 16  2  0  0  0  0 
 12 16  1  0  0  0  0 
 13 17  1  0  0  0  0 
 14 18  1  0  0  0  0 
 15 19  1  0  0  0  0 
 16 20  1  0  0  0  0 
 18 21  1  0  0  0  0 
  1 22  1  0  0  0  0 
  1 23  1  0  0  0  0 
  4 24  1  0  0  0  0 
  5 25  1  0  0  0  0 
  7 26  1  0  0  0  0 
 10 27  1  0  0  0  0 
 10 28  1  0  0  0  0 
 17 29  1  0  0  0  0 
 17 30  1  0  0  0  0 
 17 31  1  0  0  0  0 
 19 32  1  0  0  0  0 
 19 33  1  0  0  0  0 
 19 34  1  0  0  0  0 
 20 35  1  0  0  0  0 
 20 36  1  0  0  0  0 
 21 37  1  0  0  0  0 
 21 38  1  0  0  0  0 
 21 39  1  0  0  0  0 
M  END
> <cdk:Title>
trimethoprim

> <Conformer>
1

> <SuperDrugID>
SD002484

$$$$
