amphenidone
  CDK     0628171801

 24 25  0  0  0  0  0  0  0  0999 V2000
    0.6555    1.5268    1.3281 O   0  0  0  0  0  0  0  0  0  0  0  0
   -0.1131    0.5571    1.1166 C   0  0  0  0  0  0  0  0  0  0  0  0
    0.2981   -0.5757    0.4505 N   0  0  0  0  0  0  0  0  0  0  0  0
   -1.4381    0.6740    1.5830 C   0  0  0  0  0  0  0  0  0  0  0  0
    1.5958   -0.7051    0.0071 C   0  0  0  0  0  0  0  0  0  0  0  0
   -0.5859   -1.6010    0.2227 C   0  0  0  0  0  0  0  0  0  0  0  0
   -2.3415   -0.3758    1.3563 C   0  0  0  0  0  0  0  0  0  0  0  0
    1.8820   -0.7862   -1.3765 C   0  0  0  0  0  0  0  0  0  0  0  0
    2.6676   -0.7616    0.9291 C   0  0  0  0  0  0  0  0  0  0  0  0
   -1.9179   -1.5236    0.6688 C   0  0  0  0  0  0  0  0  0  0  0  0
    3.2096   -0.9212   -1.8324 C   0  0  0  0  0  0  0  0  0  0  0  0
    3.9943   -0.8866    0.4777 C   0  0  0  0  0  0  0  0  0  0  0  0
    3.4693   -1.0139   -3.1515 N   0  0  0  0  0  0  0  0  0  0  0  0
    4.2657   -0.9634   -0.9001 C   0  0  0  0  0  0  0  0  0  0  0  0
   -1.7475    1.5125    2.0821 H   0  0  0  0  0  0  0  0  0  0  0  0
   -0.2955   -2.4506   -0.2730 H   0  0  0  0  0  0  0  0  0  0  0  0
   -3.3050   -0.3041    1.6897 H   0  0  0  0  0  0  0  0  0  0  0  0
    1.1166   -0.7458   -2.0550 H   0  0  0  0  0  0  0  0  0  0  0  0
    2.4856   -0.7150    1.9359 H   0  0  0  0  0  0  0  0  0  0  0  0
   -2.5685   -2.2944    0.4980 H   0  0  0  0  0  0  0  0  0  0  0  0
    4.7614   -0.9248    1.1526 H   0  0  0  0  0  0  0  0  0  0  0  0
    4.3807   -1.1273   -3.4613 H   0  0  0  0  0  0  0  0  0  0  0  0
    2.7448   -0.9725   -3.7968 H   0  0  0  0  0  0  0  0  0  0  0  0
    5.2341   -1.0529   -1.2173 H   0  0  0  0  0  0  0  0  0  0  0  0
  1  2  2  0  0  0  0 
  2  3  1  0  0  0  0 
  2  4  1  0  0  0  0 
  3  5  1  0  0  0  0 
  3  6  1  0  0  0  0 
  4  7  2  0  0  0  0 
  5  8  2  0  0  0  0 
  5  9  1  0  0  0  0 
  6 10  2  0  0  0  0 
  7 10  1  0  0  0  0 
  8 11  1  0  0  0  0 
  9 12  2  0  0  0  0 
 11 13  1  0  0  0  0 
 11 14  2  0  0  0  0 
 12 14  1  0  0  0  0 
  4 15  1  0  0  0  0 
  6 16  1  0  0  0  0 
  7 17  1  0  0  0  0 
  8 18  1  0  0  0  0 
  9 19  1  0  0  0  0 
 10 20  1  0  0  0  0 
 12 21  1  0  0  0  0 
 13 22  1  0  0  0  0 
 13 23  1  0  0  0  0 
 14 24  1  0  0  0  0 
M  END
> <cdk:Title>
amphenidone

> <Conformer>
1

> <SuperDrugID>
SD000159

$$$$
