butalbital
  CDK     0628171801

 32 32  0  0  0  0  0  0  0  0999 V2000
    1.1497   -1.1879   -2.3285 C   0  0  2  0  0  0  0  0  0  0  0  0
    1.1065   -0.4888   -0.9216 C   0  0  1  0  0  0  0  0  0  0  0  0
    2.5370   -1.6803   -2.9050 C   0  0  2  0  0  0  0  0  0  0  0  0
   -0.2656    0.2158   -0.7137 C   0  0  0  0  0  0  0  0  0  0  0  0
    1.3924   -1.4488    0.2672 C   0  0  0  0  0  0  0  0  0  0  0  0
    2.4357   -2.0744   -4.4317 C   0  0  1  0  0  0  0  0  0  0  0  0
    3.0358   -2.8836   -2.1494 C   0  0  0  0  0  0  0  0  0  0  0  0
    3.5465   -0.5653   -2.8252 C   0  0  0  0  0  0  0  0  0  0  0  0
    1.4111   -3.0583   -4.7644 C   0  0  0  0  0  0  0  0  0  0  0  0
    2.3308   -3.9112   -2.0203 O   0  0  0  0  0  0  0  0  0  0  0  0
    4.2640   -2.9254   -1.5716 N   0  0  0  0  0  0  0  0  0  0  0  0
    3.3116    0.5486   -3.3507 O   0  0  0  0  0  0  0  0  0  0  0  0
    4.7453   -0.7063   -2.2045 N   0  0  0  0  0  0  0  0  0  0  0  0
    1.6713   -4.3177   -5.1349 C   0  0  0  0  0  0  0  0  0  0  0  0
    5.1018   -1.8632   -1.5986 C   0  0  0  0  0  0  0  0  0  0  0  0
    6.2203   -1.9534   -1.0502 O   0  0  0  0  0  0  0  0  0  0  0  0
    0.7434   -0.4806   -3.0578 H   0  0  0  0  0  0  0  0  0  0  0  0
    0.4487   -2.0285   -2.3013 H   0  0  0  0  0  0  0  0  0  0  0  0
    1.8622    0.2994   -0.8932 H   0  0  0  0  0  0  0  0  0  0  0  0
   -1.0773   -0.5136   -0.7077 H   0  0  0  0  0  0  0  0  0  0  0  0
   -0.2799    0.7620    0.2307 H   0  0  0  0  0  0  0  0  0  0  0  0
   -0.4492    0.9345   -1.5143 H   0  0  0  0  0  0  0  0  0  0  0  0
    0.7415   -2.3246    0.2236 H   0  0  0  0  0  0  0  0  0  0  0  0
    1.2282   -0.9421    1.2200 H   0  0  0  0  0  0  0  0  0  0  0  0
    2.4303   -1.7747    0.2526 H   0  0  0  0  0  0  0  0  0  0  0  0
    2.2100   -1.1894   -5.0343 H   0  0  0  0  0  0  0  0  0  0  0  0
    3.4184   -2.4233   -4.7756 H   0  0  0  0  0  0  0  0  0  0  0  0
    0.4584   -2.7761   -4.7167 H   0  0  0  0  0  0  0  0  0  0  0  0
    4.5473   -3.7394   -1.1247 H   0  0  0  0  0  0  0  0  0  0  0  0
    5.3625    0.0430   -2.1961 H   0  0  0  0  0  0  0  0  0  0  0  0
    2.6034   -4.6540   -5.1922 H   0  0  0  0  0  0  0  0  0  0  0  0
    0.9280   -4.9383   -5.3572 H   0  0  0  0  0  0  0  0  0  0  0  0
  1  2  1  0  0  0  0 
  1  3  1  0  0  0  0 
  2  4  1  0  0  0  0 
  2  5  1  0  0  0  0 
  3  6  1  0  0  0  0 
  3  7  1  0  0  0  0 
  3  8  1  0  0  0  0 
  6  9  1  0  0  0  0 
  7 10  2  0  0  0  0 
  7 11  1  0  0  0  0 
  8 12  2  0  0  0  0 
  8 13  1  0  0  0  0 
  9 14  2  0  0  0  0 
 11 15  1  0  0  0  0 
 13 15  1  0  0  0  0 
 15 16  2  0  0  0  0 
 17  1  1  0  0  0  0 
 18  1  1  0  0  0  0 
 19  2  1  0  0  0  0 
 20  4  1  0  0  0  0 
 21  4  1  0  0  0  0 
 22  4  1  0  0  0  0 
 23  5  1  0  0  0  0 
 24  5  1  0  0  0  0 
 25  5  1  0  0  0  0 
 26  6  1  0  0  0  0 
 27  6  1  0  0  0  0 
 28  9  1  0  0  0  0 
 29 11  1  0  0  0  0 
 30 13  1  0  0  0  0 
 31 14  1  0  0  0  0 
 32 14  1  0  0  0  0 
M  END
> <cdk:Title>
butalbital

> <Conformer>
1

> <SuperDrugID>
SD000383

$$$$
