cycloguanil
  CDK     0628171802

 31 32  0  0  0  0  0  0  0  0999 V2000
    1.8027   -0.5147    1.1284 C   0  0  1  0  0  0  0  0  0  0  0  0
    1.2701    0.1026   -0.1043 N   0  0  0  0  0  0  0  0  0  0  0  0
    3.0971   -1.0476    0.9514 N   0  0  0  0  0  0  0  0  0  0  0  0
    2.0480    0.1376   -1.2256 C   0  0  0  0  0  0  0  0  0  0  0  0
   -0.0203    0.5941   -0.1562 C   0  0  0  0  0  0  0  0  0  0  0  0
    3.7609   -1.0098   -0.1472 C   0  0  0  0  0  0  0  0  0  0  0  0
    1.6974    0.7046   -2.3200 N   0  0  0  0  0  0  0  0  0  0  0  0
    3.2522   -0.4352   -1.2307 N   0  0  0  0  0  0  0  0  0  0  0  0
   -1.0468   -0.1737   -0.7555 C   0  0  0  0  0  0  0  0  0  0  0  0
   -0.3352    1.8757    0.3484 C   0  0  0  0  0  0  0  0  0  0  0  0
    4.9549   -1.5503   -0.1968 N   0  0  0  0  0  0  0  0  0  0  0  0
   -2.3599    0.3250   -0.8362 C   0  0  0  0  0  0  0  0  0  0  0  0
   -1.6536    2.3645    0.2943 C   0  0  0  0  0  0  0  0  0  0  0  0
   -2.6699    1.5897   -0.2972 C   0  0  0  0  0  0  0  0  0  0  0  0
   -4.2557    2.1806   -0.3635 Cl  0  0  0  0  0  0  0  0  0  0  0  0
    1.9369    0.5064    2.2987 C   0  0  0  0  0  0  0  0  0  0  0  0
    0.9210   -1.7204    1.5757 C   0  0  0  0  0  0  0  0  0  0  0  0
    2.2698    0.7030   -3.0604 H   0  0  0  0  0  0  0  0  0  0  0  0
    3.7797   -0.4254   -2.0477 H   0  0  0  0  0  0  0  0  0  0  0  0
   -0.8421   -1.1016   -1.1369 H   0  0  0  0  0  0  0  0  0  0  0  0
    0.3944    2.4612    0.7573 H   0  0  0  0  0  0  0  0  0  0  0  0
    5.4438   -1.5643   -1.0345 H   0  0  0  0  0  0  0  0  0  0  0  0
    5.3496   -1.9418    0.5983 H   0  0  0  0  0  0  0  0  0  0  0  0
   -3.0819   -0.2411   -1.2874 H   0  0  0  0  0  0  0  0  0  0  0  0
   -1.8681    3.2841    0.6873 H   0  0  0  0  0  0  0  0  0  0  0  0
    2.5280    1.3699    1.9869 H   0  0  0  0  0  0  0  0  0  0  0  0
    0.9590    0.8552    2.6313 H   0  0  0  0  0  0  0  0  0  0  0  0
    2.4284    0.0489    3.1604 H   0  0  0  0  0  0  0  0  0  0  0  0
    1.3694   -2.2428    2.4249 H   0  0  0  0  0  0  0  0  0  0  0  0
    0.8103   -2.4320    0.7542 H   0  0  0  0  0  0  0  0  0  0  0  0
   -0.0729   -1.3842    1.8777 H   0  0  0  0  0  0  0  0  0  0  0  0
  1  2  1  0  0  0  0 
  1  3  1  0  0  0  0 
  2  4  1  0  0  0  0 
  2  5  1  0  0  0  0 
  3  6  2  0  0  0  0 
  4  7  2  0  0  0  0 
  4  8  1  0  0  0  0 
  5  9  2  0  0  0  0 
  5 10  1  0  0  0  0 
  6  8  1  0  0  0  0 
  6 11  1  0  0  0  0 
  9 12  1  0  0  0  0 
 10 13  2  0  0  0  0 
 12 14  2  0  0  0  0 
 13 14  1  0  0  0  0 
 14 15  1  0  0  0  0 
  1 16  1  0  0  0  0 
  1 17  1  0  0  0  0 
 18  7  1  0  0  0  0 
 19  8  1  0  0  0  0 
 20  9  1  0  0  0  0 
 21 10  1  0  0  0  0 
 22 11  1  0  0  0  0 
 23 11  1  0  0  0  0 
 24 12  1  0  0  0  0 
 25 13  1  0  0  0  0 
 26 16  1  0  0  0  0 
 27 16  1  0  0  0  0 
 28 16  1  0  0  0  0 
 29 17  1  0  0  0  0 
 30 17  1  0  0  0  0 
 31 17  1  0  0  0  0 
M  END
> <cdk:Title>
cycloguanil

> <Conformer>
1

> <SuperDrugID>
SD000663

$$$$
