amorolfine
  CDK     0628171801

 58 59  0  0  0  0  0  0  0  0999 V2000
    7.1538   -4.7749    3.0105 C   0  0  1  0  0  0  0  0  0  0  0  0
    7.0575   -4.7080    1.4507 C   0  0  1  0  0  0  0  0  0  0  0  0
    7.4839   -6.1280    3.5299 C   0  0  0  0  0  0  0  0  0  0  0  0
    8.4127   -4.9697    0.7135 C   0  0  1  0  0  0  0  0  0  0  0  0
    5.9351   -5.6198    0.8724 C   0  0  0  0  0  0  0  0  0  0  0  0
    8.8237   -6.5423    3.6780 C   0  0  0  0  0  0  0  0  0  0  0  0
    6.4624   -7.0483    3.8401 C   0  0  0  0  0  0  0  0  0  0  0  0
    9.5772   -4.1480    1.1900 N   0  0  1  0  0  0  0  0  0  0  0  0
    9.1303   -7.8594    4.0606 C   0  0  0  0  0  0  0  0  0  0  0  0
    6.7762   -8.3603    4.2276 C   0  0  0  0  0  0  0  0  0  0  0  0
   10.8992   -4.6945    0.7419 C   0  0  1  0  0  0  0  0  0  0  0  0
    9.4540   -2.6802    0.9149 C   0  0  2  0  0  0  0  0  0  0  0  0
    8.1169   -8.8204    4.3162 C   0  0  0  0  0  0  0  0  0  0  0  0
   12.0764   -3.8523    1.3109 C   0  0  1  0  0  0  0  0  0  0  0  0
   10.6673   -1.9023    1.4983 C   0  0  1  0  0  0  0  0  0  0  0  0
    8.4003  -10.2685    4.6863 C   0  0  1  0  0  0  0  0  0  0  0  0
   13.4434   -4.2894    0.7384 C   0  0  0  0  0  0  0  0  0  0  0  0
   11.8964   -2.4579    0.9889 O   0  0  0  0  0  0  0  0  0  0  0  0
   10.6287   -0.3984    1.1416 C   0  0  0  0  0  0  0  0  0  0  0  0
    7.8221  -10.5886    6.1187 C   0  0  2  0  0  0  0  0  0  0  0  0
    7.7067  -11.2010    3.6280 C   0  0  0  0  0  0  0  0  0  0  0  0
    9.9240  -10.6558    4.6554 C   0  0  0  0  0  0  0  0  0  0  0  0
    8.2822   -9.6508    7.2663 C   0  0  0  0  0  0  0  0  0  0  0  0
    7.8974   -4.0545    3.3617 H   0  0  0  0  0  0  0  0  0  0  0  0
    6.2032   -4.4391    3.4346 H   0  0  0  0  0  0  0  0  0  0  0  0
    6.7495   -3.6884    1.2078 H   0  0  0  0  0  0  0  0  0  0  0  0
    8.6493   -6.0308    0.8342 H   0  0  0  0  0  0  0  0  0  0  0  0
    8.2699   -4.8021   -0.3591 H   0  0  0  0  0  0  0  0  0  0  0  0
    6.1829   -6.6777    0.9871 H   0  0  0  0  0  0  0  0  0  0  0  0
    5.8033   -5.4145   -0.1921 H   0  0  0  0  0  0  0  0  0  0  0  0
    4.9870   -5.4251    1.3787 H   0  0  0  0  0  0  0  0  0  0  0  0
    9.5910   -5.8930    3.4911 H   0  0  0  0  0  0  0  0  0  0  0  0
    5.4791   -6.7767    3.7659 H   0  0  0  0  0  0  0  0  0  0  0  0
   10.1181   -8.0946    4.1413 H   0  0  0  0  0  0  0  0  0  0  0  0
    5.9941   -8.9815    4.4350 H   0  0  0  0  0  0  0  0  0  0  0  0
   11.0152   -5.7204    1.0992 H   0  0  0  0  0  0  0  0  0  0  0  0
   10.9483   -4.7098   -0.3507 H   0  0  0  0  0  0  0  0  0  0  0  0
    8.5552   -2.2834    1.3878 H   0  0  0  0  0  0  0  0  0  0  0  0
    9.3796   -2.5038   -0.1633 H   0  0  0  0  0  0  0  0  0  0  0  0
   12.1117   -3.9754    2.4001 H   0  0  0  0  0  0  0  0  0  0  0  0
   10.6531   -1.9815    2.5928 H   0  0  0  0  0  0  0  0  0  0  0  0
   14.2370   -3.6664    1.1590 H   0  0  0  0  0  0  0  0  0  0  0  0
   13.4534   -4.1800   -0.3488 H   0  0  0  0  0  0  0  0  0  0  0  0
   13.6453   -5.3318    0.9933 H   0  0  0  0  0  0  0  0  0  0  0  0
   11.4992    0.1038    1.5665 H   0  0  0  0  0  0  0  0  0  0  0  0
   10.6417   -0.2553    0.0598 H   0  0  0  0  0  0  0  0  0  0  0  0
    9.7292    0.0655    1.5499 H   0  0  0  0  0  0  0  0  0  0  0  0
    8.0794  -11.6155    6.4003 H   0  0  0  0  0  0  0  0  0  0  0  0
    6.7293  -10.5465    6.0932 H   0  0  0  0  0  0  0  0  0  0  0  0
    7.9083  -12.2547    3.8337 H   0  0  0  0  0  0  0  0  0  0  0  0
    8.0704  -10.9798    2.6214 H   0  0  0  0  0  0  0  0  0  0  0  0
    6.6218  -11.0806    3.6225 H   0  0  0  0  0  0  0  0  0  0  0  0
   10.0718  -11.7087    4.9099 H   0  0  0  0  0  0  0  0  0  0  0  0
   10.3446  -10.4944    3.6591 H   0  0  0  0  0  0  0  0  0  0  0  0
   10.5021  -10.0612    5.3643 H   0  0  0  0  0  0  0  0  0  0  0  0
    7.7574   -9.9164    8.1845 H   0  0  0  0  0  0  0  0  0  0  0  0
    8.0560   -8.6082    7.0375 H   0  0  0  0  0  0  0  0  0  0  0  0
    9.3520   -9.7473    7.4486 H   0  0  0  0  0  0  0  0  0  0  0  0
  2  1  1  0  0  0  0 
  1  3  1  0  0  0  0 
  2  4  1  0  0  0  0 
  2  5  1  0  0  0  0 
  3  6  2  0  0  0  0 
  3  7  1  0  0  0  0 
  4  8  1  0  0  0  0 
  6  9  1  0  0  0  0 
  7 10  2  0  0  0  0 
  8 11  1  0  0  0  0 
  8 12  1  0  0  0  0 
  9 13  2  0  0  0  0 
 10 13  1  0  0  0  0 
 14 11  1  0  0  0  0 
 15 12  1  0  0  0  0 
 13 16  1  0  0  0  0 
 14 17  1  0  0  0  0 
 14 18  1  0  0  0  0 
 15 18  1  0  0  0  0 
 15 19  1  0  0  0  0 
 16 20  1  0  0  0  0 
 16 21  1  0  0  0  0 
 16 22  1  0  0  0  0 
 20 23  1  0  0  0  0 
  1 24  1  0  0  0  0 
  1 25  1  0  0  0  0 
  2 26  1  0  0  0  0 
  4 27  1  0  0  0  0 
  4 28  1  0  0  0  0 
  5 29  1  0  0  0  0 
  5 30  1  0  0  0  0 
  5 31  1  0  0  0  0 
  6 32  1  0  0  0  0 
  7 33  1  0  0  0  0 
  9 34  1  0  0  0  0 
 10 35  1  0  0  0  0 
 11 36  1  0  0  0  0 
 11 37  1  0  0  0  0 
 12 38  1  0  0  0  0 
 12 39  1  0  0  0  0 
 14 40  1  0  0  0  0 
 15 41  1  0  0  0  0 
 17 42  1  0  0  0  0 
 17 43  1  0  0  0  0 
 17 44  1  0  0  0  0 
 19 45  1  0  0  0  0 
 19 46  1  0  0  0  0 
 19 47  1  0  0  0  0 
 20 48  1  0  0  0  0 
 20 49  1  0  0  0  0 
 21 50  1  0  0  0  0 
 21 51  1  0  0  0  0 
 21 52  1  0  0  0  0 
 22 53  1  0  0  0  0 
 22 54  1  0  0  0  0 
 22 55  1  0  0  0  0 
 23 56  1  0  0  0  0 
 23 57  1  0  0  0  0 
 23 58  1  0  0  0  0 
M  END
> <cdk:Title>
amorolfine

> <Conformer>
1

> <SuperDrugID>
SD000153

$$$$
