ticagrelor
  CDK     0628171801

 64 68  0  0  0  0  0  0  0  0999 V2000
    0.3266   -3.9699   -2.6588 C   0  0  0  0  0  0  0  0  0  0  0  0
    0.7085   -3.4967   -1.4349 N   0  0  0  0  0  0  0  0  0  0  0  0
    1.6153   -2.4858   -1.2962 C   0  0  0  0  0  0  0  0  0  0  0  0
    2.1558   -1.8905   -2.3958 N   0  0  0  0  0  0  0  0  0  0  0  0
    0.9021   -3.3722   -3.7917 C   0  0  0  0  0  0  0  0  0  0  0  0
    0.7360   -3.5662   -5.1055 N   0  0  0  0  0  0  0  0  0  0  0  0
    1.7905   -2.3249   -3.6281 C   0  0  0  0  0  0  0  0  0  0  0  0
    2.1120   -1.9121   -4.8644 N   0  0  0  0  0  0  0  0  0  0  0  0
    1.4715   -2.6769   -5.7066 N   0  0  0  0  0  0  0  0  0  0  0  0
    2.0922   -1.9330    0.2926 S   0  0  0  0  0  0  0  0  0  0  0  0
    0.8025   -0.7356    0.7800 C   0  0  2  0  0  0  0  0  0  0  0  0
    0.7771    0.5139   -0.1360 C   0  0  2  0  0  0  0  0  0  0  0  0
   -0.2190    1.5888    0.3529 C   0  0  0  0  0  0  0  0  0  0  0  0
   -0.6056   -4.9385   -2.8038 N   0  0  0  0  0  0  0  0  0  0  0  0
   -1.8416   -4.8848   -2.1046 C   0  0  1  0  0  0  0  0  0  0  0  0
   -2.9320   -4.1377   -2.9059 C   0  0  1  0  0  0  0  0  0  0  0  0
   -3.0518   -5.6512   -2.6529 C   0  0  2  0  0  0  0  0  0  0  0  0
   -3.7615   -3.1675   -2.1606 C   0  0  0  0  0  0  0  0  0  0  0  0
   -3.1419   -2.0880   -1.4928 C   0  0  0  0  0  0  0  0  0  0  0  0
   -3.8958   -1.1278   -0.7908 C   0  0  0  0  0  0  0  0  0  0  0  0
   -5.3320   -1.2710   -0.7782 C   0  0  0  0  0  0  0  0  0  0  0  0
   -5.9547   -2.3290   -1.4690 C   0  0  0  0  0  0  0  0  0  0  0  0
   -5.1688   -3.2689   -2.1609 C   0  0  0  0  0  0  0  0  0  0  0  0
   -6.0420   -0.4051   -0.1089 F   0  0  0  0  0  0  0  0  0  0  0  0
   -7.2562   -2.4519   -1.4708 F   0  0  0  0  0  0  0  0  0  0  0  0
    2.9518   -0.7897   -5.1919 C   0  0  1  0  0  0  0  0  0  0  0  0
    3.6421   -0.8533   -6.5778 C   0  0  1  0  0  0  0  0  0  0  0  0
    2.1728    0.5555   -5.1918 C   0  0  1  0  0  0  0  0  0  0  0  0
    2.5348    1.3059   -6.5034 C   0  0  1  0  0  0  0  0  0  0  0  0
    3.8434    0.6255   -6.9656 C   0  0  1  0  0  0  0  0  0  0  0  0
    4.8618   -1.5921   -6.5242 O   0  0  0  0  0  0  0  0  0  0  0  0
    4.9812    1.1715   -6.2936 O   0  0  0  0  0  0  0  0  0  0  0  0
    1.5398    1.1490   -7.5475 O   0  0  0  0  0  0  0  0  0  0  0  0
    0.3552    1.9697   -7.4289 C   0  0  2  0  0  0  0  0  0  0  0  0
   -0.5999    1.7012   -8.6092 C   0  0  2  0  0  0  0  0  0  0  0  0
   -0.8859    0.3126   -8.7306 O   0  0  0  0  0  0  0  0  0  0  0  0
    1.0117   -0.4309    1.8076 H   0  0  0  0  0  0  0  0  0  0  0  0
   -0.1683   -1.2358    0.7608 H   0  0  0  0  0  0  0  0  0  0  0  0
    0.4952    0.2170   -1.1492 H   0  0  0  0  0  0  0  0  0  0  0  0
    1.7758    0.9571   -0.1758 H   0  0  0  0  0  0  0  0  0  0  0  0
   -0.2128    2.4389   -0.3319 H   0  0  0  0  0  0  0  0  0  0  0  0
    0.0600    1.9423    1.3475 H   0  0  0  0  0  0  0  0  0  0  0  0
   -1.2302    1.1804    0.3917 H   0  0  0  0  0  0  0  0  0  0  0  0
   -0.4839   -5.6174   -3.4868 H   0  0  0  0  0  0  0  0  0  0  0  0
   -1.8458   -4.7564   -1.0174 H   0  0  0  0  0  0  0  0  0  0  0  0
   -2.6750   -3.8780   -3.9358 H   0  0  0  0  0  0  0  0  0  0  0  0
   -3.7785   -5.9660   -1.9020 H   0  0  0  0  0  0  0  0  0  0  0  0
   -2.8536   -6.3059   -3.5058 H   0  0  0  0  0  0  0  0  0  0  0  0
   -2.1231   -1.9925   -1.5182 H   0  0  0  0  0  0  0  0  0  0  0  0
   -3.3194   -0.3579   -0.3148 H   0  0  0  0  0  0  0  0  0  0  0  0
   -5.6283   -4.0285   -2.6722 H   0  0  0  0  0  0  0  0  0  0  0  0
    3.7451   -0.7236   -4.4366 H   0  0  0  0  0  0  0  0  0  0  0  0
    2.9921   -1.3275   -7.3194 H   0  0  0  0  0  0  0  0  0  0  0  0
    1.0967    0.3870   -5.1195 H   0  0  0  0  0  0  0  0  0  0  0  0
    2.4734    1.1578   -4.3292 H   0  0  0  0  0  0  0  0  0  0  0  0
    2.7227    2.3686   -6.3172 H   0  0  0  0  0  0  0  0  0  0  0  0
    3.9948    0.7379   -8.0411 H   0  0  0  0  0  0  0  0  0  0  0  0
    5.1565   -1.6575   -7.4559 H   0  0  0  0  0  0  0  0  0  0  0  0
    5.0301    2.1058   -6.5836 H   0  0  0  0  0  0  0  0  0  0  0  0
    0.6213    3.0307   -7.4374 H   0  0  0  0  0  0  0  0  0  0  0  0
   -0.1776    1.7527   -6.4999 H   0  0  0  0  0  0  0  0  0  0  0  0
   -0.1531    2.0510   -9.5408 H   0  0  0  0  0  0  0  0  0  0  0  0
   -1.5382    2.2364   -8.4474 H   0  0  0  0  0  0  0  0  0  0  0  0
   -1.5002    0.2523   -9.4922 H   0  0  0  0  0  0  0  0  0  0  0  0
  1  2  1  0  0  0  0 
  2  3  2  0  0  0  0 
  3  4  1  0  0  0  0 
  4  7  2  0  0  0  0 
  1  5  2  0  0  0  0 
  6  5  1  0  0  0  0 
  7  8  1  0  0  0  0 
  8  9  1  0  0  0  0 
  6  9  2  0  0  0  0 
  5  7  1  0  0  0  0 
  3 10  1  0  0  0  0 
 10 11  1  0  0  0  0 
 11 12  1  0  0  0  0 
 12 13  1  0  0  0  0 
  1 14  1  0  0  0  0 
 15 14  1  0  0  0  0 
 15 16  1  0  0  0  0 
 16 17  1  0  0  0  0 
 17 15  1  0  0  0  0 
 16 18  1  0  0  0  0 
 23 18  2  0  0  0  0 
 19 18  1  0  0  0  0 
 19 20  2  0  0  0  0 
 20 21  1  0  0  0  0 
 21 22  2  0  0  0  0 
 22 23  1  0  0  0  0 
 21 24  1  0  0  0  0 
 22 25  1  0  0  0  0 
 26  8  1  0  0  0  0 
 27 26  1  0  0  0  0 
 26 28  1  0  0  0  0 
 28 29  1  0  0  0  0 
 29 30  1  0  0  0  0 
 27 30  1  0  0  0  0 
 27 31  1  0  0  0  0 
 30 32  1  0  0  0  0 
 29 33  1  0  0  0  0 
 33 34  1  0  0  0  0 
 34 35  1  0  0  0  0 
 35 36  1  0  0  0  0 
 11 37  1  0  0  0  0 
 11 38  1  0  0  0  0 
 12 39  1  0  0  0  0 
 12 40  1  0  0  0  0 
 13 41  1  0  0  0  0 
 13 42  1  0  0  0  0 
 13 43  1  0  0  0  0 
 14 44  1  0  0  0  0 
 15 45  1  0  0  0  0 
 16 46  1  0  0  0  0 
 17 47  1  0  0  0  0 
 17 48  1  0  0  0  0 
 19 49  1  0  0  0  0 
 20 50  1  0  0  0  0 
 23 51  1  0  0  0  0 
 26 52  1  0  0  0  0 
 27 53  1  0  0  0  0 
 28 54  1  0  0  0  0 
 28 55  1  0  0  0  0 
 29 56  1  0  0  0  0 
 30 57  1  0  0  0  0 
 31 58  1  0  0  0  0 
 32 59  1  0  0  0  0 
 34 60  1  0  0  0  0 
 34 61  1  0  0  0  0 
 35 62  1  0  0  0  0 
 35 63  1  0  0  0  0 
 36 64  1  0  0  0  0 
M  END
> <cdk:Title>
ticagrelor

> <Conformer>
1

> <SuperDrugID>
SD003414

$$$$
