rolapitant
  CDK     0628171802

 61 64  0  0  0  0  0  0  0  0999 V2000
   -0.2156    1.1953  -13.4884 C   0  0  0  0  0  0  0  0  0  0  0  0
    0.0969    1.3440  -12.1170 C   0  0  0  0  0  0  0  0  0  0  0  0
   -0.8981    1.2763  -11.1176 C   0  0  0  0  0  0  0  0  0  0  0  0
   -2.2237    0.9821  -11.5098 C   0  0  0  0  0  0  0  0  0  0  0  0
   -2.5759    0.7968  -12.8674 C   0  0  0  0  0  0  0  0  0  0  0  0
   -1.5594    0.9291  -13.8430 C   0  0  0  0  0  0  0  0  0  0  0  0
   -0.5604    1.5474   -9.6843 C   0  0  2  0  0  0  0  0  0  0  0  0
   -1.1252    0.5925   -8.7576 O   0  0  0  0  0  0  0  0  0  0  0  0
   -0.5967   -0.7490   -8.8216 C   0  0  2  0  0  0  0  0  0  0  0  0
   -1.2345   -1.6713   -7.7266 C   0  0  1  0  0  0  0  0  0  0  0  0
   -0.2721   -3.5735   -5.5203 C   0  0  2  0  0  0  0  0  0  0  0  0
   -0.9916   -4.1059   -6.7966 C   0  0  2  0  0  0  0  0  0  0  0  0
   -0.7748   -3.1545   -8.0014 C   0  0  1  0  0  0  0  0  0  0  0  0
   -0.5954   -1.2376   -6.4391 N   0  0  2  0  0  0  0  0  0  0  0  0
   -0.7553   -2.1178   -5.2495 C   0  0  2  0  0  0  0  0  0  0  0  0
   -2.7448   -1.5005   -7.7605 C   0  0  0  0  0  0  0  0  0  0  0  0
   -3.4764   -0.8477   -6.7300 C   0  0  0  0  0  0  0  0  0  0  0  0
   -4.8786   -0.7293   -6.7749 C   0  0  0  0  0  0  0  0  0  0  0  0
   -5.5880   -1.2269   -7.8796 C   0  0  0  0  0  0  0  0  0  0  0  0
   -4.8921   -1.8256   -8.9417 C   0  0  0  0  0  0  0  0  0  0  0  0
   -3.4925   -1.9490   -8.8829 C   0  0  0  0  0  0  0  0  0  0  0  0
    1.1354   -3.5824   -5.7279 N   0  0  0  0  0  0  0  0  0  0  0  0
    1.8309   -4.2937   -4.8415 C   0  0  0  0  0  0  0  0  0  0  0  0
    0.9823   -4.9301   -3.8439 C   0  0  2  0  0  0  0  0  0  0  0  0
   -0.4426   -4.5200   -4.2846 C   0  0  1  0  0  0  0  0  0  0  0  0
    3.0775   -4.4014   -4.8709 O   0  0  0  0  0  0  0  0  0  0  0  0
    0.5254    1.5716   -9.5391 H   0  0  0  0  0  0  0  0  0  0  0  0
   -1.0802    2.9470   -9.2778 C   0  0  0  0  0  0  0  0  0  0  0  0
    0.8656    1.3097  -14.5105 C   0  0  2  0  0  0  0  0  0  0  0  0
   -3.9879    0.4716  -13.2216 C   0  0  1  0  0  0  0  0  0  0  0  0
    1.6745    0.2004  -14.4490 F   0  0  0  0  0  0  0  0  0  0  0  0
    1.6331    2.4281  -14.2858 F   0  0  0  0  0  0  0  0  0  0  0  0
    0.4106    1.4182  -15.8046 F   0  0  0  0  0  0  0  0  0  0  0  0
   -4.8282    1.4557  -12.7601 F   0  0  0  0  0  0  0  0  0  0  0  0
   -4.2288    0.3522  -14.5704 F   0  0  0  0  0  0  0  0  0  0  0  0
   -4.3435   -0.7248  -12.6465 F   0  0  0  0  0  0  0  0  0  0  0  0
    1.0654    1.5278  -11.8436 H   0  0  0  0  0  0  0  0  0  0  0  0
   -2.9487    0.9034  -10.7915 H   0  0  0  0  0  0  0  0  0  0  0  0
   -1.8001    0.8198  -14.8296 H   0  0  0  0  0  0  0  0  0  0  0  0
    0.4912   -0.7176   -8.6863 H   0  0  0  0  0  0  0  0  0  0  0  0
   -0.7976   -1.1669   -9.8118 H   0  0  0  0  0  0  0  0  0  0  0  0
   -2.0643   -4.2124   -6.6067 H   0  0  0  0  0  0  0  0  0  0  0  0
   -0.6032   -5.0962   -7.0543 H   0  0  0  0  0  0  0  0  0  0  0  0
   -1.2746   -3.5825   -8.8720 H   0  0  0  0  0  0  0  0  0  0  0  0
    0.2937   -3.1619   -8.2370 H   0  0  0  0  0  0  0  0  0  0  0  0
   -0.9562   -0.3118   -6.1984 H   0  0  0  0  0  0  0  0  0  0  0  0
   -0.1841   -1.6816   -4.4264 H   0  0  0  0  0  0  0  0  0  0  0  0
   -1.8007   -2.1414   -4.9377 H   0  0  0  0  0  0  0  0  0  0  0  0
   -3.0028   -0.4257   -5.9315 H   0  0  0  0  0  0  0  0  0  0  0  0
   -5.3793   -0.2761   -6.0046 H   0  0  0  0  0  0  0  0  0  0  0  0
   -6.6063   -1.1434   -7.9132 H   0  0  0  0  0  0  0  0  0  0  0  0
   -5.4028   -2.1736   -9.7563 H   0  0  0  0  0  0  0  0  0  0  0  0
   -3.0248   -2.3686   -9.6864 H   0  0  0  0  0  0  0  0  0  0  0  0
    1.5582   -3.1117   -6.4631 H   0  0  0  0  0  0  0  0  0  0  0  0
    1.2278   -4.5480   -2.8499 H   0  0  0  0  0  0  0  0  0  0  0  0
    1.1200   -6.0150   -3.8681 H   0  0  0  0  0  0  0  0  0  0  0  0
   -0.9607   -4.0266   -3.4574 H   0  0  0  0  0  0  0  0  0  0  0  0
   -1.0155   -5.4159   -4.5417 H   0  0  0  0  0  0  0  0  0  0  0  0
   -0.8061    3.1592   -8.2425 H   0  0  0  0  0  0  0  0  0  0  0  0
   -0.6415    3.7200   -9.9140 H   0  0  0  0  0  0  0  0  0  0  0  0
   -2.1675    2.9965   -9.3632 H   0  0  0  0  0  0  0  0  0  0  0  0
  1  2  2  0  0  0  0 
  1  6  1  0  0  0  0 
  2  3  1  0  0  0  0 
  3  4  2  0  0  0  0 
  4  5  1  0  0  0  0 
  5  6  2  0  0  0  0 
  3  7  1  0  0  0  0 
  7  8  1  0  0  0  0 
  8  9  1  0  0  0  0 
 10  9  1  0  0  0  0 
 11 12  1  0  0  0  0 
 12 13  1  0  0  0  0 
 14 15  1  0  0  0  0 
 11 15  1  0  0  0  0 
 13 10  1  0  0  0  0 
 10 14  1  0  0  0  0 
 10 16  1  0  0  0  0 
 17 18  1  0  0  0  0 
 18 19  2  0  0  0  0 
 19 20  1  0  0  0  0 
 20 21  2  0  0  0  0 
 16 17  2  0  0  0  0 
 16 21  1  0  0  0  0 
 22 23  1  0  0  0  0 
 24 25  1  0  0  0  0 
 23 24  1  0  0  0  0 
 11 22  1  0  0  0  0 
 11 25  1  0  0  0  0 
 23 26  2  0  0  0  0 
  7 27  1  0  0  0  0 
  7 28  1  0  0  0  0 
  1 29  1  0  0  0  0 
  5 30  1  0  0  0  0 
 29 31  1  0  0  0  0 
 29 32  1  0  0  0  0 
 29 33  1  0  0  0  0 
 30 34  1  0  0  0  0 
 30 35  1  0  0  0  0 
 30 36  1  0  0  0  0 
  2 37  1  0  0  0  0 
  4 38  1  0  0  0  0 
  6 39  1  0  0  0  0 
  9 40  1  0  0  0  0 
  9 41  1  0  0  0  0 
 12 42  1  0  0  0  0 
 12 43  1  0  0  0  0 
 13 44  1  0  0  0  0 
 13 45  1  0  0  0  0 
 14 46  1  0  0  0  0 
 15 47  1  0  0  0  0 
 15 48  1  0  0  0  0 
 17 49  1  0  0  0  0 
 18 50  1  0  0  0  0 
 19 51  1  0  0  0  0 
 20 52  1  0  0  0  0 
 21 53  1  0  0  0  0 
 22 54  1  0  0  0  0 
 24 55  1  0  0  0  0 
 24 56  1  0  0  0  0 
 25 57  1  0  0  0  0 
 25 58  1  0  0  0  0 
 28 59  1  0  0  0  0 
 28 60  1  0  0  0  0 
 28 61  1  0  0  0  0 
M  END
> <cdk:Title>
rolapitant

> <Conformer>
1

> <SuperDrugID>
SD003879

$$$$
