ketobemidone
  CDK     0628171801

 39 40  0  0  0  0  0  0  0  0999 V2000
    3.1082    0.7037   -0.2464 C   0  0  0  0  0  0  0  0  0  0  0  0
    3.4184   -0.7517   -0.1137 C   0  0  1  0  0  0  0  0  0  0  0  0
    3.6632    1.2747   -1.2175 O   0  0  0  0  0  0  0  0  0  0  0  0
    2.1805    1.5035    0.6523 C   0  0  1  0  0  0  0  0  0  0  0  0
    2.2237   -1.6824   -0.4165 C   0  0  0  0  0  0  0  0  0  0  0  0
    2.4832    1.1970    2.1724 C   0  0  2  0  0  0  0  0  0  0  0  0
    2.4010    3.0636    0.5043 C   0  0  1  0  0  0  0  0  0  0  0  0
    0.7570    1.1748    0.2175 C   0  0  0  0  0  0  0  0  0  0  0  0
    3.8789    1.6836    2.6529 C   0  0  1  0  0  0  0  0  0  0  0  0
    3.7887    3.5518    1.0156 C   0  0  1  0  0  0  0  0  0  0  0  0
    0.3496    1.4297   -1.1230 C   0  0  0  0  0  0  0  0  0  0  0  0
   -0.2122    0.5674    1.0659 C   0  0  0  0  0  0  0  0  0  0  0  0
    4.0763    3.1469    2.4234 N   0  0  1  0  0  0  0  0  0  0  0  0
   -0.9202    1.0655   -1.6052 C   0  0  0  0  0  0  0  0  0  0  0  0
   -1.4929    0.2203    0.5976 C   0  0  0  0  0  0  0  0  0  0  0  0
    3.4742    4.0363    3.4567 C   0  0  0  0  0  0  0  0  0  0  0  0
   -1.2375    1.2835   -2.9055 O   0  0  0  0  0  0  0  0  0  0  0  0
   -1.8468    0.4656   -0.7369 C   0  0  0  0  0  0  0  0  0  0  0  0
    4.2185   -1.0238   -0.8104 H   0  0  0  0  0  0  0  0  0  0  0  0
    3.8031   -0.9690    0.8826 H   0  0  0  0  0  0  0  0  0  0  0  0
    1.4366   -1.5562    0.3252 H   0  0  0  0  0  0  0  0  0  0  0  0
    2.5466   -2.7248   -0.3846 H   0  0  0  0  0  0  0  0  0  0  0  0
    1.8229   -1.4731   -1.4112 H   0  0  0  0  0  0  0  0  0  0  0  0
    2.3893    0.1294    2.3838 H   0  0  0  0  0  0  0  0  0  0  0  0
    1.7425    1.7007    2.7997 H   0  0  0  0  0  0  0  0  0  0  0  0
    2.3104    3.3796   -0.5382 H   0  0  0  0  0  0  0  0  0  0  0  0
    1.6227    3.5991    1.0578 H   0  0  0  0  0  0  0  0  0  0  0  0
    3.9922    1.4414    3.7134 H   0  0  0  0  0  0  0  0  0  0  0  0
    4.6650    1.1375    2.1251 H   0  0  0  0  0  0  0  0  0  0  0  0
    4.5792    3.1410    0.3832 H   0  0  0  0  0  0  0  0  0  0  0  0
    3.8434    4.6392    0.9078 H   0  0  0  0  0  0  0  0  0  0  0  0
    0.9938    1.8698   -1.7808 H   0  0  0  0  0  0  0  0  0  0  0  0
   -0.0047    0.3432    2.0386 H   0  0  0  0  0  0  0  0  0  0  0  0
   -2.1656   -0.2268    1.2242 H   0  0  0  0  0  0  0  0  0  0  0  0
    3.8383    3.7557    4.4460 H   0  0  0  0  0  0  0  0  0  0  0  0
    3.7707    5.0727    3.2830 H   0  0  0  0  0  0  0  0  0  0  0  0
    2.3841    3.9807    3.4531 H   0  0  0  0  0  0  0  0  0  0  0  0
   -2.0059    0.7000   -3.0819 H   0  0  0  0  0  0  0  0  0  0  0  0
   -2.7743    0.1991   -1.0763 H   0  0  0  0  0  0  0  0  0  0  0  0
  1  2  1  0  0  0  0 
  1  3  2  0  0  0  0 
  1  4  1  0  0  0  0 
  2  5  1  0  0  0  0 
  4  6  1  0  0  0  0 
  4  7  1  0  0  0  0 
  4  8  1  0  0  0  0 
  6  9  1  0  0  0  0 
  7 10  1  0  0  0  0 
  8 11  2  0  0  0  0 
  8 12  1  0  0  0  0 
  9 13  1  0  0  0  0 
 10 13  1  0  0  0  0 
 11 14  1  0  0  0  0 
 12 15  2  0  0  0  0 
 13 16  1  0  0  0  0 
 14 17  1  0  0  0  0 
 14 18  2  0  0  0  0 
 15 18  1  0  0  0  0 
  2 19  1  0  0  0  0 
  2 20  1  0  0  0  0 
  5 21  1  0  0  0  0 
  5 22  1  0  0  0  0 
  5 23  1  0  0  0  0 
  6 24  1  0  0  0  0 
  6 25  1  0  0  0  0 
  7 26  1  0  0  0  0 
  7 27  1  0  0  0  0 
  9 28  1  0  0  0  0 
  9 29  1  0  0  0  0 
 10 30  1  0  0  0  0 
 10 31  1  0  0  0  0 
 11 32  1  0  0  0  0 
 12 33  1  0  0  0  0 
 15 34  1  0  0  0  0 
 16 35  1  0  0  0  0 
 16 36  1  0  0  0  0 
 16 37  1  0  0  0  0 
 17 38  1  0  0  0  0 
 18 39  1  0  0  0  0 
M  END
> <cdk:Title>
ketobemidone

> <Conformer>
1

> <SuperDrugID>
SD001349

$$$$
