deslanoside
  CDK     0628171802

140148  0  0  0  0  0  0  0  0999 V2000
    0.7587    4.2086   -0.7029 O   0  0  0  0  0  0  0  0  0  0  0  0
    0.8806    3.5907    0.5865 C   0  0  2  0  0  0  0  0  0  0  0  0
    0.9830    2.0305    0.4142 C   0  0  1  0  0  0  0  0  0  0  0  0
   -0.3794    4.1053    1.3920 C   0  0  1  0  0  0  0  0  0  0  0  0
    2.2777    3.9922    1.1686 C   0  0  2  0  0  0  0  0  0  0  0  0
    0.0092    1.4659   -0.6804 C   0  0  0  0  0  0  0  0  0  0  0  0
    2.5010    1.8171    0.0186 C   0  0  2  0  0  0  0  0  0  0  0  0
    0.6692    1.3202    1.8003 C   0  0  2  0  0  0  0  0  0  0  0  0
   -0.6425    3.3639    2.7513 C   0  0  2  0  0  0  0  0  0  0  0  0
   -0.3629    5.6718    1.5294 C   0  0  1  0  0  0  0  0  0  0  0  0
    3.2802    2.8591    0.8634 C   0  0  1  0  0  0  0  0  0  0  0  0
    2.8690    1.8835   -1.4103 C   0  0  0  0  0  0  0  0  0  0  0  0
    0.5838   -0.1016    1.6516 O   0  0  0  0  0  0  0  0  0  0  0  0
   -0.6219    1.8191    2.5081 C   0  0  2  0  0  0  0  0  0  0  0  0
   -1.8979    3.9225    3.6019 C   0  0  2  0  0  0  0  0  0  0  0  0
   -0.8828    6.2120    2.8731 C   0  0  1  0  0  0  0  0  0  0  0  0
    3.0243    2.9748   -2.1716 C   0  0  0  0  0  0  0  0  0  0  0  0
    3.1488    0.7153   -2.2204 C   0  0  2  0  0  0  0  0  0  0  0  0
   -3.2258    3.1431    3.2759 C   0  0  0  0  0  0  0  0  0  0  0  0
   -2.1820    5.4598    3.2773 C   0  0  2  0  0  0  0  0  0  0  0  0
   -1.5796    3.7243    5.1453 C   0  0  2  0  0  0  0  0  0  0  0  0
    3.3868    2.6158   -3.4236 C   0  0  0  0  0  0  0  0  0  0  0  0
    3.4583    1.2733   -3.4955 O   0  0  0  0  0  0  0  0  0  0  0  0
   -2.9585    6.2567    4.3767 C   0  0  2  0  0  0  0  0  0  0  0  0
   -2.3906    4.5943    6.1501 C   0  0  2  0  0  0  0  0  0  0  0  0
    3.6422    3.3993   -4.3644 O   0  0  0  0  0  0  0  0  0  0  0  0
   -2.3009    6.0991    5.7764 C   0  0  2  0  0  0  0  0  0  0  0  0
   -2.8174    6.9422    6.8440 O   0  0  0  0  0  0  0  0  0  0  0  0
   -2.8267    8.3775    6.6062 C   0  0  1  0  0  0  0  0  0  0  0  0
   -3.2259    9.2058    7.8623 C   0  0  1  0  0  0  0  0  0  0  0  0
   -1.6399    8.8989    5.9493 O   0  0  0  0  0  0  0  0  0  0  0  0
   -2.0202    9.6607    8.7243 C   0  0  2  0  0  0  0  0  0  0  0  0
   -0.4928    9.2567    6.7580 C   0  0  1  0  0  0  0  0  0  0  0  0
   -2.4619   10.5796    9.7193 O   0  0  0  0  0  0  0  0  0  0  0  0
   -0.8916   10.2948    7.8599 C   0  0  1  0  0  0  0  0  0  0  0  0
    0.3014    8.0288    7.2907 C   0  0  0  0  0  0  0  0  0  0  0  0
   -1.3561   11.5718    7.3273 O   0  0  0  0  0  0  0  0  0  0  0  0
   -0.3742   12.4793    6.7558 C   0  0  1  0  0  0  0  0  0  0  0  0
   -1.0448   13.6958    6.0571 C   0  0  1  0  0  0  0  0  0  0  0  0
    0.6480   12.9017    7.6892 O   0  0  0  0  0  0  0  0  0  0  0  0
   -1.4447   14.8169    7.0496 C   0  0  2  0  0  0  0  0  0  0  0  0
    0.3073   13.9223    8.6586 C   0  0  1  0  0  0  0  0  0  0  0  0
   -1.9144   15.9583    6.3344 O   0  0  0  0  0  0  0  0  0  0  0  0
   -0.2533   15.2146    7.9689 C   0  0  1  0  0  0  0  0  0  0  0  0
   -0.5771   13.3816    9.8159 C   0  0  0  0  0  0  0  0  0  0  0  0
    0.7216   15.9288    7.1539 O   0  0  0  0  0  0  0  0  0  0  0  0
    1.7807   16.6605    7.8232 C   0  0  1  0  0  0  0  0  0  0  0  0
    2.7943   17.2488    6.7949 C   0  0  1  0  0  0  0  0  0  0  0  0
    1.2957   17.6444    8.7715 O   0  0  0  0  0  0  0  0  0  0  0  0
    2.3903   18.6509    6.2624 C   0  0  2  0  0  0  0  0  0  0  0  0
    0.8773   18.9355    8.2690 C   0  0  1  0  0  0  0  0  0  0  0  0
    3.4526   19.2125    5.4923 O   0  0  0  0  0  0  0  0  0  0  0  0
    2.0262   19.5999    7.4391 C   0  0  1  0  0  0  0  0  0  0  0  0
   -0.5031   18.9067    7.5567 C   0  0  0  0  0  0  0  0  0  0  0  0
    3.2620   19.8087    8.1732 O   0  0  0  0  0  0  0  0  0  0  0  0
    3.2947   20.7049    9.3059 C   0  0  2  0  0  0  0  0  0  0  0  0
    3.0081   22.0880    8.9865 O   0  0  0  0  0  0  0  0  0  0  0  0
    4.6522   20.5338   10.0418 C   0  0  2  0  0  0  0  0  0  0  0  0
    4.0297   22.8753    8.3267 C   0  0  2  0  0  0  0  0  0  0  0  0
    4.5320   20.9923   11.3898 O   0  0  0  0  0  0  0  0  0  0  0  0
    5.8042   21.2759    9.3147 C   0  0  2  0  0  0  0  0  0  0  0  0
    4.0456   22.6494    6.7919 C   0  0  1  0  0  0  0  0  0  0  0  0
    5.4269   22.7514    9.0151 C   0  0  2  0  0  0  0  0  0  0  0  0
    6.1507   20.5859    8.1140 O   0  0  0  0  0  0  0  0  0  0  0  0
    4.8747   23.6129    6.1481 O   0  0  0  0  0  0  0  0  0  0  0  0
    5.4352   23.4886   10.2387 O   0  0  0  0  0  0  0  0  0  0  0  0
   -1.2518    3.8604    0.7776 H   0  0  0  0  0  0  0  0  0  0  0  0
    0.2589    3.5680    3.3345 H   0  0  0  0  0  0  0  0  0  0  0  0
   -2.8350    5.5140    2.3958 H   0  0  0  0  0  0  0  0  0  0  0  0
   -3.6475    8.5400    5.9050 H   0  0  0  0  0  0  0  0  0  0  0  0
    0.1501   11.9527    5.9597 H   0  0  0  0  0  0  0  0  0  0  0  0
    2.3573   15.9469    8.4118 H   0  0  0  0  0  0  0  0  0  0  0  0
    2.5345   20.3902   10.0204 H   0  0  0  0  0  0  0  0  0  0  0  0
    0.7823    5.1738   -0.5441 H   0  0  0  0  0  0  0  0  0  0  0  0
    2.2355    4.1375    2.2503 H   0  0  0  0  0  0  0  0  0  0  0  0
    2.6385    4.9273    0.7292 H   0  0  0  0  0  0  0  0  0  0  0  0
   -1.0335    1.6025   -0.3973 H   0  0  0  0  0  0  0  0  0  0  0  0
    0.1521    1.9569   -1.6433 H   0  0  0  0  0  0  0  0  0  0  0  0
    0.1817    0.3989   -0.8301 H   0  0  0  0  0  0  0  0  0  0  0  0
    2.8092    0.8248    0.3622 H   0  0  0  0  0  0  0  0  0  0  0  0
    1.4878    1.4946    2.5031 H   0  0  0  0  0  0  0  0  0  0  0  0
    0.6342    6.0921    1.3932 H   0  0  0  0  0  0  0  0  0  0  0  0
   -0.9812    6.0900    0.7308 H   0  0  0  0  0  0  0  0  0  0  0  0
    4.1719    3.2461    0.3596 H   0  0  0  0  0  0  0  0  0  0  0  0
    3.6195    2.4027    1.7974 H   0  0  0  0  0  0  0  0  0  0  0  0
    0.4132   -0.4547    2.5506 H   0  0  0  0  0  0  0  0  0  0  0  0
   -0.7058    1.3059    3.4679 H   0  0  0  0  0  0  0  0  0  0  0  0
   -1.4779    1.5177    1.9069 H   0  0  0  0  0  0  0  0  0  0  0  0
   -0.1111    6.0825    3.6318 H   0  0  0  0  0  0  0  0  0  0  0  0
   -1.0566    7.2846    2.7645 H   0  0  0  0  0  0  0  0  0  0  0  0
    2.9130    3.9159   -1.8828 H   0  0  0  0  0  0  0  0  0  0  0  0
    2.2838    0.0571   -2.2967 H   0  0  0  0  0  0  0  0  0  0  0  0
    4.0072    0.1654   -1.8328 H   0  0  0  0  0  0  0  0  0  0  0  0
   -4.0856    3.5809    3.7873 H   0  0  0  0  0  0  0  0  0  0  0  0
   -3.1727    2.0984    3.5846 H   0  0  0  0  0  0  0  0  0  0  0  0
   -3.4240    3.1663    2.2026 H   0  0  0  0  0  0  0  0  0  0  0  0
   -0.5303    3.9565    5.3479 H   0  0  0  0  0  0  0  0  0  0  0  0
   -1.7108    2.6742    5.4206 H   0  0  0  0  0  0  0  0  0  0  0  0
   -4.0012    5.9308    4.4231 H   0  0  0  0  0  0  0  0  0  0  0  0
   -2.9872    7.3068    4.0868 H   0  0  0  0  0  0  0  0  0  0  0  0
   -1.9832    4.4438    7.1541 H   0  0  0  0  0  0  0  0  0  0  0  0
   -3.4324    4.2631    6.1741 H   0  0  0  0  0  0  0  0  0  0  0  0
   -1.2441    6.3439    5.6874 H   0  0  0  0  0  0  0  0  0  0  0  0
   -3.7542   10.1056    7.5345 H   0  0  0  0  0  0  0  0  0  0  0  0
   -3.9199    8.6312    8.4797 H   0  0  0  0  0  0  0  0  0  0  0  0
   -1.6224    8.7994    9.2645 H   0  0  0  0  0  0  0  0  0  0  0  0
    0.1984    9.7425    6.0697 H   0  0  0  0  0  0  0  0  0  0  0  0
   -3.1375   10.0882   10.2318 H   0  0  0  0  0  0  0  0  0  0  0  0
   -0.0340   10.4779    8.5142 H   0  0  0  0  0  0  0  0  0  0  0  0
    1.1299    8.3509    7.9258 H   0  0  0  0  0  0  0  0  0  0  0  0
   -0.3364    7.3555    7.8647 H   0  0  0  0  0  0  0  0  0  0  0  0
    0.7240    7.4709    6.4531 H   0  0  0  0  0  0  0  0  0  0  0  0
   -0.3412   14.1155    5.3317 H   0  0  0  0  0  0  0  0  0  0  0  0
   -1.9268   13.3632    5.5053 H   0  0  0  0  0  0  0  0  0  0  0  0
   -2.2815   14.4679    7.6589 H   0  0  0  0  0  0  0  0  0  0  0  0
    1.2488   14.1758    9.1443 H   0  0  0  0  0  0  0  0  0  0  0  0
   -2.6753   15.6344    5.8090 H   0  0  0  0  0  0  0  0  0  0  0  0
   -0.6391   15.8964    8.7325 H   0  0  0  0  0  0  0  0  0  0  0  0
   -0.6741   14.1332   10.6034 H   0  0  0  0  0  0  0  0  0  0  0  0
   -1.5756   13.1180    9.4710 H   0  0  0  0  0  0  0  0  0  0  0  0
   -0.1161   12.4917   10.2498 H   0  0  0  0  0  0  0  0  0  0  0  0
    3.7732   17.3350    7.2770 H   0  0  0  0  0  0  0  0  0  0  0  0
    2.9087   16.5594    5.9551 H   0  0  0  0  0  0  0  0  0  0  0  0
    1.5403   18.5495    5.5841 H   0  0  0  0  0  0  0  0  0  0  0  0
    0.6977   19.5495    9.1508 H   0  0  0  0  0  0  0  0  0  0  0  0
    3.5999   18.5749    4.7632 H   0  0  0  0  0  0  0  0  0  0  0  0
    1.6858   20.5561    7.0328 H   0  0  0  0  0  0  0  0  0  0  0  0
   -0.7939   19.9154    7.2522 H   0  0  0  0  0  0  0  0  0  0  0  0
   -0.4919   18.2710    6.6737 H   0  0  0  0  0  0  0  0  0  0  0  0
   -1.2624   18.5250    8.2411 H   0  0  0  0  0  0  0  0  0  0  0  0
    4.8986   19.4700   10.1019 H   0  0  0  0  0  0  0  0  0  0  0  0
    3.7022   23.9111    8.4556 H   0  0  0  0  0  0  0  0  0  0  0  0
    4.2306   21.9220   11.3238 H   0  0  0  0  0  0  0  0  0  0  0  0
    6.6972   21.2537    9.9457 H   0  0  0  0  0  0  0  0  0  0  0  0
    4.4079   21.6548    6.5410 H   0  0  0  0  0  0  0  0  0  0  0  0
    3.0343   22.7586    6.3961 H   0  0  0  0  0  0  0  0  0  0  0  0
    6.2029   23.1987    8.3894 H   0  0  0  0  0  0  0  0  0  0  0  0
    6.9058   21.0875    7.7400 H   0  0  0  0  0  0  0  0  0  0  0  0
    4.7941   23.4230    5.1902 H   0  0  0  0  0  0  0  0  0  0  0  0
    5.2852   24.4226    9.9828 H   0  0  0  0  0  0  0  0  0  0  0  0
  2  1  1  0  0  0  0 
  2  3  1  0  0  0  0 
  4  2  1  0  0  0  0 
  2  5  1  0  0  0  0 
  3  6  1  0  0  0  0 
  3  7  1  0  0  0  0 
  3  8  1  0  0  0  0 
  9  4  1  0  0  0  0 
  4 10  1  0  0  0  0 
  4 67  1  0  0  0  0 
  5 11  1  0  0  0  0 
  7 11  1  0  0  0  0 
  7 12  1  0  0  0  0 
  8 13  1  0  0  0  0 
  8 14  1  0  0  0  0 
  9 14  1  0  0  0  0 
 15  9  1  0  0  0  0 
  9 68  1  0  0  0  0 
 10 16  1  0  0  0  0 
 12 17  2  0  0  0  0 
 12 18  1  0  0  0  0 
 15 19  1  0  0  0  0 
 20 15  1  0  0  0  0 
 15 21  1  0  0  0  0 
 20 16  1  0  0  0  0 
 17 22  1  0  0  0  0 
 18 23  1  0  0  0  0 
 20 24  1  0  0  0  0 
 20 69  1  0  0  0  0 
 21 25  1  0  0  0  0 
 22 23  1  0  0  0  0 
 22 26  2  0  0  0  0 
 27 24  1  0  0  0  0 
 27 25  1  0  0  0  0 
 27 28  1  0  0  0  0 
 29 28  1  0  0  0  0 
 29 30  1  0  0  0  0 
 29 31  1  0  0  0  0 
 29 70  1  0  0  0  0 
 32 30  1  0  0  0  0 
 33 31  1  0  0  0  0 
 32 34  1  0  0  0  0 
 35 32  1  0  0  0  0 
 33 35  1  0  0  0  0 
 33 36  1  0  0  0  0 
 35 37  1  0  0  0  0 
 38 37  1  0  0  0  0 
 38 39  1  0  0  0  0 
 38 40  1  0  0  0  0 
 38 71  1  0  0  0  0 
 41 39  1  0  0  0  0 
 42 40  1  0  0  0  0 
 41 43  1  0  0  0  0 
 44 41  1  0  0  0  0 
 44 42  1  0  0  0  0 
 42 45  1  0  0  0  0 
 44 46  1  0  0  0  0 
 47 46  1  0  0  0  0 
 47 48  1  0  0  0  0 
 47 49  1  0  0  0  0 
 47 72  1  0  0  0  0 
 50 48  1  0  0  0  0 
 51 49  1  0  0  0  0 
 50 52  1  0  0  0  0 
 53 50  1  0  0  0  0 
 53 51  1  0  0  0  0 
 51 54  1  0  0  0  0 
 53 55  1  0  0  0  0 
 56 55  1  0  0  0  0 
 56 57  1  0  0  0  0 
 58 56  1  0  0  0  0 
 56 73  1  0  0  0  0 
 59 57  1  0  0  0  0 
 58 60  1  0  0  0  0 
 61 58  1  0  0  0  0 
 59 62  1  0  0  0  0 
 63 59  1  0  0  0  0 
 61 63  1  0  0  0  0 
 61 64  1  0  0  0  0 
 62 65  1  0  0  0  0 
 63 66  1  0  0  0  0 
  1 74  1  0  0  0  0 
  5 75  1  0  0  0  0 
  5 76  1  0  0  0  0 
  6 77  1  0  0  0  0 
  6 78  1  0  0  0  0 
  6 79  1  0  0  0  0 
  7 80  1  0  0  0  0 
  8 81  1  0  0  0  0 
 10 82  1  0  0  0  0 
 10 83  1  0  0  0  0 
 11 84  1  0  0  0  0 
 11 85  1  0  0  0  0 
 13 86  1  0  0  0  0 
 14 87  1  0  0  0  0 
 14 88  1  0  0  0  0 
 16 89  1  0  0  0  0 
 16 90  1  0  0  0  0 
 17 91  1  0  0  0  0 
 18 92  1  0  0  0  0 
 18 93  1  0  0  0  0 
 19 94  1  0  0  0  0 
 19 95  1  0  0  0  0 
 19 96  1  0  0  0  0 
 21 97  1  0  0  0  0 
 21 98  1  0  0  0  0 
 24 99  1  0  0  0  0 
 24100  1  0  0  0  0 
 25101  1  0  0  0  0 
 25102  1  0  0  0  0 
 27103  1  0  0  0  0 
 30104  1  0  0  0  0 
 30105  1  0  0  0  0 
 32106  1  0  0  0  0 
 33107  1  0  0  0  0 
 34108  1  0  0  0  0 
 35109  1  0  0  0  0 
 36110  1  0  0  0  0 
 36111  1  0  0  0  0 
 36112  1  0  0  0  0 
 39113  1  0  0  0  0 
 39114  1  0  0  0  0 
 41115  1  0  0  0  0 
 42116  1  0  0  0  0 
 43117  1  0  0  0  0 
 44118  1  0  0  0  0 
 45119  1  0  0  0  0 
 45120  1  0  0  0  0 
 45121  1  0  0  0  0 
 48122  1  0  0  0  0 
 48123  1  0  0  0  0 
 50124  1  0  0  0  0 
 51125  1  0  0  0  0 
 52126  1  0  0  0  0 
 53127  1  0  0  0  0 
 54128  1  0  0  0  0 
 54129  1  0  0  0  0 
 54130  1  0  0  0  0 
 58131  1  0  0  0  0 
 59132  1  0  0  0  0 
 60133  1  0  0  0  0 
 61134  1  0  0  0  0 
 62135  1  0  0  0  0 
 62136  1  0  0  0  0 
 63137  1  0  0  0  0 
 64138  1  0  0  0  0 
 65139  1  0  0  0  0 
 66140  1  0  0  0  0 
M  END
> <cdk:Title>
deslanoside

> <Conformer>
1

> <SuperDrugID>
SD000718

$$$$
