bietamiverine
  CDK     0628171801

 53 54  0  0  0  0  0  0  0  0999 V2000
   -1.9628    1.6057    1.4035 C   0  0  1  0  0  0  0  0  0  0  0  0
   -1.5518    0.7537    2.5496 C   0  0  0  0  0  0  0  0  0  0  0  0
   -1.9247    3.0294    1.8810 C   0  0  0  0  0  0  0  0  0  0  0  0
   -1.1260    1.3228    0.1707 N   0  0  2  0  0  0  0  0  0  0  0  0
   -0.2834    0.8592    3.0384 O   0  0  0  0  0  0  0  0  0  0  0  0
   -2.3551   -0.0836    3.0265 O   0  0  0  0  0  0  0  0  0  0  0  0
   -0.6996    3.7353    1.9893 C   0  0  0  0  0  0  0  0  0  0  0  0
   -3.1145    3.6954    2.2697 C   0  0  0  0  0  0  0  0  0  0  0  0
   -1.5061    2.1562   -1.0218 C   0  0  2  0  0  0  0  0  0  0  0  0
   -1.0447   -0.1359   -0.2062 C   0  0  1  0  0  0  0  0  0  0  0  0
    0.3282    0.0057    4.0119 C   0  0  1  0  0  0  0  0  0  0  0  0
   -0.6589    5.0474    2.4956 C   0  0  0  0  0  0  0  0  0  0  0  0
   -3.0749    5.0053    2.7844 C   0  0  0  0  0  0  0  0  0  0  0  0
   -0.5315    1.9589   -2.2113 C   0  0  2  0  0  0  0  0  0  0  0  0
   -0.0536   -0.3938   -1.3656 C   0  0  1  0  0  0  0  0  0  0  0  0
    1.7071    0.5657    4.4415 C   0  0  1  0  0  0  0  0  0  0  0  0
   -1.8456    5.6778    2.9058 C   0  0  0  0  0  0  0  0  0  0  0  0
   -0.4034    0.4670   -2.5991 C   0  0  1  0  0  0  0  0  0  0  0  0
    1.6504    1.2924    5.7570 N   0  0  1  0  0  0  0  0  0  0  0  0
    2.9235    1.1867    6.5505 C   0  0  2  0  0  0  0  0  0  0  0  0
    1.0522    2.6685    5.6570 C   0  0  2  0  0  0  0  0  0  0  0  0
    3.0250   -0.1613    7.3034 C   0  0  0  0  0  0  0  0  0  0  0  0
    0.5639    3.2446    7.0078 C   0  0  0  0  0  0  0  0  0  0  0  0
   -2.9984    1.3436    1.1496 H   0  0  0  0  0  0  0  0  0  0  0  0
    0.1788    3.2954    1.7018 H   0  0  0  0  0  0  0  0  0  0  0  0
   -4.0202    3.2285    2.1945 H   0  0  0  0  0  0  0  0  0  0  0  0
   -1.4898    3.2179   -0.7670 H   0  0  0  0  0  0  0  0  0  0  0  0
   -2.5189    1.9063   -1.3505 H   0  0  0  0  0  0  0  0  0  0  0  0
   -0.6900   -0.7372    0.6330 H   0  0  0  0  0  0  0  0  0  0  0  0
   -2.0338   -0.5075   -0.4874 H   0  0  0  0  0  0  0  0  0  0  0  0
   -0.3148   -0.1145    4.8878 H   0  0  0  0  0  0  0  0  0  0  0  0
    0.4593   -0.9754    3.5456 H   0  0  0  0  0  0  0  0  0  0  0  0
    0.2334    5.5422    2.5696 H   0  0  0  0  0  0  0  0  0  0  0  0
   -3.9407    5.4674    3.0752 H   0  0  0  0  0  0  0  0  0  0  0  0
    0.4536    2.3495   -1.9383 H   0  0  0  0  0  0  0  0  0  0  0  0
   -0.8897    2.5196   -3.0783 H   0  0  0  0  0  0  0  0  0  0  0  0
    0.9602   -0.1584   -1.0271 H   0  0  0  0  0  0  0  0  0  0  0  0
   -0.0826   -1.4511   -1.6423 H   0  0  0  0  0  0  0  0  0  0  0  0
    2.3872   -0.2873    4.5058 H   0  0  0  0  0  0  0  0  0  0  0  0
    2.1064    1.2188    3.6598 H   0  0  0  0  0  0  0  0  0  0  0  0
   -1.8176    6.6242    3.2919 H   0  0  0  0  0  0  0  0  0  0  0  0
   -1.3442    0.1168   -3.0325 H   0  0  0  0  0  0  0  0  0  0  0  0
    0.3781    0.3519   -3.3536 H   0  0  0  0  0  0  0  0  0  0  0  0
    2.9918    1.9694    7.3078 H   0  0  0  0  0  0  0  0  0  0  0  0
    3.7964    1.2963    5.8999 H   0  0  0  0  0  0  0  0  0  0  0  0
    0.1742    2.6366    5.0067 H   0  0  0  0  0  0  0  0  0  0  0  0
    1.7663    3.3648    5.2078 H   0  0  0  0  0  0  0  0  0  0  0  0
    3.9208   -0.1674    7.9284 H   0  0  0  0  0  0  0  0  0  0  0  0
    3.0914   -0.9993    6.6077 H   0  0  0  0  0  0  0  0  0  0  0  0
    2.1524   -0.3040    7.9439 H   0  0  0  0  0  0  0  0  0  0  0  0
   -0.1273    4.0726    6.8372 H   0  0  0  0  0  0  0  0  0  0  0  0
    1.4033    3.6269    7.5897 H   0  0  0  0  0  0  0  0  0  0  0  0
    0.0491    2.4755    7.5861 H   0  0  0  0  0  0  0  0  0  0  0  0
  1  2  1  0  0  0  0 
  1  3  1  0  0  0  0 
  1  4  1  0  0  0  0 
  2  5  1  0  0  0  0 
  2  6  2  0  0  0  0 
  3  7  2  0  0  0  0 
  3  8  1  0  0  0  0 
  4  9  1  0  0  0  0 
  4 10  1  0  0  0  0 
  5 11  1  0  0  0  0 
  7 12  1  0  0  0  0 
  8 13  2  0  0  0  0 
  9 14  1  0  0  0  0 
 10 15  1  0  0  0  0 
 11 16  1  0  0  0  0 
 12 17  2  0  0  0  0 
 13 17  1  0  0  0  0 
 14 18  1  0  0  0  0 
 15 18  1  0  0  0  0 
 16 19  1  0  0  0  0 
 19 20  1  0  0  0  0 
 19 21  1  0  0  0  0 
 20 22  1  0  0  0  0 
 21 23  1  0  0  0  0 
  1 24  1  0  0  0  0 
  7 25  1  0  0  0  0 
  8 26  1  0  0  0  0 
  9 27  1  0  0  0  0 
  9 28  1  0  0  0  0 
 10 29  1  0  0  0  0 
 10 30  1  0  0  0  0 
 11 31  1  0  0  0  0 
 11 32  1  0  0  0  0 
 12 33  1  0  0  0  0 
 13 34  1  0  0  0  0 
 14 35  1  0  0  0  0 
 14 36  1  0  0  0  0 
 15 37  1  0  0  0  0 
 15 38  1  0  0  0  0 
 16 39  1  0  0  0  0 
 16 40  1  0  0  0  0 
 17 41  1  0  0  0  0 
 18 42  1  0  0  0  0 
 18 43  1  0  0  0  0 
 20 44  1  0  0  0  0 
 20 45  1  0  0  0  0 
 21 46  1  0  0  0  0 
 21 47  1  0  0  0  0 
 22 48  1  0  0  0  0 
 22 49  1  0  0  0  0 
 22 50  1  0  0  0  0 
 23 51  1  0  0  0  0 
 23 52  1  0  0  0  0 
 23 53  1  0  0  0  0 
M  END
> <cdk:Title>
bietamiverine

> <Conformer>
1

> <SuperDrugID>
SD002629

$$$$
