ciprofibrate
  CDK     0628171802

 32 33  0  0  0  0  0  0  0  0999 V2000
    2.3820   -3.9806   -3.2184 Cl  0  0  0  0  0  0  0  0  0  0  0  0
    0.9404   -3.4814   -2.3315 C   0  0  2  0  0  0  0  0  0  0  0  0
   -0.2959   -4.7097   -2.0656 Cl  0  0  0  0  0  0  0  0  0  0  0  0
    0.4759   -2.0071   -2.3347 C   0  0  1  0  0  0  0  0  0  0  0  0
    1.2283   -2.5796   -1.1207 C   0  0  1  0  0  0  0  0  0  0  0  0
    1.1461   -1.0031   -3.1945 C   0  0  0  0  0  0  0  0  0  0  0  0
    1.7154    0.1599   -2.6296 C   0  0  0  0  0  0  0  0  0  0  0  0
    1.1557   -1.1556   -4.5994 C   0  0  0  0  0  0  0  0  0  0  0  0
    2.2380    1.1714   -3.4554 C   0  0  0  0  0  0  0  0  0  0  0  0
    1.6806   -0.1424   -5.4216 C   0  0  0  0  0  0  0  0  0  0  0  0
    2.1724    1.0518   -4.8580 C   0  0  0  0  0  0  0  0  0  0  0  0
    2.5975    2.0804   -5.6667 O   0  0  0  0  0  0  0  0  0  0  0  0
    1.6200    3.0870   -6.0763 C   0  0  2  0  0  0  0  0  0  0  0  0
    2.3630    4.0663   -6.9255 C   0  0  0  0  0  0  0  0  0  0  0  0
    3.6862    3.9396   -7.1911 O   0  0  0  0  0  0  0  0  0  0  0  0
    1.7842    5.0568   -7.4323 O   0  0  0  0  0  0  0  0  0  0  0  0
    1.0254    3.8530   -4.8495 C   0  0  0  0  0  0  0  0  0  0  0  0
    0.4719    2.4642   -6.9361 C   0  0  0  0  0  0  0  0  0  0  0  0
   -0.5908   -1.8523   -2.1570 H   0  0  0  0  0  0  0  0  0  0  0  0
    0.6160   -2.7414   -0.2297 H   0  0  0  0  0  0  0  0  0  0  0  0
    2.2624   -2.2554   -0.9899 H   0  0  0  0  0  0  0  0  0  0  0  0
    1.7390    0.2864   -1.6151 H   0  0  0  0  0  0  0  0  0  0  0  0
    0.7668   -1.9977   -5.0321 H   0  0  0  0  0  0  0  0  0  0  0  0
    2.6505    2.0068   -3.0347 H   0  0  0  0  0  0  0  0  0  0  0  0
    1.6848   -0.2686   -6.4371 H   0  0  0  0  0  0  0  0  0  0  0  0
    4.1315    4.6092   -7.7543 H   0  0  0  0  0  0  0  0  0  0  0  0
    0.3951    4.6870   -5.1660 H   0  0  0  0  0  0  0  0  0  0  0  0
    0.4059    3.1939   -4.2385 H   0  0  0  0  0  0  0  0  0  0  0  0
    1.8255    4.2478   -4.2200 H   0  0  0  0  0  0  0  0  0  0  0  0
   -0.1817    3.2355   -7.3494 H   0  0  0  0  0  0  0  0  0  0  0  0
   -0.1526    1.8007   -6.3350 H   0  0  0  0  0  0  0  0  0  0  0  0
    0.8850    1.8850   -7.7645 H   0  0  0  0  0  0  0  0  0  0  0  0
  1  2  1  0  0  0  0 
  2  3  1  0  0  0  0 
  2  4  1  0  0  0  0 
  2  5  1  0  0  0  0 
  4  5  1  0  0  0  0 
  4  6  1  0  0  0  0 
  6  7  2  0  0  0  0 
  6  8  1  0  0  0  0 
  7  9  1  0  0  0  0 
  8 10  2  0  0  0  0 
  9 11  2  0  0  0  0 
 10 11  1  0  0  0  0 
 11 12  1  0  0  0  0 
 12 13  1  0  0  0  0 
 13 14  1  0  0  0  0 
 14 15  1  0  0  0  0 
 14 16  2  0  0  0  0 
 13 17  1  0  0  0  0 
 13 18  1  0  0  0  0 
  4 19  1  0  0  0  0 
  5 20  1  0  0  0  0 
  5 21  1  0  0  0  0 
  7 22  1  0  0  0  0 
  8 23  1  0  0  0  0 
  9 24  1  0  0  0  0 
 10 25  1  0  0  0  0 
 15 26  1  0  0  0  0 
 17 27  1  0  0  0  0 
 17 28  1  0  0  0  0 
 17 29  1  0  0  0  0 
 18 30  1  0  0  0  0 
 18 31  1  0  0  0  0 
 18 32  1  0  0  0  0 
M  END
> <cdk:Title>
ciprofibrate

> <Conformer>
1

> <SuperDrugID>
SD000578

$$$$
