simvastatin
  CDK     0628171801

 68 70  0  0  0  0  0  0  0  0999 V2000
    1.3694   -0.4774    0.4584 O   0  0  0  0  0  0  0  0  0  0  0  0
    2.6012   -0.3134    1.0527 C   0  0  0  0  0  0  0  0  0  0  0  0
    1.0054   -0.6745   -0.9299 C   0  0  2  0  0  0  0  0  0  0  0  0
    2.7602    0.3845    2.3718 C   0  0  2  0  0  0  0  0  0  0  0  0
    3.6360   -0.7302    0.4793 O   0  0  0  0  0  0  0  0  0  0  0  0
    0.1947   -1.9824   -1.2695 C   0  0  1  0  0  0  0  0  0  0  0  0
    2.1565   -0.4604   -1.9477 C   0  0  2  0  0  0  0  0  0  0  0  0
    3.6356    1.6811    2.1517 C   0  0  2  0  0  0  0  0  0  0  0  0
    3.4830   -0.5703    3.3867 C   0  0  0  0  0  0  0  0  0  0  0  0
    1.3786    0.7683    3.0029 C   0  0  0  0  0  0  0  0  0  0  0  0
    0.1075   -2.2554   -2.7310 C   0  0  0  0  0  0  0  0  0  0  0  0
    0.5835   -3.2971   -0.4422 C   0  0  1  0  0  0  0  0  0  0  0  0
    1.5927   -0.3847   -3.3957 C   0  0  2  0  0  0  0  0  0  0  0  0
    3.1444    2.7031    1.0876 C   0  0  0  0  0  0  0  0  0  0  0  0
   -0.5210   -3.4102   -3.0905 C   0  0  0  0  0  0  0  0  0  0  0  0
    0.7139   -1.5141   -3.6845 C   0  0  0  0  0  0  0  0  0  0  0  0
   -0.5128   -3.6632    0.6259 C   0  0  2  0  0  0  0  0  0  0  0  0
    0.8482   -4.5269   -1.4129 C   0  0  2  0  0  0  0  0  0  0  0  0
    2.7650   -0.2832   -4.4101 C   0  0  0  0  0  0  0  0  0  0  0  0
   -0.1827   -4.5493   -2.4598 C   0  0  0  0  0  0  0  0  0  0  0  0
   -0.7099   -2.6614    1.7952 C   0  0  1  0  0  0  0  0  0  0  0  0
    1.0688   -5.9213   -0.7594 C   0  0  0  0  0  0  0  0  0  0  0  0
   -1.9526   -3.0138    2.6687 C   0  0  2  0  0  0  0  0  0  0  0  0
   -2.2887   -1.9260    3.7355 C   0  0  2  0  0  0  0  0  0  0  0  0
   -1.7772   -4.3193    3.2593 O   0  0  0  0  0  0  0  0  0  0  0  0
   -1.4815   -2.1601    5.0357 C   0  0  1  0  0  0  0  0  0  0  0  0
   -1.7430   -4.6152    4.5934 C   0  0  0  0  0  0  0  0  0  0  0  0
   -1.7727   -1.1394    5.9873 O   0  0  0  0  0  0  0  0  0  0  0  0
   -1.7761   -3.5621    5.6305 C   0  0  1  0  0  0  0  0  0  0  0  0
   -1.7016   -5.8196    4.9287 O   0  0  0  0  0  0  0  0  0  0  0  0
   -0.8404   -1.7363   -1.0098 H   0  0  0  0  0  0  0  0  0  0  0  0
    0.3171    0.1600   -1.1014 H   0  0  0  0  0  0  0  0  0  0  0  0
    2.8596   -1.2939   -1.8610 H   0  0  0  0  0  0  0  0  0  0  0  0
    2.6883    0.4663   -1.7166 H   0  0  0  0  0  0  0  0  0  0  0  0
    4.6490    1.3849    1.8581 H   0  0  0  0  0  0  0  0  0  0  0  0
    3.7284    2.2212    3.0989 H   0  0  0  0  0  0  0  0  0  0  0  0
    3.5729    0.0103    4.4039 H   0  0  0  0  0  0  0  0  0  0  0  0
    2.8875   -1.5332    3.4334 H   0  0  0  0  0  0  0  0  0  0  0  0
    4.4711   -0.8878    2.9316 H   0  0  0  0  0  0  0  0  0  0  0  0
    1.5176    1.3107    3.9426 H   0  0  0  0  0  0  0  0  0  0  0  0
    0.7955    1.4026    2.3368 H   0  0  0  0  0  0  0  0  0  0  0  0
    0.7818   -0.1224    3.2087 H   0  0  0  0  0  0  0  0  0  0  0  0
    1.5169   -3.1157    0.0999 H   0  0  0  0  0  0  0  0  0  0  0  0
    0.9979    0.5301   -3.4908 H   0  0  0  0  0  0  0  0  0  0  0  0
    2.1345    3.0506    1.3062 H   0  0  0  0  0  0  0  0  0  0  0  0
    3.1570    2.2660    0.0881 H   0  0  0  0  0  0  0  0  0  0  0  0
    3.8078    3.5712    1.0833 H   0  0  0  0  0  0  0  0  0  0  0  0
   -1.2032   -3.4144   -3.8145 H   0  0  0  0  0  0  0  0  0  0  0  0
    0.5849   -1.7529   -4.6441 H   0  0  0  0  0  0  0  0  0  0  0  0
   -0.2669   -4.6137    1.0997 H   0  0  0  0  0  0  0  0  0  0  0  0
   -1.4672   -3.7994    0.1083 H   0  0  0  0  0  0  0  0  0  0  0  0
    1.7951   -4.3128   -1.9230 H   0  0  0  0  0  0  0  0  0  0  0  0
    2.3806   -0.1642   -5.4239 H   0  0  0  0  0  0  0  0  0  0  0  0
    3.3880   -1.1804   -4.3730 H   0  0  0  0  0  0  0  0  0  0  0  0
    3.3879    0.5865   -4.1847 H   0  0  0  0  0  0  0  0  0  0  0  0
   -0.6328   -5.3975   -2.7181 H   0  0  0  0  0  0  0  0  0  0  0  0
    0.1912   -2.6641    2.4139 H   0  0  0  0  0  0  0  0  0  0  0  0
   -0.8448   -1.6584    1.3913 H   0  0  0  0  0  0  0  0  0  0  0  0
    1.7872   -5.8428    0.0587 H   0  0  0  0  0  0  0  0  0  0  0  0
    0.1330   -6.3331   -0.3775 H   0  0  0  0  0  0  0  0  0  0  0  0
    1.4621   -6.6243   -1.4967 H   0  0  0  0  0  0  0  0  0  0  0  0
   -2.8186   -3.0829    2.0040 H   0  0  0  0  0  0  0  0  0  0  0  0
   -3.3547   -1.9875    3.9782 H   0  0  0  0  0  0  0  0  0  0  0  0
   -2.0979   -0.9214    3.3481 H   0  0  0  0  0  0  0  0  0  0  0  0
   -0.4153   -2.0926    4.8091 H   0  0  0  0  0  0  0  0  0  0  0  0
   -2.7384   -1.1992    6.1442 H   0  0  0  0  0  0  0  0  0  0  0  0
   -1.0323   -3.7864    6.3992 H   0  0  0  0  0  0  0  0  0  0  0  0
   -2.7646   -3.5685    6.0968 H   0  0  0  0  0  0  0  0  0  0  0  0
  1  2  1  0  0  0  0 
  2  4  1  0  0  0  0 
  2  5  2  0  0  0  0 
  3  1  1  0  0  0  0 
  6  3  1  0  0  0  0 
  3  7  1  0  0  0  0 
  4  8  1  0  0  0  0 
  4  9  1  0  0  0  0 
  4 10  1  0  0  0  0 
  6 11  1  0  0  0  0 
 12  6  1  0  0  0  0 
  6 31  1  0  0  0  0 
 13  7  1  0  0  0  0 
  8 14  1  0  0  0  0 
 11 15  1  0  0  0  0 
 11 16  2  0  0  0  0 
 12 17  1  0  0  0  0 
 12 18  1  0  0  0  0 
 13 16  1  0  0  0  0 
 13 19  1  0  0  0  0 
 15 20  2  0  0  0  0 
 17 21  1  0  0  0  0 
 18 20  1  0  0  0  0 
 18 22  1  0  0  0  0 
 23 21  1  0  0  0  0 
 23 24  1  0  0  0  0 
 23 25  1  0  0  0  0 
 26 24  1  0  0  0  0 
 25 27  1  0  0  0  0 
 26 28  1  0  0  0  0 
 26 29  1  0  0  0  0 
 27 29  1  0  0  0  0 
 27 30  2  0  0  0  0 
  3 32  1  0  0  0  0 
  7 33  1  0  0  0  0 
  7 34  1  0  0  0  0 
  8 35  1  0  0  0  0 
  8 36  1  0  0  0  0 
  9 37  1  0  0  0  0 
  9 38  1  0  0  0  0 
  9 39  1  0  0  0  0 
 10 40  1  0  0  0  0 
 10 41  1  0  0  0  0 
 10 42  1  0  0  0  0 
 12 43  1  0  0  0  0 
 13 44  1  0  0  0  0 
 14 45  1  0  0  0  0 
 14 46  1  0  0  0  0 
 14 47  1  0  0  0  0 
 15 48  1  0  0  0  0 
 16 49  1  0  0  0  0 
 17 50  1  0  0  0  0 
 17 51  1  0  0  0  0 
 18 52  1  0  0  0  0 
 19 53  1  0  0  0  0 
 19 54  1  0  0  0  0 
 19 55  1  0  0  0  0 
 20 56  1  0  0  0  0 
 21 57  1  0  0  0  0 
 21 58  1  0  0  0  0 
 22 59  1  0  0  0  0 
 22 60  1  0  0  0  0 
 22 61  1  0  0  0  0 
 23 62  1  0  0  0  0 
 24 63  1  0  0  0  0 
 24 64  1  0  0  0  0 
 26 65  1  0  0  0  0 
 28 66  1  0  0  0  0 
 29 67  1  0  0  0  0 
 29 68  1  0  0  0  0 
M  END
> <cdk:Title>
simvastatin

> <Conformer>
1

> <SuperDrugID>
SD002197

$$$$
