ifosfamide
  CDK     0628171801

 29 29  0  0  0  0  0  0  0  0999 V2000
   -3.9339   -2.9531    0.9399 C   0  0  1  0  0  0  0  0  0  0  0  0
   -4.4571   -4.3037    1.4940 C   0  0  2  0  0  0  0  0  0  0  0  0
   -2.4599   -2.8994    0.6378 N   0  0  2  0  0  0  0  0  0  0  0  0
   -6.0716   -4.1378    2.1827 Cl  0  0  0  0  0  0  0  0  0  0  0  0
   -1.9729   -1.3924    0.1341 P   0  0  2  0  0  0  0  0  0  0  0  0
   -1.9357   -3.9470   -0.2999 C   0  0  2  0  0  0  0  0  0  0  0  0
   -0.3366   -1.2599    0.2400 N   0  0  1  0  0  0  0  0  0  0  0  0
   -2.6051   -0.3355    0.9356 O   0  0  0  0  0  0  0  0  0  0  0  0
   -2.4328   -1.2438   -1.3950 O   0  0  0  0  0  0  0  0  0  0  0  0
   -2.3544   -3.7292   -1.7785 C   0  0  2  0  0  0  0  0  0  0  0  0
    0.2061    0.0424   -0.2182 C   0  0  2  0  0  0  0  0  0  0  0  0
   -1.9627   -2.3053   -2.2532 C   0  0  2  0  0  0  0  0  0  0  0  0
    1.7239    0.1025    0.0509 C   0  0  1  0  0  0  0  0  0  0  0  0
    2.4085    1.6284   -0.5043 Cl  0  0  0  0  0  0  0  0  0  0  0  0
   -4.5236   -2.6944    0.0536 H   0  0  0  0  0  0  0  0  0  0  0  0
   -4.1498   -2.2055    1.7098 H   0  0  0  0  0  0  0  0  0  0  0  0
   -3.7881   -4.6772    2.2716 H   0  0  0  0  0  0  0  0  0  0  0  0
   -4.5197   -5.0402    0.6918 H   0  0  0  0  0  0  0  0  0  0  0  0
   -2.2566   -4.9415    0.0117 H   0  0  0  0  0  0  0  0  0  0  0  0
   -0.8424   -3.9679   -0.2401 H   0  0  0  0  0  0  0  0  0  0  0  0
   -0.0960   -1.3551    1.2286 H   0  0  0  0  0  0  0  0  0  0  0  0
   -3.4341   -3.8642   -1.8775 H   0  0  0  0  0  0  0  0  0  0  0  0
   -1.8607   -4.4733   -2.4096 H   0  0  0  0  0  0  0  0  0  0  0  0
   -0.2708    0.8727    0.3121 H   0  0  0  0  0  0  0  0  0  0  0  0
    0.0303    0.1605   -1.2916 H   0  0  0  0  0  0  0  0  0  0  0  0
   -0.8770   -2.2412   -2.3715 H   0  0  0  0  0  0  0  0  0  0  0  0
   -2.4052   -2.1386   -3.2364 H   0  0  0  0  0  0  0  0  0  0  0  0
    1.9140    0.0092    1.1226 H   0  0  0  0  0  0  0  0  0  0  0  0
    2.2301   -0.7144   -0.4681 H   0  0  0  0  0  0  0  0  0  0  0  0
  1  2  1  0  0  0  0 
  1  3  1  0  0  0  0 
  2  4  1  0  0  0  0 
  3  5  1  0  0  0  0 
  3  6  1  0  0  0  0 
  5  7  1  0  0  0  0 
  5  8  2  0  0  0  0 
  5  9  1  0  0  0  0 
  6 10  1  0  0  0  0 
  7 11  1  0  0  0  0 
  9 12  1  0  0  0  0 
 10 12  1  0  0  0  0 
 11 13  1  0  0  0  0 
 13 14  1  0  0  0  0 
 15  1  1  0  0  0  0 
 16  1  1  0  0  0  0 
 17  2  1  0  0  0  0 
 18  2  1  0  0  0  0 
 19  6  1  0  0  0  0 
 20  6  1  0  0  0  0 
 21  7  1  0  0  0  0 
 22 10  1  0  0  0  0 
 23 10  1  0  0  0  0 
 24 11  1  0  0  0  0 
 25 11  1  0  0  0  0 
 26 12  1  0  0  0  0 
 27 12  1  0  0  0  0 
 28 13  1  0  0  0  0 
 29 13  1  0  0  0  0 
M  END
> <cdk:Title>
ifosfamide

> <Conformer>
1

> <SuperDrugID>
SD001261

$$$$
