pseudoephedrine
  CDK     0628171801

 27 27  0  0  0  0  0  0  0  0999 V2000
   -0.9871   -0.4208   -0.2793 C   0  0  1  0  0  0  0  0  0  0  0  0
   -1.2657    1.0712   -0.6635 C   0  0  1  0  0  0  0  0  0  0  0  0
   -0.8153   -1.2225   -1.4493 O   0  0  0  0  0  0  0  0  0  0  0  0
    0.2199   -0.6087    0.5826 C   0  0  0  0  0  0  0  0  0  0  0  0
   -2.5060    1.2258   -1.4731 N   0  0  1  0  0  0  0  0  0  0  0  0
   -1.4467    1.9779    0.5844 C   0  0  0  0  0  0  0  0  0  0  0  0
    0.1128   -1.0752    1.9158 C   0  0  0  0  0  0  0  0  0  0  0  0
    1.5104   -0.3213    0.0737 C   0  0  0  0  0  0  0  0  0  0  0  0
   -2.3946    1.0677   -2.9379 C   0  0  0  0  0  0  0  0  0  0  0  0
    1.2621   -1.2380    2.7142 C   0  0  0  0  0  0  0  0  0  0  0  0
    2.6614   -0.5045    0.8610 C   0  0  0  0  0  0  0  0  0  0  0  0
    2.5358   -0.9542    2.1867 C   0  0  0  0  0  0  0  0  0  0  0  0
   -1.8775   -0.8027    0.2270 H   0  0  0  0  0  0  0  0  0  0  0  0
   -0.4128    1.4648   -1.2249 H   0  0  0  0  0  0  0  0  0  0  0  0
   -0.6533   -2.1324   -1.1175 H   0  0  0  0  0  0  0  0  0  0  0  0
   -3.1998    0.5550   -1.1351 H   0  0  0  0  0  0  0  0  0  0  0  0
   -0.5153    2.0330    1.1507 H   0  0  0  0  0  0  0  0  0  0  0  0
   -1.7146    2.9935    0.2795 H   0  0  0  0  0  0  0  0  0  0  0  0
   -2.2337    1.5917    1.2379 H   0  0  0  0  0  0  0  0  0  0  0  0
   -0.8027   -1.3000    2.3154 H   0  0  0  0  0  0  0  0  0  0  0  0
    1.6249    0.0239   -0.8823 H   0  0  0  0  0  0  0  0  0  0  0  0
   -3.3156    1.4338   -3.3917 H   0  0  0  0  0  0  0  0  0  0  0  0
   -2.2721    0.0186   -3.2053 H   0  0  0  0  0  0  0  0  0  0  0  0
   -1.5606    1.6502   -3.3341 H   0  0  0  0  0  0  0  0  0  0  0  0
    1.1713   -1.5680    3.6791 H   0  0  0  0  0  0  0  0  0  0  0  0
    3.5871   -0.3124    0.4696 H   0  0  0  0  0  0  0  0  0  0  0  0
    3.3689   -1.0793    2.7665 H   0  0  0  0  0  0  0  0  0  0  0  0
  2  1  1  0  0  0  0 
  1  3  1  0  0  0  0 
  1  4  1  0  0  0  0 
  2  5  1  0  0  0  0 
  2  6  1  0  0  0  0 
  4  7  2  0  0  0  0 
  4  8  1  0  0  0  0 
  5  9  1  0  0  0  0 
  7 10  1  0  0  0  0 
  8 11  2  0  0  0  0 
 10 12  2  0  0  0  0 
 11 12  1  0  0  0  0 
  1 13  1  0  0  0  0 
  2 14  1  0  0  0  0 
  3 15  1  0  0  0  0 
  5 16  1  0  0  0  0 
  6 17  1  0  0  0  0 
  6 18  1  0  0  0  0 
  6 19  1  0  0  0  0 
  7 20  1  0  0  0  0 
  8 21  1  0  0  0  0 
  9 22  1  0  0  0  0 
  9 23  1  0  0  0  0 
  9 24  1  0  0  0  0 
 10 25  1  0  0  0  0 
 11 26  1  0  0  0  0 
 12 27  1  0  0  0  0 
M  END
> <cdk:Title>
pseudoephedrine

> <Conformer>
1

> <SuperDrugID>
SD002090

$$$$
