etofylline clofibrate
  CDK     0628171801

 50 52  0  0  0  0  0  0  0  0999 V2000
    5.0254    2.9415   -3.5685 C   0  0  1  0  0  0  0  0  0  0  0  0
    4.9229    2.1782   -2.2209 C   0  0  1  0  0  0  0  0  0  0  0  0
    3.7605    3.4407   -4.0333 N   0  0  0  0  0  0  0  0  0  0  0  0
    3.5641    1.8949   -1.8578 O   0  0  0  0  0  0  0  0  0  0  0  0
    3.0764    4.5361   -3.6347 C   0  0  0  0  0  0  0  0  0  0  0  0
    3.0024    2.8509   -4.9811 C   0  0  0  0  0  0  0  0  0  0  0  0
    3.1444    1.1665   -0.7823 C   0  0  0  0  0  0  0  0  0  0  0  0
    1.9070    4.6059   -4.3823 C   0  0  0  0  0  0  0  0  0  0  0  0
    3.3197    5.5355   -2.6757 C   0  0  0  0  0  0  0  0  0  0  0  0
    1.8759    3.5445   -5.2044 N   0  0  0  0  0  0  0  0  0  0  0  0
    1.6859    1.0876   -0.4655 C   0  0  1  0  0  0  0  0  0  0  0  0
    3.9996    0.5911   -0.0649 O   0  0  0  0  0  0  0  0  0  0  0  0
    1.0061    5.6207   -4.2413 N   0  0  0  0  0  0  0  0  0  0  0  0
    4.3595    5.4517   -1.9795 O   0  0  0  0  0  0  0  0  0  0  0  0
    2.4147    6.5639   -2.5197 N   0  0  0  0  0  0  0  0  0  0  0  0
    1.5693    0.1227    0.6242 O   0  0  0  0  0  0  0  0  0  0  0  0
    1.2055    2.5314   -0.0977 C   0  0  0  0  0  0  0  0  0  0  0  0
    0.8986    0.5806   -1.7129 C   0  0  0  0  0  0  0  0  0  0  0  0
   -0.1893    5.6696   -5.0539 C   0  0  0  0  0  0  0  0  0  0  0  0
    1.2782    6.5984   -3.3081 C   0  0  0  0  0  0  0  0  0  0  0  0
    2.6930    7.6032   -1.5437 C   0  0  0  0  0  0  0  0  0  0  0  0
    0.4373    0.0995    1.3925 C   0  0  0  0  0  0  0  0  0  0  0  0
    0.4718    7.5562   -3.1978 O   0  0  0  0  0  0  0  0  0  0  0  0
   -0.7111   -0.6112    0.9877 C   0  0  0  0  0  0  0  0  0  0  0  0
    0.4464    0.7575    2.6395 C   0  0  0  0  0  0  0  0  0  0  0  0
   -1.8615   -0.6151    1.7956 C   0  0  0  0  0  0  0  0  0  0  0  0
   -0.6983    0.7394    3.4566 C   0  0  0  0  0  0  0  0  0  0  0  0
   -1.8571    0.0573    3.0341 C   0  0  0  0  0  0  0  0  0  0  0  0
   -3.2376    0.0459    4.0105 Cl  0  0  0  0  0  0  0  0  0  0  0  0
    5.7364    3.7647   -3.4776 H   0  0  0  0  0  0  0  0  0  0  0  0
    5.4532    2.2682   -4.3189 H   0  0  0  0  0  0  0  0  0  0  0  0
    5.4777    1.2391   -2.2954 H   0  0  0  0  0  0  0  0  0  0  0  0
    5.3704    2.7741   -1.4217 H   0  0  0  0  0  0  0  0  0  0  0  0
    3.2417    1.9857   -5.4696 H   0  0  0  0  0  0  0  0  0  0  0  0
    0.1374    2.5393    0.1297 H   0  0  0  0  0  0  0  0  0  0  0  0
    1.7440    2.9092    0.7738 H   0  0  0  0  0  0  0  0  0  0  0  0
    1.3667    3.2239   -0.9276 H   0  0  0  0  0  0  0  0  0  0  0  0
   -0.1727    0.5511   -1.5063 H   0  0  0  0  0  0  0  0  0  0  0  0
    1.2253   -0.4239   -1.9895 H   0  0  0  0  0  0  0  0  0  0  0  0
    1.0449    1.2437   -2.5688 H   0  0  0  0  0  0  0  0  0  0  0  0
   -0.2246    6.6109   -5.6043 H   0  0  0  0  0  0  0  0  0  0  0  0
   -0.2544    4.8654   -5.7877 H   0  0  0  0  0  0  0  0  0  0  0  0
   -1.0717    5.6037   -4.4157 H   0  0  0  0  0  0  0  0  0  0  0  0
    3.0155    7.1739   -0.5934 H   0  0  0  0  0  0  0  0  0  0  0  0
    1.8303    8.2301   -1.3154 H   0  0  0  0  0  0  0  0  0  0  0  0
    3.4858    8.2531   -1.9188 H   0  0  0  0  0  0  0  0  0  0  0  0
   -0.7110   -1.1296    0.1063 H   0  0  0  0  0  0  0  0  0  0  0  0
    1.2876    1.2525    2.9506 H   0  0  0  0  0  0  0  0  0  0  0  0
   -2.6947   -1.1151    1.4777 H   0  0  0  0  0  0  0  0  0  0  0  0
   -0.6813    1.2250    4.3562 H   0  0  0  0  0  0  0  0  0  0  0  0
  1  2  1  0  0  0  0 
  1  3  1  0  0  0  0 
  2  4  1  0  0  0  0 
  3  5  1  0  0  0  0 
  3  6  1  0  0  0  0 
  4  7  1  0  0  0  0 
  5  8  2  0  0  0  0 
  5  9  1  0  0  0  0 
  6 10  2  0  0  0  0 
  7 11  1  0  0  0  0 
  7 12  2  0  0  0  0 
  8 10  1  0  0  0  0 
  8 13  1  0  0  0  0 
  9 14  2  0  0  0  0 
  9 15  1  0  0  0  0 
 11 16  1  0  0  0  0 
 11 17  1  0  0  0  0 
 11 18  1  0  0  0  0 
 13 19  1  0  0  0  0 
 13 20  1  0  0  0  0 
 15 20  1  0  0  0  0 
 15 21  1  0  0  0  0 
 16 22  1  0  0  0  0 
 20 23  2  0  0  0  0 
 22 24  2  0  0  0  0 
 22 25  1  0  0  0  0 
 24 26  1  0  0  0  0 
 25 27  2  0  0  0  0 
 26 28  2  0  0  0  0 
 27 28  1  0  0  0  0 
 28 29  1  0  0  0  0 
  1 30  1  0  0  0  0 
  1 31  1  0  0  0  0 
  2 32  1  0  0  0  0 
  2 33  1  0  0  0  0 
  6 34  1  0  0  0  0 
 17 35  1  0  0  0  0 
 17 36  1  0  0  0  0 
 17 37  1  0  0  0  0 
 18 38  1  0  0  0  0 
 18 39  1  0  0  0  0 
 18 40  1  0  0  0  0 
 19 41  1  0  0  0  0 
 19 42  1  0  0  0  0 
 19 43  1  0  0  0  0 
 21 44  1  0  0  0  0 
 21 45  1  0  0  0  0 
 21 46  1  0  0  0  0 
 24 47  1  0  0  0  0 
 25 48  1  0  0  0  0 
 26 49  1  0  0  0  0 
 27 50  1  0  0  0  0 
M  END
> <cdk:Title>
etofylline clofibrate

> <Conformer>
1

> <SuperDrugID>
SD000989

$$$$
