glucosulfone
  CDK     0628171801

 83 84  0  0  0  0  0  0  0  0999 V2000
   -3.8590   51.0439   20.2133 C   0  0  0  0  0  0  0  0  0  0  0  0
   -3.4323   49.8097   20.7381 C   0  0  0  0  0  0  0  0  0  0  0  0
   -4.3220   48.9869   21.4616 C   0  0  0  0  0  0  0  0  0  0  0  0
   -5.6388   49.4493   21.6890 C   0  0  0  0  0  0  0  0  0  0  0  0
   -6.0624   50.6890   21.1743 C   0  0  0  0  0  0  0  0  0  0  0  0
   -5.1806   51.4852   20.4165 C   0  0  0  0  0  0  0  0  0  0  0  0
   -5.7043   53.0450   19.7491 S   0  0  1  0  0  0  0  0  0  0  0  0
   -5.2235   54.3290   20.8755 C   0  0  0  0  0  0  0  0  0  0  0  0
   -3.8613   54.6456   21.0436 C   0  0  0  0  0  0  0  0  0  0  0  0
   -3.4654   55.5757   22.0220 C   0  0  0  0  0  0  0  0  0  0  0  0
   -4.4191   56.2028   22.8508 C   0  0  0  0  0  0  0  0  0  0  0  0
   -5.7898   55.9294   22.6292 C   0  0  0  0  0  0  0  0  0  0  0  0
   -6.1867   54.9977   21.6537 C   0  0  0  0  0  0  0  0  0  0  0  0
   -5.0115   53.2819   18.3196 O   0  0  0  0  0  0  0  0  0  0  0  0
   -7.2950   53.0406   19.5278 O   0  0  0  0  0  0  0  0  0  0  0  0
   -3.8720   47.7671   21.8820 N   0  0  0  0  0  0  0  0  0  0  0  0
   -3.9431   57.0190   23.8384 N   0  0  0  0  0  0  0  0  0  0  0  0
   -4.5965   46.5353   21.7708 C   0  0  2  0  0  0  0  0  0  0  0  0
   -4.5396   57.2529   25.1191 C   0  0  1  0  0  0  0  0  0  0  0  0
   -3.9974   45.4122   22.6818 C   0  0  1  0  0  0  0  0  0  0  0  0
   -4.1939   45.5947   24.2257 C   0  0  1  0  0  0  0  0  0  0  0  0
   -4.6177   44.1660   22.3485 O   0  0  0  0  0  0  0  0  0  0  0  0
   -3.8527   44.3582   24.8607 O   0  0  0  0  0  0  0  0  0  0  0  0
   -3.3803   46.7472   24.9011 C   0  0  1  0  0  0  0  0  0  0  0  0
   -3.4760   46.7662   26.4640 C   0  0  2  0  0  0  0  0  0  0  0  0
   -4.8426   46.8132   26.8755 O   0  0  0  0  0  0  0  0  0  0  0  0
   -2.7520   47.9587   27.1406 C   0  0  1  0  0  0  0  0  0  0  0  0
   -1.3366   47.8381   27.0548 O   0  0  0  0  0  0  0  0  0  0  0  0
   -2.0133   46.6411   24.5054 O   0  0  0  0  0  0  0  0  0  0  0  0
   -4.5537   46.0784   19.9864 S   0  0  2  0  0  0  0  0  0  0  0  0
   -4.0429   55.8093   26.1470 S   0  0  1  0  0  0  0  0  0  0  0  0
   -4.1023   58.6238   25.7278 C   0  0  1  0  0  0  0  0  0  0  0  0
   -4.6328   59.8912   24.9702 C   0  0  1  0  0  0  0  0  0  0  0  0
   -4.6029   58.6793   27.0678 O   0  0  0  0  0  0  0  0  0  0  0  0
   -4.3596   61.0395   25.7750 O   0  0  0  0  0  0  0  0  0  0  0  0
   -4.0704   60.1332   23.5289 C   0  0  1  0  0  0  0  0  0  0  0  0
   -4.4997   61.4914   22.8811 C   0  0  2  0  0  0  0  0  0  0  0  0
   -2.6469   60.0400   23.5687 O   0  0  0  0  0  0  0  0  0  0  0  0
   -5.9236   61.6001   22.8715 O   0  0  0  0  0  0  0  0  0  0  0  0
   -4.0121   61.6895   21.4208 C   0  0  2  0  0  0  0  0  0  0  0  0
   -2.6055   61.9010   21.3598 O   0  0  0  0  0  0  0  0  0  0  0  0
   -5.0676   47.3952   19.0211 O   0  0  0  0  0  0  0  0  0  0  0  0
   -5.5375   44.8510   19.6833 O   0  0  0  0  0  0  0  0  0  0  0  0
   -3.0594   45.7019   19.5461 O   0  0  0  0  0  0  0  0  0  0  0  0
   -2.3449   55.8011   26.3429 O   0  0  0  0  0  0  0  0  0  0  0  0
   -4.7225   55.8707   27.5961 O   0  0  0  0  0  0  0  0  0  0  0  0
   -4.4682   54.4426   25.4251 O   0  0  0  0  0  0  0  0  0  0  0  0
   -3.2003   51.6159   19.6802 H   0  0  0  0  0  0  0  0  0  0  0  0
   -2.4731   49.5027   20.5624 H   0  0  0  0  0  0  0  0  0  0  0  0
   -6.2988   48.8928   22.2330 H   0  0  0  0  0  0  0  0  0  0  0  0
   -7.0179   51.0063   21.3559 H   0  0  0  0  0  0  0  0  0  0  0  0
   -3.1480   54.1860   20.4725 H   0  0  0  0  0  0  0  0  0  0  0  0
   -2.4686   55.7665   22.1484 H   0  0  0  0  0  0  0  0  0  0  0  0
   -6.5144   56.3942   23.1753 H   0  0  0  0  0  0  0  0  0  0  0  0
   -7.1812   54.7968   21.5298 H   0  0  0  0  0  0  0  0  0  0  0  0
   -2.9485   47.7135   22.1768 H   0  0  0  0  0  0  0  0  0  0  0  0
   -3.0638   57.4023   23.6961 H   0  0  0  0  0  0  0  0  0  0  0  0
   -5.6440   46.6668   22.0481 H   0  0  0  0  0  0  0  0  0  0  0  0
   -5.6291   57.2535   25.0643 H   0  0  0  0  0  0  0  0  0  0  0  0
   -2.9318   45.3007   22.4675 H   0  0  0  0  0  0  0  0  0  0  0  0
   -5.2586   45.7645   24.4084 H   0  0  0  0  0  0  0  0  0  0  0  0
   -4.3059   43.9461   21.4455 H   0  0  0  0  0  0  0  0  0  0  0  0
   -4.1784   44.4394   25.7828 H   0  0  0  0  0  0  0  0  0  0  0  0
   -3.7627   47.6989   24.5293 H   0  0  0  0  0  0  0  0  0  0  0  0
   -3.0382   45.8502   26.8689 H   0  0  0  0  0  0  0  0  0  0  0  0
   -5.2326   45.9671   26.5707 H   0  0  0  0  0  0  0  0  0  0  0  0
   -3.0578   48.9010   26.6861 H   0  0  0  0  0  0  0  0  0  0  0  0
   -3.0126   47.9927   28.2007 H   0  0  0  0  0  0  0  0  0  0  0  0
   -0.9862   48.6266   27.5244 H   0  0  0  0  0  0  0  0  0  0  0  0
   -1.5916   47.4767   24.7901 H   0  0  0  0  0  0  0  0  0  0  0  0
   -3.0116   58.6652   25.7935 H   0  0  0  0  0  0  0  0  0  0  0  0
   -5.7203   59.8029   24.9073 H   0  0  0  0  0  0  0  0  0  0  0  0
   -4.2115   59.4843   27.4681 H   0  0  0  0  0  0  0  0  0  0  0  0
   -4.8939   61.7630   25.3802 H   0  0  0  0  0  0  0  0  0  0  0  0
   -4.4393   59.3388   22.8803 H   0  0  0  0  0  0  0  0  0  0  0  0
   -4.1043   62.3203   23.4736 H   0  0  0  0  0  0  0  0  0  0  0  0
   -2.3612   59.9776   22.6350 H   0  0  0  0  0  0  0  0  0  0  0  0
   -6.1892   61.5834   23.8147 H   0  0  0  0  0  0  0  0  0  0  0  0
   -4.4952   62.5684   20.9871 H   0  0  0  0  0  0  0  0  0  0  0  0
   -4.2702   60.8255   20.8068 H   0  0  0  0  0  0  0  0  0  0  0  0
   -2.4099   62.0347   20.4066 H   0  0  0  0  0  0  0  0  0  0  0  0
   -5.8214   47.7868   19.5093 H   0  0  0  0  0  0  0  0  0  0  0  0
   -1.9913   56.1037   25.4783 H   0  0  0  0  0  0  0  0  0  0  0  0
  1  2  2  0  0  0  0 
  2  3  1  0  0  0  0 
  3  4  2  0  0  0  0 
  4  5  1  0  0  0  0 
  5  6  2  0  0  0  0 
  1  6  1  0  0  0  0 
  6  7  1  0  0  0  0 
  7  8  1  0  0  0  0 
  9 10  1  0  0  0  0 
 10 11  2  0  0  0  0 
 11 12  1  0  0  0  0 
 12 13  2  0  0  0  0 
  8  9  2  0  0  0  0 
  8 13  1  0  0  0  0 
  7 14  2  0  0  0  0 
  7 15  2  0  0  0  0 
  3 16  1  0  0  0  0 
 11 17  1  0  0  0  0 
 16 18  1  0  0  0  0 
 17 19  1  0  0  0  0 
 18 20  1  0  0  0  0 
 20 21  1  0  0  0  0 
 20 22  1  0  0  0  0 
 21 23  1  0  0  0  0 
 21 24  1  0  0  0  0 
 24 25  1  0  0  0  0 
 25 26  1  0  0  0  0 
 25 27  1  0  0  0  0 
 27 28  1  0  0  0  0 
 24 29  1  0  0  0  0 
 18 30  1  0  0  0  0 
 19 31  1  0  0  0  0 
 19 32  1  0  0  0  0 
 32 33  1  0  0  0  0 
 32 34  1  0  0  0  0 
 33 35  1  0  0  0  0 
 33 36  1  0  0  0  0 
 36 37  1  0  0  0  0 
 36 38  1  0  0  0  0 
 37 39  1  0  0  0  0 
 37 40  1  0  0  0  0 
 40 41  1  0  0  0  0 
 42 30  1  0  0  0  0 
 30 43  2  0  0  0  0 
 30 44  2  0  0  0  0 
 45 31  1  0  0  0  0 
 31 46  2  0  0  0  0 
 31 47  2  0  0  0  0 
  1 48  1  0  0  0  0 
  2 49  1  0  0  0  0 
  4 50  1  0  0  0  0 
  5 51  1  0  0  0  0 
  9 52  1  0  0  0  0 
 10 53  1  0  0  0  0 
 12 54  1  0  0  0  0 
 13 55  1  0  0  0  0 
 16 56  1  0  0  0  0 
 17 57  1  0  0  0  0 
 18 58  1  0  0  0  0 
 19 59  1  0  0  0  0 
 20 60  1  0  0  0  0 
 21 61  1  0  0  0  0 
 22 62  1  0  0  0  0 
 23 63  1  0  0  0  0 
 24 64  1  0  0  0  0 
 25 65  1  0  0  0  0 
 26 66  1  0  0  0  0 
 27 67  1  0  0  0  0 
 27 68  1  0  0  0  0 
 28 69  1  0  0  0  0 
 29 70  1  0  0  0  0 
 32 71  1  0  0  0  0 
 33 72  1  0  0  0  0 
 34 73  1  0  0  0  0 
 35 74  1  0  0  0  0 
 36 75  1  0  0  0  0 
 37 76  1  0  0  0  0 
 38 77  1  0  0  0  0 
 39 78  1  0  0  0  0 
 40 79  1  0  0  0  0 
 40 80  1  0  0  0  0 
 41 81  1  0  0  0  0 
 42 82  1  0  0  0  0 
 45 83  1  0  0  0  0 
M  END
> <cdk:Title>
glucosulfone

> <Conformer>
1

> <SuperDrugID>
SD001164

$$$$
