armodafinil
  CDK     0628171801

 34 35  0  0  0  0  0  0  0  0999 V2000
   -1.0776   -0.2654   -0.3273 C   0  0  2  0  0  0  0  0  0  0  0  0
   -1.1335   -1.5038   -1.6863 S   0  0  1  0  0  0  0  0  0  0  0  0
    0.2515   -0.3354    0.3611 C   0  0  0  0  0  0  0  0  0  0  0  0
   -2.2459   -0.3624    0.6064 C   0  0  0  0  0  0  0  0  0  0  0  0
   -2.5337   -1.0571   -2.7775 C   0  0  2  0  0  0  0  0  0  0  0  0
    0.1743   -1.1965   -2.5630 O   0  0  0  0  0  0  0  0  0  0  0  0
    0.7110   -1.5207    0.9919 C   0  0  0  0  0  0  0  0  0  0  0  0
    1.1192    0.7859    0.3525 C   0  0  0  0  0  0  0  0  0  0  0  0
   -2.9992    0.7970    0.9230 C   0  0  0  0  0  0  0  0  0  0  0  0
   -2.6594   -1.5919    1.1787 C   0  0  0  0  0  0  0  0  0  0  0  0
   -3.8337   -1.3841   -2.1685 C   0  0  0  0  0  0  0  0  0  0  0  0
    1.9803   -1.5797    1.5946 C   0  0  0  0  0  0  0  0  0  0  0  0
    2.3915    0.7275    0.9516 C   0  0  0  0  0  0  0  0  0  0  0  0
   -4.1167    0.7336    1.7737 C   0  0  0  0  0  0  0  0  0  0  0  0
   -3.7790   -1.6613    2.0283 C   0  0  0  0  0  0  0  0  0  0  0  0
   -4.7332   -0.4219   -1.9040 N   0  0  0  0  0  0  0  0  0  0  0  0
   -4.1327   -2.5706   -1.9029 O   0  0  0  0  0  0  0  0  0  0  0  0
    2.8207   -0.4546    1.5762 C   0  0  0  0  0  0  0  0  0  0  0  0
   -4.5075   -0.4972    2.3269 C   0  0  0  0  0  0  0  0  0  0  0  0
   -1.1459    0.6943   -0.8506 H   0  0  0  0  0  0  0  0  0  0  0  0
   -2.4289   -1.6159   -3.7092 H   0  0  0  0  0  0  0  0  0  0  0  0
   -2.4683    0.0075   -3.0140 H   0  0  0  0  0  0  0  0  0  0  0  0
    0.1368   -2.3630    1.0049 H   0  0  0  0  0  0  0  0  0  0  0  0
    0.8368    1.6581   -0.1014 H   0  0  0  0  0  0  0  0  0  0  0  0
   -2.7393    1.7071    0.5333 H   0  0  0  0  0  0  0  0  0  0  0  0
   -2.1631   -2.4574    0.9705 H   0  0  0  0  0  0  0  0  0  0  0  0
    2.2951   -2.4439    2.0409 H   0  0  0  0  0  0  0  0  0  0  0  0
    3.0053    1.5446    0.9280 H   0  0  0  0  0  0  0  0  0  0  0  0
   -4.6482    1.5805    1.9869 H   0  0  0  0  0  0  0  0  0  0  0  0
   -4.0694   -2.5595    2.4234 H   0  0  0  0  0  0  0  0  0  0  0  0
   -5.5966   -0.6531   -1.5279 H   0  0  0  0  0  0  0  0  0  0  0  0
   -4.5182    0.5063   -2.0892 H   0  0  0  0  0  0  0  0  0  0  0  0
    3.7426   -0.4993    2.0151 H   0  0  0  0  0  0  0  0  0  0  0  0
   -5.3235   -0.5473    2.9408 H   0  0  0  0  0  0  0  0  0  0  0  0
  1  3  1  0  0  0  0 
  1  4  1  0  0  0  0 
  2  1  1  0  0  0  0 
  2  5  1  0  0  0  0 
  2  6  2  0  0  0  0 
  3  7  2  0  0  0  0 
  3  8  1  0  0  0  0 
  4  9  2  0  0  0  0 
  4 10  1  0  0  0  0 
  5 11  1  0  0  0  0 
  7 12  1  0  0  0  0 
  8 13  2  0  0  0  0 
  9 14  1  0  0  0  0 
 10 15  2  0  0  0  0 
 11 16  1  0  0  0  0 
 11 17  2  0  0  0  0 
 12 18  2  0  0  0  0 
 13 18  1  0  0  0  0 
 14 19  2  0  0  0  0 
 15 19  1  0  0  0  0 
  1 20  1  0  0  0  0 
  5 21  1  0  0  0  0 
  5 22  1  0  0  0  0 
  7 23  1  0  0  0  0 
  8 24  1  0  0  0  0 
  9 25  1  0  0  0  0 
 10 26  1  0  0  0  0 
 12 27  1  0  0  0  0 
 13 28  1  0  0  0  0 
 14 29  1  0  0  0  0 
 15 30  1  0  0  0  0 
 16 31  1  0  0  0  0 
 16 32  1  0  0  0  0 
 18 33  1  0  0  0  0 
 19 34  1  0  0  0  0 
M  END
> <cdk:Title>
armodafinil

> <Conformer>
1

> <SuperDrugID>
SD003600

$$$$
