cefaclor
  CDK     0628171802

 38 40  0  0  0  0  0  0  0  0999 V2000
    0.7068   -0.2477    2.5250 O   0  0  0  0  0  0  0  0  0  0  0  0
    0.1472   -1.2988    2.1373 C   0  0  0  0  0  0  0  0  0  0  0  0
    0.2126   -2.0174    1.0059 N   0  0  0  0  0  0  0  0  0  0  0  0
   -0.8775   -2.1403    2.7543 C   0  0  2  0  0  0  0  0  0  0  0  0
   -0.7432   -2.9729    1.4433 C   0  0  1  0  0  0  0  0  0  0  0  0
    0.8463   -1.8915   -0.1792 C   0  0  0  0  0  0  0  0  0  0  0  0
   -2.1112   -1.4459    2.9356 N   0  0  0  0  0  0  0  0  0  0  0  0
   -2.0474   -2.9505    0.1743 S   0  0  0  0  0  0  0  0  0  0  0  0
    2.0444   -1.1803   -0.1890 C   0  0  0  0  0  0  0  0  0  0  0  0
    0.2957   -2.4596   -1.2855 C   0  0  0  0  0  0  0  0  0  0  0  0
   -2.4247   -0.6798    4.0154 C   0  0  0  0  0  0  0  0  0  0  0  0
   -1.0064   -3.1389   -1.3194 C   0  0  1  0  0  0  0  0  0  0  0  0
    2.9003   -1.2570    0.8562 O   0  0  0  0  0  0  0  0  0  0  0  0
    2.3740   -0.4217   -1.1289 O   0  0  0  0  0  0  0  0  0  0  0  0
    1.0861   -2.4929   -2.7613 Cl  0  0  0  0  0  0  0  0  0  0  0  0
   -3.6732    0.1211    4.0018 C   0  0  2  0  0  0  0  0  0  0  0  0
   -1.6554   -0.6206    5.0052 O   0  0  0  0  0  0  0  0  0  0  0  0
   -3.3453    1.5378    4.2280 N   0  0  1  0  0  0  0  0  0  0  0  0
   -4.6870   -0.3706    4.9835 C   0  0  0  0  0  0  0  0  0  0  0  0
   -4.4716   -0.2740    6.3809 C   0  0  0  0  0  0  0  0  0  0  0  0
   -5.9047   -0.9433    4.5370 C   0  0  0  0  0  0  0  0  0  0  0  0
   -5.4311   -0.7431    7.2972 C   0  0  0  0  0  0  0  0  0  0  0  0
   -6.8722   -1.4015    5.4516 C   0  0  0  0  0  0  0  0  0  0  0  0
   -6.6331   -1.3046    6.8330 C   0  0  0  0  0  0  0  0  0  0  0  0
   -0.3002   -3.9648    1.5790 H   0  0  0  0  0  0  0  0  0  0  0  0
   -0.5088   -2.6657    3.6409 H   0  0  0  0  0  0  0  0  0  0  0  0
   -2.7570   -1.4870    2.2134 H   0  0  0  0  0  0  0  0  0  0  0  0
   -0.8416   -4.2093   -1.4629 H   0  0  0  0  0  0  0  0  0  0  0  0
   -1.6000   -2.7660   -2.1575 H   0  0  0  0  0  0  0  0  0  0  0  0
    3.7292   -0.7346    0.8535 H   0  0  0  0  0  0  0  0  0  0  0  0
   -4.0969    0.0864    2.9930 H   0  0  0  0  0  0  0  0  0  0  0  0
   -4.2269    2.0326    4.3829 H   0  0  0  0  0  0  0  0  0  0  0  0
   -2.8094    1.5976    5.0972 H   0  0  0  0  0  0  0  0  0  0  0  0
   -3.6117    0.1436    6.7423 H   0  0  0  0  0  0  0  0  0  0  0  0
   -6.1000   -1.0330    3.5372 H   0  0  0  0  0  0  0  0  0  0  0  0
   -5.2548   -0.6739    8.3024 H   0  0  0  0  0  0  0  0  0  0  0  0
   -7.7486   -1.8051    5.1111 H   0  0  0  0  0  0  0  0  0  0  0  0
   -7.3327   -1.6422    7.4972 H   0  0  0  0  0  0  0  0  0  0  0  0
  1  2  2  0  0  0  0 
  2  3  1  0  0  0  0 
  4  2  1  0  0  0  0 
  5  3  1  0  0  0  0 
  3  6  1  0  0  0  0 
  5  4  1  0  0  0  0 
  4  7  1  0  0  0  0 
  5  8  1  0  0  0  0 
  5 25  1  0  0  0  0 
  6  9  1  0  0  0  0 
  6 10  2  0  0  0  0 
  7 11  1  0  0  0  0 
  8 12  1  0  0  0  0 
  9 13  1  0  0  0  0 
  9 14  2  0  0  0  0 
 10 12  1  0  0  0  0 
 10 15  1  0  0  0  0 
 16 11  1  0  0  0  0 
 11 17  2  0  0  0  0 
 16 18  1  0  0  0  0 
 16 19  1  0  0  0  0 
 19 20  2  0  0  0  0 
 19 21  1  0  0  0  0 
 20 22  1  0  0  0  0 
 21 23  2  0  0  0  0 
 22 24  2  0  0  0  0 
 23 24  1  0  0  0  0 
  4 26  1  0  0  0  0 
  7 27  1  0  0  0  0 
 12 28  1  0  0  0  0 
 12 29  1  0  0  0  0 
 13 30  1  0  0  0  0 
 16 31  1  0  0  0  0 
 18 32  1  0  0  0  0 
 18 33  1  0  0  0  0 
 20 34  1  0  0  0  0 
 21 35  1  0  0  0  0 
 22 36  1  0  0  0  0 
 23 37  1  0  0  0  0 
 24 38  1  0  0  0  0 
M  END
> <cdk:Title>
cefaclor

> <Conformer>
1

> <SuperDrugID>
SD000454

$$$$
