ciramadol
  CDK     0628171801

 41 42  0  0  0  0  0  0  0  0999 V2000
   -2.0552    3.5611    1.5773 C   0  0  2  0  0  0  0  0  0  0  0  0
   -2.6882    2.4571    2.3935 N   0  0  1  0  0  0  0  0  0  0  0  0
   -2.6157    3.7093    0.1051 C   0  0  2  0  0  0  0  0  0  0  0  0
   -0.5543    3.5397    1.6696 C   0  0  0  0  0  0  0  0  0  0  0  0
   -2.5514    1.0467    1.9224 C   0  0  0  0  0  0  0  0  0  0  0  0
   -2.4922    2.5709    3.8730 C   0  0  0  0  0  0  0  0  0  0  0  0
   -2.1485    4.9941   -0.6722 C   0  0  2  0  0  0  0  0  0  0  0  0
   -4.1799    3.6501    0.0368 C   0  0  2  0  0  0  0  0  0  0  0  0
    0.1261    4.4923    2.4705 C   0  0  0  0  0  0  0  0  0  0  0  0
    0.2253    2.5920    0.9617 C   0  0  0  0  0  0  0  0  0  0  0  0
   -0.7306    5.1402   -0.6931 O   0  0  0  0  0  0  0  0  0  0  0  0
   -2.8030    6.3024   -0.1446 C   0  0  1  0  0  0  0  0  0  0  0  0
   -4.8616    4.9329    0.5851 C   0  0  1  0  0  0  0  0  0  0  0  0
    1.5314    4.5080    2.5569 C   0  0  0  0  0  0  0  0  0  0  0  0
    1.6299    2.6013    1.0476 C   0  0  0  0  0  0  0  0  0  0  0  0
   -4.3506    6.2066   -0.1363 C   0  0  2  0  0  0  0  0  0  0  0  0
    2.1681    5.4341    3.3159 O   0  0  0  0  0  0  0  0  0  0  0  0
    2.2825    3.5565    1.8454 C   0  0  0  0  0  0  0  0  0  0  0  0
   -2.2526    2.8568   -0.4736 H   0  0  0  0  0  0  0  0  0  0  0  0
   -2.3946    4.4770    2.0647 H   0  0  0  0  0  0  0  0  0  0  0  0
   -3.3007    0.4228    2.4153 H   0  0  0  0  0  0  0  0  0  0  0  0
   -2.7200    0.9604    0.8491 H   0  0  0  0  0  0  0  0  0  0  0  0
   -1.5628    0.6463    2.1595 H   0  0  0  0  0  0  0  0  0  0  0  0
   -2.6922    3.5869    4.2185 H   0  0  0  0  0  0  0  0  0  0  0  0
   -3.1783    1.9081    4.4051 H   0  0  0  0  0  0  0  0  0  0  0  0
   -1.4692    2.3061    4.1500 H   0  0  0  0  0  0  0  0  0  0  0  0
   -2.4413    4.8789   -1.7210 H   0  0  0  0  0  0  0  0  0  0  0  0
   -4.5615    2.7836    0.5803 H   0  0  0  0  0  0  0  0  0  0  0  0
   -4.4834    3.5174   -1.0066 H   0  0  0  0  0  0  0  0  0  0  0  0
   -0.4027    5.1883    3.0006 H   0  0  0  0  0  0  0  0  0  0  0  0
   -0.2206    1.8905    0.3675 H   0  0  0  0  0  0  0  0  0  0  0  0
   -0.5636    5.9195   -1.2640 H   0  0  0  0  0  0  0  0  0  0  0  0
   -2.4428    6.5226    0.8627 H   0  0  0  0  0  0  0  0  0  0  0  0
   -2.5054    7.1374   -0.7852 H   0  0  0  0  0  0  0  0  0  0  0  0
   -5.9430    4.8522    0.4467 H   0  0  0  0  0  0  0  0  0  0  0  0
   -4.6777    5.0213    1.6581 H   0  0  0  0  0  0  0  0  0  0  0  0
    2.1770    1.9134    0.5254 H   0  0  0  0  0  0  0  0  0  0  0  0
   -4.7126    6.2017   -1.1678 H   0  0  0  0  0  0  0  0  0  0  0  0
   -4.7629    7.0903    0.3563 H   0  0  0  0  0  0  0  0  0  0  0  0
    1.4815    6.0924    3.5551 H   0  0  0  0  0  0  0  0  0  0  0  0
    3.3037    3.5578    1.9036 H   0  0  0  0  0  0  0  0  0  0  0  0
  1  2  1  0  0  0  0 
  3  1  1  0  0  0  0 
  1  4  1  0  0  0  0 
  2  5  1  0  0  0  0 
  2  6  1  0  0  0  0 
  7  3  1  0  0  0  0 
  3  8  1  0  0  0  0 
  3 19  1  0  0  0  0 
  4  9  2  0  0  0  0 
  4 10  1  0  0  0  0 
  7 11  1  0  0  0  0 
  7 12  1  0  0  0  0 
  8 13  1  0  0  0  0 
  9 14  1  0  0  0  0 
 10 15  2  0  0  0  0 
 12 16  1  0  0  0  0 
 13 16  1  0  0  0  0 
 14 17  1  0  0  0  0 
 14 18  2  0  0  0  0 
 15 18  1  0  0  0  0 
  1 20  1  0  0  0  0 
  5 21  1  0  0  0  0 
  5 22  1  0  0  0  0 
  5 23  1  0  0  0  0 
  6 24  1  0  0  0  0 
  6 25  1  0  0  0  0 
  6 26  1  0  0  0  0 
  7 27  1  0  0  0  0 
  8 28  1  0  0  0  0 
  8 29  1  0  0  0  0 
  9 30  1  0  0  0  0 
 10 31  1  0  0  0  0 
 11 32  1  0  0  0  0 
 12 33  1  0  0  0  0 
 12 34  1  0  0  0  0 
 13 35  1  0  0  0  0 
 13 36  1  0  0  0  0 
 15 37  1  0  0  0  0 
 16 38  1  0  0  0  0 
 16 39  1  0  0  0  0 
 17 40  1  0  0  0  0 
 18 41  1  0  0  0  0 
M  END
> <cdk:Title>
ciramadol

> <Conformer>
1

> <SuperDrugID>
SD003173

$$$$
