nitroxoline
  CDK     0628171801

 20 21  0  0  0  0  0  0  0  0999 V2000
    1.3028    0.1993    0.1444 N   0  0  0  0  0  0  0  0  0  0  0  0
    2.1067    0.1024   -0.8337 O   0  0  0  0  0  0  0  0  0  0  0  0
    1.3430   -0.6526    0.9432 O   0  0  0  0  0  0  0  0  0  0  0  0
    0.4232    1.2022    0.2283 C   0  0  0  0  0  0  0  0  0  0  0  0
    0.7839    2.5742    0.0621 C   0  0  0  0  0  0  0  0  0  0  0  0
   -0.9362    0.8802    0.4711 C   0  0  0  0  0  0  0  0  0  0  0  0
   -0.2309    3.5776    0.1059 C   0  0  0  0  0  0  0  0  0  0  0  0
    2.1178    3.0199   -0.1315 C   0  0  0  0  0  0  0  0  0  0  0  0
   -1.9206    1.8800    0.5305 C   0  0  0  0  0  0  0  0  0  0  0  0
   -1.5740    3.2267    0.3431 C   0  0  0  0  0  0  0  0  0  0  0  0
    0.0911    4.8863   -0.0765 N   0  0  0  0  0  0  0  0  0  0  0  0
    2.4103    4.3837   -0.3081 C   0  0  0  0  0  0  0  0  0  0  0  0
   -2.5457    4.1697    0.3970 O   0  0  0  0  0  0  0  0  0  0  0  0
    1.3594    5.3125   -0.2886 C   0  0  0  0  0  0  0  0  0  0  0  0
   -1.2253   -0.0960    0.5932 H   0  0  0  0  0  0  0  0  0  0  0  0
    2.9000    2.3629   -0.1412 H   0  0  0  0  0  0  0  0  0  0  0  0
   -2.8946    1.6234    0.7065 H   0  0  0  0  0  0  0  0  0  0  0  0
    3.3746    4.6957   -0.4462 H   0  0  0  0  0  0  0  0  0  0  0  0
   -2.8753    4.2270   -0.5231 H   0  0  0  0  0  0  0  0  0  0  0  0
    1.5441    6.3067   -0.4286 H   0  0  0  0  0  0  0  0  0  0  0  0
  1  2  1  0  0  0  0 
  1  3  2  0  0  0  0 
  1  4  1  0  0  0  0 
  4  5  2  0  0  0  0 
  4  6  1  0  0  0  0 
  5  7  1  0  0  0  0 
  5  8  1  0  0  0  0 
  6  9  2  0  0  0  0 
  7 10  2  0  0  0  0 
  7 11  1  0  0  0  0 
  8 12  2  0  0  0  0 
  9 10  1  0  0  0  0 
 10 13  1  0  0  0  0 
 11 14  2  0  0  0  0 
 12 14  1  0  0  0  0 
  6 15  1  0  0  0  0 
  8 16  1  0  0  0  0 
  9 17  1  0  0  0  0 
 12 18  1  0  0  0  0 
 13 19  1  0  0  0  0 
 14 20  1  0  0  0  0 
M  CHG  1   1   1
M  CHG  1   2  -1
M  END
> <cdk:Title>
nitroxoline

> <Conformer>
1

> <SuperDrugID>
SD001746

$$$$
