iodoxamic acid
  CDK     0628171801

 70 71  0  0  0  0  0  0  0  0999 V2000
   -8.4772   20.7129   -2.8140 N   0  0  0  0  0  0  0  0  0  0  0  0
   -8.9808   19.5092   -3.2137 C   0  0  0  0  0  0  0  0  0  0  0  0
   -9.2084   21.8357   -2.5984 C   0  0  0  0  0  0  0  0  0  0  0  0
   -8.0793   18.3356   -3.2704 C   0  0  1  0  0  0  0  0  0  0  0  0
  -10.1909   19.3717   -3.5141 O   0  0  0  0  0  0  0  0  0  0  0  0
  -10.0484   21.9650   -1.4646 C   0  0  0  0  0  0  0  0  0  0  0  0
   -9.1035   22.8961   -3.5220 C   0  0  0  0  0  0  0  0  0  0  0  0
   -7.6180   17.9187   -1.8526 C   0  0  1  0  0  0  0  0  0  0  0  0
  -10.1412   20.4162   -0.1046 I   0  0  0  0  0  0  0  0  0  0  0  0
  -10.8190   23.1430   -1.2807 C   0  0  0  0  0  0  0  0  0  0  0  0
   -7.8542   22.7842   -5.1551 I   0  0  0  0  0  0  0  0  0  0  0  0
   -9.8783   24.0540   -3.3459 C   0  0  0  0  0  0  0  0  0  0  0  0
   -6.5024   17.0055   -1.9271 O   0  0  0  0  0  0  0  0  0  0  0  0
  -11.6557   23.2961   -0.1586 C   0  0  0  0  0  0  0  0  0  0  0  0
  -10.7400   24.1788   -2.2434 C   0  0  0  0  0  0  0  0  0  0  0  0
   -5.7965   16.8805   -0.6756 C   0  0  1  0  0  0  0  0  0  0  0  0
  -12.9878   23.4693   -0.3152 O   0  0  0  0  0  0  0  0  0  0  0  0
  -11.1881   23.2776    1.0032 O   0  0  0  0  0  0  0  0  0  0  0  0
  -11.8138   25.9294   -2.0943 I   0  0  0  0  0  0  0  0  0  0  0  0
   -4.6317   15.8773   -0.7668 C   0  0  1  0  0  0  0  0  0  0  0  0
   -3.8949   15.9879    0.4686 O   0  0  0  0  0  0  0  0  0  0  0  0
   -2.7968   15.0782    0.6467 C   0  0  1  0  0  0  0  0  0  0  0  0
   -2.0200   15.4806    1.9194 C   0  0  1  0  0  0  0  0  0  0  0  0
   -1.5118   16.8213    1.7711 O   0  0  0  0  0  0  0  0  0  0  0  0
   -0.7997   17.3340    2.9152 C   0  0  1  0  0  0  0  0  0  0  0  0
   -0.3069   18.7564    2.5891 C   0  0  2  0  0  0  0  0  0  0  0  0
    0.4643   19.2775    3.6918 O   0  0  0  0  0  0  0  0  0  0  0  0
    0.8324   20.6631    3.5339 C   0  0  2  0  0  0  0  0  0  0  0  0
    1.7953   21.1038    4.6605 C   0  0  1  0  0  0  0  0  0  0  0  0
    2.1650   22.5282    4.5108 C   0  0  0  0  0  0  0  0  0  0  0  0
    3.4316   22.8698    4.1448 N   0  0  0  0  0  0  0  0  0  0  0  0
    1.2782   23.3973    4.6896 O   0  0  0  0  0  0  0  0  0  0  0  0
    3.8737   24.1387    3.9099 C   0  0  0  0  0  0  0  0  0  0  0  0
    3.9923   25.1153    4.9278 C   0  0  0  0  0  0  0  0  0  0  0  0
    4.2544   24.4662    2.5939 C   0  0  0  0  0  0  0  0  0  0  0  0
    3.6090   24.5484    6.8767 I   0  0  0  0  0  0  0  0  0  0  0  0
    4.4352   26.4314    4.6212 C   0  0  0  0  0  0  0  0  0  0  0  0
    4.1271   23.0936    1.0690 I   0  0  0  0  0  0  0  0  0  0  0  0
    4.7316   25.7840    2.2605 C   0  0  0  0  0  0  0  0  0  0  0  0
    4.5138   27.4102    5.6390 C   0  0  0  0  0  0  0  0  0  0  0  0
    4.8057   26.7459    3.2868 C   0  0  0  0  0  0  0  0  0  0  0  0
    3.4581   27.6572    6.4504 O   0  0  0  0  0  0  0  0  0  0  0  0
    5.5568   28.0748    5.8325 O   0  0  0  0  0  0  0  0  0  0  0  0
    5.4448   28.6244    2.7258 I   0  0  0  0  0  0  0  0  0  0  0  0
   -7.5186   20.7755   -2.6794 H   0  0  0  0  0  0  0  0  0  0  0  0
   -8.5808   17.4878   -3.7491 H   0  0  0  0  0  0  0  0  0  0  0  0
   -7.2068   18.5887   -3.8777 H   0  0  0  0  0  0  0  0  0  0  0  0
   -7.3380   18.8190   -1.2947 H   0  0  0  0  0  0  0  0  0  0  0  0
   -8.4494   17.4345   -1.3312 H   0  0  0  0  0  0  0  0  0  0  0  0
   -9.8145   24.8148   -4.0250 H   0  0  0  0  0  0  0  0  0  0  0  0
   -5.3780   17.8522   -0.3936 H   0  0  0  0  0  0  0  0  0  0  0  0
   -6.4787   16.5493    0.1128 H   0  0  0  0  0  0  0  0  0  0  0  0
  -13.5655   23.5470    0.4722 H   0  0  0  0  0  0  0  0  0  0  0  0
   -5.0317   14.8688   -0.9073 H   0  0  0  0  0  0  0  0  0  0  0  0
   -3.9945   16.1335   -1.6187 H   0  0  0  0  0  0  0  0  0  0  0  0
   -3.1768   14.0598    0.7654 H   0  0  0  0  0  0  0  0  0  0  0  0
   -2.1169   15.1084   -0.2089 H   0  0  0  0  0  0  0  0  0  0  0  0
   -2.6956   15.4183    2.7775 H   0  0  0  0  0  0  0  0  0  0  0  0
   -1.1946   14.7785    2.0673 H   0  0  0  0  0  0  0  0  0  0  0  0
   -1.4556   17.3808    3.7891 H   0  0  0  0  0  0  0  0  0  0  0  0
    0.0632   16.7048    3.1503 H   0  0  0  0  0  0  0  0  0  0  0  0
   -1.1772   19.3888    2.3877 H   0  0  0  0  0  0  0  0  0  0  0  0
    0.3127   18.7127    1.6886 H   0  0  0  0  0  0  0  0  0  0  0  0
   -0.0709   21.2816    3.5707 H   0  0  0  0  0  0  0  0  0  0  0  0
    1.3327   20.8179    2.5722 H   0  0  0  0  0  0  0  0  0  0  0  0
    1.3186   20.9594    5.6328 H   0  0  0  0  0  0  0  0  0  0  0  0
    2.6893   20.4733    4.6326 H   0  0  0  0  0  0  0  0  0  0  0  0
    4.0515   22.1416    3.9742 H   0  0  0  0  0  0  0  0  0  0  0  0
    5.0405   26.1281    1.2888 H   0  0  0  0  0  0  0  0  0  0  0  0
    3.5369   28.3140    7.1756 H   0  0  0  0  0  0  0  0  0  0  0  0
  1  2  1  0  0  0  0 
  1  3  1  0  0  0  0 
  2  4  1  0  0  0  0 
  2  5  2  0  0  0  0 
  3  6  2  0  0  0  0 
  3  7  1  0  0  0  0 
  4  8  1  0  0  0  0 
  6  9  1  0  0  0  0 
  6 10  1  0  0  0  0 
  7 11  1  0  0  0  0 
  7 12  2  0  0  0  0 
  8 13  1  0  0  0  0 
 10 14  1  0  0  0  0 
 10 15  2  0  0  0  0 
 12 15  1  0  0  0  0 
 13 16  1  0  0  0  0 
 14 17  1  0  0  0  0 
 14 18  2  0  0  0  0 
 15 19  1  0  0  0  0 
 16 20  1  0  0  0  0 
 20 21  1  0  0  0  0 
 21 22  1  0  0  0  0 
 22 23  1  0  0  0  0 
 23 24  1  0  0  0  0 
 24 25  1  0  0  0  0 
 25 26  1  0  0  0  0 
 26 27  1  0  0  0  0 
 27 28  1  0  0  0  0 
 28 29  1  0  0  0  0 
 29 30  1  0  0  0  0 
 30 31  1  0  0  0  0 
 30 32  2  0  0  0  0 
 31 33  1  0  0  0  0 
 33 34  2  0  0  0  0 
 33 35  1  0  0  0  0 
 34 36  1  0  0  0  0 
 34 37  1  0  0  0  0 
 35 38  1  0  0  0  0 
 35 39  2  0  0  0  0 
 37 40  1  0  0  0  0 
 37 41  2  0  0  0  0 
 39 41  1  0  0  0  0 
 40 42  1  0  0  0  0 
 40 43  2  0  0  0  0 
 41 44  1  0  0  0  0 
  1 45  1  0  0  0  0 
  4 46  1  0  0  0  0 
  4 47  1  0  0  0  0 
  8 48  1  0  0  0  0 
  8 49  1  0  0  0  0 
 12 50  1  0  0  0  0 
 16 51  1  0  0  0  0 
 16 52  1  0  0  0  0 
 17 53  1  0  0  0  0 
 20 54  1  0  0  0  0 
 20 55  1  0  0  0  0 
 22 56  1  0  0  0  0 
 22 57  1  0  0  0  0 
 23 58  1  0  0  0  0 
 23 59  1  0  0  0  0 
 25 60  1  0  0  0  0 
 25 61  1  0  0  0  0 
 26 62  1  0  0  0  0 
 26 63  1  0  0  0  0 
 28 64  1  0  0  0  0 
 28 65  1  0  0  0  0 
 29 66  1  0  0  0  0 
 29 67  1  0  0  0  0 
 31 68  1  0  0  0  0 
 39 69  1  0  0  0  0 
 42 70  1  0  0  0  0 
M  END
> <cdk:Title>
iodoxamic acid

> <Conformer>
1

> <SuperDrugID>
SD003310

$$$$
