mannosulfan
  CDK     0628171801

 50 49  0  0  0  0  0  0  0  0999 V2000
    8.6587    0.3153   -2.7206 C   0  0  1  0  0  0  0  0  0  0  0  0
    8.7889    1.8274   -2.3253 C   0  0  2  0  0  0  0  0  0  0  0  0
    8.1335    0.1148   -4.1667 C   0  0  2  0  0  0  0  0  0  0  0  0
    9.9045   -0.4129   -2.6453 O   0  0  0  0  0  0  0  0  0  0  0  0
    9.7958    2.6676   -3.1805 C   0  0  1  0  0  0  0  0  0  0  0  0
    9.0950    1.9003   -0.9370 O   0  0  0  0  0  0  0  0  0  0  0  0
    6.8763    0.7899   -4.3312 O   0  0  0  0  0  0  0  0  0  0  0  0
   10.4144   -0.9846   -1.1009 S   0  0  1  0  0  0  0  0  0  0  0  0
   10.0930    4.1241   -2.6895 C   0  0  1  0  0  0  0  0  0  0  0  0
   11.0283    1.9708   -3.3050 O   0  0  0  0  0  0  0  0  0  0  0  0
    6.2817    0.7085   -5.9415 S   0  0  2  0  0  0  0  0  0  0  0  0
   11.7480    0.0844   -0.4543 C   0  0  0  0  0  0  0  0  0  0  0  0
    9.1991   -1.0714   -0.0603 O   0  0  0  0  0  0  0  0  0  0  0  0
   10.9956   -2.4627   -1.3174 O   0  0  0  0  0  0  0  0  0  0  0  0
    8.8183    4.9795   -2.4584 C   0  0  1  0  0  0  0  0  0  0  0  0
   10.7889    4.1103   -1.4245 O   0  0  0  0  0  0  0  0  0  0  0  0
    4.6908    1.6017   -5.9996 C   0  0  0  0  0  0  0  0  0  0  0  0
    6.0561   -0.8247   -6.3480 O   0  0  0  0  0  0  0  0  0  0  0  0
    7.3284    1.4077   -6.9331 O   0  0  0  0  0  0  0  0  0  0  0  0
    7.9524    4.9577   -3.6046 O   0  0  0  0  0  0  0  0  0  0  0  0
   12.4862    4.3918   -1.4468 S   0  0  2  0  0  0  0  0  0  0  0  0
    6.4082    5.6514   -3.2855 S   0  0  2  0  0  0  0  0  0  0  0  0
   13.0874    4.1843    0.2647 C   0  0  0  0  0  0  0  0  0  0  0  0
   12.7764    5.8905   -1.9323 O   0  0  0  0  0  0  0  0  0  0  0  0
   13.2408    3.3440   -2.3934 O   0  0  0  0  0  0  0  0  0  0  0  0
    5.3463    4.4192   -2.4524 C   0  0  0  0  0  0  0  0  0  0  0  0
    5.7495    6.0565   -4.6887 O   0  0  0  0  0  0  0  0  0  0  0  0
    6.5571    6.9641   -2.3775 O   0  0  0  0  0  0  0  0  0  0  0  0
    7.9132   -0.1523   -2.0689 H   0  0  0  0  0  0  0  0  0  0  0  0
    7.8033    2.2881   -2.4305 H   0  0  0  0  0  0  0  0  0  0  0  0
    7.9981   -0.9554   -4.3498 H   0  0  0  0  0  0  0  0  0  0  0  0
    8.8749    0.4883   -4.8781 H   0  0  0  0  0  0  0  0  0  0  0  0
    9.3939    2.7433   -4.1929 H   0  0  0  0  0  0  0  0  0  0  0  0
    9.0220    2.8474   -0.7011 H   0  0  0  0  0  0  0  0  0  0  0  0
   10.6755    4.6339   -3.4668 H   0  0  0  0  0  0  0  0  0  0  0  0
   11.3457    1.8613   -2.3837 H   0  0  0  0  0  0  0  0  0  0  0  0
   11.3449    1.0449   -0.1426 H   0  0  0  0  0  0  0  0  0  0  0  0
   12.4959    0.2451   -1.2305 H   0  0  0  0  0  0  0  0  0  0  0  0
   12.2148   -0.3950    0.4050 H   0  0  0  0  0  0  0  0  0  0  0  0
    8.2986    4.5976   -1.5752 H   0  0  0  0  0  0  0  0  0  0  0  0
    9.1188    6.0136   -2.2606 H   0  0  0  0  0  0  0  0  0  0  0  0
    3.9742    1.1126   -5.3393 H   0  0  0  0  0  0  0  0  0  0  0  0
    4.3084    1.5937   -7.0202 H   0  0  0  0  0  0  0  0  0  0  0  0
    4.8387    2.6322   -5.6756 H   0  0  0  0  0  0  0  0  0  0  0  0
   12.5996    4.9061    0.9189 H   0  0  0  0  0  0  0  0  0  0  0  0
   14.1647    4.3403    0.2909 H   0  0  0  0  0  0  0  0  0  0  0  0
   12.8589    3.1762    0.6076 H   0  0  0  0  0  0  0  0  0  0  0  0
    5.7930    4.1229   -1.5009 H   0  0  0  0  0  0  0  0  0  0  0  0
    5.2383    3.5430   -3.0939 H   0  0  0  0  0  0  0  0  0  0  0  0
    4.3631    4.8561   -2.2692 H   0  0  0  0  0  0  0  0  0  0  0  0
  2  1  1  0  0  0  0 
  1  3  1  0  0  0  0 
  1  4  1  0  0  0  0 
  5  2  1  0  0  0  0 
  2  6  1  0  0  0  0 
  3  7  1  0  0  0  0 
  4  8  1  0  0  0  0 
  9  5  1  0  0  0  0 
  5 10  1  0  0  0  0 
  7 11  1  0  0  0  0 
  8 12  1  0  0  0  0 
  8 13  2  0  0  0  0 
  8 14  2  0  0  0  0 
  9 15  1  0  0  0  0 
  9 16  1  0  0  0  0 
 11 17  1  0  0  0  0 
 11 18  2  0  0  0  0 
 11 19  2  0  0  0  0 
 15 20  1  0  0  0  0 
 16 21  1  0  0  0  0 
 20 22  1  0  0  0  0 
 21 23  1  0  0  0  0 
 21 24  2  0  0  0  0 
 21 25  2  0  0  0  0 
 22 26  1  0  0  0  0 
 22 27  2  0  0  0  0 
 22 28  2  0  0  0  0 
  1 29  1  0  0  0  0 
  2 30  1  0  0  0  0 
  3 31  1  0  0  0  0 
  3 32  1  0  0  0  0 
  5 33  1  0  0  0  0 
  6 34  1  0  0  0  0 
  9 35  1  0  0  0  0 
 10 36  1  0  0  0  0 
 12 37  1  0  0  0  0 
 12 38  1  0  0  0  0 
 12 39  1  0  0  0  0 
 15 40  1  0  0  0  0 
 15 41  1  0  0  0  0 
 17 42  1  0  0  0  0 
 17 43  1  0  0  0  0 
 17 44  1  0  0  0  0 
 23 45  1  0  0  0  0 
 23 46  1  0  0  0  0 
 23 47  1  0  0  0  0 
 26 48  1  0  0  0  0 
 26 49  1  0  0  0  0 
 26 50  1  0  0  0  0 
M  END
> <cdk:Title>
mannosulfan

> <Conformer>
1

> <SuperDrugID>
SD003646

$$$$
