streptomycin
  CDK     0628171801

 79 81  0  0  0  0  0  0  0  0999 V2000
   -0.0293   13.3304   -4.1000 C   0  0  0  0  0  0  0  0  0  0  0  0
   -0.3086   14.3309   -3.0526 N   0  0  2  0  0  0  0  0  0  0  0  0
    0.5451   14.2697   -1.8368 C   0  0  1  0  0  0  0  0  0  0  0  0
    0.3529   15.5893   -1.0373 C   0  0  2  0  0  0  0  0  0  0  0  0
    0.7199   16.7207   -1.8281 O   0  0  0  0  0  0  0  0  0  0  0  0
    1.1864   15.5656    0.2691 C   0  0  1  0  0  0  0  0  0  0  0  0
    0.9265   16.7577    1.0092 O   0  0  0  0  0  0  0  0  0  0  0  0
    0.8255   14.2992    1.0984 C   0  0  2  0  0  0  0  0  0  0  0  0
    1.7107   14.1527    2.3594 C   0  0  1  0  0  0  0  0  0  0  0  0
    1.3503   12.9779    3.0772 O   0  0  0  0  0  0  0  0  0  0  0  0
    0.9815   13.0964    0.3046 O   0  0  0  0  0  0  0  0  0  0  0  0
    0.2272   13.0413   -0.9281 C   0  0  1  0  0  0  0  0  0  0  0  0
   -1.2018   12.9811   -0.7119 O   0  0  0  0  0  0  0  0  0  0  0  0
   -1.8105   11.7140   -0.3571 C   0  0  1  0  0  0  0  0  0  0  0  0
   -1.7824   11.4828    1.1772 C   0  0  2  0  0  0  0  0  0  0  0  0
   -1.3890   10.1331    1.5023 O   0  0  0  0  0  0  0  0  0  0  0  0
   -0.5194    9.9165    2.6414 C   0  0  1  0  0  0  0  0  0  0  0  0
   -1.1676   10.3030    4.0117 C   0  0  2  0  0  0  0  0  0  0  0  0
   -1.4789   11.6947    4.0687 O   0  0  0  0  0  0  0  0  0  0  0  0
   -0.2302    9.9923    5.2107 C   0  0  1  0  0  0  0  0  0  0  0  0
   -0.9187   10.2925    6.4270 O   0  0  0  0  0  0  0  0  0  0  0  0
    0.2422    8.5077    5.2174 C   0  0  2  0  0  0  0  0  0  0  0  0
    1.1021    8.2220    6.2922 N   0  0  0  0  0  0  0  0  0  0  0  0
    2.2807    8.6394    6.5955 C   0  0  0  0  0  0  0  0  0  0  0  0
    2.8301    8.1660    7.6913 N   0  0  0  0  0  0  0  0  0  0  0  0
    2.9783    9.5062    5.8859 N   0  0  0  0  0  0  0  0  0  0  0  0
    0.8185    8.0609    3.8370 C   0  0  1  0  0  0  0  0  0  0  0  0
    1.0481    6.6508    3.8552 O   0  0  0  0  0  0  0  0  0  0  0  0
   -0.1233    8.4045    2.6425 C   0  0  2  0  0  0  0  0  0  0  0  0
    0.5504    8.0444    1.4657 N   0  0  0  0  0  0  0  0  0  0  0  0
    0.1010    7.6735    0.3216 C   0  0  0  0  0  0  0  0  0  0  0  0
   -1.1807    7.5627    0.0293 N   0  0  0  0  0  0  0  0  0  0  0  0
    0.9841    7.3848   -0.6058 N   0  0  0  0  0  0  0  0  0  0  0  0
   -3.1053   11.6611    1.7130 O   0  0  0  0  0  0  0  0  0  0  0  0
   -3.9165   12.3860    0.7817 C   0  0  1  0  0  0  0  0  0  0  0  0
   -3.8278   13.9163    1.1527 C   0  0  0  0  0  0  0  0  0  0  0  0
   -3.3536   11.8815   -0.6312 C   0  0  1  0  0  0  0  0  0  0  0  0
   -3.6473   12.8389   -1.6775 O   0  0  0  0  0  0  0  0  0  0  0  0
   -3.9934   10.5094   -1.0064 C   0  0  0  0  0  0  0  0  0  0  0  0
   -4.6149   10.2505   -2.0859 O   0  0  0  0  0  0  0  0  0  0  0  0
   -0.2714   12.3264   -3.7506 H   0  0  0  0  0  0  0  0  0  0  0  0
    1.0176   13.3712   -4.4059 H   0  0  0  0  0  0  0  0  0  0  0  0
   -0.6510   13.5552   -4.9662 H   0  0  0  0  0  0  0  0  0  0  0  0
   -1.2826   14.2133   -2.7633 H   0  0  0  0  0  0  0  0  0  0  0  0
    1.5960   14.2148   -2.1429 H   0  0  0  0  0  0  0  0  0  0  0  0
   -0.7047   15.7054   -0.7793 H   0  0  0  0  0  0  0  0  0  0  0  0
    1.6665   16.5908   -2.0459 H   0  0  0  0  0  0  0  0  0  0  0  0
    2.2506   15.5472    0.0157 H   0  0  0  0  0  0  0  0  0  0  0  0
    1.5733   16.7499    1.7456 H   0  0  0  0  0  0  0  0  0  0  0  0
   -0.2118   14.3889    1.4340 H   0  0  0  0  0  0  0  0  0  0  0  0
    2.7634   14.0838    2.0780 H   0  0  0  0  0  0  0  0  0  0  0  0
    1.5808   15.0113    3.0215 H   0  0  0  0  0  0  0  0  0  0  0  0
    1.9702   12.9419    3.8350 H   0  0  0  0  0  0  0  0  0  0  0  0
    0.5688   12.1475   -1.4579 H   0  0  0  0  0  0  0  0  0  0  0  0
   -1.2742   10.8739   -0.8862 H   0  0  0  0  0  0  0  0  0  0  0  0
   -1.1209   12.2167    1.6341 H   0  0  0  0  0  0  0  0  0  0  0  0
    0.3941   10.5012    2.4968 H   0  0  0  0  0  0  0  0  0  0  0  0
   -2.1015    9.7452    4.1265 H   0  0  0  0  0  0  0  0  0  0  0  0
   -1.9548   11.8180    4.9158 H   0  0  0  0  0  0  0  0  0  0  0  0
    0.6330   10.6595    5.1476 H   0  0  0  0  0  0  0  0  0  0  0  0
   -0.2440   10.2110    7.1325 H   0  0  0  0  0  0  0  0  0  0  0  0
   -0.6463    7.8956    5.3993 H   0  0  0  0  0  0  0  0  0  0  0  0
    3.7225    8.4480    7.9505 H   0  0  0  0  0  0  0  0  0  0  0  0
    2.3446    7.5357    8.2479 H   0  0  0  0  0  0  0  0  0  0  0  0
    2.5994    9.9068    5.0883 H   0  0  0  0  0  0  0  0  0  0  0  0
    3.8766    9.7494    6.1631 H   0  0  0  0  0  0  0  0  0  0  0  0
    1.7811    8.5499    3.6725 H   0  0  0  0  0  0  0  0  0  0  0  0
    1.6649    6.4999    4.6004 H   0  0  0  0  0  0  0  0  0  0  0  0
   -1.0326    7.8004    2.7471 H   0  0  0  0  0  0  0  0  0  0  0  0
   -1.4544    7.2538   -0.8492 H   0  0  0  0  0  0  0  0  0  0  0  0
   -1.8533    7.7874    0.6914 H   0  0  0  0  0  0  0  0  0  0  0  0
    0.6951    7.1003   -1.4877 H   0  0  0  0  0  0  0  0  0  0  0  0
    1.9321    7.4492   -0.4062 H   0  0  0  0  0  0  0  0  0  0  0  0
   -4.9810   12.1021    1.0148 H   0  0  0  0  0  0  0  0  0  0  0  0
   -2.7991   14.2702    1.0958 H   0  0  0  0  0  0  0  0  0  0  0  0
   -4.1973   14.0829    2.1660 H   0  0  0  0  0  0  0  0  0  0  0  0
   -4.4332   14.4978    0.4579 H   0  0  0  0  0  0  0  0  0  0  0  0
   -4.6296   12.9872   -1.7510 H   0  0  0  0  0  0  0  0  0  0  0  0
   -3.9582    9.6657   -0.3695 H   0  0  0  0  0  0  0  0  0  0  0  0
  1  2  1  0  0  0  0 
  3  2  1  0  0  0  0 
  3  4  1  0  0  0  0 
  4  5  1  0  0  0  0 
  4  6  1  0  0  0  0 
  6  7  1  0  0  0  0 
  6  8  1  0  0  0  0 
  8  9  1  0  0  0  0 
  9 10  1  0  0  0  0 
  8 11  1  0  0  0  0 
 12 11  1  0  0  0  0 
  3 12  1  0  0  0  0 
 12 13  1  0  0  0  0 
 14 13  1  0  0  0  0 
 14 15  1  0  0  0  0 
 15 16  1  0  0  0  0 
 17 16  1  0  0  0  0 
 17 18  1  0  0  0  0 
 18 19  1  0  0  0  0 
 18 20  1  0  0  0  0 
 20 21  1  0  0  0  0 
 20 22  1  0  0  0  0 
 22 23  1  0  0  0  0 
 23 24  2  0  0  0  0 
 24 25  1  0  0  0  0 
 24 26  1  0  0  0  0 
 27 22  1  0  0  0  0 
 27 28  1  0  0  0  0 
 29 27  1  0  0  0  0 
 17 29  1  0  0  0  0 
 29 30  1  0  0  0  0 
 30 31  2  0  0  0  0 
 31 32  1  0  0  0  0 
 31 33  1  0  0  0  0 
 15 34  1  0  0  0  0 
 35 34  1  0  0  0  0 
 35 36  1  0  0  0  0 
 37 35  1  0  0  0  0 
 14 37  1  0  0  0  0 
 37 38  1  0  0  0  0 
 37 39  1  0  0  0  0 
 39 40  2  0  0  0  0 
 41  1  1  0  0  0  0 
 42  1  1  0  0  0  0 
 43  1  1  0  0  0  0 
 44  2  1  0  0  0  0 
  3 45  1  0  0  0  0 
  4 46  1  0  0  0  0 
 47  5  1  0  0  0  0 
  6 48  1  0  0  0  0 
 49  7  1  0  0  0  0 
  8 50  1  0  0  0  0 
 51  9  1  0  0  0  0 
 52  9  1  0  0  0  0 
 53 10  1  0  0  0  0 
 12 54  1  0  0  0  0 
 14 55  1  0  0  0  0 
 15 56  1  0  0  0  0 
 17 57  1  0  0  0  0 
 18 58  1  0  0  0  0 
 59 19  1  0  0  0  0 
 20 60  1  0  0  0  0 
 61 21  1  0  0  0  0 
 22 62  1  0  0  0  0 
 63 25  1  0  0  0  0 
 64 25  1  0  0  0  0 
 65 26  1  0  0  0  0 
 66 26  1  0  0  0  0 
 27 67  1  0  0  0  0 
 68 28  1  0  0  0  0 
 29 69  1  0  0  0  0 
 70 32  1  0  0  0  0 
 71 32  1  0  0  0  0 
 72 33  1  0  0  0  0 
 73 33  1  0  0  0  0 
 35 74  1  0  0  0  0 
 75 36  1  0  0  0  0 
 76 36  1  0  0  0  0 
 77 36  1  0  0  0  0 
 78 38  1  0  0  0  0 
 79 39  1  0  0  0  0 
M  END
> <cdk:Title>
streptomycin

> <Conformer>
1

> <SuperDrugID>
SD002229

$$$$
