pimethixene
  CDK     0628171801

 40 43  0  0  0  0  0  0  0  0999 V2000
    0.4505   -2.8433    5.6195 C   0  0  0  0  0  0  0  0  0  0  0  0
   -0.3214   -1.8343    4.8380 N   0  0  1  0  0  0  0  0  0  0  0  0
    0.5692   -0.8781    4.1031 C   0  0  1  0  0  0  0  0  0  0  0  0
   -0.2391    0.1183    3.2321 C   0  0  1  0  0  0  0  0  0  0  0  0
   -1.1419   -0.6393    2.3436 C   0  0  0  0  0  0  0  0  0  0  0  0
   -2.1333   -1.4054    3.1257 C   0  0  1  0  0  0  0  0  0  0  0  0
   -1.3736   -2.4618    3.9735 C   0  0  2  0  0  0  0  0  0  0  0  0
   -1.0631   -0.6324    0.9798 C   0  0  0  0  0  0  0  0  0  0  0  0
   -1.9733   -1.3060    0.1413 C   0  0  0  0  0  0  0  0  0  0  0  0
   -2.1422   -2.7107    0.1849 C   0  0  0  0  0  0  0  0  0  0  0  0
   -3.0824   -3.3471   -0.6455 C   0  0  0  0  0  0  0  0  0  0  0  0
   -3.8673   -2.5884   -1.5318 C   0  0  0  0  0  0  0  0  0  0  0  0
   -3.6886   -1.1960   -1.6194 C   0  0  0  0  0  0  0  0  0  0  0  0
   -2.7177   -0.5651   -0.8172 C   0  0  0  0  0  0  0  0  0  0  0  0
   -2.2979    1.1397   -1.0611 S   0  0  0  0  0  0  0  0  0  0  0  0
   -0.5694    1.0966   -0.6716 C   0  0  0  0  0  0  0  0  0  0  0  0
   -0.1177    0.1279    0.2650 C   0  0  0  0  0  0  0  0  0  0  0  0
    1.2778   -0.0678    0.4121 C   0  0  0  0  0  0  0  0  0  0  0  0
    2.1926    0.7428   -0.2849 C   0  0  0  0  0  0  0  0  0  0  0  0
    1.7263    1.7504   -1.1486 C   0  0  0  0  0  0  0  0  0  0  0  0
    0.3449    1.9244   -1.3478 C   0  0  0  0  0  0  0  0  0  0  0  0
    1.0553   -3.4741    4.9609 H   0  0  0  0  0  0  0  0  0  0  0  0
   -0.2236   -3.4849    6.1909 H   0  0  0  0  0  0  0  0  0  0  0  0
    1.1125   -2.3452    6.3299 H   0  0  0  0  0  0  0  0  0  0  0  0
    1.1484   -0.2986    4.8256 H   0  0  0  0  0  0  0  0  0  0  0  0
    1.2730   -1.4190    3.4642 H   0  0  0  0  0  0  0  0  0  0  0  0
   -0.8286    0.7704    3.8832 H   0  0  0  0  0  0  0  0  0  0  0  0
    0.4529    0.7840    2.7189 H   0  0  0  0  0  0  0  0  0  0  0  0
   -2.6823   -0.7334    3.7932 H   0  0  0  0  0  0  0  0  0  0  0  0
   -2.9021   -1.8998    2.5321 H   0  0  0  0  0  0  0  0  0  0  0  0
   -2.1001   -2.9806    4.6035 H   0  0  0  0  0  0  0  0  0  0  0  0
   -0.9222   -3.1994    3.3008 H   0  0  0  0  0  0  0  0  0  0  0  0
   -1.5860   -3.2798    0.8275 H   0  0  0  0  0  0  0  0  0  0  0  0
   -3.1989   -4.3622   -0.6001 H   0  0  0  0  0  0  0  0  0  0  0  0
   -4.5615   -3.0518   -2.1228 H   0  0  0  0  0  0  0  0  0  0  0  0
   -4.2496   -0.6538   -2.2803 H   0  0  0  0  0  0  0  0  0  0  0  0
    1.6377   -0.7985    1.0323 H   0  0  0  0  0  0  0  0  0  0  0  0
    3.1979    0.5990   -0.1615 H   0  0  0  0  0  0  0  0  0  0  0  0
    2.3905    2.3459   -1.6479 H   0  0  0  0  0  0  0  0  0  0  0  0
    0.0115    2.6318   -2.0052 H   0  0  0  0  0  0  0  0  0  0  0  0
  1  2  1  0  0  0  0 
  2  3  1  0  0  0  0 
  3  4  1  0  0  0  0 
  4  5  1  0  0  0  0 
  5  6  1  0  0  0  0 
  6  7  1  0  0  0  0 
  2  7  1  0  0  0  0 
  5  8  2  0  0  0  0 
  8  9  1  0  0  0  0 
  9 10  2  0  0  0  0 
 10 11  1  0  0  0  0 
 11 12  2  0  0  0  0 
 12 13  1  0  0  0  0 
 13 14  2  0  0  0  0 
  9 14  1  0  0  0  0 
 14 15  1  0  0  0  0 
 15 16  1  0  0  0  0 
 16 17  2  0  0  0  0 
  8 17  1  0  0  0  0 
 17 18  1  0  0  0  0 
 18 19  2  0  0  0  0 
 19 20  1  0  0  0  0 
 20 21  2  0  0  0  0 
 16 21  1  0  0  0  0 
  1 22  1  0  0  0  0 
  1 23  1  0  0  0  0 
  1 24  1  0  0  0  0 
  3 25  1  0  0  0  0 
  3 26  1  0  0  0  0 
  4 27  1  0  0  0  0 
  4 28  1  0  0  0  0 
  6 29  1  0  0  0  0 
  6 30  1  0  0  0  0 
  7 31  1  0  0  0  0 
  7 32  1  0  0  0  0 
 10 33  1  0  0  0  0 
 11 34  1  0  0  0  0 
 12 35  1  0  0  0  0 
 13 36  1  0  0  0  0 
 18 37  1  0  0  0  0 
 19 38  1  0  0  0  0 
 20 39  1  0  0  0  0 
 21 40  1  0  0  0  0 
M  END
> <cdk:Title>
pimethixene

> <Conformer>
1

> <SuperDrugID>
SD001946

$$$$
