metabutethamine
  CDK     0628171802

 37 37  0  0  0  0  0  0  0  0999 V2000
   -0.4681    0.3578   -0.2582 C   0  0  0  0  0  0  0  0  0  0  0  0
    0.1302   -0.8752   -0.2520 O   0  0  0  0  0  0  0  0  0  0  0  0
   -1.7220    0.4156   -0.2560 O   0  0  0  0  0  0  0  0  0  0  0  0
    0.3158    1.5477   -0.2897 C   0  0  0  0  0  0  0  0  0  0  0  0
   -0.5480   -2.1379   -0.3056 C   0  0  1  0  0  0  0  0  0  0  0  0
    1.7330    1.4916   -0.2991 C   0  0  0  0  0  0  0  0  0  0  0  0
   -0.2968    2.8274   -0.3309 C   0  0  0  0  0  0  0  0  0  0  0  0
    0.4628   -3.3033   -0.2959 C   0  0  1  0  0  0  0  0  0  0  0  0
    2.5098    2.6672   -0.3705 C   0  0  0  0  0  0  0  0  0  0  0  0
    0.4725    4.0025   -0.4096 C   0  0  0  0  0  0  0  0  0  0  0  0
   -0.2274   -4.5539   -0.6764 N   0  0  2  0  0  0  0  0  0  0  0  0
    3.8569    2.5941   -0.3769 N   0  0  0  0  0  0  0  0  0  0  0  0
    1.8753    3.9212   -0.4388 C   0  0  0  0  0  0  0  0  0  0  0  0
    0.5680   -5.7919   -0.5200 C   0  0  1  0  0  0  0  0  0  0  0  0
   -0.2438   -7.0318   -0.9996 C   0  0  2  0  0  0  0  0  0  0  0  0
   -1.5626   -7.2109   -0.1933 C   0  0  0  0  0  0  0  0  0  0  0  0
    0.6195   -8.3226   -0.9395 C   0  0  0  0  0  0  0  0  0  0  0  0
   -1.2193   -2.2299    0.5517 H   0  0  0  0  0  0  0  0  0  0  0  0
   -1.1445   -2.1780   -1.2211 H   0  0  0  0  0  0  0  0  0  0  0  0
    2.2174    0.5907   -0.2603 H   0  0  0  0  0  0  0  0  0  0  0  0
   -1.3150    2.9227   -0.3114 H   0  0  0  0  0  0  0  0  0  0  0  0
    1.2648   -3.0993   -1.0104 H   0  0  0  0  0  0  0  0  0  0  0  0
    0.8929   -3.3919    0.7050 H   0  0  0  0  0  0  0  0  0  0  0  0
    0.0113    4.9153   -0.4444 H   0  0  0  0  0  0  0  0  0  0  0  0
   -0.4606   -4.4719   -1.6687 H   0  0  0  0  0  0  0  0  0  0  0  0
    4.3002    1.7368   -0.2811 H   0  0  0  0  0  0  0  0  0  0  0  0
    4.3890    3.3999   -0.4719 H   0  0  0  0  0  0  0  0  0  0  0  0
    2.4276    4.7803   -0.5029 H   0  0  0  0  0  0  0  0  0  0  0  0
    1.4847   -5.7064   -1.1108 H   0  0  0  0  0  0  0  0  0  0  0  0
    0.8434   -5.9192    0.5309 H   0  0  0  0  0  0  0  0  0  0  0  0
   -0.5131   -6.8695   -2.0489 H   0  0  0  0  0  0  0  0  0  0  0  0
   -2.2060   -6.3356   -0.3053 H   0  0  0  0  0  0  0  0  0  0  0  0
   -2.1169   -8.0806   -0.5530 H   0  0  0  0  0  0  0  0  0  0  0  0
   -1.3472   -7.3491    0.8685 H   0  0  0  0  0  0  0  0  0  0  0  0
    1.5227   -8.2080   -1.5435 H   0  0  0  0  0  0  0  0  0  0  0  0
    0.0583   -9.1750   -1.3297 H   0  0  0  0  0  0  0  0  0  0  0  0
    0.9139   -8.5404    0.0896 H   0  0  0  0  0  0  0  0  0  0  0  0
  1  2  1  0  0  0  0 
  1  3  2  0  0  0  0 
  1  4  1  0  0  0  0 
  2  5  1  0  0  0  0 
  4  6  2  0  0  0  0 
  4  7  1  0  0  0  0 
  5  8  1  0  0  0  0 
  6  9  1  0  0  0  0 
  7 10  2  0  0  0  0 
  8 11  1  0  0  0  0 
  9 12  1  0  0  0  0 
  9 13  2  0  0  0  0 
 10 13  1  0  0  0  0 
 11 14  1  0  0  0  0 
 14 15  1  0  0  0  0 
 15 16  1  0  0  0  0 
 15 17  1  0  0  0  0 
  5 18  1  0  0  0  0 
  5 19  1  0  0  0  0 
  6 20  1  0  0  0  0 
  7 21  1  0  0  0  0 
  8 22  1  0  0  0  0 
  8 23  1  0  0  0  0 
 10 24  1  0  0  0  0 
 11 25  1  0  0  0  0 
 12 26  1  0  0  0  0 
 12 27  1  0  0  0  0 
 13 28  1  0  0  0  0 
 14 29  1  0  0  0  0 
 14 30  1  0  0  0  0 
 15 31  1  0  0  0  0 
 16 32  1  0  0  0  0 
 16 33  1  0  0  0  0 
 16 34  1  0  0  0  0 
 17 35  1  0  0  0  0 
 17 36  1  0  0  0  0 
 17 37  1  0  0  0  0 
M  END
> <cdk:Title>
metabutethamine

> <Conformer>
1

> <SuperDrugID>
SD003691

$$$$
