levosimendan
  CDK     0628171801

 33 34  0  0  0  0  0  0  0  0999 V2000
   -2.5892   -0.3674   -2.2010 C   0  0  0  0  0  0  0  0  0  0  0  0
   -1.9093    0.8111   -1.4451 C   0  0  1  0  0  0  0  0  0  0  0  0
   -2.4412    0.9246   -0.0632 C   0  0  0  0  0  0  0  0  0  0  0  0
   -0.3440    0.6884   -1.4801 C   0  0  1  0  0  0  0  0  0  0  0  0
   -3.6943    1.4998    0.2692 C   0  0  0  0  0  0  0  0  0  0  0  0
   -1.7079    0.4424    0.8887 N   0  0  0  0  0  0  0  0  0  0  0  0
    0.1565   -0.1128   -0.3447 C   0  0  0  0  0  0  0  0  0  0  0  0
   -4.5626    2.0629   -0.7041 C   0  0  0  0  0  0  0  0  0  0  0  0
   -4.1712    1.5097    1.6104 C   0  0  0  0  0  0  0  0  0  0  0  0
   -0.6029   -0.1908    0.7742 N   0  0  0  0  0  0  0  0  0  0  0  0
    1.2384   -0.7385   -0.4077 O   0  0  0  0  0  0  0  0  0  0  0  0
   -5.8333    2.5659   -0.3704 C   0  0  0  0  0  0  0  0  0  0  0  0
   -5.4422    2.0079    1.9490 C   0  0  0  0  0  0  0  0  0  0  0  0
   -6.3006    2.5284    0.9561 C   0  0  0  0  0  0  0  0  0  0  0  0
   -7.5274    2.9794    1.1951 N   0  0  0  0  0  0  0  0  0  0  0  0
   -8.0937    2.9901    2.2858 N   0  0  0  0  0  0  0  0  0  0  0  0
   -9.3747    3.4654    2.5345 C   0  0  2  0  0  0  0  0  0  0  0  0
   -9.5784    3.3993    3.8836 C   0  0  0  0  0  0  0  0  0  0  0  0
   -9.7413    3.3449    5.0192 N   0  0  0  0  0  0  0  0  0  0  0  0
  -10.3398    2.7303    1.8972 C   0  0  0  0  0  0  0  0  0  0  0  0
  -11.1473    2.1175    1.3566 N   0  0  0  0  0  0  0  0  0  0  0  0
   -3.6769   -0.2782   -2.1819 H   0  0  0  0  0  0  0  0  0  0  0  0
   -2.2739   -0.3740   -3.2464 H   0  0  0  0  0  0  0  0  0  0  0  0
   -2.3153   -1.3239   -1.7514 H   0  0  0  0  0  0  0  0  0  0  0  0
   -2.1226    1.7312   -1.9941 H   0  0  0  0  0  0  0  0  0  0  0  0
   -0.0080    0.2501   -2.4236 H   0  0  0  0  0  0  0  0  0  0  0  0
    0.1075    1.6809   -1.3983 H   0  0  0  0  0  0  0  0  0  0  0  0
   -4.2972    2.1092   -1.6864 H   0  0  0  0  0  0  0  0  0  0  0  0
   -3.6006    1.1379    2.3726 H   0  0  0  0  0  0  0  0  0  0  0  0
   -0.3179   -0.7683    1.5003 H   0  0  0  0  0  0  0  0  0  0  0  0
   -6.4227    2.9527   -1.1110 H   0  0  0  0  0  0  0  0  0  0  0  0
   -5.7396    1.9801    2.9271 H   0  0  0  0  0  0  0  0  0  0  0  0
   -9.4611    4.5095    2.2258 H   0  0  0  0  0  0  0  0  0  0  0  0
  2  1  1  0  0  0  0 
  2  3  1  0  0  0  0 
  2  4  1  0  0  0  0 
  3  5  1  0  0  0  0 
  3  6  2  0  0  0  0 
  4  7  1  0  0  0  0 
  5  8  2  0  0  0  0 
  5  9  1  0  0  0  0 
  6 10  1  0  0  0  0 
  7 10  1  0  0  0  0 
  7 11  2  0  0  0  0 
  8 12  1  0  0  0  0 
  9 13  2  0  0  0  0 
 12 14  2  0  0  0  0 
 13 14  1  0  0  0  0 
 15 14  1  0  0  0  0 
 15 16  2  0  0  0  0 
 16 17  1  0  0  0  0 
 17 18  1  0  0  0  0 
 18 19  3  0  0  0  0 
 17 20  1  0  0  0  0 
 20 21  3  0  0  0  0 
 22  1  1  0  0  0  0 
 23  1  1  0  0  0  0 
 24  1  1  0  0  0  0 
  2 25  1  0  0  0  0 
 26  4  1  0  0  0  0 
 27  4  1  0  0  0  0 
 28  8  1  0  0  0  0 
 29  9  1  0  0  0  0 
 30 10  1  0  0  0  0 
 31 12  1  0  0  0  0 
 32 13  1  0  0  0  0 
 33 17  1  0  0  0  0 
M  END
> <cdk:Title>
levosimendan

> <Conformer>
1

> <SuperDrugID>
SD001391

$$$$
