mitiglinide
  CDK     0628171801

 48 50  0  0  0  0  0  0  0  0999 V2000
    0.0568    0.3320   -0.4447 C   0  0  0  0  0  0  0  0  0  0  0  0
   -0.6175    1.6016   -0.0550 C   0  0  1  0  0  0  0  0  0  0  0  0
   -0.4786   -0.3021   -1.3866 O   0  0  0  0  0  0  0  0  0  0  0  0
    1.1782   -0.2025    0.1660 N   0  0  0  0  0  0  0  0  0  0  0  0
   -1.0606    2.5074   -1.2539 C   0  0  2  0  0  0  0  0  0  0  0  0
    1.8334   -1.3794   -0.3275 C   0  0  1  0  0  0  0  0  0  0  0  0
    1.8053    0.3161    1.3475 C   0  0  1  0  0  0  0  0  0  0  0  0
    0.1245    3.0236   -2.1371 C   0  0  2  0  0  0  0  0  0  0  0  0
   -1.8762    3.6420   -0.7525 C   0  0  0  0  0  0  0  0  0  0  0  0
    2.7190   -1.8770    0.8356 C   0  0  1  0  0  0  0  0  0  0  0  0
    3.0752   -0.5467    1.5449 C   0  0  2  0  0  0  0  0  0  0  0  0
   -0.3004    3.7409   -3.3799 C   0  0  0  0  0  0  0  0  0  0  0  0
   -1.3365    4.5660    0.0765 O   0  0  0  0  0  0  0  0  0  0  0  0
   -3.0762    3.7684   -1.0867 O   0  0  0  0  0  0  0  0  0  0  0  0
    1.9700   -2.8974    1.7496 C   0  0  2  0  0  0  0  0  0  0  0  0
    3.5960   -0.7068    3.0055 C   0  0  1  0  0  0  0  0  0  0  0  0
    0.0799    5.0841   -3.6205 C   0  0  0  0  0  0  0  0  0  0  0  0
   -1.0826    3.0815   -4.3613 C   0  0  0  0  0  0  0  0  0  0  0  0
    2.6863   -3.0984    3.1047 C   0  0  1  0  0  0  0  0  0  0  0  0
    2.8255   -1.7506    3.8540 C   0  0  2  0  0  0  0  0  0  0  0  0
   -0.3289    5.7535   -4.7903 C   0  0  0  0  0  0  0  0  0  0  0  0
   -1.5052    3.7542   -5.5224 C   0  0  0  0  0  0  0  0  0  0  0  0
   -1.1303    5.0916   -5.7372 C   0  0  0  0  0  0  0  0  0  0  0  0
    3.6263   -2.3499    0.4447 H   0  0  0  0  0  0  0  0  0  0  0  0
    3.8785   -0.0652    0.9730 H   0  0  0  0  0  0  0  0  0  0  0  0
   -1.5076    1.3169    0.5144 H   0  0  0  0  0  0  0  0  0  0  0  0
    0.0136    2.1891    0.6118 H   0  0  0  0  0  0  0  0  0  0  0  0
   -1.7074    1.8902   -1.8855 H   0  0  0  0  0  0  0  0  0  0  0  0
    1.1274   -2.1547   -0.6373 H   0  0  0  0  0  0  0  0  0  0  0  0
    2.4530   -1.1058   -1.1869 H   0  0  0  0  0  0  0  0  0  0  0  0
    2.0902    1.3650    1.2278 H   0  0  0  0  0  0  0  0  0  0  0  0
    1.1221    0.2192    2.1949 H   0  0  0  0  0  0  0  0  0  0  0  0
    0.7412    2.1776   -2.4475 H   0  0  0  0  0  0  0  0  0  0  0  0
    0.7641    3.6669   -1.5250 H   0  0  0  0  0  0  0  0  0  0  0  0
   -1.8823    5.3088    0.4030 H   0  0  0  0  0  0  0  0  0  0  0  0
    1.9021   -3.8599    1.2360 H   0  0  0  0  0  0  0  0  0  0  0  0
    0.9495   -2.5550    1.9445 H   0  0  0  0  0  0  0  0  0  0  0  0
    4.6412   -1.0236    2.9590 H   0  0  0  0  0  0  0  0  0  0  0  0
    3.5721    0.2612    3.5112 H   0  0  0  0  0  0  0  0  0  0  0  0
    0.6584    5.5888   -2.9448 H   0  0  0  0  0  0  0  0  0  0  0  0
   -1.3559    2.1044   -4.2351 H   0  0  0  0  0  0  0  0  0  0  0  0
    2.1140   -3.7971    3.7193 H   0  0  0  0  0  0  0  0  0  0  0  0
    3.6749   -3.5334    2.9364 H   0  0  0  0  0  0  0  0  0  0  0  0
    1.8340   -1.3638    4.1019 H   0  0  0  0  0  0  0  0  0  0  0  0
    3.3592   -1.9211    4.7931 H   0  0  0  0  0  0  0  0  0  0  0  0
   -0.0472    6.7235   -4.9507 H   0  0  0  0  0  0  0  0  0  0  0  0
   -2.0888    3.2710   -6.2097 H   0  0  0  0  0  0  0  0  0  0  0  0
   -1.4372    5.5799   -6.5824 H   0  0  0  0  0  0  0  0  0  0  0  0
  1  2  1  0  0  0  0 
  1  3  2  0  0  0  0 
  1  4  1  0  0  0  0 
  5  2  1  0  0  0  0 
  4  6  1  0  0  0  0 
  4  7  1  0  0  0  0 
  5  8  1  0  0  0  0 
  5  9  1  0  0  0  0 
 10  6  1  0  0  0  0 
 11  7  1  0  0  0  0 
  8 12  1  0  0  0  0 
  9 13  1  0  0  0  0 
  9 14  2  0  0  0  0 
 11 10  1  0  0  0  0 
 10 15  1  0  0  0  0 
 10 24  1  0  0  0  0 
 11 16  1  0  0  0  0 
 11 25  1  0  0  0  0 
 12 17  2  0  0  0  0 
 12 18  1  0  0  0  0 
 15 19  1  0  0  0  0 
 16 20  1  0  0  0  0 
 17 21  1  0  0  0  0 
 18 22  2  0  0  0  0 
 19 20  1  0  0  0  0 
 21 23  2  0  0  0  0 
 22 23  1  0  0  0  0 
  2 26  1  0  0  0  0 
  2 27  1  0  0  0  0 
  5 28  1  0  0  0  0 
  6 29  1  0  0  0  0 
  6 30  1  0  0  0  0 
  7 31  1  0  0  0  0 
  7 32  1  0  0  0  0 
  8 33  1  0  0  0  0 
  8 34  1  0  0  0  0 
 13 35  1  0  0  0  0 
 15 36  1  0  0  0  0 
 15 37  1  0  0  0  0 
 16 38  1  0  0  0  0 
 16 39  1  0  0  0  0 
 17 40  1  0  0  0  0 
 18 41  1  0  0  0  0 
 19 42  1  0  0  0  0 
 19 43  1  0  0  0  0 
 20 44  1  0  0  0  0 
 20 45  1  0  0  0  0 
 21 46  1  0  0  0  0 
 22 47  1  0  0  0  0 
 23 48  1  0  0  0  0 
M  END
> <cdk:Title>
mitiglinide

> <Conformer>
1

> <SuperDrugID>
SD001617

$$$$
