atosiban
  CDK     0628171801

135137  0  0  0  0  0  0  0  0999 V2000
    7.1201    2.2566    5.4559 C   0  0  0  0  0  0  0  0  0  0  0  0
    5.7709    2.6769    5.4079 C   0  0  0  0  0  0  0  0  0  0  0  0
    5.4866    4.0522    5.5899 C   0  0  0  0  0  0  0  0  0  0  0  0
    6.5206    4.9844    5.7808 C   0  0  0  0  0  0  0  0  0  0  0  0
    7.8640    4.5586    5.8225 C   0  0  0  0  0  0  0  0  0  0  0  0
    8.1555    3.1889    5.6619 C   0  0  0  0  0  0  0  0  0  0  0  0
    4.6696    1.7055    5.1405 C   0  0  2  0  0  0  0  0  0  0  0  0
    8.8935    5.4541    5.9631 O   0  0  0  0  0  0  0  0  0  0  0  0
    4.6975    1.0120    3.7320 C   0  0  1  0  0  0  0  0  0  0  0  0
    3.4464    0.3592    3.4879 N   0  0  0  0  0  0  0  0  0  0  0  0
    4.9148    1.9089    2.5649 C   0  0  0  0  0  0  0  0  0  0  0  0
    2.9556   -0.7330    4.1314 C   0  0  0  0  0  0  0  0  0  0  0  0
    3.6298   -1.3590    4.9838 O   0  0  0  0  0  0  0  0  0  0  0  0
    1.5676   -1.1523    3.8468 C   0  0  2  0  0  0  0  0  0  0  0  0
    1.4381   -2.6159    3.3684 C   0  0  2  0  0  0  0  0  0  0  0  0
   -0.3124   -3.0360    3.0937 S   0  0  0  0  0  0  0  0  0  0  0  0
    4.9684    3.1538    2.7136 O   0  0  0  0  0  0  0  0  0  0  0  0
    5.0645    1.3710    1.3130 N   0  0  0  0  0  0  0  0  0  0  0  0
    5.4283    2.1135    0.1356 C   0  0  2  0  0  0  0  0  0  0  0  0
    4.7489    1.5709   -1.0786 C   0  0  0  0  0  0  0  0  0  0  0  0
    3.4051    1.5129   -1.3344 N   0  0  0  0  0  0  0  0  0  0  0  0
    5.4353    1.1393   -2.0315 O   0  0  0  0  0  0  0  0  0  0  0  0
    6.9977    2.2684    0.0993 C   0  0  1  0  0  0  0  0  0  0  0  0
    7.7645    0.9111    0.1022 C   0  0  0  0  0  0  0  0  0  0  0  0
    7.5620    3.2047   -1.0232 C   0  0  2  0  0  0  0  0  0  0  0  0
    6.9891    4.6417   -1.0564 C   0  0  0  0  0  0  0  0  0  0  0  0
    2.2575    1.7651   -0.5002 C   0  0  2  0  0  0  0  0  0  0  0  0
    1.0507    1.4545   -1.3299 C   0  0  0  0  0  0  0  0  0  0  0  0
    2.2134    3.1551    0.2287 C   0  0  1  0  0  0  0  0  0  0  0  0
    2.4655    4.3900   -0.6745 C   0  0  0  0  0  0  0  0  0  0  0  0
    0.9969    3.3147    0.9586 O   0  0  0  0  0  0  0  0  0  0  0  0
    0.0551    2.3693   -1.4969 N   0  0  0  0  0  0  0  0  0  0  0  0
    0.9640    0.3139   -1.8405 O   0  0  0  0  0  0  0  0  0  0  0  0
   -1.2822    2.2559   -1.9900 C   0  0  2  0  0  0  0  0  0  0  0  0
   -2.1528    2.2367   -0.7762 C   0  0  0  0  0  0  0  0  0  0  0  0
   -1.6298    1.2357   -3.1239 C   0  0  1  0  0  0  0  0  0  0  0  0
   -0.8510    1.6178   -4.4243 C   0  0  0  0  0  0  0  0  0  0  0  0
   -1.1178    2.7834   -5.1023 N   0  0  0  0  0  0  0  0  0  0  0  0
    0.0026    0.8325   -4.8894 O   0  0  0  0  0  0  0  0  0  0  0  0
   -2.3798    1.2197    0.1042 N   0  0  0  0  0  0  0  0  0  0  0  0
   -2.7509    3.2937   -0.4674 O   0  0  0  0  0  0  0  0  0  0  0  0
   -2.0184   -0.1600    0.0121 C   0  0  2  0  0  0  0  0  0  0  0  0
   -3.1285   -0.9365   -0.6238 C   0  0  0  0  0  0  0  0  0  0  0  0
   -1.6088   -0.7605    1.3884 C   0  0  1  0  0  0  0  0  0  0  0  0
   -4.4896   -0.7438   -0.4085 N   0  0  0  0  0  0  0  0  0  0  0  0
   -2.7631   -1.8509   -1.4020 O   0  0  0  0  0  0  0  0  0  0  0  0
   -5.0510    0.2373    0.4794 C   0  0  1  0  0  0  0  0  0  0  0  0
   -6.4863   -0.2257    0.7528 C   0  0  1  0  0  0  0  0  0  0  0  0
   -6.8565   -0.9345   -0.5522 C   0  0  2  0  0  0  0  0  0  0  0  0
   -5.5149   -1.5618   -1.0034 C   0  0  1  0  0  0  0  0  0  0  0  0
   -5.4584   -1.7553   -2.4784 C   0  0  0  0  0  0  0  0  0  0  0  0
   -5.5179   -0.7015   -3.3474 N   0  0  0  0  0  0  0  0  0  0  0  0
   -5.4101   -2.9340   -2.9047 O   0  0  0  0  0  0  0  0  0  0  0  0
   -5.7079   -0.8100   -4.7713 C   0  0  2  0  0  0  0  0  0  0  0  0
   -4.8422    0.1406   -5.5126 C   0  0  0  0  0  0  0  0  0  0  0  0
   -7.2074   -0.5499   -5.1064 C   0  0  2  0  0  0  0  0  0  0  0  0
   -8.1652   -1.5875   -4.4616 C   0  0  1  0  0  0  0  0  0  0  0  0
   -9.6348   -1.3969   -4.8893 C   0  0  1  0  0  0  0  0  0  0  0  0
  -10.4934   -2.3246   -4.1496 N   0  0  1  0  0  0  0  0  0  0  0  0
   -4.8973    1.3630   -5.2352 O   0  0  0  0  0  0  0  0  0  0  0  0
   -4.0477   -0.3095   -6.5278 N   0  0  0  0  0  0  0  0  0  0  0  0
   -3.3394    0.5237   -7.4487 C   0  0  1  0  0  0  0  0  0  0  0  0
   -2.3024   -0.2418   -8.1655 C   0  0  0  0  0  0  0  0  0  0  0  0
   -2.6063   -1.2622   -8.8246 O   0  0  0  0  0  0  0  0  0  0  0  0
   -1.0129    0.1441   -8.1486 N   0  0  0  0  0  0  0  0  0  0  0  0
   -0.6865   -2.3197    1.1564 S   0  0  0  0  0  0  0  0  0  0  0  0
    8.9806    6.0711    7.2636 C   0  0  1  0  0  0  0  0  0  0  0  0
   10.1981    7.0140    7.2986 C   0  0  0  0  0  0  0  0  0  0  0  0
    5.0512    3.1283    0.2239 H   0  0  0  0  0  0  0  0  0  0  0  0
    2.2719    1.0019    0.2853 H   0  0  0  0  0  0  0  0  0  0  0  0
    7.3572    1.2691    5.3344 H   0  0  0  0  0  0  0  0  0  0  0  0
    4.5219    4.3912    5.5687 H   0  0  0  0  0  0  0  0  0  0  0  0
    6.2897    5.9749    5.8843 H   0  0  0  0  0  0  0  0  0  0  0  0
    9.1257    2.8677    5.6897 H   0  0  0  0  0  0  0  0  0  0  0  0
    3.7011    2.2016    5.2573 H   0  0  0  0  0  0  0  0  0  0  0  0
    4.7162    0.9362    5.9155 H   0  0  0  0  0  0  0  0  0  0  0  0
    5.5063    0.2740    3.7280 H   0  0  0  0  0  0  0  0  0  0  0  0
    2.8667    0.7648    2.8233 H   0  0  0  0  0  0  0  0  0  0  0  0
    1.1390   -0.5015    3.0812 H   0  0  0  0  0  0  0  0  0  0  0  0
    0.9801   -1.0174    4.7583 H   0  0  0  0  0  0  0  0  0  0  0  0
    1.8250   -3.2952    4.1306 H   0  0  0  0  0  0  0  0  0  0  0  0
    2.0027   -2.7707    2.4465 H   0  0  0  0  0  0  0  0  0  0  0  0
    4.9707    0.4080    1.2244 H   0  0  0  0  0  0  0  0  0  0  0  0
    3.1899    1.1971   -2.2269 H   0  0  0  0  0  0  0  0  0  0  0  0
    7.2748    2.7555    1.0415 H   0  0  0  0  0  0  0  0  0  0  0  0
    8.8376    1.0854    0.2087 H   0  0  0  0  0  0  0  0  0  0  0  0
    7.6013    0.3587   -0.8235 H   0  0  0  0  0  0  0  0  0  0  0  0
    7.4507    0.2882    0.9406 H   0  0  0  0  0  0  0  0  0  0  0  0
    7.4177    2.7532   -2.0067 H   0  0  0  0  0  0  0  0  0  0  0  0
    8.6414    3.3050   -0.8738 H   0  0  0  0  0  0  0  0  0  0  0  0
    7.5548    5.2446   -1.7697 H   0  0  0  0  0  0  0  0  0  0  0  0
    5.9459    4.6382   -1.3732 H   0  0  0  0  0  0  0  0  0  0  0  0
    7.0643    5.1077   -0.0723 H   0  0  0  0  0  0  0  0  0  0  0  0
    2.9622    3.1558    1.0091 H   0  0  0  0  0  0  0  0  0  0  0  0
    2.5365    5.2853   -0.0569 H   0  0  0  0  0  0  0  0  0  0  0  0
    3.3947    4.2767   -1.2315 H   0  0  0  0  0  0  0  0  0  0  0  0
    1.6606    4.5400   -1.3895 H   0  0  0  0  0  0  0  0  0  0  0  0
    1.1051    4.1404    1.4766 H   0  0  0  0  0  0  0  0  0  0  0  0
    0.2556    3.2482   -1.1549 H   0  0  0  0  0  0  0  0  0  0  0  0
   -1.4508    3.2362   -2.4497 H   0  0  0  0  0  0  0  0  0  0  0  0
   -1.4350    0.2032   -2.7273 H   0  0  0  0  0  0  0  0  0  0  0  0
   -2.7585    1.2453   -3.2111 H   0  0  0  0  0  0  0  0  0  0  0  0
   -0.6447    3.0074   -5.9349 H   0  0  0  0  0  0  0  0  0  0  0  0
   -1.7915    3.4219   -4.7783 H   0  0  0  0  0  0  0  0  0  0  0  0
   -2.9193    1.4498    0.8777 H   0  0  0  0  0  0  0  0  0  0  0  0
   -1.1192   -0.2375   -0.5935 H   0  0  0  0  0  0  0  0  0  0  0  0
   -0.9589   -0.0555    1.9092 H   0  0  0  0  0  0  0  0  0  0  0  0
   -2.4833   -0.9503    2.0148 H   0  0  0  0  0  0  0  0  0  0  0  0
   -4.5195    0.3025    1.4310 H   0  0  0  0  0  0  0  0  0  0  0  0
   -5.0633    1.2170   -0.0114 H   0  0  0  0  0  0  0  0  0  0  0  0
   -6.5072   -0.9341    1.5868 H   0  0  0  0  0  0  0  0  0  0  0  0
   -7.1517    0.6116    0.9740 H   0  0  0  0  0  0  0  0  0  0  0  0
   -7.2296   -0.1941   -1.2673 H   0  0  0  0  0  0  0  0  0  0  0  0
   -7.6272   -1.6928   -0.3922 H   0  0  0  0  0  0  0  0  0  0  0  0
   -5.4391   -2.5402   -0.5171 H   0  0  0  0  0  0  0  0  0  0  0  0
   -5.4999    0.1933   -2.9716 H   0  0  0  0  0  0  0  0  0  0  0  0
   -5.4672   -1.8201   -5.1203 H   0  0  0  0  0  0  0  0  0  0  0  0
   -7.3428   -0.5799   -6.1914 H   0  0  0  0  0  0  0  0  0  0  0  0
   -7.4911    0.4493   -4.7633 H   0  0  0  0  0  0  0  0  0  0  0  0
   -7.8471   -2.5973   -4.7331 H   0  0  0  0  0  0  0  0  0  0  0  0
   -8.1173   -1.4975   -3.3752 H   0  0  0  0  0  0  0  0  0  0  0  0
   -9.9629   -0.3783   -4.6761 H   0  0  0  0  0  0  0  0  0  0  0  0
   -9.7467   -1.5902   -5.9567 H   0  0  0  0  0  0  0  0  0  0  0  0
  -11.4471   -2.1929   -4.4883 H   0  0  0  0  0  0  0  0  0  0  0  0
  -10.2114   -3.2709   -4.4103 H   0  0  0  0  0  0  0  0  0  0  0  0
   -4.0182   -1.2682   -6.6820 H   0  0  0  0  0  0  0  0  0  0  0  0
   -4.0468    0.9167   -8.1843 H   0  0  0  0  0  0  0  0  0  0  0  0
   -2.8837    1.3688   -6.9275 H   0  0  0  0  0  0  0  0  0  0  0  0
   -0.3426   -0.3746   -8.6199 H   0  0  0  0  0  0  0  0  0  0  0  0
   -0.7479    0.9445   -7.6694 H   0  0  0  0  0  0  0  0  0  0  0  0
    8.0856    6.6641    7.4744 H   0  0  0  0  0  0  0  0  0  0  0  0
    9.0984    5.3145    8.0456 H   0  0  0  0  0  0  0  0  0  0  0  0
   11.1190    6.4451    7.1522 H   0  0  0  0  0  0  0  0  0  0  0  0
   10.1156    7.7660    6.5101 H   0  0  0  0  0  0  0  0  0  0  0  0
   10.2461    7.5216    8.2648 H   0  0  0  0  0  0  0  0  0  0  0  0
  1  2  2  0  0  0  0 
  2  3  1  0  0  0  0 
  3  4  2  0  0  0  0 
  4  5  1  0  0  0  0 
  5  6  2  0  0  0  0 
  1  6  1  0  0  0  0 
  2  7  1  0  0  0  0 
  5  8  1  0  0  0  0 
  9  7  1  0  0  0  0 
  9 10  1  0  0  0  0 
  9 11  1  0  0  0  0 
 10 12  1  0  0  0  0 
 12 13  2  0  0  0  0 
 12 14  1  0  0  0  0 
 14 15  1  0  0  0  0 
 15 16  1  0  0  0  0 
 11 17  2  0  0  0  0 
 11 18  1  0  0  0  0 
 18 19  1  0  0  0  0 
 19 20  1  0  0  0  0 
 20 21  1  0  0  0  0 
 20 22  2  0  0  0  0 
 19 23  1  0  0  0  0 
 23 24  1  0  0  0  0 
 23 25  1  0  0  0  0 
 25 26  1  0  0  0  0 
 21 27  1  0  0  0  0 
 27 28  1  0  0  0  0 
 27 29  1  0  0  0  0 
 29 30  1  0  0  0  0 
 29 31  1  0  0  0  0 
 28 32  1  0  0  0  0 
 28 33  2  0  0  0  0 
 32 34  1  0  0  0  0 
 34 35  1  0  0  0  0 
 34 36  1  0  0  0  0 
 36 37  1  0  0  0  0 
 37 38  1  0  0  0  0 
 37 39  2  0  0  0  0 
 35 40  1  0  0  0  0 
 35 41  2  0  0  0  0 
 40 42  1  0  0  0  0 
 42 43  1  0  0  0  0 
 42 44  1  0  0  0  0 
 43 45  1  0  0  0  0 
 43 46  2  0  0  0  0 
 47 48  1  0  0  0  0 
 48 49  1  0  0  0  0 
 49 50  1  0  0  0  0 
 45 47  1  0  0  0  0 
 45 50  1  0  0  0  0 
 50 51  1  0  0  0  0 
 51 52  1  0  0  0  0 
 51 53  2  0  0  0  0 
 52 54  1  0  0  0  0 
 54 55  1  0  0  0  0 
 54 56  1  0  0  0  0 
 56 57  1  0  0  0  0 
 57 58  1  0  0  0  0 
 58 59  1  0  0  0  0 
 55 60  2  0  0  0  0 
 55 61  1  0  0  0  0 
 61 62  1  0  0  0  0 
 62 63  1  0  0  0  0 
 63 64  2  0  0  0  0 
 63 65  1  0  0  0  0 
 44 66  1  0  0  0  0 
 16 66  1  0  0  0  0 
  8 67  1  0  0  0  0 
 67 68  1  0  0  0  0 
 19 69  1  0  0  0  0 
 27 70  1  0  0  0  0 
  1 71  1  0  0  0  0 
  3 72  1  0  0  0  0 
  4 73  1  0  0  0  0 
  6 74  1  0  0  0  0 
  7 75  1  0  0  0  0 
  7 76  1  0  0  0  0 
  9 77  1  0  0  0  0 
 10 78  1  0  0  0  0 
 14 79  1  0  0  0  0 
 14 80  1  0  0  0  0 
 15 81  1  0  0  0  0 
 15 82  1  0  0  0  0 
 18 83  1  0  0  0  0 
 21 84  1  0  0  0  0 
 23 85  1  0  0  0  0 
 24 86  1  0  0  0  0 
 24 87  1  0  0  0  0 
 24 88  1  0  0  0  0 
 25 89  1  0  0  0  0 
 25 90  1  0  0  0  0 
 26 91  1  0  0  0  0 
 26 92  1  0  0  0  0 
 26 93  1  0  0  0  0 
 29 94  1  0  0  0  0 
 30 95  1  0  0  0  0 
 30 96  1  0  0  0  0 
 30 97  1  0  0  0  0 
 31 98  1  0  0  0  0 
 32 99  1  0  0  0  0 
 34100  1  0  0  0  0 
 36101  1  0  0  0  0 
 36102  1  0  0  0  0 
 38103  1  0  0  0  0 
 38104  1  0  0  0  0 
 40105  1  0  0  0  0 
 42106  1  0  0  0  0 
 44107  1  0  0  0  0 
 44108  1  0  0  0  0 
 47109  1  0  0  0  0 
 47110  1  0  0  0  0 
 48111  1  0  0  0  0 
 48112  1  0  0  0  0 
 49113  1  0  0  0  0 
 49114  1  0  0  0  0 
 50115  1  0  0  0  0 
 52116  1  0  0  0  0 
 54117  1  0  0  0  0 
 56118  1  0  0  0  0 
 56119  1  0  0  0  0 
 57120  1  0  0  0  0 
 57121  1  0  0  0  0 
 58122  1  0  0  0  0 
 58123  1  0  0  0  0 
 59124  1  0  0  0  0 
 59125  1  0  0  0  0 
 61126  1  0  0  0  0 
 62127  1  0  0  0  0 
 62128  1  0  0  0  0 
 65129  1  0  0  0  0 
 65130  1  0  0  0  0 
 67131  1  0  0  0  0 
 67132  1  0  0  0  0 
 68133  1  0  0  0  0 
 68134  1  0  0  0  0 
 68135  1  0  0  0  0 
M  END
> <cdk:Title>
atosiban

> <Conformer>
1

> <SuperDrugID>
SD002615

$$$$
