meglumine
  CDK     0628171802

 30 29  0  0  0  0  0  0  0  0999 V2000
   -5.1572   -1.3045    0.8439 C   0  0  2  0  0  0  0  0  0  0  0  0
   -5.1307   -1.3936   -0.7027 C   0  0  2  0  0  0  0  0  0  0  0  0
   -6.2288   -2.1664   -1.1768 O   0  0  0  0  0  0  0  0  0  0  0  0
   -4.1441   -0.2865    1.4566 C   0  0  1  0  0  0  0  0  0  0  0  0
   -4.9697   -2.6026    1.4068 O   0  0  0  0  0  0  0  0  0  0  0  0
   -4.4333   -0.2186    2.8534 O   0  0  0  0  0  0  0  0  0  0  0  0
   -2.6292   -0.5940    1.2129 C   0  0  1  0  0  0  0  0  0  0  0  0
   -1.6551    0.5453    1.6605 C   0  0  1  0  0  0  0  0  0  0  0  0
   -2.2642   -1.8216    1.8435 O   0  0  0  0  0  0  0  0  0  0  0  0
   -1.6523    0.7007    3.0807 O   0  0  0  0  0  0  0  0  0  0  0  0
   -0.1755    0.3185    1.2450 C   0  0  2  0  0  0  0  0  0  0  0  0
   -0.0013    0.2651   -0.2254 N   0  0  1  0  0  0  0  0  0  0  0  0
    1.3741   -0.0555   -0.6595 C   0  0  0  0  0  0  0  0  0  0  0  0
   -6.1619   -0.9776    1.1318 H   0  0  0  0  0  0  0  0  0  0  0  0
   -4.2098   -1.8679   -1.0446 H   0  0  0  0  0  0  0  0  0  0  0  0
   -5.2002   -0.3951   -1.1393 H   0  0  0  0  0  0  0  0  0  0  0  0
   -6.1397   -2.1560   -2.1530 H   0  0  0  0  0  0  0  0  0  0  0  0
   -4.3703    0.6963    1.0323 H   0  0  0  0  0  0  0  0  0  0  0  0
   -5.7189   -3.1380    1.0699 H   0  0  0  0  0  0  0  0  0  0  0  0
   -4.0219    0.6102    3.1674 H   0  0  0  0  0  0  0  0  0  0  0  0
   -2.4959   -0.7336    0.1400 H   0  0  0  0  0  0  0  0  0  0  0  0
   -1.9844    1.4906    1.2199 H   0  0  0  0  0  0  0  0  0  0  0  0
   -1.3558   -2.0124    1.5263 H   0  0  0  0  0  0  0  0  0  0  0  0
   -2.5039    1.1250    3.3028 H   0  0  0  0  0  0  0  0  0  0  0  0
    0.1930   -0.6012    1.7081 H   0  0  0  0  0  0  0  0  0  0  0  0
    0.4207    1.1508    1.6301 H   0  0  0  0  0  0  0  0  0  0  0  0
   -0.5956   -0.4868   -0.5784 H   0  0  0  0  0  0  0  0  0  0  0  0
    1.4057   -0.0523   -1.7491 H   0  0  0  0  0  0  0  0  0  0  0  0
    2.0824    0.6877   -0.2886 H   0  0  0  0  0  0  0  0  0  0  0  0
    1.6698   -1.0460   -0.3074 H   0  0  0  0  0  0  0  0  0  0  0  0
  1  2  1  0  0  0  0 
  2  3  1  0  0  0  0 
  1  4  1  0  0  0  0 
  1  5  1  0  0  0  0 
  4  6  1  0  0  0  0 
  4  7  1  0  0  0  0 
  7  8  1  0  0  0  0 
  7  9  1  0  0  0  0 
  8 10  1  0  0  0  0 
  8 11  1  0  0  0  0 
 11 12  1  0  0  0  0 
 12 13  1  0  0  0  0 
  1 14  1  0  0  0  0 
  2 15  1  0  0  0  0 
  2 16  1  0  0  0  0 
  3 17  1  0  0  0  0 
  4 18  1  0  0  0  0 
  5 19  1  0  0  0  0 
  6 20  1  0  0  0  0 
  7 21  1  0  0  0  0 
  8 22  1  0  0  0  0 
  9 23  1  0  0  0  0 
 10 24  1  0  0  0  0 
 11 25  1  0  0  0  0 
 11 26  1  0  0  0  0 
 12 27  1  0  0  0  0 
 13 28  1  0  0  0  0 
 13 29  1  0  0  0  0 
 13 30  1  0  0  0  0 
M  END
> <cdk:Title>
meglumine

> <Conformer>
1

> <SuperDrugID>
SD003932

$$$$
