glycerol
  CDK     0628171801

 14 13  0  0  0  0  0  0  0  0999 V2000
    0.7577   -1.5924   -2.3839 O   0  0  0  0  0  0  0  0  0  0  0  0
   -0.6020   -1.1971   -2.2384 C   0  0  1  0  0  0  0  0  0  0  0  0
   -0.7151    0.0010   -1.2649 C   0  0  2  0  0  0  0  0  0  0  0  0
   -0.1985   -0.3622    0.0139 O   0  0  0  0  0  0  0  0  0  0  0  0
   -2.1778    0.4747   -1.1021 C   0  0  1  0  0  0  0  0  0  0  0  0
   -2.2416    1.5862   -0.2166 O   0  0  0  0  0  0  0  0  0  0  0  0
    0.7276   -2.3537   -3.0024 H   0  0  0  0  0  0  0  0  0  0  0  0
   -0.9843   -0.9195   -3.2230 H   0  0  0  0  0  0  0  0  0  0  0  0
   -1.1734   -2.0493   -1.8601 H   0  0  0  0  0  0  0  0  0  0  0  0
   -0.1148    0.8300   -1.6518 H   0  0  0  0  0  0  0  0  0  0  0  0
    0.7326   -0.6237   -0.1472 H   0  0  0  0  0  0  0  0  0  0  0  0
   -2.5861    0.7806   -2.0675 H   0  0  0  0  0  0  0  0  0  0  0  0
   -2.7930   -0.3310   -0.6922 H   0  0  0  0  0  0  0  0  0  0  0  0
   -3.1954    1.8053   -0.1641 H   0  0  0  0  0  0  0  0  0  0  0  0
  1  2  1  0  0  0  0 
  2  3  1  0  0  0  0 
  3  4  1  0  0  0  0 
  3  5  1  0  0  0  0 
  5  6  1  0  0  0  0 
  1  7  1  0  0  0  0 
  2  8  1  0  0  0  0 
  2  9  1  0  0  0  0 
  3 10  1  0  0  0  0 
  4 11  1  0  0  0  0 
  5 12  1  0  0  0  0 
  5 13  1  0  0  0  0 
  6 14  1  0  0  0  0 
M  END
> <cdk:Title>
glycerol

> <Conformer>
1

> <SuperDrugID>
SD001172

$$$$
