debrisoquine
  CDK     0628171802

 26 27  0  0  0  0  0  0  0  0999 V2000
    1.3793    0.9227   -1.0218 N   0  0  0  0  0  0  0  0  0  0  0  0
    1.6257   -0.0812   -0.2015 C   0  0  0  0  0  0  0  0  0  0  0  0
    2.8608   -0.2930    0.0582 N   0  0  0  0  0  0  0  0  0  0  0  0
    0.6459   -0.8416    0.3354 N   0  0  0  0  0  0  0  0  0  0  0  0
   -0.6301   -0.2833    0.7238 C   0  0  1  0  0  0  0  0  0  0  0  0
   -1.7842   -0.9705   -0.0541 C   0  0  1  0  0  0  0  0  0  0  0  0
   -1.6016   -2.4390   -0.2192 C   0  0  0  0  0  0  0  0  0  0  0  0
   -2.6808   -3.2231   -0.6896 C   0  0  0  0  0  0  0  0  0  0  0  0
   -2.5344   -4.6103   -0.8656 C   0  0  0  0  0  0  0  0  0  0  0  0
   -1.3129   -5.2320   -0.5611 C   0  0  0  0  0  0  0  0  0  0  0  0
   -0.2341   -4.4650   -0.0858 C   0  0  0  0  0  0  0  0  0  0  0  0
   -0.3583   -3.0658    0.0735 C   0  0  0  0  0  0  0  0  0  0  0  0
    0.8080   -2.2689    0.5515 C   0  0  2  0  0  0  0  0  0  0  0  0
    2.1145    1.4525   -1.3740 H   0  0  0  0  0  0  0  0  0  0  0  0
    0.4683    1.1287   -1.2887 H   0  0  0  0  0  0  0  0  0  0  0  0
    3.1088   -0.9892    0.6304 H   0  0  0  0  0  0  0  0  0  0  0  0
   -0.7710   -0.4584    1.7943 H   0  0  0  0  0  0  0  0  0  0  0  0
   -0.6858    0.8003    0.5770 H   0  0  0  0  0  0  0  0  0  0  0  0
   -2.7177   -0.7789    0.4838 H   0  0  0  0  0  0  0  0  0  0  0  0
   -1.8680   -0.5184   -1.0467 H   0  0  0  0  0  0  0  0  0  0  0  0
   -3.5811   -2.7886   -0.9055 H   0  0  0  0  0  0  0  0  0  0  0  0
   -3.3177   -5.1676   -1.2163 H   0  0  0  0  0  0  0  0  0  0  0  0
   -1.2055   -6.2403   -0.6885 H   0  0  0  0  0  0  0  0  0  0  0  0
    0.6484   -4.9344    0.1347 H   0  0  0  0  0  0  0  0  0  0  0  0
    0.9248   -2.4502    1.6217 H   0  0  0  0  0  0  0  0  0  0  0  0
    1.7078   -2.6470    0.0551 H   0  0  0  0  0  0  0  0  0  0  0  0
  1  2  1  0  0  0  0 
  2  3  2  0  0  0  0 
  2  4  1  0  0  0  0 
  4  5  1  0  0  0  0 
  5  6  1  0  0  0  0 
  6  7  1  0  0  0  0 
  7  8  2  0  0  0  0 
  8  9  1  0  0  0  0 
  9 10  2  0  0  0  0 
 10 11  1  0  0  0  0 
 11 12  2  0  0  0  0 
  7 12  1  0  0  0  0 
 12 13  1  0  0  0  0 
  4 13  1  0  0  0  0 
  1 14  1  0  0  0  0 
  1 15  1  0  0  0  0 
  3 16  1  0  0  0  0 
  5 17  1  0  0  0  0 
  5 18  1  0  0  0  0 
  6 19  1  0  0  0  0 
  6 20  1  0  0  0  0 
  8 21  1  0  0  0  0 
  9 22  1  0  0  0  0 
 10 23  1  0  0  0  0 
 11 24  1  0  0  0  0 
 13 25  1  0  0  0  0 
 13 26  1  0  0  0  0 
M  END
> <cdk:Title>
debrisoquine

> <Conformer>
1

> <SuperDrugID>
SD000695

$$$$
