oxyphenbutazone
  CDK     0628171801

 44 46  0  0  0  0  0  0  0  0999 V2000
    0.4713    1.9563   -3.6317 O   0  0  0  0  0  0  0  0  0  0  0  0
    0.8221    0.6474   -3.5803 C   0  0  0  0  0  0  0  0  0  0  0  0
    0.0973   -0.4046   -4.0172 N   0  0  0  0  0  0  0  0  0  0  0  0
    2.0214    0.1716   -3.0708 C   0  0  0  0  0  0  0  0  0  0  0  0
    0.7735   -1.5121   -3.8069 N   0  0  0  0  0  0  0  0  0  0  0  0
   -1.1257   -0.2941   -4.6258 C   0  0  0  0  0  0  0  0  0  0  0  0
    3.1053    0.9583   -2.4439 C   0  0  2  0  0  0  0  0  0  0  0  0
    1.9523   -1.2060   -3.2212 C   0  0  0  0  0  0  0  0  0  0  0  0
    0.3639   -2.7912   -4.0957 C   0  0  0  0  0  0  0  0  0  0  0  0
   -2.2301    0.2653   -3.9428 C   0  0  0  0  0  0  0  0  0  0  0  0
   -1.3062   -0.7732   -5.9434 C   0  0  0  0  0  0  0  0  0  0  0  0
    2.8405    1.1151   -0.9246 C   0  0  2  0  0  0  0  0  0  0  0  0
    2.8315   -2.0134   -2.8399 O   0  0  0  0  0  0  0  0  0  0  0  0
   -0.8379   -3.3059   -3.5550 C   0  0  0  0  0  0  0  0  0  0  0  0
    1.1214   -3.6050   -4.9704 C   0  0  0  0  0  0  0  0  0  0  0  0
   -3.4950    0.3239   -4.5588 C   0  0  0  0  0  0  0  0  0  0  0  0
   -2.5704   -0.7186   -6.5580 C   0  0  0  0  0  0  0  0  0  0  0  0
    3.9437    1.9281   -0.2044 C   0  0  2  0  0  0  0  0  0  0  0  0
   -1.2850   -4.5956   -3.9013 C   0  0  0  0  0  0  0  0  0  0  0  0
    0.6769   -4.8955   -5.3143 C   0  0  0  0  0  0  0  0  0  0  0  0
   -3.6646   -0.1672   -5.8669 C   0  0  0  0  0  0  0  0  0  0  0  0
    3.6872    2.0894    1.3095 C   0  0  0  0  0  0  0  0  0  0  0  0
   -0.5272   -5.3908   -4.7806 C   0  0  0  0  0  0  0  0  0  0  0  0
   -4.8769   -0.0996   -6.4640 O   0  0  0  0  0  0  0  0  0  0  0  0
   -0.0638    2.1023   -2.8217 H   0  0  0  0  0  0  0  0  0  0  0  0
    3.1651    1.9412   -2.9183 H   0  0  0  0  0  0  0  0  0  0  0  0
    4.0632    0.4564   -2.6072 H   0  0  0  0  0  0  0  0  0  0  0  0
   -2.1203    0.6216   -2.9906 H   0  0  0  0  0  0  0  0  0  0  0  0
   -0.5155   -1.1631   -6.4630 H   0  0  0  0  0  0  0  0  0  0  0  0
    2.7797    0.1208   -0.4720 H   0  0  0  0  0  0  0  0  0  0  0  0
    1.8792    1.6171   -0.7834 H   0  0  0  0  0  0  0  0  0  0  0  0
   -1.3930   -2.7430   -2.9059 H   0  0  0  0  0  0  0  0  0  0  0  0
    1.9941   -3.2543   -5.3713 H   0  0  0  0  0  0  0  0  0  0  0  0
   -4.2896    0.7253   -4.0571 H   0  0  0  0  0  0  0  0  0  0  0  0
   -2.6923   -1.0740   -7.5081 H   0  0  0  0  0  0  0  0  0  0  0  0
    4.0056    2.9215   -0.6546 H   0  0  0  0  0  0  0  0  0  0  0  0
    4.9041    1.4258   -0.3427 H   0  0  0  0  0  0  0  0  0  0  0  0
   -2.1606   -4.9563   -3.5162 H   0  0  0  0  0  0  0  0  0  0  0  0
    1.2252   -5.4723   -5.9552 H   0  0  0  0  0  0  0  0  0  0  0  0
    4.4956    2.6690    1.7564 H   0  0  0  0  0  0  0  0  0  0  0  0
    3.6480    1.1146    1.7978 H   0  0  0  0  0  0  0  0  0  0  0  0
    2.7464    2.6132    1.4852 H   0  0  0  0  0  0  0  0  0  0  0  0
   -0.8525   -6.3279   -5.0345 H   0  0  0  0  0  0  0  0  0  0  0  0
   -4.8781    0.7706   -6.9185 H   0  0  0  0  0  0  0  0  0  0  0  0
  1  2  1  0  0  0  0 
  2  3  1  0  0  0  0 
  2  4  2  0  0  0  0 
  3  5  1  0  0  0  0 
  3  6  1  0  0  0  0 
  4  7  1  0  0  0  0 
  4  8  1  0  0  0  0 
  5  8  1  0  0  0  0 
  5  9  1  0  0  0  0 
  6 10  2  0  0  0  0 
  6 11  1  0  0  0  0 
  7 12  1  0  0  0  0 
  8 13  2  0  0  0  0 
  9 14  2  0  0  0  0 
  9 15  1  0  0  0  0 
 10 16  1  0  0  0  0 
 11 17  2  0  0  0  0 
 12 18  1  0  0  0  0 
 14 19  1  0  0  0  0 
 15 20  2  0  0  0  0 
 16 21  2  0  0  0  0 
 17 21  1  0  0  0  0 
 18 22  1  0  0  0  0 
 19 23  2  0  0  0  0 
 20 23  1  0  0  0  0 
 21 24  1  0  0  0  0 
 25  1  1  0  0  0  0 
 26  7  1  0  0  0  0 
 27  7  1  0  0  0  0 
 28 10  1  0  0  0  0 
 29 11  1  0  0  0  0 
 30 12  1  0  0  0  0 
 31 12  1  0  0  0  0 
 32 14  1  0  0  0  0 
 33 15  1  0  0  0  0 
 34 16  1  0  0  0  0 
 35 17  1  0  0  0  0 
 36 18  1  0  0  0  0 
 37 18  1  0  0  0  0 
 38 19  1  0  0  0  0 
 39 20  1  0  0  0  0 
 40 22  1  0  0  0  0 
 41 22  1  0  0  0  0 
 42 22  1  0  0  0  0 
 43 23  1  0  0  0  0 
 44 24  1  0  0  0  0 
M  END
> <cdk:Title>
oxyphenbutazone

> <Conformer>
1

> <SuperDrugID>
SD001823

$$$$
