lucanthone
  CDK     0628171801

 48 50  0  0  0  0  0  0  0  0999 V2000
   -0.4911    2.1067    0.4741 N   0  0  0  0  0  0  0  0  0  0  0  0
   -0.9499    0.9706   -0.2719 C   0  0  2  0  0  0  0  0  0  0  0  0
   -0.8456    2.4488    1.7559 C   0  0  0  0  0  0  0  0  0  0  0  0
   -1.3326    1.3596   -1.7237 C   0  0  1  0  0  0  0  0  0  0  0  0
   -1.0557    3.8095    2.1744 C   0  0  0  0  0  0  0  0  0  0  0  0
   -0.9692    1.3912    2.6848 C   0  0  0  0  0  0  0  0  0  0  0  0
   -1.6410    0.1689   -2.5903 N   0  0  1  0  0  0  0  0  0  0  0  0
   -1.4028    4.0231    3.5468 C   0  0  0  0  0  0  0  0  0  0  0  0
   -0.9431    4.9134    1.2656 C   0  0  0  0  0  0  0  0  0  0  0  0
   -1.2894    1.6368    4.0211 C   0  0  0  0  0  0  0  0  0  0  0  0
   -2.8737   -0.6044   -2.2094 C   0  0  2  0  0  0  0  0  0  0  0  0
   -1.4717    0.4235   -4.0595 C   0  0  2  0  0  0  0  0  0  0  0  0
   -1.7395    5.6284    4.1645 S   0  0  0  0  0  0  0  0  0  0  0  0
   -1.5037    2.9499    4.4783 C   0  0  0  0  0  0  0  0  0  0  0  0
   -0.6434    4.6717    0.0709 O   0  0  0  0  0  0  0  0  0  0  0  0
   -1.1501    6.2928    1.5619 C   0  0  0  0  0  0  0  0  0  0  0  0
   -2.4714   -1.9924   -1.6617 C   0  0  0  0  0  0  0  0  0  0  0  0
   -1.3563   -0.8557   -4.9273 C   0  0  0  0  0  0  0  0  0  0  0  0
   -1.5263    6.7438    2.8500 C   0  0  0  0  0  0  0  0  0  0  0  0
   -1.8276    3.1540    5.9209 C   0  0  0  0  0  0  0  0  0  0  0  0
   -0.9938    7.2982    0.5633 C   0  0  0  0  0  0  0  0  0  0  0  0
   -1.7450    8.1103    3.1295 C   0  0  0  0  0  0  0  0  0  0  0  0
   -1.2015    8.6623    0.8345 C   0  0  0  0  0  0  0  0  0  0  0  0
   -1.5796    9.0709    2.1208 C   0  0  0  0  0  0  0  0  0  0  0  0
    0.1077    2.7055    0.0076 H   0  0  0  0  0  0  0  0  0  0  0  0
   -1.8150    0.5107    0.2117 H   0  0  0  0  0  0  0  0  0  0  0  0
   -0.1412    0.2366   -0.2978 H   0  0  0  0  0  0  0  0  0  0  0  0
   -2.1857    2.0456   -1.7178 H   0  0  0  0  0  0  0  0  0  0  0  0
   -0.4810    1.9076   -2.1329 H   0  0  0  0  0  0  0  0  0  0  0  0
   -0.8122    0.4185    2.4034 H   0  0  0  0  0  0  0  0  0  0  0  0
   -1.3645    0.8384    4.6587 H   0  0  0  0  0  0  0  0  0  0  0  0
   -3.5509   -0.7441   -3.0564 H   0  0  0  0  0  0  0  0  0  0  0  0
   -3.4622   -0.0904   -1.4449 H   0  0  0  0  0  0  0  0  0  0  0  0
   -0.5475    0.9840   -4.2248 H   0  0  0  0  0  0  0  0  0  0  0  0
   -2.2972    1.0425   -4.4238 H   0  0  0  0  0  0  0  0  0  0  0  0
   -3.3687   -2.5855   -1.4734 H   0  0  0  0  0  0  0  0  0  0  0  0
   -1.9151   -1.8860   -0.7261 H   0  0  0  0  0  0  0  0  0  0  0  0
   -1.8447   -2.5289   -2.3778 H   0  0  0  0  0  0  0  0  0  0  0  0
   -1.0712   -0.5858   -5.9461 H   0  0  0  0  0  0  0  0  0  0  0  0
   -2.3082   -1.3854   -4.9762 H   0  0  0  0  0  0  0  0  0  0  0  0
   -0.5950   -1.5256   -4.5218 H   0  0  0  0  0  0  0  0  0  0  0  0
   -2.8391    3.5528    6.0196 H   0  0  0  0  0  0  0  0  0  0  0  0
   -1.7714    2.2327    6.5038 H   0  0  0  0  0  0  0  0  0  0  0  0
   -1.1224    3.8611    6.3618 H   0  0  0  0  0  0  0  0  0  0  0  0
   -0.7196    7.0543   -0.3910 H   0  0  0  0  0  0  0  0  0  0  0  0
   -2.0256    8.4188    4.0643 H   0  0  0  0  0  0  0  0  0  0  0  0
   -1.0796    9.3565    0.0932 H   0  0  0  0  0  0  0  0  0  0  0  0
   -1.7316   10.0627    2.3209 H   0  0  0  0  0  0  0  0  0  0  0  0
  1  2  1  0  0  0  0 
  1  3  1  0  0  0  0 
  2  4  1  0  0  0  0 
  3  5  2  0  0  0  0 
  3  6  1  0  0  0  0 
  4  7  1  0  0  0  0 
  5  8  1  0  0  0  0 
  5  9  1  0  0  0  0 
  6 10  2  0  0  0  0 
  7 11  1  0  0  0  0 
  7 12  1  0  0  0  0 
  8 13  1  0  0  0  0 
  8 14  2  0  0  0  0 
  9 15  2  0  0  0  0 
  9 16  1  0  0  0  0 
 10 14  1  0  0  0  0 
 11 17  1  0  0  0  0 
 12 18  1  0  0  0  0 
 13 19  1  0  0  0  0 
 14 20  1  0  0  0  0 
 16 19  1  0  0  0  0 
 16 21  2  0  0  0  0 
 19 22  2  0  0  0  0 
 21 23  1  0  0  0  0 
 22 24  1  0  0  0  0 
 23 24  2  0  0  0  0 
  1 25  1  0  0  0  0 
  2 26  1  0  0  0  0 
  2 27  1  0  0  0  0 
  4 28  1  0  0  0  0 
  4 29  1  0  0  0  0 
  6 30  1  0  0  0  0 
 10 31  1  0  0  0  0 
 11 32  1  0  0  0  0 
 11 33  1  0  0  0  0 
 12 34  1  0  0  0  0 
 12 35  1  0  0  0  0 
 17 36  1  0  0  0  0 
 17 37  1  0  0  0  0 
 17 38  1  0  0  0  0 
 18 39  1  0  0  0  0 
 18 40  1  0  0  0  0 
 18 41  1  0  0  0  0 
 20 42  1  0  0  0  0 
 20 43  1  0  0  0  0 
 20 44  1  0  0  0  0 
 21 45  1  0  0  0  0 
 22 46  1  0  0  0  0 
 23 47  1  0  0  0  0 
 24 48  1  0  0  0  0 
M  END
> <cdk:Title>
lucanthone

> <Conformer>
1

> <SuperDrugID>
SD001430

$$$$
