dimethylcarbate
  CDK     0628171802

 29 30  0  0  0  0  0  0  0  0999 V2000
   -2.4058   -1.6250    0.7628 C   0  0  0  0  0  0  0  0  0  0  0  0
   -3.4049   -2.4555    1.1852 O   0  0  0  0  0  0  0  0  0  0  0  0
   -2.0656   -1.6089   -0.4450 O   0  0  0  0  0  0  0  0  0  0  0  0
   -1.7226   -0.6923    1.6984 C   0  0  1  0  0  0  0  0  0  0  0  0
   -4.2184   -3.2820    0.3484 C   0  0  0  0  0  0  0  0  0  0  0  0
   -1.9677    0.8454    1.4307 C   0  0  1  0  0  0  0  0  0  0  0  0
   -2.0985   -0.8018    3.2187 C   0  0  1  0  0  0  0  0  0  0  0  0
   -2.9264    1.1982    0.3425 C   0  0  0  0  0  0  0  0  0  0  0  0
   -2.4165    1.3397    2.8507 C   0  0  2  0  0  0  0  0  0  0  0  0
   -1.5069    0.5107    3.7817 C   0  0  2  0  0  0  0  0  0  0  0  0
   -3.5048   -0.5291    3.4516 C   0  0  0  0  0  0  0  0  0  0  0  0
   -4.2033    0.7086    0.3904 O   0  0  0  0  0  0  0  0  0  0  0  0
   -2.5489    1.8977   -0.6271 O   0  0  0  0  0  0  0  0  0  0  0  0
   -3.6958    0.7720    3.2389 C   0  0  0  0  0  0  0  0  0  0  0  0
   -5.2432    0.8679   -0.5753 C   0  0  0  0  0  0  0  0  0  0  0  0
   -0.6513   -0.9092    1.6114 H   0  0  0  0  0  0  0  0  0  0  0  0
   -3.6090   -3.9859   -0.2230 H   0  0  0  0  0  0  0  0  0  0  0  0
   -4.9158   -3.8374    0.9758 H   0  0  0  0  0  0  0  0  0  0  0  0
   -4.7862   -2.6506   -0.3390 H   0  0  0  0  0  0  0  0  0  0  0  0
   -1.0029    1.3137    1.1981 H   0  0  0  0  0  0  0  0  0  0  0  0
   -1.7338   -1.7011    3.7199 H   0  0  0  0  0  0  0  0  0  0  0  0
   -2.3450    2.4198    3.0048 H   0  0  0  0  0  0  0  0  0  0  0  0
   -0.4370    0.6411    3.5832 H   0  0  0  0  0  0  0  0  0  0  0  0
   -1.6854    0.6749    4.8553 H   0  0  0  0  0  0  0  0  0  0  0  0
   -4.1979   -1.1926    3.7053 H   0  0  0  0  0  0  0  0  0  0  0  0
   -4.5606    1.2561    3.3037 H   0  0  0  0  0  0  0  0  0  0  0  0
   -5.4880    1.9245   -0.7010 H   0  0  0  0  0  0  0  0  0  0  0  0
   -6.1270    0.3370   -0.2178 H   0  0  0  0  0  0  0  0  0  0  0  0
   -4.9382    0.4431   -1.5345 H   0  0  0  0  0  0  0  0  0  0  0  0
  1  2  1  0  0  0  0 
  1  3  2  0  0  0  0 
  2  5  1  0  0  0  0 
  4  1  1  0  0  0  0 
  6  4  1  0  0  0  0 
  4  7  1  0  0  0  0 
  6  8  1  0  0  0  0 
  9  6  1  0  0  0  0 
  7 10  1  0  0  0  0 
  7 11  1  0  0  0  0 
  8 12  1  0  0  0  0 
  8 13  2  0  0  0  0 
  9 10  1  0  0  0  0 
  9 14  1  0  0  0  0 
 11 14  2  0  0  0  0 
 12 15  1  0  0  0  0 
  4 16  1  0  0  0  0 
  5 17  1  0  0  0  0 
  5 18  1  0  0  0  0 
  5 19  1  0  0  0  0 
  6 20  1  0  0  0  0 
  7 21  1  0  0  0  0 
  9 22  1  0  0  0  0 
 10 23  1  0  0  0  0 
 10 24  1  0  0  0  0 
 11 25  1  0  0  0  0 
 14 26  1  0  0  0  0 
 15 27  1  0  0  0  0 
 15 28  1  0  0  0  0 
 15 29  1  0  0  0  0 
M  END
> <cdk:Title>
dimethylcarbate

> <Conformer>
1

> <SuperDrugID>
SD003752

$$$$
