dodecanoic acid
  CDK     0628171802

 38 37  0  0  0  0  0  0  0  0999 V2000
    1.4167    0.5711   -0.4598 C   0  0  1  0  0  0  0  0  0  0  0  0
    2.0653    1.4775   -1.5446 C   0  0  1  0  0  0  0  0  0  0  0  0
    0.8980    1.3947    0.7515 C   0  0  2  0  0  0  0  0  0  0  0  0
    2.6138    0.7058   -2.7736 C   0  0  1  0  0  0  0  0  0  0  0  0
    0.2273    0.5274    1.8492 C   0  0  1  0  0  0  0  0  0  0  0  0
    3.2428    1.6505   -3.8355 C   0  0  1  0  0  0  0  0  0  0  0  0
   -0.1328    1.3348    3.0318 C   0  0  0  0  0  0  0  0  0  0  0  0
    3.7816    0.8673   -5.0587 C   0  0  1  0  0  0  0  0  0  0  0  0
    0.8418    1.8632    3.8101 O   0  0  0  0  0  0  0  0  0  0  0  0
   -1.3267    1.5384    3.3490 O   0  0  0  0  0  0  0  0  0  0  0  0
    4.4147    1.7806   -6.1411 C   0  0  1  0  0  0  0  0  0  0  0  0
    4.9463    0.9727   -7.3577 C   0  0  2  0  0  0  0  0  0  0  0  0
    5.5818    1.8763   -8.4472 C   0  0  2  0  0  0  0  0  0  0  0  0
    6.1112    1.0749   -9.6577 C   0  0  0  0  0  0  0  0  0  0  0  0
    0.5864    0.0184   -0.9080 H   0  0  0  0  0  0  0  0  0  0  0  0
    2.1560   -0.1546   -0.1103 H   0  0  0  0  0  0  0  0  0  0  0  0
    1.3175    2.1954   -1.8934 H   0  0  0  0  0  0  0  0  0  0  0  0
    2.8871    2.0368   -1.0905 H   0  0  0  0  0  0  0  0  0  0  0  0
    0.1710    2.1298    0.3968 H   0  0  0  0  0  0  0  0  0  0  0  0
    1.7434    1.9356    1.1882 H   0  0  0  0  0  0  0  0  0  0  0  0
    3.3715   -0.0076   -2.4383 H   0  0  0  0  0  0  0  0  0  0  0  0
    1.7978    0.1439   -3.2365 H   0  0  0  0  0  0  0  0  0  0  0  0
   -0.6656    0.0467    1.4421 H   0  0  0  0  0  0  0  0  0  0  0  0
    0.9118   -0.2620    2.1699 H   0  0  0  0  0  0  0  0  0  0  0  0
    2.4887    2.3681   -4.1715 H   0  0  0  0  0  0  0  0  0  0  0  0
    4.0627    2.2111   -3.3773 H   0  0  0  0  0  0  0  0  0  0  0  0
    4.5343    0.1526   -4.7155 H   0  0  0  0  0  0  0  0  0  0  0  0
    2.9582    0.3059   -5.5084 H   0  0  0  0  0  0  0  0  0  0  0  0
    0.6051    2.4004    4.5946 H   0  0  0  0  0  0  0  0  0  0  0  0
    3.6643    2.4959   -6.4887 H   0  0  0  0  0  0  0  0  0  0  0  0
    5.2413    2.3415   -5.6967 H   0  0  0  0  0  0  0  0  0  0  0  0
    4.1192    0.4115   -7.8007 H   0  0  0  0  0  0  0  0  0  0  0  0
    5.6957    0.2570   -7.0092 H   0  0  0  0  0  0  0  0  0  0  0  0
    6.4133    2.4383   -8.0132 H   0  0  0  0  0  0  0  0  0  0  0  0
    4.8369    2.5925   -8.8047 H   0  0  0  0  0  0  0  0  0  0  0  0
    5.2985    0.5233  -10.1351 H   0  0  0  0  0  0  0  0  0  0  0  0
    6.8811    0.3683   -9.3404 H   0  0  0  0  0  0  0  0  0  0  0  0
    6.5460    1.7568  -10.3906 H   0  0  0  0  0  0  0  0  0  0  0  0
  1  2  1  0  0  0  0 
  1  3  1  0  0  0  0 
  2  4  1  0  0  0  0 
  3  5  1  0  0  0  0 
  4  6  1  0  0  0  0 
  5  7  1  0  0  0  0 
  6  8  1  0  0  0  0 
  7  9  1  0  0  0  0 
  7 10  2  0  0  0  0 
  8 11  1  0  0  0  0 
 11 12  1  0  0  0  0 
 12 13  1  0  0  0  0 
 13 14  1  0  0  0  0 
  1 15  1  0  0  0  0 
  1 16  1  0  0  0  0 
  2 17  1  0  0  0  0 
  2 18  1  0  0  0  0 
  3 19  1  0  0  0  0 
  3 20  1  0  0  0  0 
  4 21  1  0  0  0  0 
  4 22  1  0  0  0  0 
  5 23  1  0  0  0  0 
  5 24  1  0  0  0  0 
  6 25  1  0  0  0  0 
  6 26  1  0  0  0  0 
  8 27  1  0  0  0  0 
  8 28  1  0  0  0  0 
  9 29  1  0  0  0  0 
 11 30  1  0  0  0  0 
 11 31  1  0  0  0  0 
 12 32  1  0  0  0  0 
 12 33  1  0  0  0  0 
 13 34  1  0  0  0  0 
 13 35  1  0  0  0  0 
 14 36  1  0  0  0  0 
 14 37  1  0  0  0  0 
 14 38  1  0  0  0  0 
M  END
> <cdk:Title>
dodecanoic acid

> <Conformer>
1

> <SuperDrugID>
SD003679

$$$$
