guaiazulen
  CDK     0628171801

 33 34  0  0  0  0  0  0  0  0999 V2000
    4.4705   -3.2432   -0.3312 C   0  0  0  0  0  0  0  0  0  0  0  0
    4.5746   -1.9079    0.3006 C   0  0  0  0  0  0  0  0  0  0  0  0
    3.6581   -0.8375    0.2331 C   0  0  0  0  0  0  0  0  0  0  0  0
    5.6432   -1.5098    1.0889 C   0  0  0  0  0  0  0  0  0  0  0  0
    4.1599    0.2196    1.0159 C   0  0  0  0  0  0  0  0  0  0  0  0
    2.4671   -0.9083   -0.5140 C   0  0  0  0  0  0  0  0  0  0  0  0
    5.3898   -0.2239    1.5211 C   0  0  0  0  0  0  0  0  0  0  0  0
    3.5989    1.4904    1.2941 C   0  0  0  0  0  0  0  0  0  0  0  0
    1.4435    0.0507   -0.6774 C   0  0  0  0  0  0  0  0  0  0  0  0
    4.3349    2.4194    2.2127 C   0  0  0  0  0  0  0  0  0  0  0  0
    2.3677    1.9462    0.7789 C   0  0  0  0  0  0  0  0  0  0  0  0
    0.2632   -0.3194   -1.5547 C   0  0  1  0  0  0  0  0  0  0  0  0
    1.4428    1.3266   -0.0743 C   0  0  0  0  0  0  0  0  0  0  0  0
   -1.0761   -0.3703   -0.7656 C   0  0  0  0  0  0  0  0  0  0  0  0
    0.1489    0.5818   -2.8167 C   0  0  0  0  0  0  0  0  0  0  0  0
    5.3163   -3.8810   -0.0664 H   0  0  0  0  0  0  0  0  0  0  0  0
    3.5574   -3.7401    0.0019 H   0  0  0  0  0  0  0  0  0  0  0  0
    4.4474   -3.1327   -1.4169 H   0  0  0  0  0  0  0  0  0  0  0  0
    6.4727   -2.0595    1.3174 H   0  0  0  0  0  0  0  0  0  0  0  0
    2.3295   -1.7882   -1.0128 H   0  0  0  0  0  0  0  0  0  0  0  0
    6.0231    0.3020    2.1230 H   0  0  0  0  0  0  0  0  0  0  0  0
    5.3327    2.6247    1.8209 H   0  0  0  0  0  0  0  0  0  0  0  0
    4.4287    1.9578    3.1972 H   0  0  0  0  0  0  0  0  0  0  0  0
    3.8443    3.3840    2.3575 H   0  0  0  0  0  0  0  0  0  0  0  0
    2.0769    2.8857    1.0689 H   0  0  0  0  0  0  0  0  0  0  0  0
    0.3888   -1.3339   -1.9507 H   0  0  0  0  0  0  0  0  0  0  0  0
    0.6327    1.9184   -0.2776 H   0  0  0  0  0  0  0  0  0  0  0  0
   -1.8633   -0.7955   -1.3933 H   0  0  0  0  0  0  0  0  0  0  0  0
   -1.3947    0.6251   -0.4527 H   0  0  0  0  0  0  0  0  0  0  0  0
   -0.9697   -0.9991    0.1214 H   0  0  0  0  0  0  0  0  0  0  0  0
   -0.6117    0.1829   -3.4927 H   0  0  0  0  0  0  0  0  0  0  0  0
   -0.1332    1.6026   -2.5555 H   0  0  0  0  0  0  0  0  0  0  0  0
    1.1009    0.6076   -3.3520 H   0  0  0  0  0  0  0  0  0  0  0  0
  1  2  1  0  0  0  0 
  2  3  1  0  0  0  0 
  2  4  2  0  0  0  0 
  3  5  1  0  0  0  0 
  3  6  2  0  0  0  0 
  4  7  1  0  0  0  0 
  5  7  2  0  0  0  0 
  5  8  1  0  0  0  0 
  6  9  1  0  0  0  0 
  8 10  1  0  0  0  0 
  8 11  2  0  0  0  0 
  9 12  1  0  0  0  0 
  9 13  2  0  0  0  0 
 11 13  1  0  0  0  0 
 12 14  1  0  0  0  0 
 12 15  1  0  0  0  0 
  1 16  1  0  0  0  0 
  1 17  1  0  0  0  0 
  1 18  1  0  0  0  0 
  4 19  1  0  0  0  0 
  6 20  1  0  0  0  0 
  7 21  1  0  0  0  0 
 10 22  1  0  0  0  0 
 10 23  1  0  0  0  0 
 10 24  1  0  0  0  0 
 11 25  1  0  0  0  0 
 12 26  1  0  0  0  0 
 13 27  1  0  0  0  0 
 14 28  1  0  0  0  0 
 14 29  1  0  0  0  0 
 14 30  1  0  0  0  0 
 15 31  1  0  0  0  0 
 15 32  1  0  0  0  0 
 15 33  1  0  0  0  0 
M  END
> <cdk:Title>
guaiazulen

> <Conformer>
1

> <SuperDrugID>
SD002827

$$$$
