riodoxol
  CDK     0628171801

 14 14  0  0  0  0  0  0  0  0999 V2000
    1.2024   -0.6067    0.0566 O   0  0  0  0  0  0  0  0  0  0  0  0
    0.7268    0.4048    0.8263 C   0  0  0  0  0  0  0  0  0  0  0  0
    0.4571    0.2269    2.2027 C   0  0  0  0  0  0  0  0  0  0  0  0
    0.5023    1.6591    0.2238 C   0  0  0  0  0  0  0  0  0  0  0  0
    0.7502   -1.6078    3.0899 I   0  0  0  0  0  0  0  0  0  0  0  0
   -0.0254    1.3077    2.9726 C   0  0  0  0  0  0  0  0  0  0  0  0
    0.8795    1.9683   -1.7714 I   0  0  0  0  0  0  0  0  0  0  0  0
    0.0129    2.7298    0.9898 C   0  0  0  0  0  0  0  0  0  0  0  0
   -0.2663    1.1203    4.2957 O   0  0  0  0  0  0  0  0  0  0  0  0
   -0.2494    2.5606    2.3608 C   0  0  0  0  0  0  0  0  0  0  0  0
   -0.9617    4.1694    3.4203 I   0  0  0  0  0  0  0  0  0  0  0  0
    1.5244   -1.2926    0.6726 H   0  0  0  0  0  0  0  0  0  0  0  0
   -0.1463    3.6373    0.5480 H   0  0  0  0  0  0  0  0  0  0  0  0
   -0.3470    2.0125    4.6897 H   0  0  0  0  0  0  0  0  0  0  0  0
  1  2  1  0  0  0  0 
  2  3  2  0  0  0  0 
  2  4  1  0  0  0  0 
  3  5  1  0  0  0  0 
  3  6  1  0  0  0  0 
  4  7  1  0  0  0  0 
  4  8  2  0  0  0  0 
  6  9  1  0  0  0  0 
  6 10  2  0  0  0  0 
  8 10  1  0  0  0  0 
 10 11  1  0  0  0  0 
  1 12  1  0  0  0  0 
  8 13  1  0  0  0  0 
  9 14  1  0  0  0  0 
M  END
> <cdk:Title>
riodoxol

> <Conformer>
1

> <SuperDrugID>
SD003334

$$$$
