benzocaine
  CDK     0628171801

 23 23  0  0  0  0  0  0  0  0999 V2000
   -0.5025    2.3534   -8.1526 C   0  0  0  0  0  0  0  0  0  0  0  0
    0.4042    1.1295   -7.9299 C   0  0  1  0  0  0  0  0  0  0  0  0
    0.6546    0.9594   -6.5278 O   0  0  0  0  0  0  0  0  0  0  0  0
    1.4540    0.0153   -5.9433 C   0  0  0  0  0  0  0  0  0  0  0  0
    2.0787   -0.7848   -6.6817 O   0  0  0  0  0  0  0  0  0  0  0  0
    1.5891   -0.0366   -4.5261 C   0  0  0  0  0  0  0  0  0  0  0  0
    2.5118   -0.9164   -3.9084 C   0  0  0  0  0  0  0  0  0  0  0  0
    2.6772   -0.9378   -2.5119 C   0  0  0  0  0  0  0  0  0  0  0  0
    1.9159   -0.0811   -1.6957 C   0  0  0  0  0  0  0  0  0  0  0  0
    2.1014   -0.0872   -0.3619 N   0  0  0  0  0  0  0  0  0  0  0  0
    0.9694    0.7763   -2.2859 C   0  0  0  0  0  0  0  0  0  0  0  0
    0.8101    0.7969   -3.6847 C   0  0  0  0  0  0  0  0  0  0  0  0
   -1.4753    2.1887   -7.6857 H   0  0  0  0  0  0  0  0  0  0  0  0
   -0.6502    2.5258   -9.2212 H   0  0  0  0  0  0  0  0  0  0  0  0
   -0.0413    3.2408   -7.7149 H   0  0  0  0  0  0  0  0  0  0  0  0
   -0.0894    0.2403   -8.3307 H   0  0  0  0  0  0  0  0  0  0  0  0
    1.3513    1.2774   -8.4583 H   0  0  0  0  0  0  0  0  0  0  0  0
    3.0821   -1.5528   -4.4711 H   0  0  0  0  0  0  0  0  0  0  0  0
    3.3582   -1.5779   -2.0948 H   0  0  0  0  0  0  0  0  0  0  0  0
    2.7337   -0.7070    0.0365 H   0  0  0  0  0  0  0  0  0  0  0  0
    1.6083    0.5243    0.2078 H   0  0  0  0  0  0  0  0  0  0  0  0
    0.3937    1.3886   -1.7016 H   0  0  0  0  0  0  0  0  0  0  0  0
    0.1146    1.4306   -4.0811 H   0  0  0  0  0  0  0  0  0  0  0  0
  1  2  1  0  0  0  0 
  2  3  1  0  0  0  0 
  3  4  1  0  0  0  0 
  4  5  2  0  0  0  0 
  4  6  1  0  0  0  0 
  6  7  2  0  0  0  0 
  7  8  1  0  0  0  0 
  8  9  2  0  0  0  0 
  9 10  1  0  0  0  0 
  9 11  1  0  0  0  0 
 11 12  2  0  0  0  0 
  6 12  1  0  0  0  0 
  1 13  1  0  0  0  0 
  1 14  1  0  0  0  0 
  1 15  1  0  0  0  0 
  2 16  1  0  0  0  0 
  2 17  1  0  0  0  0 
  7 18  1  0  0  0  0 
  8 19  1  0  0  0  0 
 10 20  1  0  0  0  0 
 10 21  1  0  0  0  0 
 11 22  1  0  0  0  0 
 12 23  1  0  0  0  0 
M  END
> <cdk:Title>
benzocaine

> <Conformer>
1

> <SuperDrugID>
SD000272

$$$$
