nifurtimox
  CDK     0628171801

 32 33  0  0  0  0  0  0  0  0999 V2000
   -7.7319    5.1219   -4.4417 N   0  0  0  0  0  0  0  0  0  0  0  0
   -7.7652    6.4031   -4.5132 C   0  0  0  0  0  0  0  0  0  0  0  0
   -6.7668    4.2655   -4.3887 N   0  0  0  0  0  0  0  0  0  0  0  0
   -8.9723    7.0593   -4.5181 C   0  0  0  0  0  0  0  0  0  0  0  0
   -7.0994    2.8884   -4.0535 C   0  0  2  0  0  0  0  0  0  0  0  0
   -5.3588    4.6105   -4.4938 C   0  0  1  0  0  0  0  0  0  0  0  0
  -10.1866    6.4716   -4.3704 O   0  0  0  0  0  0  0  0  0  0  0  0
   -9.1584    8.4335   -4.6459 C   0  0  0  0  0  0  0  0  0  0  0  0
   -8.5411    2.4304   -4.4186 C   0  0  0  0  0  0  0  0  0  0  0  0
   -6.8193    2.6716   -2.5391 C   0  0  2  0  0  0  0  0  0  0  0  0
   -4.7270    4.6967   -3.0850 C   0  0  2  0  0  0  0  0  0  0  0  0
  -11.1466    7.4322   -4.3929 C   0  0  0  0  0  0  0  0  0  0  0  0
  -10.5209    8.6685   -4.5668 C   0  0  0  0  0  0  0  0  0  0  0  0
   -5.1034    3.1765   -2.1303 S   0  0  2  0  0  0  0  0  0  0  0  0
  -12.4424    7.1985   -4.2540 N   0  0  0  0  0  0  0  0  0  0  0  0
   -4.0869    2.0118   -2.5551 O   0  0  0  0  0  0  0  0  0  0  0  0
   -4.9848    3.4661   -0.5582 O   0  0  0  0  0  0  0  0  0  0  0  0
  -13.2374    8.0551   -4.2663 O   0  0  0  0  0  0  0  0  0  0  0  0
  -12.8608    6.0129   -4.0917 O   0  0  0  0  0  0  0  0  0  0  0  0
   -6.9310    6.9382   -4.5410 H   0  0  0  0  0  0  0  0  0  0  0  0
   -6.4411    2.2153   -4.6166 H   0  0  0  0  0  0  0  0  0  0  0  0
   -4.8236    3.8646   -5.0884 H   0  0  0  0  0  0  0  0  0  0  0  0
   -5.2065    5.5583   -5.0088 H   0  0  0  0  0  0  0  0  0  0  0  0
   -8.4347    9.1430   -4.7719 H   0  0  0  0  0  0  0  0  0  0  0  0
   -9.2860    2.9765   -3.8346 H   0  0  0  0  0  0  0  0  0  0  0  0
   -8.6596    1.3619   -4.2190 H   0  0  0  0  0  0  0  0  0  0  0  0
   -8.7286    2.6032   -5.4806 H   0  0  0  0  0  0  0  0  0  0  0  0
   -6.9533    1.6214   -2.2699 H   0  0  0  0  0  0  0  0  0  0  0  0
   -7.5068    3.2774   -1.9425 H   0  0  0  0  0  0  0  0  0  0  0  0
   -5.1477    5.5523   -2.5544 H   0  0  0  0  0  0  0  0  0  0  0  0
   -3.6448    4.8285   -3.1591 H   0  0  0  0  0  0  0  0  0  0  0  0
  -10.9781    9.5818   -4.6217 H   0  0  0  0  0  0  0  0  0  0  0  0
  1  2  2  0  0  0  0 
  1  3  1  0  0  0  0 
  2  4  1  0  0  0  0 
  5  3  1  0  0  0  0 
  3  6  1  0  0  0  0 
  4  7  1  0  0  0  0 
  4  8  2  0  0  0  0 
  5  9  1  0  0  0  0 
  5 10  1  0  0  0  0 
  6 11  1  0  0  0  0 
  7 12  1  0  0  0  0 
  8 13  1  0  0  0  0 
 10 14  1  0  0  0  0 
 11 14  1  0  0  0  0 
 12 13  2  0  0  0  0 
 12 15  1  0  0  0  0 
 14 16  2  0  0  0  0 
 14 17  2  0  0  0  0 
 15 18  2  0  0  0  0 
 15 19  1  0  0  0  0 
  2 20  1  0  0  0  0 
  5 21  1  0  0  0  0 
  6 22  1  0  0  0  0 
  6 23  1  0  0  0  0 
  8 24  1  0  0  0  0 
  9 25  1  0  0  0  0 
  9 26  1  0  0  0  0 
  9 27  1  0  0  0  0 
 10 28  1  0  0  0  0 
 10 29  1  0  0  0  0 
 11 30  1  0  0  0  0 
 11 31  1  0  0  0  0 
 13 32  1  0  0  0  0 
M  CHG  1  15   1
M  CHG  1  19  -1
M  END
> <cdk:Title>
nifurtimox

> <Conformer>
1

> <SuperDrugID>
SD001724

$$$$
