sulbenicillin
  CDK     0628171801

 45 47  0  0  0  0  0  0  0  0999 V2000
   -3.8796    1.0137   -1.0944 C   0  0  0  0  0  0  0  0  0  0  0  0
   -4.3457    1.6021   -2.2205 O   0  0  0  0  0  0  0  0  0  0  0  0
   -4.0048   -0.2274   -0.9883 O   0  0  0  0  0  0  0  0  0  0  0  0
   -3.2179    1.8274   -0.0439 C   0  0  2  0  0  0  0  0  0  0  0  0
   -1.9072    1.3242    0.1692 N   0  0  0  0  0  0  0  0  0  0  0  0
   -3.8141    1.7819    1.4163 C   0  0  2  0  0  0  0  0  0  0  0  0
   -1.5756    0.2083    0.9642 C   0  0  2  0  0  0  0  0  0  0  0  0
   -0.6799    1.8247    0.0853 C   0  0  0  0  0  0  0  0  0  0  0  0
   -2.8221    0.4838    2.2663 S   0  0  0  0  0  0  0  0  0  0  0  0
   -0.1319    0.8039    0.9793 C   0  0  1  0  0  0  0  0  0  0  0  0
   -0.2051    2.8635   -0.4251 O   0  0  0  0  0  0  0  0  0  0  0  0
    0.2749    1.3285    2.2398 N   0  0  0  0  0  0  0  0  0  0  0  0
    1.4850    1.8940    2.4916 C   0  0  0  0  0  0  0  0  0  0  0  0
    1.7469    2.4980    3.8234 C   0  0  2  0  0  0  0  0  0  0  0  0
    2.3673    1.9294    1.5991 O   0  0  0  0  0  0  0  0  0  0  0  0
    2.2604    4.2501    3.6404 S   0  0  1  0  0  0  0  0  0  0  0  0
    2.7018    1.6998    4.6584 C   0  0  0  0  0  0  0  0  0  0  0  0
    1.2070    5.0184    2.7072 O   0  0  0  0  0  0  0  0  0  0  0  0
    2.3233    4.9679    5.0708 O   0  0  0  0  0  0  0  0  0  0  0  0
    3.7958    4.3613    2.8971 O   0  0  0  0  0  0  0  0  0  0  0  0
    2.3236    1.2579    5.9520 C   0  0  0  0  0  0  0  0  0  0  0  0
    3.9941    1.3455    4.1946 C   0  0  0  0  0  0  0  0  0  0  0  0
    3.1826    0.4654    6.7342 C   0  0  0  0  0  0  0  0  0  0  0  0
    4.8553    0.5480    4.9726 C   0  0  0  0  0  0  0  0  0  0  0  0
    4.4460    0.1033    6.2411 C   0  0  0  0  0  0  0  0  0  0  0  0
   -1.6904   -0.7343    0.4197 H   0  0  0  0  0  0  0  0  0  0  0  0
   -5.3290    1.4306    1.5034 C   0  0  0  0  0  0  0  0  0  0  0  0
   -3.5519    3.1241    2.1706 C   0  0  0  0  0  0  0  0  0  0  0  0
   -4.7586    1.0591   -2.9251 H   0  0  0  0  0  0  0  0  0  0  0  0
   -3.1671    2.8624   -0.3973 H   0  0  0  0  0  0  0  0  0  0  0  0
    0.6014    0.1540    0.4942 H   0  0  0  0  0  0  0  0  0  0  0  0
   -0.3738    1.3092    2.9607 H   0  0  0  0  0  0  0  0  0  0  0  0
    0.7872    2.5576    4.3489 H   0  0  0  0  0  0  0  0  0  0  0  0
    3.7243    5.1402    2.3062 H   0  0  0  0  0  0  0  0  0  0  0  0
    1.4123    1.5066    6.3393 H   0  0  0  0  0  0  0  0  0  0  0  0
    4.3184    1.6555    3.2788 H   0  0  0  0  0  0  0  0  0  0  0  0
    2.8858    0.1486    7.6596 H   0  0  0  0  0  0  0  0  0  0  0  0
    5.7764    0.2880    4.6136 H   0  0  0  0  0  0  0  0  0  0  0  0
    5.0640   -0.4825    6.8042 H   0  0  0  0  0  0  0  0  0  0  0  0
   -5.6683    1.4345    2.5417 H   0  0  0  0  0  0  0  0  0  0  0  0
   -5.9168    2.1610    0.9452 H   0  0  0  0  0  0  0  0  0  0  0  0
   -5.5299    0.4400    1.0937 H   0  0  0  0  0  0  0  0  0  0  0  0
   -3.7982    3.0301    3.2322 H   0  0  0  0  0  0  0  0  0  0  0  0
   -4.1642    3.9247    1.7495 H   0  0  0  0  0  0  0  0  0  0  0  0
   -2.5048    3.4242    2.0904 H   0  0  0  0  0  0  0  0  0  0  0  0
  1  2  1  0  0  0  0 
  1  3  2  0  0  0  0 
  4  1  1  0  0  0  0 
  4  5  1  0  0  0  0 
  4  6  1  0  0  0  0 
  7  5  1  0  0  0  0 
  5  8  1  0  0  0  0 
  6  9  1  0  0  0  0 
  7  9  1  0  0  0  0 
 10  7  1  0  0  0  0 
  7 26  1  0  0  0  0 
 10  8  1  0  0  0  0 
  8 11  2  0  0  0  0 
 10 12  1  0  0  0  0 
 12 13  1  0  0  0  0 
 14 13  1  0  0  0  0 
 13 15  2  0  0  0  0 
 14 16  1  0  0  0  0 
 14 17  1  0  0  0  0 
 16 18  2  0  0  0  0 
 16 19  2  0  0  0  0 
 16 20  1  0  0  0  0 
 17 21  2  0  0  0  0 
 17 22  1  0  0  0  0 
 21 23  1  0  0  0  0 
 22 24  2  0  0  0  0 
 23 25  2  0  0  0  0 
 24 25  1  0  0  0  0 
  6 27  1  0  0  0  0 
  6 28  1  0  0  0  0 
  2 29  1  0  0  0  0 
  4 30  1  0  0  0  0 
 10 31  1  0  0  0  0 
 12 32  1  0  0  0  0 
 14 33  1  0  0  0  0 
 20 34  1  0  0  0  0 
 21 35  1  0  0  0  0 
 22 36  1  0  0  0  0 
 23 37  1  0  0  0  0 
 24 38  1  0  0  0  0 
 25 39  1  0  0  0  0 
 27 40  1  0  0  0  0 
 27 41  1  0  0  0  0 
 27 42  1  0  0  0  0 
 28 43  1  0  0  0  0 
 28 44  1  0  0  0  0 
 28 45  1  0  0  0  0 
M  END
> <cdk:Title>
sulbenicillin

> <Conformer>
1

> <SuperDrugID>
SD003339

$$$$
