ibacitabine
  CDK     0628171801

 29 30  0  0  0  0  0  0  0  0999 V2000
    6.2831   -0.1462   -0.8677 O   0  0  0  0  0  0  0  0  0  0  0  0
    6.4753   -1.3804   -0.7595 C   0  0  0  0  0  0  0  0  0  0  0  0
    5.5579   -2.2363   -0.1952 N   0  0  0  0  0  0  0  0  0  0  0  0
    7.6551   -1.8486   -1.2357 N   0  0  0  0  0  0  0  0  0  0  0  0
    4.3128   -1.7314    0.3597 C   0  0  2  0  0  0  0  0  0  0  0  0
    5.8371   -3.5807   -0.1860 C   0  0  0  0  0  0  0  0  0  0  0  0
    7.9729   -3.1650   -1.1999 C   0  0  0  0  0  0  0  0  0  0  0  0
    3.7494   -2.6084    1.3587 O   0  0  0  0  0  0  0  0  0  0  0  0
    3.2351   -1.5118   -0.7299 C   0  0  1  0  0  0  0  0  0  0  0  0
    7.0523   -4.0866   -0.6737 C   0  0  0  0  0  0  0  0  0  0  0  0
    9.1667   -3.5541   -1.6775 N   0  0  0  0  0  0  0  0  0  0  0  0
    2.3748   -2.8603    1.0396 C   0  0  1  0  0  0  0  0  0  0  0  0
    2.2498   -2.6564   -0.4839 C   0  0  1  0  0  0  0  0  0  0  0  0
    7.4251   -6.1072   -0.6058 I   0  0  0  0  0  0  0  0  0  0  0  0
    1.9369   -4.2616    1.5300 C   0  0  2  0  0  0  0  0  0  0  0  0
    0.9237   -2.3268   -0.8863 O   0  0  0  0  0  0  0  0  0  0  0  0
    2.6917   -5.2971    0.9075 O   0  0  0  0  0  0  0  0  0  0  0  0
    4.5051   -0.7842    0.8781 H   0  0  0  0  0  0  0  0  0  0  0  0
    5.1624   -4.2557    0.1772 H   0  0  0  0  0  0  0  0  0  0  0  0
    2.7417   -0.5468   -0.5805 H   0  0  0  0  0  0  0  0  0  0  0  0
    3.6387   -1.5511   -1.7452 H   0  0  0  0  0  0  0  0  0  0  0  0
    9.7866   -2.8955   -2.0262 H   0  0  0  0  0  0  0  0  0  0  0  0
    9.4199   -4.4891   -1.6615 H   0  0  0  0  0  0  0  0  0  0  0  0
    1.7709   -2.1083    1.5593 H   0  0  0  0  0  0  0  0  0  0  0  0
    2.5796   -3.5440   -1.0333 H   0  0  0  0  0  0  0  0  0  0  0  0
    0.8801   -4.4110    1.3035 H   0  0  0  0  0  0  0  0  0  0  0  0
    2.0753   -4.3334    2.6110 H   0  0  0  0  0  0  0  0  0  0  0  0
    0.4005   -3.1364   -0.7013 H   0  0  0  0  0  0  0  0  0  0  0  0
    2.3324   -6.1329    1.2728 H   0  0  0  0  0  0  0  0  0  0  0  0
  1  2  2  0  0  0  0 
  2  3  1  0  0  0  0 
  2  4  1  0  0  0  0 
  3  6  1  0  0  0  0 
  4  7  2  0  0  0  0 
  5  3  1  0  0  0  0 
  5  8  1  0  0  0  0 
  5  9  1  0  0  0  0 
  6 10  2  0  0  0  0 
  7 10  1  0  0  0  0 
  7 11  1  0  0  0  0 
 12  8  1  0  0  0  0 
 13  9  1  0  0  0  0 
 10 14  1  0  0  0  0 
 13 12  1  0  0  0  0 
 12 15  1  0  0  0  0 
 13 16  1  0  0  0  0 
 15 17  1  0  0  0  0 
  5 18  1  0  0  0  0 
  6 19  1  0  0  0  0 
  9 20  1  0  0  0  0 
  9 21  1  0  0  0  0 
 11 22  1  0  0  0  0 
 11 23  1  0  0  0  0 
 12 24  1  0  0  0  0 
 13 25  1  0  0  0  0 
 15 26  1  0  0  0  0 
 15 27  1  0  0  0  0 
 16 28  1  0  0  0  0 
 17 29  1  0  0  0  0 
M  END
> <cdk:Title>
ibacitabine

> <Conformer>
1

> <SuperDrugID>
SD003629

$$$$
