isopropanol
  CDK     0628171801

 12 11  0  0  0  0  0  0  0  0999 V2000
    0.0539    0.2545   -0.0074 C   0  0  0  0  0  0  0  0  0  0  0  0
    1.3117   -0.6453   -0.0409 C   0  0  2  0  0  0  0  0  0  0  0  0
    2.1220   -0.5807    1.2747 C   0  0  0  0  0  0  0  0  0  0  0  0
    2.1498   -0.2549   -1.1279 O   0  0  0  0  0  0  0  0  0  0  0  0
   -0.6057   -0.0485    0.8075 H   0  0  0  0  0  0  0  0  0  0  0  0
    0.3348    1.3004    0.1336 H   0  0  0  0  0  0  0  0  0  0  0  0
   -0.4937    0.1653   -0.9469 H   0  0  0  0  0  0  0  0  0  0  0  0
    1.0001   -1.6798   -0.2079 H   0  0  0  0  0  0  0  0  0  0  0  0
    2.9903   -1.2389    1.2128 H   0  0  0  0  0  0  0  0  0  0  0  0
    1.5052   -0.9020    2.1162 H   0  0  0  0  0  0  0  0  0  0  0  0
    2.4705    0.4374    1.4601 H   0  0  0  0  0  0  0  0  0  0  0  0
    1.5951   -0.3648   -1.9287 H   0  0  0  0  0  0  0  0  0  0  0  0
  1  2  1  0  0  0  0 
  2  3  1  0  0  0  0 
  2  4  1  0  0  0  0 
  1  5  1  0  0  0  0 
  1  6  1  0  0  0  0 
  1  7  1  0  0  0  0 
  2  8  1  0  0  0  0 
  3  9  1  0  0  0  0 
  3 10  1  0  0  0  0 
  3 11  1  0  0  0  0 
  4 12  1  0  0  0  0 
M  END
> <cdk:Title>
isopropanol

> <Conformer>
1

> <SuperDrugID>
SD003430

$$$$
