desomorphine
  CDK     0628171801

 41 45  0  0  0  0  0  0  0  0999 V2000
   -4.7106    1.3805   -4.9363 O   0  0  0  0  0  0  0  0  0  0  0  0
   -3.6413    0.8029   -4.3343 C   0  0  0  0  0  0  0  0  0  0  0  0
   -3.5926    0.6604   -2.9364 C   0  0  0  0  0  0  0  0  0  0  0  0
   -2.5594    0.3143   -5.1029 C   0  0  0  0  0  0  0  0  0  0  0  0
   -2.4821    0.0791   -2.3410 C   0  0  0  0  0  0  0  0  0  0  0  0
   -4.5474    0.9820   -2.0161 O   0  0  0  0  0  0  0  0  0  0  0  0
   -1.4671   -0.3361   -4.4805 C   0  0  0  0  0  0  0  0  0  0  0  0
   -2.6192    0.0808   -0.8895 C   0  0  1  0  0  0  0  0  0  0  0  0
   -1.4233   -0.4830   -3.0730 C   0  0  0  0  0  0  0  0  0  0  0  0
   -4.1819    0.1929   -0.8521 C   0  0  2  0  0  0  0  0  0  0  0  0
   -1.9721   -1.2055   -0.2744 C   0  0  2  0  0  0  0  0  0  0  0  0
   -1.8891    1.3350   -0.2911 C   0  0  1  0  0  0  0  0  0  0  0  0
   -0.3653   -1.2476   -2.3537 C   0  0  2  0  0  0  0  0  0  0  0  0
   -4.9462   -1.1729   -0.9055 C   0  0  1  0  0  0  0  0  0  0  0  0
   -0.4850   -1.2444   -0.7797 C   0  0  1  0  0  0  0  0  0  0  0  0
   -2.7926   -2.5016   -0.5270 C   0  0  1  0  0  0  0  0  0  0  0  0
   -0.3417    1.2696   -0.4467 C   0  0  1  0  0  0  0  0  0  0  0  0
   -4.2677   -2.3019   -0.0918 C   0  0  1  0  0  0  0  0  0  0  0  0
    0.2112   -0.0830   -0.1221 N   0  0  2  0  0  0  0  0  0  0  0  0
    1.7004   -0.1398   -0.0932 C   0  0  0  0  0  0  0  0  0  0  0  0
   -1.9517   -1.0919    0.8173 H   0  0  0  0  0  0  0  0  0  0  0  0
   -4.4979    0.7220    0.0513 H   0  0  0  0  0  0  0  0  0  0  0  0
   -0.0338   -2.1662   -0.3976 H   0  0  0  0  0  0  0  0  0  0  0  0
   -5.3002    1.6668   -4.2077 H   0  0  0  0  0  0  0  0  0  0  0  0
   -2.5718    0.4178   -6.1203 H   0  0  0  0  0  0  0  0  0  0  0  0
   -0.7106   -0.7109   -5.0556 H   0  0  0  0  0  0  0  0  0  0  0  0
   -2.2487    2.2592   -0.7532 H   0  0  0  0  0  0  0  0  0  0  0  0
   -2.1242    1.3968    0.7752 H   0  0  0  0  0  0  0  0  0  0  0  0
    0.6110   -0.8638   -2.6530 H   0  0  0  0  0  0  0  0  0  0  0  0
   -0.4218   -2.2840   -2.6962 H   0  0  0  0  0  0  0  0  0  0  0  0
   -5.9654   -1.0288   -0.5379 H   0  0  0  0  0  0  0  0  0  0  0  0
   -5.0264   -1.5141   -1.9416 H   0  0  0  0  0  0  0  0  0  0  0  0
   -2.7573   -2.7871   -1.5813 H   0  0  0  0  0  0  0  0  0  0  0  0
   -2.3591   -3.3206    0.0538 H   0  0  0  0  0  0  0  0  0  0  0  0
   -0.0683    1.5460   -1.4681 H   0  0  0  0  0  0  0  0  0  0  0  0
    0.0990    2.0123    0.2242 H   0  0  0  0  0  0  0  0  0  0  0  0
   -4.3117   -2.0608    0.9738 H   0  0  0  0  0  0  0  0  0  0  0  0
   -4.8154   -3.2356   -0.2445 H   0  0  0  0  0  0  0  0  0  0  0  0
    2.0482   -1.1366    0.1838 H   0  0  0  0  0  0  0  0  0  0  0  0
    2.1295    0.1203   -1.0627 H   0  0  0  0  0  0  0  0  0  0  0  0
    2.0831    0.5583    0.6543 H   0  0  0  0  0  0  0  0  0  0  0  0
  1  2  1  0  0  0  0 
  2  3  2  0  0  0  0 
  2  4  1  0  0  0  0 
  3  5  1  0  0  0  0 
  3  6  1  0  0  0  0 
  4  7  2  0  0  0  0 
  8  5  1  0  0  0  0 
  5  9  2  0  0  0  0 
 10  6  1  0  0  0  0 
  7  9  1  0  0  0  0 
  8 10  1  0  0  0  0 
 11  8  1  0  0  0  0 
  8 12  1  0  0  0  0 
  9 13  1  0  0  0  0 
 10 14  1  0  0  0  0 
 10 22  1  0  0  0  0 
 15 11  1  0  0  0  0 
 11 16  1  0  0  0  0 
 11 21  1  0  0  0  0 
 12 17  1  0  0  0  0 
 15 13  1  0  0  0  0 
 14 18  1  0  0  0  0 
 15 19  1  0  0  0  0 
 15 23  1  0  0  0  0 
 16 18  1  0  0  0  0 
 17 19  1  0  0  0  0 
 19 20  1  0  0  0  0 
  1 24  1  0  0  0  0 
  4 25  1  0  0  0  0 
  7 26  1  0  0  0  0 
 12 27  1  0  0  0  0 
 12 28  1  0  0  0  0 
 13 29  1  0  0  0  0 
 13 30  1  0  0  0  0 
 14 31  1  0  0  0  0 
 14 32  1  0  0  0  0 
 16 33  1  0  0  0  0 
 16 34  1  0  0  0  0 
 17 35  1  0  0  0  0 
 17 36  1  0  0  0  0 
 18 37  1  0  0  0  0 
 18 38  1  0  0  0  0 
 20 39  1  0  0  0  0 
 20 40  1  0  0  0  0 
 20 41  1  0  0  0  0 
M  END
> <cdk:Title>
desomorphine

> <Conformer>
1

> <SuperDrugID>
SD002717

$$$$
