phenazone
  CDK     0628171802

 26 27  0  0  0  0  0  0  0  0999 V2000
   -0.1174   -2.0449   -2.2172 C   0  0  0  0  0  0  0  0  0  0  0  0
   -0.7431   -2.1634   -0.9250 N   0  0  0  0  0  0  0  0  0  0  0  0
   -1.0684   -1.1849   -0.1077 N   0  0  0  0  0  0  0  0  0  0  0  0
   -1.1100   -3.3468   -0.3688 C   0  0  0  0  0  0  0  0  0  0  0  0
   -1.6618   -1.6962    0.9935 C   0  0  0  0  0  0  0  0  0  0  0  0
   -0.8286    0.1527   -0.2703 C   0  0  0  0  0  0  0  0  0  0  0  0
   -0.9275   -4.7006   -0.9275 C   0  0  0  0  0  0  0  0  0  0  0  0
   -1.6959   -3.0702    0.8577 C   0  0  0  0  0  0  0  0  0  0  0  0
   -2.0914   -1.0708    1.9910 O   0  0  0  0  0  0  0  0  0  0  0  0
   -1.8953    1.0540   -0.4862 C   0  0  0  0  0  0  0  0  0  0  0  0
    0.4904    0.6534   -0.1977 C   0  0  0  0  0  0  0  0  0  0  0  0
   -1.6492    2.4324   -0.6187 C   0  0  0  0  0  0  0  0  0  0  0  0
    0.7367    2.0330   -0.3313 C   0  0  0  0  0  0  0  0  0  0  0  0
   -0.3333    2.9221   -0.5410 C   0  0  0  0  0  0  0  0  0  0  0  0
    0.1246   -1.0124   -2.4676 H   0  0  0  0  0  0  0  0  0  0  0  0
    0.8113   -2.6197   -2.2359 H   0  0  0  0  0  0  0  0  0  0  0  0
   -0.7870   -2.4267   -2.9905 H   0  0  0  0  0  0  0  0  0  0  0  0
    0.1376   -4.8990   -1.0509 H   0  0  0  0  0  0  0  0  0  0  0  0
   -1.3508   -5.4617   -0.2693 H   0  0  0  0  0  0  0  0  0  0  0  0
   -1.4206   -4.7668   -1.8975 H   0  0  0  0  0  0  0  0  0  0  0  0
   -2.0678   -3.7429    1.5317 H   0  0  0  0  0  0  0  0  0  0  0  0
   -2.8569    0.7099   -0.5470 H   0  0  0  0  0  0  0  0  0  0  0  0
    1.2711    0.0151   -0.0348 H   0  0  0  0  0  0  0  0  0  0  0  0
   -2.4270    3.0785   -0.7701 H   0  0  0  0  0  0  0  0  0  0  0  0
    1.6917    2.3932   -0.2707 H   0  0  0  0  0  0  0  0  0  0  0  0
   -0.1556    3.9237   -0.6349 H   0  0  0  0  0  0  0  0  0  0  0  0
  1  2  1  0  0  0  0 
  2  3  1  0  0  0  0 
  2  4  1  0  0  0  0 
  3  5  1  0  0  0  0 
  3  6  1  0  0  0  0 
  4  7  1  0  0  0  0 
  4  8  2  0  0  0  0 
  5  8  1  0  0  0  0 
  5  9  2  0  0  0  0 
  6 10  2  0  0  0  0 
  6 11  1  0  0  0  0 
 10 12  1  0  0  0  0 
 11 13  2  0  0  0  0 
 12 14  2  0  0  0  0 
 13 14  1  0  0  0  0 
  1 15  1  0  0  0  0 
  1 16  1  0  0  0  0 
  1 17  1  0  0  0  0 
  7 18  1  0  0  0  0 
  7 19  1  0  0  0  0 
  7 20  1  0  0  0  0 
  8 21  1  0  0  0  0 
 10 22  1  0  0  0  0 
 11 23  1  0  0  0  0 
 12 24  1  0  0  0  0 
 13 25  1  0  0  0  0 
 14 26  1  0  0  0  0 
M  END
> <cdk:Title>
phenazone

> <Conformer>
1

> <SuperDrugID>
SD000764

$$$$
