fluprednidene acetate
  CDK     0628171801

 60 63  0  0  0  0  0  0  0  0999 V2000
   -2.1101   -2.8667   -0.3911 C   0  0  0  0  0  0  0  0  0  0  0  0
   -2.9842   -3.9952   -1.0779 C   0  0  2  0  0  0  0  0  0  0  0  0
   -3.6784   -3.5466   -2.4027 C   0  0  2  0  0  0  0  0  0  0  0  0
   -4.2721   -4.2935   -0.1992 C   0  0  2  0  0  0  0  0  0  0  0  0
   -2.0633   -5.2157   -1.4405 C   0  0  2  0  0  0  0  0  0  0  0  0
   -2.6871   -3.1161   -3.5387 C   0  0  1  0  0  0  0  0  0  0  0  0
   -4.7991   -2.6116   -1.9030 C   0  0  1  0  0  0  0  0  0  0  0  0
   -3.9778   -4.3739    1.2705 C   0  0  0  0  0  0  0  0  0  0  0  0
   -4.8553   -5.5717   -0.4965 O   0  0  0  0  0  0  0  0  0  0  0  0
   -5.2345   -3.2852   -0.6869 C   0  0  0  0  0  0  0  0  0  0  0  0
   -1.0607   -4.9376   -2.6151 C   0  0  1  0  0  0  0  0  0  0  0  0
   -1.7303   -4.3289   -3.9125 C   0  0  1  0  0  0  0  0  0  0  0  0
   -3.4363   -2.5846   -4.8000 C   0  0  1  0  0  0  0  0  0  0  0  0
   -4.4536   -3.4215    2.3046 C   0  0  2  0  0  0  0  0  0  0  0  0
   -3.2335   -5.3118    1.6469 O   0  0  0  0  0  0  0  0  0  0  0  0
   -6.4418   -3.0375   -0.1507 C   0  0  0  0  0  0  0  0  0  0  0  0
    0.0229   -4.1375   -2.1509 O   0  0  0  0  0  0  0  0  0  0  0  0
   -2.5424   -5.3592   -4.3774 F   0  0  0  0  0  0  0  0  0  0  0  0
   -0.7513   -3.9833   -5.1343 C   0  0  2  0  0  0  0  0  0  0  0  0
   -2.4760   -2.2997   -5.9825 C   0  0  2  0  0  0  0  0  0  0  0  0
   -3.5939   -3.4430    3.4555 O   0  0  0  0  0  0  0  0  0  0  0  0
    0.3494   -2.9007   -4.8217 C   0  0  0  0  0  0  0  0  0  0  0  0
   -1.6085   -3.4547   -6.2503 C   0  0  0  0  0  0  0  0  0  0  0  0
    0.0086   -5.1964   -5.5388 C   0  0  0  0  0  0  0  0  0  0  0  0
   -2.7602   -2.4579    3.9025 C   0  0  0  0  0  0  0  0  0  0  0  0
   -1.6236   -4.0493   -7.4672 C   0  0  0  0  0  0  0  0  0  0  0  0
   -0.0497   -5.7315   -6.7689 C   0  0  0  0  0  0  0  0  0  0  0  0
   -1.9991   -2.6633    5.1418 C   0  0  0  0  0  0  0  0  0  0  0  0
   -2.6152   -1.3846    3.2717 O   0  0  0  0  0  0  0  0  0  0  0  0
   -0.8569   -5.1714   -7.7411 C   0  0  0  0  0  0  0  0  0  0  0  0
   -0.8966   -5.6935   -8.8800 O   0  0  0  0  0  0  0  0  0  0  0  0
   -1.5488   -3.2747    0.4532 H   0  0  0  0  0  0  0  0  0  0  0  0
   -2.7264   -2.0523   -0.0070 H   0  0  0  0  0  0  0  0  0  0  0  0
   -1.3858   -2.4203   -1.0651 H   0  0  0  0  0  0  0  0  0  0  0  0
   -4.2150   -4.4050   -2.8317 H   0  0  0  0  0  0  0  0  0  0  0  0
   -2.6884   -6.0616   -1.7331 H   0  0  0  0  0  0  0  0  0  0  0  0
   -1.5018   -5.5387   -0.5607 H   0  0  0  0  0  0  0  0  0  0  0  0
   -2.0906   -2.2788   -3.1772 H   0  0  0  0  0  0  0  0  0  0  0  0
   -4.4277   -1.6093   -1.6842 H   0  0  0  0  0  0  0  0  0  0  0  0
   -5.5993   -2.5463   -2.6463 H   0  0  0  0  0  0  0  0  0  0  0  0
   -5.0504   -5.5720   -1.4547 H   0  0  0  0  0  0  0  0  0  0  0  0
   -0.6146   -5.9022   -2.8726 H   0  0  0  0  0  0  0  0  0  0  0  0
   -4.1891   -3.3086   -5.1251 H   0  0  0  0  0  0  0  0  0  0  0  0
   -3.9567   -1.6561   -4.5517 H   0  0  0  0  0  0  0  0  0  0  0  0
   -5.4463   -3.7216    2.6452 H   0  0  0  0  0  0  0  0  0  0  0  0
   -4.5218   -2.4122    1.8891 H   0  0  0  0  0  0  0  0  0  0  0  0
   -6.7593   -3.5339    0.6446 H   0  0  0  0  0  0  0  0  0  0  0  0
   -7.0458   -2.3585   -0.5483 H   0  0  0  0  0  0  0  0  0  0  0  0
    0.4700   -4.6780   -1.4675 H   0  0  0  0  0  0  0  0  0  0  0  0
   -1.8570   -1.4295   -5.7505 H   0  0  0  0  0  0  0  0  0  0  0  0
   -3.0844   -2.0217   -6.8502 H   0  0  0  0  0  0  0  0  0  0  0  0
   -0.0618   -2.0467   -4.2864 H   0  0  0  0  0  0  0  0  0  0  0  0
    1.1640   -3.2986   -4.2126 H   0  0  0  0  0  0  0  0  0  0  0  0
    0.8007   -2.5268   -5.7454 H   0  0  0  0  0  0  0  0  0  0  0  0
    0.6052   -5.6390   -4.8765 H   0  0  0  0  0  0  0  0  0  0  0  0
   -2.2035   -3.6916   -8.1932 H   0  0  0  0  0  0  0  0  0  0  0  0
    0.4911   -6.5395   -6.9803 H   0  0  0  0  0  0  0  0  0  0  0  0
   -2.3207   -3.6475    5.6083 H   0  0  0  0  0  0  0  0  0  0  0  0
   -0.9008   -2.5272    4.8975 H   0  0  0  0  0  0  0  0  0  0  0  0
   -2.2757   -1.8726    5.8414 H   0  0  0  0  0  0  0  0  0  0  0  0
  2  1  1  0  0  0  0 
  3  2  1  0  0  0  0 
  2  4  1  0  0  0  0 
  2  5  1  0  0  0  0 
  6  3  1  0  0  0  0 
  3  7  1  0  0  0  0 
  4  8  1  0  0  0  0 
  4  9  1  0  0  0  0 
  4 10  1  0  0  0  0 
 11  5  1  0  0  0  0 
 12  6  1  0  0  0  0 
  6 13  1  0  0  0  0 
  7 10  1  0  0  0  0 
  8 14  1  0  0  0  0 
  8 15  2  0  0  0  0 
 10 16  2  0  0  0  0 
 12 11  1  0  0  0  0 
 11 17  1  0  0  0  0 
 12 18  1  0  0  0  0 
 12 19  1  0  0  0  0 
 13 20  1  0  0  0  0 
 14 21  1  0  0  0  0 
 19 22  1  0  0  0  0 
 19 23  1  0  0  0  0 
 19 24  1  0  0  0  0 
 20 23  1  0  0  0  0 
 21 25  1  0  0  0  0 
 23 26  2  0  0  0  0 
 24 27  2  0  0  0  0 
 25 28  1  0  0  0  0 
 25 29  2  0  0  0  0 
 26 30  1  0  0  0  0 
 27 30  1  0  0  0  0 
 30 31  2  0  0  0  0 
 32  1  1  0  0  0  0 
 33  1  1  0  0  0  0 
 34  1  1  0  0  0  0 
  3 35  1  0  0  0  0 
 36  5  1  0  0  0  0 
 37  5  1  0  0  0  0 
  6 38  1  0  0  0  0 
 39  7  1  0  0  0  0 
 40  7  1  0  0  0  0 
 41  9  1  0  0  0  0 
 11 42  1  0  0  0  0 
 43 13  1  0  0  0  0 
 44 13  1  0  0  0  0 
 45 14  1  0  0  0  0 
 46 14  1  0  0  0  0 
 47 16  1  0  0  0  0 
 48 16  1  0  0  0  0 
 49 17  1  0  0  0  0 
 50 20  1  0  0  0  0 
 51 20  1  0  0  0  0 
 52 22  1  0  0  0  0 
 53 22  1  0  0  0  0 
 54 22  1  0  0  0  0 
 55 24  1  0  0  0  0 
 56 26  1  0  0  0  0 
 57 27  1  0  0  0  0 
 58 28  1  0  0  0  0 
 59 28  1  0  0  0  0 
 60 28  1  0  0  0  0 
M  END
> <cdk:Title>
fluprednidene acetate

> <Conformer>
1

> <SuperDrugID>
SD002802

$$$$
