tiopronin
  CDK     0628171801

 19 18  0  0  0  0  0  0  0  0999 V2000
    3.0704    1.0627    1.0804 C   0  0  0  0  0  0  0  0  0  0  0  0
    2.0150    0.2313    0.3099 C   0  0  1  0  0  0  0  0  0  0  0  0
    2.6376   -1.4368   -0.0248 S   0  0  0  0  0  0  0  0  0  0  0  0
    0.7318    0.1579    1.0472 C   0  0  0  0  0  0  0  0  0  0  0  0
   -0.2956    0.6804    0.5527 O   0  0  0  0  0  0  0  0  0  0  0  0
    0.6936   -0.4719    2.2516 N   0  0  0  0  0  0  0  0  0  0  0  0
   -0.4441   -0.5758    3.1021 C   0  0  2  0  0  0  0  0  0  0  0  0
   -0.1183   -1.4610    4.2315 C   0  0  0  0  0  0  0  0  0  0  0  0
    0.0116   -0.9639    5.4827 O   0  0  0  0  0  0  0  0  0  0  0  0
    0.0564   -2.6872    4.0506 O   0  0  0  0  0  0  0  0  0  0  0  0
    3.3281    0.5878    2.0292 H   0  0  0  0  0  0  0  0  0  0  0  0
    2.6870    2.0652    1.2857 H   0  0  0  0  0  0  0  0  0  0  0  0
    3.9798    1.1612    0.4846 H   0  0  0  0  0  0  0  0  0  0  0  0
    1.8582    0.7106   -0.6615 H   0  0  0  0  0  0  0  0  0  0  0  0
    1.5496   -1.7849   -0.7661 H   0  0  0  0  0  0  0  0  0  0  0  0
    1.5219   -0.8674    2.5638 H   0  0  0  0  0  0  0  0  0  0  0  0
   -1.2981   -0.9871    2.5605 H   0  0  0  0  0  0  0  0  0  0  0  0
   -0.7100    0.4186    3.4685 H   0  0  0  0  0  0  0  0  0  0  0  0
    0.2462   -1.5526    6.2303 H   0  0  0  0  0  0  0  0  0  0  0  0
  2  1  1  0  0  0  0 
  2  3  1  0  0  0  0 
  2  4  1  0  0  0  0 
  4  5  2  0  0  0  0 
  4  6  1  0  0  0  0 
  6  7  1  0  0  0  0 
  7  8  1  0  0  0  0 
  8  9  1  0  0  0  0 
  8 10  2  0  0  0  0 
  1 11  1  0  0  0  0 
  1 12  1  0  0  0  0 
  1 13  1  0  0  0  0 
  2 14  1  0  0  0  0 
  3 15  1  0  0  0  0 
  6 16  1  0  0  0  0 
  7 17  1  0  0  0  0 
  7 18  1  0  0  0  0 
  9 19  1  0  0  0  0 
M  END
> <cdk:Title>
tiopronin

> <Conformer>
1

> <SuperDrugID>
SD002408

$$$$
