tuaminoheptane
  CDK     0628171801

 25 24  0  0  0  0  0  0  0  0999 V2000
   -1.3211   -4.9034    0.8393 C   0  0  0  0  0  0  0  0  0  0  0  0
   -1.3233   -3.4203    1.2718 C   0  0  2  0  0  0  0  0  0  0  0  0
   -0.9385   -2.4535    0.1213 C   0  0  2  0  0  0  0  0  0  0  0  0
   -0.9564   -0.9627    0.5573 C   0  0  1  0  0  0  0  0  0  0  0  0
   -0.6049    0.0118   -0.5998 C   0  0  2  0  0  0  0  0  0  0  0  0
   -0.6288    1.5158   -0.1937 C   0  0  1  0  0  0  0  0  0  0  0  0
   -0.2103    2.4395   -1.3633 C   0  0  0  0  0  0  0  0  0  0  0  0
   -1.9645    1.9199    0.2757 N   0  0  1  0  0  0  0  0  0  0  0  0
   -1.5968   -5.5346    1.6861 H   0  0  0  0  0  0  0  0  0  0  0  0
   -2.0415   -5.0663    0.0356 H   0  0  0  0  0  0  0  0  0  0  0  0
   -0.3291   -5.2001    0.4933 H   0  0  0  0  0  0  0  0  0  0  0  0
   -0.6196   -3.2985    2.1002 H   0  0  0  0  0  0  0  0  0  0  0  0
   -2.3225   -3.1681    1.6378 H   0  0  0  0  0  0  0  0  0  0  0  0
   -1.6406   -2.5940   -0.7060 H   0  0  0  0  0  0  0  0  0  0  0  0
    0.0633   -2.7080   -0.2358 H   0  0  0  0  0  0  0  0  0  0  0  0
   -1.9539   -0.7270    0.9370 H   0  0  0  0  0  0  0  0  0  0  0  0
   -0.2396   -0.8189    1.3704 H   0  0  0  0  0  0  0  0  0  0  0  0
   -1.3043   -0.1431   -1.4261 H   0  0  0  0  0  0  0  0  0  0  0  0
    0.3998   -0.2309   -0.9600 H   0  0  0  0  0  0  0  0  0  0  0  0
    0.0769    1.6709    0.6276 H   0  0  0  0  0  0  0  0  0  0  0  0
   -0.2101    3.4840   -1.0382 H   0  0  0  0  0  0  0  0  0  0  0  0
   -0.9004    2.3372   -2.2057 H   0  0  0  0  0  0  0  0  0  0  0  0
    0.7976    2.1862   -1.7019 H   0  0  0  0  0  0  0  0  0  0  0  0
   -2.1885    1.3407    1.0858 H   0  0  0  0  0  0  0  0  0  0  0  0
   -1.8841    2.8784    0.6212 H   0  0  0  0  0  0  0  0  0  0  0  0
  1  2  1  0  0  0  0 
  2  3  1  0  0  0  0 
  3  4  1  0  0  0  0 
  4  5  1  0  0  0  0 
  6  5  1  0  0  0  0 
  6  7  1  0  0  0  0 
  6  8  1  0  0  0  0 
  1  9  1  0  0  0  0 
  1 10  1  0  0  0  0 
  1 11  1  0  0  0  0 
  2 12  1  0  0  0  0 
  2 13  1  0  0  0  0 
  3 14  1  0  0  0  0 
  3 15  1  0  0  0  0 
  4 16  1  0  0  0  0 
  4 17  1  0  0  0  0 
  5 18  1  0  0  0  0 
  5 19  1  0  0  0  0 
  6 20  1  0  0  0  0 
  7 21  1  0  0  0  0 
  7 22  1  0  0  0  0 
  7 23  1  0  0  0  0 
  8 24  1  0  0  0  0 
  8 25  1  0  0  0  0 
M  END
> <cdk:Title>
tuaminoheptane

> <Conformer>
1

> <SuperDrugID>
SD003117

$$$$
