trichloroethylene
  CDK     0628171801

  6  5  0  0  0  0  0  0  0  0999 V2000
    1.6826   -0.1053    0.0000 Cl  0  0  0  0  0  0  0  0  0  0  0  0
    0.0219    0.0031    0.0000 C   0  0  0  0  0  0  0  0  0  0  0  0
   -0.6523    1.1623    0.0000 C   0  0  0  0  0  0  0  0  0  0  0  0
   -2.3156    1.1690    0.0000 Cl  0  0  0  0  0  0  0  0  0  0  0  0
    0.0792    2.6577    0.0000 Cl  0  0  0  0  0  0  0  0  0  0  0  0
   -0.4774   -0.8537    0.0000 H   0  0  0  0  0  0  0  0  0  0  0  0
  1  2  1  0  0  0  0 
  2  3  2  0  0  0  0 
  3  4  1  0  0  0  0 
  3  5  1  0  0  0  0 
  2  6  1  0  0  0  0 
M  END
> <cdk:Title>
trichloroethylene

> <Conformer>
1

> <SuperDrugID>
SD003108

$$$$
