ouabain
  CDK     0628171801

 85 90  0  0  0  0  0  0  0  0999 V2000
   -7.1996   60.9516   -2.0070 C   0  0  2  0  0  0  0  0  0  0  0  0
   -6.1147   60.6696   -1.1232 O   0  0  0  0  0  0  0  0  0  0  0  0
   -8.1200   62.1493   -1.5278 C   0  0  1  0  0  0  0  0  0  0  0  0
   -8.7338   61.9191   -0.0430 C   0  0  2  0  0  0  0  0  0  0  0  0
   -7.2673   63.5023   -1.6192 C   0  0  2  0  0  0  0  0  0  0  0  0
   -9.3456   62.2805   -2.5420 C   0  0  2  0  0  0  0  0  0  0  0  0
   -8.0664   62.7641    1.1085 C   0  0  2  0  0  0  0  0  0  0  0  0
   -8.8694   60.4273    0.4356 C   0  0  2  0  0  0  0  0  0  0  0  0
   -5.9514   63.3340   -1.0704 O   0  0  0  0  0  0  0  0  0  0  0  0
   -7.9293   64.6230   -0.7580 C   0  0  2  0  0  0  0  0  0  0  0  0
   -6.9867   64.0037   -3.0817 C   0  0  2  0  0  0  0  0  0  0  0  0
  -10.0686   61.0596   -2.6861 O   0  0  0  0  0  0  0  0  0  0  0  0
   -9.0109   62.7844   -3.9708 C   0  0  2  0  0  0  0  0  0  0  0  0
   -8.7325   62.5888    2.5396 C   0  0  2  0  0  0  0  0  0  0  0  0
   -7.8974   64.2849    0.7510 C   0  0  1  0  0  0  0  0  0  0  0  0
   -9.6229   59.6346   -0.4798 O   0  0  0  0  0  0  0  0  0  0  0  0
   -9.5887   60.2829    1.8010 C   0  0  1  0  0  0  0  0  0  0  0  0
   -8.2706   64.1413   -3.9423 C   0  0  2  0  0  0  0  0  0  0  0  0
   -7.8503   63.2286    3.4732 O   0  0  0  0  0  0  0  0  0  0  0  0
   -8.9559   61.1026    2.9915 C   0  0  1  0  0  0  0  0  0  0  0  0
  -10.1417   63.2333    2.7220 C   0  0  1  0  0  0  0  0  0  0  0  0
   -8.0488   64.5252   -5.3169 O   0  0  0  0  0  0  0  0  0  0  0  0
   -7.6239   60.3873    3.4208 C   0  0  0  0  0  0  0  0  0  0  0  0
  -10.0230   61.1865    4.1597 C   0  0  2  0  0  0  0  0  0  0  0  0
  -10.9883   62.3492    3.7677 C   0  0  2  0  0  0  0  0  0  0  0  0
   -7.3368   65.7511   -5.5978 C   0  0  1  0  0  0  0  0  0  0  0  0
   -9.5304   61.2937    5.5467 C   0  0  0  0  0  0  0  0  0  0  0  0
   -7.8103   66.2595   -6.9857 C   0  0  2  0  0  0  0  0  0  0  0  0
   -7.5576   66.7778   -4.5990 O   0  0  0  0  0  0  0  0  0  0  0  0
   -9.5191   60.1861    6.4843 C   0  0  2  0  0  0  0  0  0  0  0  0
   -9.0506   62.3804    6.1619 C   0  0  0  0  0  0  0  0  0  0  0  0
   -7.5335   65.2835   -7.9896 O   0  0  0  0  0  0  0  0  0  0  0  0
   -7.1531   67.6187   -7.3511 C   0  0  2  0  0  0  0  0  0  0  0  0
   -6.8833   68.0390   -4.8102 C   0  0  2  0  0  0  0  0  0  0  0  0
   -8.9725   60.7716    7.6652 O   0  0  0  0  0  0  0  0  0  0  0  0
   -8.7055   62.0718    7.4356 C   0  0  0  0  0  0  0  0  0  0  0  0
   -5.7847   67.4266   -7.7054 O   0  0  0  0  0  0  0  0  0  0  0  0
   -7.2759   68.6479   -6.1909 C   0  0  2  0  0  0  0  0  0  0  0  0
   -5.3540   67.9649   -4.5509 C   0  0  0  0  0  0  0  0  0  0  0  0
   -8.2204   62.8609    8.2761 O   0  0  0  0  0  0  0  0  0  0  0  0
   -8.6257   69.1130   -6.1305 O   0  0  0  0  0  0  0  0  0  0  0  0
   -7.0510   62.3636    1.1919 H   0  0  0  0  0  0  0  0  0  0  0  0
   -9.7610   62.2871   -0.0592 H   0  0  0  0  0  0  0  0  0  0  0  0
   -6.2762   65.4916   -5.6421 H   0  0  0  0  0  0  0  0  0  0  0  0
   -7.7681   60.0291   -2.1251 H   0  0  0  0  0  0  0  0  0  0  0  0
   -6.7594   61.1554   -2.9827 H   0  0  0  0  0  0  0  0  0  0  0  0
   -5.5981   59.9659   -1.5736 H   0  0  0  0  0  0  0  0  0  0  0  0
  -10.0705   62.9973   -2.1466 H   0  0  0  0  0  0  0  0  0  0  0  0
   -7.8831   59.9731    0.5203 H   0  0  0  0  0  0  0  0  0  0  0  0
   -5.5273   64.2172   -1.1376 H   0  0  0  0  0  0  0  0  0  0  0  0
   -8.9675   64.7725   -1.0609 H   0  0  0  0  0  0  0  0  0  0  0  0
   -7.4211   65.5806   -0.9068 H   0  0  0  0  0  0  0  0  0  0  0  0
   -6.3003   63.3242   -3.5919 H   0  0  0  0  0  0  0  0  0  0  0  0
   -6.4724   64.9665   -3.0367 H   0  0  0  0  0  0  0  0  0  0  0  0
  -10.8749   61.2872   -3.1965 H   0  0  0  0  0  0  0  0  0  0  0  0
   -9.9427   62.9087   -4.5319 H   0  0  0  0  0  0  0  0  0  0  0  0
   -8.4110   62.0414   -4.5020 H   0  0  0  0  0  0  0  0  0  0  0  0
   -8.6645   64.8972    1.2259 H   0  0  0  0  0  0  0  0  0  0  0  0
   -6.9391   64.6246    1.1575 H   0  0  0  0  0  0  0  0  0  0  0  0
   -9.5827   58.7195   -0.1280 H   0  0  0  0  0  0  0  0  0  0  0  0
  -10.6307   60.5801    1.6427 H   0  0  0  0  0  0  0  0  0  0  0  0
   -9.6115   59.2201    2.0679 H   0  0  0  0  0  0  0  0  0  0  0  0
   -8.9326   64.8850   -3.4909 H   0  0  0  0  0  0  0  0  0  0  0  0
   -7.8450   64.1798    3.2339 H   0  0  0  0  0  0  0  0  0  0  0  0
  -10.0776   64.2585    3.0903 H   0  0  0  0  0  0  0  0  0  0  0  0
  -10.6948   63.2562    1.7832 H   0  0  0  0  0  0  0  0  0  0  0  0
   -7.8106   59.3412    3.6711 H   0  0  0  0  0  0  0  0  0  0  0  0
   -7.1701   60.8617    4.2909 H   0  0  0  0  0  0  0  0  0  0  0  0
   -6.8844   60.4145    2.6208 H   0  0  0  0  0  0  0  0  0  0  0  0
  -10.6116   60.2600    4.1450 H   0  0  0  0  0  0  0  0  0  0  0  0
  -11.9286   61.8843    3.3581 H   0  0  0  0  0  0  0  0  0  0  0  0
  -11.3577   62.8784    4.6880 H   0  0  0  0  0  0  0  0  0  0  0  0
   -8.8950   66.3958   -6.9487 H   0  0  0  0  0  0  0  0  0  0  0  0
   -8.8856   59.3691    6.1348 H   0  0  0  0  0  0  0  0  0  0  0  0
  -10.5300   59.8201    6.6810 H   0  0  0  0  0  0  0  0  0  0  0  0
   -8.9648   63.2823    5.7637 H   0  0  0  0  0  0  0  0  0  0  0  0
   -7.9010   65.6554   -8.8196 H   0  0  0  0  0  0  0  0  0  0  0  0
   -7.6505   68.0214   -8.2375 H   0  0  0  0  0  0  0  0  0  0  0  0
   -7.2739   68.7053   -4.0360 H   0  0  0  0  0  0  0  0  0  0  0  0
   -5.4545   68.3207   -7.9389 H   0  0  0  0  0  0  0  0  0  0  0  0
   -6.6515   69.5199   -6.4079 H   0  0  0  0  0  0  0  0  0  0  0  0
   -4.8425   67.3658   -5.3029 H   0  0  0  0  0  0  0  0  0  0  0  0
   -4.9246   68.9688   -4.5622 H   0  0  0  0  0  0  0  0  0  0  0  0
   -5.1650   67.5208   -3.5723 H   0  0  0  0  0  0  0  0  0  0  0  0
   -8.6267   69.8015   -5.4313 H   0  0  0  0  0  0  0  0  0  0  0  0
  1  2  1  0  0  0  0 
  3  1  1  0  0  0  0 
  4  3  1  0  0  0  0 
  3  5  1  0  0  0  0 
  3  6  1  0  0  0  0 
  7  4  1  0  0  0  0 
  4  8  1  0  0  0  0 
  4 43  1  0  0  0  0 
  5  9  1  0  0  0  0 
  5 10  1  0  0  0  0 
  5 11  1  0  0  0  0 
  6 12  1  0  0  0  0 
  6 13  1  0  0  0  0 
 14  7  1  0  0  0  0 
  7 15  1  0  0  0  0 
  7 42  1  0  0  0  0 
  8 16  1  0  0  0  0 
  8 17  1  0  0  0  0 
 10 15  1  0  0  0  0 
 18 11  1  0  0  0  0 
 18 13  1  0  0  0  0 
 14 19  1  0  0  0  0 
 20 14  1  0  0  0  0 
 14 21  1  0  0  0  0 
 20 17  1  0  0  0  0 
 18 22  1  0  0  0  0 
 20 23  1  0  0  0  0 
 24 20  1  0  0  0  0 
 21 25  1  0  0  0  0 
 26 22  1  0  0  0  0 
 24 25  1  0  0  0  0 
 24 27  1  0  0  0  0 
 28 26  1  0  0  0  0 
 26 29  1  0  0  0  0 
 26 44  1  0  0  0  0 
 27 30  1  0  0  0  0 
 27 31  2  0  0  0  0 
 28 32  1  0  0  0  0 
 28 33  1  0  0  0  0 
 34 29  1  0  0  0  0 
 30 35  1  0  0  0  0 
 31 36  1  0  0  0  0 
 33 37  1  0  0  0  0 
 33 38  1  0  0  0  0 
 38 34  1  0  0  0  0 
 34 39  1  0  0  0  0 
 35 36  1  0  0  0  0 
 36 40  2  0  0  0  0 
 38 41  1  0  0  0  0 
  1 45  1  0  0  0  0 
  1 46  1  0  0  0  0 
  2 47  1  0  0  0  0 
  6 48  1  0  0  0  0 
  8 49  1  0  0  0  0 
  9 50  1  0  0  0  0 
 10 51  1  0  0  0  0 
 10 52  1  0  0  0  0 
 11 53  1  0  0  0  0 
 11 54  1  0  0  0  0 
 12 55  1  0  0  0  0 
 13 56  1  0  0  0  0 
 13 57  1  0  0  0  0 
 15 58  1  0  0  0  0 
 15 59  1  0  0  0  0 
 16 60  1  0  0  0  0 
 17 61  1  0  0  0  0 
 17 62  1  0  0  0  0 
 18 63  1  0  0  0  0 
 19 64  1  0  0  0  0 
 21 65  1  0  0  0  0 
 21 66  1  0  0  0  0 
 23 67  1  0  0  0  0 
 23 68  1  0  0  0  0 
 23 69  1  0  0  0  0 
 24 70  1  0  0  0  0 
 25 71  1  0  0  0  0 
 25 72  1  0  0  0  0 
 28 73  1  0  0  0  0 
 30 74  1  0  0  0  0 
 30 75  1  0  0  0  0 
 31 76  1  0  0  0  0 
 32 77  1  0  0  0  0 
 33 78  1  0  0  0  0 
 34 79  1  0  0  0  0 
 37 80  1  0  0  0  0 
 38 81  1  0  0  0  0 
 39 82  1  0  0  0  0 
 39 83  1  0  0  0  0 
 39 84  1  0  0  0  0 
 41 85  1  0  0  0  0 
M  END
> <cdk:Title>
ouabain

> <Conformer>
1

> <SuperDrugID>
SD001793

$$$$
