ibuprofen piconol
  CDK     0628171801

 45 46  0  0  0  0  0  0  0  0999 V2000
   -6.9349    2.3739   10.6409 C   0  0  1  0  0  0  0  0  0  0  0  0
   -6.7812    2.5469   12.1051 C   0  0  0  0  0  0  0  0  0  0  0  0
   -8.4355    2.2127   10.2723 C   0  0  0  0  0  0  0  0  0  0  0  0
   -6.2055    3.4933    9.9569 C   0  0  0  0  0  0  0  0  0  0  0  0
   -7.2506    3.6927   12.6771 O   0  0  0  0  0  0  0  0  0  0  0  0
   -6.2295    1.6602   12.7997 O   0  0  0  0  0  0  0  0  0  0  0  0
   -4.8526    3.3267    9.5731 C   0  0  0  0  0  0  0  0  0  0  0  0
   -6.7920    4.7674    9.7591 C   0  0  0  0  0  0  0  0  0  0  0  0
   -7.2177    4.0517   14.0634 C   0  0  2  0  0  0  0  0  0  0  0  0
   -4.0913    4.4124    9.0994 C   0  0  0  0  0  0  0  0  0  0  0  0
   -6.0325    5.8508    9.2836 C   0  0  0  0  0  0  0  0  0  0  0  0
   -7.8116    5.3908   14.2794 C   0  0  0  0  0  0  0  0  0  0  0  0
   -4.6584    5.7021    8.9933 C   0  0  0  0  0  0  0  0  0  0  0  0
   -8.1521    5.8495   15.5733 C   0  0  0  0  0  0  0  0  0  0  0  0
   -8.0418    6.2133   13.2171 N   0  0  0  0  0  0  0  0  0  0  0  0
   -3.8148    6.8841    8.6539 C   0  0  2  0  0  0  0  0  0  0  0  0
   -8.7344    7.1223   15.7286 C   0  0  0  0  0  0  0  0  0  0  0  0
   -8.5919    7.4480   13.3317 C   0  0  0  0  0  0  0  0  0  0  0  0
   -3.2968    6.9598    7.1850 C   0  0  1  0  0  0  0  0  0  0  0  0
   -8.9585    7.9314   14.6000 C   0  0  0  0  0  0  0  0  0  0  0  0
   -4.4527    7.0905    6.1575 C   0  0  0  0  0  0  0  0  0  0  0  0
   -2.2900    8.1363    7.0296 C   0  0  0  0  0  0  0  0  0  0  0  0
   -6.4708    1.4243   10.3544 H   0  0  0  0  0  0  0  0  0  0  0  0
   -8.5500    2.1107    9.1919 H   0  0  0  0  0  0  0  0  0  0  0  0
   -9.0307    3.0620   10.6131 H   0  0  0  0  0  0  0  0  0  0  0  0
   -8.8401    1.3133   10.7428 H   0  0  0  0  0  0  0  0  0  0  0  0
   -4.3998    2.4139    9.6666 H   0  0  0  0  0  0  0  0  0  0  0  0
   -7.7759    4.9305    9.9819 H   0  0  0  0  0  0  0  0  0  0  0  0
   -6.1810    4.0646   14.4091 H   0  0  0  0  0  0  0  0  0  0  0  0
   -7.7807    3.3053   14.6318 H   0  0  0  0  0  0  0  0  0  0  0  0
   -3.1089    4.2606    8.8593 H   0  0  0  0  0  0  0  0  0  0  0  0
   -6.4894    6.7582    9.1703 H   0  0  0  0  0  0  0  0  0  0  0  0
   -7.9881    5.2665   16.3961 H   0  0  0  0  0  0  0  0  0  0  0  0
   -2.9540    6.8650    9.3283 H   0  0  0  0  0  0  0  0  0  0  0  0
   -4.3560    7.8086    8.8778 H   0  0  0  0  0  0  0  0  0  0  0  0
   -8.9974    7.4586   16.6596 H   0  0  0  0  0  0  0  0  0  0  0  0
   -8.7405    8.0157   12.4964 H   0  0  0  0  0  0  0  0  0  0  0  0
   -2.7547    6.0370    6.9580 H   0  0  0  0  0  0  0  0  0  0  0  0
   -9.3833    8.8556   14.7003 H   0  0  0  0  0  0  0  0  0  0  0  0
   -4.0490    7.1506    5.1442 H   0  0  0  0  0  0  0  0  0  0  0  0
   -5.0446    7.9877    6.3533 H   0  0  0  0  0  0  0  0  0  0  0  0
   -5.1075    6.2189    6.2110 H   0  0  0  0  0  0  0  0  0  0  0  0
   -1.8959    8.1735    6.0127 H   0  0  0  0  0  0  0  0  0  0  0  0
   -1.4470    8.0080    7.7123 H   0  0  0  0  0  0  0  0  0  0  0  0
   -2.7709    9.0921    7.2502 H   0  0  0  0  0  0  0  0  0  0  0  0
  1  2  1  0  0  0  0 
  1  3  1  0  0  0  0 
  1  4  1  0  0  0  0 
  2  5  1  0  0  0  0 
  2  6  2  0  0  0  0 
  4  7  2  0  0  0  0 
  4  8  1  0  0  0  0 
  5  9  1  0  0  0  0 
  7 10  1  0  0  0  0 
  8 11  2  0  0  0  0 
  9 12  1  0  0  0  0 
 10 13  2  0  0  0  0 
 11 13  1  0  0  0  0 
 12 14  2  0  0  0  0 
 12 15  1  0  0  0  0 
 13 16  1  0  0  0  0 
 14 17  1  0  0  0  0 
 15 18  2  0  0  0  0 
 16 19  1  0  0  0  0 
 17 20  2  0  0  0  0 
 18 20  1  0  0  0  0 
 19 21  1  0  0  0  0 
 19 22  1  0  0  0  0 
  1 23  1  0  0  0  0 
  3 24  1  0  0  0  0 
  3 25  1  0  0  0  0 
  3 26  1  0  0  0  0 
  7 27  1  0  0  0  0 
  8 28  1  0  0  0  0 
  9 29  1  0  0  0  0 
  9 30  1  0  0  0  0 
 10 31  1  0  0  0  0 
 11 32  1  0  0  0  0 
 14 33  1  0  0  0  0 
 16 34  1  0  0  0  0 
 16 35  1  0  0  0  0 
 17 36  1  0  0  0  0 
 18 37  1  0  0  0  0 
 19 38  1  0  0  0  0 
 20 39  1  0  0  0  0 
 21 40  1  0  0  0  0 
 21 41  1  0  0  0  0 
 21 42  1  0  0  0  0 
 22 43  1  0  0  0  0 
 22 44  1  0  0  0  0 
 22 45  1  0  0  0  0 
M  END
> <cdk:Title>
ibuprofen piconol

> <Conformer>
1

> <SuperDrugID>
SD001251

$$$$
