cynarine
  CDK     0628171801

 61 63  0  0  0  0  0  0  0  0999 V2000
   -5.4087   -0.9100    0.0212 O   0  0  0  0  0  0  0  0  0  0  0  0
   -4.7786   -0.8395    1.2366 C   0  0  0  0  0  0  0  0  0  0  0  0
   -6.5411   -1.6925   -0.4254 C   0  0  1  0  0  0  0  0  0  0  0  0
   -3.8073    0.1156    1.4701 C   0  0  0  0  0  0  0  0  0  0  0  0
   -5.0496   -1.6495    2.1530 O   0  0  0  0  0  0  0  0  0  0  0  0
   -7.7742   -1.1399    0.2051 C   0  0  0  0  0  0  0  0  0  0  0  0
   -6.6086   -1.5002   -1.9771 C   0  0  1  0  0  0  0  0  0  0  0  0
   -6.4061   -3.2192   -0.1106 C   0  0  1  0  0  0  0  0  0  0  0  0
   -3.7501    1.2966    0.8220 C   0  0  0  0  0  0  0  0  0  0  0  0
   -7.7187   -0.1082    1.0809 O   0  0  0  0  0  0  0  0  0  0  0  0
   -8.9036   -1.6137   -0.0569 O   0  0  0  0  0  0  0  0  0  0  0  0
   -5.4309   -2.1700   -2.7469 C   0  0  1  0  0  0  0  0  0  0  0  0
   -5.1460   -3.8289   -0.7752 C   0  0  2  0  0  0  0  0  0  0  0  0
   -2.8363    2.3391    1.0429 C   0  0  0  0  0  0  0  0  0  0  0  0
   -4.2336   -1.3784   -2.5962 O   0  0  0  0  0  0  0  0  0  0  0  0
   -5.1945   -3.6500   -2.3165 C   0  0  2  0  0  0  0  0  0  0  0  0
   -5.0660   -5.2114   -0.4350 O   0  0  0  0  0  0  0  0  0  0  0  0
   -1.9639    2.3974    2.1633 C   0  0  0  0  0  0  0  0  0  0  0  0
   -2.7772    3.4128    0.1143 C   0  0  0  0  0  0  0  0  0  0  0  0
   -3.2639   -1.1790   -3.5483 C   0  0  0  0  0  0  0  0  0  0  0  0
   -3.9848   -4.1402   -2.8905 O   0  0  0  0  0  0  0  0  0  0  0  0
   -1.0506    3.4582    2.3279 C   0  0  0  0  0  0  0  0  0  0  0  0
   -1.8696    4.4736    0.2762 C   0  0  0  0  0  0  0  0  0  0  0  0
   -2.2103   -0.3050   -3.3554 C   0  0  0  0  0  0  0  0  0  0  0  0
   -3.3307   -1.7810   -4.6472 O   0  0  0  0  0  0  0  0  0  0  0  0
   -0.2165    3.4934    3.4004 O   0  0  0  0  0  0  0  0  0  0  0  0
   -0.9967    4.4933    1.3774 C   0  0  0  0  0  0  0  0  0  0  0  0
   -1.8675    0.2388   -2.1730 C   0  0  0  0  0  0  0  0  0  0  0  0
   -0.1059    5.5031    1.5380 O   0  0  0  0  0  0  0  0  0  0  0  0
   -0.8757    1.2054   -2.0039 C   0  0  0  0  0  0  0  0  0  0  0  0
   -0.6585    2.2347   -2.9544 C   0  0  0  0  0  0  0  0  0  0  0  0
   -0.0793    1.2016   -0.8339 C   0  0  0  0  0  0  0  0  0  0  0  0
    0.3154    3.2309   -2.7450 C   0  0  0  0  0  0  0  0  0  0  0  0
    0.9015    2.1890   -0.6234 C   0  0  0  0  0  0  0  0  0  0  0  0
    0.4794    4.1947   -3.6886 O   0  0  0  0  0  0  0  0  0  0  0  0
    1.0975    3.2100   -1.5729 C   0  0  0  0  0  0  0  0  0  0  0  0
    2.0340    4.1714   -1.3620 O   0  0  0  0  0  0  0  0  0  0  0  0
   -3.1459   -0.0921    2.1787 H   0  0  0  0  0  0  0  0  0  0  0  0
   -7.5407   -1.9328   -2.3568 H   0  0  0  0  0  0  0  0  0  0  0  0
   -6.6309   -0.4300   -2.2187 H   0  0  0  0  0  0  0  0  0  0  0  0
   -6.3717   -3.3920    0.9658 H   0  0  0  0  0  0  0  0  0  0  0  0
   -7.2889   -3.7547   -0.4771 H   0  0  0  0  0  0  0  0  0  0  0  0
   -4.4362    1.4531    0.1173 H   0  0  0  0  0  0  0  0  0  0  0  0
   -8.5356    0.2477    1.4882 H   0  0  0  0  0  0  0  0  0  0  0  0
   -5.7188   -2.1698   -3.8063 H   0  0  0  0  0  0  0  0  0  0  0  0
   -4.2479   -3.3443   -0.3825 H   0  0  0  0  0  0  0  0  0  0  0  0
   -6.0074   -4.2594   -2.7216 H   0  0  0  0  0  0  0  0  0  0  0  0
   -4.9770   -5.2256    0.5421 H   0  0  0  0  0  0  0  0  0  0  0  0
   -1.9813    1.6753    2.8863 H   0  0  0  0  0  0  0  0  0  0  0  0
   -3.3932    3.4362   -0.7019 H   0  0  0  0  0  0  0  0  0  0  0  0
   -3.9497   -5.0848   -2.6339 H   0  0  0  0  0  0  0  0  0  0  0  0
   -1.8477    5.2280   -0.4125 H   0  0  0  0  0  0  0  0  0  0  0  0
   -1.6846   -0.0585   -4.1643 H   0  0  0  0  0  0  0  0  0  0  0  0
   -0.3869    2.6740    3.9122 H   0  0  0  0  0  0  0  0  0  0  0  0
   -2.3471   -0.0663   -1.3580 H   0  0  0  0  0  0  0  0  0  0  0  0
   -0.0855    5.9844    0.6846 H   0  0  0  0  0  0  0  0  0  0  0  0
   -1.2255    2.2773   -3.8064 H   0  0  0  0  0  0  0  0  0  0  0  0
   -0.2058    0.4748   -0.1223 H   0  0  0  0  0  0  0  0  0  0  0  0
    1.4736    2.1646    0.2237 H   0  0  0  0  0  0  0  0  0  0  0  0
    1.1272    4.8351   -3.3244 H   0  0  0  0  0  0  0  0  0  0  0  0
    2.3994    3.9978   -0.4684 H   0  0  0  0  0  0  0  0  0  0  0  0
  1  2  1  0  0  0  0 
  3  1  1  0  0  0  0 
  2  4  1  0  0  0  0 
  2  5  2  0  0  0  0 
  3  6  1  0  0  0  0 
  3  7  1  0  0  0  0 
  3  8  1  0  0  0  0 
  4  9  2  0  0  0  0 
  6 10  1  0  0  0  0 
  6 11  2  0  0  0  0 
 12  7  1  0  0  0  0 
 13  8  1  0  0  0  0 
  9 14  1  0  0  0  0 
 12 15  1  0  0  0  0 
 16 12  1  0  0  0  0 
 13 16  1  0  0  0  0 
 13 17  1  0  0  0  0 
 14 18  2  0  0  0  0 
 14 19  1  0  0  0  0 
 15 20  1  0  0  0  0 
 16 21  1  0  0  0  0 
 18 22  1  0  0  0  0 
 19 23  2  0  0  0  0 
 20 24  1  0  0  0  0 
 20 25  2  0  0  0  0 
 22 26  1  0  0  0  0 
 22 27  2  0  0  0  0 
 23 27  1  0  0  0  0 
 24 28  2  0  0  0  0 
 27 29  1  0  0  0  0 
 28 30  1  0  0  0  0 
 30 31  2  0  0  0  0 
 30 32  1  0  0  0  0 
 31 33  1  0  0  0  0 
 32 34  2  0  0  0  0 
 33 35  1  0  0  0  0 
 33 36  2  0  0  0  0 
 34 36  1  0  0  0  0 
 36 37  1  0  0  0  0 
  4 38  1  0  0  0  0 
  7 39  1  0  0  0  0 
  7 40  1  0  0  0  0 
  8 41  1  0  0  0  0 
  8 42  1  0  0  0  0 
  9 43  1  0  0  0  0 
 10 44  1  0  0  0  0 
 12 45  1  0  0  0  0 
 13 46  1  0  0  0  0 
 16 47  1  0  0  0  0 
 17 48  1  0  0  0  0 
 18 49  1  0  0  0  0 
 19 50  1  0  0  0  0 
 21 51  1  0  0  0  0 
 23 52  1  0  0  0  0 
 24 53  1  0  0  0  0 
 26 54  1  0  0  0  0 
 28 55  1  0  0  0  0 
 29 56  1  0  0  0  0 
 31 57  1  0  0  0  0 
 32 58  1  0  0  0  0 
 34 59  1  0  0  0  0 
 35 60  1  0  0  0  0 
 37 61  1  0  0  0  0 
M  END
> <cdk:Title>
cynarine

> <Conformer>
1

> <SuperDrugID>
SD002708

$$$$
