etelcalcetide
  CDK     0628171802

144143  0  0  0  0  0  0  0  0999 V2000
   -2.4372   -2.3103    2.9187 C   0  0  0  0  0  0  0  0  0  0  0  0
    1.5300    6.6892    7.1754 N   0  0  0  0  0  0  0  0  0  0  0  0
   -0.9383    3.2003    4.4155 N   0  0  0  0  0  0  0  0  0  0  0  0
    0.4934   11.4288    9.7682 N   0  0  0  0  0  0  0  0  0  0  0  0
    0.8457    1.8129    5.3900 C   0  0  0  0  0  0  0  0  0  0  0  0
   -1.3861    1.1184    5.2394 O   0  0  0  0  0  0  0  0  0  0  0  0
    2.6909    9.8102    6.6565 N   0  0  0  0  0  0  0  0  0  0  0  0
    3.4192   12.5882    7.8489 N   0  0  0  0  0  0  0  0  0  0  0  0
   -4.3520    5.9453    7.7165 N   0  0  0  0  0  0  0  0  0  0  0  0
   -3.3569    5.7408    4.6538 N   0  0  0  0  0  0  0  0  0  0  0  0
   -0.5609    2.0336    5.0100 C   0  0  0  0  0  0  0  0  0  0  0  0
   -1.5594    5.7991    7.3845 N   0  0  0  0  0  0  0  0  0  0  0  0
   -1.5829   -1.3765    3.3969 O   0  0  0  0  0  0  0  0  0  0  0  0
   -4.2468    0.5983    2.9592 S   0  0  0  0  0  0  0  0  0  0  0  0
   -3.6547   -0.4721    1.6068 C   0  0  2  0  0  0  0  0  0  0  0  0
   -3.5466   -1.9723    1.9998 C   0  0  2  0  0  0  0  0  0  0  0  0
   -4.8140   -2.4542    2.5680 N   0  0  2  0  0  0  0  0  0  0  0  0
   -2.2439   -3.5001    3.2580 O   0  0  0  0  0  0  0  0  0  0  0  0
    2.3214    8.6000    6.1438 C   0  0  0  0  0  0  0  0  0  0  0  0
    0.1440    7.7598    5.3122 C   0  0  2  0  0  0  0  0  0  0  0  0
   -0.2223    9.1099    4.6221 C   0  0  1  0  0  0  0  0  0  0  0  0
   -1.2102    8.9533    3.4394 C   0  0  1  0  0  0  0  0  0  0  0  0
   -1.5783   10.1985    2.9314 N   0  0  0  0  0  0  0  0  0  0  0  0
   -2.3812   10.4536    1.9611 C   0  0  0  0  0  0  0  0  0  0  0  0
   -2.9997    9.5206    1.2630 N   0  0  0  0  0  0  0  0  0  0  0  0
   -2.5945   11.7102    1.6464 N   0  0  0  0  0  0  0  0  0  0  0  0
    1.0669    7.9075    6.5649 C   0  0  1  0  0  0  0  0  0  0  0  0
    3.0276    8.0513    5.2615 O   0  0  0  0  0  0  0  0  0  0  0  0
   -2.3920    5.0065    4.0275 C   0  0  0  0  0  0  0  0  0  0  0  0
   -4.1484    2.5146    2.0996 S   0  0  0  0  0  0  0  0  0  0  0  0
   -2.4385    3.0071    2.4816 C   0  0  1  0  0  0  0  0  0  0  0  0
   -2.2574    3.5249    3.9447 C   0  0  1  0  0  0  0  0  0  0  0  0
   -1.5217    5.6981    3.4502 O   0  0  0  0  0  0  0  0  0  0  0  0
    3.8129   12.0189    6.6668 C   0  0  0  0  0  0  0  0  0  0  0  0
    5.1943    9.9542    6.4957 C   0  0  0  0  0  0  0  0  0  0  0  0
    3.8072   10.5973    6.2053 C   0  0  1  0  0  0  0  0  0  0  0  0
    4.2959   12.8558    5.8675 O   0  0  0  0  0  0  0  0  0  0  0  0
    1.3101   11.7949    8.7658 C   0  0  0  0  0  0  0  0  0  0  0  0
    3.5033   10.8884    9.7344 C   0  0  1  0  0  0  0  0  0  0  0  0
    4.9706   11.2215   10.1411 C   0  0  1  0  0  0  0  0  0  0  0  0
    5.7484    9.9954   10.6922 C   0  0  2  0  0  0  0  0  0  0  0  0
    7.0872   10.3140   10.9344 N   0  0  0  0  0  0  0  0  0  0  0  0
    8.0461    9.5275   11.2778 C   0  0  0  0  0  0  0  0  0  0  0  0
    9.2401   10.0422   11.4655 N   0  0  0  0  0  0  0  0  0  0  0  0
    7.9083    8.2267   11.4454 N   0  0  0  0  0  0  0  0  0  0  0  0
    2.7547   12.0554    9.0095 C   0  0  1  0  0  0  0  0  0  0  0  0
    0.7855   11.9366    7.6379 O   0  0  0  0  0  0  0  0  0  0  0  0
   -2.1473    6.7415    8.1649 C   0  0  0  0  0  0  0  0  0  0  0  0
   -3.7254    8.3411    6.9214 C   0  0  2  0  0  0  0  0  0  0  0  0
   -3.0693    9.6472    7.4529 C   0  0  1  0  0  0  0  0  0  0  0  0
   -3.2711   10.8707    6.5273 C   0  0  1  0  0  0  0  0  0  0  0  0
   -2.6286   11.9679    7.0963 N   0  0  0  0  0  0  0  0  0  0  0  0
   -2.3432   13.1036    6.5733 C   0  0  0  0  0  0  0  0  0  0  0  0
   -2.5989   13.4192    5.3192 N   0  0  0  0  0  0  0  0  0  0  0  0
   -1.7540   13.9885    7.3414 N   0  0  0  0  0  0  0  0  0  0  0  0
   -3.5546    7.1338    7.8888 C   0  0  1  0  0  0  0  0  0  0  0  0
   -1.5591    7.1867    9.1808 O   0  0  0  0  0  0  0  0  0  0  0  0
   -4.7064    5.1479    6.6572 C   0  0  0  0  0  0  0  0  0  0  0  0
   -5.7291    6.2661    4.6545 C   0  0  0  0  0  0  0  0  0  0  0  0
   -4.6198    5.3183    5.1748 C   0  0  1  0  0  0  0  0  0  0  0  0
   -5.2463    4.0858    7.0468 O   0  0  0  0  0  0  0  0  0  0  0  0
    0.9572    5.5366    7.6453 C   0  0  0  0  0  0  0  0  0  0  0  0
   -0.7782    4.2315    9.0916 C   0  0  1  0  0  0  0  0  0  0  0  0
   -0.3932    2.7260    9.0981 C   0  0  1  0  0  0  0  0  0  0  0  0
   -0.7666    2.0145   10.4236 C   0  0  2  0  0  0  0  0  0  0  0  0
   -0.3477    0.6870   10.3762 N   0  0  0  0  0  0  0  0  0  0  0  0
   -0.4841   -0.2322   11.2621 C   0  0  0  0  0  0  0  0  0  0  0  0
   -1.0829   -0.0546   12.4232 N   0  0  0  0  0  0  0  0  0  0  0  0
    0.0029   -1.4196   10.9920 N   0  0  0  0  0  0  0  0  0  0  0  0
   -0.4347    4.9860    7.7155 C   0  0  1  0  0  0  0  0  0  0  0  0
    1.8514    4.7594    8.0527 O   0  0  0  0  0  0  0  0  0  0  0  0
    2.4940    6.6815    7.3000 H   0  0  0  0  0  0  0  0  0  0  0  0
   -0.2445    3.8660    4.2777 H   0  0  0  0  0  0  0  0  0  0  0  0
   -0.4470   11.2674    9.5949 H   0  0  0  0  0  0  0  0  0  0  0  0
    0.8429   11.3347   10.6669 H   0  0  0  0  0  0  0  0  0  0  0  0
    1.4666    2.6823    5.1626 H   0  0  0  0  0  0  0  0  0  0  0  0
    1.2393    0.9528    4.8447 H   0  0  0  0  0  0  0  0  0  0  0  0
    0.9117    1.6130    6.4600 H   0  0  0  0  0  0  0  0  0  0  0  0
    2.1391   10.1701    7.3608 H   0  0  0  0  0  0  0  0  0  0  0  0
    3.6029   13.5405    7.9025 H   0  0  0  0  0  0  0  0  0  0  0  0
   -4.6567    5.5840    8.5658 H   0  0  0  0  0  0  0  0  0  0  0  0
   -3.1925    6.6929    4.6747 H   0  0  0  0  0  0  0  0  0  0  0  0
   -2.0217    5.5746    6.5631 H   0  0  0  0  0  0  0  0  0  0  0  0
   -0.8444   -1.6368    3.9861 H   0  0  0  0  0  0  0  0  0  0  0  0
   -2.6835   -0.1082    1.2690 H   0  0  0  0  0  0  0  0  0  0  0  0
   -4.3478   -0.3743    0.7705 H   0  0  0  0  0  0  0  0  0  0  0  0
   -3.3750   -2.5403    1.0825 H   0  0  0  0  0  0  0  0  0  0  0  0
   -5.5525   -2.1938    1.9124 H   0  0  0  0  0  0  0  0  0  0  0  0
   -4.9841   -1.9308    3.4297 H   0  0  0  0  0  0  0  0  0  0  0  0
    0.6209    7.0971    4.5847 H   0  0  0  0  0  0  0  0  0  0  0  0
   -0.7856    7.2942    5.6115 H   0  0  0  0  0  0  0  0  0  0  0  0
   -0.6548    9.7776    5.3693 H   0  0  0  0  0  0  0  0  0  0  0  0
    0.6825    9.5859    4.2386 H   0  0  0  0  0  0  0  0  0  0  0  0
   -0.7394    8.3634    2.6477 H   0  0  0  0  0  0  0  0  0  0  0  0
   -2.1077    8.4340    3.7799 H   0  0  0  0  0  0  0  0  0  0  0  0
   -3.5869    9.7682    0.5323 H   0  0  0  0  0  0  0  0  0  0  0  0
   -2.8677    8.5840    1.4764 H   0  0  0  0  0  0  0  0  0  0  0  0
   -3.1877   11.9338    0.9114 H   0  0  0  0  0  0  0  0  0  0  0  0
   -2.1607   12.4190    2.1474 H   0  0  0  0  0  0  0  0  0  0  0  0
    0.5521    8.4995    7.3276 H   0  0  0  0  0  0  0  0  0  0  0  0
   -1.8041    2.1374    2.3014 H   0  0  0  0  0  0  0  0  0  0  0  0
   -2.1444    3.7654    1.7527 H   0  0  0  0  0  0  0  0  0  0  0  0
   -2.9881    3.0462    4.6021 H   0  0  0  0  0  0  0  0  0  0  0  0
    5.9934   10.5440    6.0352 H   0  0  0  0  0  0  0  0  0  0  0  0
    5.2595    8.9435    6.0919 H   0  0  0  0  0  0  0  0  0  0  0  0
    5.3820    9.8942    7.5647 H   0  0  0  0  0  0  0  0  0  0  0  0
    3.7019   10.6343    5.1135 H   0  0  0  0  0  0  0  0  0  0  0  0
    3.4899    9.9984    9.1075 H   0  0  0  0  0  0  0  0  0  0  0  0
    2.9622   10.6350   10.6508 H   0  0  0  0  0  0  0  0  0  0  0  0
    5.5076   11.6117    9.2738 H   0  0  0  0  0  0  0  0  0  0  0  0
    4.9597   12.0063   10.9025 H   0  0  0  0  0  0  0  0  0  0  0  0
    5.6991    9.1823    9.9626 H   0  0  0  0  0  0  0  0  0  0  0  0
    5.2861    9.6561   11.6236 H   0  0  0  0  0  0  0  0  0  0  0  0
    9.9842    9.4666   11.7075 H   0  0  0  0  0  0  0  0  0  0  0  0
    9.3840   10.9970   11.3668 H   0  0  0  0  0  0  0  0  0  0  0  0
    7.0431    7.8064   11.3257 H   0  0  0  0  0  0  0  0  0  0  0  0
    8.6769    7.6854   11.6874 H   0  0  0  0  0  0  0  0  0  0  0  0
    2.7537   12.8887    9.7180 H   0  0  0  0  0  0  0  0  0  0  0  0
   -3.2897    8.1094    5.9543 H   0  0  0  0  0  0  0  0  0  0  0  0
   -4.7924    8.5337    6.7914 H   0  0  0  0  0  0  0  0  0  0  0  0
   -3.4814    9.8810    8.4390 H   0  0  0  0  0  0  0  0  0  0  0  0
   -1.9948    9.4819    7.5680 H   0  0  0  0  0  0  0  0  0  0  0  0
   -2.8588   10.6534    5.5405 H   0  0  0  0  0  0  0  0  0  0  0  0
   -4.3341   11.0958    6.4139 H   0  0  0  0  0  0  0  0  0  0  0  0
   -2.3596   14.2961    4.9815 H   0  0  0  0  0  0  0  0  0  0  0  0
   -3.0185   12.7747    4.7283 H   0  0  0  0  0  0  0  0  0  0  0  0
   -1.5112   14.8572    6.9857 H   0  0  0  0  0  0  0  0  0  0  0  0
   -1.5625   13.7747    8.2690 H   0  0  0  0  0  0  0  0  0  0  0  0
   -3.9475    7.5034    8.8418 H   0  0  0  0  0  0  0  0  0  0  0  0
   -6.7135    5.8929    4.9450 H   0  0  0  0  0  0  0  0  0  0  0  0
   -5.6971    6.3135    3.5642 H   0  0  0  0  0  0  0  0  0  0  0  0
   -5.6151    7.2767    5.0395 H   0  0  0  0  0  0  0  0  0  0  0  0
   -4.8674    4.3573    4.7115 H   0  0  0  0  0  0  0  0  0  0  0  0
   -1.8540    4.2577    9.4195 H   0  0  0  0  0  0  0  0  0  0  0  0
   -0.2231    4.7262    9.8935 H   0  0  0  0  0  0  0  0  0  0  0  0
   -0.9144    2.2258    8.2769 H   0  0  0  0  0  0  0  0  0  0  0  0
    0.6815    2.6223    8.9351 H   0  0  0  0  0  0  0  0  0  0  0  0
   -1.8517    2.0496   10.5665 H   0  0  0  0  0  0  0  0  0  0  0  0
   -0.2818    2.5226   11.2630 H   0  0  0  0  0  0  0  0  0  0  0  0
   -1.1477   -0.7920   13.0506 H   0  0  0  0  0  0  0  0  0  0  0  0
   -1.4628    0.8080   12.6528 H   0  0  0  0  0  0  0  0  0  0  0  0
   -0.0778   -2.1356   11.6412 H   0  0  0  0  0  0  0  0  0  0  0  0
    0.4443   -1.5846   10.1436 H   0  0  0  0  0  0  0  0  0  0  0  0
   -0.4540    4.2325    6.9294 H   0  0  0  0  0  0  0  0  0  0  0  0
  1 13  1  0  0  0  0 
 29 10  1  0  0  0  0 
 48 12  1  0  0  0  0 
  3 11  1  0  0  0  0 
 58  9  1  0  0  0  0 
 19  7  1  0  0  0  0 
 11  5  1  0  0  0  0 
 11  6  2  0  0  0  0 
 34  8  1  0  0  0  0 
 62  2  1  0  0  0  0 
 38  4  1  0  0  0  0 
 30 14  1  0  0  0  0 
 16 17  1  0  0  0  0 
 16 15  1  0  0  0  0 
 15 14  1  0  0  0  0 
 16  1  1  0  0  0  0 
  1 18  2  0  0  0  0 
 27  2  1  0  0  0  0 
 27 20  1  0  0  0  0 
 20 21  1  0  0  0  0 
 21 22  1  0  0  0  0 
 22 23  1  0  0  0  0 
 23 24  2  0  0  0  0 
 24 25  1  0  0  0  0 
 24 26  1  0  0  0  0 
 27 19  1  0  0  0  0 
 19 28  2  0  0  0  0 
 32  3  1  0  0  0  0 
 32 31  1  0  0  0  0 
 31 30  1  0  0  0  0 
 32 29  1  0  0  0  0 
 29 33  2  0  0  0  0 
 36 35  1  0  0  0  0 
 36  7  1  0  0  0  0 
 36 34  1  0  0  0  0 
 34 37  2  0  0  0  0 
 46  8  1  0  0  0  0 
 46 39  1  0  0  0  0 
 39 40  1  0  0  0  0 
 40 41  1  0  0  0  0 
 41 42  1  0  0  0  0 
 42 43  2  0  0  0  0 
 43 44  1  0  0  0  0 
 43 45  1  0  0  0  0 
 46 38  1  0  0  0  0 
 38 47  2  0  0  0  0 
 56  9  1  0  0  0  0 
 56 49  1  0  0  0  0 
 49 50  1  0  0  0  0 
 50 51  1  0  0  0  0 
 51 52  1  0  0  0  0 
 52 53  2  0  0  0  0 
 53 54  1  0  0  0  0 
 53 55  1  0  0  0  0 
 56 48  1  0  0  0  0 
 48 57  2  0  0  0  0 
 60 59  1  0  0  0  0 
 60 10  1  0  0  0  0 
 60 58  1  0  0  0  0 
 58 61  2  0  0  0  0 
 70 12  1  0  0  0  0 
 70 63  1  0  0  0  0 
 63 64  1  0  0  0  0 
 64 65  1  0  0  0  0 
 65 66  1  0  0  0  0 
 66 67  2  0  0  0  0 
 67 68  1  0  0  0  0 
 67 69  1  0  0  0  0 
 70 62  1  0  0  0  0 
 62 71  2  0  0  0  0 
 72  2  1  0  0  0  0 
 73  3  1  0  0  0  0 
 74  4  1  0  0  0  0 
 75  4  1  0  0  0  0 
 76  5  1  0  0  0  0 
 77  5  1  0  0  0  0 
 78  5  1  0  0  0  0 
 79  7  1  0  0  0  0 
 80  8  1  0  0  0  0 
 81  9  1  0  0  0  0 
 82 10  1  0  0  0  0 
 83 12  1  0  0  0  0 
 84 13  1  0  0  0  0 
 85 15  1  0  0  0  0 
 86 15  1  0  0  0  0 
 16 87  1  0  0  0  0 
 88 17  1  0  0  0  0 
 89 17  1  0  0  0  0 
 90 20  1  0  0  0  0 
 91 20  1  0  0  0  0 
 92 21  1  0  0  0  0 
 93 21  1  0  0  0  0 
 94 22  1  0  0  0  0 
 95 22  1  0  0  0  0 
 96 25  1  0  0  0  0 
 97 25  1  0  0  0  0 
 98 26  1  0  0  0  0 
 99 26  1  0  0  0  0 
 27100  1  0  0  0  0 
101 31  1  0  0  0  0 
102 31  1  0  0  0  0 
 32103  1  0  0  0  0 
104 35  1  0  0  0  0 
105 35  1  0  0  0  0 
106 35  1  0  0  0  0 
 36107  1  0  0  0  0 
108 39  1  0  0  0  0 
109 39  1  0  0  0  0 
110 40  1  0  0  0  0 
111 40  1  0  0  0  0 
112 41  1  0  0  0  0 
113 41  1  0  0  0  0 
114 44  1  0  0  0  0 
115 44  1  0  0  0  0 
116 45  1  0  0  0  0 
117 45  1  0  0  0  0 
 46118  1  0  0  0  0 
119 49  1  0  0  0  0 
120 49  1  0  0  0  0 
121 50  1  0  0  0  0 
122 50  1  0  0  0  0 
123 51  1  0  0  0  0 
124 51  1  0  0  0  0 
125 54  1  0  0  0  0 
126 54  1  0  0  0  0 
127 55  1  0  0  0  0 
128 55  1  0  0  0  0 
 56129  1  0  0  0  0 
130 59  1  0  0  0  0 
131 59  1  0  0  0  0 
132 59  1  0  0  0  0 
 60133  1  0  0  0  0 
134 63  1  0  0  0  0 
135 63  1  0  0  0  0 
136 64  1  0  0  0  0 
137 64  1  0  0  0  0 
138 65  1  0  0  0  0 
139 65  1  0  0  0  0 
140 68  1  0  0  0  0 
141 68  1  0  0  0  0 
142 69  1  0  0  0  0 
143 69  1  0  0  0  0 
 70144  1  0  0  0  0 
M  END
> <cdk:Title>
etelcalcetide

> <Conformer>
1

> <SuperDrugID>
SD003929

$$$$
