intoplicine
  CDK     0628171801

 50 53  0  0  0  0  0  0  0  0999 V2000
    0.2278   -0.9620    1.4931 N   0  0  0  0  0  0  0  0  0  0  0  0
   -0.1534   -2.1011    2.2694 C   0  0  2  0  0  0  0  0  0  0  0  0
    1.0878   -1.0369    0.4526 C   0  0  0  0  0  0  0  0  0  0  0  0
   -0.9355   -1.7056    3.5522 C   0  0  2  0  0  0  0  0  0  0  0  0
    0.8790   -1.6954   -0.7873 C   0  0  0  0  0  0  0  0  0  0  0  0
    2.3104   -0.4927    0.6995 N   0  0  0  0  0  0  0  0  0  0  0  0
   -2.3077   -1.0371    3.2701 C   0  0  1  0  0  0  0  0  0  0  0  0
   -0.2160   -2.2748   -1.4591 C   0  0  0  0  0  0  0  0  0  0  0  0
    1.9983   -1.8911   -1.6136 C   0  0  0  0  0  0  0  0  0  0  0  0
    3.3760   -0.6068   -0.1353 C   0  0  0  0  0  0  0  0  0  0  0  0
   -3.1159   -0.7679    4.5040 N   0  0  2  0  0  0  0  0  0  0  0  0
   -1.6297   -2.3062   -1.2856 C   0  0  0  0  0  0  0  0  0  0  0  0
    0.3466   -2.9202   -2.5696 C   0  0  0  0  0  0  0  0  0  0  0  0
    1.6531   -2.6538   -2.6577 N   0  0  0  0  0  0  0  0  0  0  0  0
    3.2703   -1.3530   -1.3281 C   0  0  0  0  0  0  0  0  0  0  0  0
   -3.8090   -1.9768    5.0486 C   0  0  0  0  0  0  0  0  0  0  0  0
   -4.0539    0.3829    4.3367 C   0  0  0  0  0  0  0  0  0  0  0  0
   -2.4015   -3.1662   -2.1345 C   0  0  0  0  0  0  0  0  0  0  0  0
   -2.3309   -1.4853   -0.3745 C   0  0  0  0  0  0  0  0  0  0  0  0
   -0.4044   -3.7163   -3.4423 C   0  0  0  0  0  0  0  0  0  0  0  0
    4.4194   -1.5570   -2.2380 C   0  0  0  0  0  0  0  0  0  0  0  0
   -1.7780   -3.8659   -3.1964 C   0  0  0  0  0  0  0  0  0  0  0  0
   -3.7982   -3.2935   -1.9393 C   0  0  0  0  0  0  0  0  0  0  0  0
   -3.7231   -1.5955   -0.2068 C   0  0  0  0  0  0  0  0  0  0  0  0
   -4.4576   -2.5217   -0.9686 C   0  0  0  0  0  0  0  0  0  0  0  0
   -5.7961   -2.6629   -0.7923 O   0  0  0  0  0  0  0  0  0  0  0  0
   -0.0587   -0.0843    1.7916 H   0  0  0  0  0  0  0  0  0  0  0  0
    0.7501   -2.6328    2.5813 H   0  0  0  0  0  0  0  0  0  0  0  0
   -0.7500   -2.7905    1.6670 H   0  0  0  0  0  0  0  0  0  0  0  0
   -0.3256   -1.0222    4.1490 H   0  0  0  0  0  0  0  0  0  0  0  0
   -1.0808   -2.6116    4.1416 H   0  0  0  0  0  0  0  0  0  0  0  0
   -2.0944   -0.0957    2.7552 H   0  0  0  0  0  0  0  0  0  0  0  0
   -2.8818   -1.6605    2.5814 H   0  0  0  0  0  0  0  0  0  0  0  0
    4.2557   -0.1596    0.1260 H   0  0  0  0  0  0  0  0  0  0  0  0
    2.2507   -2.9629   -3.3571 H   0  0  0  0  0  0  0  0  0  0  0  0
   -3.0961   -2.7697    5.2709 H   0  0  0  0  0  0  0  0  0  0  0  0
   -4.3153   -1.7345    5.9847 H   0  0  0  0  0  0  0  0  0  0  0  0
   -4.5491   -2.3626    4.3431 H   0  0  0  0  0  0  0  0  0  0  0  0
   -3.4915    1.2997    4.1387 H   0  0  0  0  0  0  0  0  0  0  0  0
   -4.6327    0.5521    5.2486 H   0  0  0  0  0  0  0  0  0  0  0  0
   -4.7471    0.2131    3.5071 H   0  0  0  0  0  0  0  0  0  0  0  0
   -1.8462   -0.7709    0.1590 H   0  0  0  0  0  0  0  0  0  0  0  0
    0.0411   -4.1796   -4.2360 H   0  0  0  0  0  0  0  0  0  0  0  0
    4.5821   -2.6234   -2.4042 H   0  0  0  0  0  0  0  0  0  0  0  0
    5.3401   -1.1344   -1.8305 H   0  0  0  0  0  0  0  0  0  0  0  0
    4.2177   -1.0774   -3.1972 H   0  0  0  0  0  0  0  0  0  0  0  0
   -2.3229   -4.4682   -3.8179 H   0  0  0  0  0  0  0  0  0  0  0  0
   -4.3450   -3.9433   -2.5127 H   0  0  0  0  0  0  0  0  0  0  0  0
   -4.2027   -0.9945    0.4667 H   0  0  0  0  0  0  0  0  0  0  0  0
   -6.0269   -2.1045   -0.0203 H   0  0  0  0  0  0  0  0  0  0  0  0
  1  2  1  0  0  0  0 
  1  3  1  0  0  0  0 
  2  4  1  0  0  0  0 
  3  5  1  0  0  0  0 
  3  6  2  0  0  0  0 
  4  7  1  0  0  0  0 
  5  8  1  0  0  0  0 
  5  9  2  0  0  0  0 
  6 10  1  0  0  0  0 
  7 11  1  0  0  0  0 
  8 12  1  0  0  0  0 
  8 13  2  0  0  0  0 
  9 14  1  0  0  0  0 
  9 15  1  0  0  0  0 
 10 15  2  0  0  0  0 
 11 16  1  0  0  0  0 
 11 17  1  0  0  0  0 
 12 18  1  0  0  0  0 
 12 19  2  0  0  0  0 
 13 14  1  0  0  0  0 
 13 20  1  0  0  0  0 
 15 21  1  0  0  0  0 
 18 22  1  0  0  0  0 
 18 23  2  0  0  0  0 
 19 24  1  0  0  0  0 
 20 22  2  0  0  0  0 
 23 25  1  0  0  0  0 
 24 25  2  0  0  0  0 
 25 26  1  0  0  0  0 
 27  1  1  0  0  0  0 
 28  2  1  0  0  0  0 
 29  2  1  0  0  0  0 
 30  4  1  0  0  0  0 
 31  4  1  0  0  0  0 
 32  7  1  0  0  0  0 
 33  7  1  0  0  0  0 
 34 10  1  0  0  0  0 
 35 14  1  0  0  0  0 
 36 16  1  0  0  0  0 
 37 16  1  0  0  0  0 
 38 16  1  0  0  0  0 
 39 17  1  0  0  0  0 
 40 17  1  0  0  0  0 
 41 17  1  0  0  0  0 
 42 19  1  0  0  0  0 
 43 20  1  0  0  0  0 
 44 21  1  0  0  0  0 
 45 21  1  0  0  0  0 
 46 21  1  0  0  0  0 
 47 22  1  0  0  0  0 
 48 23  1  0  0  0  0 
 49 24  1  0  0  0  0 
 50 26  1  0  0  0  0 
M  END
> <cdk:Title>
intoplicine

> <Conformer>
1

> <SuperDrugID>
SD001282

$$$$
