nitrefazole
  CDK     0628171801

 26 27  0  0  0  0  0  0  0  0999 V2000
    1.7408    4.9249   -1.2586 C   0  0  0  0  0  0  0  0  0  0  0  0
    2.3329    4.5157    0.0281 C   0  0  0  0  0  0  0  0  0  0  0  0
    2.2242    3.3149    0.6502 N   0  0  0  0  0  0  0  0  0  0  0  0
    3.1100    5.3418    0.7534 N   0  0  0  0  0  0  0  0  0  0  0  0
    2.9569    3.4055    1.7753 C   0  0  0  0  0  0  0  0  0  0  0  0
    1.5354    2.1953    0.2529 C   0  0  0  0  0  0  0  0  0  0  0  0
    3.5102    4.6804    1.8517 C   0  0  0  0  0  0  0  0  0  0  0  0
    2.1866    0.9429    0.1709 C   0  0  0  0  0  0  0  0  0  0  0  0
    0.1609    2.2520   -0.0623 C   0  0  0  0  0  0  0  0  0  0  0  0
    4.2816    5.1629    2.8184 N   0  0  0  0  0  0  0  0  0  0  0  0
    1.4888   -0.2093   -0.2352 C   0  0  0  0  0  0  0  0  0  0  0  0
   -0.5363    1.0975   -0.4632 C   0  0  0  0  0  0  0  0  0  0  0  0
    4.6092    4.4632    3.8270 O   0  0  0  0  0  0  0  0  0  0  0  0
    4.6855    6.2576    2.7819 O   0  0  0  0  0  0  0  0  0  0  0  0
    0.1120   -0.1604   -0.5714 C   0  0  0  0  0  0  0  0  0  0  0  0
   -0.5441   -1.2645   -0.9796 N   0  0  0  0  0  0  0  0  0  0  0  0
    0.0476   -2.3612   -1.2406 O   0  0  0  0  0  0  0  0  0  0  0  0
   -1.7021   -1.2968   -1.1311 O   0  0  0  0  0  0  0  0  0  0  0  0
    2.1915    5.8548   -1.6132 H   0  0  0  0  0  0  0  0  0  0  0  0
    1.9110    4.1514   -2.0088 H   0  0  0  0  0  0  0  0  0  0  0  0
    0.6693    5.0863   -1.1361 H   0  0  0  0  0  0  0  0  0  0  0  0
    3.0820    2.6666    2.4718 H   0  0  0  0  0  0  0  0  0  0  0  0
    3.1806    0.8609    0.4014 H   0  0  0  0  0  0  0  0  0  0  0  0
   -0.3504    3.1340    0.0083 H   0  0  0  0  0  0  0  0  0  0  0  0
    2.0031   -1.0929   -0.2802 H   0  0  0  0  0  0  0  0  0  0  0  0
   -1.5326    1.1856   -0.6765 H   0  0  0  0  0  0  0  0  0  0  0  0
  1  2  1  0  0  0  0 
  2  3  1  0  0  0  0 
  2  4  2  0  0  0  0 
  3  5  1  0  0  0  0 
  3  6  1  0  0  0  0 
  4  7  1  0  0  0  0 
  5  7  2  0  0  0  0 
  6  8  2  0  0  0  0 
  6  9  1  0  0  0  0 
  7 10  1  0  0  0  0 
  8 11  1  0  0  0  0 
  9 12  2  0  0  0  0 
 10 13  1  0  0  0  0 
 10 14  2  0  0  0  0 
 11 15  2  0  0  0  0 
 12 15  1  0  0  0  0 
 15 16  1  0  0  0  0 
 16 17  1  0  0  0  0 
 16 18  2  0  0  0  0 
  1 19  1  0  0  0  0 
  1 20  1  0  0  0  0 
  1 21  1  0  0  0  0 
  5 22  1  0  0  0  0 
  8 23  1  0  0  0  0 
  9 24  1  0  0  0  0 
 11 25  1  0  0  0  0 
 12 26  1  0  0  0  0 
M  CHG  1  10   1
M  CHG  1  13  -1
M  CHG  1  16   1
M  CHG  1  17  -1
M  END
> <cdk:Title>
nitrefazole

> <Conformer>
1

> <SuperDrugID>
SD001740

$$$$
