glutethimide
  CDK     0628171801

 31 32  0  0  0  0  0  0  0  0999 V2000
   -2.5547   -1.7723    0.2345 C   0  0  2  0  0  0  0  0  0  0  0  0
   -3.0902   -1.5153    1.6670 C   0  0  0  0  0  0  0  0  0  0  0  0
   -1.0685   -1.3233   -0.0790 C   0  0  1  0  0  0  0  0  0  0  0  0
   -0.1765   -2.2403    0.7238 C   0  0  0  0  0  0  0  0  0  0  0  0
   -0.7587   -1.5618   -1.6075 C   0  0  1  0  0  0  0  0  0  0  0  0
   -0.8039    0.1640    0.1540 C   0  0  0  0  0  0  0  0  0  0  0  0
    0.0172   -2.0328    1.9446 O   0  0  0  0  0  0  0  0  0  0  0  0
    0.4108   -3.3588    0.2043 N   0  0  0  0  0  0  0  0  0  0  0  0
   -0.6471   -3.0564   -2.0111 C   0  0  1  0  0  0  0  0  0  0  0  0
   -1.7885    1.1519   -0.1286 C   0  0  0  0  0  0  0  0  0  0  0  0
    0.4676    0.6477    0.5736 C   0  0  0  0  0  0  0  0  0  0  0  0
    0.2303   -3.7841   -1.0729 C   0  0  0  0  0  0  0  0  0  0  0  0
   -1.5358    2.5253    0.0422 C   0  0  0  0  0  0  0  0  0  0  0  0
    0.7295    2.0202    0.7412 C   0  0  0  0  0  0  0  0  0  0  0  0
    0.8080   -4.8322   -1.4420 O   0  0  0  0  0  0  0  0  0  0  0  0
   -0.2759    2.9604    0.4770 C   0  0  0  0  0  0  0  0  0  0  0  0
   -3.2405   -1.2903   -0.4640 H   0  0  0  0  0  0  0  0  0  0  0  0
   -2.6677   -2.8436    0.0510 H   0  0  0  0  0  0  0  0  0  0  0  0
   -4.1682   -1.6965    1.6931 H   0  0  0  0  0  0  0  0  0  0  0  0
   -2.9052   -0.4857    1.9730 H   0  0  0  0  0  0  0  0  0  0  0  0
   -2.6198   -2.1921    2.3825 H   0  0  0  0  0  0  0  0  0  0  0  0
   -1.5191   -1.0856   -2.2355 H   0  0  0  0  0  0  0  0  0  0  0  0
    0.2008   -1.0982   -1.8645 H   0  0  0  0  0  0  0  0  0  0  0  0
    0.9811   -3.8902    0.7846 H   0  0  0  0  0  0  0  0  0  0  0  0
   -1.6325   -3.5266   -2.0066 H   0  0  0  0  0  0  0  0  0  0  0  0
   -0.2510   -3.1221   -3.0269 H   0  0  0  0  0  0  0  0  0  0  0  0
   -2.7097    0.8931   -0.4797 H   0  0  0  0  0  0  0  0  0  0  0  0
    1.2392    0.0061    0.7547 H   0  0  0  0  0  0  0  0  0  0  0  0
   -2.2651    3.2108   -0.1620 H   0  0  0  0  0  0  0  0  0  0  0  0
    1.6531    2.3343    1.0476 H   0  0  0  0  0  0  0  0  0  0  0  0
   -0.0894    3.9590    0.5913 H   0  0  0  0  0  0  0  0  0  0  0  0
  1  2  1  0  0  0  0 
  3  1  1  0  0  0  0 
  3  4  1  0  0  0  0 
  3  5  1  0  0  0  0 
  3  6  1  0  0  0  0 
  4  7  2  0  0  0  0 
  4  8  1  0  0  0  0 
  5  9  1  0  0  0  0 
  6 10  2  0  0  0  0 
  6 11  1  0  0  0  0 
  8 12  1  0  0  0  0 
  9 12  1  0  0  0  0 
 10 13  1  0  0  0  0 
 11 14  2  0  0  0  0 
 12 15  2  0  0  0  0 
 13 16  2  0  0  0  0 
 14 16  1  0  0  0  0 
  1 17  1  0  0  0  0 
  1 18  1  0  0  0  0 
  2 19  1  0  0  0  0 
  2 20  1  0  0  0  0 
  2 21  1  0  0  0  0 
  5 22  1  0  0  0  0 
  5 23  1  0  0  0  0 
  8 24  1  0  0  0  0 
  9 25  1  0  0  0  0 
  9 26  1  0  0  0  0 
 10 27  1  0  0  0  0 
 11 28  1  0  0  0  0 
 13 29  1  0  0  0  0 
 14 30  1  0  0  0  0 
 16 31  1  0  0  0  0 
M  END
> <cdk:Title>
glutethimide

> <Conformer>
1

> <SuperDrugID>
SD001169

$$$$
