UREA C 14
  CDK     0628171802

  8  7  0  0  0  0  0  0  0  0999 V2000
   -0.4986    0.7930   -1.6713 N   0  0  0  0  0  0  0  0  0  0  0  0
    0.1976    0.3537   -0.6121 C   0  0  0  0  0  0  0  0  0  0  0  0
    1.4871    0.0091   -0.7464 N   0  0  0  0  0  0  0  0  0  0  0  0
   -0.3574    0.2655    0.5049 O   0  0  0  0  0  0  0  0  0  0  0  0
   -0.0711    0.8639   -2.5395 H   0  0  0  0  0  0  0  0  0  0  0  0
   -1.4313    1.0401   -1.5701 H   0  0  0  0  0  0  0  0  0  0  0  0
    1.9867   -0.3093    0.0219 H   0  0  0  0  0  0  0  0  0  0  0  0
    1.9217    0.0771   -1.6113 H   0  0  0  0  0  0  0  0  0  0  0  0
  1  2  1  0  0  0  0 
  2  3  1  0  0  0  0 
  2  4  2  0  0  0  0 
  5  1  1  0  0  0  0 
  6  1  1  0  0  0  0 
  7  3  1  0  0  0  0 
  8  3  1  0  0  0  0 
M  ISO  1   2  14
M  END
> <cdk:Title>
UREA C 14

> <Conformer>
1

> <SuperDrugID>
SD003920

$$$$
