pirprofen
  CDK     0628171801

 31 32  0  0  0  0  0  0  0  0999 V2000
   -1.9235    3.5252   -2.1926 Cl  0  0  0  0  0  0  0  0  0  0  0  0
   -1.2490    1.9805   -2.3859 C   0  0  0  0  0  0  0  0  0  0  0  0
   -0.5063    1.5555   -3.5297 C   0  0  0  0  0  0  0  0  0  0  0  0
   -1.5107    1.0931   -1.3172 C   0  0  0  0  0  0  0  0  0  0  0  0
   -0.0807    0.2011   -3.5354 C   0  0  0  0  0  0  0  0  0  0  0  0
   -0.1710    2.3730   -4.6131 N   0  0  0  0  0  0  0  0  0  0  0  0
   -1.0640   -0.2466   -1.3334 C   0  0  0  0  0  0  0  0  0  0  0  0
   -0.3536   -0.6791   -2.4739 C   0  0  0  0  0  0  0  0  0  0  0  0
    0.2479    3.7469   -4.5292 C   0  0  2  0  0  0  0  0  0  0  0  0
   -0.1438    1.9315   -5.9867 C   0  0  1  0  0  0  0  0  0  0  0  0
   -1.3239   -1.1687   -0.1783 C   0  0  2  0  0  0  0  0  0  0  0  0
    0.6287    4.0678   -5.8687 C   0  0  0  0  0  0  0  0  0  0  0  0
    0.3848    3.0575   -6.6925 C   0  0  0  0  0  0  0  0  0  0  0  0
   -2.7782   -1.3825    0.0373 C   0  0  0  0  0  0  0  0  0  0  0  0
   -0.5629   -0.7078    1.0983 C   0  0  0  0  0  0  0  0  0  0  0  0
   -3.5116   -1.9696   -0.9350 O   0  0  0  0  0  0  0  0  0  0  0  0
   -3.3647   -1.0637    1.0983 O   0  0  0  0  0  0  0  0  0  0  0  0
   -2.0440    1.4239   -0.5068 H   0  0  0  0  0  0  0  0  0  0  0  0
    0.4562   -0.1764   -4.3163 H   0  0  0  0  0  0  0  0  0  0  0  0
   -0.0198   -1.6430   -2.5406 H   0  0  0  0  0  0  0  0  0  0  0  0
    1.0942    3.8692   -3.8492 H   0  0  0  0  0  0  0  0  0  0  0  0
   -0.5637    4.4210   -4.2610 H   0  0  0  0  0  0  0  0  0  0  0  0
    0.5302    1.0898   -6.1560 H   0  0  0  0  0  0  0  0  0  0  0  0
   -1.1468    1.6878   -6.3455 H   0  0  0  0  0  0  0  0  0  0  0  0
   -0.9240   -2.1607   -0.4098 H   0  0  0  0  0  0  0  0  0  0  0  0
    1.0077    4.9421   -6.1488 H   0  0  0  0  0  0  0  0  0  0  0  0
    0.5607    3.0766   -7.6710 H   0  0  0  0  0  0  0  0  0  0  0  0
   -0.6961   -1.4401    1.8983 H   0  0  0  0  0  0  0  0  0  0  0  0
    0.5069   -0.6251    0.8911 H   0  0  0  0  0  0  0  0  0  0  0  0
   -0.9252    0.2599    1.4523 H   0  0  0  0  0  0  0  0  0  0  0  0
   -4.4682   -2.1338   -0.8051 H   0  0  0  0  0  0  0  0  0  0  0  0
  1  2  1  0  0  0  0 
  2  3  2  0  0  0  0 
  2  4  1  0  0  0  0 
  3  5  1  0  0  0  0 
  3  6  1  0  0  0  0 
  4  7  2  0  0  0  0 
  5  8  2  0  0  0  0 
  6  9  1  0  0  0  0 
  6 10  1  0  0  0  0 
  7  8  1  0  0  0  0 
 11  7  1  0  0  0  0 
  9 12  1  0  0  0  0 
 10 13  1  0  0  0  0 
 11 14  1  0  0  0  0 
 11 15  1  0  0  0  0 
 12 13  2  0  0  0  0 
 14 16  1  0  0  0  0 
 14 17  2  0  0  0  0 
  4 18  1  0  0  0  0 
  5 19  1  0  0  0  0 
  8 20  1  0  0  0  0 
  9 21  1  0  0  0  0 
  9 22  1  0  0  0  0 
 10 23  1  0  0  0  0 
 10 24  1  0  0  0  0 
 11 25  1  0  0  0  0 
 12 26  1  0  0  0  0 
 13 27  1  0  0  0  0 
 15 28  1  0  0  0  0 
 15 29  1  0  0  0  0 
 15 30  1  0  0  0  0 
 16 31  1  0  0  0  0 
M  END
> <cdk:Title>
pirprofen

> <Conformer>
1

> <SuperDrugID>
SD001986

$$$$
