diiodohydroxypropane
  CDK     0628171801

 12 11  0  0  0  0  0  0  0  0999 V2000
   -0.8839    1.3913   -0.0095 C   0  0  1  0  0  0  0  0  0  0  0  0
   -0.9499    1.9729   -1.4434 C   0  0  2  0  0  0  0  0  0  0  0  0
   -0.6925   -0.1453   -0.0222 C   0  0  1  0  0  0  0  0  0  0  0  0
    0.1896    2.0140    0.6914 O   0  0  0  0  0  0  0  0  0  0  0  0
   -1.2435    4.0761   -1.4071 I   0  0  0  0  0  0  0  0  0  0  0  0
   -0.6462   -0.9401    1.9449 I   0  0  0  0  0  0  0  0  0  0  0  0
   -1.8137    1.6302    0.5128 H   0  0  0  0  0  0  0  0  0  0  0  0
   -1.7790    1.5228   -1.9948 H   0  0  0  0  0  0  0  0  0  0  0  0
   -0.0190    1.7627   -1.9770 H   0  0  0  0  0  0  0  0  0  0  0  0
   -1.5166   -0.6207   -0.5561 H   0  0  0  0  0  0  0  0  0  0  0  0
    0.2431   -0.4047   -0.5224 H   0  0  0  0  0  0  0  0  0  0  0  0
    0.1628    1.6366    1.5941 H   0  0  0  0  0  0  0  0  0  0  0  0
  1  2  1  0  0  0  0 
  1  3  1  0  0  0  0 
  1  4  1  0  0  0  0 
  2  5  1  0  0  0  0 
  3  6  1  0  0  0  0 
  1  7  1  0  0  0  0 
  2  8  1  0  0  0  0 
  2  9  1  0  0  0  0 
  3 10  1  0  0  0  0 
  3 11  1  0  0  0  0 
  4 12  1  0  0  0  0 
M  END
> <cdk:Title>
diiodohydroxypropane

> <Conformer>
1

> <SuperDrugID>
SD003560

$$$$
