metizoline
  CDK     0628171802

 30 32  0  0  0  0  0  0  0  0999 V2000
   -0.7526    1.1358    1.0089 C   0  0  2  0  0  0  0  0  0  0  0  0
    0.0018    0.1871    1.8786 C   0  0  0  0  0  0  0  0  0  0  0  0
   -0.6363    0.7684   -0.3861 C   0  0  0  0  0  0  0  0  0  0  0  0
    1.4252    0.1375    1.9240 C   0  0  0  0  0  0  0  0  0  0  0  0
   -0.6339   -0.7480    2.7302 C   0  0  0  0  0  0  0  0  0  0  0  0
   -1.0546   -0.3697   -0.8829 N   0  0  0  0  0  0  0  0  0  0  0  0
   -0.1067    1.4953   -1.2936 N   0  0  0  0  0  0  0  0  0  0  0  0
    1.9598   -0.8390    2.7857 C   0  0  0  0  0  0  0  0  0  0  0  0
    2.3388    0.9539    1.2132 C   0  0  0  0  0  0  0  0  0  0  0  0
   -2.0743   -0.9593    2.9608 C   0  0  0  0  0  0  0  0  0  0  0  0
    0.6209   -1.6915    3.5191 S   0  0  0  0  0  0  0  0  0  0  0  0
   -0.7801   -0.4843   -2.2566 C   0  0  1  0  0  0  0  0  0  0  0  0
   -0.1008    0.8736   -2.5287 C   0  0  2  0  0  0  0  0  0  0  0  0
    3.3344   -1.0284    2.9814 C   0  0  0  0  0  0  0  0  0  0  0  0
    3.7288    0.7943    1.4021 C   0  0  0  0  0  0  0  0  0  0  0  0
    4.2237   -0.1881    2.2853 C   0  0  0  0  0  0  0  0  0  0  0  0
   -0.3768    2.1466    1.1801 H   0  0  0  0  0  0  0  0  0  0  0  0
   -1.8129    1.1590    1.2584 H   0  0  0  0  0  0  0  0  0  0  0  0
   -1.4949   -1.0597   -0.3624 H   0  0  0  0  0  0  0  0  0  0  0  0
    2.0120    1.6694    0.5609 H   0  0  0  0  0  0  0  0  0  0  0  0
   -2.2356   -1.7321    3.7144 H   0  0  0  0  0  0  0  0  0  0  0  0
   -2.5321   -0.0348    3.3147 H   0  0  0  0  0  0  0  0  0  0  0  0
   -2.5575   -1.2697    2.0341 H   0  0  0  0  0  0  0  0  0  0  0  0
   -0.1077   -1.3245   -2.4424 H   0  0  0  0  0  0  0  0  0  0  0  0
   -1.7055   -0.6018   -2.8230 H   0  0  0  0  0  0  0  0  0  0  0  0
    0.9289    0.7405   -2.8703 H   0  0  0  0  0  0  0  0  0  0  0  0
   -0.6599    1.4696   -3.2545 H   0  0  0  0  0  0  0  0  0  0  0  0
    3.6783   -1.7494    3.6156 H   0  0  0  0  0  0  0  0  0  0  0  0
    4.3814    1.3961    0.8960 H   0  0  0  0  0  0  0  0  0  0  0  0
    5.2315   -0.2899    2.4219 H   0  0  0  0  0  0  0  0  0  0  0  0
  1  2  1  0  0  0  0 
  1  3  1  0  0  0  0 
  2  4  1  0  0  0  0 
  2  5  2  0  0  0  0 
  3  6  1  0  0  0  0 
  3  7  2  0  0  0  0 
  4  8  1  0  0  0  0 
  4  9  2  0  0  0  0 
  5 10  1  0  0  0  0 
  5 11  1  0  0  0  0 
  6 12  1  0  0  0  0 
  7 13  1  0  0  0  0 
  8 11  1  0  0  0  0 
  8 14  2  0  0  0  0 
  9 15  1  0  0  0  0 
 12 13  1  0  0  0  0 
 14 16  1  0  0  0  0 
 15 16  2  0  0  0  0 
 17  1  1  0  0  0  0 
 18  1  1  0  0  0  0 
 19  6  1  0  0  0  0 
 20  9  1  0  0  0  0 
 21 10  1  0  0  0  0 
 22 10  1  0  0  0  0 
 23 10  1  0  0  0  0 
 24 12  1  0  0  0  0 
 25 12  1  0  0  0  0 
 26 13  1  0  0  0  0 
 27 13  1  0  0  0  0 
 28 14  1  0  0  0  0 
 29 15  1  0  0  0  0 
 30 16  1  0  0  0  0 
M  END
> <cdk:Title>
metizoline

> <Conformer>
1

> <SuperDrugID>
SD003702

$$$$
