nortriptyline
  CDK     0628171801

 41 43  0  0  0  0  0  0  0  0999 V2000
   -0.3138    0.6464    3.5362 C   0  0  0  0  0  0  0  0  0  0  0  0
   -0.2611   -0.4053    2.5214 C   0  0  2  0  0  0  0  0  0  0  0  0
    0.7249    1.2647    4.1475 C   0  0  0  0  0  0  0  0  0  0  0  0
    0.4394   -0.0187    1.1915 C   0  0  2  0  0  0  0  0  0  0  0  0
    2.0736    1.0142    3.8919 C   0  0  0  0  0  0  0  0  0  0  0  0
    0.4694    2.2635    5.0847 C   0  0  0  0  0  0  0  0  0  0  0  0
    0.3129   -1.1335    0.2241 N   0  0  1  0  0  0  0  0  0  0  0  0
    2.9618    2.0166    3.3827 C   0  0  0  0  0  0  0  0  0  0  0  0
    2.5819   -0.2743    4.1961 C   0  0  0  0  0  0  0  0  0  0  0  0
    0.7049    3.6247    4.7553 C   0  0  0  0  0  0  0  0  0  0  0  0
   -0.0185    1.9247    6.3690 C   0  0  0  0  0  0  0  0  0  0  0  0
    0.9401   -0.9026   -1.0911 C   0  0  0  0  0  0  0  0  0  0  0  0
    2.6056    3.4464    3.0807 C   0  0  1  0  0  0  0  0  0  0  0  0
    4.3165    1.6615    3.1575 C   0  0  0  0  0  0  0  0  0  0  0  0
    3.9318   -0.5923    3.9768 C   0  0  0  0  0  0  0  0  0  0  0  0
    1.1801    3.9817    3.3904 C   0  0  2  0  0  0  0  0  0  0  0  0
    0.4654    4.6193    5.7320 C   0  0  0  0  0  0  0  0  0  0  0  0
   -0.2589    2.9276    7.3243 C   0  0  0  0  0  0  0  0  0  0  0  0
    4.7988    0.3765    3.4522 C   0  0  0  0  0  0  0  0  0  0  0  0
   -0.0054    4.2733    7.0109 C   0  0  0  0  0  0  0  0  0  0  0  0
   -1.2333    0.9355    3.7952 H   0  0  0  0  0  0  0  0  0  0  0  0
   -1.2895   -0.6896    2.2734 H   0  0  0  0  0  0  0  0  0  0  0  0
    0.2108   -1.2940    2.9453 H   0  0  0  0  0  0  0  0  0  0  0  0
    1.4981    0.1730    1.3686 H   0  0  0  0  0  0  0  0  0  0  0  0
   -0.0206    0.8863    0.7835 H   0  0  0  0  0  0  0  0  0  0  0  0
    0.7895   -1.9401    0.6333 H   0  0  0  0  0  0  0  0  0  0  0  0
    1.9751   -0.9957    4.5977 H   0  0  0  0  0  0  0  0  0  0  0  0
   -0.1977    0.9465    6.6193 H   0  0  0  0  0  0  0  0  0  0  0  0
    0.8051   -1.7978   -1.6977 H   0  0  0  0  0  0  0  0  0  0  0  0
    0.4683   -0.0640   -1.6048 H   0  0  0  0  0  0  0  0  0  0  0  0
    2.0104   -0.7142   -0.9866 H   0  0  0  0  0  0  0  0  0  0  0  0
    3.3002    4.0826    3.6399 H   0  0  0  0  0  0  0  0  0  0  0  0
    2.7873    3.6230    2.0149 H   0  0  0  0  0  0  0  0  0  0  0  0
    4.9768    2.3483    2.7833 H   0  0  0  0  0  0  0  0  0  0  0  0
    4.2830   -1.5264    4.2053 H   0  0  0  0  0  0  0  0  0  0  0  0
    1.1898    5.0665    3.2537 H   0  0  0  0  0  0  0  0  0  0  0  0
    0.4717    3.5831    2.6588 H   0  0  0  0  0  0  0  0  0  0  0  0
    0.6303    5.6053    5.5224 H   0  0  0  0  0  0  0  0  0  0  0  0
   -0.6159    2.6770    8.2482 H   0  0  0  0  0  0  0  0  0  0  0  0
    5.7838    0.1514    3.2931 H   0  0  0  0  0  0  0  0  0  0  0  0
   -0.1665    5.0015    7.7116 H   0  0  0  0  0  0  0  0  0  0  0  0
  1  2  1  0  0  0  0 
  1  3  2  0  0  0  0 
  2  4  1  0  0  0  0 
  3  5  1  0  0  0  0 
  3  6  1  0  0  0  0 
  4  7  1  0  0  0  0 
  5  8  2  0  0  0  0 
  5  9  1  0  0  0  0 
  6 10  2  0  0  0  0 
  6 11  1  0  0  0  0 
  7 12  1  0  0  0  0 
  8 13  1  0  0  0  0 
  8 14  1  0  0  0  0 
  9 15  2  0  0  0  0 
 10 16  1  0  0  0  0 
 10 17  1  0  0  0  0 
 11 18  2  0  0  0  0 
 13 16  1  0  0  0  0 
 14 19  2  0  0  0  0 
 15 19  1  0  0  0  0 
 17 20  2  0  0  0  0 
 18 20  1  0  0  0  0 
  1 21  1  0  0  0  0 
  2 22  1  0  0  0  0 
  2 23  1  0  0  0  0 
  4 24  1  0  0  0  0 
  4 25  1  0  0  0  0 
  7 26  1  0  0  0  0 
  9 27  1  0  0  0  0 
 11 28  1  0  0  0  0 
 12 29  1  0  0  0  0 
 12 30  1  0  0  0  0 
 12 31  1  0  0  0  0 
 13 32  1  0  0  0  0 
 13 33  1  0  0  0  0 
 14 34  1  0  0  0  0 
 15 35  1  0  0  0  0 
 16 36  1  0  0  0  0 
 16 37  1  0  0  0  0 
 17 38  1  0  0  0  0 
 18 39  1  0  0  0  0 
 19 40  1  0  0  0  0 
 20 41  1  0  0  0  0 
M  END
> <cdk:Title>
nortriptyline

> <Conformer>
1

> <SuperDrugID>
SD001763

$$$$
