nitrous oxide
  CDK     0628171801

  3  2  0  0  0  0  0  0  0  0999 V2000
    1.1610    0.0000    0.0000 N   0  0  0  0  0  0  0  0  0  0  0  0
    0.0000    0.0000    0.0000 N   0  0  0  0  0  0  0  0  0  0  0  0
   -1.1060    0.0000    0.0000 O   0  0  0  0  0  0  0  0  0  0  0  0
  1  2  2  0  0  0  0 
  2  3  2  0  0  0  0 
M  CHG  1   1  -1
M  CHG  1   2   1
M  END
> <cdk:Title>
nitrous oxide

> <Conformer>
1

> <SuperDrugID>
SD003446

$$$$
