phenylmercuric nitrate
  CDK     0628171802

 16 16  0  0  0  0  0  0  0  0999 V2000
    0.2091    1.6618    0.4370 Hg  0  0  0  0  0  0  0  0  0  0  0  0
    0.1148    0.3265   -1.2481 O   0  0  0  0  0  0  0  0  0  0  0  0
    0.3822    3.0349    2.1355 C   0  0  0  0  0  0  0  0  0  0  0  0
    0.6080    0.9764   -2.2165 N   0  0  0  0  0  0  0  0  0  0  0  0
    0.2878    2.5986    3.4722 C   0  0  0  0  0  0  0  0  0  0  0  0
    0.5920    4.4072    1.8953 C   0  0  0  0  0  0  0  0  0  0  0  0
   -0.0615    1.8976   -2.7671 O   0  0  0  0  0  0  0  0  0  0  0  0
    1.6765    0.7240   -2.6062 O   0  0  0  0  0  0  0  0  0  0  0  0
    0.3861    3.5063    4.5436 C   0  0  0  0  0  0  0  0  0  0  0  0
    0.6936    5.3259    2.9570 C   0  0  0  0  0  0  0  0  0  0  0  0
    0.5876    4.8739    4.2847 C   0  0  0  0  0  0  0  0  0  0  0  0
    0.1501    1.6038    3.6600 H   0  0  0  0  0  0  0  0  0  0  0  0
    0.6757    4.7337    0.9321 H   0  0  0  0  0  0  0  0  0  0  0  0
    0.3107    3.1726    5.5073 H   0  0  0  0  0  0  0  0  0  0  0  0
    0.8428    6.3191    2.7633 H   0  0  0  0  0  0  0  0  0  0  0  0
    0.6619    5.5373    5.0595 H   0  0  0  0  0  0  0  0  0  0  0  0
  1  2  1  0  0  0  0 
  1  3  1  0  0  0  0 
  2  4  1  0  0  0  0 
  3  5  2  0  0  0  0 
  3  6  1  0  0  0  0 
  4  7  1  0  0  0  0 
  4  8  2  0  0  0  0 
  5  9  1  0  0  0  0 
  6 10  2  0  0  0  0 
  9 11  2  0  0  0  0 
 10 11  1  0  0  0  0 
  5 12  1  0  0  0  0 
  6 13  1  0  0  0  0 
  9 14  1  0  0  0  0 
 10 15  1  0  0  0  0 
 11 16  1  0  0  0  0 
M  CHG  1   4   1
M  CHG  1   7  -1
M  END
> <cdk:Title>
phenylmercuric nitrate

> <Conformer>
1

> <SuperDrugID>
SD003717

$$$$
