ropivacaine
  CDK     0628171801

 46 47  0  0  0  0  0  0  0  0999 V2000
   -0.2270    2.0112    0.7077 C   0  0  0  0  0  0  0  0  0  0  0  0
   -0.5450    1.7989   -0.6048 N   0  0  0  0  0  0  0  0  0  0  0  0
   -0.9505    2.7361    1.4356 O   0  0  0  0  0  0  0  0  0  0  0  0
    0.9339    1.3335    1.3472 C   0  0  1  0  0  0  0  0  0  0  0  0
   -1.6748    2.2566   -1.2107 C   0  0  0  0  0  0  0  0  0  0  0  0
    0.5027    0.3388    2.4030 N   0  0  1  0  0  0  0  0  0  0  0  0
    1.9440    0.6842    0.3488 C   0  0  1  0  0  0  0  0  0  0  0  0
   -2.6841    1.3141   -1.5552 C   0  0  0  0  0  0  0  0  0  0  0  0
   -1.8624    3.6426   -1.4771 C   0  0  0  0  0  0  0  0  0  0  0  0
   -0.4775   -0.7193    1.9609 C   0  0  1  0  0  0  0  0  0  0  0  0
    1.6809   -0.1768    3.1751 C   0  0  1  0  0  0  0  0  0  0  0  0
    3.1746    0.1168    1.1006 C   0  0  2  0  0  0  0  0  0  0  0  0
   -2.5123   -0.1592   -1.4322 C   0  0  0  0  0  0  0  0  0  0  0  0
   -3.9247    1.7892   -2.0350 C   0  0  0  0  0  0  0  0  0  0  0  0
   -0.7963    4.6632   -1.2895 C   0  0  0  0  0  0  0  0  0  0  0  0
   -3.1143    4.0779   -1.9699 C   0  0  0  0  0  0  0  0  0  0  0  0
   -1.3168   -1.3800    3.0873 C   0  0  1  0  0  0  0  0  0  0  0  0
    2.7646   -0.8210    2.2662 C   0  0  2  0  0  0  0  0  0  0  0  0
   -4.1435    3.1613   -2.2306 C   0  0  0  0  0  0  0  0  0  0  0  0
   -2.0967   -0.3640    3.9526 C   0  0  0  0  0  0  0  0  0  0  0  0
    0.0317    1.2139   -1.1206 H   0  0  0  0  0  0  0  0  0  0  0  0
    1.4842    2.1411    1.8468 H   0  0  0  0  0  0  0  0  0  0  0  0
    1.4612   -0.1215   -0.2099 H   0  0  0  0  0  0  0  0  0  0  0  0
    2.2899    1.4305   -0.3719 H   0  0  0  0  0  0  0  0  0  0  0  0
   -1.2090   -0.2903    1.2763 H   0  0  0  0  0  0  0  0  0  0  0  0
    0.0379   -1.5036    1.4043 H   0  0  0  0  0  0  0  0  0  0  0  0
    2.1274    0.6574    3.7238 H   0  0  0  0  0  0  0  0  0  0  0  0
    1.3665   -0.9014    3.9272 H   0  0  0  0  0  0  0  0  0  0  0  0
    3.7617    0.9476    1.5040 H   0  0  0  0  0  0  0  0  0  0  0  0
    3.8096   -0.4311    0.3982 H   0  0  0  0  0  0  0  0  0  0  0  0
   -3.1772   -0.5386   -0.6550 H   0  0  0  0  0  0  0  0  0  0  0  0
   -1.4905   -0.4527   -1.1855 H   0  0  0  0  0  0  0  0  0  0  0  0
   -2.7676   -0.6389   -2.3797 H   0  0  0  0  0  0  0  0  0  0  0  0
   -4.6834    1.1372   -2.2465 H   0  0  0  0  0  0  0  0  0  0  0  0
    0.1567    4.2359   -0.9811 H   0  0  0  0  0  0  0  0  0  0  0  0
   -0.6235    5.1895   -2.2308 H   0  0  0  0  0  0  0  0  0  0  0  0
   -1.1042    5.3842   -0.5317 H   0  0  0  0  0  0  0  0  0  0  0  0
   -3.2856    5.0725   -2.1436 H   0  0  0  0  0  0  0  0  0  0  0  0
   -2.0386   -2.0552    2.6176 H   0  0  0  0  0  0  0  0  0  0  0  0
   -0.6782   -1.9909    3.7282 H   0  0  0  0  0  0  0  0  0  0  0  0
    2.3864   -1.7612    1.8564 H   0  0  0  0  0  0  0  0  0  0  0  0
    3.6468   -1.0506    2.8701 H   0  0  0  0  0  0  0  0  0  0  0  0
   -5.0503    3.4903   -2.5713 H   0  0  0  0  0  0  0  0  0  0  0  0
   -2.7262    0.2711    3.3238 H   0  0  0  0  0  0  0  0  0  0  0  0
   -2.7387   -0.8965    4.6581 H   0  0  0  0  0  0  0  0  0  0  0  0
   -1.4058    0.2654    4.5182 H   0  0  0  0  0  0  0  0  0  0  0  0
  1  2  1  0  0  0  0 
  1  3  2  0  0  0  0 
  2  5  1  0  0  0  0 
  4  1  1  0  0  0  0 
  4  6  1  0  0  0  0 
  4  7  1  0  0  0  0 
  5  8  2  0  0  0  0 
  5  9  1  0  0  0  0 
  6 10  1  0  0  0  0 
  6 11  1  0  0  0  0 
  7 12  1  0  0  0  0 
  8 13  1  0  0  0  0 
  8 14  1  0  0  0  0 
  9 15  1  0  0  0  0 
  9 16  2  0  0  0  0 
 10 17  1  0  0  0  0 
 11 18  1  0  0  0  0 
 12 18  1  0  0  0  0 
 14 19  2  0  0  0  0 
 16 19  1  0  0  0  0 
 17 20  1  0  0  0  0 
  2 21  1  0  0  0  0 
  4 22  1  0  0  0  0 
  7 23  1  0  0  0  0 
  7 24  1  0  0  0  0 
 10 25  1  0  0  0  0 
 10 26  1  0  0  0  0 
 11 27  1  0  0  0  0 
 11 28  1  0  0  0  0 
 12 29  1  0  0  0  0 
 12 30  1  0  0  0  0 
 13 31  1  0  0  0  0 
 13 32  1  0  0  0  0 
 13 33  1  0  0  0  0 
 14 34  1  0  0  0  0 
 15 35  1  0  0  0  0 
 15 36  1  0  0  0  0 
 15 37  1  0  0  0  0 
 16 38  1  0  0  0  0 
 17 39  1  0  0  0  0 
 17 40  1  0  0  0  0 
 18 41  1  0  0  0  0 
 18 42  1  0  0  0  0 
 19 43  1  0  0  0  0 
 20 44  1  0  0  0  0 
 20 45  1  0  0  0  0 
 20 46  1  0  0  0  0 
M  END
> <cdk:Title>
ropivacaine

> <Conformer>
1

> <SuperDrugID>
SD002163

$$$$
