sulfametrole
  CDK     0628171801

 28 29  0  0  0  0  0  0  0  0999 V2000
    2.0162    1.3574    3.7184 S   0  0  1  0  0  0  0  0  0  0  0  0
    1.2831    0.5725    2.3770 N   0  0  0  0  0  0  0  0  0  0  0  0
    2.3667    2.8636    3.2879 O   0  0  0  0  0  0  0  0  0  0  0  0
    0.9513    1.4107    4.9186 O   0  0  0  0  0  0  0  0  0  0  0  0
    3.4629    0.4910    4.2663 C   0  0  0  0  0  0  0  0  0  0  0  0
    1.9604    0.1528    1.2818 C   0  0  0  0  0  0  0  0  0  0  0  0
    3.4368   -0.9150    4.3740 C   0  0  0  0  0  0  0  0  0  0  0  0
    4.6417    1.1908    4.5999 C   0  0  0  0  0  0  0  0  0  0  0  0
    1.3049   -0.2878    0.1232 C   0  0  0  0  0  0  0  0  0  0  0  0
    3.3026    0.1164    1.1901 N   0  0  0  0  0  0  0  0  0  0  0  0
    4.5812   -1.6160    4.7963 C   0  0  0  0  0  0  0  0  0  0  0  0
    5.7856    0.4906    5.0256 C   0  0  0  0  0  0  0  0  0  0  0  0
   -0.0523   -0.2747   -0.0221 O   0  0  0  0  0  0  0  0  0  0  0  0
    2.1223   -0.6755   -0.8717 N   0  0  0  0  0  0  0  0  0  0  0  0
    3.7206   -0.4947   -0.3347 S   0  0  0  0  0  0  0  0  0  0  0  0
    5.7601   -0.9156    5.1209 C   0  0  0  0  0  0  0  0  0  0  0  0
   -0.6542   -1.5604    0.1900 C   0  0  0  0  0  0  0  0  0  0  0  0
    6.8549   -1.5848    5.5293 N   0  0  0  0  0  0  0  0  0  0  0  0
    0.3213    0.4486    2.3945 H   0  0  0  0  0  0  0  0  0  0  0  0
    2.5875   -1.4353    4.1434 H   0  0  0  0  0  0  0  0  0  0  0  0
    4.6753    2.2106    4.5371 H   0  0  0  0  0  0  0  0  0  0  0  0
    4.5505   -2.6368    4.8621 H   0  0  0  0  0  0  0  0  0  0  0  0
    6.6356    1.0098    5.2606 H   0  0  0  0  0  0  0  0  0  0  0  0
   -1.7251   -1.4607    0.0106 H   0  0  0  0  0  0  0  0  0  0  0  0
   -0.2602   -2.3048   -0.5063 H   0  0  0  0  0  0  0  0  0  0  0  0
   -0.5110   -1.9050    1.2175 H   0  0  0  0  0  0  0  0  0  0  0  0
    7.6628   -1.1022    5.7602 H   0  0  0  0  0  0  0  0  0  0  0  0
    6.8403   -2.5518    5.5889 H   0  0  0  0  0  0  0  0  0  0  0  0
  1  2  1  0  0  0  0 
  1  3  2  0  0  0  0 
  1  4  2  0  0  0  0 
  1  5  1  0  0  0  0 
  2  6  1  0  0  0  0 
  5  7  2  0  0  0  0 
  5  8  1  0  0  0  0 
  6  9  1  0  0  0  0 
  6 10  2  0  0  0  0 
  7 11  1  0  0  0  0 
  8 12  2  0  0  0  0 
  9 13  1  0  0  0  0 
  9 14  2  0  0  0  0 
 10 15  1  0  0  0  0 
 11 16  2  0  0  0  0 
 12 16  1  0  0  0  0 
 13 17  1  0  0  0  0 
 14 15  1  0  0  0  0 
 16 18  1  0  0  0  0 
  2 19  1  0  0  0  0 
  7 20  1  0  0  0  0 
  8 21  1  0  0  0  0 
 11 22  1  0  0  0  0 
 12 23  1  0  0  0  0 
 17 24  1  0  0  0  0 
 17 25  1  0  0  0  0 
 17 26  1  0  0  0  0 
 18 27  1  0  0  0  0 
 18 28  1  0  0  0  0 
M  END
> <cdk:Title>
sulfametrole

> <Conformer>
1

> <SuperDrugID>
SD002264

$$$$
