styramate
  CDK     0628171801

 24 24  0  0  0  0  0  0  0  0999 V2000
   -1.7450   -1.5312   -0.5278 C   0  0  1  0  0  0  0  0  0  0  0  0
   -0.6578   -0.4618   -0.7964 C   0  0  1  0  0  0  0  0  0  0  0  0
   -2.5636   -1.1277    0.5690 O   0  0  0  0  0  0  0  0  0  0  0  0
   -2.5664   -1.7834   -1.7455 C   0  0  0  0  0  0  0  0  0  0  0  0
    0.1388   -0.2786    0.3797 O   0  0  0  0  0  0  0  0  0  0  0  0
   -3.5767   -0.8741   -2.1431 C   0  0  0  0  0  0  0  0  0  0  0  0
   -2.3226   -2.9189   -2.5559 C   0  0  0  0  0  0  0  0  0  0  0  0
    1.1716    0.5936    0.5305 C   0  0  0  0  0  0  0  0  0  0  0  0
   -4.3185   -1.0900   -3.3197 C   0  0  0  0  0  0  0  0  0  0  0  0
   -3.0567   -3.1316   -3.7379 C   0  0  0  0  0  0  0  0  0  0  0  0
    1.8409    0.6032    1.6911 N   0  0  0  0  0  0  0  0  0  0  0  0
    1.5213    1.3831   -0.3748 O   0  0  0  0  0  0  0  0  0  0  0  0
   -4.0563   -2.2171   -4.1187 C   0  0  0  0  0  0  0  0  0  0  0  0
   -1.2457   -2.4531   -0.2145 H   0  0  0  0  0  0  0  0  0  0  0  0
   -0.0137   -0.7944   -1.6142 H   0  0  0  0  0  0  0  0  0  0  0  0
   -1.1176    0.4906   -1.0745 H   0  0  0  0  0  0  0  0  0  0  0  0
   -1.9388   -1.0066    1.3168 H   0  0  0  0  0  0  0  0  0  0  0  0
   -3.7771   -0.0471   -1.5758 H   0  0  0  0  0  0  0  0  0  0  0  0
   -1.5993   -3.5949   -2.2941 H   0  0  0  0  0  0  0  0  0  0  0  0
   -5.0473   -0.4253   -3.5942 H   0  0  0  0  0  0  0  0  0  0  0  0
   -2.8621   -3.9481   -4.3221 H   0  0  0  0  0  0  0  0  0  0  0  0
    2.5723    1.2246    1.8199 H   0  0  0  0  0  0  0  0  0  0  0  0
    1.5978   -0.0105    2.4012 H   0  0  0  0  0  0  0  0  0  0  0  0
   -4.5902   -2.3721   -4.9773 H   0  0  0  0  0  0  0  0  0  0  0  0
  1  2  1  0  0  0  0 
  1  3  1  0  0  0  0 
  1  4  1  0  0  0  0 
  2  5  1  0  0  0  0 
  4  6  2  0  0  0  0 
  4  7  1  0  0  0  0 
  5  8  1  0  0  0  0 
  6  9  1  0  0  0  0 
  7 10  2  0  0  0  0 
  8 11  1  0  0  0  0 
  8 12  2  0  0  0  0 
  9 13  2  0  0  0  0 
 10 13  1  0  0  0  0 
 14  1  1  0  0  0  0 
 15  2  1  0  0  0  0 
 16  2  1  0  0  0  0 
 17  3  1  0  0  0  0 
 18  6  1  0  0  0  0 
 19  7  1  0  0  0  0 
 20  9  1  0  0  0  0 
 21 10  1  0  0  0  0 
 22 11  1  0  0  0  0 
 23 11  1  0  0  0  0 
 24 13  1  0  0  0  0 
M  END
> <cdk:Title>
styramate

> <Conformer>
1

> <SuperDrugID>
SD002233

$$$$
