pyrovalerone
  CDK     0628171801

 41 42  0  0  0  0  0  0  0  0999 V2000
    1.7712   -4.5124   -1.7088 C   0  0  2  0  0  0  0  0  0  0  0  0
    2.5570   -3.9931   -0.5416 C   0  0  0  0  0  0  0  0  0  0  0  0
    1.9371   -3.9945    0.5504 O   0  0  0  0  0  0  0  0  0  0  0  0
    3.9043   -3.4969   -0.5716 C   0  0  0  0  0  0  0  0  0  0  0  0
    4.6078   -3.2817    0.6440 C   0  0  0  0  0  0  0  0  0  0  0  0
    4.5900   -3.1774   -1.7710 C   0  0  0  0  0  0  0  0  0  0  0  0
    5.9217   -2.7805    0.6598 C   0  0  0  0  0  0  0  0  0  0  0  0
    5.9058   -2.6843   -1.7608 C   0  0  0  0  0  0  0  0  0  0  0  0
    6.5911   -2.4804   -0.5458 C   0  0  0  0  0  0  0  0  0  0  0  0
    7.9770   -1.9575   -0.5635 C   0  0  0  0  0  0  0  0  0  0  0  0
    0.6179   -3.5077   -2.0495 C   0  0  1  0  0  0  0  0  0  0  0  0
    1.2876   -5.9068   -1.3892 N   0  0  1  0  0  0  0  0  0  0  0  0
    0.3332   -6.5360   -2.3349 C   0  0  1  0  0  0  0  0  0  0  0  0
    0.3357   -8.0430   -2.0136 C   0  0  1  0  0  0  0  0  0  0  0  0
    1.6516   -8.2945   -1.2569 C   0  0  2  0  0  0  0  0  0  0  0  0
    2.3550   -6.9264   -1.2086 C   0  0  1  0  0  0  0  0  0  0  0  0
    1.0755   -2.0406   -2.3065 C   0  0  1  0  0  0  0  0  0  0  0  0
   -0.0865   -1.1021   -2.7012 C   0  0  0  0  0  0  0  0  0  0  0  0
    2.3898   -4.5884   -2.6046 H   0  0  0  0  0  0  0  0  0  0  0  0
    4.1696   -3.4888    1.5449 H   0  0  0  0  0  0  0  0  0  0  0  0
    4.1471   -3.2828   -2.6827 H   0  0  0  0  0  0  0  0  0  0  0  0
    6.3856   -2.6354    1.5600 H   0  0  0  0  0  0  0  0  0  0  0  0
    6.3622   -2.4679   -2.6516 H   0  0  0  0  0  0  0  0  0  0  0  0
    7.9948   -0.9834   -1.0569 H   0  0  0  0  0  0  0  0  0  0  0  0
    8.6240   -2.6430   -1.1153 H   0  0  0  0  0  0  0  0  0  0  0  0
    8.3848   -1.8380    0.4423 H   0  0  0  0  0  0  0  0  0  0  0  0
    0.1088   -3.8542   -2.9526 H   0  0  0  0  0  0  0  0  0  0  0  0
   -0.1122   -3.5136   -1.2351 H   0  0  0  0  0  0  0  0  0  0  0  0
   -0.6694   -6.1231   -2.1980 H   0  0  0  0  0  0  0  0  0  0  0  0
    0.6496   -6.3761   -3.3701 H   0  0  0  0  0  0  0  0  0  0  0  0
   -0.5196   -8.3033   -1.3835 H   0  0  0  0  0  0  0  0  0  0  0  0
    0.2888   -8.6340   -2.9326 H   0  0  0  0  0  0  0  0  0  0  0  0
    2.2704   -9.0333   -1.7735 H   0  0  0  0  0  0  0  0  0  0  0  0
    1.4458   -8.6559   -0.2450 H   0  0  0  0  0  0  0  0  0  0  0  0
    3.0950   -6.8700   -2.0141 H   0  0  0  0  0  0  0  0  0  0  0  0
    2.8642   -6.7940   -0.2507 H   0  0  0  0  0  0  0  0  0  0  0  0
    1.5319   -1.6331   -1.4015 H   0  0  0  0  0  0  0  0  0  0  0  0
    1.8265   -2.0230   -3.1010 H   0  0  0  0  0  0  0  0  0  0  0  0
    0.2840   -0.0803   -2.8082 H   0  0  0  0  0  0  0  0  0  0  0  0
   -0.8588   -1.1114   -1.9297 H   0  0  0  0  0  0  0  0  0  0  0  0
   -0.5269   -1.4132   -3.6503 H   0  0  0  0  0  0  0  0  0  0  0  0
  1  2  1  0  0  0  0 
  2  3  2  0  0  0  0 
  2  4  1  0  0  0  0 
  4  5  2  0  0  0  0 
  4  6  1  0  0  0  0 
  5  7  1  0  0  0  0 
  6  8  2  0  0  0  0 
  7  9  2  0  0  0  0 
  8  9  1  0  0  0  0 
  9 10  1  0  0  0  0 
  1 11  1  0  0  0  0 
  1 12  1  0  0  0  0 
 13 14  1  0  0  0  0 
 14 15  1  0  0  0  0 
 15 16  1  0  0  0  0 
 12 13  1  0  0  0  0 
 12 16  1  0  0  0  0 
 11 17  1  0  0  0  0 
 17 18  1  0  0  0  0 
 19  1  1  0  0  0  0 
 20  5  1  0  0  0  0 
 21  6  1  0  0  0  0 
 22  7  1  0  0  0  0 
 23  8  1  0  0  0  0 
 24 10  1  0  0  0  0 
 25 10  1  0  0  0  0 
 26 10  1  0  0  0  0 
 27 11  1  0  0  0  0 
 28 11  1  0  0  0  0 
 29 13  1  0  0  0  0 
 30 13  1  0  0  0  0 
 31 14  1  0  0  0  0 
 32 14  1  0  0  0  0 
 33 15  1  0  0  0  0 
 34 15  1  0  0  0  0 
 35 16  1  0  0  0  0 
 36 16  1  0  0  0  0 
 37 17  1  0  0  0  0 
 38 17  1  0  0  0  0 
 39 18  1  0  0  0  0 
 40 18  1  0  0  0  0 
 41 18  1  0  0  0  0 
M  END
> <cdk:Title>
pyrovalerone

> <Conformer>
1

> <SuperDrugID>
SD003023

$$$$
