flurbiprofen
  CDK     0628171801

 31 32  0  0  0  0  0  0  0  0999 V2000
    4.7026    1.7474   -2.5984 C   0  0  0  0  0  0  0  0  0  0  0  0
    5.0640    2.5924   -3.6632 C   0  0  0  0  0  0  0  0  0  0  0  0
    4.3820    3.8059   -3.8620 C   0  0  0  0  0  0  0  0  0  0  0  0
    3.3379    4.1762   -2.9961 C   0  0  0  0  0  0  0  0  0  0  0  0
    2.9760    3.3341   -1.9301 C   0  0  0  0  0  0  0  0  0  0  0  0
    3.6535    2.1095   -1.7207 C   0  0  0  0  0  0  0  0  0  0  0  0
    3.2821    1.2569   -0.6488 C   0  0  0  0  0  0  0  0  0  0  0  0
    1.6060   -0.0454    0.5820 C   0  0  0  0  0  0  0  0  0  0  0  0
    1.9553    0.7843   -0.5019 C   0  0  0  0  0  0  0  0  0  0  0  0
    4.2438    0.8719    0.3115 C   0  0  0  0  0  0  0  0  0  0  0  0
    3.8940    0.0315    1.3822 C   0  0  0  0  0  0  0  0  0  0  0  0
    2.5751   -0.4637    1.5271 C   0  0  0  0  0  0  0  0  0  0  0  0
    1.0271    1.0878   -1.3725 F   0  0  0  0  0  0  0  0  0  0  0  0
    2.2384   -1.4022    2.6480 C   0  0  1  0  0  0  0  0  0  0  0  0
    1.2215   -0.8037    3.6526 C   0  0  0  0  0  0  0  0  0  0  0  0
    1.7732   -2.7220    2.1496 C   0  0  0  0  0  0  0  0  0  0  0  0
    0.5668   -2.8732    1.5499 O   0  0  0  0  0  0  0  0  0  0  0  0
    2.4832   -3.7430    2.2930 O   0  0  0  0  0  0  0  0  0  0  0  0
    5.2037    0.8632   -2.4754 H   0  0  0  0  0  0  0  0  0  0  0  0
    5.8218    2.3230   -4.2942 H   0  0  0  0  0  0  0  0  0  0  0  0
    4.6446    4.4200   -4.6361 H   0  0  0  0  0  0  0  0  0  0  0  0
    2.8413    5.0579   -3.1388 H   0  0  0  0  0  0  0  0  0  0  0  0
    2.2165    3.6229   -1.3075 H   0  0  0  0  0  0  0  0  0  0  0  0
    0.6336   -0.3531    0.6695 H   0  0  0  0  0  0  0  0  0  0  0  0
    5.2103    1.2063    0.2445 H   0  0  0  0  0  0  0  0  0  0  0  0
    4.6208   -0.2151    2.0590 H   0  0  0  0  0  0  0  0  0  0  0  0
    3.1448   -1.5863    3.2378 H   0  0  0  0  0  0  0  0  0  0  0  0
    1.0811   -1.4872    4.4937 H   0  0  0  0  0  0  0  0  0  0  0  0
    1.5942    0.1438    4.0435 H   0  0  0  0  0  0  0  0  0  0  0  0
    0.2518   -0.6300    3.1845 H   0  0  0  0  0  0  0  0  0  0  0  0
    0.2839   -3.7557    1.2337 H   0  0  0  0  0  0  0  0  0  0  0  0
  1  2  2  0  0  0  0 
  2  3  1  0  0  0  0 
  3  4  2  0  0  0  0 
  4  5  1  0  0  0  0 
  5  6  2  0  0  0  0 
  1  6  1  0  0  0  0 
  6  7  1  0  0  0  0 
  8  9  1  0  0  0  0 
 10 11  2  0  0  0  0 
 11 12  1  0  0  0  0 
  8 12  2  0  0  0  0 
  9  7  2  0  0  0  0 
  7 10  1  0  0  0  0 
  9 13  1  0  0  0  0 
 14 12  1  0  0  0  0 
 14 15  1  0  0  0  0 
 14 16  1  0  0  0  0 
 16 17  1  0  0  0  0 
 16 18  2  0  0  0  0 
  1 19  1  0  0  0  0 
  2 20  1  0  0  0  0 
  3 21  1  0  0  0  0 
  4 22  1  0  0  0  0 
  5 23  1  0  0  0  0 
  8 24  1  0  0  0  0 
 10 25  1  0  0  0  0 
 11 26  1  0  0  0  0 
 14 27  1  0  0  0  0 
 15 28  1  0  0  0  0 
 15 29  1  0  0  0  0 
 15 30  1  0  0  0  0 
 17 31  1  0  0  0  0 
M  END
> <cdk:Title>
flurbiprofen

> <Conformer>
1

> <SuperDrugID>
SD001092

$$$$
