phenamine
  CDK     0628171801

 28 28  0  0  0  0  0  0  0  0999 V2000
    4.7186    4.7198   -1.8369 N   0  0  0  0  0  0  0  0  0  0  0  0
    4.4979    5.7991   -2.6462 C   0  0  0  0  0  0  0  0  0  0  0  0
    3.8393    3.8696   -1.2191 C   0  0  0  0  0  0  0  0  0  0  0  0
    5.6561    6.5564   -3.1571 C   0  0  2  0  0  0  0  0  0  0  0  0
    3.3565    6.2022   -2.9715 O   0  0  0  0  0  0  0  0  0  0  0  0
    2.4523    3.7730   -1.4924 C   0  0  0  0  0  0  0  0  0  0  0  0
    4.3890    3.0056   -0.2412 C   0  0  0  0  0  0  0  0  0  0  0  0
    5.5875    7.9537   -2.7152 N   0  0  2  0  0  0  0  0  0  0  0  0
    1.6448    2.8476   -0.8044 C   0  0  0  0  0  0  0  0  0  0  0  0
    3.5818    2.0808    0.4487 C   0  0  0  0  0  0  0  0  0  0  0  0
    2.2059    1.9917    0.1621 C   0  0  0  0  0  0  0  0  0  0  0  0
    1.4089    1.0986    0.8317 O   0  0  0  0  0  0  0  0  0  0  0  0
    1.3571   -0.2016    0.2065 C   0  0  1  0  0  0  0  0  0  0  0  0
    0.4452   -1.1348    1.0279 C   0  0  0  0  0  0  0  0  0  0  0  0
    5.6549    4.5343   -1.6630 H   0  0  0  0  0  0  0  0  0  0  0  0
    5.6563    6.5290   -4.2483 H   0  0  0  0  0  0  0  0  0  0  0  0
    6.5978    6.1298   -2.8041 H   0  0  0  0  0  0  0  0  0  0  0  0
    2.0086    4.3534   -2.2007 H   0  0  0  0  0  0  0  0  0  0  0  0
    5.3884    3.0429   -0.0198 H   0  0  0  0  0  0  0  0  0  0  0  0
    6.4207    8.4246   -3.0744 H   0  0  0  0  0  0  0  0  0  0  0  0
    5.6651    7.9539   -1.6953 H   0  0  0  0  0  0  0  0  0  0  0  0
    0.6440    2.7942   -1.0124 H   0  0  0  0  0  0  0  0  0  0  0  0
    3.9983    1.4706    1.1557 H   0  0  0  0  0  0  0  0  0  0  0  0
    0.9530   -0.1259   -0.8093 H   0  0  0  0  0  0  0  0  0  0  0  0
    2.3558   -0.6500    0.1600 H   0  0  0  0  0  0  0  0  0  0  0  0
   -0.5776   -0.7548    1.0316 H   0  0  0  0  0  0  0  0  0  0  0  0
    0.4455   -2.1377    0.5972 H   0  0  0  0  0  0  0  0  0  0  0  0
    0.8015   -1.1986    2.0569 H   0  0  0  0  0  0  0  0  0  0  0  0
  1  2  1  0  0  0  0 
  1  3  1  0  0  0  0 
  2  4  1  0  0  0  0 
  2  5  2  0  0  0  0 
  3  6  2  0  0  0  0 
  3  7  1  0  0  0  0 
  4  8  1  0  0  0  0 
  6  9  1  0  0  0  0 
  7 10  2  0  0  0  0 
  9 11  2  0  0  0  0 
 10 11  1  0  0  0  0 
 11 12  1  0  0  0  0 
 12 13  1  0  0  0  0 
 13 14  1  0  0  0  0 
  1 15  1  0  0  0  0 
  4 16  1  0  0  0  0 
  4 17  1  0  0  0  0 
  6 18  1  0  0  0  0 
  7 19  1  0  0  0  0 
  8 20  1  0  0  0  0 
  8 21  1  0  0  0  0 
  9 22  1  0  0  0  0 
 10 23  1  0  0  0  0 
 13 24  1  0  0  0  0 
 13 25  1  0  0  0  0 
 14 26  1  0  0  0  0 
 14 27  1  0  0  0  0 
 14 28  1  0  0  0  0 
M  END
> <cdk:Title>
phenamine

> <Conformer>
1

> <SuperDrugID>
SD002961

$$$$
