cyclothiazide
  CDK     0628171802

 40 43  0  0  0  0  0  0  0  0999 V2000
   -2.1319    3.6890    2.7351 O   0  0  0  0  0  0  0  0  0  0  0  0
   -2.8276    2.4212    3.4249 S   0  0  2  0  0  0  0  0  0  0  0  0
   -4.4099    2.4433    3.1665 O   0  0  0  0  0  0  0  0  0  0  0  0
   -2.5203    2.4633    5.1602 N   0  0  1  0  0  0  0  0  0  0  0  0
   -2.1289    0.9008    2.8668 C   0  0  0  0  0  0  0  0  0  0  0  0
   -2.8719    1.1664    5.7911 C   0  0  2  0  0  0  0  0  0  0  0  0
   -1.9981   -0.1355    3.8139 C   0  0  0  0  0  0  0  0  0  0  0  0
   -1.7046    0.7139    1.5376 C   0  0  0  0  0  0  0  0  0  0  0  0
   -2.3465    1.1358    7.2624 C   0  0  1  0  0  0  0  0  0  0  0  0
   -2.3512   -0.0021    5.1260 N   0  0  0  0  0  0  0  0  0  0  0  0
   -1.4751   -1.3750    3.3970 C   0  0  0  0  0  0  0  0  0  0  0  0
   -1.1431   -0.5166    1.1314 C   0  0  0  0  0  0  0  0  0  0  0  0
   -2.8207    2.3087    8.1919 C   0  0  2  0  0  0  0  0  0  0  0  0
   -2.8105   -0.1097    8.1030 C   0  0  2  0  0  0  0  0  0  0  0  0
   -1.0615   -1.5791    2.0658 C   0  0  0  0  0  0  0  0  0  0  0  0
   -0.5240   -0.6791   -0.5242 S   0  0  2  0  0  0  0  0  0  0  0  0
   -2.4885    1.7490    9.5932 C   0  0  2  0  0  0  0  0  0  0  0  0
   -4.2686    2.3419    8.2884 C   0  0  0  0  0  0  0  0  0  0  0  0
   -3.4374    0.5575    9.3640 C   0  0  1  0  0  0  0  0  0  0  0  0
   -0.4670   -3.1181    1.6648 Cl  0  0  0  0  0  0  0  0  0  0  0  0
    1.1935   -1.0546   -0.4687 N   0  0  2  0  0  0  0  0  0  0  0  0
   -0.7010    0.6755   -1.3648 O   0  0  0  0  0  0  0  0  0  0  0  0
   -1.2729   -1.8726   -1.2905 O   0  0  0  0  0  0  0  0  0  0  0  0
   -4.6431    1.2719    8.9895 C   0  0  0  0  0  0  0  0  0  0  0  0
   -1.5114    2.5757    5.2702 H   0  0  0  0  0  0  0  0  0  0  0  0
   -3.9626    1.0822    5.8009 H   0  0  0  0  0  0  0  0  0  0  0  0
   -1.8014    1.4809    0.8704 H   0  0  0  0  0  0  0  0  0  0  0  0
   -1.2499    1.1542    7.2199 H   0  0  0  0  0  0  0  0  0  0  0  0
   -2.2463   -0.7952    5.6754 H   0  0  0  0  0  0  0  0  0  0  0  0
   -1.3968   -2.1378    4.0747 H   0  0  0  0  0  0  0  0  0  0  0  0
   -2.3601    3.2776    7.9781 H   0  0  0  0  0  0  0  0  0  0  0  0
   -1.9592   -0.7381    8.3815 H   0  0  0  0  0  0  0  0  0  0  0  0
   -3.5458   -0.7314    7.5823 H   0  0  0  0  0  0  0  0  0  0  0  0
   -2.7790    2.4049   10.4246 H   0  0  0  0  0  0  0  0  0  0  0  0
   -1.4382    1.4588    9.7209 H   0  0  0  0  0  0  0  0  0  0  0  0
   -4.8701    3.0165    7.8817 H   0  0  0  0  0  0  0  0  0  0  0  0
   -3.5522   -0.1063   10.2235 H   0  0  0  0  0  0  0  0  0  0  0  0
    1.5125   -1.1221   -1.4372 H   0  0  0  0  0  0  0  0  0  0  0  0
    1.2805   -1.9892   -0.0628 H   0  0  0  0  0  0  0  0  0  0  0  0
   -5.5738    1.0045    9.1982 H   0  0  0  0  0  0  0  0  0  0  0  0
  1  2  2  0  0  0  0 
  2  3  2  0  0  0  0 
  2  4  1  0  0  0  0 
  2  5  1  0  0  0  0 
  4  6  1  0  0  0  0 
  5  7  2  0  0  0  0 
  5  8  1  0  0  0  0 
  6  9  1  0  0  0  0 
  6 10  1  0  0  0  0 
  7 10  1  0  0  0  0 
  7 11  1  0  0  0  0 
  8 12  2  0  0  0  0 
  9 13  1  0  0  0  0 
  9 14  1  0  0  0  0 
 11 15  2  0  0  0  0 
 12 15  1  0  0  0  0 
 12 16  1  0  0  0  0 
 13 17  1  0  0  0  0 
 13 18  1  0  0  0  0 
 14 19  1  0  0  0  0 
 15 20  1  0  0  0  0 
 16 21  1  0  0  0  0 
 16 22  2  0  0  0  0 
 16 23  2  0  0  0  0 
 17 19  1  0  0  0  0 
 18 24  2  0  0  0  0 
 19 24  1  0  0  0  0 
  4 25  1  0  0  0  0 
  6 26  1  0  0  0  0 
  8 27  1  0  0  0  0 
  9 28  1  0  0  0  0 
 10 29  1  0  0  0  0 
 11 30  1  0  0  0  0 
 13 31  1  0  0  0  0 
 14 32  1  0  0  0  0 
 14 33  1  0  0  0  0 
 17 34  1  0  0  0  0 
 17 35  1  0  0  0  0 
 18 36  1  0  0  0  0 
 19 37  1  0  0  0  0 
 21 38  1  0  0  0  0 
 21 39  1  0  0  0  0 
 24 40  1  0  0  0  0 
M  END
> <cdk:Title>
cyclothiazide

> <Conformer>
1

> <SuperDrugID>
SD000670

$$$$
