benzoxonium chloride
  CDK     0628171801

 68 68  0  0  0  0  0  0  0  0999 V2000
   -0.7002   -0.9005   -1.4094 N   0  0  2  0  0  0  0  0  0  0  0  0
   -1.5945   -1.2099   -0.1975 C   0  0  1  0  0  0  0  0  0  0  0  0
   -0.2980   -2.2149   -2.0964 C   0  0  2  0  0  0  0  0  0  0  0  0
    0.5747   -0.1645   -0.9756 C   0  0  1  0  0  0  0  0  0  0  0  0
   -1.4895    0.0129   -2.3571 C   0  0  2  0  0  0  0  0  0  0  0  0
   -2.1608   -0.0637    0.5880 C   0  0  0  0  0  0  0  0  0  0  0  0
   -1.4071   -3.1012   -2.7506 C   0  0  2  0  0  0  0  0  0  0  0  0
    1.6195   -0.8998   -0.0844 C   0  0  1  0  0  0  0  0  0  0  0  0
   -0.9379    0.3355   -3.7734 C   0  0  2  0  0  0  0  0  0  0  0  0
   -3.4424    0.4633    0.2857 C   0  0  0  0  0  0  0  0  0  0  0  0
   -1.4452    0.5076    1.6673 C   0  0  0  0  0  0  0  0  0  0  0  0
   -0.8525   -4.3403   -3.5105 C   0  0  2  0  0  0  0  0  0  0  0  0
    2.5977    0.0206    0.3905 O   0  0  0  0  0  0  0  0  0  0  0  0
   -1.8934    1.1178   -4.4854 O   0  0  0  0  0  0  0  0  0  0  0  0
   -3.9720    1.5461    1.0089 C   0  0  0  0  0  0  0  0  0  0  0  0
   -1.9736    1.5922    2.3924 C   0  0  0  0  0  0  0  0  0  0  0  0
   -1.9953   -5.2732   -3.9959 C   0  0  1  0  0  0  0  0  0  0  0  0
   -3.2370    2.1134    2.0636 C   0  0  0  0  0  0  0  0  0  0  0  0
   -1.4988   -6.5345   -4.7526 C   0  0  1  0  0  0  0  0  0  0  0  0
   -2.6765   -7.4461   -5.1953 C   0  0  1  0  0  0  0  0  0  0  0  0
   -2.2107   -8.7101   -5.9619 C   0  0  1  0  0  0  0  0  0  0  0  0
   -3.3975   -9.6061   -6.4096 C   0  0  1  0  0  0  0  0  0  0  0  0
   -2.9266  -10.8658   -7.1852 C   0  0  2  0  0  0  0  0  0  0  0  0
   -4.0990  -11.7734   -7.6456 C   0  0  2  0  0  0  0  0  0  0  0  0
   -3.6056  -13.0256   -8.4196 C   0  0  1  0  0  0  0  0  0  0  0  0
   -4.7540  -13.9505   -8.8918 C   0  0  0  0  0  0  0  0  0  0  0  0
   -2.4587   -1.7920   -0.5244 H   0  0  0  0  0  0  0  0  0  0  0  0
   -1.0839   -1.8767    0.5012 H   0  0  0  0  0  0  0  0  0  0  0  0
    0.1996   -2.8654   -1.3700 H   0  0  0  0  0  0  0  0  0  0  0  0
    0.4511   -2.0113   -2.8705 H   0  0  0  0  0  0  0  0  0  0  0  0
    1.1381    0.1474   -1.8579 H   0  0  0  0  0  0  0  0  0  0  0  0
    0.3089    0.7640   -0.4647 H   0  0  0  0  0  0  0  0  0  0  0  0
   -1.6435    0.9874   -1.8816 H   0  0  0  0  0  0  0  0  0  0  0  0
   -2.4910   -0.3988   -2.5157 H   0  0  0  0  0  0  0  0  0  0  0  0
   -1.9867   -2.5084   -3.4598 H   0  0  0  0  0  0  0  0  0  0  0  0
   -2.0851   -3.4622   -1.9736 H   0  0  0  0  0  0  0  0  0  0  0  0
    1.1544   -1.3681    0.7807 H   0  0  0  0  0  0  0  0  0  0  0  0
    2.1404   -1.6682   -0.6589 H   0  0  0  0  0  0  0  0  0  0  0  0
   -0.7599   -0.5756   -4.3443 H   0  0  0  0  0  0  0  0  0  0  0  0
   -0.0142    0.9112   -3.7131 H   0  0  0  0  0  0  0  0  0  0  0  0
   -4.0060    0.0615   -0.4693 H   0  0  0  0  0  0  0  0  0  0  0  0
   -0.5317    0.1378    1.9366 H   0  0  0  0  0  0  0  0  0  0  0  0
   -0.1903   -4.9050   -2.8503 H   0  0  0  0  0  0  0  0  0  0  0  0
   -0.2686   -4.0042   -4.3717 H   0  0  0  0  0  0  0  0  0  0  0  0
    3.2127   -0.5177    0.9347 H   0  0  0  0  0  0  0  0  0  0  0  0
   -1.5138    1.2441   -5.3812 H   0  0  0  0  0  0  0  0  0  0  0  0
   -4.8920    1.9221    0.7664 H   0  0  0  0  0  0  0  0  0  0  0  0
   -1.4369    2.0025    3.1589 H   0  0  0  0  0  0  0  0  0  0  0  0
   -2.5761   -5.5970   -3.1289 H   0  0  0  0  0  0  0  0  0  0  0  0
   -2.6582   -4.7054   -4.6534 H   0  0  0  0  0  0  0  0  0  0  0  0
   -3.6211    2.9015    2.5903 H   0  0  0  0  0  0  0  0  0  0  0  0
   -0.9311   -6.2247   -5.6349 H   0  0  0  0  0  0  0  0  0  0  0  0
   -0.8302   -7.1043   -4.1007 H   0  0  0  0  0  0  0  0  0  0  0  0
   -3.2371   -7.7554   -4.3081 H   0  0  0  0  0  0  0  0  0  0  0  0
   -3.3495   -6.8696   -5.8369 H   0  0  0  0  0  0  0  0  0  0  0  0
   -1.6449   -8.4021   -6.8450 H   0  0  0  0  0  0  0  0  0  0  0  0
   -1.5467   -9.2931   -5.3182 H   0  0  0  0  0  0  0  0  0  0  0  0
   -3.9623   -9.9203   -5.5271 H   0  0  0  0  0  0  0  0  0  0  0  0
   -4.0651   -9.0223   -7.0498 H   0  0  0  0  0  0  0  0  0  0  0  0
   -2.2587  -11.4464   -6.5417 H   0  0  0  0  0  0  0  0  0  0  0  0
   -2.3582  -10.5465   -8.0640 H   0  0  0  0  0  0  0  0  0  0  0  0
   -4.7658  -11.1952   -8.2895 H   0  0  0  0  0  0  0  0  0  0  0  0
   -4.6659  -12.0954   -6.7690 H   0  0  0  0  0  0  0  0  0  0  0  0
   -3.0366  -12.7074   -9.2970 H   0  0  0  0  0  0  0  0  0  0  0  0
   -2.9367  -13.6063   -7.7791 H   0  0  0  0  0  0  0  0  0  0  0  0
   -5.4566  -13.3195   -9.5184 H   0  0  0  0  0  0  0  0  0  0  0  0
   -5.3553  -14.2339   -7.9738 H   0  0  0  0  0  0  0  0  0  0  0  0
   -4.2392  -14.8428   -9.4539 H   0  0  0  0  0  0  0  0  0  0  0  0
  1  2  1  0  0  0  0 
  1  3  1  0  0  0  0 
  1  4  1  0  0  0  0 
  1  5  1  0  0  0  0 
  2  6  1  0  0  0  0 
  3  7  1  0  0  0  0 
  4  8  1  0  0  0  0 
  5  9  1  0  0  0  0 
  6 10  2  0  0  0  0 
  6 11  1  0  0  0  0 
  7 12  1  0  0  0  0 
  8 13  1  0  0  0  0 
  9 14  1  0  0  0  0 
 10 15  1  0  0  0  0 
 11 16  2  0  0  0  0 
 12 17  1  0  0  0  0 
 15 18  2  0  0  0  0 
 16 18  1  0  0  0  0 
 17 19  1  0  0  0  0 
 19 20  1  0  0  0  0 
 20 21  1  0  0  0  0 
 21 22  1  0  0  0  0 
 22 23  1  0  0  0  0 
 23 24  1  0  0  0  0 
 24 25  1  0  0  0  0 
 25 26  1  0  0  0  0 
  2 27  1  0  0  0  0 
  2 28  1  0  0  0  0 
  3 29  1  0  0  0  0 
  3 30  1  0  0  0  0 
  4 31  1  0  0  0  0 
  4 32  1  0  0  0  0 
  5 33  1  0  0  0  0 
  5 34  1  0  0  0  0 
  7 35  1  0  0  0  0 
  7 36  1  0  0  0  0 
  8 37  1  0  0  0  0 
  8 38  1  0  0  0  0 
  9 39  1  0  0  0  0 
  9 40  1  0  0  0  0 
 10 41  1  0  0  0  0 
 11 42  1  0  0  0  0 
 12 43  1  0  0  0  0 
 12 44  1  0  0  0  0 
 13 45  1  0  0  0  0 
 14 46  1  0  0  0  0 
 15 47  1  0  0  0  0 
 16 48  1  0  0  0  0 
 17 49  1  0  0  0  0 
 17 50  1  0  0  0  0 
 18 51  1  0  0  0  0 
 19 52  1  0  0  0  0 
 19 53  1  0  0  0  0 
 20 54  1  0  0  0  0 
 20 55  1  0  0  0  0 
 21 56  1  0  0  0  0 
 21 57  1  0  0  0  0 
 22 58  1  0  0  0  0 
 22 59  1  0  0  0  0 
 23 60  1  0  0  0  0 
 23 61  1  0  0  0  0 
 24 62  1  0  0  0  0 
 24 63  1  0  0  0  0 
 25 64  1  0  0  0  0 
 25 65  1  0  0  0  0 
 26 66  1  0  0  0  0 
 26 67  1  0  0  0  0 
 26 68  1  0  0  0  0 
M  CHG  1   1   1
M  END
> <cdk:Title>
benzoxonium chloride

> <Conformer>
1

> <SuperDrugID>
SD002624

$$$$
