cerulenin
  CDK     0628171802

 33 33  0  0  0  0  0  0  0  0999 V2000
   -0.4529   -0.4226    1.6017 C   0  0  0  0  0  0  0  0  0  0  0  0
   -0.6854   -0.5687    0.1448 C   0  0  2  0  0  0  0  0  0  0  0  0
   -1.4332   -0.4030    2.3817 O   0  0  0  0  0  0  0  0  0  0  0  0
    0.9166   -0.3345    2.1505 C   0  0  2  0  0  0  0  0  0  0  0  0
   -0.2508    0.6571   -0.7029 C   0  0  2  0  0  0  0  0  0  0  0  0
    1.6060   -1.5515    2.7375 C   0  0  1  0  0  0  0  0  0  0  0  0
    1.0227   -0.5369    3.5685 O   0  0  0  0  0  0  0  0  0  0  0  0
   -1.0135    1.8589   -0.4027 C   0  0  0  0  0  0  0  0  0  0  0  0
    0.9189   -2.8497    2.7941 C   0  0  0  0  0  0  0  0  0  0  0  0
   -0.5899    2.8008    0.4583 C   0  0  0  0  0  0  0  0  0  0  0  0
    0.7726   -3.5935    1.6848 N   0  0  0  0  0  0  0  0  0  0  0  0
    0.4816   -3.2778    3.8852 O   0  0  0  0  0  0  0  0  0  0  0  0
   -1.3537    3.9962    0.7782 C   0  0  1  0  0  0  0  0  0  0  0  0
   -2.6223    3.7029    1.4272 C   0  0  0  0  0  0  0  0  0  0  0  0
   -2.7192    3.1453    2.6465 C   0  0  0  0  0  0  0  0  0  0  0  0
   -3.9949    2.7963    3.2323 C   0  0  0  0  0  0  0  0  0  0  0  0
   -1.7448   -0.7714   -0.0452 H   0  0  0  0  0  0  0  0  0  0  0  0
   -0.1295   -1.4428   -0.2002 H   0  0  0  0  0  0  0  0  0  0  0  0
    1.5605    0.4777    1.8099 H   0  0  0  0  0  0  0  0  0  0  0  0
   -0.3988    0.4147   -1.7576 H   0  0  0  0  0  0  0  0  0  0  0  0
    0.8216    0.8293   -0.5757 H   0  0  0  0  0  0  0  0  0  0  0  0
    2.6971   -1.5315    2.7075 H   0  0  0  0  0  0  0  0  0  0  0  0
   -1.8949    1.9730   -0.8518 H   0  0  0  0  0  0  0  0  0  0  0  0
    0.2846    2.6793    0.9129 H   0  0  0  0  0  0  0  0  0  0  0  0
    0.3232   -4.4530    1.7289 H   0  0  0  0  0  0  0  0  0  0  0  0
    1.1164   -3.2725    0.8370 H   0  0  0  0  0  0  0  0  0  0  0  0
   -0.7674    4.6491    1.4312 H   0  0  0  0  0  0  0  0  0  0  0  0
   -1.5329    4.5476   -0.1489 H   0  0  0  0  0  0  0  0  0  0  0  0
   -3.4564    3.9123    0.9246 H   0  0  0  0  0  0  0  0  0  0  0  0
   -1.8894    2.9379    3.1574 H   0  0  0  0  0  0  0  0  0  0  0  0
   -3.8620    2.4404    4.2561 H   0  0  0  0  0  0  0  0  0  0  0  0
   -4.6584    3.6639    3.2502 H   0  0  0  0  0  0  0  0  0  0  0  0
   -4.4606    2.0014    2.6448 H   0  0  0  0  0  0  0  0  0  0  0  0
  1  2  1  0  0  0  0 
  1  3  2  0  0  0  0 
  2  5  1  0  0  0  0 
  4  1  1  0  0  0  0 
  6  4  1  0  0  0  0 
  4  7  1  0  0  0  0 
  5  8  1  0  0  0  0 
  6  7  1  0  0  0  0 
  6  9  1  0  0  0  0 
  8 10  2  0  0  0  0 
  9 11  1  0  0  0  0 
  9 12  2  0  0  0  0 
 10 13  1  0  0  0  0 
 13 14  1  0  0  0  0 
 14 15  2  0  0  0  0 
 15 16  1  0  0  0  0 
  2 17  1  0  0  0  0 
  2 18  1  0  0  0  0 
  4 19  1  0  0  0  0 
  5 20  1  0  0  0  0 
  5 21  1  0  0  0  0 
  6 22  1  0  0  0  0 
  8 23  1  0  0  0  0 
 10 24  1  0  0  0  0 
 11 25  1  0  0  0  0 
 11 26  1  0  0  0  0 
 13 27  1  0  0  0  0 
 13 28  1  0  0  0  0 
 14 29  1  0  0  0  0 
 15 30  1  0  0  0  0 
 16 31  1  0  0  0  0 
 16 32  1  0  0  0  0 
 16 33  1  0  0  0  0 
M  END
> <cdk:Title>
cerulenin

> <Conformer>
1

> <SuperDrugID>
SD000505

$$$$
