mometasone furoate
  CDK     0628171801

 65 69  0  0  0  0  0  0  0  0999 V2000
    2.0908   -2.7776   -5.2466 Cl  0  0  0  0  0  0  0  0  0  0  0  0
    0.9704   -2.7374   -3.8499 C   0  0  2  0  0  0  0  0  0  0  0  0
    1.3915   -1.5221   -2.9181 C   0  0  2  0  0  0  0  0  0  0  0  0
    1.1445   -4.1240   -3.0499 C   0  0  2  0  0  0  0  0  0  0  0  0
   -0.4456   -2.4864   -4.5275 C   0  0  1  0  0  0  0  0  0  0  0  0
    1.1243   -0.1303   -3.5927 C   0  0  1  0  0  0  0  0  0  0  0  0
    2.8496   -1.6953   -2.3813 C   0  0  2  0  0  0  0  0  0  0  0  0
    0.1984   -4.3403   -1.8035 C   0  0  0  0  0  0  0  0  0  0  0  0
    2.5472   -4.1916   -2.5123 C   0  0  0  0  0  0  0  0  0  0  0  0
    0.8167   -5.2721   -3.9340 C   0  0  0  0  0  0  0  0  0  0  0  0
   -1.5395   -2.8507   -3.6956 O   0  0  0  0  0  0  0  0  0  0  0  0
   -0.6852   -1.0295   -5.0607 C   0  0  1  0  0  0  0  0  0  0  0  0
   -0.3689    0.0957   -4.0104 C   0  0  1  0  0  0  0  0  0  0  0  0
    1.4865    1.1483   -2.8116 C   0  0  1  0  0  0  0  0  0  0  0  0
    3.0585   -3.0748   -1.7018 C   0  0  2  0  0  0  0  0  0  0  0  0
    3.3349   -5.2631   -2.7625 C   0  0  0  0  0  0  0  0  0  0  0  0
    1.6523   -6.3023   -4.1380 C   0  0  0  0  0  0  0  0  0  0  0  0
   -1.4071   -0.0198   -2.8117 C   0  0  0  0  0  0  0  0  0  0  0  0
   -0.3129    1.5954   -4.5442 C   0  0  1  0  0  0  0  0  0  0  0  0
    0.5795    2.2668   -3.4130 C   0  0  2  0  0  0  0  0  0  0  0  0
    2.8966   -6.3266   -3.5376 C   0  0  0  0  0  0  0  0  0  0  0  0
    0.3875    1.6677   -5.8302 O   0  0  0  0  0  0  0  0  0  0  0  0
   -1.6873    2.2048   -4.7081 C   0  0  0  0  0  0  0  0  0  0  0  0
    1.3749    3.5520   -3.7673 C   0  0  0  0  0  0  0  0  0  0  0  0
    3.6377   -7.3232   -3.7054 O   0  0  0  0  0  0  0  0  0  0  0  0
    0.5162    2.7270   -6.7135 C   0  0  0  0  0  0  0  0  0  0  0  0
    1.3078    2.6626   -7.8793 C   0  0  0  0  0  0  0  0  0  0  0  0
   -0.0929    3.8040   -6.5073 O   0  0  0  0  0  0  0  0  0  0  0  0
    1.4354    3.8088   -8.6754 O   0  0  0  0  0  0  0  0  0  0  0  0
    2.2980    3.2466   -9.6473 C   0  0  0  0  0  0  0  0  0  0  0  0
    2.6598    1.8667   -9.4757 C   0  0  0  0  0  0  0  0  0  0  0  0
    2.0119    1.4768   -8.3033 C   0  0  0  0  0  0  0  0  0  0  0  0
   -2.0958    3.0811   -3.9095 O   0  0  0  0  0  0  0  0  0  0  0  0
   -2.6139    1.8673   -5.8133 C   0  0  1  0  0  0  0  0  0  0  0  0
   -4.1221    1.1818   -5.2178 Cl  0  0  0  0  0  0  0  0  0  0  0  0
    0.7778   -1.5412   -2.0218 H   0  0  0  0  0  0  0  0  0  0  0  0
   -0.5540   -3.1544   -5.3866 H   0  0  0  0  0  0  0  0  0  0  0  0
    1.7579   -0.1044   -4.4900 H   0  0  0  0  0  0  0  0  0  0  0  0
    3.0644   -0.9199   -1.6403 H   0  0  0  0  0  0  0  0  0  0  0  0
    3.5762   -1.5740   -3.1892 H   0  0  0  0  0  0  0  0  0  0  0  0
    0.5125   -5.2180   -1.2292 H   0  0  0  0  0  0  0  0  0  0  0  0
   -0.8395   -4.5199   -2.0842 H   0  0  0  0  0  0  0  0  0  0  0  0
    0.2028   -3.4965   -1.1167 H   0  0  0  0  0  0  0  0  0  0  0  0
   -0.0707   -5.3021   -4.3839 H   0  0  0  0  0  0  0  0  0  0  0  0
   -2.3344   -2.7557   -4.2601 H   0  0  0  0  0  0  0  0  0  0  0  0
   -0.0676   -0.8872   -5.9501 H   0  0  0  0  0  0  0  0  0  0  0  0
   -1.7191   -0.9447   -5.3978 H   0  0  0  0  0  0  0  0  0  0  0  0
    1.2747    1.0115   -1.7449 H   0  0  0  0  0  0  0  0  0  0  0  0
    2.5541    1.3698   -2.9131 H   0  0  0  0  0  0  0  0  0  0  0  0
    2.5410   -3.0735   -0.7407 H   0  0  0  0  0  0  0  0  0  0  0  0
    4.1244   -3.1763   -1.4761 H   0  0  0  0  0  0  0  0  0  0  0  0
    4.2537   -5.3089   -2.3856 H   0  0  0  0  0  0  0  0  0  0  0  0
    1.3668   -7.0552   -4.7233 H   0  0  0  0  0  0  0  0  0  0  0  0
   -1.3097   -0.9348   -2.2390 H   0  0  0  0  0  0  0  0  0  0  0  0
   -1.3142    0.7868   -2.0892 H   0  0  0  0  0  0  0  0  0  0  0  0
   -2.4303    0.0066   -3.1845 H   0  0  0  0  0  0  0  0  0  0  0  0
   -0.0711    2.5858   -2.5939 H   0  0  0  0  0  0  0  0  0  0  0  0
    2.1191    3.3588   -4.5419 H   0  0  0  0  0  0  0  0  0  0  0  0
    0.6955    4.3375   -4.1004 H   0  0  0  0  0  0  0  0  0  0  0  0
    1.8931    3.9210   -2.8795 H   0  0  0  0  0  0  0  0  0  0  0  0
    2.6948    3.7657  -10.4749 H   0  0  0  0  0  0  0  0  0  0  0  0
    3.2608    1.3045  -10.0821 H   0  0  0  0  0  0  0  0  0  0  0  0
    2.0379    0.5579   -7.8568 H   0  0  0  0  0  0  0  0  0  0  0  0
   -2.8553    2.7752   -6.3684 H   0  0  0  0  0  0  0  0  0  0  0  0
   -2.1682    1.1574   -6.5080 H   0  0  0  0  0  0  0  0  0  0  0  0
  2  1  1  0  0  0  0 
  2  3  1  0  0  0  0 
  2  4  1  0  0  0  0 
  2  5  1  0  0  0  0 
  3  6  1  0  0  0  0 
  3  7  1  0  0  0  0 
  4  8  1  0  0  0  0 
  4  9  1  0  0  0  0 
  4 10  1  0  0  0  0 
  5 11  1  0  0  0  0 
  5 12  1  0  0  0  0 
  6 13  1  0  0  0  0 
  6 14  1  0  0  0  0 
  7 15  1  0  0  0  0 
  9 15  1  0  0  0  0 
  9 16  2  0  0  0  0 
 10 17  2  0  0  0  0 
 13 12  1  0  0  0  0 
 13 18  1  0  0  0  0 
 13 19  1  0  0  0  0 
 20 14  1  0  0  0  0 
 16 21  1  0  0  0  0 
 17 21  1  0  0  0  0 
 19 20  1  0  0  0  0 
 19 22  1  0  0  0  0 
 19 23  1  0  0  0  0 
 20 24  1  0  0  0  0 
 21 25  2  0  0  0  0 
 22 26  1  0  0  0  0 
 26 27  1  0  0  0  0 
 26 28  2  0  0  0  0 
 29 30  1  0  0  0  0 
 30 31  2  0  0  0  0 
 31 32  1  0  0  0  0 
 27 29  1  0  0  0  0 
 27 32  2  0  0  0  0 
 23 33  2  0  0  0  0 
 23 34  1  0  0  0  0 
 34 35  1  0  0  0  0 
  3 36  1  0  0  0  0 
  5 37  1  0  0  0  0 
  6 38  1  0  0  0  0 
 39  7  1  0  0  0  0 
 40  7  1  0  0  0  0 
 41  8  1  0  0  0  0 
 42  8  1  0  0  0  0 
 43  8  1  0  0  0  0 
 44 10  1  0  0  0  0 
 45 11  1  0  0  0  0 
 46 12  1  0  0  0  0 
 47 12  1  0  0  0  0 
 48 14  1  0  0  0  0 
 49 14  1  0  0  0  0 
 50 15  1  0  0  0  0 
 51 15  1  0  0  0  0 
 52 16  1  0  0  0  0 
 53 17  1  0  0  0  0 
 54 18  1  0  0  0  0 
 55 18  1  0  0  0  0 
 56 18  1  0  0  0  0 
 20 57  1  0  0  0  0 
 58 24  1  0  0  0  0 
 59 24  1  0  0  0  0 
 60 24  1  0  0  0  0 
 61 30  1  0  0  0  0 
 62 31  1  0  0  0  0 
 63 32  1  0  0  0  0 
 64 34  1  0  0  0  0 
 65 34  1  0  0  0  0 
M  END
> <cdk:Title>
mometasone furoate

> <Conformer>
1

> <SuperDrugID>
SD001631

$$$$
