isoaminile
  CDK     0628171801

 42 42  0  0  0  0  0  0  0  0999 V2000
   -1.4704   -0.5379   -0.0205 C   0  0  2  0  0  0  0  0  0  0  0  0
   -1.6648   -2.0283   -0.5738 C   0  0  2  0  0  0  0  0  0  0  0  0
   -1.7602   -0.3306    1.4659 C   0  0  0  0  0  0  0  0  0  0  0  0
   -0.7227   -3.0982    0.0775 C   0  0  0  0  0  0  0  0  0  0  0  0
   -1.5586   -2.1924   -2.1255 C   0  0  0  0  0  0  0  0  0  0  0  0
   -2.5091   -1.2525    2.2497 C   0  0  0  0  0  0  0  0  0  0  0  0
   -1.3239    0.8477    2.1448 C   0  0  0  0  0  0  0  0  0  0  0  0
   -2.7729   -1.0403    3.6145 C   0  0  0  0  0  0  0  0  0  0  0  0
   -1.5758    1.0647    3.5123 C   0  0  0  0  0  0  0  0  0  0  0  0
   -2.3052    0.1193    4.2483 C   0  0  0  0  0  0  0  0  0  0  0  0
   -2.3199    0.5279   -0.8307 C   0  0  1  0  0  0  0  0  0  0  0  0
   -0.1268   -0.2357   -0.2284 C   0  0  0  0  0  0  0  0  0  0  0  0
    0.9826    0.0122   -0.3896 N   0  0  0  0  0  0  0  0  0  0  0  0
   -3.8804    0.3512   -0.8658 C   0  0  1  0  0  0  0  0  0  0  0  0
   -4.5216    0.5044    0.4934 N   0  0  2  0  0  0  0  0  0  0  0  0
   -4.5210    1.2516   -1.9653 C   0  0  0  0  0  0  0  0  0  0  0  0
   -5.7545   -0.3112    0.7101 C   0  0  0  0  0  0  0  0  0  0  0  0
   -4.6641    1.8970    1.0146 C   0  0  0  0  0  0  0  0  0  0  0  0
   -2.6855   -2.3441   -0.3462 H   0  0  0  0  0  0  0  0  0  0  0  0
    0.2978   -2.9955   -0.2997 H   0  0  0  0  0  0  0  0  0  0  0  0
   -1.0722   -4.1060   -0.1606 H   0  0  0  0  0  0  0  0  0  0  0  0
   -0.6907   -3.0072    1.1624 H   0  0  0  0  0  0  0  0  0  0  0  0
   -0.5990   -1.8277   -2.4925 H   0  0  0  0  0  0  0  0  0  0  0  0
   -2.3539   -1.6537   -2.6387 H   0  0  0  0  0  0  0  0  0  0  0  0
   -1.6580   -3.2414   -2.4116 H   0  0  0  0  0  0  0  0  0  0  0  0
   -2.8941   -2.0999    1.8426 H   0  0  0  0  0  0  0  0  0  0  0  0
   -0.8061    1.5744    1.6433 H   0  0  0  0  0  0  0  0  0  0  0  0
   -3.3135   -1.7266    4.1456 H   0  0  0  0  0  0  0  0  0  0  0  0
   -1.2302    1.9129    3.9689 H   0  0  0  0  0  0  0  0  0  0  0  0
   -2.5019    0.2778    5.2386 H   0  0  0  0  0  0  0  0  0  0  0  0
   -2.1080    1.5330   -0.4584 H   0  0  0  0  0  0  0  0  0  0  0  0
   -1.9702    0.5422   -1.8672 H   0  0  0  0  0  0  0  0  0  0  0  0
   -4.0623   -0.6692   -1.2094 H   0  0  0  0  0  0  0  0  0  0  0  0
   -5.6080    1.1691   -1.9425 H   0  0  0  0  0  0  0  0  0  0  0  0
   -4.1800    0.9409   -2.9546 H   0  0  0  0  0  0  0  0  0  0  0  0
   -4.2469    2.2983   -1.8253 H   0  0  0  0  0  0  0  0  0  0  0  0
   -5.5634   -1.3635    0.4786 H   0  0  0  0  0  0  0  0  0  0  0  0
   -6.5732    0.0519    0.0815 H   0  0  0  0  0  0  0  0  0  0  0  0
   -6.0693   -0.2657    1.7571 H   0  0  0  0  0  0  0  0  0  0  0  0
   -5.0152    1.8901    2.0494 H   0  0  0  0  0  0  0  0  0  0  0  0
   -5.3738    2.4757    0.4179 H   0  0  0  0  0  0  0  0  0  0  0  0
   -3.7019    2.4070    1.0045 H   0  0  0  0  0  0  0  0  0  0  0  0
  1  2  1  0  0  0  0 
  1  3  1  0  0  0  0 
  2  4  1  0  0  0  0 
  2  5  1  0  0  0  0 
  3  6  2  0  0  0  0 
  3  7  1  0  0  0  0 
  6  8  1  0  0  0  0 
  7  9  2  0  0  0  0 
  8 10  2  0  0  0  0 
  9 10  1  0  0  0  0 
  1 11  1  0  0  0  0 
  1 12  1  0  0  0  0 
 12 13  3  0  0  0  0 
 11 14  1  0  0  0  0 
 14 15  1  0  0  0  0 
 14 16  1  0  0  0  0 
 15 17  1  0  0  0  0 
 15 18  1  0  0  0  0 
  2 19  1  0  0  0  0 
  4 20  1  0  0  0  0 
  4 21  1  0  0  0  0 
  4 22  1  0  0  0  0 
  5 23  1  0  0  0  0 
  5 24  1  0  0  0  0 
  5 25  1  0  0  0  0 
  6 26  1  0  0  0  0 
  7 27  1  0  0  0  0 
  8 28  1  0  0  0  0 
  9 29  1  0  0  0  0 
 10 30  1  0  0  0  0 
 11 31  1  0  0  0  0 
 11 32  1  0  0  0  0 
 14 33  1  0  0  0  0 
 16 34  1  0  0  0  0 
 16 35  1  0  0  0  0 
 16 36  1  0  0  0  0 
 17 37  1  0  0  0  0 
 17 38  1  0  0  0  0 
 17 39  1  0  0  0  0 
 18 40  1  0  0  0  0 
 18 41  1  0  0  0  0 
 18 42  1  0  0  0  0 
M  END
> <cdk:Title>
isoaminile

> <Conformer>
1

> <SuperDrugID>
SD001318

$$$$
