methsuximide
  CDK     0628171801

 28 29  0  0  0  0  0  0  0  0999 V2000
   -0.9866   -2.0748    1.3399 C   0  0  0  0  0  0  0  0  0  0  0  0
   -0.4517   -1.2219    0.1390 C   0  0  2  0  0  0  0  0  0  0  0  0
   -1.5877   -1.0025   -0.7901 C   0  0  0  0  0  0  0  0  0  0  0  0
    0.5004   -2.1020   -0.7464 C   0  0  2  0  0  0  0  0  0  0  0  0
    0.1703    0.1147    0.5073 C   0  0  0  0  0  0  0  0  0  0  0  0
   -2.5976   -0.3226   -0.4848 O   0  0  0  0  0  0  0  0  0  0  0  0
   -1.4252   -1.6073   -1.9895 N   0  0  0  0  0  0  0  0  0  0  0  0
   -0.2459   -2.2659   -1.9967 C   0  0  0  0  0  0  0  0  0  0  0  0
    0.3140    0.5693    1.8480 C   0  0  0  0  0  0  0  0  0  0  0  0
    0.6464    0.9814   -0.5166 C   0  0  0  0  0  0  0  0  0  0  0  0
   -2.3631   -1.5308   -3.0742 C   0  0  0  0  0  0  0  0  0  0  0  0
    0.1926   -2.9453   -2.9546 O   0  0  0  0  0  0  0  0  0  0  0  0
    0.9019    1.8139    2.1458 C   0  0  0  0  0  0  0  0  0  0  0  0
    1.2363    2.2239   -0.2224 C   0  0  0  0  0  0  0  0  0  0  0  0
    1.3645    2.6417    1.1109 C   0  0  0  0  0  0  0  0  0  0  0  0
   -1.7615   -1.5381    1.8925 H   0  0  0  0  0  0  0  0  0  0  0  0
   -0.1697   -2.3127    2.0241 H   0  0  0  0  0  0  0  0  0  0  0  0
   -1.4181   -3.0187    0.9950 H   0  0  0  0  0  0  0  0  0  0  0  0
    0.7026   -3.0861   -0.3149 H   0  0  0  0  0  0  0  0  0  0  0  0
    1.4621   -1.6247   -0.9550 H   0  0  0  0  0  0  0  0  0  0  0  0
   -0.0065    0.0070    2.6359 H   0  0  0  0  0  0  0  0  0  0  0  0
    0.5677    0.7121   -1.5006 H   0  0  0  0  0  0  0  0  0  0  0  0
   -3.3606   -1.8281   -2.7398 H   0  0  0  0  0  0  0  0  0  0  0  0
   -2.0834   -2.1750   -3.9116 H   0  0  0  0  0  0  0  0  0  0  0  0
   -2.4074   -0.5021   -3.4386 H   0  0  0  0  0  0  0  0  0  0  0  0
    0.9936    2.1159    3.1196 H   0  0  0  0  0  0  0  0  0  0  0  0
    1.5738    2.8236   -0.9780 H   0  0  0  0  0  0  0  0  0  0  0  0
    1.7954    3.5439    1.3291 H   0  0  0  0  0  0  0  0  0  0  0  0
  2  1  1  0  0  0  0 
  2  3  1  0  0  0  0 
  2  4  1  0  0  0  0 
  2  5  1  0  0  0  0 
  3  6  2  0  0  0  0 
  3  7  1  0  0  0  0 
  4  8  1  0  0  0  0 
  5  9  2  0  0  0  0 
  5 10  1  0  0  0  0 
  7  8  1  0  0  0  0 
  7 11  1  0  0  0  0 
  8 12  2  0  0  0  0 
  9 13  1  0  0  0  0 
 10 14  2  0  0  0  0 
 13 15  2  0  0  0  0 
 14 15  1  0  0  0  0 
  1 16  1  0  0  0  0 
  1 17  1  0  0  0  0 
  1 18  1  0  0  0  0 
  4 19  1  0  0  0  0 
  4 20  1  0  0  0  0 
  9 21  1  0  0  0  0 
 10 22  1  0  0  0  0 
 11 23  1  0  0  0  0 
 11 24  1  0  0  0  0 
 11 25  1  0  0  0  0 
 13 26  1  0  0  0  0 
 14 27  1  0  0  0  0 
 15 28  1  0  0  0  0 
M  END
> <cdk:Title>
methsuximide

> <Conformer>
1

> <SuperDrugID>
SD001558

$$$$
