voxilaprevir
  Mrv0541 09131710093D             600.04748

112118  0  0  0  0            999 V2000
   -8.8078   -5.7449   -2.9374 C   0  0  0  0  0  0  0  0  0  0  0  0
   -7.4977   -4.9832   -3.2072 C   0  0  1  0  0  0  0  0  0  0  0  0
   -6.1652   -5.5167   -2.5529 C   0  0  2  0  0  0  0  0  0  0  0  0
   -5.0353   -4.4553   -2.7881 C   0  0  2  0  0  0  0  0  0  0  0  0
   -4.2101   -5.0320   -3.9720 C   0  0  2  0  0  0  0  0  0  0  0  0
   -4.9576   -6.1883   -4.3769 N   0  0  0  0  0  0  0  0  0  0  0  0
   -5.4969   -6.7883   -3.1688 C   0  0  2  0  0  0  0  0  0  0  0  0
   -6.2097   -8.0997   -3.1926 C   0  0  0  0  0  0  0  0  0  0  0  0
   -5.6827   -9.0464   -3.8265 O   0  0  0  0  0  0  0  0  0  0  0  0
   -7.3352   -8.3430   -2.4712 N   0  0  0  0  0  0  0  0  0  0  0  0
   -8.1397   -9.5220   -2.5771 C   0  0  2  0  0  0  0  0  0  0  0  0
   -8.5212  -10.1470   -1.2139 C   0  0  1  0  0  0  0  0  0  0  0  0
   -7.5364  -10.8802   -2.1340 C   0  0  1  0  0  0  0  0  0  0  0  0
   -7.9887  -12.1975   -2.8072 C   0  0  2  0  0  0  0  0  0  0  0  0
   -7.6995  -13.2599   -1.9886 F   0  0  0  0  0  0  0  0  0  0  0  0
   -7.3006  -12.3524   -3.9833 F   0  0  0  0  0  0  0  0  0  0  0  0
   -9.2495   -9.4325   -3.5506 C   0  0  0  0  0  0  0  0  0  0  0  0
   -9.1096   -9.9707   -4.6718 O   0  0  0  0  0  0  0  0  0  0  0  0
  -10.3444   -8.6996   -3.2298 N   0  0  0  0  0  0  0  0  0  0  0  0
  -11.6522   -8.3227   -4.2751 S   0  0  2  0  0  0  0  0  0  0  0  0
  -12.3048   -6.9484   -3.7629 O   0  0  0  0  0  0  0  0  0  0  0  0
  -12.7619   -9.4750   -4.1476 O   0  0  0  0  0  0  0  0  0  0  0  0
  -11.1146   -8.0898   -6.0218 C   0  0  1  0  0  0  0  0  0  0  0  0
  -10.0154   -7.0371   -6.3228 C   0  0  0  0  0  0  0  0  0  0  0  0
  -11.1380   -9.3417   -6.9193 C   0  0  1  0  0  0  0  0  0  0  0  0
  -12.2128   -8.2596   -7.0920 C   0  0  2  0  0  0  0  0  0  0  0  0
   -5.2118   -6.5399   -5.7058 C   0  0  0  0  0  0  0  0  0  0  0  0
   -5.9948   -7.4920   -5.9101 O   0  0  0  0  0  0  0  0  0  0  0  0
   -4.6368   -5.8436   -6.9146 C   0  0  1  0  0  0  0  0  0  0  0  0
   -3.2144   -5.9052   -6.7353 N   0  0  0  0  0  0  0  0  0  0  0  0
   -2.2604   -4.9497   -6.9266 C   0  0  0  0  0  0  0  0  0  0  0  0
   -1.0919   -5.3290   -6.6978 O   0  0  0  0  0  0  0  0  0  0  0  0
   -2.3499   -3.6754   -7.4116 O   0  0  0  0  0  0  0  0  0  0  0  0
   -3.3179   -2.6280   -7.2630 C   0  0  2  0  0  0  0  0  0  0  0  0
   -2.7858   -1.3467   -7.9352 C   0  0  1  0  0  0  0  0  0  0  0  0
   -2.9450   -1.3995   -6.4097 C   0  0  1  0  0  0  0  0  0  0  0  0
   -4.0384   -0.4995   -5.7669 C   0  0  1  0  0  0  0  0  0  0  0  0
   -4.7234   -1.1630   -4.5410 C   0  0  1  0  0  0  0  0  0  0  0  0
   -5.3106   -0.1528   -3.5062 C   0  0  2  0  0  0  0  0  0  0  0  0
   -5.9878   -0.7894   -2.2492 C   0  0  2  0  0  0  0  0  0  0  0  0
   -5.0862   -1.2786   -1.0587 C   0  0  1  0  0  0  0  0  0  0  0  0
   -4.9193   -0.2397   -0.1640 F   0  0  0  0  0  0  0  0  0  0  0  0
   -5.7825   -2.2149   -0.3251 F   0  0  0  0  0  0  0  0  0  0  0  0
   -3.7357   -1.7900   -1.4328 C   0  0  0  0  0  0  0  0  0  0  0  0
   -2.7505   -0.8625   -1.6033 N   0  0  0  0  0  0  0  0  0  0  0  0
   -1.4864   -1.1526   -1.9932 C   0  0  0  0  0  0  0  0  0  0  0  0
   -0.5148   -0.1487   -2.1679 C   0  0  0  0  0  0  0  0  0  0  0  0
    0.7766   -0.4969   -2.6071 C   0  0  0  0  0  0  0  0  0  0  0  0
    1.1043   -1.8456   -2.8638 C   0  0  0  0  0  0  0  0  0  0  0  0
    2.3467   -2.1669   -3.3402 O   0  0  0  0  0  0  0  0  0  0  0  0
    3.2682   -2.5614   -2.3094 C   0  0  0  0  0  0  0  0  0  0  0  0
    0.1325   -2.8508   -2.6696 C   0  0  0  0  0  0  0  0  0  0  0  0
   -1.1609   -2.5079   -2.2351 C   0  0  0  0  0  0  0  0  0  0  0  0
   -2.1236   -3.4462   -2.0548 N   0  0  0  0  0  0  0  0  0  0  0  0
   -3.3964   -3.1508   -1.6776 C   0  0  0  0  0  0  0  0  0  0  0  0
   -4.2782   -4.2002   -1.5768 O   0  0  0  0  0  0  0  0  0  0  0  0
   -5.0691   -6.3638   -8.3630 C   0  0  2  0  0  0  0  0  0  0  0  0
   -4.5070   -7.7974   -8.6640 C   0  0  0  0  0  0  0  0  0  0  0  0
   -4.4934   -5.4074   -9.4673 C   0  0  0  0  0  0  0  0  0  0  0  0
   -6.6352   -6.3550   -8.5461 C   0  0  0  0  0  0  0  0  0  0  0  0
   -8.8536   -6.6105   -3.5869 H   0  0  0  0  0  0  0  0  0  0  0  0
   -8.8757   -6.0502   -1.8918 H   0  0  0  0  0  0  0  0  0  0  0  0
   -9.6690   -5.1138   -3.1706 H   0  0  0  0  0  0  0  0  0  0  0  0
   -7.3746   -4.8904   -4.2922 H   0  0  0  0  0  0  0  0  0  0  0  0
   -7.6796   -3.9760   -2.8188 H   0  0  0  0  0  0  0  0  0  0  0  0
   -6.3288   -5.6648   -1.4836 H   0  0  0  0  0  0  0  0  0  0  0  0
   -5.4752   -3.5137   -3.1175 H   0  0  0  0  0  0  0  0  0  0  0  0
   -3.2168   -5.3532   -3.6463 H   0  0  0  0  0  0  0  0  0  0  0  0
   -4.0930   -4.2731   -4.7455 H   0  0  0  0  0  0  0  0  0  0  0  0
   -4.6439   -7.0531   -2.5252 H   0  0  0  0  0  0  0  0  0  0  0  0
   -7.6491   -7.6462   -1.8772 H   0  0  0  0  0  0  0  0  0  0  0  0
   -8.0665   -9.7088   -0.3228 H   0  0  0  0  0  0  0  0  0  0  0  0
   -9.5097  -10.6059   -1.1211 H   0  0  0  0  0  0  0  0  0  0  0  0
   -6.4978  -10.8336   -1.7956 H   0  0  0  0  0  0  0  0  0  0  0  0
   -9.0582  -12.2060   -3.0244 H   0  0  0  0  0  0  0  0  0  0  0  0
  -10.3829   -8.3327   -2.3324 H   0  0  0  0  0  0  0  0  0  0  0  0
   -9.0730   -7.3465   -5.8762 H   0  0  0  0  0  0  0  0  0  0  0  0
   -9.8454   -6.9097   -7.3936 H   0  0  0  0  0  0  0  0  0  0  0  0
  -10.3005   -6.0717   -5.9082 H   0  0  0  0  0  0  0  0  0  0  0  0
  -10.3773   -9.3930   -7.7023 H   0  0  0  0  0  0  0  0  0  0  0  0
  -11.4782  -10.2715   -6.4621 H   0  0  0  0  0  0  0  0  0  0  0  0
  -12.1263   -7.6805   -8.0146 H   0  0  0  0  0  0  0  0  0  0  0  0
  -13.2079   -8.5559   -6.7569 H   0  0  0  0  0  0  0  0  0  0  0  0
   -4.9789   -4.8153   -6.8327 H   0  0  0  0  0  0  0  0  0  0  0  0
   -2.8796   -6.7642   -6.4276 H   0  0  0  0  0  0  0  0  0  0  0  0
   -4.3613   -2.7843   -7.5366 H   0  0  0  0  0  0  0  0  0  0  0  0
   -1.7547   -1.3679   -8.2968 H   0  0  0  0  0  0  0  0  0  0  0  0
   -3.5234   -0.7686   -8.4973 H   0  0  0  0  0  0  0  0  0  0  0  0
   -2.0058   -1.5119   -5.8616 H   0  0  0  0  0  0  0  0  0  0  0  0
   -3.5321    0.4147   -5.4504 H   0  0  0  0  0  0  0  0  0  0  0  0
   -4.8048   -0.2201   -6.4953 H   0  0  0  0  0  0  0  0  0  0  0  0
   -5.5270   -1.8097   -4.9036 H   0  0  0  0  0  0  0  0  0  0  0  0
   -3.9890   -1.7925   -4.0493 H   0  0  0  0  0  0  0  0  0  0  0  0
   -6.0696    0.4364   -4.0277 H   0  0  0  0  0  0  0  0  0  0  0  0
   -4.5335    0.5409   -3.1799 H   0  0  0  0  0  0  0  0  0  0  0  0
   -6.6304   -1.6032   -2.5868 H   0  0  0  0  0  0  0  0  0  0  0  0
   -6.6730   -0.0375   -1.8442 H   0  0  0  0  0  0  0  0  0  0  0  0
   -0.7437    0.8319   -1.9841 H   0  0  0  0  0  0  0  0  0  0  0  0
    1.4789    0.2340   -2.7416 H   0  0  0  0  0  0  0  0  0  0  0  0
    4.2235   -2.7944   -2.7810 H   0  0  0  0  0  0  0  0  0  0  0  0
    3.4314   -1.7546   -1.5900 H   0  0  0  0  0  0  0  0  0  0  0  0
    2.9225   -3.4562   -1.7849 H   0  0  0  0  0  0  0  0  0  0  0  0
    0.3682   -3.8292   -2.8507 H   0  0  0  0  0  0  0  0  0  0  0  0
   -4.8406   -8.5247   -7.9246 H   0  0  0  0  0  0  0  0  0  0  0  0
   -4.8377   -8.1455   -9.6454 H   0  0  0  0  0  0  0  0  0  0  0  0
   -3.4151   -7.7953   -8.6638 H   0  0  0  0  0  0  0  0  0  0  0  0
   -4.8695   -4.3904   -9.3400 H   0  0  0  0  0  0  0  0  0  0  0  0
   -4.7781   -5.7428  -10.4686 H   0  0  0  0  0  0  0  0  0  0  0  0
   -3.4034   -5.3782   -9.4374 H   0  0  0  0  0  0  0  0  0  0  0  0
   -7.0189   -5.3171   -8.1521 H   0  0  0  0  0  0  0  0  0  0  0  0
   -6.8689   -6.5721   -9.6327 H   0  0  0  0  0  0  0  0  0  0  0  0
   -7.0780   -7.2586   -8.0333 H   0  0  0  0  0  0  0  0  0  0  0  0
  1  2  1  0  0  0  0
  3  2  1  0  0  0  0
  3  4  1  0  0  0  0
  4  5  1  0  0  0  0
  5  6  1  0  0  0  0
  6  7  1  0  0  0  0
  7  8  1  0  0  0  0
  8  9  2  0  0  0  0
  8 10  1  0  0  0  0
 11 10  1  0  0  0  0
 11 12  1  0  0  0  0
 12 13  1  0  0  0  0
 13 14  1  0  0  0  0
 14 15  1  0  0  0  0
 14 16  1  0  0  0  0
 11 17  1  0  0  0  0
 17 18  2  0  0  0  0
 17 19  1  0  0  0  0
 19 20  1  0  0  0  0
 20 21  2  0  0  0  0
 20 22  2  0  0  0  0
 20 23  1  0  0  0  0
 23 24  1  0  0  0  0
 23 25  1  0  0  0  0
 25 26  1  0  0  0  0
  6 27  1  0  0  0  0
 27 28  2  0  0  0  0
 27 29  1  0  0  0  0
 29 30  1  0  0  0  0
 30 31  1  0  0  0  0
 31 32  2  0  0  0  0
 31 33  1  0  0  0  0
 34 33  1  0  0  0  0
 34 35  1  0  0  0  0
 36 35  1  0  0  0  0
 36 37  1  0  0  0  0
 37 38  1  0  0  0  0
 38 39  1  0  0  0  0
 39 40  1  0  0  0  0
 40 41  1  0  0  0  0
 41 42  1  0  0  0  0
 41 43  1  0  0  0  0
 41 44  1  0  0  0  0
 44 45  2  0  0  0  0
 45 46  1  0  0  0  0
 46 47  2  0  0  0  0
 47 48  1  0  0  0  0
 48 49  2  0  0  0  0
 49 50  1  0  0  0  0
 50 51  1  0  0  0  0
 49 52  1  0  0  0  0
 52 53  2  0  0  0  0
 53 54  1  0  0  0  0
 54 55  2  0  0  0  0
 55 56  1  0  0  0  0
 29 57  1  0  0  0  0
 57 58  1  0  0  0  0
 57 59  1  0  0  0  0
 57 60  1  0  0  0  0
  7  3  1  0  0  0  0
 13 11  1  0  0  0  0
 26 23  1  0  0  0  0
 36 34  1  0  0  0  0
 55 44  1  0  0  0  0
  4 56  1  0  0  0  0
 53 46  1  0  0  0  0
  1 61  1  0  0  0  0
  1 62  1  0  0  0  0
  1 63  1  0  0  0  0
  2 64  1  0  0  0  0
  2 65  1  0  0  0  0
  3 66  1  0  0  0  0
  4 67  1  0  0  0  0
  5 68  1  0  0  0  0
  5 69  1  0  0  0  0
  7 70  1  0  0  0  0
 10 71  1  0  0  0  0
 12 72  1  0  0  0  0
 12 73  1  0  0  0  0
 13 74  1  0  0  0  0
 14 75  1  0  0  0  0
 19 76  1  0  0  0  0
 24 77  1  0  0  0  0
 24 78  1  0  0  0  0
 24 79  1  0  0  0  0
 25 80  1  0  0  0  0
 25 81  1  0  0  0  0
 26 82  1  0  0  0  0
 26 83  1  0  0  0  0
 29 84  1  0  0  0  0
 30 85  1  0  0  0  0
 34 86  1  0  0  0  0
 35 87  1  0  0  0  0
 35 88  1  0  0  0  0
 36 89  1  0  0  0  0
 37 90  1  0  0  0  0
 37 91  1  0  0  0  0
 38 92  1  0  0  0  0
 38 93  1  0  0  0  0
 39 94  1  0  0  0  0
 39 95  1  0  0  0  0
 40 96  1  0  0  0  0
 40 97  1  0  0  0  0
 47 98  1  0  0  0  0
 48 99  1  0  0  0  0
 51100  1  0  0  0  0
 51101  1  0  0  0  0
 51102  1  0  0  0  0
 52103  1  0  0  0  0
 58104  1  0  0  0  0
 58105  1  0  0  0  0
 58106  1  0  0  0  0
 59107  1  0  0  0  0
 59108  1  0  0  0  0
 59109  1  0  0  0  0
 60110  1  0  0  0  0
 60111  1  0  0  0  0
 60112  1  0  0  0  0
M  END
>  <SuperDrugID>
SD006008

>  <_MOLCOUNT>
1

$$$$
