theodrenaline
  CDK     0628171801

 48 50  0  0  0  0  0  0  0  0999 V2000
   -0.0635    0.0691   -0.8180 C   0  0  1  0  0  0  0  0  0  0  0  0
   -1.1791   -0.5480    0.0533 C   0  0  2  0  0  0  0  0  0  0  0  0
    1.1942    0.0705   -0.1250 N   0  0  0  0  0  0  0  0  0  0  0  0
   -0.8475   -1.9631    0.3310 N   0  0  1  0  0  0  0  0  0  0  0  0
    1.6754    0.9640    0.7655 C   0  0  0  0  0  0  0  0  0  0  0  0
    2.1384   -0.8853   -0.2405 C   0  0  0  0  0  0  0  0  0  0  0  0
   -1.8114   -2.6751    1.1927 C   0  0  2  0  0  0  0  0  0  0  0  0
    2.9310    0.5312    1.1705 C   0  0  0  0  0  0  0  0  0  0  0  0
    1.1729    2.1590    1.3096 C   0  0  0  0  0  0  0  0  0  0  0  0
    3.2001   -0.6216    0.5364 N   0  0  0  0  0  0  0  0  0  0  0  0
   -1.3649   -4.1451    1.4088 C   0  0  1  0  0  0  0  0  0  0  0  0
    3.6897    1.2158    2.0727 N   0  0  0  0  0  0  0  0  0  0  0  0
    0.0296    2.5378    0.9613 O   0  0  0  0  0  0  0  0  0  0  0  0
    1.9409    2.8719    2.2050 N   0  0  0  0  0  0  0  0  0  0  0  0
   -0.0602   -4.1985    1.9901 O   0  0  0  0  0  0  0  0  0  0  0  0
   -2.3696   -4.8600    2.2467 C   0  0  0  0  0  0  0  0  0  0  0  0
    4.9757    0.6872    2.4699 C   0  0  0  0  0  0  0  0  0  0  0  0
    3.1738    2.3808    2.5965 C   0  0  0  0  0  0  0  0  0  0  0  0
    1.4366    4.1202    2.7474 C   0  0  0  0  0  0  0  0  0  0  0  0
   -2.2945   -4.8607    3.6608 C   0  0  0  0  0  0  0  0  0  0  0  0
   -3.4694   -5.5044    1.6329 C   0  0  0  0  0  0  0  0  0  0  0  0
    3.8429    3.0033    3.4601 O   0  0  0  0  0  0  0  0  0  0  0  0
   -3.2910   -5.4828    4.4372 C   0  0  0  0  0  0  0  0  0  0  0  0
   -4.4736   -6.1129    2.4065 C   0  0  0  0  0  0  0  0  0  0  0  0
   -3.1974   -5.4608    5.7887 O   0  0  0  0  0  0  0  0  0  0  0  0
   -4.3845   -6.1090    3.8094 C   0  0  0  0  0  0  0  0  0  0  0  0
   -5.3498   -6.7084    4.5447 O   0  0  0  0  0  0  0  0  0  0  0  0
    0.0191   -0.5161   -1.7388 H   0  0  0  0  0  0  0  0  0  0  0  0
   -0.3406    1.0816   -1.1186 H   0  0  0  0  0  0  0  0  0  0  0  0
   -2.1264   -0.4893   -0.4886 H   0  0  0  0  0  0  0  0  0  0  0  0
   -1.2779    0.0084    0.9885 H   0  0  0  0  0  0  0  0  0  0  0  0
   -0.8277   -2.4482   -0.5681 H   0  0  0  0  0  0  0  0  0  0  0  0
    2.0663   -1.7165   -0.8327 H   0  0  0  0  0  0  0  0  0  0  0  0
   -2.7978   -2.6555    0.7184 H   0  0  0  0  0  0  0  0  0  0  0  0
   -1.8763   -2.1690    2.1601 H   0  0  0  0  0  0  0  0  0  0  0  0
   -1.2790   -4.6360    0.4336 H   0  0  0  0  0  0  0  0  0  0  0  0
    0.5229   -3.7407    1.3492 H   0  0  0  0  0  0  0  0  0  0  0  0
    4.8449    0.0779    3.3651 H   0  0  0  0  0  0  0  0  0  0  0  0
    5.4271    0.0626    1.6939 H   0  0  0  0  0  0  0  0  0  0  0  0
    5.6922    1.4816    2.6874 H   0  0  0  0  0  0  0  0  0  0  0  0
    0.7752    4.6419    2.0481 H   0  0  0  0  0  0  0  0  0  0  0  0
    2.2397    4.8204    2.9885 H   0  0  0  0  0  0  0  0  0  0  0  0
    0.8748    3.9140    3.6594 H   0  0  0  0  0  0  0  0  0  0  0  0
   -1.5192   -4.3971    4.1387 H   0  0  0  0  0  0  0  0  0  0  0  0
   -3.5569   -5.5222    0.6148 H   0  0  0  0  0  0  0  0  0  0  0  0
   -5.2713   -6.5542    1.9441 H   0  0  0  0  0  0  0  0  0  0  0  0
   -2.5948   -6.2007    6.0110 H   0  0  0  0  0  0  0  0  0  0  0  0
   -5.0144   -7.6180    4.6895 H   0  0  0  0  0  0  0  0  0  0  0  0
  1  2  1  0  0  0  0 
  1  3  1  0  0  0  0 
  2  4  1  0  0  0  0 
  3  5  1  0  0  0  0 
  3  6  1  0  0  0  0 
  4  7  1  0  0  0  0 
  5  8  2  0  0  0  0 
  5  9  1  0  0  0  0 
  6 10  2  0  0  0  0 
 11  7  1  0  0  0  0 
  8 10  1  0  0  0  0 
  8 12  1  0  0  0  0 
  9 13  2  0  0  0  0 
  9 14  1  0  0  0  0 
 11 15  1  0  0  0  0 
 11 16  1  0  0  0  0 
 12 17  1  0  0  0  0 
 12 18  1  0  0  0  0 
 14 18  1  0  0  0  0 
 14 19  1  0  0  0  0 
 16 20  2  0  0  0  0 
 16 21  1  0  0  0  0 
 18 22  2  0  0  0  0 
 20 23  1  0  0  0  0 
 21 24  2  0  0  0  0 
 23 25  1  0  0  0  0 
 23 26  2  0  0  0  0 
 24 26  1  0  0  0  0 
 26 27  1  0  0  0  0 
  1 28  1  0  0  0  0 
  1 29  1  0  0  0  0 
  2 30  1  0  0  0  0 
  2 31  1  0  0  0  0 
  4 32  1  0  0  0  0 
  6 33  1  0  0  0  0 
  7 34  1  0  0  0  0 
  7 35  1  0  0  0  0 
 11 36  1  0  0  0  0 
 15 37  1  0  0  0  0 
 17 38  1  0  0  0  0 
 17 39  1  0  0  0  0 
 17 40  1  0  0  0  0 
 19 41  1  0  0  0  0 
 19 42  1  0  0  0  0 
 19 43  1  0  0  0  0 
 20 44  1  0  0  0  0 
 21 45  1  0  0  0  0 
 24 46  1  0  0  0  0 
 25 47  1  0  0  0  0 
 27 48  1  0  0  0  0 
M  END
> <cdk:Title>
theodrenaline

> <Conformer>
1

> <SuperDrugID>
SD002357

$$$$
