lidocaine
  CDK     0628171801

 39 39  0  0  0  0  0  0  0  0999 V2000
    0.8949    1.2984    0.4649 N   0  0  0  0  0  0  0  0  0  0  0  0
   -0.4078    1.4832    0.1076 C   0  0  0  0  0  0  0  0  0  0  0  0
    1.8549    0.7204   -0.3088 C   0  0  0  0  0  0  0  0  0  0  0  0
   -1.3502    2.1218    1.0493 C   0  0  1  0  0  0  0  0  0  0  0  0
   -0.8511    1.0833   -0.9959 O   0  0  0  0  0  0  0  0  0  0  0  0
    2.3371    1.3635   -1.4854 C   0  0  0  0  0  0  0  0  0  0  0  0
    2.3990   -0.5263    0.1114 C   0  0  0  0  0  0  0  0  0  0  0  0
   -0.6648    3.0961    1.9668 N   0  0  2  0  0  0  0  0  0  0  0  0
    1.8681    2.7141   -1.9009 C   0  0  0  0  0  0  0  0  0  0  0  0
    3.3143    0.7036   -2.2652 C   0  0  0  0  0  0  0  0  0  0  0  0
    1.9475   -1.1840    1.3666 C   0  0  0  0  0  0  0  0  0  0  0  0
    3.3787   -1.1498   -0.6932 C   0  0  0  0  0  0  0  0  0  0  0  0
   -1.2710    3.2124    3.3330 C   0  0  1  0  0  0  0  0  0  0  0  0
   -0.3394    4.4152    1.3263 C   0  0  1  0  0  0  0  0  0  0  0  0
    3.8245   -0.5450   -1.8777 C   0  0  0  0  0  0  0  0  0  0  0  0
   -0.9976    1.9612    4.1981 C   0  0  0  0  0  0  0  0  0  0  0  0
    0.9847    5.0053    1.8672 C   0  0  0  0  0  0  0  0  0  0  0  0
    1.1585    1.5653    1.3592 H   0  0  0  0  0  0  0  0  0  0  0  0
   -2.1523    2.6276    0.5001 H   0  0  0  0  0  0  0  0  0  0  0  0
   -1.8189    1.3030    1.5979 H   0  0  0  0  0  0  0  0  0  0  0  0
    1.9218    3.4057   -1.0591 H   0  0  0  0  0  0  0  0  0  0  0  0
    0.8397    2.6590   -2.2528 H   0  0  0  0  0  0  0  0  0  0  0  0
    2.4719    3.1342   -2.7073 H   0  0  0  0  0  0  0  0  0  0  0  0
    3.6665    1.1263   -3.1270 H   0  0  0  0  0  0  0  0  0  0  0  0
    0.8944   -1.4550    1.2767 H   0  0  0  0  0  0  0  0  0  0  0  0
    2.5141   -2.0896    1.5915 H   0  0  0  0  0  0  0  0  0  0  0  0
    2.0701   -0.4968    2.2055 H   0  0  0  0  0  0  0  0  0  0  0  0
    3.7773   -2.0531   -0.4235 H   0  0  0  0  0  0  0  0  0  0  0  0
   -0.8394    4.0580    3.8748 H   0  0  0  0  0  0  0  0  0  0  0  0
   -2.3470    3.3942    3.2588 H   0  0  0  0  0  0  0  0  0  0  0  0
   -0.2205    4.3078    0.2444 H   0  0  0  0  0  0  0  0  0  0  0  0
   -1.1538    5.1286    1.4829 H   0  0  0  0  0  0  0  0  0  0  0  0
    4.5277   -1.0124   -2.4557 H   0  0  0  0  0  0  0  0  0  0  0  0
   -1.2327    2.1704    5.2431 H   0  0  0  0  0  0  0  0  0  0  0  0
   -1.6121    1.1203    3.8743 H   0  0  0  0  0  0  0  0  0  0  0  0
    0.0561    1.6816    4.1238 H   0  0  0  0  0  0  0  0  0  0  0  0
    1.2590    5.8944    1.2953 H   0  0  0  0  0  0  0  0  0  0  0  0
    0.8855    5.2919    2.9154 H   0  0  0  0  0  0  0  0  0  0  0  0
    1.7879    4.2702    1.7774 H   0  0  0  0  0  0  0  0  0  0  0  0
  1  2  1  0  0  0  0 
  1  3  1  0  0  0  0 
  2  4  1  0  0  0  0 
  2  5  2  0  0  0  0 
  3  6  2  0  0  0  0 
  3  7  1  0  0  0  0 
  4  8  1  0  0  0  0 
  6  9  1  0  0  0  0 
  6 10  1  0  0  0  0 
  7 11  1  0  0  0  0 
  7 12  2  0  0  0  0 
  8 13  1  0  0  0  0 
  8 14  1  0  0  0  0 
 10 15  2  0  0  0  0 
 12 15  1  0  0  0  0 
 13 16  1  0  0  0  0 
 14 17  1  0  0  0  0 
  1 18  1  0  0  0  0 
  4 19  1  0  0  0  0 
  4 20  1  0  0  0  0 
  9 21  1  0  0  0  0 
  9 22  1  0  0  0  0 
  9 23  1  0  0  0  0 
 10 24  1  0  0  0  0 
 11 25  1  0  0  0  0 
 11 26  1  0  0  0  0 
 11 27  1  0  0  0  0 
 12 28  1  0  0  0  0 
 13 29  1  0  0  0  0 
 13 30  1  0  0  0  0 
 14 31  1  0  0  0  0 
 14 32  1  0  0  0  0 
 15 33  1  0  0  0  0 
 16 34  1  0  0  0  0 
 16 35  1  0  0  0  0 
 16 36  1  0  0  0  0 
 17 37  1  0  0  0  0 
 17 38  1  0  0  0  0 
 17 39  1  0  0  0  0 
M  END
> <cdk:Title>
lidocaine

> <Conformer>
1

> <SuperDrugID>
SD001394

$$$$
