simeprevir
  CDK     0628171802

 99105  0  0  0  0  0  0  0  0999 V2000
    3.6800    2.9397   -4.1738 C   0  0  0  0  0  0  0  0  0  0  0  0
    4.7721    2.3634   -3.6244 C   0  0  0  0  0  0  0  0  0  0  0  0
    5.3598    2.6637   -2.3162 C   0  0  2  0  0  0  0  0  0  0  0  0
    2.8442    3.9689   -3.5646 C   0  0  1  0  0  0  0  0  0  0  0  0
    4.8976    1.7365   -1.1374 C   0  0  2  0  0  0  0  0  0  0  0  0
    4.6928    2.4729    0.2294 C   0  0  2  0  0  0  0  0  0  0  0  0
    3.5913    1.8875    1.1673 C   0  0  2  0  0  0  0  0  0  0  0  0
    2.2009    2.2143    0.8233 N   0  0  0  0  0  0  0  0  0  0  0  0
    1.7119    3.5267    0.9917 C   0  0  0  0  0  0  0  0  0  0  0  0
    1.3003    3.9000   -3.2771 C   0  0  2  0  0  0  0  0  0  0  0  0
    2.3221    3.4675   -2.2226 C   0  0  1  0  0  0  0  0  0  0  0  0
    0.4816    2.7832   -3.8413 C   0  0  0  0  0  0  0  0  0  0  0  0
    0.6441    5.0685   -2.7512 N   0  0  0  0  0  0  0  0  0  0  0  0
   -0.0156    5.1844   -1.5455 C   0  0  0  0  0  0  0  0  0  0  0  0
   -0.3672    4.0682   -0.5964 C   0  0  1  0  0  0  0  0  0  0  0  0
    0.3140    4.0765    0.8126 C   0  0  1  0  0  0  0  0  0  0  0  0
   -0.6971    3.4131    1.7772 C   0  0  2  0  0  0  0  0  0  0  0  0
   -2.0886    3.7852    1.2279 C   0  0  1  0  0  0  0  0  0  0  0  0
   -1.8944    4.0177   -0.2929 C   0  0  1  0  0  0  0  0  0  0  0  0
    2.5241    4.3927    1.4045 O   0  0  0  0  0  0  0  0  0  0  0  0
   -0.8420    2.6991   -3.5618 N   0  0  0  0  0  0  0  0  0  0  0  0
    1.0200    1.8902   -4.5372 O   0  0  0  0  0  0  0  0  0  0  0  0
   -1.8515    1.3753   -3.9707 S   0  0  2  0  0  0  0  0  0  0  0  0
   -1.8225    0.1629   -2.5932 C   0  0  2  0  0  0  0  0  0  0  0  0
   -1.3847    0.6887   -5.3425 O   0  0  0  0  0  0  0  0  0  0  0  0
   -3.3494    1.9209   -4.1413 O   0  0  0  0  0  0  0  0  0  0  0  0
   -3.0994    2.7683    1.4127 O   0  0  0  0  0  0  0  0  0  0  0  0
   -2.3957    4.7334    1.6857 H   0  0  0  0  0  0  0  0  0  0  0  0
   -0.8472   -1.0193   -2.6746 C   0  0  1  0  0  0  0  0  0  0  0  0
   -2.3489   -1.2483   -2.8914 C   0  0  2  0  0  0  0  0  0  0  0  0
    1.3955    1.0971    0.3759 C   0  0  0  0  0  0  0  0  0  0  0  0
    0.3282    5.1359    1.1078 H   0  0  0  0  0  0  0  0  0  0  0  0
    3.2877    4.9664   -3.5015 H   0  0  0  0  0  0  0  0  0  0  0  0
   -0.3380    6.3557   -1.2408 O   0  0  0  0  0  0  0  0  0  0  0  0
   -3.4942    2.5106    2.7007 C   0  0  0  0  0  0  0  0  0  0  0  0
   -2.9794    1.3579    3.3306 C   0  0  0  0  0  0  0  0  0  0  0  0
   -3.4214    1.0120    4.6232 C   0  0  0  0  0  0  0  0  0  0  0  0
   -4.3246    1.8100    5.2376 N   0  0  0  0  0  0  0  0  0  0  0  0
   -4.8819    2.9127    4.6739 C   0  0  0  0  0  0  0  0  0  0  0  0
   -4.4734    3.2926    3.3641 C   0  0  0  0  0  0  0  0  0  0  0  0
   -5.8908    3.6263    5.3703 C   0  0  0  0  0  0  0  0  0  0  0  0
   -6.5169    4.7202    4.7181 C   0  0  0  0  0  0  0  0  0  0  0  0
   -6.0904    5.1224    3.4370 C   0  0  0  0  0  0  0  0  0  0  0  0
   -5.0861    4.4135    2.7628 C   0  0  0  0  0  0  0  0  0  0  0  0
   -3.0405   -0.1693    5.2772 C   0  0  0  0  0  0  0  0  0  0  0  0
   -2.6425   -1.3150    4.6821 N   0  0  0  0  0  0  0  0  0  0  0  0
   -2.4248   -2.4003    5.4788 C   0  0  0  0  0  0  0  0  0  0  0  0
   -2.6265   -2.1809    6.8501 C   0  0  0  0  0  0  0  0  0  0  0  0
   -3.1233   -0.5088    6.9988 S   0  0  0  0  0  0  0  0  0  0  0  0
   -2.0753   -3.7283    4.9102 C   0  0  1  0  0  0  0  0  0  0  0  0
   -3.3550   -4.3885    4.3294 C   0  0  0  0  0  0  0  0  0  0  0  0
   -0.9364   -3.6525    3.8541 C   0  0  0  0  0  0  0  0  0  0  0  0
   -7.5490    5.4120    5.2956 O   0  0  0  0  0  0  0  0  0  0  0  0
   -6.2904    3.1956    6.7394 C   0  0  0  0  0  0  0  0  0  0  0  0
   -0.1236    3.1348   -1.0839 H   0  0  0  0  0  0  0  0  0  0  0  0
   -8.8379    4.8869    4.9214 C   0  0  0  0  0  0  0  0  0  0  0  0
    3.4227    2.6534   -5.0887 H   0  0  0  0  0  0  0  0  0  0  0  0
    5.2336    1.6688   -4.1658 H   0  0  0  0  0  0  0  0  0  0  0  0
    5.1763    3.7128   -2.0824 H   0  0  0  0  0  0  0  0  0  0  0  0
    6.4453    2.5764   -2.4028 H   0  0  0  0  0  0  0  0  0  0  0  0
    5.6439    0.9505   -0.9914 H   0  0  0  0  0  0  0  0  0  0  0  0
    3.9885    1.2067   -1.4078 H   0  0  0  0  0  0  0  0  0  0  0  0
    4.4756    3.5271    0.0675 H   0  0  0  0  0  0  0  0  0  0  0  0
    5.6446    2.4390    0.7697 H   0  0  0  0  0  0  0  0  0  0  0  0
    3.7785    2.2548    2.1802 H   0  0  0  0  0  0  0  0  0  0  0  0
    3.7614    0.8079    1.2308 H   0  0  0  0  0  0  0  0  0  0  0  0
    2.2731    2.4032   -2.0178 H   0  0  0  0  0  0  0  0  0  0  0  0
    2.5595    4.1507   -1.4086 H   0  0  0  0  0  0  0  0  0  0  0  0
    0.7191    5.8748   -3.2836 H   0  0  0  0  0  0  0  0  0  0  0  0
   -0.5687    3.7906    2.7967 H   0  0  0  0  0  0  0  0  0  0  0  0
   -0.5930    2.3293    1.8036 H   0  0  0  0  0  0  0  0  0  0  0  0
   -2.4081    4.9408   -0.5792 H   0  0  0  0  0  0  0  0  0  0  0  0
   -2.3549    3.2132   -0.8731 H   0  0  0  0  0  0  0  0  0  0  0  0
   -1.2442    3.4110   -3.0409 H   0  0  0  0  0  0  0  0  0  0  0  0
   -2.0375    0.5241   -1.5870 H   0  0  0  0  0  0  0  0  0  0  0  0
   -0.2302   -1.0948   -3.5713 H   0  0  0  0  0  0  0  0  0  0  0  0
   -0.4617   -1.4069   -1.7300 H   0  0  0  0  0  0  0  0  0  0  0  0
   -2.6459   -1.4669   -3.9187 H   0  0  0  0  0  0  0  0  0  0  0  0
   -2.8750   -1.7399   -2.0712 H   0  0  0  0  0  0  0  0  0  0  0  0
    0.4140    1.3618    0.0075 H   0  0  0  0  0  0  0  0  0  0  0  0
    1.2569    0.3984    1.2039 H   0  0  0  0  0  0  0  0  0  0  0  0
    1.8912    0.5687   -0.4378 H   0  0  0  0  0  0  0  0  0  0  0  0
   -2.3016    0.7676    2.8410 H   0  0  0  0  0  0  0  0  0  0  0  0
   -6.5280    5.9281    2.9838 H   0  0  0  0  0  0  0  0  0  0  0  0
   -4.8242    4.7178    1.8233 H   0  0  0  0  0  0  0  0  0  0  0  0
   -2.5369   -2.8586    7.6088 H   0  0  0  0  0  0  0  0  0  0  0  0
   -1.7179   -4.3750    5.7185 H   0  0  0  0  0  0  0  0  0  0  0  0
   -3.1321   -5.3905    3.9586 H   0  0  0  0  0  0  0  0  0  0  0  0
   -3.7619   -3.7959    3.5065 H   0  0  0  0  0  0  0  0  0  0  0  0
   -4.1202   -4.4788    5.1046 H   0  0  0  0  0  0  0  0  0  0  0  0
   -0.6839   -4.7619    3.5679 H   0  0  0  0  0  0  0  0  0  0  0  0
   -1.2988   -3.0015    3.0009 H   0  0  0  0  0  0  0  0  0  0  0  0
   -0.0853   -3.0662    4.3175 H   0  0  0  0  0  0  0  0  0  0  0  0
   -5.4202    3.2268    7.3992 H   0  0  0  0  0  0  0  0  0  0  0  0
   -7.0641    3.8283    7.1765 H   0  0  0  0  0  0  0  0  0  0  0  0
   -6.6712    2.1712    6.7055 H   0  0  0  0  0  0  0  0  0  0  0  0
   -9.6035    5.4882    5.4104 H   0  0  0  0  0  0  0  0  0  0  0  0
   -8.9988    4.9455    3.8415 H   0  0  0  0  0  0  0  0  0  0  0  0
   -8.9594    3.8507    5.2481 H   0  0  0  0  0  0  0  0  0  0  0  0
  1  2  2  0  0  0  0 
  2  3  1  0  0  0  0 
  4  1  1  0  0  0  0 
  3  5  1  0  0  0  0 
  5  6  1  0  0  0  0 
  6  7  1  0  0  0  0 
  7  8  1  0  0  0  0 
  8  9  1  0  0  0  0 
  4 10  1  0  0  0  0 
 10 11  1  0  0  0  0 
 11  4  1  0  0  0  0 
 10 12  1  0  0  0  0 
 10 13  1  0  0  0  0 
 13 14  1  0  0  0  0 
 14 15  1  0  0  0  0 
 15 16  1  0  0  0  0 
 16 17  1  0  0  0  0 
 17 18  1  0  0  0  0 
 18 19  1  0  0  0  0 
 19 15  1  0  0  0  0 
  9 16  1  0  0  0  0 
  9 20  2  0  0  0  0 
 12 21  1  0  0  0  0 
 12 22  2  0  0  0  0 
 21 23  1  0  0  0  0 
 23 24  1  0  0  0  0 
 23 25  2  0  0  0  0 
 26 23  2  0  0  0  0 
 18 27  1  0  0  0  0 
 18 28  1  0  0  0  0 
 24 29  1  0  0  0  0 
 29 30  1  0  0  0  0 
 30 24  1  0  0  0  0 
  8 31  1  0  0  0  0 
 16 32  1  0  0  0  0 
  4 33  1  0  0  0  0 
 14 34  2  0  0  0  0 
 27 35  1  0  0  0  0 
 35 36  1  0  0  0  0 
 36 37  2  0  0  0  0 
 37 38  1  0  0  0  0 
 38 39  2  0  0  0  0 
 39 40  1  0  0  0  0 
 40 35  2  0  0  0  0 
 39 41  1  0  0  0  0 
 41 42  2  0  0  0  0 
 42 43  1  0  0  0  0 
 43 44  2  0  0  0  0 
 44 40  1  0  0  0  0 
 37 45  1  0  0  0  0 
 45 46  2  0  0  0  0 
 46 47  1  0  0  0  0 
 47 48  2  0  0  0  0 
 48 49  1  0  0  0  0 
 49 45  1  0  0  0  0 
 47 50  1  0  0  0  0 
 50 51  1  0  0  0  0 
 50 52  1  0  0  0  0 
 42 53  1  0  0  0  0 
 41 54  1  0  0  0  0 
 15 55  1  0  0  0  0 
 53 56  1  0  0  0  0 
  1 57  1  0  0  0  0 
  2 58  1  0  0  0  0 
  3 59  1  0  0  0  0 
  3 60  1  0  0  0  0 
  5 61  1  0  0  0  0 
  5 62  1  0  0  0  0 
  6 63  1  0  0  0  0 
  6 64  1  0  0  0  0 
  7 65  1  0  0  0  0 
  7 66  1  0  0  0  0 
 11 67  1  0  0  0  0 
 11 68  1  0  0  0  0 
 13 69  1  0  0  0  0 
 17 70  1  0  0  0  0 
 17 71  1  0  0  0  0 
 19 72  1  0  0  0  0 
 19 73  1  0  0  0  0 
 21 74  1  0  0  0  0 
 24 75  1  0  0  0  0 
 29 76  1  0  0  0  0 
 29 77  1  0  0  0  0 
 30 78  1  0  0  0  0 
 30 79  1  0  0  0  0 
 31 80  1  0  0  0  0 
 31 81  1  0  0  0  0 
 31 82  1  0  0  0  0 
 36 83  1  0  0  0  0 
 43 84  1  0  0  0  0 
 44 85  1  0  0  0  0 
 48 86  1  0  0  0  0 
 50 87  1  0  0  0  0 
 51 88  1  0  0  0  0 
 51 89  1  0  0  0  0 
 51 90  1  0  0  0  0 
 52 91  1  0  0  0  0 
 52 92  1  0  0  0  0 
 52 93  1  0  0  0  0 
 54 94  1  0  0  0  0 
 54 95  1  0  0  0  0 
 54 96  1  0  0  0  0 
 56 97  1  0  0  0  0 
 56 98  1  0  0  0  0 
 56 99  1  0  0  0  0 
M  END
> <cdk:Title>
simeprevir

> <Conformer>
1

> <SuperDrugID>
SD003774

$$$$
