butamirate
  CDK     0628171801

 51 51  0  0  0  0  0  0  0  0999 V2000
   -5.4205    3.8925    1.5269 C   0  0  1  0  0  0  0  0  0  0  0  0
   -4.8921    3.0594    0.4195 C   0  0  0  0  0  0  0  0  0  0  0  0
   -6.0684    3.0359    2.6622 C   0  0  2  0  0  0  0  0  0  0  0  0
   -4.3398    4.8193    2.0003 C   0  0  0  0  0  0  0  0  0  0  0  0
   -3.8560    2.1941    0.6413 O   0  0  0  0  0  0  0  0  0  0  0  0
   -5.4044    3.1591   -0.7219 O   0  0  0  0  0  0  0  0  0  0  0  0
   -7.3744    2.3255    2.2377 C   0  0  0  0  0  0  0  0  0  0  0  0
   -4.2804    6.1555    1.5274 C   0  0  0  0  0  0  0  0  0  0  0  0
   -3.3456    4.3976    2.9188 C   0  0  0  0  0  0  0  0  0  0  0  0
   -3.1928    1.4173   -0.3640 C   0  0  2  0  0  0  0  0  0  0  0  0
   -3.2944    7.0478    1.9870 C   0  0  0  0  0  0  0  0  0  0  0  0
   -2.3629    5.2880    3.3842 C   0  0  0  0  0  0  0  0  0  0  0  0
   -2.0130    0.6364    0.2455 C   0  0  2  0  0  0  0  0  0  0  0  0
   -2.3394    6.6143    2.9211 C   0  0  0  0  0  0  0  0  0  0  0  0
   -1.1292    0.2515   -0.8247 O   0  0  0  0  0  0  0  0  0  0  0  0
    0.1263   -0.3275   -0.4205 C   0  0  1  0  0  0  0  0  0  0  0  0
    1.1202   -0.1677   -1.5908 C   0  0  2  0  0  0  0  0  0  0  0  0
    2.4513   -0.7567   -1.2276 N   0  0  1  0  0  0  0  0  0  0  0  0
    2.6501   -2.1717   -1.6768 C   0  0  1  0  0  0  0  0  0  0  0  0
    3.6229    0.1638   -1.3951 C   0  0  1  0  0  0  0  0  0  0  0  0
    3.5391   -2.9812   -0.7063 C   0  0  0  0  0  0  0  0  0  0  0  0
    3.6978    1.1757   -0.2301 C   0  0  0  0  0  0  0  0  0  0  0  0
   -6.2345    4.5067    1.1242 H   0  0  0  0  0  0  0  0  0  0  0  0
   -6.2993    3.6838    3.5141 H   0  0  0  0  0  0  0  0  0  0  0  0
   -5.3671    2.2728    3.0085 H   0  0  0  0  0  0  0  0  0  0  0  0
   -7.7638    1.7459    3.0753 H   0  0  0  0  0  0  0  0  0  0  0  0
   -7.1913    1.6470    1.4029 H   0  0  0  0  0  0  0  0  0  0  0  0
   -8.1261    3.0593    1.9414 H   0  0  0  0  0  0  0  0  0  0  0  0
   -4.9593    6.4916    0.8397 H   0  0  0  0  0  0  0  0  0  0  0  0
   -3.3278    3.4361    3.2619 H   0  0  0  0  0  0  0  0  0  0  0  0
   -2.8087    2.1020   -1.1262 H   0  0  0  0  0  0  0  0  0  0  0  0
   -3.8933    0.7226   -0.8354 H   0  0  0  0  0  0  0  0  0  0  0  0
   -3.2713    8.0090    1.6390 H   0  0  0  0  0  0  0  0  0  0  0  0
   -1.6684    4.9700    4.0636 H   0  0  0  0  0  0  0  0  0  0  0  0
   -2.3871   -0.2427    0.7767 H   0  0  0  0  0  0  0  0  0  0  0  0
   -1.4925    1.2890    0.9522 H   0  0  0  0  0  0  0  0  0  0  0  0
   -1.6274    7.2618    3.2613 H   0  0  0  0  0  0  0  0  0  0  0  0
    0.5441    0.1762    0.4569 H   0  0  0  0  0  0  0  0  0  0  0  0
   -0.0138   -1.3851   -0.1862 H   0  0  0  0  0  0  0  0  0  0  0  0
    1.1971    0.8990   -1.8216 H   0  0  0  0  0  0  0  0  0  0  0  0
    0.7073   -0.6419   -2.4856 H   0  0  0  0  0  0  0  0  0  0  0  0
    1.6907   -2.6948   -1.7252 H   0  0  0  0  0  0  0  0  0  0  0  0
    3.0787   -2.1940   -2.6825 H   0  0  0  0  0  0  0  0  0  0  0  0
    4.5665   -0.3852   -1.4032 H   0  0  0  0  0  0  0  0  0  0  0  0
    3.5582    0.6974   -2.3479 H   0  0  0  0  0  0  0  0  0  0  0  0
    4.5832   -2.6776   -0.7835 H   0  0  0  0  0  0  0  0  0  0  0  0
    3.2017   -2.8338    0.3209 H   0  0  0  0  0  0  0  0  0  0  0  0
    3.4754   -4.0440   -0.9448 H   0  0  0  0  0  0  0  0  0  0  0  0
    4.5857    1.8017   -0.3317 H   0  0  0  0  0  0  0  0  0  0  0  0
    3.7529    0.6427    0.7208 H   0  0  0  0  0  0  0  0  0  0  0  0
    2.8198    1.8230   -0.2188 H   0  0  0  0  0  0  0  0  0  0  0  0
  1  2  1  0  0  0  0 
  1  3  1  0  0  0  0 
  1  4  1  0  0  0  0 
  2  5  1  0  0  0  0 
  2  6  2  0  0  0  0 
  3  7  1  0  0  0  0 
  4  8  2  0  0  0  0 
  4  9  1  0  0  0  0 
  5 10  1  0  0  0  0 
  8 11  1  0  0  0  0 
  9 12  2  0  0  0  0 
 10 13  1  0  0  0  0 
 11 14  2  0  0  0  0 
 12 14  1  0  0  0  0 
 13 15  1  0  0  0  0 
 15 16  1  0  0  0  0 
 16 17  1  0  0  0  0 
 17 18  1  0  0  0  0 
 18 19  1  0  0  0  0 
 18 20  1  0  0  0  0 
 19 21  1  0  0  0  0 
 20 22  1  0  0  0  0 
  1 23  1  0  0  0  0 
  3 24  1  0  0  0  0 
  3 25  1  0  0  0  0 
  7 26  1  0  0  0  0 
  7 27  1  0  0  0  0 
  7 28  1  0  0  0  0 
  8 29  1  0  0  0  0 
  9 30  1  0  0  0  0 
 10 31  1  0  0  0  0 
 10 32  1  0  0  0  0 
 11 33  1  0  0  0  0 
 12 34  1  0  0  0  0 
 13 35  1  0  0  0  0 
 13 36  1  0  0  0  0 
 14 37  1  0  0  0  0 
 16 38  1  0  0  0  0 
 16 39  1  0  0  0  0 
 17 40  1  0  0  0  0 
 17 41  1  0  0  0  0 
 19 42  1  0  0  0  0 
 19 43  1  0  0  0  0 
 20 44  1  0  0  0  0 
 20 45  1  0  0  0  0 
 21 46  1  0  0  0  0 
 21 47  1  0  0  0  0 
 21 48  1  0  0  0  0 
 22 49  1  0  0  0  0 
 22 50  1  0  0  0  0 
 22 51  1  0  0  0  0 
M  END
> <cdk:Title>
butamirate

> <Conformer>
1

> <SuperDrugID>
SD000384

$$$$
