ufenamate
  CDK     0628171801

 42 43  0  0  0  0  0  0  0  0999 V2000
   -0.9730    3.1347   -0.0101 N   0  0  0  0  0  0  0  0  0  0  0  0
   -2.1342    3.3843   -0.6980 C   0  0  0  0  0  0  0  0  0  0  0  0
   -0.2169    2.0003   -0.0216 C   0  0  0  0  0  0  0  0  0  0  0  0
   -2.3174    4.6510   -1.3418 C   0  0  0  0  0  0  0  0  0  0  0  0
   -3.1702    2.4188   -0.7691 C   0  0  0  0  0  0  0  0  0  0  0  0
   -0.6107    0.7796    0.5725 C   0  0  0  0  0  0  0  0  0  0  0  0
    1.0599    2.0883   -0.6138 C   0  0  0  0  0  0  0  0  0  0  0  0
   -1.3189    5.6820   -1.3915 C   0  0  0  0  0  0  0  0  0  0  0  0
   -3.5514    4.8923   -2.0055 C   0  0  0  0  0  0  0  0  0  0  0  0
   -4.3801    2.6927   -1.4223 C   0  0  0  0  0  0  0  0  0  0  0  0
    0.2149   -0.3714    0.5153 C   0  0  0  0  0  0  0  0  0  0  0  0
    1.9067    0.9683   -0.6509 C   0  0  0  0  0  0  0  0  0  0  0  0
   -1.5831    6.8608   -2.0345 O   0  0  0  0  0  0  0  0  0  0  0  0
   -0.1768    5.5468   -0.8929 O   0  0  0  0  0  0  0  0  0  0  0  0
   -4.5706    3.9304   -2.0450 C   0  0  0  0  0  0  0  0  0  0  0  0
   -0.2033   -1.6854    1.0802 C   0  0  1  0  0  0  0  0  0  0  0  0
    1.4842   -0.2535   -0.1006 C   0  0  0  0  0  0  0  0  0  0  0  0
   -0.7193    7.9843   -2.2459 C   0  0  2  0  0  0  0  0  0  0  0  0
    0.6631   -2.0613    2.0768 F   0  0  0  0  0  0  0  0  0  0  0  0
   -1.4679   -1.7020    1.6201 F   0  0  0  0  0  0  0  0  0  0  0  0
   -0.1858   -2.6446    0.0962 F   0  0  0  0  0  0  0  0  0  0  0  0
   -1.4658    9.0485   -3.0824 C   0  0  2  0  0  0  0  0  0  0  0  0
   -1.8193    8.5370   -4.5044 C   0  0  1  0  0  0  0  0  0  0  0  0
   -2.6038    9.5748   -5.3343 C   0  0  0  0  0  0  0  0  0  0  0  0
   -0.5644    3.8979    0.4276 H   0  0  0  0  0  0  0  0  0  0  0  0
   -3.0743    1.5050   -0.3373 H   0  0  0  0  0  0  0  0  0  0  0  0
   -1.5001    0.7363    1.0685 H   0  0  0  0  0  0  0  0  0  0  0  0
    1.3842    2.9675   -1.0271 H   0  0  0  0  0  0  0  0  0  0  0  0
   -3.7342    5.7781   -2.4825 H   0  0  0  0  0  0  0  0  0  0  0  0
   -5.1230    1.9915   -1.4438 H   0  0  0  0  0  0  0  0  0  0  0  0
    2.8308    1.0401   -1.0828 H   0  0  0  0  0  0  0  0  0  0  0  0
   -5.4485    4.1294   -2.5303 H   0  0  0  0  0  0  0  0  0  0  0  0
    2.1148   -1.0600   -0.1510 H   0  0  0  0  0  0  0  0  0  0  0  0
    0.1848    7.6673   -2.7736 H   0  0  0  0  0  0  0  0  0  0  0  0
   -0.4338    8.4102   -1.2816 H   0  0  0  0  0  0  0  0  0  0  0  0
   -0.8330    9.9362   -3.1692 H   0  0  0  0  0  0  0  0  0  0  0  0
   -2.3821    9.3337   -2.5554 H   0  0  0  0  0  0  0  0  0  0  0  0
   -0.8974    8.2845   -5.0359 H   0  0  0  0  0  0  0  0  0  0  0  0
   -2.4259    7.6301   -4.4308 H   0  0  0  0  0  0  0  0  0  0  0  0
   -2.8157    9.1692   -6.3257 H   0  0  0  0  0  0  0  0  0  0  0  0
   -2.0205   10.4907   -5.4473 H   0  0  0  0  0  0  0  0  0  0  0  0
   -3.5508    9.8119   -4.8452 H   0  0  0  0  0  0  0  0  0  0  0  0
  1  2  1  0  0  0  0 
  1  3  1  0  0  0  0 
  2  4  2  0  0  0  0 
  2  5  1  0  0  0  0 
  3  6  2  0  0  0  0 
  3  7  1  0  0  0  0 
  4  8  1  0  0  0  0 
  4  9  1  0  0  0  0 
  5 10  2  0  0  0  0 
  6 11  1  0  0  0  0 
  7 12  2  0  0  0  0 
  8 13  1  0  0  0  0 
  8 14  2  0  0  0  0 
  9 15  2  0  0  0  0 
 10 15  1  0  0  0  0 
 11 16  1  0  0  0  0 
 11 17  2  0  0  0  0 
 12 17  1  0  0  0  0 
 13 18  1  0  0  0  0 
 16 19  1  0  0  0  0 
 16 20  1  0  0  0  0 
 16 21  1  0  0  0  0 
 18 22  1  0  0  0  0 
 22 23  1  0  0  0  0 
 23 24  1  0  0  0  0 
  1 25  1  0  0  0  0 
  5 26  1  0  0  0  0 
  6 27  1  0  0  0  0 
  7 28  1  0  0  0  0 
  9 29  1  0  0  0  0 
 10 30  1  0  0  0  0 
 12 31  1  0  0  0  0 
 15 32  1  0  0  0  0 
 17 33  1  0  0  0  0 
 18 34  1  0  0  0  0 
 18 35  1  0  0  0  0 
 22 36  1  0  0  0  0 
 22 37  1  0  0  0  0 
 23 38  1  0  0  0  0 
 23 39  1  0  0  0  0 
 24 40  1  0  0  0  0 
 24 41  1  0  0  0  0 
 24 42  1  0  0  0  0 
M  END
> <cdk:Title>
ufenamate

> <Conformer>
1

> <SuperDrugID>
SD002517

$$$$
