quinethazone
  CDK     0628171801

 30 31  0  0  0  0  0  0  0  0999 V2000
   -2.9831    3.0599    2.5936 O   0  0  0  0  0  0  0  0  0  0  0  0
   -2.7921    2.0801    3.3506 C   0  0  0  0  0  0  0  0  0  0  0  0
   -2.1672    0.8872    2.9000 C   0  0  0  0  0  0  0  0  0  0  0  0
   -3.2141    2.1974    4.6380 N   0  0  0  0  0  0  0  0  0  0  0  0
   -2.0031   -0.1627    3.8337 C   0  0  0  0  0  0  0  0  0  0  0  0
   -1.7119    0.7047    1.5742 C   0  0  0  0  0  0  0  0  0  0  0  0
   -3.0836    1.1534    5.6183 C   0  0  2  0  0  0  0  0  0  0  0  0
   -2.4103   -0.0138    5.1234 N   0  0  0  0  0  0  0  0  0  0  0  0
   -1.4229   -1.3803    3.4330 C   0  0  0  0  0  0  0  0  0  0  0  0
   -1.1054   -0.5060    1.1702 C   0  0  0  0  0  0  0  0  0  0  0  0
   -4.4918    0.7692    6.1470 C   0  0  1  0  0  0  0  0  0  0  0  0
   -0.9747   -1.5606    2.1091 C   0  0  0  0  0  0  0  0  0  0  0  0
   -0.5270   -0.6676   -0.5005 S   0  0  2  0  0  0  0  0  0  0  0  0
   -4.4715   -0.3030    7.2625 C   0  0  0  0  0  0  0  0  0  0  0  0
   -0.2914   -3.0648    1.7151 Cl  0  0  0  0  0  0  0  0  0  0  0  0
    1.1923   -1.0377   -0.4893 N   0  0  2  0  0  0  0  0  0  0  0  0
   -0.7365    0.6794   -1.3456 O   0  0  0  0  0  0  0  0  0  0  0  0
   -1.2862   -1.8725   -1.2395 O   0  0  0  0  0  0  0  0  0  0  0  0
   -3.6308    3.0328    4.9072 H   0  0  0  0  0  0  0  0  0  0  0  0
   -1.8235    1.4624    0.8971 H   0  0  0  0  0  0  0  0  0  0  0  0
   -2.4890    1.5508    6.4461 H   0  0  0  0  0  0  0  0  0  0  0  0
   -2.2401   -0.7407    5.7447 H   0  0  0  0  0  0  0  0  0  0  0  0
   -1.3247   -2.1405    4.1126 H   0  0  0  0  0  0  0  0  0  0  0  0
   -4.9759    1.6636    6.5488 H   0  0  0  0  0  0  0  0  0  0  0  0
   -5.1033    0.4042    5.3155 H   0  0  0  0  0  0  0  0  0  0  0  0
   -5.4824   -0.4516    7.6462 H   0  0  0  0  0  0  0  0  0  0  0  0
   -3.8283    0.0168    8.0843 H   0  0  0  0  0  0  0  0  0  0  0  0
   -4.1063   -1.2565    6.8747 H   0  0  0  0  0  0  0  0  0  0  0  0
    1.4728   -1.1578   -1.4639 H   0  0  0  0  0  0  0  0  0  0  0  0
    1.2944   -1.9509   -0.0416 H   0  0  0  0  0  0  0  0  0  0  0  0
  1  2  2  0  0  0  0 
  2  3  1  0  0  0  0 
  2  4  1  0  0  0  0 
  3  5  2  0  0  0  0 
  3  6  1  0  0  0  0 
  7  4  1  0  0  0  0 
  5  8  1  0  0  0  0 
  5  9  1  0  0  0  0 
  6 10  2  0  0  0  0 
  7  8  1  0  0  0  0 
  7 11  1  0  0  0  0 
  9 12  2  0  0  0  0 
 10 12  1  0  0  0  0 
 10 13  1  0  0  0  0 
 11 14  1  0  0  0  0 
 12 15  1  0  0  0  0 
 13 16  1  0  0  0  0 
 13 17  2  0  0  0  0 
 13 18  2  0  0  0  0 
  4 19  1  0  0  0  0 
  6 20  1  0  0  0  0 
  7 21  1  0  0  0  0 
  8 22  1  0  0  0  0 
  9 23  1  0  0  0  0 
 11 24  1  0  0  0  0 
 11 25  1  0  0  0  0 
 14 26  1  0  0  0  0 
 14 27  1  0  0  0  0 
 14 28  1  0  0  0  0 
 16 29  1  0  0  0  0 
 16 30  1  0  0  0  0 
M  END
> <cdk:Title>
quinethazone

> <Conformer>
1

> <SuperDrugID>
SD002107

$$$$
