clemizole
  CDK     0628171802

 43 46  0  0  0  0  0  0  0  0999 V2000
   -3.9510    1.5374   -1.2909 C   0  0  2  0  0  0  0  0  0  0  0  0
   -3.3022    2.8076   -1.5228 N   0  0  0  0  0  0  0  0  0  0  0  0
   -3.1754    0.3637   -1.7831 C   0  0  0  0  0  0  0  0  0  0  0  0
   -2.1494    3.2316   -0.9595 C   0  0  0  0  0  0  0  0  0  0  0  0
   -3.7313    3.8320   -2.3124 C   0  0  0  0  0  0  0  0  0  0  0  0
   -2.8483    0.2455   -3.1554 C   0  0  0  0  0  0  0  0  0  0  0  0
   -2.7800   -0.6750   -0.9058 C   0  0  0  0  0  0  0  0  0  0  0  0
   -1.8787    4.5062   -1.4522 C   0  0  0  0  0  0  0  0  0  0  0  0
   -1.2835    2.6341   -0.0213 C   0  0  0  0  0  0  0  0  0  0  0  0
   -4.9911    3.9055   -3.0862 C   0  0  2  0  0  0  0  0  0  0  0  0
   -2.8600    4.8613   -2.2874 N   0  0  0  0  0  0  0  0  0  0  0  0
   -2.1521   -0.8787   -3.6407 C   0  0  0  0  0  0  0  0  0  0  0  0
   -2.0869   -1.8012   -1.3876 C   0  0  0  0  0  0  0  0  0  0  0  0
   -0.7425    5.2281   -1.0471 C   0  0  0  0  0  0  0  0  0  0  0  0
   -0.1373    3.3449    0.3986 C   0  0  0  0  0  0  0  0  0  0  0  0
   -6.1669    3.8648   -2.1736 N   0  0  1  0  0  0  0  0  0  0  0  0
   -1.7732   -1.9073   -2.7565 C   0  0  0  0  0  0  0  0  0  0  0  0
    0.1327    4.6337   -0.1146 C   0  0  0  0  0  0  0  0  0  0  0  0
   -6.3996    5.0625   -1.3347 C   0  0  1  0  0  0  0  0  0  0  0  0
   -7.4674    3.5765   -2.8221 C   0  0  1  0  0  0  0  0  0  0  0  0
   -0.9457   -3.2657   -3.3378 Cl  0  0  0  0  0  0  0  0  0  0  0  0
   -7.7690    4.7634   -0.7046 C   0  0  1  0  0  0  0  0  0  0  0  0
   -8.5377    3.9753   -1.7845 C   0  0  1  0  0  0  0  0  0  0  0  0
   -4.9249    1.4942   -1.7821 H   0  0  0  0  0  0  0  0  0  0  0  0
   -4.1501    1.4563   -0.2192 H   0  0  0  0  0  0  0  0  0  0  0  0
   -3.1249    0.9792   -3.8130 H   0  0  0  0  0  0  0  0  0  0  0  0
   -3.0010   -0.6264    0.0916 H   0  0  0  0  0  0  0  0  0  0  0  0
   -1.4782    1.7075    0.3608 H   0  0  0  0  0  0  0  0  0  0  0  0
   -5.0176    3.0529   -3.7694 H   0  0  0  0  0  0  0  0  0  0  0  0
   -5.0233    4.8171   -3.6920 H   0  0  0  0  0  0  0  0  0  0  0  0
   -1.9282   -0.9437   -4.6380 H   0  0  0  0  0  0  0  0  0  0  0  0
   -1.8170   -2.5461   -0.7389 H   0  0  0  0  0  0  0  0  0  0  0  0
   -0.5603    6.1646   -1.4151 H   0  0  0  0  0  0  0  0  0  0  0  0
    0.4996    2.9265    1.0799 H   0  0  0  0  0  0  0  0  0  0  0  0
    0.9672    5.1383    0.1948 H   0  0  0  0  0  0  0  0  0  0  0  0
   -5.6314    5.1735   -0.5650 H   0  0  0  0  0  0  0  0  0  0  0  0
   -6.4439    5.9787   -1.9328 H   0  0  0  0  0  0  0  0  0  0  0  0
   -7.5939    4.1690   -3.7355 H   0  0  0  0  0  0  0  0  0  0  0  0
   -7.5413    2.5135   -3.0707 H   0  0  0  0  0  0  0  0  0  0  0  0
   -7.6294    4.1333    0.1782 H   0  0  0  0  0  0  0  0  0  0  0  0
   -8.2913    5.6794   -0.4133 H   0  0  0  0  0  0  0  0  0  0  0  0
   -9.3127    4.5937   -2.2484 H   0  0  0  0  0  0  0  0  0  0  0  0
   -9.0100    3.0896   -1.3497 H   0  0  0  0  0  0  0  0  0  0  0  0
  1  2  1  0  0  0  0 
  1  3  1  0  0  0  0 
  2  4  1  0  0  0  0 
  2  5  1  0  0  0  0 
  3  6  2  0  0  0  0 
  3  7  1  0  0  0  0 
  4  8  1  0  0  0  0 
  4  9  2  0  0  0  0 
  5 10  1  0  0  0  0 
  5 11  2  0  0  0  0 
  6 12  1  0  0  0  0 
  7 13  2  0  0  0  0 
  8 11  1  0  0  0  0 
  8 14  2  0  0  0  0 
  9 15  1  0  0  0  0 
 10 16  1  0  0  0  0 
 12 17  2  0  0  0  0 
 13 17  1  0  0  0  0 
 14 18  1  0  0  0  0 
 15 18  2  0  0  0  0 
 16 19  1  0  0  0  0 
 16 20  1  0  0  0  0 
 17 21  1  0  0  0  0 
 19 22  1  0  0  0  0 
 20 23  1  0  0  0  0 
 22 23  1  0  0  0  0 
  1 24  1  0  0  0  0 
  1 25  1  0  0  0  0 
  6 26  1  0  0  0  0 
  7 27  1  0  0  0  0 
  9 28  1  0  0  0  0 
 10 29  1  0  0  0  0 
 10 30  1  0  0  0  0 
 12 31  1  0  0  0  0 
 13 32  1  0  0  0  0 
 14 33  1  0  0  0  0 
 15 34  1  0  0  0  0 
 18 35  1  0  0  0  0 
 19 36  1  0  0  0  0 
 19 37  1  0  0  0  0 
 20 38  1  0  0  0  0 
 20 39  1  0  0  0  0 
 22 40  1  0  0  0  0 
 22 41  1  0  0  0  0 
 23 42  1  0  0  0  0 
 23 43  1  0  0  0  0 
M  END
> <cdk:Title>
clemizole

> <Conformer>
1

> <SuperDrugID>
SD000591

$$$$
