simfibrate
  CDK     0628171801

 57 58  0  0  0  0  0  0  0  0999 V2000
    4.1409    6.1874  -14.5511 O   0  0  0  0  0  0  0  0  0  0  0  0
    3.1671    6.3076  -13.4734 C   0  0  1  0  0  0  0  0  0  0  0  0
    4.1801    7.1405  -15.5379 C   0  0  0  0  0  0  0  0  0  0  0  0
    3.3690    5.0997  -12.6126 C   0  0  0  0  0  0  0  0  0  0  0  0
    3.4221    7.5849  -12.6090 C   0  0  0  0  0  0  0  0  0  0  0  0
    1.6984    6.2998  -14.0132 C   0  0  0  0  0  0  0  0  0  0  0  0
    5.0228    8.2655  -15.4132 C   0  0  0  0  0  0  0  0  0  0  0  0
    3.4258    6.9734  -16.7189 C   0  0  0  0  0  0  0  0  0  0  0  0
    4.3659    4.1851  -12.8680 O   0  0  0  0  0  0  0  0  0  0  0  0
    2.6166    4.9194  -11.6232 O   0  0  0  0  0  0  0  0  0  0  0  0
    5.0868    9.2261  -16.4393 C   0  0  0  0  0  0  0  0  0  0  0  0
    3.4873    7.9319  -17.7468 C   0  0  0  0  0  0  0  0  0  0  0  0
    4.5968    2.9666  -12.1357 C   0  0  2  0  0  0  0  0  0  0  0  0
    4.3152    9.0635  -17.6071 C   0  0  0  0  0  0  0  0  0  0  0  0
    5.8613    2.1966  -12.6024 C   0  0  1  0  0  0  0  0  0  0  0  0
    4.3802   10.2251  -18.8369 Cl  0  0  0  0  0  0  0  0  0  0  0  0
    7.1645    3.0221  -12.4813 C   0  0  1  0  0  0  0  0  0  0  0  0
    8.3381    2.2579  -12.8312 O   0  0  0  0  0  0  0  0  0  0  0  0
    9.6173    2.7630  -12.8591 C   0  0  0  0  0  0  0  0  0  0  0  0
   10.8164    1.9359  -13.2112 C   0  0  2  0  0  0  0  0  0  0  0  0
    9.7845    3.9796  -12.5912 O   0  0  0  0  0  0  0  0  0  0  0  0
   10.3604    0.5658  -13.4280 O   0  0  0  0  0  0  0  0  0  0  0  0
   11.8268    2.0148  -12.0188 C   0  0  0  0  0  0  0  0  0  0  0  0
   11.4416    2.5388  -14.5120 C   0  0  0  0  0  0  0  0  0  0  0  0
   11.2819   -0.4016  -13.7718 C   0  0  0  0  0  0  0  0  0  0  0  0
   11.9258   -1.1691  -12.7756 C   0  0  0  0  0  0  0  0  0  0  0  0
   11.5610   -0.6788  -15.1286 C   0  0  0  0  0  0  0  0  0  0  0  0
   12.8506   -2.1708  -13.1253 C   0  0  0  0  0  0  0  0  0  0  0  0
   12.4849   -1.6798  -15.4827 C   0  0  0  0  0  0  0  0  0  0  0  0
   13.1342   -2.4277  -14.4810 C   0  0  0  0  0  0  0  0  0  0  0  0
   14.2507   -3.6283  -14.9042 Cl  0  0  0  0  0  0  0  0  0  0  0  0
    3.2308    8.4908  -13.1862 H   0  0  0  0  0  0  0  0  0  0  0  0
    4.4576    7.6125  -12.2627 H   0  0  0  0  0  0  0  0  0  0  0  0
    2.7647    7.6144  -11.7374 H   0  0  0  0  0  0  0  0  0  0  0  0
    1.4983    7.1888  -14.6130 H   0  0  0  0  0  0  0  0  0  0  0  0
    1.5237    5.4197  -14.6359 H   0  0  0  0  0  0  0  0  0  0  0  0
    0.9732    6.2952  -13.1966 H   0  0  0  0  0  0  0  0  0  0  0  0
    5.5899    8.3903  -14.5723 H   0  0  0  0  0  0  0  0  0  0  0  0
    2.8252    6.1543  -16.8318 H   0  0  0  0  0  0  0  0  0  0  0  0
    5.6954   10.0414  -16.3290 H   0  0  0  0  0  0  0  0  0  0  0  0
    2.9260    7.8007  -18.5925 H   0  0  0  0  0  0  0  0  0  0  0  0
    3.7231    2.3215  -12.2598 H   0  0  0  0  0  0  0  0  0  0  0  0
    4.6970    3.1951  -11.0718 H   0  0  0  0  0  0  0  0  0  0  0  0
    5.9617    1.3003  -11.9839 H   0  0  0  0  0  0  0  0  0  0  0  0
    5.7305    1.8777  -13.6390 H   0  0  0  0  0  0  0  0  0  0  0  0
    7.0957    3.8901  -13.1418 H   0  0  0  0  0  0  0  0  0  0  0  0
    7.2700    3.3767  -11.4529 H   0  0  0  0  0  0  0  0  0  0  0  0
   12.0902    3.0482  -11.7834 H   0  0  0  0  0  0  0  0  0  0  0  0
   11.3961    1.5563  -11.1252 H   0  0  0  0  0  0  0  0  0  0  0  0
   12.7561    1.4960  -12.2569 H   0  0  0  0  0  0  0  0  0  0  0  0
   11.6834    3.5965  -14.3879 H   0  0  0  0  0  0  0  0  0  0  0  0
   10.7450    2.4397  -15.3482 H   0  0  0  0  0  0  0  0  0  0  0  0
   12.3682    2.0275  -14.7753 H   0  0  0  0  0  0  0  0  0  0  0  0
   11.7280   -0.9953  -11.7885 H   0  0  0  0  0  0  0  0  0  0  0  0
   11.0957   -0.1458  -15.8656 H   0  0  0  0  0  0  0  0  0  0  0  0
   13.3158   -2.7083  -12.3889 H   0  0  0  0  0  0  0  0  0  0  0  0
   12.6824   -1.8583  -16.4711 H   0  0  0  0  0  0  0  0  0  0  0  0
  1  2  1  0  0  0  0 
  1  3  1  0  0  0  0 
  2  4  1  0  0  0  0 
  2  5  1  0  0  0  0 
  2  6  1  0  0  0  0 
  3  7  2  0  0  0  0 
  3  8  1  0  0  0  0 
  4  9  1  0  0  0  0 
  4 10  2  0  0  0  0 
  7 11  1  0  0  0  0 
  8 12  2  0  0  0  0 
  9 13  1  0  0  0  0 
 11 14  2  0  0  0  0 
 12 14  1  0  0  0  0 
 13 15  1  0  0  0  0 
 14 16  1  0  0  0  0 
 15 17  1  0  0  0  0 
 17 18  1  0  0  0  0 
 18 19  1  0  0  0  0 
 19 20  1  0  0  0  0 
 19 21  2  0  0  0  0 
 20 22  1  0  0  0  0 
 20 23  1  0  0  0  0 
 20 24  1  0  0  0  0 
 22 25  1  0  0  0  0 
 25 26  2  0  0  0  0 
 25 27  1  0  0  0  0 
 26 28  1  0  0  0  0 
 27 29  2  0  0  0  0 
 28 30  2  0  0  0  0 
 29 30  1  0  0  0  0 
 30 31  1  0  0  0  0 
  5 32  1  0  0  0  0 
  5 33  1  0  0  0  0 
  5 34  1  0  0  0  0 
  6 35  1  0  0  0  0 
  6 36  1  0  0  0  0 
  6 37  1  0  0  0  0 
  7 38  1  0  0  0  0 
  8 39  1  0  0  0  0 
 11 40  1  0  0  0  0 
 12 41  1  0  0  0  0 
 13 42  1  0  0  0  0 
 13 43  1  0  0  0  0 
 15 44  1  0  0  0  0 
 15 45  1  0  0  0  0 
 17 46  1  0  0  0  0 
 17 47  1  0  0  0  0 
 23 48  1  0  0  0  0 
 23 49  1  0  0  0  0 
 23 50  1  0  0  0  0 
 24 51  1  0  0  0  0 
 24 52  1  0  0  0  0 
 24 53  1  0  0  0  0 
 26 54  1  0  0  0  0 
 27 55  1  0  0  0  0 
 28 56  1  0  0  0  0 
 29 57  1  0  0  0  0 
M  END
> <cdk:Title>
simfibrate

> <Conformer>
1

> <SuperDrugID>
SD002196

$$$$
