eterobarb
  CDK     0628171801

 43 44  0  0  0  0  0  0  0  0999 V2000
   -4.4994    2.9934    0.0567 C   0  0  1  0  0  0  0  0  0  0  0  0
   -4.1895    3.7168    1.3945 C   0  0  0  0  0  0  0  0  0  0  0  0
   -4.0866    1.4710   -0.0495 C   0  0  2  0  0  0  0  0  0  0  0  0
   -4.7728    0.7540    1.0712 C   0  0  0  0  0  0  0  0  0  0  0  0
   -2.5956    1.4029    0.0809 C   0  0  0  0  0  0  0  0  0  0  0  0
   -4.4742    0.7908   -1.3558 C   0  0  0  0  0  0  0  0  0  0  0  0
   -6.0293    0.7037    1.0156 O   0  0  0  0  0  0  0  0  0  0  0  0
   -4.0967    0.1905    2.1389 N   0  0  0  0  0  0  0  0  0  0  0  0
   -1.9336    1.9365   -0.8448 O   0  0  0  0  0  0  0  0  0  0  0  0
   -1.9528    0.8192    1.1594 N   0  0  0  0  0  0  0  0  0  0  0  0
   -4.1913   -0.5908   -1.5393 C   0  0  0  0  0  0  0  0  0  0  0  0
   -5.1146    1.4593   -2.4364 C   0  0  0  0  0  0  0  0  0  0  0  0
   -4.8728   -0.4066    3.2167 C   0  0  2  0  0  0  0  0  0  0  0  0
   -2.7110    0.2309    2.1629 C   0  0  0  0  0  0  0  0  0  0  0  0
   -0.4998    0.8421    1.2782 C   0  0  1  0  0  0  0  0  0  0  0  0
   -4.5568   -1.2732   -2.7150 C   0  0  0  0  0  0  0  0  0  0  0  0
   -5.4708    0.7845   -3.6190 C   0  0  0  0  0  0  0  0  0  0  0  0
   -5.5974    0.6414    3.8934 O   0  0  0  0  0  0  0  0  0  0  0  0
   -2.1061   -0.2766    3.1410 O   0  0  0  0  0  0  0  0  0  0  0  0
    0.0300   -0.5011    1.3000 O   0  0  0  0  0  0  0  0  0  0  0  0
   -5.2000   -0.5864   -3.7563 C   0  0  0  0  0  0  0  0  0  0  0  0
   -6.5126    0.1940    4.9074 C   0  0  0  0  0  0  0  0  0  0  0  0
    1.4505   -0.5724    1.5211 C   0  0  0  0  0  0  0  0  0  0  0  0
   -5.5755    3.0958   -0.1129 H   0  0  0  0  0  0  0  0  0  0  0  0
   -4.0016    3.5623   -0.7343 H   0  0  0  0  0  0  0  0  0  0  0  0
   -4.3735    4.7866    1.2816 H   0  0  0  0  0  0  0  0  0  0  0  0
   -3.1487    3.5824    1.6898 H   0  0  0  0  0  0  0  0  0  0  0  0
   -4.8309    3.3446    2.1934 H   0  0  0  0  0  0  0  0  0  0  0  0
   -3.7147   -1.1146   -0.8037 H   0  0  0  0  0  0  0  0  0  0  0  0
   -5.3375    2.4531   -2.3896 H   0  0  0  0  0  0  0  0  0  0  0  0
   -4.2559   -0.9303    3.9513 H   0  0  0  0  0  0  0  0  0  0  0  0
   -5.5587   -1.1481    2.7939 H   0  0  0  0  0  0  0  0  0  0  0  0
   -0.0097    1.3883    0.4668 H   0  0  0  0  0  0  0  0  0  0  0  0
   -0.2469    1.3642    2.2063 H   0  0  0  0  0  0  0  0  0  0  0  0
   -4.3572   -2.2715   -2.8150 H   0  0  0  0  0  0  0  0  0  0  0  0
   -5.9298    1.2903   -4.3807 H   0  0  0  0  0  0  0  0  0  0  0  0
   -5.4703   -1.0783   -4.6116 H   0  0  0  0  0  0  0  0  0  0  0  0
   -6.0035   -0.3926    5.6744 H   0  0  0  0  0  0  0  0  0  0  0  0
   -6.9501    1.0732    5.3829 H   0  0  0  0  0  0  0  0  0  0  0  0
   -7.3221   -0.3950    4.4719 H   0  0  0  0  0  0  0  0  0  0  0  0
    1.9962   -0.0772    0.7147 H   0  0  0  0  0  0  0  0  0  0  0  0
    1.7471   -1.6212    1.5395 H   0  0  0  0  0  0  0  0  0  0  0  0
    1.7241   -0.1219    2.4782 H   0  0  0  0  0  0  0  0  0  0  0  0
  1  2  1  0  0  0  0 
  1  3  1  0  0  0  0 
  3  4  1  0  0  0  0 
  3  5  1  0  0  0  0 
  3  6  1  0  0  0  0 
  4  7  2  0  0  0  0 
  4  8  1  0  0  0  0 
  5  9  2  0  0  0  0 
  5 10  1  0  0  0  0 
  6 11  2  0  0  0  0 
  6 12  1  0  0  0  0 
  8 13  1  0  0  0  0 
  8 14  1  0  0  0  0 
 10 14  1  0  0  0  0 
 10 15  1  0  0  0  0 
 11 16  1  0  0  0  0 
 12 17  2  0  0  0  0 
 13 18  1  0  0  0  0 
 14 19  2  0  0  0  0 
 15 20  1  0  0  0  0 
 16 21  2  0  0  0  0 
 17 21  1  0  0  0  0 
 18 22  1  0  0  0  0 
 20 23  1  0  0  0  0 
  1 24  1  0  0  0  0 
  1 25  1  0  0  0  0 
  2 26  1  0  0  0  0 
  2 27  1  0  0  0  0 
  2 28  1  0  0  0  0 
 11 29  1  0  0  0  0 
 12 30  1  0  0  0  0 
 13 31  1  0  0  0  0 
 13 32  1  0  0  0  0 
 15 33  1  0  0  0  0 
 15 34  1  0  0  0  0 
 16 35  1  0  0  0  0 
 17 36  1  0  0  0  0 
 21 37  1  0  0  0  0 
 22 38  1  0  0  0  0 
 22 39  1  0  0  0  0 
 22 40  1  0  0  0  0 
 23 41  1  0  0  0  0 
 23 42  1  0  0  0  0 
 23 43  1  0  0  0  0 
M  END
> <cdk:Title>
eterobarb

> <Conformer>
1

> <SuperDrugID>
SD002764

$$$$
