cycloserine
  CDK     0628171802

 13 13  0  0  0  0  0  0  0  0999 V2000
   -0.6247   -2.4098   -0.4562 N   0  0  2  0  0  0  0  0  0  0  0  0
   -1.0737   -1.2394    0.3076 C   0  0  2  0  0  0  0  0  0  0  0  0
   -2.3015   -0.5410   -0.3162 C   0  0  1  0  0  0  0  0  0  0  0  0
   -1.7665    0.4840   -1.1662 O   0  0  0  0  0  0  0  0  0  0  0  0
   -0.6414    0.8147   -0.5838 N   0  0  0  0  0  0  0  0  0  0  0  0
   -0.1254   -0.1449    0.1858 C   0  0  0  0  0  0  0  0  0  0  0  0
    0.9824   -0.0815    0.7638 O   0  0  0  0  0  0  0  0  0  0  0  0
   -1.3599   -3.1151   -0.3706 H   0  0  0  0  0  0  0  0  0  0  0  0
    0.1958   -2.7841    0.0238 H   0  0  0  0  0  0  0  0  0  0  0  0
   -1.2518   -1.5103    1.3522 H   0  0  0  0  0  0  0  0  0  0  0  0
   -2.9158   -1.2340   -0.8970 H   0  0  0  0  0  0  0  0  0  0  0  0
   -2.9261   -0.0824    0.4587 H   0  0  0  0  0  0  0  0  0  0  0  0
   -0.2276    1.6842   -0.6959 H   0  0  0  0  0  0  0  0  0  0  0  0
  2  1  1  0  0  0  0 
  2  3  1  0  0  0  0 
  3  4  1  0  0  0  0 
  4  5  1  0  0  0  0 
  5  6  1  0  0  0  0 
  2  6  1  0  0  0  0 
  6  7  2  0  0  0  0 
  8  1  1  0  0  0  0 
  9  1  1  0  0  0  0 
  2 10  1  0  0  0  0 
 11  3  1  0  0  0  0 
 12  3  1  0  0  0  0 
 13  5  1  0  0  0  0 
M  END
> <cdk:Title>
cycloserine

> <Conformer>
1

> <SuperDrugID>
SD000668

$$$$
