ebrotidine
  CDK     0628171802

 43 44  0  0  0  0  0  0  0  0999 V2000
    6.3139   -5.1111   -3.6479 C   0  0  2  0  0  0  0  0  0  0  0  0
    5.9060   -3.4599   -4.3041 S   0  0  0  0  0  0  0  0  0  0  0  0
    6.1047   -5.1609   -2.1885 C   0  0  0  0  0  0  0  0  0  0  0  0
    6.4299   -3.5549   -6.0468 C   0  0  1  0  0  0  0  0  0  0  0  0
    6.8588   -4.4037   -1.3394 N   0  0  0  0  0  0  0  0  0  0  0  0
    5.1443   -5.9770   -1.5725 C   0  0  0  0  0  0  0  0  0  0  0  0
    5.7847   -2.4407   -6.9019 C   0  0  2  0  0  0  0  0  0  0  0  0
    6.5979   -4.5091   -0.0155 C   0  0  0  0  0  0  0  0  0  0  0  0
    5.3062   -5.6850    0.1469 S   0  0  0  0  0  0  0  0  0  0  0  0
    6.0366   -2.6842   -8.2476 N   0  0  0  0  0  0  0  0  0  0  0  0
    7.1375   -3.8652    1.0022 N   0  0  0  0  0  0  0  0  0  0  0  0
    5.7270   -1.9433   -9.2500 C   0  0  0  0  0  0  0  0  0  0  0  0
    8.0514   -2.9645    1.0515 C   0  0  0  0  0  0  0  0  0  0  0  0
    5.9727   -2.3076  -10.4998 N   0  0  0  0  0  0  0  0  0  0  0  0
    8.6944   -2.4647    0.0131 N   0  0  0  0  0  0  0  0  0  0  0  0
    8.3608   -2.5019    2.2384 N   0  0  0  0  0  0  0  0  0  0  0  0
    6.4577   -3.8886  -10.9800 S   0  0  2  0  0  0  0  0  0  0  0  0
    8.0110   -4.0857  -10.6287 O   0  0  0  0  0  0  0  0  0  0  0  0
    6.2683   -4.0082  -12.5694 O   0  0  0  0  0  0  0  0  0  0  0  0
    5.4555   -5.0957  -10.1525 C   0  0  0  0  0  0  0  0  0  0  0  0
    4.1007   -5.2403  -10.5160 C   0  0  0  0  0  0  0  0  0  0  0  0
    5.9786   -5.8805   -9.1025 C   0  0  0  0  0  0  0  0  0  0  0  0
    3.2780   -6.1555   -9.8340 C   0  0  0  0  0  0  0  0  0  0  0  0
    5.1522   -6.7896   -8.4169 C   0  0  0  0  0  0  0  0  0  0  0  0
    3.8020   -6.9324   -8.7834 C   0  0  0  0  0  0  0  0  0  0  0  0
    2.7087   -8.1279   -7.8688 Br  0  0  0  0  0  0  0  0  0  0  0  0
    7.3578   -5.3463   -3.8627 H   0  0  0  0  0  0  0  0  0  0  0  0
    5.6828   -5.8413   -4.1604 H   0  0  0  0  0  0  0  0  0  0  0  0
    7.5159   -3.4664   -6.0876 H   0  0  0  0  0  0  0  0  0  0  0  0
    6.1477   -4.5306   -6.4433 H   0  0  0  0  0  0  0  0  0  0  0  0
    4.4858   -6.6147   -2.0213 H   0  0  0  0  0  0  0  0  0  0  0  0
    6.1872   -1.4632   -6.6142 H   0  0  0  0  0  0  0  0  0  0  0  0
    4.7021   -2.4450   -6.7415 H   0  0  0  0  0  0  0  0  0  0  0  0
    5.2820   -1.0655   -9.1037 H   0  0  0  0  0  0  0  0  0  0  0  0
    5.8410   -1.6421  -11.1932 H   0  0  0  0  0  0  0  0  0  0  0  0
    9.3708   -1.7815    0.1491 H   0  0  0  0  0  0  0  0  0  0  0  0
    8.5013   -2.7726   -0.8852 H   0  0  0  0  0  0  0  0  0  0  0  0
    9.0095   -1.7861    2.3239 H   0  0  0  0  0  0  0  0  0  0  0  0
    7.9363   -2.8703    3.0298 H   0  0  0  0  0  0  0  0  0  0  0  0
    3.7053   -4.6759  -11.2737 H   0  0  0  0  0  0  0  0  0  0  0  0
    6.9561   -5.7857   -8.8170 H   0  0  0  0  0  0  0  0  0  0  0  0
    2.2962   -6.2518  -10.1017 H   0  0  0  0  0  0  0  0  0  0  0  0
    5.5356   -7.3414   -7.6480 H   0  0  0  0  0  0  0  0  0  0  0  0
  1  2  1  0  0  0  0 
  1  3  1  0  0  0  0 
  2  4  1  0  0  0  0 
  3  5  1  0  0  0  0 
  3  6  2  0  0  0  0 
  4  7  1  0  0  0  0 
  5  8  2  0  0  0  0 
  6  9  1  0  0  0  0 
 10  7  1  0  0  0  0 
  8  9  1  0  0  0  0 
  8 11  1  0  0  0  0 
 10 12  2  0  0  0  0 
 11 13  2  0  0  0  0 
 12 14  1  0  0  0  0 
 13 15  1  0  0  0  0 
 13 16  1  0  0  0  0 
 14 17  1  0  0  0  0 
 17 18  2  0  0  0  0 
 17 19  2  0  0  0  0 
 17 20  1  0  0  0  0 
 20 21  2  0  0  0  0 
 20 22  1  0  0  0  0 
 21 23  1  0  0  0  0 
 22 24  2  0  0  0  0 
 23 25  2  0  0  0  0 
 24 25  1  0  0  0  0 
 25 26  1  0  0  0  0 
 27  1  1  0  0  0  0 
 28  1  1  0  0  0  0 
 29  4  1  0  0  0  0 
 30  4  1  0  0  0  0 
 31  6  1  0  0  0  0 
 32  7  1  0  0  0  0 
 33  7  1  0  0  0  0 
 34 12  1  0  0  0  0 
 35 14  1  0  0  0  0 
 36 15  1  0  0  0  0 
 37 15  1  0  0  0  0 
 38 16  1  0  0  0  0 
 39 16  1  0  0  0  0 
 40 21  1  0  0  0  0 
 41 22  1  0  0  0  0 
 42 23  1  0  0  0  0 
 43 24  1  0  0  0  0 
M  END
> <cdk:Title>
ebrotidine

> <Conformer>
1

> <SuperDrugID>
SD000869

$$$$
