indoramin
  CDK     0628171801

 51 54  0  0  0  0  0  0  0  0999 V2000
    1.2492    0.6961    2.2563 C   0  0  2  0  0  0  0  0  0  0  0  0
    0.2955    0.7774    3.4790 C   0  0  2  0  0  0  0  0  0  0  0  0
    0.6970    1.3054    1.0226 C   0  0  0  0  0  0  0  0  0  0  0  0
   -1.0925    0.2691    3.2325 N   0  0  2  0  0  0  0  0  0  0  0  0
    0.7359    2.6427    0.6214 C   0  0  0  0  0  0  0  0  0  0  0  0
    0.0604    0.6237   -0.0195 C   0  0  0  0  0  0  0  0  0  0  0  0
   -2.0767    0.6986    4.2762 C   0  0  2  0  0  0  0  0  0  0  0  0
   -1.2070   -1.2037    2.9703 C   0  0  1  0  0  0  0  0  0  0  0  0
    0.1499    2.7105   -0.6445 C   0  0  0  0  0  0  0  0  0  0  0  0
    1.2459    3.8034    1.2365 C   0  0  0  0  0  0  0  0  0  0  0  0
   -0.2543    1.4839   -1.0016 N   0  0  0  0  0  0  0  0  0  0  0  0
   -3.5222    0.4243    3.7978 C   0  0  2  0  0  0  0  0  0  0  0  0
   -2.6113   -1.5241    2.4009 C   0  0  1  0  0  0  0  0  0  0  0  0
    0.0594    3.9217   -1.3492 C   0  0  0  0  0  0  0  0  0  0  0  0
    1.1637    5.0284    0.5385 C   0  0  0  0  0  0  0  0  0  0  0  0
   -3.7367   -1.0562    3.3639 C   0  0  2  0  0  0  0  0  0  0  0  0
    0.5761    5.0870   -0.7451 C   0  0  0  0  0  0  0  0  0  0  0  0
   -5.0139   -1.2053    2.7249 N   0  0  0  0  0  0  0  0  0  0  0  0
   -6.2231   -1.2553    3.3623 C   0  0  0  0  0  0  0  0  0  0  0  0
   -6.2490   -1.1945    4.6159 O   0  0  0  0  0  0  0  0  0  0  0  0
   -7.4500   -1.3524    2.6397 C   0  0  0  0  0  0  0  0  0  0  0  0
   -7.4706   -1.6681    1.2559 C   0  0  0  0  0  0  0  0  0  0  0  0
   -8.6950   -1.1232    3.2823 C   0  0  0  0  0  0  0  0  0  0  0  0
   -8.6764   -1.6946    0.5307 C   0  0  0  0  0  0  0  0  0  0  0  0
   -9.9035   -1.1585    2.5592 C   0  0  0  0  0  0  0  0  0  0  0  0
   -9.8924   -1.4238    1.1795 C   0  0  0  0  0  0  0  0  0  0  0  0
    1.5034   -0.3476    2.0599 H   0  0  0  0  0  0  0  0  0  0  0  0
    2.1881    1.1967    2.5075 H   0  0  0  0  0  0  0  0  0  0  0  0
    0.2515    1.8325    3.7682 H   0  0  0  0  0  0  0  0  0  0  0  0
    0.7443    0.2326    4.3149 H   0  0  0  0  0  0  0  0  0  0  0  0
   -0.1350   -0.3790   -0.0457 H   0  0  0  0  0  0  0  0  0  0  0  0
   -1.9931    1.7708    4.4743 H   0  0  0  0  0  0  0  0  0  0  0  0
   -1.8918    0.1702    5.2164 H   0  0  0  0  0  0  0  0  0  0  0  0
   -0.4751   -1.5380    2.2356 H   0  0  0  0  0  0  0  0  0  0  0  0
   -1.0377   -1.7780    3.8874 H   0  0  0  0  0  0  0  0  0  0  0  0
    1.6699    3.7665    2.1653 H   0  0  0  0  0  0  0  0  0  0  0  0
   -0.6949    1.2522   -1.8355 H   0  0  0  0  0  0  0  0  0  0  0  0
   -3.7309    1.0844    2.9518 H   0  0  0  0  0  0  0  0  0  0  0  0
   -4.2175    0.6774    4.6030 H   0  0  0  0  0  0  0  0  0  0  0  0
   -2.7181   -1.0202    1.4367 H   0  0  0  0  0  0  0  0  0  0  0  0
   -2.6976   -2.6011    2.2318 H   0  0  0  0  0  0  0  0  0  0  0  0
   -0.3685    3.9538   -2.2765 H   0  0  0  0  0  0  0  0  0  0  0  0
    1.5329    5.8815    0.9644 H   0  0  0  0  0  0  0  0  0  0  0  0
   -3.6998   -1.6998    4.2508 H   0  0  0  0  0  0  0  0  0  0  0  0
    0.5214    5.9791   -1.2399 H   0  0  0  0  0  0  0  0  0  0  0  0
   -5.0184   -1.2403    1.7556 H   0  0  0  0  0  0  0  0  0  0  0  0
   -6.6075   -1.8833    0.7544 H   0  0  0  0  0  0  0  0  0  0  0  0
   -8.7386   -0.9173    4.2850 H   0  0  0  0  0  0  0  0  0  0  0  0
   -8.6675   -1.9078   -0.4700 H   0  0  0  0  0  0  0  0  0  0  0  0
  -10.7891   -0.9852    3.0393 H   0  0  0  0  0  0  0  0  0  0  0  0
  -10.7662   -1.4210    0.6467 H   0  0  0  0  0  0  0  0  0  0  0  0
  1  2  1  0  0  0  0 
  1  3  1  0  0  0  0 
  2  4  1  0  0  0  0 
  3  5  1  0  0  0  0 
  3  6  2  0  0  0  0 
  4  7  1  0  0  0  0 
  4  8  1  0  0  0  0 
  5  9  1  0  0  0  0 
  5 10  2  0  0  0  0 
  6 11  1  0  0  0  0 
  7 12  1  0  0  0  0 
  8 13  1  0  0  0  0 
  9 11  1  0  0  0  0 
  9 14  2  0  0  0  0 
 10 15  1  0  0  0  0 
 12 16  1  0  0  0  0 
 13 16  1  0  0  0  0 
 14 17  1  0  0  0  0 
 15 17  2  0  0  0  0 
 16 18  1  0  0  0  0 
 18 19  1  0  0  0  0 
 19 20  2  0  0  0  0 
 19 21  1  0  0  0  0 
 21 22  2  0  0  0  0 
 21 23  1  0  0  0  0 
 22 24  1  0  0  0  0 
 23 25  2  0  0  0  0 
 24 26  2  0  0  0  0 
 25 26  1  0  0  0  0 
  1 27  1  0  0  0  0 
  1 28  1  0  0  0  0 
  2 29  1  0  0  0  0 
  2 30  1  0  0  0  0 
  6 31  1  0  0  0  0 
  7 32  1  0  0  0  0 
  7 33  1  0  0  0  0 
  8 34  1  0  0  0  0 
  8 35  1  0  0  0  0 
 10 36  1  0  0  0  0 
 11 37  1  0  0  0  0 
 12 38  1  0  0  0  0 
 12 39  1  0  0  0  0 
 13 40  1  0  0  0  0 
 13 41  1  0  0  0  0 
 14 42  1  0  0  0  0 
 15 43  1  0  0  0  0 
 16 44  1  0  0  0  0 
 17 45  1  0  0  0  0 
 18 46  1  0  0  0  0 
 22 47  1  0  0  0  0 
 23 48  1  0  0  0  0 
 24 49  1  0  0  0  0 
 25 50  1  0  0  0  0 
 26 51  1  0  0  0  0 
M  END
> <cdk:Title>
indoramin

> <Conformer>
1

> <SuperDrugID>
SD001279

$$$$
