edoxudine
  CDK     0628171801

 34 35  0  0  0  0  0  0  0  0999 V2000
    4.3711   -4.7145    0.7465 O   0  0  0  0  0  0  0  0  0  0  0  0
    5.3780   -4.0372    0.4339 C   0  0  0  0  0  0  0  0  0  0  0  0
    5.3480   -2.6673    0.3260 N   0  0  0  0  0  0  0  0  0  0  0  0
    6.5185   -4.7331    0.2009 N   0  0  0  0  0  0  0  0  0  0  0  0
    4.1095   -1.9335    0.5418 C   0  0  2  0  0  0  0  0  0  0  0  0
    6.5155   -2.0127    0.0223 C   0  0  0  0  0  0  0  0  0  0  0  0
    7.6749   -4.1106   -0.1238 C   0  0  0  0  0  0  0  0  0  0  0  0
    4.1059   -0.6292   -0.0772 O   0  0  0  0  0  0  0  0  0  0  0  0
    3.8095   -1.7366    2.0488 C   0  0  1  0  0  0  0  0  0  0  0  0
    7.7254   -2.7030   -0.2126 C   0  0  0  0  0  0  0  0  0  0  0  0
    8.6761   -4.8285   -0.3469 O   0  0  0  0  0  0  0  0  0  0  0  0
    3.7580    0.3518    0.9087 C   0  0  1  0  0  0  0  0  0  0  0  0
    4.1449   -0.2596    2.2711 C   0  0  1  0  0  0  0  0  0  0  0  0
    8.9725   -1.9582   -0.5378 C   0  0  2  0  0  0  0  0  0  0  0  0
    4.4403    1.7066    0.6025 C   0  0  2  0  0  0  0  0  0  0  0  0
    3.4172    0.3185    3.3526 O   0  0  0  0  0  0  0  0  0  0  0  0
    9.0089   -1.5059   -2.0123 C   0  0  0  0  0  0  0  0  0  0  0  0
    5.8599    1.5925    0.6478 O   0  0  0  0  0  0  0  0  0  0  0  0
    6.5078   -5.7031    0.2707 H   0  0  0  0  0  0  0  0  0  0  0  0
    3.2804   -2.4747    0.0747 H   0  0  0  0  0  0  0  0  0  0  0  0
    6.5329   -0.9896   -0.0324 H   0  0  0  0  0  0  0  0  0  0  0  0
    2.7498   -1.9185    2.2532 H   0  0  0  0  0  0  0  0  0  0  0  0
    4.4083   -2.3823    2.6973 H   0  0  0  0  0  0  0  0  0  0  0  0
    2.6715    0.4965    0.8663 H   0  0  0  0  0  0  0  0  0  0  0  0
    5.2189   -0.1564    2.4625 H   0  0  0  0  0  0  0  0  0  0  0  0
    9.8548   -2.5749   -0.3517 H   0  0  0  0  0  0  0  0  0  0  0  0
    9.0535   -1.0854    0.1146 H   0  0  0  0  0  0  0  0  0  0  0  0
    4.1210    2.4560    1.3311 H   0  0  0  0  0  0  0  0  0  0  0  0
    4.1469    2.0472   -0.3939 H   0  0  0  0  0  0  0  0  0  0  0  0
    3.7435    1.2426    3.4072 H   0  0  0  0  0  0  0  0  0  0  0  0
    9.9036   -0.9088   -2.1954 H   0  0  0  0  0  0  0  0  0  0  0  0
    8.1327   -0.9037   -2.2546 H   0  0  0  0  0  0  0  0  0  0  0  0
    9.0344   -2.3780   -2.6684 H   0  0  0  0  0  0  0  0  0  0  0  0
    6.1976    2.4936    0.4589 H   0  0  0  0  0  0  0  0  0  0  0  0
  1  2  2  0  0  0  0 
  2  3  1  0  0  0  0 
  2  4  1  0  0  0  0 
  3  6  1  0  0  0  0 
  4  7  1  0  0  0  0 
  5  3  1  0  0  0  0 
  5  8  1  0  0  0  0 
  5  9  1  0  0  0  0 
  6 10  2  0  0  0  0 
  7 10  1  0  0  0  0 
  7 11  2  0  0  0  0 
 12  8  1  0  0  0  0 
 13  9  1  0  0  0  0 
 10 14  1  0  0  0  0 
 12 13  1  0  0  0  0 
 12 15  1  0  0  0  0 
 13 16  1  0  0  0  0 
 14 17  1  0  0  0  0 
 15 18  1  0  0  0  0 
 19  4  1  0  0  0  0 
  5 20  1  0  0  0  0 
 21  6  1  0  0  0  0 
 22  9  1  0  0  0  0 
 23  9  1  0  0  0  0 
 12 24  1  0  0  0  0 
 13 25  1  0  0  0  0 
 26 14  1  0  0  0  0 
 27 14  1  0  0  0  0 
 28 15  1  0  0  0  0 
 29 15  1  0  0  0  0 
 30 16  1  0  0  0  0 
 31 17  1  0  0  0  0 
 32 17  1  0  0  0  0 
 33 17  1  0  0  0  0 
 34 18  1  0  0  0  0 
M  END
> <cdk:Title>
edoxudine

> <Conformer>
1

> <SuperDrugID>
SD002747

$$$$
