tetragalacturonic acid hydroxymethylester
  CDK     0628171802

 95 98  0  0  0  0  0  0  0  0999 V2000
   -7.7313   -0.7966   -4.0130 O   0  0  0  0  0  0  0  0  0  0  0  0
   -7.9470   -1.7739   -5.0709 C   0  0  1  0  0  0  0  0  0  0  0  0
   -7.8369   -1.0820   -2.5960 C   0  0  1  0  0  0  0  0  0  0  0  0
   -6.6860   -2.6188   -5.4320 C   0  0  1  0  0  0  0  0  0  0  0  0
   -9.1811   -2.7293   -5.0096 C   0  0  2  0  0  0  0  0  0  0  0  0
   -6.9003   -2.0585   -2.0849 O   0  0  0  0  0  0  0  0  0  0  0  0
   -7.7120    0.2523   -1.8049 C   0  0  2  0  0  0  0  0  0  0  0  0
   -5.4379   -1.8506   -5.6382 C   0  0  0  0  0  0  0  0  0  0  0  0
   -6.4820   -3.6621   -4.4518 O   0  0  0  0  0  0  0  0  0  0  0  0
  -10.3660   -2.0302   -4.6290 O   0  0  0  0  0  0  0  0  0  0  0  0
   -8.9437   -3.9828   -4.1259 C   0  0  2  0  0  0  0  0  0  0  0  0
   -5.5071   -1.6648   -2.0461 C   0  0  2  0  0  0  0  0  0  0  0  0
   -8.5716    1.2519   -2.3522 O   0  0  0  0  0  0  0  0  0  0  0  0
   -6.2417    0.7519   -1.8055 C   0  0  2  0  0  0  0  0  0  0  0  0
   -4.2710   -2.5446   -5.7696 O   0  0  0  0  0  0  0  0  0  0  0  0
   -5.4395   -0.5978   -5.7139 O   0  0  0  0  0  0  0  0  0  0  0  0
   -7.5485   -4.6398   -4.3707 C   0  0  1  0  0  0  0  0  0  0  0  0
   -9.9880   -4.9321   -4.3539 O   0  0  0  0  0  0  0  0  0  0  0  0
   -4.6914   -2.8025   -1.5712 C   0  0  0  0  0  0  0  0  0  0  0  0
   -5.2840   -0.3383   -1.2426 C   0  0  1  0  0  0  0  0  0  0  0  0
   -6.1198    1.9715   -1.0716 O   0  0  0  0  0  0  0  0  0  0  0  0
   -2.9789   -1.9897   -6.0211 C   0  0  0  0  0  0  0  0  0  0  0  0
   -7.5801   -5.5267   -5.5173 O   0  0  0  0  0  0  0  0  0  0  0  0
   -5.2931   -3.8919   -1.0022 O   0  0  0  0  0  0  0  0  0  0  0  0
   -3.4421   -2.7482   -1.6823 O   0  0  0  0  0  0  0  0  0  0  0  0
   -5.5382   -0.4107    0.1853 O   0  0  0  0  0  0  0  0  0  0  0  0
   -6.5812   -6.5675   -5.7410 C   0  0  1  0  0  0  0  0  0  0  0  0
   -4.6402   -5.0144   -0.4017 C   0  0  0  0  0  0  0  0  0  0  0  0
   -4.5438   -1.0102    1.0467 C   0  0  1  0  0  0  0  0  0  0  0  0
   -5.2053   -6.1083   -6.3260 C   0  0  1  0  0  0  0  0  0  0  0  0
   -6.3184   -7.5872   -4.5789 C   0  0  2  0  0  0  0  0  0  0  0  0
   -3.1894   -0.5866    0.7499 O   0  0  0  0  0  0  0  0  0  0  0  0
   -4.9061   -0.7920    2.5453 C   0  0  2  0  0  0  0  0  0  0  0  0
   -5.2308   -5.2015   -7.4936 C   0  0  0  0  0  0  0  0  0  0  0  0
   -4.3930   -5.5344   -5.2794 O   0  0  0  0  0  0  0  0  0  0  0  0
   -7.5315   -7.9711   -3.9322 O   0  0  0  0  0  0  0  0  0  0  0  0
   -5.2486   -7.1106   -3.5501 C   0  0  2  0  0  0  0  0  0  0  0  0
   -2.8823    0.7830    1.0945 C   0  0  2  0  0  0  0  0  0  0  0  0
   -6.3084   -0.9614    2.7636 O   0  0  0  0  0  0  0  0  0  0  0  0
   -4.4618    0.6051    3.0608 C   0  0  2  0  0  0  0  0  0  0  0  0
   -4.0296   -4.7399   -7.9509 O   0  0  0  0  0  0  0  0  0  0  0  0
   -6.2963   -4.9058   -8.0860 O   0  0  0  0  0  0  0  0  0  0  0  0
   -4.0154   -6.4668   -4.2407 C   0  0  1  0  0  0  0  0  0  0  0  0
   -4.8548   -8.1992   -2.7176 O   0  0  0  0  0  0  0  0  0  0  0  0
   -1.5610    1.1783    0.5535 C   0  0  0  0  0  0  0  0  0  0  0  0
   -3.0025    0.9333    2.6379 C   0  0  1  0  0  0  0  0  0  0  0  0
   -4.5901    0.6758    4.4809 O   0  0  0  0  0  0  0  0  0  0  0  0
   -3.8091   -3.9168   -9.0988 C   0  0  0  0  0  0  0  0  0  0  0  0
   -3.1306   -7.4644   -4.7497 O   0  0  0  0  0  0  0  0  0  0  0  0
   -0.8601    0.3433   -0.2727 O   0  0  0  0  0  0  0  0  0  0  0  0
   -1.1115    2.3188    0.8151 O   0  0  0  0  0  0  0  0  0  0  0  0
   -2.0930    0.0557    3.3061 O   0  0  0  0  0  0  0  0  0  0  0  0
    0.3932    0.6550   -0.8938 C   0  0  0  0  0  0  0  0  0  0  0  0
   -8.8357   -1.4599   -2.3848 H   0  0  0  0  0  0  0  0  0  0  0  0
   -4.5753   -2.0867    0.8985 H   0  0  0  0  0  0  0  0  0  0  0  0
   -7.0483   -7.1530   -6.5386 H   0  0  0  0  0  0  0  0  0  0  0  0
   -8.1336   -1.1304   -5.9381 H   0  0  0  0  0  0  0  0  0  0  0  0
   -6.8732   -3.0851   -6.3999 H   0  0  0  0  0  0  0  0  0  0  0  0
   -9.3647   -3.0934   -6.0270 H   0  0  0  0  0  0  0  0  0  0  0  0
   -8.0312    0.0810   -0.7721 H   0  0  0  0  0  0  0  0  0  0  0  0
  -10.2391   -1.7760   -3.6936 H   0  0  0  0  0  0  0  0  0  0  0  0
   -9.0121   -3.6864   -3.0779 H   0  0  0  0  0  0  0  0  0  0  0  0
   -5.1772   -1.4774   -3.0653 H   0  0  0  0  0  0  0  0  0  0  0  0
   -9.4800    0.8988   -2.2389 H   0  0  0  0  0  0  0  0  0  0  0  0
   -5.9512    0.9879   -2.8334 H   0  0  0  0  0  0  0  0  0  0  0  0
   -7.3874   -5.2260   -3.4744 H   0  0  0  0  0  0  0  0  0  0  0  0
   -9.8028   -5.6727   -3.7392 H   0  0  0  0  0  0  0  0  0  0  0  0
   -4.2649    0.0145   -1.4303 H   0  0  0  0  0  0  0  0  0  0  0  0
   -6.4483    1.7721   -0.1700 H   0  0  0  0  0  0  0  0  0  0  0  0
   -2.7042   -1.2906   -5.2294 H   0  0  0  0  0  0  0  0  0  0  0  0
   -2.2484   -2.7986   -6.0507 H   0  0  0  0  0  0  0  0  0  0  0  0
   -2.9748   -1.4732   -6.9826 H   0  0  0  0  0  0  0  0  0  0  0  0
   -3.9491   -5.4793   -1.1012 H   0  0  0  0  0  0  0  0  0  0  0  0
   -5.3929   -5.7460   -0.1109 H   0  0  0  0  0  0  0  0  0  0  0  0
   -4.0892   -4.7030    0.4867 H   0  0  0  0  0  0  0  0  0  0  0  0
   -4.6973   -6.9972   -6.7171 H   0  0  0  0  0  0  0  0  0  0  0  0
   -5.9374   -8.5083   -5.0330 H   0  0  0  0  0  0  0  0  0  0  0  0
   -4.3881   -1.5543    3.1354 H   0  0  0  0  0  0  0  0  0  0  0  0
   -7.8324   -7.1825   -3.4383 H   0  0  0  0  0  0  0  0  0  0  0  0
   -5.6767   -6.3748   -2.8767 H   0  0  0  0  0  0  0  0  0  0  0  0
   -3.6043    1.4562    0.6207 H   0  0  0  0  0  0  0  0  0  0  0  0
   -6.5204   -1.8671    2.4514 H   0  0  0  0  0  0  0  0  0  0  0  0
   -5.1288    1.3666    2.6449 H   0  0  0  0  0  0  0  0  0  0  0  0
   -3.4564   -5.9005   -3.4941 H   0  0  0  0  0  0  0  0  0  0  0  0
   -4.2610   -7.8039   -2.0443 H   0  0  0  0  0  0  0  0  0  0  0  0
   -2.7707    1.9599    2.9335 H   0  0  0  0  0  0  0  0  0  0  0  0
   -3.9964   -0.0237    4.8277 H   0  0  0  0  0  0  0  0  0  0  0  0
   -4.3675   -2.9839   -9.0127 H   0  0  0  0  0  0  0  0  0  0  0  0
   -2.7461   -3.6827   -9.1723 H   0  0  0  0  0  0  0  0  0  0  0  0
   -4.1184   -4.4468  -10.0013 H   0  0  0  0  0  0  0  0  0  0  0  0
   -2.3939   -6.9622   -5.1566 H   0  0  0  0  0  0  0  0  0  0  0  0
   -1.2000    0.3188    3.0010 H   0  0  0  0  0  0  0  0  0  0  0  0
    0.2954    1.5452   -1.5187 H   0  0  0  0  0  0  0  0  0  0  0  0
    0.7047   -0.1805   -1.5197 H   0  0  0  0  0  0  0  0  0  0  0  0
    1.1558    0.8329   -0.1338 H   0  0  0  0  0  0  0  0  0  0  0  0
  3  1  1  0  0  0  0 
  2  1  1  0  0  0  0 
  2  4  1  0  0  0  0 
  5  2  1  0  0  0  0 
  3  6  1  0  0  0  0 
  7  3  1  0  0  0  0 
  3 54  1  0  0  0  0 
  4  8  1  0  0  0  0 
  4  9  1  0  0  0  0 
  5 10  1  0  0  0  0 
 11  5  1  0  0  0  0 
 12  6  1  0  0  0  0 
  7 13  1  0  0  0  0 
 14  7  1  0  0  0  0 
  8 15  1  0  0  0  0 
  8 16  2  0  0  0  0 
 17  9  1  0  0  0  0 
 17 11  1  0  0  0  0 
 11 18  1  0  0  0  0 
 12 19  1  0  0  0  0 
 20 12  1  0  0  0  0 
 20 14  1  0  0  0  0 
 14 21  1  0  0  0  0 
 15 22  1  0  0  0  0 
 17 23  1  0  0  0  0 
 19 24  1  0  0  0  0 
 19 25  2  0  0  0  0 
 20 26  1  0  0  0  0 
 27 23  1  0  0  0  0 
 24 28  1  0  0  0  0 
 29 26  1  0  0  0  0 
 30 27  1  0  0  0  0 
 27 31  1  0  0  0  0 
 27 56  1  0  0  0  0 
 29 32  1  0  0  0  0 
 29 33  1  0  0  0  0 
 29 55  1  0  0  0  0 
 30 34  1  0  0  0  0 
 30 35  1  0  0  0  0 
 31 36  1  0  0  0  0 
 31 37  1  0  0  0  0 
 38 32  1  0  0  0  0 
 33 39  1  0  0  0  0 
 33 40  1  0  0  0  0 
 34 41  1  0  0  0  0 
 34 42  2  0  0  0  0 
 43 35  1  0  0  0  0 
 37 43  1  0  0  0  0 
 37 44  1  0  0  0  0 
 38 45  1  0  0  0  0 
 46 38  1  0  0  0  0 
 40 46  1  0  0  0  0 
 40 47  1  0  0  0  0 
 41 48  1  0  0  0  0 
 43 49  1  0  0  0  0 
 45 50  1  0  0  0  0 
 45 51  2  0  0  0  0 
 46 52  1  0  0  0  0 
 50 53  1  0  0  0  0 
  2 57  1  0  0  0  0 
  4 58  1  0  0  0  0 
  5 59  1  0  0  0  0 
  7 60  1  0  0  0  0 
 10 61  1  0  0  0  0 
 11 62  1  0  0  0  0 
 12 63  1  0  0  0  0 
 13 64  1  0  0  0  0 
 14 65  1  0  0  0  0 
 17 66  1  0  0  0  0 
 18 67  1  0  0  0  0 
 20 68  1  0  0  0  0 
 21 69  1  0  0  0  0 
 22 70  1  0  0  0  0 
 22 71  1  0  0  0  0 
 22 72  1  0  0  0  0 
 28 73  1  0  0  0  0 
 28 74  1  0  0  0  0 
 28 75  1  0  0  0  0 
 30 76  1  0  0  0  0 
 31 77  1  0  0  0  0 
 33 78  1  0  0  0  0 
 36 79  1  0  0  0  0 
 37 80  1  0  0  0  0 
 38 81  1  0  0  0  0 
 39 82  1  0  0  0  0 
 40 83  1  0  0  0  0 
 43 84  1  0  0  0  0 
 44 85  1  0  0  0  0 
 46 86  1  0  0  0  0 
 47 87  1  0  0  0  0 
 48 88  1  0  0  0  0 
 48 89  1  0  0  0  0 
 48 90  1  0  0  0  0 
 49 91  1  0  0  0  0 
 52 92  1  0  0  0  0 
 53 93  1  0  0  0  0 
 53 94  1  0  0  0  0 
 53 95  1  0  0  0  0 
M  END
> <cdk:Title>
tetragalacturonic acid hydroxymethylester

> <Conformer>
1

> <SuperDrugID>
SD003733

$$$$
