oxiracetam
  CDK     0628171801

 21 21  0  0  0  0  0  0  0  0999 V2000
    0.8650   -2.5938    1.8590 C   0  0  1  0  0  0  0  0  0  0  0  0
    0.0957   -2.2748    3.1560 C   0  0  1  0  0  0  0  0  0  0  0  0
   -0.9262   -1.3387    2.6954 C   0  0  0  0  0  0  0  0  0  0  0  0
   -1.0490   -1.3141    1.3454 N   0  0  0  0  0  0  0  0  0  0  0  0
   -0.0884   -2.1631    0.7207 C   0  0  2  0  0  0  0  0  0  0  0  0
   -1.6200   -0.6644    3.4923 O   0  0  0  0  0  0  0  0  0  0  0  0
   -2.0031   -0.5283    0.6055 C   0  0  2  0  0  0  0  0  0  0  0  0
   -3.4016   -0.7623    1.0264 C   0  0  0  0  0  0  0  0  0  0  0  0
   -3.9204   -2.0038    1.0681 N   0  0  0  0  0  0  0  0  0  0  0  0
   -4.1327    0.1975    1.3596 O   0  0  0  0  0  0  0  0  0  0  0  0
    2.0811   -1.8465    1.8075 O   0  0  0  0  0  0  0  0  0  0  0  0
    1.1099   -3.6579    1.7940 H   0  0  0  0  0  0  0  0  0  0  0  0
   -0.3795   -3.1680    3.5681 H   0  0  0  0  0  0  0  0  0  0  0  0
    0.7401   -1.8232    3.9129 H   0  0  0  0  0  0  0  0  0  0  0  0
   -0.5869   -3.0323    0.2817 H   0  0  0  0  0  0  0  0  0  0  0  0
    0.4556   -1.6324   -0.0663 H   0  0  0  0  0  0  0  0  0  0  0  0
   -1.9425   -0.7609   -0.4607 H   0  0  0  0  0  0  0  0  0  0  0  0
   -1.7450    0.5283    0.7189 H   0  0  0  0  0  0  0  0  0  0  0  0
   -4.8401   -2.1375    1.3475 H   0  0  0  0  0  0  0  0  0  0  0  0
   -3.3762   -2.7682    0.8247 H   0  0  0  0  0  0  0  0  0  0  0  0
    2.5983   -2.1731    2.5738 H   0  0  0  0  0  0  0  0  0  0  0  0
  1  2  1  0  0  0  0 
  2  3  1  0  0  0  0 
  3  4  1  0  0  0  0 
  4  5  1  0  0  0  0 
  1  5  1  0  0  0  0 
  3  6  2  0  0  0  0 
  4  7  1  0  0  0  0 
  7  8  1  0  0  0  0 
  8  9  1  0  0  0  0 
  8 10  2  0  0  0  0 
  1 11  1  0  0  0  0 
  1 12  1  0  0  0  0 
  2 13  1  0  0  0  0 
  2 14  1  0  0  0  0 
  5 15  1  0  0  0  0 
  5 16  1  0  0  0  0 
  7 17  1  0  0  0  0 
  7 18  1  0  0  0  0 
  9 19  1  0  0  0  0 
  9 20  1  0  0  0  0 
 11 21  1  0  0  0  0 
M  END
> <cdk:Title>
oxiracetam

> <Conformer>
1

> <SuperDrugID>
SD001808

$$$$
