tizanidine
  CDK     0628171801

 24 26  0  0  0  0  0  0  0  0999 V2000
   -0.7720   -2.3765    0.1407 N   0  0  0  0  0  0  0  0  0  0  0  0
   -1.1819   -1.1109    0.0096 C   0  0  0  0  0  0  0  0  0  0  0  0
   -1.3257   -3.4096    0.6719 C   0  0  0  0  0  0  0  0  0  0  0  0
   -2.5175   -0.7405   -0.3020 C   0  0  0  0  0  0  0  0  0  0  0  0
   -0.2181   -0.0751    0.1435 C   0  0  0  0  0  0  0  0  0  0  0  0
   -2.4687   -3.4774    1.3188 N   0  0  0  0  0  0  0  0  0  0  0  0
   -0.7725   -4.5996    0.6494 N   0  0  0  0  0  0  0  0  0  0  0  0
   -2.8812    0.6152   -0.4297 C   0  0  0  0  0  0  0  0  0  0  0  0
   -3.5416   -1.5835   -0.5339 N   0  0  0  0  0  0  0  0  0  0  0  0
    1.4187   -0.4095    0.4526 Cl  0  0  0  0  0  0  0  0  0  0  0  0
   -0.5988    1.2812    0.0334 C   0  0  0  0  0  0  0  0  0  0  0  0
   -2.8031   -4.7936    1.7138 C   0  0  2  0  0  0  0  0  0  0  0  0
   -1.5577   -5.5942    1.2776 C   0  0  1  0  0  0  0  0  0  0  0  0
   -1.9315    1.6308   -0.2459 C   0  0  0  0  0  0  0  0  0  0  0  0
   -4.1676    0.8422   -0.7405 N   0  0  0  0  0  0  0  0  0  0  0  0
   -4.9279   -0.6674   -0.8792 S   0  0  0  0  0  0  0  0  0  0  0  0
   -3.0239   -2.7058    1.5166 H   0  0  0  0  0  0  0  0  0  0  0  0
    0.0889   -4.7837    0.2440 H   0  0  0  0  0  0  0  0  0  0  0  0
    0.0921    2.0247    0.1575 H   0  0  0  0  0  0  0  0  0  0  0  0
   -3.7055   -5.1248    1.1916 H   0  0  0  0  0  0  0  0  0  0  0  0
   -2.9573   -4.8400    2.7942 H   0  0  0  0  0  0  0  0  0  0  0  0
   -1.8080   -6.3929    0.5758 H   0  0  0  0  0  0  0  0  0  0  0  0
   -1.0253   -6.0083    2.1356 H   0  0  0  0  0  0  0  0  0  0  0  0
   -2.2016    2.6140   -0.3184 H   0  0  0  0  0  0  0  0  0  0  0  0
  1  2  1  0  0  0  0 
  1  3  2  0  0  0  0 
  2  4  1  0  0  0  0 
  2  5  2  0  0  0  0 
  3  6  1  0  0  0  0 
  3  7  1  0  0  0  0 
  4  8  1  0  0  0  0 
  4  9  2  0  0  0  0 
  5 10  1  0  0  0  0 
  5 11  1  0  0  0  0 
  6 12  1  0  0  0  0 
  7 13  1  0  0  0  0 
  8 14  1  0  0  0  0 
  8 15  2  0  0  0  0 
  9 16  1  0  0  0  0 
 11 14  2  0  0  0  0 
 12 13  1  0  0  0  0 
 15 16  1  0  0  0  0 
 17  6  1  0  0  0  0 
 18  7  1  0  0  0  0 
 19 11  1  0  0  0  0 
 20 12  1  0  0  0  0 
 21 12  1  0  0  0  0 
 22 13  1  0  0  0  0 
 23 13  1  0  0  0  0 
 24 14  1  0  0  0  0 
M  END
> <cdk:Title>
tizanidine

> <Conformer>
1

> <SuperDrugID>
SD002415

$$$$
