enasidenib
  Mrv0541 09131710093D              63.38613

 50 52  0  0  0  0            999 V2000
   -4.5001   -1.3993   -1.7703 C   0  0  0  0  0  0  0  0  0  0  0  0
   -3.9777   -0.7178   -3.0702 C   0  0  2  0  0  0  0  0  0  0  0  0
   -4.5909   -1.4052   -4.3233 C   0  0  0  0  0  0  0  0  0  0  0  0
   -2.5617   -0.9210   -3.1187 O   0  0  0  0  0  0  0  0  0  0  0  0
   -4.2730    0.8164   -3.0590 C   0  0  2  0  0  0  0  0  0  0  0  0
   -3.5906    1.5063   -4.1154 N   0  0  0  0  0  0  0  0  0  0  0  0
   -4.0174    2.6445   -4.7196 C   0  0  0  0  0  0  0  0  0  0  0  0
   -3.2817    3.1289   -5.7532 N   0  0  0  0  0  0  0  0  0  0  0  0
   -3.6678    4.2409   -6.4345 C   0  0  0  0  0  0  0  0  0  0  0  0
   -4.8124    4.8640   -6.0482 N   0  0  0  0  0  0  0  0  0  0  0  0
   -5.5576    4.4228   -5.0026 C   0  0  0  0  0  0  0  0  0  0  0  0
   -6.7175    4.9904   -4.5733 N   0  0  0  0  0  0  0  0  0  0  0  0
   -7.3357    6.1569   -4.9449 C   0  0  0  0  0  0  0  0  0  0  0  0
   -6.7715    7.1763   -5.7523 C   0  0  0  0  0  0  0  0  0  0  0  0
   -7.5231    8.3289   -6.0805 C   0  0  0  0  0  0  0  0  0  0  0  0
   -8.7862    8.4401   -5.5871 N   0  0  0  0  0  0  0  0  0  0  0  0
   -9.3647    7.5084   -4.7923 C   0  0  0  0  0  0  0  0  0  0  0  0
   -8.6466    6.3498   -4.4516 C   0  0  0  0  0  0  0  0  0  0  0  0
   -7.0103    9.4268   -6.9344 C   0  0  1  0  0  0  0  0  0  0  0  0
   -7.0335   10.6047   -6.2273 F   0  0  0  0  0  0  0  0  0  0  0  0
   -5.7237    9.2442   -7.3896 F   0  0  0  0  0  0  0  0  0  0  0  0
   -7.8145    9.5598   -8.0400 F   0  0  0  0  0  0  0  0  0  0  0  0
   -5.1462    3.3073   -4.3498 N   0  0  0  0  0  0  0  0  0  0  0  0
   -2.9366    4.7323   -7.5381 C   0  0  0  0  0  0  0  0  0  0  0  0
   -1.5518    4.5141   -7.7234 C   0  0  0  0  0  0  0  0  0  0  0  0
   -0.9189    5.0269   -8.8713 C   0  0  0  0  0  0  0  0  0  0  0  0
   -1.6651    5.7386   -9.8285 C   0  0  0  0  0  0  0  0  0  0  0  0
   -3.0505    5.9332   -9.6297 C   0  0  0  0  0  0  0  0  0  0  0  0
   -3.6070    5.4341   -8.4925 N   0  0  0  0  0  0  0  0  0  0  0  0
   -3.8956    6.6365  -10.6252 C   0  0  2  0  0  0  0  0  0  0  0  0
   -3.7367    6.0721  -11.8701 F   0  0  0  0  0  0  0  0  0  0  0  0
   -3.5469    7.9635  -10.6837 F   0  0  0  0  0  0  0  0  0  0  0  0
   -5.2350    6.5692  -10.3164 F   0  0  0  0  0  0  0  0  0  0  0  0
   -4.0390   -0.9540   -0.8865 H   0  0  0  0  0  0  0  0  0  0  0  0
   -4.2621   -2.4654   -1.7658 H   0  0  0  0  0  0  0  0  0  0  0  0
   -5.5825   -1.2885   -1.6861 H   0  0  0  0  0  0  0  0  0  0  0  0
   -4.3328   -2.4669   -4.3410 H   0  0  0  0  0  0  0  0  0  0  0  0
   -5.6796   -1.3109   -4.3176 H   0  0  0  0  0  0  0  0  0  0  0  0
   -4.2070   -0.9494   -5.2382 H   0  0  0  0  0  0  0  0  0  0  0  0
   -2.2118   -0.4715   -2.3203 H   0  0  0  0  0  0  0  0  0  0  0  0
   -3.9320    1.2455   -2.1134 H   0  0  0  0  0  0  0  0  0  0  0  0
   -5.3553    0.9731   -3.1249 H   0  0  0  0  0  0  0  0  0  0  0  0
   -2.7451    1.1353   -4.4212 H   0  0  0  0  0  0  0  0  0  0  0  0
   -7.1919    4.4715   -3.9040 H   0  0  0  0  0  0  0  0  0  0  0  0
   -5.8180    7.0972   -6.0986 H   0  0  0  0  0  0  0  0  0  0  0  0
  -10.3153    7.6531   -4.4469 H   0  0  0  0  0  0  0  0  0  0  0  0
   -9.0864    5.6525   -3.8450 H   0  0  0  0  0  0  0  0  0  0  0  0
   -1.0003    3.9945   -7.0368 H   0  0  0  0  0  0  0  0  0  0  0  0
    0.0842    4.8763   -9.0134 H   0  0  0  0  0  0  0  0  0  0  0  0
   -1.2014    6.0995  -10.6660 H   0  0  0  0  0  0  0  0  0  0  0  0
  1  2  1  0  0  0  0
  2  3  1  0  0  0  0
  2  4  1  0  0  0  0
  2  5  1  0  0  0  0
  5  6  1  0  0  0  0
  6  7  1  0  0  0  0
  7  8  2  0  0  0  0
  8  9  1  0  0  0  0
  9 10  2  0  0  0  0
 10 11  1  0  0  0  0
 11 12  1  0  0  0  0
 12 13  1  0  0  0  0
 13 14  2  0  0  0  0
 14 15  1  0  0  0  0
 15 16  2  0  0  0  0
 16 17  1  0  0  0  0
 17 18  2  0  0  0  0
 15 19  1  0  0  0  0
 19 20  1  0  0  0  0
 19 21  1  0  0  0  0
 19 22  1  0  0  0  0
 11 23  2  0  0  0  0
  9 24  1  0  0  0  0
 24 25  2  0  0  0  0
 25 26  1  0  0  0  0
 26 27  2  0  0  0  0
 27 28  1  0  0  0  0
 28 29  2  0  0  0  0
 28 30  1  0  0  0  0
 30 31  1  0  0  0  0
 30 32  1  0  0  0  0
 30 33  1  0  0  0  0
 23  7  1  0  0  0  0
 29 24  1  0  0  0  0
 18 13  1  0  0  0  0
  1 34  1  0  0  0  0
  1 35  1  0  0  0  0
  1 36  1  0  0  0  0
  3 37  1  0  0  0  0
  3 38  1  0  0  0  0
  3 39  1  0  0  0  0
  4 40  1  0  0  0  0
  5 41  1  0  0  0  0
  5 42  1  0  0  0  0
  6 43  1  0  0  0  0
 12 44  1  0  0  0  0
 14 45  1  0  0  0  0
 17 46  1  0  0  0  0
 18 47  1  0  0  0  0
 25 48  1  0  0  0  0
 26 49  1  0  0  0  0
 27 50  1  0  0  0  0
M  END
>  <SuperDrugID>
SD006014

>  <_MOLCOUNT>
1

$$$$
