lurasidone
  CDK     0628171801

 71 77  0  0  0  0  0  0  0  0999 V2000
   -1.3925   -2.9033  -11.8957 C   0  0  1  0  0  0  0  0  0  0  0  0
   -2.3249   -1.6370  -12.1323 C   0  0  2  0  0  0  0  0  0  0  0  0
   -2.5515   -0.9221  -10.6665 C   0  0  2  0  0  0  0  0  0  0  0  0
   -1.1659   -0.2743  -10.2567 C   0  0  2  0  0  0  0  0  0  0  0  0
   -0.2773   -1.5245  -10.0143 C   0  0  2  0  0  0  0  0  0  0  0  0
   -1.2094   -2.7428  -10.3467 C   0  0  1  0  0  0  0  0  0  0  0  0
   -1.1958    0.3643   -8.9347 C   0  0  0  0  0  0  0  0  0  0  0  0
   -0.4729   -0.3072   -8.0094 N   0  0  0  0  0  0  0  0  0  0  0  0
    0.1011   -1.3852   -8.5977 C   0  0  0  0  0  0  0  0  0  0  0  0
    0.8679   -2.1926   -8.0235 O   0  0  0  0  0  0  0  0  0  0  0  0
   -1.8431    1.4138   -8.7143 O   0  0  0  0  0  0  0  0  0  0  0  0
   -0.3668    0.0558   -6.6148 C   0  0  2  0  0  0  0  0  0  0  0  0
    0.4301    1.3723   -6.3148 C   0  0  2  0  0  0  0  0  0  0  0  0
    1.8098    1.3294   -7.0547 C   0  0  2  0  0  0  0  0  0  0  0  0
    2.7083    2.5496   -6.7458 C   0  0  1  0  0  0  0  0  0  0  0  0
    2.9405    2.6853   -5.2258 C   0  0  1  0  0  0  0  0  0  0  0  0
    1.5912    2.8163   -4.4805 C   0  0  2  0  0  0  0  0  0  0  0  0
    0.6124    1.6250   -4.7639 C   0  0  1  0  0  0  0  0  0  0  0  0
   -0.7364    1.8538   -3.9924 C   0  0  2  0  0  0  0  0  0  0  0  0
   -0.4919    2.0967   -2.5382 N   0  0  2  0  0  0  0  0  0  0  0  0
   -0.2865    0.9133   -1.6551 C   0  0  2  0  0  0  0  0  0  0  0  0
   -1.2035    3.2127   -1.8556 C   0  0  1  0  0  0  0  0  0  0  0  0
   -0.3928    3.6482   -0.6039 C   0  0  2  0  0  0  0  0  0  0  0  0
    0.0974    2.5285    0.1733 N   0  0  0  0  0  0  0  0  0  0  0  0
    0.6408    1.3713   -0.5083 C   0  0  2  0  0  0  0  0  0  0  0  0
    0.0567    2.5649    1.5439 C   0  0  0  0  0  0  0  0  0  0  0  0
   -1.1211    2.6975    2.1996 N   0  0  0  0  0  0  0  0  0  0  0  0
   -0.8358    2.6658    3.8805 S   0  0  0  0  0  0  0  0  0  0  0  0
    0.8963    2.4936    3.7409 C   0  0  0  0  0  0  0  0  0  0  0  0
    2.5502    2.3587    1.9816 C   0  0  0  0  0  0  0  0  0  0  0  0
    1.1969    2.4645    2.3737 C   0  0  0  0  0  0  0  0  0  0  0  0
    1.8812    2.3973    4.7377 C   0  0  0  0  0  0  0  0  0  0  0  0
    3.2263    2.2737    4.3333 C   0  0  0  0  0  0  0  0  0  0  0  0
    3.5597    2.2641    2.9621 C   0  0  0  0  0  0  0  0  0  0  0  0
   -2.5920   -2.2759   -9.8145 C   0  0  1  0  0  0  0  0  0  0  0  0
    0.6236   -1.5155  -10.6367 H   0  0  0  0  0  0  0  0  0  0  0  0
   -0.6613    0.4274  -10.9737 H   0  0  0  0  0  0  0  0  0  0  0  0
    1.0805    0.7294   -4.3465 H   0  0  0  0  0  0  0  0  0  0  0  0
   -1.9074   -3.8352  -12.1466 H   0  0  0  0  0  0  0  0  0  0  0  0
   -0.4434   -2.8386  -12.4341 H   0  0  0  0  0  0  0  0  0  0  0  0
   -3.2597   -2.0057  -12.6308 H   0  0  0  0  0  0  0  0  0  0  0  0
   -1.8338   -0.9972  -12.9093 H   0  0  0  0  0  0  0  0  0  0  0  0
   -3.4339   -0.2819  -10.5900 H   0  0  0  0  0  0  0  0  0  0  0  0
   -0.8735   -3.6766   -9.8823 H   0  0  0  0  0  0  0  0  0  0  0  0
    0.0951   -0.7579   -6.0473 H   0  0  0  0  0  0  0  0  0  0  0  0
   -1.3857    0.1547   -6.2369 H   0  0  0  0  0  0  0  0  0  0  0  0
   -0.1370    2.2154   -6.7241 H   0  0  0  0  0  0  0  0  0  0  0  0
    1.6548    1.3029   -8.1366 H   0  0  0  0  0  0  0  0  0  0  0  0
    2.3480    0.4200   -6.7732 H   0  0  0  0  0  0  0  0  0  0  0  0
    3.6722    2.4298   -7.2493 H   0  0  0  0  0  0  0  0  0  0  0  0
    2.2356    3.4592   -7.1289 H   0  0  0  0  0  0  0  0  0  0  0  0
    3.4869    1.8098   -4.8566 H   0  0  0  0  0  0  0  0  0  0  0  0
    3.5518    3.5698   -5.0307 H   0  0  0  0  0  0  0  0  0  0  0  0
    1.1153    3.7588   -4.7673 H   0  0  0  0  0  0  0  0  0  0  0  0
    1.8215    2.8714   -3.4130 H   0  0  0  0  0  0  0  0  0  0  0  0
   -1.4014    0.9935   -4.0982 H   0  0  0  0  0  0  0  0  0  0  0  0
   -1.2431    2.7109   -4.4449 H   0  0  0  0  0  0  0  0  0  0  0  0
    0.1909    0.0846   -2.1874 H   0  0  0  0  0  0  0  0  0  0  0  0
   -1.2410    0.5579   -1.2502 H   0  0  0  0  0  0  0  0  0  0  0  0
   -1.3004    4.0753   -2.5211 H   0  0  0  0  0  0  0  0  0  0  0  0
   -2.2065    2.8951   -1.5579 H   0  0  0  0  0  0  0  0  0  0  0  0
   -1.0225    4.3150   -0.0078 H   0  0  0  0  0  0  0  0  0  0  0  0
    0.4735    4.2279   -0.9366 H   0  0  0  0  0  0  0  0  0  0  0  0
    1.6087    1.6337   -0.9448 H   0  0  0  0  0  0  0  0  0  0  0  0
    0.7962    0.5284    0.1716 H   0  0  0  0  0  0  0  0  0  0  0  0
    2.8118    2.3561    0.9954 H   0  0  0  0  0  0  0  0  0  0  0  0
    1.6329    2.4193    5.7284 H   0  0  0  0  0  0  0  0  0  0  0  0
    3.9643    2.1940    5.0370 H   0  0  0  0  0  0  0  0  0  0  0  0
    4.5386    2.1841    2.6746 H   0  0  0  0  0  0  0  0  0  0  0  0
   -2.5781   -2.2015   -8.6951 H   0  0  0  0  0  0  0  0  0  0  0  0
   -3.3798   -3.0400  -10.0521 H   0  0  0  0  0  0  0  0  0  0  0  0
  1  2  1  0  0  0  0 
  6  1  1  0  0  0  0 
  3  2  1  0  0  0  0 
  3  4  1  0  0  0  0 
  4  7  1  0  0  0  0 
  5  6  1  0  0  0  0 
  5  9  1  0  0  0  0 
  7  8  1  0  0  0  0 
  8  9  1  0  0  0  0 
  4  5  1  0  0  0  0 
  9 10  2  0  0  0  0 
  7 11  2  0  0  0  0 
  8 12  1  0  0  0  0 
 13 12  1  0  0  0  0 
 13 14  1  0  0  0  0 
 13 18  1  0  0  0  0 
 14 15  1  0  0  0  0 
 15 16  1  0  0  0  0 
 16 17  1  0  0  0  0 
 17 18  1  0  0  0  0 
 18 19  1  0  0  0  0 
 19 20  1  0  0  0  0 
 21 20  1  0  0  0  0 
 20 22  1  0  0  0  0 
 21 25  1  0  0  0  0 
 22 23  1  0  0  0  0 
 23 24  1  0  0  0  0 
 24 25  1  0  0  0  0 
 24 26  1  0  0  0  0 
 26 27  2  0  0  0  0 
 26 31  1  0  0  0  0 
 27 28  1  0  0  0  0 
 28 29  1  0  0  0  0 
 29 32  2  0  0  0  0 
 30 31  2  0  0  0  0 
 30 34  1  0  0  0  0 
 32 33  1  0  0  0  0 
 33 34  2  0  0  0  0 
 31 29  1  0  0  0  0 
  3 35  1  0  0  0  0 
 35  6  1  0  0  0  0 
  5 36  1  0  0  0  0 
  4 37  1  0  0  0  0 
 18 38  1  0  0  0  0 
  1 39  1  0  0  0  0 
  1 40  1  0  0  0  0 
  2 41  1  0  0  0  0 
  2 42  1  0  0  0  0 
  3 43  1  0  0  0  0 
  6 44  1  0  0  0  0 
 12 45  1  0  0  0  0 
 12 46  1  0  0  0  0 
 13 47  1  0  0  0  0 
 14 48  1  0  0  0  0 
 14 49  1  0  0  0  0 
 15 50  1  0  0  0  0 
 15 51  1  0  0  0  0 
 16 52  1  0  0  0  0 
 16 53  1  0  0  0  0 
 17 54  1  0  0  0  0 
 17 55  1  0  0  0  0 
 19 56  1  0  0  0  0 
 19 57  1  0  0  0  0 
 21 58  1  0  0  0  0 
 21 59  1  0  0  0  0 
 22 60  1  0  0  0  0 
 22 61  1  0  0  0  0 
 23 62  1  0  0  0  0 
 23 63  1  0  0  0  0 
 25 64  1  0  0  0  0 
 25 65  1  0  0  0  0 
 30 66  1  0  0  0  0 
 32 67  1  0  0  0  0 
 33 68  1  0  0  0  0 
 34 69  1  0  0  0  0 
 35 70  1  0  0  0  0 
 35 71  1  0  0  0  0 
M  END
> <cdk:Title>
lurasidone

> <Conformer>
1

> <SuperDrugID>
SD003400

$$$$
