pimobendan
  CDK     0628171801

 43 46  0  0  0  0  0  0  0  0999 V2000
   10.9851    2.3867    3.4553 C   0  0  0  0  0  0  0  0  0  0  0  0
   11.1619    1.0001    2.7728 C   0  0  1  0  0  0  0  0  0  0  0  0
   11.4578    1.1519    1.3272 C   0  0  0  0  0  0  0  0  0  0  0  0
   12.2991    0.1682    3.4618 C   0  0  1  0  0  0  0  0  0  0  0  0
   10.4875    1.0807    0.3023 C   0  0  0  0  0  0  0  0  0  0  0  0
   12.7100    1.2715    1.0104 N   0  0  0  0  0  0  0  0  0  0  0  0
   13.6189    0.7004    3.0456 C   0  0  0  0  0  0  0  0  0  0  0  0
    9.1018    1.3147    0.5489 C   0  0  0  0  0  0  0  0  0  0  0  0
   10.8674    0.7366   -1.0329 C   0  0  0  0  0  0  0  0  0  0  0  0
   13.6989    1.3090    1.8302 N   0  0  0  0  0  0  0  0  0  0  0  0
   14.6122    0.6665    3.8058 O   0  0  0  0  0  0  0  0  0  0  0  0
    8.1741    1.2020   -0.5011 C   0  0  0  0  0  0  0  0  0  0  0  0
    9.9264    0.6295   -2.0777 C   0  0  0  0  0  0  0  0  0  0  0  0
    8.5782    0.8657   -1.7837 C   0  0  0  0  0  0  0  0  0  0  0  0
    6.8453    1.3608   -0.5445 N   0  0  0  0  0  0  0  0  0  0  0  0
    7.5001    0.8221   -2.5781 N   0  0  0  0  0  0  0  0  0  0  0  0
    6.4304    1.1306   -1.8101 C   0  0  0  0  0  0  0  0  0  0  0  0
    5.0909    1.1806   -2.2807 C   0  0  0  0  0  0  0  0  0  0  0  0
    4.7279    0.5125   -3.4763 C   0  0  0  0  0  0  0  0  0  0  0  0
    4.0830    1.8830   -1.5761 C   0  0  0  0  0  0  0  0  0  0  0  0
    3.3996    0.5224   -3.9403 C   0  0  0  0  0  0  0  0  0  0  0  0
    2.7556    1.9029   -2.0470 C   0  0  0  0  0  0  0  0  0  0  0  0
    2.4062    1.2250   -3.2311 C   0  0  0  0  0  0  0  0  0  0  0  0
    1.1035    1.2283   -3.6528 O   0  0  0  0  0  0  0  0  0  0  0  0
    0.8409    2.2021   -4.6795 C   0  0  0  0  0  0  0  0  0  0  0  0
   10.1487    2.9305    3.0150 H   0  0  0  0  0  0  0  0  0  0  0  0
   10.7818    2.2555    4.5193 H   0  0  0  0  0  0  0  0  0  0  0  0
   11.8857    2.9961    3.3515 H   0  0  0  0  0  0  0  0  0  0  0  0
   10.2380    0.4350    2.9181 H   0  0  0  0  0  0  0  0  0  0  0  0
   12.1940    0.1909    4.5495 H   0  0  0  0  0  0  0  0  0  0  0  0
   12.2365   -0.8736    3.1395 H   0  0  0  0  0  0  0  0  0  0  0  0
    8.7516    1.5623    1.4733 H   0  0  0  0  0  0  0  0  0  0  0  0
   11.8453    0.5401   -1.2630 H   0  0  0  0  0  0  0  0  0  0  0  0
   14.5052    1.7929    1.5890 H   0  0  0  0  0  0  0  0  0  0  0  0
   10.2174    0.3800   -3.0238 H   0  0  0  0  0  0  0  0  0  0  0  0
    6.2783    1.5904    0.2078 H   0  0  0  0  0  0  0  0  0  0  0  0
    5.4252   -0.0040   -4.0180 H   0  0  0  0  0  0  0  0  0  0  0  0
    4.3046    2.3903   -0.7161 H   0  0  0  0  0  0  0  0  0  0  0  0
    3.1575    0.0136   -4.7935 H   0  0  0  0  0  0  0  0  0  0  0  0
    2.0396    2.4121   -1.5241 H   0  0  0  0  0  0  0  0  0  0  0  0
   -0.2374    2.2412   -4.8397 H   0  0  0  0  0  0  0  0  0  0  0  0
    1.1762    3.2029   -4.3911 H   0  0  0  0  0  0  0  0  0  0  0  0
    1.3157    1.9148   -5.6212 H   0  0  0  0  0  0  0  0  0  0  0  0
  2  1  1  0  0  0  0 
  2  3  1  0  0  0  0 
  2  4  1  0  0  0  0 
  3  5  1  0  0  0  0 
  3  6  2  0  0  0  0 
  4  7  1  0  0  0  0 
  5  8  1  0  0  0  0 
  5  9  2  0  0  0  0 
  6 10  1  0  0  0  0 
  7 10  1  0  0  0  0 
  7 11  2  0  0  0  0 
  8 12  2  0  0  0  0 
  9 13  1  0  0  0  0 
 12 14  1  0  0  0  0 
 12 15  1  0  0  0  0 
 13 14  2  0  0  0  0 
 14 16  1  0  0  0  0 
 15 17  1  0  0  0  0 
 16 17  2  0  0  0  0 
 17 18  1  0  0  0  0 
 18 19  2  0  0  0  0 
 18 20  1  0  0  0  0 
 19 21  1  0  0  0  0 
 20 22  2  0  0  0  0 
 21 23  2  0  0  0  0 
 22 23  1  0  0  0  0 
 23 24  1  0  0  0  0 
 24 25  1  0  0  0  0 
 26  1  1  0  0  0  0 
 27  1  1  0  0  0  0 
 28  1  1  0  0  0  0 
 29  2  1  0  0  0  0 
 30  4  1  0  0  0  0 
 31  4  1  0  0  0  0 
 32  8  1  0  0  0  0 
 33  9  1  0  0  0  0 
 34 10  1  0  0  0  0 
 35 13  1  0  0  0  0 
 36 15  1  0  0  0  0 
 37 19  1  0  0  0  0 
 38 20  1  0  0  0  0 
 39 21  1  0  0  0  0 
 40 22  1  0  0  0  0 
 41 25  1  0  0  0  0 
 42 25  1  0  0  0  0 
 43 25  1  0  0  0  0 
M  END
> <cdk:Title>
pimobendan

> <Conformer>
1

> <SuperDrugID>
SD001948

$$$$
