brilliant green
  CDK     0628171802

 62 64  0  0  0  0  0  0  0  0999 V2000
   -2.5010   -3.6038   -2.1014 C   0  0  0  0  0  0  0  0  0  0  0  0
   -1.3302   -2.7583   -1.7376 C   0  0  0  0  0  0  0  0  0  0  0  0
   -3.1108   -3.3665   -3.4408 C   0  0  0  0  0  0  0  0  0  0  0  0
   -3.4215   -3.9425   -0.9835 C   0  0  0  0  0  0  0  0  0  0  0  0
   -1.2622   -1.3738   -2.0183 C   0  0  0  0  0  0  0  0  0  0  0  0
   -0.2287   -3.3707   -1.0995 C   0  0  0  0  0  0  0  0  0  0  0  0
   -4.3536   -2.7140   -3.6155 C   0  0  0  0  0  0  0  0  0  0  0  0
   -2.4245   -3.8175   -4.5909 C   0  0  0  0  0  0  0  0  0  0  0  0
   -3.6071   -5.3029   -0.6436 C   0  0  0  0  0  0  0  0  0  0  0  0
   -4.1243   -2.9534   -0.2539 C   0  0  0  0  0  0  0  0  0  0  0  0
   -0.1101   -0.6327   -1.6941 C   0  0  0  0  0  0  0  0  0  0  0  0
    0.9098   -2.6214   -0.7572 C   0  0  0  0  0  0  0  0  0  0  0  0
   -4.9035   -2.5427   -4.8959 C   0  0  0  0  0  0  0  0  0  0  0  0
   -2.9682   -3.6213   -5.8739 C   0  0  0  0  0  0  0  0  0  0  0  0
   -4.4837   -5.6661    0.3960 C   0  0  0  0  0  0  0  0  0  0  0  0
   -5.0089   -3.3201    0.7772 C   0  0  0  0  0  0  0  0  0  0  0  0
    1.0009   -1.2455   -1.0667 C   0  0  0  0  0  0  0  0  0  0  0  0
   -4.2205   -2.9861   -6.0511 C   0  0  0  0  0  0  0  0  0  0  0  0
   -5.1853   -4.6751    1.1045 C   0  0  0  0  0  0  0  0  0  0  0  0
    2.1435   -0.5330   -0.7385 N   0  0  0  0  0  0  0  0  0  0  0  0
   -4.7610   -2.8058   -7.3131 N   0  0  0  0  0  0  0  0  0  0  0  0
    3.4536   -1.0083   -1.1588 C   0  0  2  0  0  0  0  0  0  0  0  0
    2.0397    0.6960    0.0255 C   0  0  1  0  0  0  0  0  0  0  0  0
   -4.9089   -3.9424   -8.2043 C   0  0  2  0  0  0  0  0  0  0  0  0
   -5.2548   -1.4997   -7.7208 C   0  0  1  0  0  0  0  0  0  0  0  0
    4.2112   -0.0214   -2.0823 C   0  0  0  0  0  0  0  0  0  0  0  0
    1.2562    0.5439    1.3495 C   0  0  0  0  0  0  0  0  0  0  0  0
   -4.0620   -3.8339   -9.4931 C   0  0  0  0  0  0  0  0  0  0  0  0
   -4.2046   -0.3703   -7.6016 C   0  0  0  0  0  0  0  0  0  0  0  0
   -2.0432   -0.8950   -2.4738 H   0  0  0  0  0  0  0  0  0  0  0  0
   -0.2374   -4.3705   -0.8747 H   0  0  0  0  0  0  0  0  0  0  0  0
   -4.8831   -2.3579   -2.8193 H   0  0  0  0  0  0  0  0  0  0  0  0
   -1.5182   -4.2896   -4.5113 H   0  0  0  0  0  0  0  0  0  0  0  0
   -3.1111   -6.0443   -1.1473 H   0  0  0  0  0  0  0  0  0  0  0  0
   -4.0069   -1.9600   -0.4682 H   0  0  0  0  0  0  0  0  0  0  0  0
   -0.0888    0.3607   -1.9290 H   0  0  0  0  0  0  0  0  0  0  0  0
    1.6788   -3.0907   -0.2748 H   0  0  0  0  0  0  0  0  0  0  0  0
   -5.8169   -2.0930   -4.9736 H   0  0  0  0  0  0  0  0  0  0  0  0
   -2.4371   -3.9458   -6.6841 H   0  0  0  0  0  0  0  0  0  0  0  0
   -4.6124   -6.6519    0.6340 H   0  0  0  0  0  0  0  0  0  0  0  0
   -5.5262   -2.6015    1.2877 H   0  0  0  0  0  0  0  0  0  0  0  0
   -5.8246   -4.9388    1.8567 H   0  0  0  0  0  0  0  0  0  0  0  0
    3.3774   -1.9507   -1.7097 H   0  0  0  0  0  0  0  0  0  0  0  0
    4.0661   -1.2133   -0.2752 H   0  0  0  0  0  0  0  0  0  0  0  0
    3.0296    1.0751    0.2963 H   0  0  0  0  0  0  0  0  0  0  0  0
    1.5672    1.4655   -0.5885 H   0  0  0  0  0  0  0  0  0  0  0  0
   -5.9611   -4.0430   -8.4788 H   0  0  0  0  0  0  0  0  0  0  0  0
   -4.6362   -4.8807   -7.7109 H   0  0  0  0  0  0  0  0  0  0  0  0
   -5.5935   -1.5114   -8.7595 H   0  0  0  0  0  0  0  0  0  0  0  0
   -6.1310   -1.2292   -7.1272 H   0  0  0  0  0  0  0  0  0  0  0  0
    3.5290    0.4113   -2.8134 H   0  0  0  0  0  0  0  0  0  0  0  0
    4.6694    0.7847   -1.5070 H   0  0  0  0  0  0  0  0  0  0  0  0
    5.0054   -0.5468   -2.6156 H   0  0  0  0  0  0  0  0  0  0  0  0
    1.2648    1.4945    1.8851 H   0  0  0  0  0  0  0  0  0  0  0  0
    1.7258   -0.2190    1.9743 H   0  0  0  0  0  0  0  0  0  0  0  0
    0.2173    0.2618    1.1638 H   0  0  0  0  0  0  0  0  0  0  0  0
   -4.4703   -3.0763  -10.1627 H   0  0  0  0  0  0  0  0  0  0  0  0
   -3.0310   -3.5737   -9.2488 H   0  0  0  0  0  0  0  0  0  0  0  0
   -4.0658   -4.7903  -10.0201 H   0  0  0  0  0  0  0  0  0  0  0  0
   -4.6061    0.5461   -8.0353 H   0  0  0  0  0  0  0  0  0  0  0  0
   -3.2936   -0.6417   -8.1360 H   0  0  0  0  0  0  0  0  0  0  0  0
   -3.9572   -0.1753   -6.5568 H   0  0  0  0  0  0  0  0  0  0  0  0
  1  2  1  0  0  0  0 
  1  3  1  0  0  0  0 
  1  4  1  0  0  0  0 
  2  5  2  0  0  0  0 
  2  6  1  0  0  0  0 
  3  7  2  0  0  0  0 
  3  8  1  0  0  0  0 
  4  9  2  0  0  0  0 
  4 10  1  0  0  0  0 
  5 11  1  0  0  0  0 
  6 12  2  0  0  0  0 
  7 13  1  0  0  0  0 
  8 14  2  0  0  0  0 
  9 15  1  0  0  0  0 
 10 16  2  0  0  0  0 
 11 17  2  0  0  0  0 
 12 17  1  0  0  0  0 
 13 18  2  0  0  0  0 
 14 18  1  0  0  0  0 
 15 19  2  0  0  0  0 
 16 19  1  0  0  0  0 
 17 20  1  0  0  0  0 
 18 21  1  0  0  0  0 
 20 22  1  0  0  0  0 
 20 23  1  0  0  0  0 
 21 24  1  0  0  0  0 
 21 25  1  0  0  0  0 
 22 26  1  0  0  0  0 
 23 27  1  0  0  0  0 
 24 28  1  0  0  0  0 
 25 29  1  0  0  0  0 
  5 30  1  0  0  0  0 
  6 31  1  0  0  0  0 
  7 32  1  0  0  0  0 
  8 33  1  0  0  0  0 
  9 34  1  0  0  0  0 
 10 35  1  0  0  0  0 
 11 36  1  0  0  0  0 
 12 37  1  0  0  0  0 
 13 38  1  0  0  0  0 
 14 39  1  0  0  0  0 
 15 40  1  0  0  0  0 
 16 41  1  0  0  0  0 
 19 42  1  0  0  0  0 
 22 43  1  0  0  0  0 
 22 44  1  0  0  0  0 
 23 45  1  0  0  0  0 
 23 46  1  0  0  0  0 
 24 47  1  0  0  0  0 
 24 48  1  0  0  0  0 
 25 49  1  0  0  0  0 
 25 50  1  0  0  0  0 
 26 51  1  0  0  0  0 
 26 52  1  0  0  0  0 
 26 53  1  0  0  0  0 
 27 54  1  0  0  0  0 
 27 55  1  0  0  0  0 
 27 56  1  0  0  0  0 
 28 57  1  0  0  0  0 
 28 58  1  0  0  0  0 
 28 59  1  0  0  0  0 
 29 60  1  0  0  0  0 
 29 61  1  0  0  0  0 
 29 62  1  0  0  0  0 
M  CHG  1   1   1
M  END
> <cdk:Title>
brilliant green

> <Conformer>
1

> <SuperDrugID>
SD003697

$$$$
