romidepsin
  CDK     0628171801

 72 73  0  0  0  0  0  0  0  0999 V2000
    0.7870    5.4714   -5.5421 C   0  0  0  0  0  0  0  0  0  0  0  0
   -0.5355    5.3273   -5.2135 N   0  0  0  0  0  0  0  0  0  0  0  0
    3.6016    4.6323   -5.4801 O   0  0  0  0  0  0  0  0  0  0  0  0
    3.3331    5.9812   -5.0187 C   0  0  1  0  0  0  0  0  0  0  0  0
    1.8079    6.0675   -4.6530 C   0  0  1  0  0  0  0  0  0  0  0  0
    1.1127    5.0718   -6.6827 O   0  0  0  0  0  0  0  0  0  0  0  0
    3.5450    6.6694   -5.8405 H   0  0  0  0  0  0  0  0  0  0  0  0
    3.6800    3.4667   -4.7491 C   0  0  0  0  0  0  0  0  0  0  0  0
    3.7676    2.1460   -5.4152 C   0  0  2  0  0  0  0  0  0  0  0  0
    3.6777    3.4828   -3.4955 O   0  0  0  0  0  0  0  0  0  0  0  0
    4.7830    2.0702   -6.6063 C   0  0  1  0  0  0  0  0  0  0  0  0
    4.0818    1.3964   -4.6792 H   0  0  0  0  0  0  0  0  0  0  0  0
    6.2334    2.4511   -6.1905 C   0  0  0  0  0  0  0  0  0  0  0  0
    4.7854    0.6570   -7.2629 C   0  0  0  0  0  0  0  0  0  0  0  0
    2.4391    1.8380   -5.8681 N   0  0  0  0  0  0  0  0  0  0  0  0
    1.4261    1.3016   -5.1253 C   0  0  0  0  0  0  0  0  0  0  0  0
    1.5096    0.9747   -3.7828 C   0  0  0  0  0  0  0  0  0  0  0  0
    0.3297    1.1260   -5.7018 O   0  0  0  0  0  0  0  0  0  0  0  0
    1.9441   -0.2473   -3.4097 C   0  0  0  0  0  0  0  0  0  0  0  0
    2.1658   -0.6732   -2.0422 C   0  0  0  0  0  0  0  0  0  0  0  0
    1.1901    1.9747   -2.9542 N   0  0  0  0  0  0  0  0  0  0  0  0
    0.2635    1.9837   -1.9550 C   0  0  0  0  0  0  0  0  0  0  0  0
    0.0464    3.2453   -1.1949 C   0  0  2  0  0  0  0  0  0  0  0  0
   -0.4562    0.9878   -1.7047 O   0  0  0  0  0  0  0  0  0  0  0  0
   -0.8772    3.1592   -0.6130 H   0  0  0  0  0  0  0  0  0  0  0  0
   -0.1192    4.3576   -2.1024 N   0  0  0  0  0  0  0  0  0  0  0  0
   -1.1153    4.4627   -3.0425 C   0  0  0  0  0  0  0  0  0  0  0  0
   -1.9774    3.5536   -3.1258 O   0  0  0  0  0  0  0  0  0  0  0  0
   -1.2433    5.6142   -3.9860 C   0  0  1  0  0  0  0  0  0  0  0  0
   -1.0874    7.0436   -3.3456 C   0  0  2  0  0  0  0  0  0  0  0  0
   -2.0434    7.2653   -2.1370 C   0  0  0  0  0  0  0  0  0  0  0  0
   -1.3162    8.1743   -4.3922 C   0  0  0  0  0  0  0  0  0  0  0  0
   -2.2854    5.6017   -4.3272 H   0  0  0  0  0  0  0  0  0  0  0  0
    4.1570    6.3415   -3.8553 C   0  0  0  0  0  0  0  0  0  0  0  0
    3.8737    7.3647   -3.0265 C   0  0  0  0  0  0  0  0  0  0  0  0
    4.1164    7.2387   -1.5934 C   0  0  1  0  0  0  0  0  0  0  0  0
    1.2064    3.4526   -0.1734 C   0  0  2  0  0  0  0  0  0  0  0  0
    1.0452    4.9758    0.8207 S   0  0  0  0  0  0  0  0  0  0  0  0
    2.9459    5.8876    0.6995 S   0  0  0  0  0  0  0  0  0  0  0  0
    2.9964    6.2871   -1.0711 C   0  0  2  0  0  0  0  0  0  0  0  0
   -1.0881    4.9391   -5.9126 H   0  0  0  0  0  0  0  0  0  0  0  0
    1.5492    7.1233   -4.5684 H   0  0  0  0  0  0  0  0  0  0  0  0
    1.6769    5.5918   -3.6823 H   0  0  0  0  0  0  0  0  0  0  0  0
    4.4702    2.7819   -7.3769 H   0  0  0  0  0  0  0  0  0  0  0  0
    6.5945    1.7915   -5.3986 H   0  0  0  0  0  0  0  0  0  0  0  0
    6.2788    3.4812   -5.8349 H   0  0  0  0  0  0  0  0  0  0  0  0
    6.9105    2.3685   -7.0430 H   0  0  0  0  0  0  0  0  0  0  0  0
    5.1427   -0.0962   -6.5591 H   0  0  0  0  0  0  0  0  0  0  0  0
    5.4304    0.6441   -8.1422 H   0  0  0  0  0  0  0  0  0  0  0  0
    3.7861    0.3716   -7.5916 H   0  0  0  0  0  0  0  0  0  0  0  0
    2.2343    2.0465   -6.7951 H   0  0  0  0  0  0  0  0  0  0  0  0
    2.1465   -0.9222   -4.1175 H   0  0  0  0  0  0  0  0  0  0  0  0
    2.8942   -1.4878   -2.0132 H   0  0  0  0  0  0  0  0  0  0  0  0
    1.2304   -1.0384   -1.6187 H   0  0  0  0  0  0  0  0  0  0  0  0
    2.5513    0.1431   -1.4279 H   0  0  0  0  0  0  0  0  0  0  0  0
    1.6187    2.8262   -3.1270 H   0  0  0  0  0  0  0  0  0  0  0  0
    0.5213    5.0831   -2.0392 H   0  0  0  0  0  0  0  0  0  0  0  0
   -0.0788    7.1541   -2.9479 H   0  0  0  0  0  0  0  0  0  0  0  0
   -1.8555    6.5283   -1.3560 H   0  0  0  0  0  0  0  0  0  0  0  0
   -1.8859    8.2536   -1.7006 H   0  0  0  0  0  0  0  0  0  0  0  0
   -3.0867    7.1849   -2.4464 H   0  0  0  0  0  0  0  0  0  0  0  0
   -0.6516    8.0601   -5.2484 H   0  0  0  0  0  0  0  0  0  0  0  0
   -1.1227    9.1535   -3.9498 H   0  0  0  0  0  0  0  0  0  0  0  0
   -2.3457    8.1574   -4.7544 H   0  0  0  0  0  0  0  0  0  0  0  0
    4.8625    5.7022   -3.5735 H   0  0  0  0  0  0  0  0  0  0  0  0
    3.2913    8.1120   -3.3302 H   0  0  0  0  0  0  0  0  0  0  0  0
    5.1081    6.8284   -1.3819 H   0  0  0  0  0  0  0  0  0  0  0  0
    4.0254    8.2140   -1.1087 H   0  0  0  0  0  0  0  0  0  0  0  0
    2.1653    3.4432   -0.6890 H   0  0  0  0  0  0  0  0  0  0  0  0
    1.2162    2.6198    0.5341 H   0  0  0  0  0  0  0  0  0  0  0  0
    3.0967    5.3244   -1.5726 H   0  0  0  0  0  0  0  0  0  0  0  0
    2.0183    6.7067   -1.3255 H   0  0  0  0  0  0  0  0  0  0  0  0
  1  2  1  0  0  0  0 
  1  5  1  0  0  0  0 
  4  3  1  0  0  0  0 
  4  5  1  0  0  0  0 
  1  6  2  0  0  0  0 
  4  7  1  0  0  0  0 
  3  8  1  0  0  0  0 
  9  8  1  0  0  0  0 
  8 10  2  0  0  0  0 
  9 11  1  0  0  0  0 
  9 12  1  0  0  0  0 
 11 13  1  0  0  0  0 
 11 14  1  0  0  0  0 
  9 15  1  0  0  0  0 
 15 16  1  0  0  0  0 
 16 17  1  0  0  0  0 
 16 18  2  0  0  0  0 
 17 19  2  0  0  0  0 
 19 20  1  0  0  0  0 
 17 21  1  0  0  0  0 
 21 22  1  0  0  0  0 
 22 23  1  0  0  0  0 
 22 24  2  0  0  0  0 
 23 25  1  0  0  0  0 
 23 26  1  0  0  0  0 
 26 27  1  0  0  0  0 
 27 28  2  0  0  0  0 
  2 29  1  0  0  0  0 
 27 29  1  0  0  0  0 
 29 30  1  0  0  0  0 
 30 31  1  0  0  0  0 
 30 32  1  0  0  0  0 
 29 33  1  0  0  0  0 
  4 34  1  0  0  0  0 
 34 35  2  0  0  0  0 
 35 36  1  0  0  0  0 
 23 37  1  0  0  0  0 
 37 38  1  0  0  0  0 
 38 39  1  0  0  0  0 
 36 40  1  0  0  0  0 
 39 40  1  0  0  0  0 
  2 41  1  0  0  0  0 
  5 42  1  0  0  0  0 
  5 43  1  0  0  0  0 
 11 44  1  0  0  0  0 
 13 45  1  0  0  0  0 
 13 46  1  0  0  0  0 
 13 47  1  0  0  0  0 
 14 48  1  0  0  0  0 
 14 49  1  0  0  0  0 
 14 50  1  0  0  0  0 
 15 51  1  0  0  0  0 
 19 52  1  0  0  0  0 
 20 53  1  0  0  0  0 
 20 54  1  0  0  0  0 
 20 55  1  0  0  0  0 
 21 56  1  0  0  0  0 
 26 57  1  0  0  0  0 
 30 58  1  0  0  0  0 
 31 59  1  0  0  0  0 
 31 60  1  0  0  0  0 
 31 61  1  0  0  0  0 
 32 62  1  0  0  0  0 
 32 63  1  0  0  0  0 
 32 64  1  0  0  0  0 
 34 65  1  0  0  0  0 
 35 66  1  0  0  0  0 
 36 67  1  0  0  0  0 
 36 68  1  0  0  0  0 
 37 69  1  0  0  0  0 
 37 70  1  0  0  0  0 
 40 71  1  0  0  0  0 
 40 72  1  0  0  0  0 
M  END
> <cdk:Title>
romidepsin

> <Conformer>
1

> <SuperDrugID>
SD003364

$$$$
