aminolevulinic acid
  CDK     0628171801

 18 17  0  0  0  0  0  0  0  0999 V2000
    0.1965    1.7955    1.4096 N   0  0  1  0  0  0  0  0  0  0  0  0
   -0.7603    0.7932    1.8867 C   0  0  1  0  0  0  0  0  0  0  0  0
   -0.2304   -0.5764    1.7134 C   0  0  0  0  0  0  0  0  0  0  0  0
   -0.1323   -1.3183    2.7199 O   0  0  0  0  0  0  0  0  0  0  0  0
    0.2089   -1.0974    0.3943 C   0  0  2  0  0  0  0  0  0  0  0  0
   -0.9452   -1.1803   -0.6410 C   0  0  2  0  0  0  0  0  0  0  0  0
   -0.5011   -1.8165   -1.8963 C   0  0  0  0  0  0  0  0  0  0  0  0
   -0.9184   -3.0656   -2.2143 O   0  0  0  0  0  0  0  0  0  0  0  0
    0.2894   -1.2276   -2.6692 O   0  0  0  0  0  0  0  0  0  0  0  0
   -0.2307    2.7117    1.5561 H   0  0  0  0  0  0  0  0  0  0  0  0
    1.0153    1.7467    2.0204 H   0  0  0  0  0  0  0  0  0  0  0  0
   -0.9730    0.9938    2.9378 H   0  0  0  0  0  0  0  0  0  0  0  0
   -1.6904    0.8994    1.3285 H   0  0  0  0  0  0  0  0  0  0  0  0
    0.6356   -2.0976    0.5267 H   0  0  0  0  0  0  0  0  0  0  0  0
    1.0054   -0.4556    0.0087 H   0  0  0  0  0  0  0  0  0  0  0  0
   -1.3185   -0.1804   -0.8763 H   0  0  0  0  0  0  0  0  0  0  0  0
   -1.7697   -1.7604   -0.2153 H   0  0  0  0  0  0  0  0  0  0  0  0
   -0.5861   -3.5058   -3.0250 H   0  0  0  0  0  0  0  0  0  0  0  0
  1  2  1  0  0  0  0 
  2  3  1  0  0  0  0 
  3  4  2  0  0  0  0 
  3  5  1  0  0  0  0 
  5  6  1  0  0  0  0 
  6  7  1  0  0  0  0 
  7  8  1  0  0  0  0 
  7  9  2  0  0  0  0 
  1 10  1  0  0  0  0 
  1 11  1  0  0  0  0 
  2 12  1  0  0  0  0 
  2 13  1  0  0  0  0 
  5 14  1  0  0  0  0 
  5 15  1  0  0  0  0 
  6 16  1  0  0  0  0 
  6 17  1  0  0  0  0 
  8 18  1  0  0  0  0 
M  END
> <cdk:Title>
aminolevulinic acid

> <Conformer>
1

> <SuperDrugID>
SD000132

$$$$
