enviomycin
  CDK     0628171801

 91 92  0  0  0  0  0  0  0  0999 V2000
   -0.7115   -2.8520    2.5955 N   0  0  0  0  0  0  0  0  0  0  0  0
   -0.9862   -3.1064    1.2758 C   0  0  0  0  0  0  0  0  0  0  0  0
   -1.4283   -2.1147    0.3815 C   0  0  0  0  0  0  0  0  0  0  0  0
   -0.8120   -4.2733    0.8466 O   0  0  0  0  0  0  0  0  0  0  0  0
   -1.4474   -0.7997    0.7005 C   0  0  0  0  0  0  0  0  0  0  0  0
   -1.7698   -2.5682   -0.8374 N   0  0  0  0  0  0  0  0  0  0  0  0
   -1.2309   -2.1823   -2.0366 C   0  0  0  0  0  0  0  0  0  0  0  0
   -1.9192    0.1864   -0.0593 N   0  0  0  0  0  0  0  0  0  0  0  0
   -3.1501    0.2415   -0.6380 C   0  0  0  0  0  0  0  0  0  0  0  0
   -3.4448    1.3006   -1.4065 N   0  0  0  0  0  0  0  0  0  0  0  0
   -4.0257   -0.6421   -0.4823 O   0  0  0  0  0  0  0  0  0  0  0  0
   -1.3492   -3.0843   -3.2107 C   0  0  2  0  0  0  0  0  0  0  0  0
   -0.5169   -1.1570   -2.1492 O   0  0  0  0  0  0  0  0  0  0  0  0
   -2.8095   -3.3905   -3.6276 C   0  0  1  0  0  0  0  0  0  0  0  0
   -0.6502   -4.2773   -2.8272 N   0  0  0  0  0  0  0  0  0  0  0  0
   -2.8297   -4.2490   -4.7637 O   0  0  0  0  0  0  0  0  0  0  0  0
    0.6796   -4.5154   -3.0303 C   0  0  0  0  0  0  0  0  0  0  0  0
    1.3998   -5.5641   -2.2651 C   0  0  2  0  0  0  0  0  0  0  0  0
    1.3608   -3.7642   -3.7705 O   0  0  0  0  0  0  0  0  0  0  0  0
    0.5426   -6.8083   -1.9090 C   0  0  2  0  0  0  0  0  0  0  0  0
    1.3349   -7.7570   -1.1994 O   0  0  0  0  0  0  0  0  0  0  0  0
    1.8571   -4.8954   -1.0793 N   0  0  0  0  0  0  0  0  0  0  0  0
    3.1232   -4.4379   -0.8424 C   0  0  0  0  0  0  0  0  0  0  0  0
    3.3856   -3.5223    0.3022 C   0  0  2  0  0  0  0  0  0  0  0  0
    4.0642   -4.7196   -1.6233 O   0  0  0  0  0  0  0  0  0  0  0  0
    3.2440   -4.2118    1.6964 C   0  0  2  0  0  0  0  0  0  0  0  0
    2.5128   -2.3951    0.1190 N   0  0  0  0  0  0  0  0  0  0  0  0
    1.8910   -4.2480    2.1564 N   0  0  0  0  0  0  0  0  0  0  0  0
    1.3966   -3.6767    3.2922 C   0  0  0  0  0  0  0  0  0  0  0  0
    2.1460   -3.0887    4.1095 O   0  0  0  0  0  0  0  0  0  0  0  0
   -0.0665   -3.7118    3.5545 C   0  0  2  0  0  0  0  0  0  0  0  0
   -0.6495   -5.1596    3.7080 C   0  0  1  0  0  0  0  0  0  0  0  0
   -2.2082   -5.3050    6.0406 N   0  0  0  0  0  0  0  0  0  0  0  0
   -0.8354   -5.4939    6.2432 C   0  0  1  0  0  0  0  0  0  0  0  0
   -0.0993   -5.9370    4.9480 C   0  0  1  0  0  0  0  0  0  0  0  0
   -2.0861   -5.1129    3.7601 N   0  0  0  0  0  0  0  0  0  0  0  0
   -2.7811   -5.1423    4.8989 C   0  0  0  0  0  0  0  0  0  0  0  0
   -4.0859   -5.0044    4.8491 N   0  0  0  0  0  0  0  0  0  0  0  0
    2.6627   -1.1123    0.5436 C   0  0  0  0  0  0  0  0  0  0  0  0
    3.7587   -0.5746    1.3930 C   0  0  1  0  0  0  0  0  0  0  0  0
    1.7713   -0.3340    0.1349 O   0  0  0  0  0  0  0  0  0  0  0  0
    3.2470    0.3116    2.5756 C   0  0  2  0  0  0  0  0  0  0  0  0
    2.9924    1.8035    2.1642 C   0  0  1  0  0  0  0  0  0  0  0  0
    4.1972    0.2511    3.7003 N   0  0  2  0  0  0  0  0  0  0  0  0
    1.8974    2.4962    3.0262 C   0  0  2  0  0  0  0  0  0  0  0  0
    4.2085    2.5535    2.2075 O   0  0  0  0  0  0  0  0  0  0  0  0
    1.6150    3.9621    2.6078 C   0  0  1  0  0  0  0  0  0  0  0  0
    0.3677    4.4557    3.2032 N   0  0  1  0  0  0  0  0  0  0  0  0
   -0.9199   -1.9617    2.9170 H   0  0  0  0  0  0  0  0  0  0  0  0
   -1.0517   -0.4949    1.5582 H   0  0  0  0  0  0  0  0  0  0  0  0
   -2.3484   -3.3463   -0.8577 H   0  0  0  0  0  0  0  0  0  0  0  0
   -1.3360    0.9541   -0.1815 H   0  0  0  0  0  0  0  0  0  0  0  0
   -2.7814    1.9943   -1.5567 H   0  0  0  0  0  0  0  0  0  0  0  0
   -4.3211    1.3703   -1.8160 H   0  0  0  0  0  0  0  0  0  0  0  0
   -0.8668   -2.6188   -4.0784 H   0  0  0  0  0  0  0  0  0  0  0  0
   -3.3589   -3.8778   -2.8206 H   0  0  0  0  0  0  0  0  0  0  0  0
   -3.3248   -2.4644   -3.8920 H   0  0  0  0  0  0  0  0  0  0  0  0
   -1.1428   -4.9213   -2.2943 H   0  0  0  0  0  0  0  0  0  0  0  0
   -3.7807   -4.4048   -4.9447 H   0  0  0  0  0  0  0  0  0  0  0  0
    2.2382   -5.9160   -2.8764 H   0  0  0  0  0  0  0  0  0  0  0  0
    0.2464   -7.3095   -2.8829 H   0  0  0  0  0  0  0  0  0  0  0  0
   -0.2889   -6.4945   -1.2040 H   0  0  0  0  0  0  0  0  0  0  0  0
    1.5511   -7.3225   -0.3479 H   0  0  0  0  0  0  0  0  0  0  0  0
    1.1833   -4.6897   -0.4130 H   0  0  0  0  0  0  0  0  0  0  0  0
    4.4223   -3.1791    0.2127 H   0  0  0  0  0  0  0  0  0  0  0  0
    3.8930   -3.7031    2.4155 H   0  0  0  0  0  0  0  0  0  0  0  0
    3.5979   -5.2441    1.6377 H   0  0  0  0  0  0  0  0  0  0  0  0
    1.7065   -2.5637   -0.3954 H   0  0  0  0  0  0  0  0  0  0  0  0
    1.2576   -4.7093    1.5883 H   0  0  0  0  0  0  0  0  0  0  0  0
   -0.2478   -3.2139    4.5098 H   0  0  0  0  0  0  0  0  0  0  0  0
   -0.3832   -5.7457    2.8265 H   0  0  0  0  0  0  0  0  0  0  0  0
   -0.4002   -4.5660    6.6225 H   0  0  0  0  0  0  0  0  0  0  0  0
   -0.7020   -6.2594    7.0088 H   0  0  0  0  0  0  0  0  0  0  0  0
   -0.2851   -7.0059    4.7986 H   0  0  0  0  0  0  0  0  0  0  0  0
    0.9795   -5.8072    5.0583 H   0  0  0  0  0  0  0  0  0  0  0  0
   -2.5724   -5.0396    2.9232 H   0  0  0  0  0  0  0  0  0  0  0  0
   -4.5283   -4.8579    3.9973 H   0  0  0  0  0  0  0  0  0  0  0  0
   -4.6123   -5.0514    5.6624 H   0  0  0  0  0  0  0  0  0  0  0  0
    4.3429   -1.3999    1.7989 H   0  0  0  0  0  0  0  0  0  0  0  0
    4.4291    0.0039    0.7519 H   0  0  0  0  0  0  0  0  0  0  0  0
    2.3185   -0.1275    2.9536 H   0  0  0  0  0  0  0  0  0  0  0  0
    2.6490    1.8464    1.1282 H   0  0  0  0  0  0  0  0  0  0  0  0
    4.2858   -0.7315    3.9665 H   0  0  0  0  0  0  0  0  0  0  0  0
    3.7619    0.7291    4.4912 H   0  0  0  0  0  0  0  0  0  0  0  0
    2.1880    2.4741    4.0793 H   0  0  0  0  0  0  0  0  0  0  0  0
    0.9687    1.9283    2.9245 H   0  0  0  0  0  0  0  0  0  0  0  0
    4.7962    2.1304    1.5453 H   0  0  0  0  0  0  0  0  0  0  0  0
    2.4359    4.6044    2.9325 H   0  0  0  0  0  0  0  0  0  0  0  0
    1.5204    4.0374    1.5228 H   0  0  0  0  0  0  0  0  0  0  0  0
    0.2369    5.4140    2.8710 H   0  0  0  0  0  0  0  0  0  0  0  0
   -0.3921    3.9026    2.7988 H   0  0  0  0  0  0  0  0  0  0  0  0
  1  2  1  0  0  0  0 
  2  3  1  0  0  0  0 
  2  4  2  0  0  0  0 
  3  5  2  0  0  0  0 
  3  6  1  0  0  0  0 
  6  7  1  0  0  0  0 
  5  8  1  0  0  0  0 
  8  9  1  0  0  0  0 
  9 10  1  0  0  0  0 
  9 11  2  0  0  0  0 
 12  7  1  0  0  0  0 
  7 13  2  0  0  0  0 
 12 14  1  0  0  0  0 
 12 15  1  0  0  0  0 
 14 16  1  0  0  0  0 
 15 17  1  0  0  0  0 
 18 17  1  0  0  0  0 
 17 19  2  0  0  0  0 
 18 20  1  0  0  0  0 
 20 21  1  0  0  0  0 
 18 22  1  0  0  0  0 
 22 23  1  0  0  0  0 
 24 23  1  0  0  0  0 
 23 25  2  0  0  0  0 
 24 26  1  0  0  0  0 
 24 27  1  0  0  0  0 
 26 28  1  0  0  0  0 
 28 29  1  0  0  0  0 
 29 30  2  0  0  0  0 
 31 29  1  0  0  0  0 
 31  1  1  0  0  0  0 
 31 32  1  0  0  0  0 
 33 34  1  0  0  0  0 
 34 35  1  0  0  0  0 
 36 37  1  0  0  0  0 
 33 37  2  0  0  0  0 
 32 35  1  0  0  0  0 
 32 36  1  0  0  0  0 
 37 38  1  0  0  0  0 
 27 39  1  0  0  0  0 
 39 40  1  0  0  0  0 
 39 41  2  0  0  0  0 
 42 40  1  0  0  0  0 
 42 43  1  0  0  0  0 
 42 44  1  0  0  0  0 
 43 45  1  0  0  0  0 
 43 46  1  0  0  0  0 
 45 47  1  0  0  0  0 
 47 48  1  0  0  0  0 
 49  1  1  0  0  0  0 
  5 50  1  0  0  0  0 
 51  6  1  0  0  0  0 
 52  8  1  0  0  0  0 
 53 10  1  0  0  0  0 
 54 10  1  0  0  0  0 
 12 55  1  0  0  0  0 
 56 14  1  0  0  0  0 
 57 14  1  0  0  0  0 
 58 15  1  0  0  0  0 
 59 16  1  0  0  0  0 
 18 60  1  0  0  0  0 
 61 20  1  0  0  0  0 
 62 20  1  0  0  0  0 
 63 21  1  0  0  0  0 
 64 22  1  0  0  0  0 
 24 65  1  0  0  0  0 
 66 26  1  0  0  0  0 
 67 26  1  0  0  0  0 
 68 27  1  0  0  0  0 
 69 28  1  0  0  0  0 
 31 70  1  0  0  0  0 
 32 71  1  0  0  0  0 
 72 34  1  0  0  0  0 
 73 34  1  0  0  0  0 
 74 35  1  0  0  0  0 
 75 35  1  0  0  0  0 
 76 36  1  0  0  0  0 
 77 38  1  0  0  0  0 
 78 38  1  0  0  0  0 
 79 40  1  0  0  0  0 
 80 40  1  0  0  0  0 
 42 81  1  0  0  0  0 
 43 82  1  0  0  0  0 
 83 44  1  0  0  0  0 
 84 44  1  0  0  0  0 
 85 45  1  0  0  0  0 
 86 45  1  0  0  0  0 
 87 46  1  0  0  0  0 
 88 47  1  0  0  0  0 
 89 47  1  0  0  0  0 
 90 48  1  0  0  0  0 
 91 48  1  0  0  0  0 
M  END
> <cdk:Title>
enviomycin

> <Conformer>
1

> <SuperDrugID>
SD002754

$$$$
