tolazoline
  CDK     0628171801

 24 25  0  0  0  0  0  0  0  0999 V2000
    0.2066   -1.4353    0.5838 C   0  0  1  0  0  0  0  0  0  0  0  0
   -0.9956   -1.7007    1.3493 C   0  0  0  0  0  0  0  0  0  0  0  0
   -2.0425   -2.2668    0.8799 N   0  0  0  0  0  0  0  0  0  0  0  0
   -3.0495   -2.3986    1.8204 C   0  0  1  0  0  0  0  0  0  0  0  0
   -2.4401   -1.7642    3.0872 C   0  0  1  0  0  0  0  0  0  0  0  0
   -1.1629   -1.3991    2.6152 N   0  0  0  0  0  0  0  0  0  0  0  0
    0.8696   -2.7048    0.1816 C   0  0  0  0  0  0  0  0  0  0  0  0
    1.8313   -3.3147    1.0230 C   0  0  0  0  0  0  0  0  0  0  0  0
    2.4327   -4.5359    0.6623 C   0  0  0  0  0  0  0  0  0  0  0  0
    2.0776   -5.1671   -0.5429 C   0  0  0  0  0  0  0  0  0  0  0  0
    1.1338   -4.5682   -1.3953 C   0  0  0  0  0  0  0  0  0  0  0  0
    0.5348   -3.3454   -1.0365 C   0  0  0  0  0  0  0  0  0  0  0  0
   -0.0548   -0.8413   -0.2961 H   0  0  0  0  0  0  0  0  0  0  0  0
    0.8969   -0.8228    1.1714 H   0  0  0  0  0  0  0  0  0  0  0  0
   -3.9462   -1.8632    1.4971 H   0  0  0  0  0  0  0  0  0  0  0  0
   -3.2880   -3.4551    1.9733 H   0  0  0  0  0  0  0  0  0  0  0  0
   -2.9938   -0.8795    3.4134 H   0  0  0  0  0  0  0  0  0  0  0  0
   -2.3613   -2.4859    3.9042 H   0  0  0  0  0  0  0  0  0  0  0  0
   -0.4882   -0.9730    3.1673 H   0  0  0  0  0  0  0  0  0  0  0  0
    2.0954   -2.8761    1.9088 H   0  0  0  0  0  0  0  0  0  0  0  0
    3.1254   -4.9677    1.2789 H   0  0  0  0  0  0  0  0  0  0  0  0
    2.5047   -6.0607   -0.7982 H   0  0  0  0  0  0  0  0  0  0  0  0
    0.8801   -5.0249   -2.2750 H   0  0  0  0  0  0  0  0  0  0  0  0
   -0.1557   -2.9297   -1.6666 H   0  0  0  0  0  0  0  0  0  0  0  0
  1  2  1  0  0  0  0 
  2  3  2  0  0  0  0 
  3  4  1  0  0  0  0 
  4  5  1  0  0  0  0 
  5  6  1  0  0  0  0 
  2  6  1  0  0  0  0 
  1  7  1  0  0  0  0 
  7  8  2  0  0  0  0 
  8  9  1  0  0  0  0 
  9 10  2  0  0  0  0 
 10 11  1  0  0  0  0 
 11 12  2  0  0  0  0 
  7 12  1  0  0  0  0 
 13  1  1  0  0  0  0 
 14  1  1  0  0  0  0 
 15  4  1  0  0  0  0 
 16  4  1  0  0  0  0 
 17  5  1  0  0  0  0 
 18  5  1  0  0  0  0 
 19  6  1  0  0  0  0 
 20  8  1  0  0  0  0 
 21  9  1  0  0  0  0 
 22 10  1  0  0  0  0 
 23 11  1  0  0  0  0 
 24 12  1  0  0  0  0 
M  END
> <cdk:Title>
tolazoline

> <Conformer>
1

> <SuperDrugID>
SD002426

$$$$
