prifinium
  CDK     0628171801

 51 53  0  0  0  0  0  0  0  0999 V2000
    0.3797    1.3901   -4.5247 C   0  0  0  0  0  0  0  0  0  0  0  0
   -0.6673    2.2930   -4.7841 C   0  0  0  0  0  0  0  0  0  0  0  0
   -1.2546    3.0072   -3.7249 C   0  0  0  0  0  0  0  0  0  0  0  0
   -0.8062    2.8076   -2.4054 C   0  0  0  0  0  0  0  0  0  0  0  0
    0.2243    1.8774   -2.1213 C   0  0  0  0  0  0  0  0  0  0  0  0
    0.8257    1.1888   -3.2041 C   0  0  0  0  0  0  0  0  0  0  0  0
    0.6452    1.6494   -0.8019 C   0  0  0  0  0  0  0  0  0  0  0  0
    0.4482    0.4582   -0.1705 C   0  0  0  0  0  0  0  0  0  0  0  0
    1.2514    2.7363   -0.1694 C   0  0  0  0  0  0  0  0  0  0  0  0
    2.5597    3.1478   -0.5209 C   0  0  0  0  0  0  0  0  0  0  0  0
    3.1519    4.2626    0.1037 C   0  0  0  0  0  0  0  0  0  0  0  0
    2.4436    4.9847    1.0823 C   0  0  0  0  0  0  0  0  0  0  0  0
    1.1435    4.5852    1.4418 C   0  0  0  0  0  0  0  0  0  0  0  0
    0.5492    3.4714    0.8181 C   0  0  0  0  0  0  0  0  0  0  0  0
    0.9452    0.0591    1.1570 C   0  0  1  0  0  0  0  0  0  0  0  0
   -0.0028   -1.0389    1.6545 N   0  0  1  0  0  0  0  0  0  0  0  0
   -0.3523   -1.7061    0.3463 C   0  0  2  0  0  0  0  0  0  0  0  0
   -0.3262   -0.6219   -0.7426 C   0  0  1  0  0  0  0  0  0  0  0  0
    0.6255   -2.0607    2.6040 C   0  0  2  0  0  0  0  0  0  0  0  0
   -1.2595   -0.4097    2.2744 C   0  0  1  0  0  0  0  0  0  0  0  0
   -0.2471   -3.2683    3.0423 C   0  0  0  0  0  0  0  0  0  0  0  0
   -1.1479    0.1902    3.7047 C   0  0  0  0  0  0  0  0  0  0  0  0
    2.4605   -0.3064    1.0290 C   0  0  0  0  0  0  0  0  0  0  0  0
    0.8154    0.8785   -5.2966 H   0  0  0  0  0  0  0  0  0  0  0  0
   -0.9981    2.4332   -5.7426 H   0  0  0  0  0  0  0  0  0  0  0  0
   -2.0089    3.6712   -3.9132 H   0  0  0  0  0  0  0  0  0  0  0  0
   -1.2419    3.3445   -1.6521 H   0  0  0  0  0  0  0  0  0  0  0  0
    1.5935    0.5324   -3.0401 H   0  0  0  0  0  0  0  0  0  0  0  0
    3.0891    2.6336   -1.2315 H   0  0  0  0  0  0  0  0  0  0  0  0
    4.0987    4.5477   -0.1560 H   0  0  0  0  0  0  0  0  0  0  0  0
    2.8742    5.7953    1.5331 H   0  0  0  0  0  0  0  0  0  0  0  0
    0.6307    5.1071    2.1566 H   0  0  0  0  0  0  0  0  0  0  0  0
   -0.4020    3.2017    1.0862 H   0  0  0  0  0  0  0  0  0  0  0  0
    0.9147    0.9144    1.8354 H   0  0  0  0  0  0  0  0  0  0  0  0
   -1.3297   -2.2013    0.3611 H   0  0  0  0  0  0  0  0  0  0  0  0
    0.3850   -2.4722    0.0706 H   0  0  0  0  0  0  0  0  0  0  0  0
   -1.3440   -0.2817   -0.9552 H   0  0  0  0  0  0  0  0  0  0  0  0
    0.1278   -1.0130   -1.6571 H   0  0  0  0  0  0  0  0  0  0  0  0
    0.9875   -1.5596    3.5057 H   0  0  0  0  0  0  0  0  0  0  0  0
    1.5070   -2.5176    2.1461 H   0  0  0  0  0  0  0  0  0  0  0  0
   -1.6399    0.3945    1.6348 H   0  0  0  0  0  0  0  0  0  0  0  0
   -2.0660   -1.1463    2.3173 H   0  0  0  0  0  0  0  0  0  0  0  0
    0.3313   -3.9204    3.6993 H   0  0  0  0  0  0  0  0  0  0  0  0
   -1.1338   -2.9468    3.5858 H   0  0  0  0  0  0  0  0  0  0  0  0
   -0.5547   -3.8517    2.1742 H   0  0  0  0  0  0  0  0  0  0  0  0
   -2.0749    0.7076    3.9601 H   0  0  0  0  0  0  0  0  0  0  0  0
   -0.9946   -0.5953    4.4449 H   0  0  0  0  0  0  0  0  0  0  0  0
   -0.3292    0.9052    3.7789 H   0  0  0  0  0  0  0  0  0  0  0  0
    2.6056   -1.1676    0.3716 H   0  0  0  0  0  0  0  0  0  0  0  0
    2.8757   -0.5376    2.0113 H   0  0  0  0  0  0  0  0  0  0  0  0
    3.0381    0.5284    0.6286 H   0  0  0  0  0  0  0  0  0  0  0  0
  1  2  2  0  0  0  0 
  2  3  1  0  0  0  0 
  3  4  2  0  0  0  0 
  4  5  1  0  0  0  0 
  5  6  2  0  0  0  0 
  1  6  1  0  0  0  0 
  5  7  1  0  0  0  0 
  7  8  2  0  0  0  0 
  7  9  1  0  0  0  0 
 10 11  1  0  0  0  0 
 11 12  2  0  0  0  0 
 12 13  1  0  0  0  0 
 13 14  2  0  0  0  0 
  9 10  2  0  0  0  0 
  9 14  1  0  0  0  0 
 15 16  1  0  0  0  0 
 16 17  1  0  0  0  0 
 17 18  1  0  0  0  0 
 15  8  1  0  0  0  0 
  8 18  1  0  0  0  0 
 16 19  1  0  0  0  0 
 16 20  1  0  0  0  0 
 19 21  1  0  0  0  0 
 20 22  1  0  0  0  0 
 15 23  1  0  0  0  0 
  1 24  1  0  0  0  0 
  2 25  1  0  0  0  0 
  3 26  1  0  0  0  0 
  4 27  1  0  0  0  0 
  6 28  1  0  0  0  0 
 10 29  1  0  0  0  0 
 11 30  1  0  0  0  0 
 12 31  1  0  0  0  0 
 13 32  1  0  0  0  0 
 14 33  1  0  0  0  0 
 15 34  1  0  0  0  0 
 17 35  1  0  0  0  0 
 17 36  1  0  0  0  0 
 18 37  1  0  0  0  0 
 18 38  1  0  0  0  0 
 19 39  1  0  0  0  0 
 19 40  1  0  0  0  0 
 20 41  1  0  0  0  0 
 20 42  1  0  0  0  0 
 21 43  1  0  0  0  0 
 21 44  1  0  0  0  0 
 21 45  1  0  0  0  0 
 22 46  1  0  0  0  0 
 22 47  1  0  0  0  0 
 22 48  1  0  0  0  0 
 23 49  1  0  0  0  0 
 23 50  1  0  0  0  0 
 23 51  1  0  0  0  0 
M  CHG  1  16   1
M  END
> <cdk:Title>
prifinium

> <Conformer>
1

> <SuperDrugID>
SD002030

$$$$
