trospectomycin
  CDK     0628171801

 56 58  0  0  0  0  0  0  0  0999 V2000
    4.7837   -1.3656    6.2295 N   0  0  2  0  0  0  0  0  0  0  0  0
    6.2605   -1.3353    6.1980 C   0  0  0  0  0  0  0  0  0  0  0  0
    4.1102   -1.8080    4.9808 C   0  0  2  0  0  0  0  0  0  0  0  0
    2.5756   -1.6147    5.1494 C   0  0  2  0  0  0  0  0  0  0  0  0
    4.4278   -3.2873    4.5829 C   0  0  1  0  0  0  0  0  0  0  0  0
    1.8466   -1.9885    3.8235 C   0  0  2  0  0  0  0  0  0  0  0  0
    2.2647   -0.2482    5.5043 O   0  0  0  0  0  0  0  0  0  0  0  0
    4.1346   -4.1752    5.6646 O   0  0  0  0  0  0  0  0  0  0  0  0
    3.6576   -3.7298    3.2951 C   0  0  2  0  0  0  0  0  0  0  0  0
    0.4298   -1.7442    3.9681 O   0  0  0  0  0  0  0  0  0  0  0  0
    2.1239   -3.4668    3.4387 C   0  0  2  0  0  0  0  0  0  0  0  0
    0.8493    0.0345    5.6168 C   0  0  1  0  0  0  0  0  0  0  0  0
    3.8817   -5.1605    2.9478 N   0  0  2  0  0  0  0  0  0  0  0  0
    0.1181   -0.3720    4.2997 C   0  0  1  0  0  0  0  0  0  0  0  0
    1.4460   -3.7566    2.2164 O   0  0  0  0  0  0  0  0  0  0  0  0
    0.2773   -0.6867    6.7156 O   0  0  0  0  0  0  0  0  0  0  0  0
    0.6916    1.4959    5.8027 C   0  0  0  0  0  0  0  0  0  0  0  0
    5.2644   -5.5459    2.5869 C   0  0  0  0  0  0  0  0  0  0  0  0
    0.4876    0.4831    3.1890 O   0  0  0  0  0  0  0  0  0  0  0  0
    0.2412    1.9701    6.8726 O   0  0  0  0  0  0  0  0  0  0  0  0
    1.0043    2.3963    4.6715 C   0  0  1  0  0  0  0  0  0  0  0  0
    0.2759    1.9016    3.3840 C   0  0  1  0  0  0  0  0  0  0  0  0
    0.7758    2.6548    2.1138 C   0  0  2  0  0  0  0  0  0  0  0  0
    0.0758    2.1982    0.8017 C   0  0  1  0  0  0  0  0  0  0  0  0
    0.5727    2.9505   -0.4637 C   0  0  2  0  0  0  0  0  0  0  0  0
   -0.1128    2.4598   -1.7615 C   0  0  0  0  0  0  0  0  0  0  0  0
    2.2260   -2.2661    5.9589 H   0  0  0  0  0  0  0  0  0  0  0  0
    2.2307   -1.3605    3.0109 H   0  0  0  0  0  0  0  0  0  0  0  0
   -0.9648   -0.3187    4.4473 H   0  0  0  0  0  0  0  0  0  0  0  0
    4.4884   -0.3974    6.3730 H   0  0  0  0  0  0  0  0  0  0  0  0
    6.6107   -0.7788    7.0677 H   0  0  0  0  0  0  0  0  0  0  0  0
    6.6320   -0.8404    5.2991 H   0  0  0  0  0  0  0  0  0  0  0  0
    6.6638   -2.3477    6.2464 H   0  0  0  0  0  0  0  0  0  0  0  0
    4.4407   -1.1487    4.1691 H   0  0  0  0  0  0  0  0  0  0  0  0
    5.4979   -3.3598    4.3784 H   0  0  0  0  0  0  0  0  0  0  0  0
    4.6472   -3.8317    6.4274 H   0  0  0  0  0  0  0  0  0  0  0  0
    4.0152   -3.1195    2.4571 H   0  0  0  0  0  0  0  0  0  0  0  0
    1.7038   -4.1208    4.2079 H   0  0  0  0  0  0  0  0  0  0  0  0
    3.3200   -5.3375    2.1128 H   0  0  0  0  0  0  0  0  0  0  0  0
    1.5494   -4.7228    2.0907 H   0  0  0  0  0  0  0  0  0  0  0  0
    0.7651   -0.3850    7.5118 H   0  0  0  0  0  0  0  0  0  0  0  0
    5.2395   -6.5390    2.1358 H   0  0  0  0  0  0  0  0  0  0  0  0
    5.6986   -4.8530    1.8641 H   0  0  0  0  0  0  0  0  0  0  0  0
    5.8981   -5.5844    3.4741 H   0  0  0  0  0  0  0  0  0  0  0  0
    0.7009    3.4211    4.9038 H   0  0  0  0  0  0  0  0  0  0  0  0
    2.0871    2.3891    4.5201 H   0  0  0  0  0  0  0  0  0  0  0  0
   -0.7986    2.0899    3.4946 H   0  0  0  0  0  0  0  0  0  0  0  0
    1.8532    2.4966    2.0096 H   0  0  0  0  0  0  0  0  0  0  0  0
    0.6067    3.7264    2.2497 H   0  0  0  0  0  0  0  0  0  0  0  0
    0.2559    1.1298    0.6580 H   0  0  0  0  0  0  0  0  0  0  0  0
   -1.0017    2.3511    0.9034 H   0  0  0  0  0  0  0  0  0  0  0  0
    1.6519    2.8111   -0.5711 H   0  0  0  0  0  0  0  0  0  0  0  0
    0.3784    4.0205   -0.3523 H   0  0  0  0  0  0  0  0  0  0  0  0
    0.2668    3.0204   -2.6186 H   0  0  0  0  0  0  0  0  0  0  0  0
    0.0913    1.3994   -1.9253 H   0  0  0  0  0  0  0  0  0  0  0  0
   -1.1933    2.6073   -1.7031 H   0  0  0  0  0  0  0  0  0  0  0  0
  1  2  1  0  0  0  0 
  3  1  1  0  0  0  0 
  4  3  1  0  0  0  0 
  5  3  1  0  0  0  0 
  6  4  1  0  0  0  0 
  4  7  1  0  0  0  0 
  4 27  1  0  0  0  0 
  5  8  1  0  0  0  0 
  9  5  1  0  0  0  0 
  6 10  1  0  0  0  0 
 11  6  1  0  0  0  0 
  6 28  1  0  0  0  0 
 12  7  1  0  0  0  0 
 11  9  1  0  0  0  0 
  9 13  1  0  0  0  0 
 14 10  1  0  0  0  0 
 11 15  1  0  0  0  0 
 14 12  1  0  0  0  0 
 12 16  1  0  0  0  0 
 12 17  1  0  0  0  0 
 13 18  1  0  0  0  0 
 14 19  1  0  0  0  0 
 14 29  1  0  0  0  0 
 17 20  2  0  0  0  0 
 17 21  1  0  0  0  0 
 22 19  1  0  0  0  0 
 22 21  1  0  0  0  0 
 22 23  1  0  0  0  0 
 23 24  1  0  0  0  0 
 24 25  1  0  0  0  0 
 25 26  1  0  0  0  0 
  1 30  1  0  0  0  0 
  2 31  1  0  0  0  0 
  2 32  1  0  0  0  0 
  2 33  1  0  0  0  0 
  3 34  1  0  0  0  0 
  5 35  1  0  0  0  0 
  8 36  1  0  0  0  0 
  9 37  1  0  0  0  0 
 11 38  1  0  0  0  0 
 13 39  1  0  0  0  0 
 15 40  1  0  0  0  0 
 16 41  1  0  0  0  0 
 18 42  1  0  0  0  0 
 18 43  1  0  0  0  0 
 18 44  1  0  0  0  0 
 21 45  1  0  0  0  0 
 21 46  1  0  0  0  0 
 22 47  1  0  0  0  0 
 23 48  1  0  0  0  0 
 23 49  1  0  0  0  0 
 24 50  1  0  0  0  0 
 24 51  1  0  0  0  0 
 25 52  1  0  0  0  0 
 25 53  1  0  0  0  0 
 26 54  1  0  0  0  0 
 26 55  1  0  0  0  0 
 26 56  1  0  0  0  0 
M  END
> <cdk:Title>
trospectomycin

> <Conformer>
1

> <SuperDrugID>
SD003280

$$$$
