besifloxacin
  CDK     0628171801

 48 51  0  0  0  0  0  0  0  0999 V2000
    1.7308    2.1284    1.0336 Cl  0  0  0  0  0  0  0  0  0  0  0  0
    1.1848    2.8515   -0.4113 C   0  0  0  0  0  0  0  0  0  0  0  0
    1.4935    4.2081   -0.7665 C   0  0  0  0  0  0  0  0  0  0  0  0
    0.4907    1.9930   -1.3091 C   0  0  0  0  0  0  0  0  0  0  0  0
    1.9203    5.1931    0.1131 N   0  0  0  0  0  0  0  0  0  0  0  0
    1.3539    4.5719   -2.1437 C   0  0  0  0  0  0  0  0  0  0  0  0
    0.2827    2.4238   -2.6341 C   0  0  0  0  0  0  0  0  0  0  0  0
    0.0201    0.7523   -0.9157 N   0  0  0  0  0  0  0  0  0  0  0  0
    2.4504    6.3716   -0.3447 C   0  0  0  0  0  0  0  0  0  0  0  0
    1.8277    5.0935    1.5539 C   0  0  1  0  0  0  0  0  0  0  0  0
    1.8364    5.8262   -2.5996 C   0  0  0  0  0  0  0  0  0  0  0  0
    0.7426    3.6772   -3.0515 C   0  0  0  0  0  0  0  0  0  0  0  0
   -0.3253    1.6740   -3.5130 F   0  0  0  0  0  0  0  0  0  0  0  0
   -1.1035    0.6719   -0.0045 C   0  0  2  0  0  0  0  0  0  0  0  0
    0.7077   -0.4624   -1.3087 C   0  0  1  0  0  0  0  0  0  0  0  0
    2.4538    6.7317   -1.7077 C   0  0  0  0  0  0  0  0  0  0  0  0
    1.0900    6.2124    2.3281 C   0  0  2  0  0  0  0  0  0  0  0  0
    0.4479    4.8345    2.1974 C   0  0  1  0  0  0  0  0  0  0  0  0
    1.7281    6.1321   -3.8127 O   0  0  0  0  0  0  0  0  0  0  0  0
   -2.4787    0.4310   -0.6928 C   0  0  2  0  0  0  0  0  0  0  0  0
   -0.0715   -1.3648   -2.3018 C   0  0  2  0  0  0  0  0  0  0  0  0
    3.0473    7.9652   -2.1229 C   0  0  0  0  0  0  0  0  0  0  0  0
   -3.4322   -0.0449    0.3239 N   0  0  2  0  0  0  0  0  0  0  0  0
   -2.5074   -0.5225   -1.9263 C   0  0  2  0  0  0  0  0  0  0  0  0
   -1.5270   -1.7229   -1.8953 C   0  0  2  0  0  0  0  0  0  0  0  0
    3.1030    8.3528   -3.4204 O   0  0  0  0  0  0  0  0  0  0  0  0
    3.5701    8.7614   -1.3084 O   0  0  0  0  0  0  0  0  0  0  0  0
    2.8477    7.0368    0.3283 H   0  0  0  0  0  0  0  0  0  0  0  0
    2.6899    4.6933    2.0925 H   0  0  0  0  0  0  0  0  0  0  0  0
    0.6128    3.9348   -4.0337 H   0  0  0  0  0  0  0  0  0  0  0  0
   -1.1949    1.5920    0.5856 H   0  0  0  0  0  0  0  0  0  0  0  0
   -0.9137   -0.1184    0.7292 H   0  0  0  0  0  0  0  0  0  0  0  0
    1.6767   -0.2296   -1.7620 H   0  0  0  0  0  0  0  0  0  0  0  0
    0.9355   -1.0519   -0.4158 H   0  0  0  0  0  0  0  0  0  0  0  0
    0.5904    6.9941    1.7515 H   0  0  0  0  0  0  0  0  0  0  0  0
    1.4727    6.4500    3.3211 H   0  0  0  0  0  0  0  0  0  0  0  0
   -0.4098    4.7841    1.5240 H   0  0  0  0  0  0  0  0  0  0  0  0
    0.4528    4.2220    3.0997 H   0  0  0  0  0  0  0  0  0  0  0  0
   -2.8539    1.4003   -1.0338 H   0  0  0  0  0  0  0  0  0  0  0  0
    0.4881   -2.2988   -2.4104 H   0  0  0  0  0  0  0  0  0  0  0  0
   -0.0770   -0.8930   -3.2863 H   0  0  0  0  0  0  0  0  0  0  0  0
   -4.3575   -0.0572   -0.1124 H   0  0  0  0  0  0  0  0  0  0  0  0
   -3.4626    0.6547    1.0682 H   0  0  0  0  0  0  0  0  0  0  0  0
   -2.3270    0.0569   -2.8341 H   0  0  0  0  0  0  0  0  0  0  0  0
   -3.5200   -0.9197   -2.0336 H   0  0  0  0  0  0  0  0  0  0  0  0
   -1.5375   -2.1908   -0.9097 H   0  0  0  0  0  0  0  0  0  0  0  0
   -1.8927   -2.4632   -2.6132 H   0  0  0  0  0  0  0  0  0  0  0  0
    3.5188    9.2071   -3.6643 H   0  0  0  0  0  0  0  0  0  0  0  0
  1  2  1  0  0  0  0 
  2  3  2  0  0  0  0 
  2  4  1  0  0  0  0 
  3  5  1  0  0  0  0 
  3  6  1  0  0  0  0 
  4  7  2  0  0  0  0 
  4  8  1  0  0  0  0 
  5  9  1  0  0  0  0 
  5 10  1  0  0  0  0 
  6 11  1  0  0  0  0 
  6 12  2  0  0  0  0 
  7 12  1  0  0  0  0 
  7 13  1  0  0  0  0 
  8 14  1  0  0  0  0 
  8 15  1  0  0  0  0 
  9 16  2  0  0  0  0 
 10 17  1  0  0  0  0 
 10 18  1  0  0  0  0 
 11 16  1  0  0  0  0 
 11 19  2  0  0  0  0 
 20 14  1  0  0  0  0 
 15 21  1  0  0  0  0 
 16 22  1  0  0  0  0 
 17 18  1  0  0  0  0 
 20 23  1  0  0  0  0 
 20 24  1  0  0  0  0 
 21 25  1  0  0  0  0 
 22 26  1  0  0  0  0 
 22 27  2  0  0  0  0 
 24 25  1  0  0  0  0 
  9 28  1  0  0  0  0 
 10 29  1  0  0  0  0 
 12 30  1  0  0  0  0 
 14 31  1  0  0  0  0 
 14 32  1  0  0  0  0 
 15 33  1  0  0  0  0 
 15 34  1  0  0  0  0 
 17 35  1  0  0  0  0 
 17 36  1  0  0  0  0 
 18 37  1  0  0  0  0 
 18 38  1  0  0  0  0 
 20 39  1  0  0  0  0 
 21 40  1  0  0  0  0 
 21 41  1  0  0  0  0 
 23 42  1  0  0  0  0 
 23 43  1  0  0  0  0 
 24 44  1  0  0  0  0 
 24 45  1  0  0  0  0 
 25 46  1  0  0  0  0 
 25 47  1  0  0  0  0 
 26 48  1  0  0  0  0 
M  END
> <cdk:Title>
besifloxacin

> <Conformer>
1

> <SuperDrugID>
SD003356

$$$$
