amanozine
  CDK     0628171801

 23 24  0  0  0  0  0  0  0  0999 V2000
   -1.3296   -0.3816   -0.2720 N   0  0  0  0  0  0  0  0  0  0  0  0
   -1.4663   -1.6002   -0.8596 C   0  0  0  0  0  0  0  0  0  0  0  0
   -0.2359    0.4332   -0.1447 C   0  0  0  0  0  0  0  0  0  0  0  0
   -0.5116   -2.2306   -1.5954 N   0  0  0  0  0  0  0  0  0  0  0  0
   -2.6719   -2.2077   -0.7063 N   0  0  0  0  0  0  0  0  0  0  0  0
    1.1134    0.0625   -0.3743 C   0  0  0  0  0  0  0  0  0  0  0  0
   -0.5007    1.7558    0.2818 C   0  0  0  0  0  0  0  0  0  0  0  0
   -0.7495   -3.4434   -2.1566 C   0  0  0  0  0  0  0  0  0  0  0  0
   -2.9205   -3.4190   -1.2614 C   0  0  0  0  0  0  0  0  0  0  0  0
    2.1558    0.9935   -0.2019 C   0  0  0  0  0  0  0  0  0  0  0  0
    0.5399    2.6862    0.4597 C   0  0  0  0  0  0  0  0  0  0  0  0
    0.1971   -4.0549   -2.8864 N   0  0  0  0  0  0  0  0  0  0  0  0
   -1.9568   -4.0372   -1.9851 N   0  0  0  0  0  0  0  0  0  0  0  0
    1.8706    2.3041    0.2191 C   0  0  0  0  0  0  0  0  0  0  0  0
   -2.1501   -0.0284    0.1075 H   0  0  0  0  0  0  0  0  0  0  0  0
    1.3626   -0.8844   -0.6539 H   0  0  0  0  0  0  0  0  0  0  0  0
   -1.4626    2.0550    0.4677 H   0  0  0  0  0  0  0  0  0  0  0  0
   -3.8300   -3.8622   -1.1339 H   0  0  0  0  0  0  0  0  0  0  0  0
    3.1249    0.7151   -0.3784 H   0  0  0  0  0  0  0  0  0  0  0  0
    0.3290    3.6397    0.7646 H   0  0  0  0  0  0  0  0  0  0  0  0
    0.0108   -4.9138   -3.2966 H   0  0  0  0  0  0  0  0  0  0  0  0
    1.0661   -3.6408   -3.0084 H   0  0  0  0  0  0  0  0  0  0  0  0
    2.6293    2.9752    0.3535 H   0  0  0  0  0  0  0  0  0  0  0  0
  1  2  1  0  0  0  0 
  1  3  1  0  0  0  0 
  2  4  2  0  0  0  0 
  2  5  1  0  0  0  0 
  3  6  2  0  0  0  0 
  3  7  1  0  0  0  0 
  4  8  1  0  0  0  0 
  5  9  2  0  0  0  0 
  6 10  1  0  0  0  0 
  7 11  2  0  0  0  0 
  8 12  1  0  0  0  0 
  8 13  2  0  0  0  0 
  9 13  1  0  0  0  0 
 10 14  2  0  0  0  0 
 11 14  1  0  0  0  0 
  1 15  1  0  0  0  0 
  6 16  1  0  0  0  0 
  7 17  1  0  0  0  0 
  9 18  1  0  0  0  0 
 10 19  1  0  0  0  0 
 11 20  1  0  0  0  0 
 12 21  1  0  0  0  0 
 12 22  1  0  0  0  0 
 14 23  1  0  0  0  0 
M  END
> <cdk:Title>
amanozine

> <Conformer>
1

> <SuperDrugID>
SD003137

$$$$
