dithranol
  CDK     0628171801

 27 29  0  0  0  0  0  0  0  0999 V2000
   -1.5053   -0.1507   -1.2611 O   0  0  0  0  0  0  0  0  0  0  0  0
   -1.4969   -1.0707   -0.4093 C   0  0  0  0  0  0  0  0  0  0  0  0
   -2.3964   -2.1747   -0.5750 C   0  0  0  0  0  0  0  0  0  0  0  0
   -0.5796   -0.9829    0.6891 C   0  0  0  0  0  0  0  0  0  0  0  0
   -2.3674   -3.2332    0.3773 C   0  0  0  0  0  0  0  0  0  0  0  0
   -3.3191   -2.2700   -1.6581 C   0  0  0  0  0  0  0  0  0  0  0  0
   -0.5511   -2.0333    1.6492 C   0  0  0  0  0  0  0  0  0  0  0  0
    0.3086    0.1175    0.8727 C   0  0  0  0  0  0  0  0  0  0  0  0
   -1.4417   -3.2183    1.5405 C   0  0  2  0  0  0  0  0  0  0  0  0
   -3.2337   -4.3420    0.2310 C   0  0  0  0  0  0  0  0  0  0  0  0
   -3.4506   -1.3136   -2.6135 O   0  0  0  0  0  0  0  0  0  0  0  0
   -4.1645   -3.3878   -1.7940 C   0  0  0  0  0  0  0  0  0  0  0  0
    0.3394   -1.9685    2.7461 C   0  0  0  0  0  0  0  0  0  0  0  0
    0.3492    1.1674    0.0111 O   0  0  0  0  0  0  0  0  0  0  0  0
    1.1893    0.1651    1.9713 C   0  0  0  0  0  0  0  0  0  0  0  0
   -4.1251   -4.4215   -0.8488 C   0  0  0  0  0  0  0  0  0  0  0  0
    1.2045   -0.8762    2.9083 C   0  0  0  0  0  0  0  0  0  0  0  0
   -0.8133   -4.1109    1.4888 H   0  0  0  0  0  0  0  0  0  0  0  0
   -2.0415   -3.2791    2.4522 H   0  0  0  0  0  0  0  0  0  0  0  0
   -3.2207   -5.1066    0.9104 H   0  0  0  0  0  0  0  0  0  0  0  0
   -3.5323   -0.4683   -2.1252 H   0  0  0  0  0  0  0  0  0  0  0  0
   -4.8167   -3.4526   -2.5801 H   0  0  0  0  0  0  0  0  0  0  0  0
    0.3665   -2.7190    3.4402 H   0  0  0  0  0  0  0  0  0  0  0  0
    0.6213    1.9406    0.5493 H   0  0  0  0  0  0  0  0  0  0  0  0
    1.8232    0.9601    2.0944 H   0  0  0  0  0  0  0  0  0  0  0  0
   -4.7448   -5.2310   -0.9482 H   0  0  0  0  0  0  0  0  0  0  0  0
    1.8447   -0.8368    3.7062 H   0  0  0  0  0  0  0  0  0  0  0  0
  1  2  2  0  0  0  0 
  2  3  1  0  0  0  0 
  2  4  1  0  0  0  0 
  3  5  2  0  0  0  0 
  3  6  1  0  0  0  0 
  4  7  2  0  0  0  0 
  4  8  1  0  0  0  0 
  5  9  1  0  0  0  0 
  5 10  1  0  0  0  0 
  6 11  1  0  0  0  0 
  6 12  2  0  0  0  0 
  7  9  1  0  0  0  0 
  7 13  1  0  0  0  0 
  8 14  1  0  0  0  0 
  8 15  2  0  0  0  0 
 10 16  2  0  0  0  0 
 12 16  1  0  0  0  0 
 13 17  2  0  0  0  0 
 15 17  1  0  0  0  0 
  9 18  1  0  0  0  0 
  9 19  1  0  0  0  0 
 10 20  1  0  0  0  0 
 11 21  1  0  0  0  0 
 12 22  1  0  0  0  0 
 13 23  1  0  0  0  0 
 14 24  1  0  0  0  0 
 15 25  1  0  0  0  0 
 16 26  1  0  0  0  0 
 17 27  1  0  0  0  0 
M  END
> <cdk:Title>
dithranol

> <Conformer>
1

> <SuperDrugID>
SD000188

$$$$
