pranoprofen
  CDK     0628171801

 32 34  0  0  0  0  0  0  0  0999 V2000
    7.3527    6.3024   -2.4595 C   0  0  2  0  0  0  0  0  0  0  0  0
    6.5781    6.9306   -3.5547 C   0  0  0  0  0  0  0  0  0  0  0  0
    8.5001    5.4113   -3.0099 C   0  0  0  0  0  0  0  0  0  0  0  0
    6.4283    5.6111   -1.4998 C   0  0  0  0  0  0  0  0  0  0  0  0
    5.8933    6.1808   -4.4497 O   0  0  0  0  0  0  0  0  0  0  0  0
    6.5315    8.1767   -3.6812 O   0  0  0  0  0  0  0  0  0  0  0  0
    5.9368    4.3003   -1.7266 C   0  0  0  0  0  0  0  0  0  0  0  0
    6.0087    6.2790   -0.3243 C   0  0  0  0  0  0  0  0  0  0  0  0
    5.0690    3.6647   -0.8072 C   0  0  0  0  0  0  0  0  0  0  0  0
    5.1377    5.6629    0.5900 C   0  0  0  0  0  0  0  0  0  0  0  0
    4.6607    4.3615    0.3572 C   0  0  0  0  0  0  0  0  0  0  0  0
    4.5873    2.2784   -1.0458 C   0  0  2  0  0  0  0  0  0  0  0  0
    3.8022    3.8374    1.2991 O   0  0  0  0  0  0  0  0  0  0  0  0
    3.6912    1.7464    0.0132 C   0  0  0  0  0  0  0  0  0  0  0  0
    3.3463    2.5545    1.1248 C   0  0  0  0  0  0  0  0  0  0  0  0
    3.1620    0.4378   -0.0504 C   0  0  0  0  0  0  0  0  0  0  0  0
    2.5231    2.0606    2.0861 N   0  0  0  0  0  0  0  0  0  0  0  0
    2.3147   -0.0389    0.9675 C   0  0  0  0  0  0  0  0  0  0  0  0
    2.0027    0.8084    2.0449 C   0  0  0  0  0  0  0  0  0  0  0  0
    7.8629    7.1054   -1.9187 H   0  0  0  0  0  0  0  0  0  0  0  0
    8.9799    4.8719   -2.1897 H   0  0  0  0  0  0  0  0  0  0  0  0
    9.2530    6.0306   -3.5048 H   0  0  0  0  0  0  0  0  0  0  0  0
    8.1239    4.6826   -3.7335 H   0  0  0  0  0  0  0  0  0  0  0  0
    5.4025    6.6173   -5.1772 H   0  0  0  0  0  0  0  0  0  0  0  0
    6.2156    3.7946   -2.5697 H   0  0  0  0  0  0  0  0  0  0  0  0
    6.3283    7.2298   -0.1223 H   0  0  0  0  0  0  0  0  0  0  0  0
    4.8490    6.1705    1.4302 H   0  0  0  0  0  0  0  0  0  0  0  0
    5.4563    1.6192   -1.1240 H   0  0  0  0  0  0  0  0  0  0  0  0
    4.0510    2.2529   -1.9979 H   0  0  0  0  0  0  0  0  0  0  0  0
    3.3910   -0.1754   -0.8367 H   0  0  0  0  0  0  0  0  0  0  0  0
    1.9309   -0.9864    0.9262 H   0  0  0  0  0  0  0  0  0  0  0  0
    1.3878    0.4870    2.7964 H   0  0  0  0  0  0  0  0  0  0  0  0
  1  2  1  0  0  0  0 
  1  3  1  0  0  0  0 
  1  4  1  0  0  0  0 
  2  5  1  0  0  0  0 
  2  6  2  0  0  0  0 
  4  7  2  0  0  0  0 
  4  8  1  0  0  0  0 
  7  9  1  0  0  0  0 
  8 10  2  0  0  0  0 
  9 11  2  0  0  0  0 
  9 12  1  0  0  0  0 
 10 11  1  0  0  0  0 
 11 13  1  0  0  0  0 
 12 14  1  0  0  0  0 
 13 15  1  0  0  0  0 
 14 15  2  0  0  0  0 
 14 16  1  0  0  0  0 
 15 17  1  0  0  0  0 
 16 18  2  0  0  0  0 
 17 19  2  0  0  0  0 
 18 19  1  0  0  0  0 
  1 20  1  0  0  0  0 
  3 21  1  0  0  0  0 
  3 22  1  0  0  0  0 
  3 23  1  0  0  0  0 
  5 24  1  0  0  0  0 
  7 25  1  0  0  0  0 
  8 26  1  0  0  0  0 
 10 27  1  0  0  0  0 
 12 28  1  0  0  0  0 
 12 29  1  0  0  0  0 
 16 30  1  0  0  0  0 
 18 31  1  0  0  0  0 
 19 32  1  0  0  0  0 
M  END
> <cdk:Title>
pranoprofen

> <Conformer>
1

> <SuperDrugID>
SD002007

$$$$
