ricinoleic acid
  CDK     0628171801

 55 54  0  0  0  0  0  0  0  0999 V2000
   -1.2539   -1.1380   -1.8566 C   0  0  1  0  0  0  0  0  0  0  0  0
   -2.2371   -2.2723   -2.2628 C   0  0  2  0  0  0  0  0  0  0  0  0
   -1.7730   -0.3543   -0.6172 C   0  0  2  0  0  0  0  0  0  0  0  0
    0.0314   -1.6890   -1.5575 O   0  0  0  0  0  0  0  0  0  0  0  0
   -1.8416   -3.0479   -3.4337 C   0  0  0  0  0  0  0  0  0  0  0  0
   -0.8892    0.8668   -0.2497 C   0  0  1  0  0  0  0  0  0  0  0  0
   -2.4808   -4.1449   -3.8838 C   0  0  0  0  0  0  0  0  0  0  0  0
   -1.4154    1.6365    0.9902 C   0  0  1  0  0  0  0  0  0  0  0  0
   -3.6620   -4.7461   -3.2821 C   0  0  2  0  0  0  0  0  0  0  0  0
   -0.5148    2.8514    1.3387 C   0  0  1  0  0  0  0  0  0  0  0  0
   -3.3154   -5.7244   -2.1269 C   0  0  1  0  0  0  0  0  0  0  0  0
   -1.0128    3.6350    2.5812 C   0  0  1  0  0  0  0  0  0  0  0  0
   -4.5742   -6.1399   -1.3182 C   0  0  2  0  0  0  0  0  0  0  0  0
   -0.1089    4.8396    2.9219 C   0  0  0  0  0  0  0  0  0  0  0  0
   -4.2289   -7.1083   -0.1574 C   0  0  1  0  0  0  0  0  0  0  0  0
   -5.4746   -7.5979    0.6290 C   0  0  1  0  0  0  0  0  0  0  0  0
   -5.0883   -8.5890    1.7584 C   0  0  2  0  0  0  0  0  0  0  0  0
   -6.3179   -9.1432    2.5236 C   0  0  1  0  0  0  0  0  0  0  0  0
   -5.8991   -9.9976    3.6505 C   0  0  0  0  0  0  0  0  0  0  0  0
   -5.2745   -9.4572    4.7221 O   0  0  0  0  0  0  0  0  0  0  0  0
   -6.0986  -11.2328    3.6440 O   0  0  0  0  0  0  0  0  0  0  0  0
   -1.1460   -0.4472   -2.6988 H   0  0  0  0  0  0  0  0  0  0  0  0
   -3.2154   -1.8287   -2.4667 H   0  0  0  0  0  0  0  0  0  0  0  0
   -2.3379   -2.9403   -1.4052 H   0  0  0  0  0  0  0  0  0  0  0  0
   -1.8199   -1.0323    0.2399 H   0  0  0  0  0  0  0  0  0  0  0  0
   -2.7872    0.0017   -0.8190 H   0  0  0  0  0  0  0  0  0  0  0  0
    0.3406   -2.0988   -2.3917 H   0  0  0  0  0  0  0  0  0  0  0  0
   -1.0467   -2.7465   -3.9500 H   0  0  0  0  0  0  0  0  0  0  0  0
    0.1303    0.5268   -0.0473 H   0  0  0  0  0  0  0  0  0  0  0  0
   -0.8585    1.5489   -1.1038 H   0  0  0  0  0  0  0  0  0  0  0  0
   -2.1099   -4.5981   -4.6898 H   0  0  0  0  0  0  0  0  0  0  0  0
   -2.4326    1.9881    0.7914 H   0  0  0  0  0  0  0  0  0  0  0  0
   -1.4516    0.9571    1.8476 H   0  0  0  0  0  0  0  0  0  0  0  0
   -4.2017   -5.3008   -4.0548 H   0  0  0  0  0  0  0  0  0  0  0  0
   -4.3411   -3.9679   -2.9262 H   0  0  0  0  0  0  0  0  0  0  0  0
    0.5020    2.4951    1.5273 H   0  0  0  0  0  0  0  0  0  0  0  0
   -0.4845    3.5273    0.4791 H   0  0  0  0  0  0  0  0  0  0  0  0
   -2.8408   -6.6169   -2.5466 H   0  0  0  0  0  0  0  0  0  0  0  0
   -2.5983   -5.2654   -1.4417 H   0  0  0  0  0  0  0  0  0  0  0  0
   -2.0275    3.9983    2.3982 H   0  0  0  0  0  0  0  0  0  0  0  0
   -1.0424    2.9641    3.4437 H   0  0  0  0  0  0  0  0  0  0  0  0
   -5.2873   -6.6194   -1.9947 H   0  0  0  0  0  0  0  0  0  0  0  0
   -5.0464   -5.2444   -0.9029 H   0  0  0  0  0  0  0  0  0  0  0  0
   -0.5005    5.3550    3.7998 H   0  0  0  0  0  0  0  0  0  0  0  0
    0.9071    4.5054    3.1390 H   0  0  0  0  0  0  0  0  0  0  0  0
   -0.0801    5.5440    2.0888 H   0  0  0  0  0  0  0  0  0  0  0  0
   -3.7082   -7.9761   -0.5723 H   0  0  0  0  0  0  0  0  0  0  0  0
   -3.5498   -6.5991    0.5340 H   0  0  0  0  0  0  0  0  0  0  0  0
   -5.9849   -6.7342    1.0665 H   0  0  0  0  0  0  0  0  0  0  0  0
   -6.1636   -8.0900   -0.0624 H   0  0  0  0  0  0  0  0  0  0  0  0
   -4.4238   -8.0719    2.4566 H   0  0  0  0  0  0  0  0  0  0  0  0
   -4.5352   -9.4269    1.3221 H   0  0  0  0  0  0  0  0  0  0  0  0
   -6.9191   -8.3178    2.9144 H   0  0  0  0  0  0  0  0  0  0  0  0
   -6.9434   -9.7198    1.8355 H   0  0  0  0  0  0  0  0  0  0  0  0
   -5.0054  -10.0288    5.4723 H   0  0  0  0  0  0  0  0  0  0  0  0
  1  2  1  0  0  0  0 
  1  3  1  0  0  0  0 
  1  4  1  0  0  0  0 
  2  5  1  0  0  0  0 
  3  6  1  0  0  0  0 
  5  7  2  0  0  0  0 
  6  8  1  0  0  0  0 
  7  9  1  0  0  0  0 
  8 10  1  0  0  0  0 
  9 11  1  0  0  0  0 
 10 12  1  0  0  0  0 
 11 13  1  0  0  0  0 
 12 14  1  0  0  0  0 
 13 15  1  0  0  0  0 
 15 16  1  0  0  0  0 
 16 17  1  0  0  0  0 
 17 18  1  0  0  0  0 
 18 19  1  0  0  0  0 
 19 20  1  0  0  0  0 
 19 21  2  0  0  0  0 
  1 22  1  0  0  0  0 
  2 23  1  0  0  0  0 
  2 24  1  0  0  0  0 
  3 25  1  0  0  0  0 
  3 26  1  0  0  0  0 
  4 27  1  0  0  0  0 
  5 28  1  0  0  0  0 
  6 29  1  0  0  0  0 
  6 30  1  0  0  0  0 
  7 31  1  0  0  0  0 
  8 32  1  0  0  0  0 
  8 33  1  0  0  0  0 
  9 34  1  0  0  0  0 
  9 35  1  0  0  0  0 
 10 36  1  0  0  0  0 
 10 37  1  0  0  0  0 
 11 38  1  0  0  0  0 
 11 39  1  0  0  0  0 
 12 40  1  0  0  0  0 
 12 41  1  0  0  0  0 
 13 42  1  0  0  0  0 
 13 43  1  0  0  0  0 
 14 44  1  0  0  0  0 
 14 45  1  0  0  0  0 
 14 46  1  0  0  0  0 
 15 47  1  0  0  0  0 
 15 48  1  0  0  0  0 
 16 49  1  0  0  0  0 
 16 50  1  0  0  0  0 
 17 51  1  0  0  0  0 
 17 52  1  0  0  0  0 
 18 53  1  0  0  0  0 
 18 54  1  0  0  0  0 
 20 55  1  0  0  0  0 
M  END
> <cdk:Title>
ricinoleic acid

> <Conformer>
1

> <SuperDrugID>
SD003036

$$$$
