carpronium
  CDK     0628171802

 29 28  0  0  0  0  0  0  0  0999 V2000
    1.0794    0.6305   -0.8826 C   0  0  0  0  0  0  0  0  0  0  0  0
    0.0528    0.0646   -0.0632 O   0  0  0  0  0  0  0  0  0  0  0  0
   -0.1733    0.3378    1.2562 C   0  0  0  0  0  0  0  0  0  0  0  0
    0.5291    1.1719    1.8739 O   0  0  0  0  0  0  0  0  0  0  0  0
   -1.2448   -0.3828    1.9709 C   0  0  2  0  0  0  0  0  0  0  0  0
   -2.3336    0.5404    2.5808 C   0  0  2  0  0  0  0  0  0  0  0  0
   -3.2336    1.2586    1.5261 C   0  0  2  0  0  0  0  0  0  0  0  0
   -4.3615    2.1536    2.0309 N   0  0  2  0  0  0  0  0  0  0  0  0
   -3.8208    3.3100    2.8407 C   0  0  0  0  0  0  0  0  0  0  0  0
   -5.3498    1.3795    2.8735 C   0  0  0  0  0  0  0  0  0  0  0  0
   -5.1012    2.7116    0.8320 C   0  0  0  0  0  0  0  0  0  0  0  0
    2.0652    0.3818   -0.4857 H   0  0  0  0  0  0  0  0  0  0  0  0
    0.9912    0.2189   -1.8881 H   0  0  0  0  0  0  0  0  0  0  0  0
    0.9709    1.7148   -0.9336 H   0  0  0  0  0  0  0  0  0  0  0  0
   -0.7820   -0.9488    2.7826 H   0  0  0  0  0  0  0  0  0  0  0  0
   -1.7188   -1.1053    1.3015 H   0  0  0  0  0  0  0  0  0  0  0  0
   -1.8461    1.2788    3.2178 H   0  0  0  0  0  0  0  0  0  0  0  0
   -2.9567   -0.0866    3.2196 H   0  0  0  0  0  0  0  0  0  0  0  0
   -3.6567    0.4778    0.8819 H   0  0  0  0  0  0  0  0  0  0  0  0
   -2.5696    1.8519    0.8881 H   0  0  0  0  0  0  0  0  0  0  0  0
   -3.0630    3.8694    2.2845 H   0  0  0  0  0  0  0  0  0  0  0  0
   -4.6122    4.0122    3.1169 H   0  0  0  0  0  0  0  0  0  0  0  0
   -3.3638    2.9739    3.7740 H   0  0  0  0  0  0  0  0  0  0  0  0
   -5.7387    0.5107    2.3353 H   0  0  0  0  0  0  0  0  0  0  0  0
   -6.2030    1.9999    3.1619 H   0  0  0  0  0  0  0  0  0  0  0  0
   -4.9012    1.0207    3.8017 H   0  0  0  0  0  0  0  0  0  0  0  0
   -5.5377    1.9129    0.2229 H   0  0  0  0  0  0  0  0  0  0  0  0
   -5.9216    3.3740    1.1297 H   0  0  0  0  0  0  0  0  0  0  0  0
   -4.4368    3.2916    0.1834 H   0  0  0  0  0  0  0  0  0  0  0  0
  1  2  1  0  0  0  0 
  2  3  1  0  0  0  0 
  3  4  2  0  0  0  0 
  3  5  1  0  0  0  0 
  5  6  1  0  0  0  0 
  6  7  1  0  0  0  0 
  7  8  1  0  0  0  0 
  8  9  1  0  0  0  0 
  8 10  1  0  0  0  0 
  8 11  1  0  0  0  0 
  1 12  1  0  0  0  0 
  1 13  1  0  0  0  0 
  1 14  1  0  0  0  0 
  5 15  1  0  0  0  0 
  5 16  1  0  0  0  0 
  6 17  1  0  0  0  0 
  6 18  1  0  0  0  0 
  7 19  1  0  0  0  0 
  7 20  1  0  0  0  0 
  9 21  1  0  0  0  0 
  9 22  1  0  0  0  0 
  9 23  1  0  0  0  0 
 10 24  1  0  0  0  0 
 10 25  1  0  0  0  0 
 10 26  1  0  0  0  0 
 11 27  1  0  0  0  0 
 11 28  1  0  0  0  0 
 11 29  1  0  0  0  0 
M  CHG  1   8   1
M  END
> <cdk:Title>
carpronium

> <Conformer>
1

> <SuperDrugID>
SD000449

$$$$
