bifemelane
  CDK     0628171801

 43 44  0  0  0  0  0  0  0  0999 V2000
   -1.8183    1.9563    8.3009 C   0  0  1  0  0  0  0  0  0  0  0  0
   -0.4839    1.3189    8.4885 C   0  0  0  0  0  0  0  0  0  0  0  0
   -2.9045    0.9440    8.3443 C   0  0  0  0  0  0  0  0  0  0  0  0
    0.2692    0.8275    7.3885 C   0  0  0  0  0  0  0  0  0  0  0  0
    0.0526    1.1811    9.7927 C   0  0  0  0  0  0  0  0  0  0  0  0
   -3.5535    0.6347    9.5644 C   0  0  0  0  0  0  0  0  0  0  0  0
   -3.3125    0.2704    7.1661 C   0  0  0  0  0  0  0  0  0  0  0  0
   -0.1776    0.9647    6.1013 O   0  0  0  0  0  0  0  0  0  0  0  0
    1.4896    0.1549    7.6123 C   0  0  0  0  0  0  0  0  0  0  0  0
    1.2821    0.5309   10.0044 C   0  0  0  0  0  0  0  0  0  0  0  0
   -4.5738   -0.3333    9.6054 C   0  0  0  0  0  0  0  0  0  0  0  0
   -4.3325   -0.6976    7.2118 C   0  0  0  0  0  0  0  0  0  0  0  0
    0.3266    2.1397    5.4291 C   0  0  1  0  0  0  0  0  0  0  0  0
    1.9902   -0.0034    8.9158 C   0  0  0  0  0  0  0  0  0  0  0  0
   -4.9574   -1.0083    8.4328 C   0  0  0  0  0  0  0  0  0  0  0  0
   -0.3127    2.2263    4.0246 C   0  0  1  0  0  0  0  0  0  0  0  0
    0.0861    1.0349    3.1120 C   0  0  1  0  0  0  0  0  0  0  0  0
   -0.5102    1.1414    1.6896 C   0  0  1  0  0  0  0  0  0  0  0  0
   -0.0750   -0.0162    0.8783 N   0  0  1  0  0  0  0  0  0  0  0  0
   -0.5561    0.0141   -0.5162 C   0  0  0  0  0  0  0  0  0  0  0  0
   -1.9790    2.7184    9.0707 H   0  0  0  0  0  0  0  0  0  0  0  0
   -1.8661    2.5011    7.3573 H   0  0  0  0  0  0  0  0  0  0  0  0
   -0.4478    1.5552   10.6039 H   0  0  0  0  0  0  0  0  0  0  0  0
   -3.2892    1.1153   10.4290 H   0  0  0  0  0  0  0  0  0  0  0  0
   -2.8743    0.4840    6.2657 H   0  0  0  0  0  0  0  0  0  0  0  0
    2.0216   -0.2164    6.8221 H   0  0  0  0  0  0  0  0  0  0  0  0
    1.6609    0.4471   10.9509 H   0  0  0  0  0  0  0  0  0  0  0  0
   -5.0390   -0.5445   10.4910 H   0  0  0  0  0  0  0  0  0  0  0  0
   -4.6215   -1.1739    6.3542 H   0  0  0  0  0  0  0  0  0  0  0  0
    0.0756    3.0533    5.9778 H   0  0  0  0  0  0  0  0  0  0  0  0
    1.4144    2.0944    5.3324 H   0  0  0  0  0  0  0  0  0  0  0  0
    2.8728   -0.4969    9.0721 H   0  0  0  0  0  0  0  0  0  0  0  0
   -5.6924   -1.7200    8.4658 H   0  0  0  0  0  0  0  0  0  0  0  0
   -1.3998    2.2497    4.1406 H   0  0  0  0  0  0  0  0  0  0  0  0
   -0.0022    3.1659    3.5579 H   0  0  0  0  0  0  0  0  0  0  0  0
    1.1762    0.9899    3.0341 H   0  0  0  0  0  0  0  0  0  0  0  0
   -0.2611    0.1008    3.5620 H   0  0  0  0  0  0  0  0  0  0  0  0
   -1.6010    1.1525    1.7558 H   0  0  0  0  0  0  0  0  0  0  0  0
   -0.1729    2.0725    1.2244 H   0  0  0  0  0  0  0  0  0  0  0  0
    0.9468    0.0076    0.8434 H   0  0  0  0  0  0  0  0  0  0  0  0
   -0.1729   -0.8619   -1.0404 H   0  0  0  0  0  0  0  0  0  0  0  0
   -1.6463   -0.0126   -0.5460 H   0  0  0  0  0  0  0  0  0  0  0  0
   -0.1995    0.9096   -1.0306 H   0  0  0  0  0  0  0  0  0  0  0  0
  1  2  1  0  0  0  0 
  1  3  1  0  0  0  0 
  2  4  2  0  0  0  0 
  2  5  1  0  0  0  0 
  3  6  2  0  0  0  0 
  3  7  1  0  0  0  0 
  4  8  1  0  0  0  0 
  4  9  1  0  0  0  0 
  5 10  2  0  0  0  0 
  6 11  1  0  0  0  0 
  7 12  2  0  0  0  0 
  8 13  1  0  0  0  0 
  9 14  2  0  0  0  0 
 10 14  1  0  0  0  0 
 11 15  2  0  0  0  0 
 12 15  1  0  0  0  0 
 13 16  1  0  0  0  0 
 16 17  1  0  0  0  0 
 17 18  1  0  0  0  0 
 18 19  1  0  0  0  0 
 19 20  1  0  0  0  0 
  1 21  1  0  0  0  0 
  1 22  1  0  0  0  0 
  5 23  1  0  0  0  0 
  6 24  1  0  0  0  0 
  7 25  1  0  0  0  0 
  9 26  1  0  0  0  0 
 10 27  1  0  0  0  0 
 11 28  1  0  0  0  0 
 12 29  1  0  0  0  0 
 13 30  1  0  0  0  0 
 13 31  1  0  0  0  0 
 14 32  1  0  0  0  0 
 15 33  1  0  0  0  0 
 16 34  1  0  0  0  0 
 16 35  1  0  0  0  0 
 17 36  1  0  0  0  0 
 17 37  1  0  0  0  0 
 18 38  1  0  0  0  0 
 18 39  1  0  0  0  0 
 19 40  1  0  0  0  0 
 20 41  1  0  0  0  0 
 20 42  1  0  0  0  0 
 20 43  1  0  0  0  0 
M  END
> <cdk:Title>
bifemelane

> <Conformer>
1

> <SuperDrugID>
SD000314

$$$$
