capuride
  CDK     0628171802

 31 30  0  0  0  0  0  0  0  0999 V2000
    1.6420   -0.7469   -1.2105 C   0  0  1  0  0  0  0  0  0  0  0  0
    1.3508   -0.1495   -2.5489 C   0  0  0  0  0  0  0  0  0  0  0  0
    1.8061   -2.3209   -1.2955 C   0  0  2  0  0  0  0  0  0  0  0  0
    2.8322    0.0129   -0.5246 C   0  0  1  0  0  0  0  0  0  0  0  0
    2.3396   -0.0414   -3.4858 N   0  0  0  0  0  0  0  0  0  0  0  0
    0.1949    0.2900   -2.7627 O   0  0  0  0  0  0  0  0  0  0  0  0
    0.4733   -3.0108   -1.7628 C   0  0  2  0  0  0  0  0  0  0  0  0
    2.2929   -2.9420    0.0512 C   0  0  0  0  0  0  0  0  0  0  0  0
    2.6978    1.5552   -0.4800 C   0  0  0  0  0  0  0  0  0  0  0  0
    2.2442    0.5380   -4.7120 C   0  0  0  0  0  0  0  0  0  0  0  0
    0.5308   -4.5434   -1.9892 C   0  0  0  0  0  0  0  0  0  0  0  0
    3.3411    0.6067   -5.4804 N   0  0  0  0  0  0  0  0  0  0  0  0
    1.1858    1.0290   -5.1695 O   0  0  0  0  0  0  0  0  0  0  0  0
    0.7711   -0.5640   -0.5708 H   0  0  0  0  0  0  0  0  0  0  0  0
    2.5749   -2.5470   -2.0426 H   0  0  0  0  0  0  0  0  0  0  0  0
    2.9129   -0.3076    0.5164 H   0  0  0  0  0  0  0  0  0  0  0  0
    3.7721   -0.2417   -1.0226 H   0  0  0  0  0  0  0  0  0  0  0  0
    3.2097   -0.3952   -3.2436 H   0  0  0  0  0  0  0  0  0  0  0  0
    0.1613   -2.5755   -2.7148 H   0  0  0  0  0  0  0  0  0  0  0  0
   -0.3175   -2.8037   -1.0359 H   0  0  0  0  0  0  0  0  0  0  0  0
    3.2895   -2.5810    0.3050 H   0  0  0  0  0  0  0  0  0  0  0  0
    2.3755   -4.0265   -0.0079 H   0  0  0  0  0  0  0  0  0  0  0  0
    1.6048   -2.6884    0.8600 H   0  0  0  0  0  0  0  0  0  0  0  0
    2.7618    1.9781   -1.4837 H   0  0  0  0  0  0  0  0  0  0  0  0
    1.7447    1.8400   -0.0322 H   0  0  0  0  0  0  0  0  0  0  0  0
    3.5068    1.9771    0.1188 H   0  0  0  0  0  0  0  0  0  0  0  0
   -0.3743   -4.8722   -2.5037 H   0  0  0  0  0  0  0  0  0  0  0  0
    1.3947   -4.8095   -2.6013 H   0  0  0  0  0  0  0  0  0  0  0  0
    0.5844   -5.0809   -1.0417 H   0  0  0  0  0  0  0  0  0  0  0  0
    3.2943    1.0152   -6.3588 H   0  0  0  0  0  0  0  0  0  0  0  0
    4.1890    0.2578   -5.1579 H   0  0  0  0  0  0  0  0  0  0  0  0
  1  2  1  0  0  0  0 
  1  3  1  0  0  0  0 
  1  4  1  0  0  0  0 
  2  5  1  0  0  0  0 
  2  6  2  0  0  0  0 
  3  7  1  0  0  0  0 
  3  8  1  0  0  0  0 
  4  9  1  0  0  0  0 
  5 10  1  0  0  0  0 
  7 11  1  0  0  0  0 
 10 12  1  0  0  0  0 
 10 13  2  0  0  0  0 
  1 14  1  0  0  0  0 
  3 15  1  0  0  0  0 
  4 16  1  0  0  0  0 
  4 17  1  0  0  0  0 
  5 18  1  0  0  0  0 
  7 19  1  0  0  0  0 
  7 20  1  0  0  0  0 
  8 21  1  0  0  0  0 
  8 22  1  0  0  0  0 
  8 23  1  0  0  0  0 
  9 24  1  0  0  0  0 
  9 25  1  0  0  0  0 
  9 26  1  0  0  0  0 
 11 27  1  0  0  0  0 
 11 28  1  0  0  0  0 
 11 29  1  0  0  0  0 
 12 30  1  0  0  0  0 
 12 31  1  0  0  0  0 
M  END
> <cdk:Title>
capuride

> <Conformer>
1

> <SuperDrugID>
SD000419

$$$$
