mefenorex
  CDK     0628171801

 32 32  0  0  0  0  0  0  0  0999 V2000
   -1.9658    3.8704   -1.0299 C   0  0  2  0  0  0  0  0  0  0  0  0
   -2.5769    2.6209   -0.3204 C   0  0  2  0  0  0  0  0  0  0  0  0
   -2.6488    5.1524   -0.7041 C   0  0  0  0  0  0  0  0  0  0  0  0
   -1.7855    1.3886   -0.5858 N   0  0  2  0  0  0  0  0  0  0  0  0
   -4.0219    2.3360   -0.8063 C   0  0  0  0  0  0  0  0  0  0  0  0
   -2.3972    5.8025    0.5270 C   0  0  0  0  0  0  0  0  0  0  0  0
   -3.5371    5.7594   -1.6237 C   0  0  0  0  0  0  0  0  0  0  0  0
   -0.4930    1.2354    0.1242 C   0  0  1  0  0  0  0  0  0  0  0  0
   -2.9912    7.0453    0.8172 C   0  0  0  0  0  0  0  0  0  0  0  0
   -4.1385    6.9970   -1.3293 C   0  0  0  0  0  0  0  0  0  0  0  0
    0.0845   -0.1773   -0.1387 C   0  0  2  0  0  0  0  0  0  0  0  0
   -3.8542    7.6460   -0.1158 C   0  0  0  0  0  0  0  0  0  0  0  0
    1.5149   -0.3597    0.4242 C   0  0  1  0  0  0  0  0  0  0  0  0
    2.1433   -1.9655    0.0663 Cl  0  0  0  0  0  0  0  0  0  0  0  0
   -1.9771    3.7002   -2.1102 H   0  0  0  0  0  0  0  0  0  0  0  0
   -0.9154    3.9779   -0.7525 H   0  0  0  0  0  0  0  0  0  0  0  0
   -2.6206    2.7924    0.7601 H   0  0  0  0  0  0  0  0  0  0  0  0
   -1.6018    1.3430   -1.5911 H   0  0  0  0  0  0  0  0  0  0  0  0
   -4.6880    3.1572   -0.5340 H   0  0  0  0  0  0  0  0  0  0  0  0
   -4.4037    1.4252   -0.3409 H   0  0  0  0  0  0  0  0  0  0  0  0
   -4.0425    2.2099   -1.8923 H   0  0  0  0  0  0  0  0  0  0  0  0
   -1.7696    5.3786    1.2162 H   0  0  0  0  0  0  0  0  0  0  0  0
   -3.7506    5.3023   -2.5130 H   0  0  0  0  0  0  0  0  0  0  0  0
    0.2154    1.9865   -0.2301 H   0  0  0  0  0  0  0  0  0  0  0  0
   -0.6447    1.3704    1.1988 H   0  0  0  0  0  0  0  0  0  0  0  0
   -2.7918    7.5135    1.7037 H   0  0  0  0  0  0  0  0  0  0  0  0
   -4.7792    7.4267   -2.0017 H   0  0  0  0  0  0  0  0  0  0  0  0
    0.1036   -0.3580   -1.2166 H   0  0  0  0  0  0  0  0  0  0  0  0
   -0.5785   -0.9174    0.3184 H   0  0  0  0  0  0  0  0  0  0  0  0
   -4.2720    8.5566    0.0866 H   0  0  0  0  0  0  0  0  0  0  0  0
    2.1913    0.3731   -0.0193 H   0  0  0  0  0  0  0  0  0  0  0  0
    1.5146   -0.2261    1.5075 H   0  0  0  0  0  0  0  0  0  0  0  0
  2  1  1  0  0  0  0 
  1  3  1  0  0  0  0 
  2  4  1  0  0  0  0 
  2  5  1  0  0  0  0 
  3  6  2  0  0  0  0 
  3  7  1  0  0  0  0 
  4  8  1  0  0  0  0 
  6  9  1  0  0  0  0 
  7 10  2  0  0  0  0 
  8 11  1  0  0  0  0 
  9 12  2  0  0  0  0 
 10 12  1  0  0  0  0 
 11 13  1  0  0  0  0 
 13 14  1  0  0  0  0 
  1 15  1  0  0  0  0 
  1 16  1  0  0  0  0 
  2 17  1  0  0  0  0 
  4 18  1  0  0  0  0 
  5 19  1  0  0  0  0 
  5 20  1  0  0  0  0 
  5 21  1  0  0  0  0 
  6 22  1  0  0  0  0 
  7 23  1  0  0  0  0 
  8 24  1  0  0  0  0 
  8 25  1  0  0  0  0 
  9 26  1  0  0  0  0 
 10 27  1  0  0  0  0 
 11 28  1  0  0  0  0 
 11 29  1  0  0  0  0 
 12 30  1  0  0  0  0 
 13 31  1  0  0  0  0 
 13 32  1  0  0  0  0 
M  END
> <cdk:Title>
mefenorex

> <Conformer>
1

> <SuperDrugID>
SD001473

$$$$
