triclocarban
  CDK     0628171801

 28 29  0  0  0  0  0  0  0  0999 V2000
   -1.7480   -0.8477    0.9611 N   0  0  0  0  0  0  0  0  0  0  0  0
   -1.6521   -1.1465   -0.3626 C   0  0  0  0  0  0  0  0  0  0  0  0
   -2.8367   -0.6807    1.7710 C   0  0  0  0  0  0  0  0  0  0  0  0
   -0.3701   -1.2844   -0.7980 N   0  0  0  0  0  0  0  0  0  0  0  0
   -2.6486   -1.2798   -1.1077 O   0  0  0  0  0  0  0  0  0  0  0  0
   -4.1640   -1.0780    1.4779 C   0  0  0  0  0  0  0  0  0  0  0  0
   -2.5783   -0.0815    3.0232 C   0  0  0  0  0  0  0  0  0  0  0  0
    0.1388   -1.5427   -2.0406 C   0  0  0  0  0  0  0  0  0  0  0  0
   -5.2071   -0.8752    2.4056 C   0  0  0  0  0  0  0  0  0  0  0  0
   -3.6077    0.1132    3.9595 C   0  0  0  0  0  0  0  0  0  0  0  0
   -0.5711   -1.4711   -3.2645 C   0  0  0  0  0  0  0  0  0  0  0  0
    1.5109   -1.8843   -2.0806 C   0  0  0  0  0  0  0  0  0  0  0  0
   -6.7743   -1.3577    1.9661 Cl  0  0  0  0  0  0  0  0  0  0  0  0
   -4.9251   -0.2828    3.6590 C   0  0  0  0  0  0  0  0  0  0  0  0
    0.0733   -1.7370   -4.4874 C   0  0  0  0  0  0  0  0  0  0  0  0
    2.1571   -2.1546   -3.3011 C   0  0  0  0  0  0  0  0  0  0  0  0
   -6.1263   -0.0285    4.8295 Cl  0  0  0  0  0  0  0  0  0  0  0  0
    1.4390   -2.0818   -4.5083 C   0  0  0  0  0  0  0  0  0  0  0  0
    2.2139   -2.4087   -5.9765 Cl  0  0  0  0  0  0  0  0  0  0  0  0
   -0.8939   -0.7192    1.4040 H   0  0  0  0  0  0  0  0  0  0  0  0
    0.2996   -1.1945   -0.1018 H   0  0  0  0  0  0  0  0  0  0  0  0
   -4.3815   -1.5324    0.5907 H   0  0  0  0  0  0  0  0  0  0  0  0
   -1.6299    0.2190    3.2660 H   0  0  0  0  0  0  0  0  0  0  0  0
   -3.3870    0.5444    4.8616 H   0  0  0  0  0  0  0  0  0  0  0  0
   -1.5575   -1.2137   -3.2903 H   0  0  0  0  0  0  0  0  0  0  0  0
    2.0548   -1.9399   -1.2152 H   0  0  0  0  0  0  0  0  0  0  0  0
   -0.4573   -1.6767   -5.3597 H   0  0  0  0  0  0  0  0  0  0  0  0
    3.1500   -2.4037   -3.3011 H   0  0  0  0  0  0  0  0  0  0  0  0
  1  2  1  0  0  0  0 
  1  3  1  0  0  0  0 
  2  4  1  0  0  0  0 
  2  5  2  0  0  0  0 
  3  6  2  0  0  0  0 
  3  7  1  0  0  0  0 
  4  8  1  0  0  0  0 
  6  9  1  0  0  0  0 
  7 10  2  0  0  0  0 
  8 11  2  0  0  0  0 
  8 12  1  0  0  0  0 
  9 13  1  0  0  0  0 
  9 14  2  0  0  0  0 
 10 14  1  0  0  0  0 
 11 15  1  0  0  0  0 
 12 16  2  0  0  0  0 
 14 17  1  0  0  0  0 
 15 18  2  0  0  0  0 
 16 18  1  0  0  0  0 
 18 19  1  0  0  0  0 
  1 20  1  0  0  0  0 
  4 21  1  0  0  0  0 
  6 22  1  0  0  0  0 
  7 23  1  0  0  0  0 
 10 24  1  0  0  0  0 
 11 25  1  0  0  0  0 
 12 26  1  0  0  0  0 
 15 27  1  0  0  0  0 
 16 28  1  0  0  0  0 
M  END
> <cdk:Title>
triclocarban

> <Conformer>
1

> <SuperDrugID>
SD003110

$$$$
