brinzolamide
  CDK     0628171801

 44 45  0  0  0  0  0  0  0  0999 V2000
   -7.2987    0.8840   -0.4514 O   0  0  0  0  0  0  0  0  0  0  0  0
   -6.4642    1.6904    0.6550 S   0  0  1  0  0  0  0  0  0  0  0  0
   -6.0983    3.1677    0.1518 O   0  0  0  0  0  0  0  0  0  0  0  0
   -7.3222    1.7384    2.1794 C   0  0  0  0  0  0  0  0  0  0  0  0
   -4.9844    0.8050    1.0489 N   0  0  1  0  0  0  0  0  0  0  0  0
   -6.6601    1.7555    3.4114 C   0  0  0  0  0  0  0  0  0  0  0  0
   -9.0527    1.7083    2.4562 S   0  0  0  0  0  0  0  0  0  0  0  0
   -4.1030    0.6838   -0.1519 C   0  0  2  0  0  0  0  0  0  0  0  0
   -4.3208    1.3055    2.2991 C   0  0  2  0  0  0  0  0  0  0  0  0
   -5.1705    1.8655    3.5100 C   0  0  2  0  0  0  0  0  0  0  0  0
   -7.5550    1.7439    4.5120 C   0  0  0  0  0  0  0  0  0  0  0  0
   -8.9238    1.6931    4.2050 C   0  0  0  0  0  0  0  0  0  0  0  0
   -2.8980   -0.2839   -0.0021 C   0  0  1  0  0  0  0  0  0  0  0  0
   -4.7020    1.3055    4.8092 N   0  0  2  0  0  0  0  0  0  0  0  0
  -10.2856    1.6410    5.3249 S   0  0  2  0  0  0  0  0  0  0  0  0
   -3.2822   -1.7681    0.2199 C   0  0  2  0  0  0  0  0  0  0  0  0
   -3.3544    1.7141    5.2799 C   0  0  1  0  0  0  0  0  0  0  0  0
  -11.3302    3.0165    5.0012 N   0  0  2  0  0  0  0  0  0  0  0  0
   -9.7819    1.7172    6.8456 O   0  0  0  0  0  0  0  0  0  0  0  0
  -11.1346    0.2970    5.1083 O   0  0  0  0  0  0  0  0  0  0  0  0
   -4.0923   -1.9113    1.4032 O   0  0  0  0  0  0  0  0  0  0  0  0
   -3.0520    1.0317    6.6282 C   0  0  0  0  0  0  0  0  0  0  0  0
   -4.4892   -3.2554    1.7135 C   0  0  0  0  0  0  0  0  0  0  0  0
   -3.7220    1.6756   -0.4149 H   0  0  0  0  0  0  0  0  0  0  0  0
   -4.6947    0.3290   -1.0003 H   0  0  0  0  0  0  0  0  0  0  0  0
   -3.6004    2.0834    2.0287 H   0  0  0  0  0  0  0  0  0  0  0  0
   -3.7349    0.4602    2.6646 H   0  0  0  0  0  0  0  0  0  0  0  0
   -5.0054    2.9474    3.5520 H   0  0  0  0  0  0  0  0  0  0  0  0
   -7.2304    1.7754    5.4823 H   0  0  0  0  0  0  0  0  0  0  0  0
   -2.3022   -0.2210   -0.9171 H   0  0  0  0  0  0  0  0  0  0  0  0
   -2.2558    0.0506    0.8145 H   0  0  0  0  0  0  0  0  0  0  0  0
   -4.7097    0.2877    4.7212 H   0  0  0  0  0  0  0  0  0  0  0  0
   -2.3602   -2.3461    0.3256 H   0  0  0  0  0  0  0  0  0  0  0  0
   -3.8190   -2.1336   -0.6605 H   0  0  0  0  0  0  0  0  0  0  0  0
   -2.5870    1.4193    4.5633 H   0  0  0  0  0  0  0  0  0  0  0  0
   -3.3098    2.7981    5.4058 H   0  0  0  0  0  0  0  0  0  0  0  0
  -12.1259    2.9407    5.6370 H   0  0  0  0  0  0  0  0  0  0  0  0
  -11.6913    2.8890    4.0530 H   0  0  0  0  0  0  0  0  0  0  0  0
   -3.7168    1.4208    7.4024 H   0  0  0  0  0  0  0  0  0  0  0  0
   -2.0171    1.2197    6.9214 H   0  0  0  0  0  0  0  0  0  0  0  0
   -3.1964   -0.0468    6.5439 H   0  0  0  0  0  0  0  0  0  0  0  0
   -3.6222   -3.8694    1.9623 H   0  0  0  0  0  0  0  0  0  0  0  0
   -5.1480   -3.2247    2.5821 H   0  0  0  0  0  0  0  0  0  0  0  0
   -5.0359   -3.7076    0.8846 H   0  0  0  0  0  0  0  0  0  0  0  0
  1  2  2  0  0  0  0 
  2  3  2  0  0  0  0 
  2  4  1  0  0  0  0 
  2  5  1  0  0  0  0 
  4  6  2  0  0  0  0 
  4  7  1  0  0  0  0 
  5  8  1  0  0  0  0 
  5  9  1  0  0  0  0 
 10  6  1  0  0  0  0 
  6 11  1  0  0  0  0 
  7 12  1  0  0  0  0 
  8 13  1  0  0  0  0 
 10  9  1  0  0  0  0 
 10 14  1  0  0  0  0 
 11 12  2  0  0  0  0 
 12 15  1  0  0  0  0 
 13 16  1  0  0  0  0 
 14 17  1  0  0  0  0 
 15 18  1  0  0  0  0 
 15 19  2  0  0  0  0 
 15 20  2  0  0  0  0 
 16 21  1  0  0  0  0 
 17 22  1  0  0  0  0 
 21 23  1  0  0  0  0 
  8 24  1  0  0  0  0 
  8 25  1  0  0  0  0 
  9 26  1  0  0  0  0 
  9 27  1  0  0  0  0 
 10 28  1  0  0  0  0 
 11 29  1  0  0  0  0 
 13 30  1  0  0  0  0 
 13 31  1  0  0  0  0 
 14 32  1  0  0  0  0 
 16 33  1  0  0  0  0 
 16 34  1  0  0  0  0 
 17 35  1  0  0  0  0 
 17 36  1  0  0  0  0 
 18 37  1  0  0  0  0 
 18 38  1  0  0  0  0 
 22 39  1  0  0  0  0 
 22 40  1  0  0  0  0 
 22 41  1  0  0  0  0 
 23 42  1  0  0  0  0 
 23 43  1  0  0  0  0 
 23 44  1  0  0  0  0 
M  END
> <cdk:Title>
brinzolamide

> <Conformer>
1

> <SuperDrugID>
SD000338

$$$$
