elliptinium
  CDK     0628171802

 38 41  0  0  0  0  0  0  0  0999 V2000
   -1.3668   -3.9742    0.4887 C   0  0  0  0  0  0  0  0  0  0  0  0
   -2.2467   -2.8007    0.2068 C   0  0  0  0  0  0  0  0  0  0  0  0
   -3.6445   -3.0317    0.0886 C   0  0  0  0  0  0  0  0  0  0  0  0
   -1.7772   -1.4503    0.0623 C   0  0  0  0  0  0  0  0  0  0  0  0
   -4.5357   -1.9679   -0.0970 C   0  0  0  0  0  0  0  0  0  0  0  0
   -4.4481   -4.1891    0.1161 C   0  0  0  0  0  0  0  0  0  0  0  0
   -2.7113   -0.3691   -0.0876 C   0  0  0  0  0  0  0  0  0  0  0  0
   -0.3963   -1.1041    0.0449 C   0  0  0  0  0  0  0  0  0  0  0  0
   -4.1126   -0.6261   -0.1674 C   0  0  0  0  0  0  0  0  0  0  0  0
   -5.7918   -2.4434   -0.1857 N   0  0  0  0  0  0  0  0  0  0  0  0
   -5.7703   -3.7726   -0.0639 C   0  0  0  0  0  0  0  0  0  0  0  0
   -4.1824   -5.5681    0.2690 C   0  0  0  0  0  0  0  0  0  0  0  0
   -2.2154    0.9580   -0.1614 C   0  0  0  0  0  0  0  0  0  0  0  0
    0.0538    0.1851   -0.0374 N   0  0  0  0  0  0  0  0  0  0  0  0
   -5.1228    0.4572   -0.3304 C   0  0  0  0  0  0  0  0  0  0  0  0
   -6.8467   -4.6752   -0.1028 C   0  0  0  0  0  0  0  0  0  0  0  0
   -5.2502   -6.4936    0.2528 C   0  0  0  0  0  0  0  0  0  0  0  0
   -0.8384    1.2096   -0.1257 C   0  0  0  0  0  0  0  0  0  0  0  0
    1.4744    0.4393   -0.0389 C   0  0  0  0  0  0  0  0  0  0  0  0
   -6.5753   -6.0474    0.0603 C   0  0  0  0  0  0  0  0  0  0  0  0
   -5.0153   -7.8182    0.4219 O   0  0  0  0  0  0  0  0  0  0  0  0
   -0.3283   -3.7406    0.6850 H   0  0  0  0  0  0  0  0  0  0  0  0
   -1.7169   -4.4870    1.3863 H   0  0  0  0  0  0  0  0  0  0  0  0
   -1.3877   -4.6571   -0.3626 H   0  0  0  0  0  0  0  0  0  0  0  0
    0.3157   -1.8288    0.0788 H   0  0  0  0  0  0  0  0  0  0  0  0
   -6.5893   -1.9103   -0.3190 H   0  0  0  0  0  0  0  0  0  0  0  0
   -3.2366   -5.9168    0.3886 H   0  0  0  0  0  0  0  0  0  0  0  0
   -2.8334    1.7671   -0.2461 H   0  0  0  0  0  0  0  0  0  0  0  0
   -4.9111    1.0170   -1.2421 H   0  0  0  0  0  0  0  0  0  0  0  0
   -5.0783    1.1339    0.5254 H   0  0  0  0  0  0  0  0  0  0  0  0
   -6.1459    0.0880   -0.4052 H   0  0  0  0  0  0  0  0  0  0  0  0
   -7.8037   -4.3482   -0.2474 H   0  0  0  0  0  0  0  0  0  0  0  0
   -0.5202    2.1831   -0.1783 H   0  0  0  0  0  0  0  0  0  0  0  0
    1.9295   -0.0457   -0.9044 H   0  0  0  0  0  0  0  0  0  0  0  0
    1.7247    1.5019   -0.0857 H   0  0  0  0  0  0  0  0  0  0  0  0
    1.9278    0.0342    0.8683 H   0  0  0  0  0  0  0  0  0  0  0  0
   -7.3446   -6.7226    0.0392 H   0  0  0  0  0  0  0  0  0  0  0  0
   -4.0592   -7.8961    0.6227 H   0  0  0  0  0  0  0  0  0  0  0  0
  1  2  1  0  0  0  0 
  2  3  2  0  0  0  0 
  2  4  1  0  0  0  0 
  3  5  1  0  0  0  0 
  3  6  1  0  0  0  0 
  4  7  1  0  0  0  0 
  4  8  2  0  0  0  0 
  5  9  1  0  0  0  0 
  5 10  2  0  0  0  0 
  6 11  1  0  0  0  0 
  6 12  2  0  0  0  0 
  7  9  2  0  0  0  0 
  7 13  1  0  0  0  0 
  8 14  1  0  0  0  0 
  9 15  1  0  0  0  0 
 10 11  1  0  0  0  0 
 11 16  2  0  0  0  0 
 12 17  1  0  0  0  0 
 13 18  2  0  0  0  0 
 14 18  1  0  0  0  0 
 14 19  1  0  0  0  0 
 16 20  1  0  0  0  0 
 17 20  2  0  0  0  0 
 17 21  1  0  0  0  0 
  1 22  1  0  0  0  0 
  1 23  1  0  0  0  0 
  1 24  1  0  0  0  0 
  8 25  1  0  0  0  0 
 10 26  1  0  0  0  0 
 12 27  1  0  0  0  0 
 13 28  1  0  0  0  0 
 15 29  1  0  0  0  0 
 15 30  1  0  0  0  0 
 15 31  1  0  0  0  0 
 16 32  1  0  0  0  0 
 18 33  1  0  0  0  0 
 19 34  1  0  0  0  0 
 19 35  1  0  0  0  0 
 19 36  1  0  0  0  0 
 20 37  1  0  0  0  0 
 21 38  1  0  0  0  0 
M  CHG  1  10   1
M  END
> <cdk:Title>
elliptinium

> <Conformer>
1

> <SuperDrugID>
SD000884

$$$$
