cytarabine
  CDK     0628171802

 30 31  0  0  0  0  0  0  0  0999 V2000
    5.8503   -2.8776   -2.1344 O   0  0  0  0  0  0  0  0  0  0  0  0
    4.6641   -2.1150   -1.9096 C   0  0  2  0  0  0  0  0  0  0  0  0
    4.5319   -1.5646   -0.4664 C   0  0  1  0  0  0  0  0  0  0  0  0
    3.1366   -1.6263   -0.1010 O   0  0  0  0  0  0  0  0  0  0  0  0
    2.3833   -2.1678   -1.1956 C   0  0  1  0  0  0  0  0  0  0  0  0
    3.3886   -2.9510   -2.0660 C   0  0  1  0  0  0  0  0  0  0  0  0
    2.9759   -3.0606   -3.4276 O   0  0  0  0  0  0  0  0  0  0  0  0
    1.2187   -3.0347   -0.6622 C   0  0  2  0  0  0  0  0  0  0  0  0
    0.3888   -2.2723    0.2079 O   0  0  0  0  0  0  0  0  0  0  0  0
    5.3869   -2.2451    0.4983 N   0  0  0  0  0  0  0  0  0  0  0  0
    6.6779   -1.8215    0.7223 C   0  0  0  0  0  0  0  0  0  0  0  0
    7.2041   -0.8654    0.1066 O   0  0  0  0  0  0  0  0  0  0  0  0
    7.4633   -2.4349    1.6437 N   0  0  0  0  0  0  0  0  0  0  0  0
    7.0249   -3.4842    2.3777 C   0  0  0  0  0  0  0  0  0  0  0  0
    5.7261   -3.9723    2.1677 C   0  0  0  0  0  0  0  0  0  0  0  0
    4.9293   -3.3322    1.2033 C   0  0  0  0  0  0  0  0  0  0  0  0
    7.8447   -4.0306    3.2914 N   0  0  0  0  0  0  0  0  0  0  0  0
    5.7926   -3.1731   -3.0672 H   0  0  0  0  0  0  0  0  0  0  0  0
    4.6472   -1.2833   -2.6229 H   0  0  0  0  0  0  0  0  0  0  0  0
    4.7758   -0.4973   -0.4767 H   0  0  0  0  0  0  0  0  0  0  0  0
    1.9682   -1.3322   -1.7728 H   0  0  0  0  0  0  0  0  0  0  0  0
    3.5552   -3.9530   -1.6585 H   0  0  0  0  0  0  0  0  0  0  0  0
    2.1539   -3.5952   -3.4058 H   0  0  0  0  0  0  0  0  0  0  0  0
    1.6064   -3.8915   -0.1050 H   0  0  0  0  0  0  0  0  0  0  0  0
    0.6120   -3.3998   -1.4934 H   0  0  0  0  0  0  0  0  0  0  0  0
   -0.2850   -2.9080    0.5308 H   0  0  0  0  0  0  0  0  0  0  0  0
    5.3597   -4.7670    2.6969 H   0  0  0  0  0  0  0  0  0  0  0  0
    3.9888   -3.7067    1.0516 H   0  0  0  0  0  0  0  0  0  0  0  0
    8.7584   -3.7109    3.3726 H   0  0  0  0  0  0  0  0  0  0  0  0
    7.5275   -4.7378    3.8755 H   0  0  0  0  0  0  0  0  0  0  0  0
  2  1  1  0  0  0  0 
  2  3  1  0  0  0  0 
  6  2  1  0  0  0  0 
  3  4  1  0  0  0  0 
  3 10  1  0  0  0  0 
  5  4  1  0  0  0  0 
  5  8  1  0  0  0  0 
  6  5  1  0  0  0  0 
  6  7  1  0  0  0  0 
  8  9  1  0  0  0  0 
 10 11  1  0  0  0  0 
 10 16  1  0  0  0  0 
 11 12  2  0  0  0  0 
 11 13  1  0  0  0  0 
 13 14  2  0  0  0  0 
 14 17  1  0  0  0  0 
 15 14  1  0  0  0  0 
 16 15  2  0  0  0  0 
  1 18  1  0  0  0  0 
  2 19  1  0  0  0  0 
  3 20  1  0  0  0  0 
  5 21  1  0  0  0  0 
  6 22  1  0  0  0  0 
  7 23  1  0  0  0  0 
  8 24  1  0  0  0  0 
  8 25  1  0  0  0  0 
  9 26  1  0  0  0  0 
 15 27  1  0  0  0  0 
 16 28  1  0  0  0  0 
 17 29  1  0  0  0  0 
 17 30  1  0  0  0  0 
M  END
> <cdk:Title>
cytarabine

> <Conformer>
1

> <SuperDrugID>
SD000678

$$$$
