etersalate
  CDK     0628171801

 45 46  0  0  0  0  0  0  0  0999 V2000
  -21.0389    4.2468    0.4986 O   0  0  0  0  0  0  0  0  0  0  0  0
  -22.2498    3.9463    1.0577 C   0  0  0  0  0  0  0  0  0  0  0  0
  -20.3037    5.3939    0.3081 C   0  0  0  0  0  0  0  0  0  0  0  0
  -22.6966    2.5496    0.9670 C   0  0  0  0  0  0  0  0  0  0  0  0
  -22.9731    4.7881    1.6382 O   0  0  0  0  0  0  0  0  0  0  0  0
  -19.0098    5.2649   -0.2780 C   0  0  0  0  0  0  0  0  0  0  0  0
  -20.7851    6.6790    0.6505 C   0  0  0  0  0  0  0  0  0  0  0  0
  -18.4706    4.0034   -0.6623 C   0  0  0  0  0  0  0  0  0  0  0  0
  -18.2348    6.4334   -0.4865 C   0  0  0  0  0  0  0  0  0  0  0  0
  -20.0083    7.8251    0.4225 C   0  0  0  0  0  0  0  0  0  0  0  0
  -17.1156    3.8224   -0.7470 O   0  0  0  0  0  0  0  0  0  0  0  0
  -19.2164    3.0327   -0.9370 O   0  0  0  0  0  0  0  0  0  0  0  0
  -18.7321    7.7024   -0.1447 C   0  0  0  0  0  0  0  0  0  0  0  0
  -16.4461    2.5894   -1.0441 C   0  0  1  0  0  0  0  0  0  0  0  0
  -14.9163    2.7797   -1.0289 C   0  0  2  0  0  0  0  0  0  0  0  0
  -14.4989    3.1021    0.3121 O   0  0  0  0  0  0  0  0  0  0  0  0
  -13.1453    3.2470    0.4682 C   0  0  0  0  0  0  0  0  0  0  0  0
  -12.6016    4.5332    0.6465 C   0  0  0  0  0  0  0  0  0  0  0  0
  -12.2951    2.1240    0.5244 C   0  0  0  0  0  0  0  0  0  0  0  0
  -11.2266    4.6952    0.9003 C   0  0  0  0  0  0  0  0  0  0  0  0
  -10.9203    2.2887    0.7683 C   0  0  0  0  0  0  0  0  0  0  0  0
  -10.3662    3.5717    0.9718 C   0  0  0  0  0  0  0  0  0  0  0  0
   -9.0359    3.6105    1.2832 N   0  0  0  0  0  0  0  0  0  0  0  0
   -8.1554    4.6477    1.2278 C   0  0  0  0  0  0  0  0  0  0  0  0
   -6.8036    4.4277    1.7662 C   0  0  0  0  0  0  0  0  0  0  0  0
   -8.4397    5.7682    0.7427 O   0  0  0  0  0  0  0  0  0  0  0  0
  -23.6723    2.4150    1.4367 H   0  0  0  0  0  0  0  0  0  0  0  0
  -22.7727    2.2637   -0.0829 H   0  0  0  0  0  0  0  0  0  0  0  0
  -21.9746    1.8977    1.4603 H   0  0  0  0  0  0  0  0  0  0  0  0
  -21.7081    6.8014    1.0601 H   0  0  0  0  0  0  0  0  0  0  0  0
  -17.2997    6.3796   -0.8988 H   0  0  0  0  0  0  0  0  0  0  0  0
  -20.3711    8.7488    0.6649 H   0  0  0  0  0  0  0  0  0  0  0  0
  -18.1663    8.5367   -0.3143 H   0  0  0  0  0  0  0  0  0  0  0  0
  -16.7214    1.8430   -0.2940 H   0  0  0  0  0  0  0  0  0  0  0  0
  -16.7576    2.2281   -2.0274 H   0  0  0  0  0  0  0  0  0  0  0  0
  -14.6426    3.5816   -1.7226 H   0  0  0  0  0  0  0  0  0  0  0  0
  -14.4554    1.8453   -1.3665 H   0  0  0  0  0  0  0  0  0  0  0  0
  -13.2099    5.3556    0.6143 H   0  0  0  0  0  0  0  0  0  0  0  0
  -12.6764    1.1832    0.4002 H   0  0  0  0  0  0  0  0  0  0  0  0
  -10.8760    5.6396    1.0579 H   0  0  0  0  0  0  0  0  0  0  0  0
  -10.3232    1.4589    0.8022 H   0  0  0  0  0  0  0  0  0  0  0  0
   -8.6603    2.7696    1.5934 H   0  0  0  0  0  0  0  0  0  0  0  0
   -6.1723    5.3101    1.6404 H   0  0  0  0  0  0  0  0  0  0  0  0
   -6.8719    4.2011    2.8327 H   0  0  0  0  0  0  0  0  0  0  0  0
   -6.3317    3.5885    1.2525 H   0  0  0  0  0  0  0  0  0  0  0  0
  1  2  1  0  0  0  0 
  1  3  1  0  0  0  0 
  2  4  1  0  0  0  0 
  2  5  2  0  0  0  0 
  3  6  2  0  0  0  0 
  3  7  1  0  0  0  0 
  6  8  1  0  0  0  0 
  6  9  1  0  0  0  0 
  7 10  2  0  0  0  0 
  8 11  1  0  0  0  0 
  8 12  2  0  0  0  0 
  9 13  2  0  0  0  0 
 10 13  1  0  0  0  0 
 11 14  1  0  0  0  0 
 14 15  1  0  0  0  0 
 15 16  1  0  0  0  0 
 16 17  1  0  0  0  0 
 17 18  2  0  0  0  0 
 17 19  1  0  0  0  0 
 18 20  1  0  0  0  0 
 19 21  2  0  0  0  0 
 20 22  2  0  0  0  0 
 21 22  1  0  0  0  0 
 22 23  1  0  0  0  0 
 23 24  1  0  0  0  0 
 24 25  1  0  0  0  0 
 24 26  2  0  0  0  0 
  4 27  1  0  0  0  0 
  4 28  1  0  0  0  0 
  4 29  1  0  0  0  0 
  7 30  1  0  0  0  0 
  9 31  1  0  0  0  0 
 10 32  1  0  0  0  0 
 13 33  1  0  0  0  0 
 14 34  1  0  0  0  0 
 14 35  1  0  0  0  0 
 15 36  1  0  0  0  0 
 15 37  1  0  0  0  0 
 18 38  1  0  0  0  0 
 19 39  1  0  0  0  0 
 20 40  1  0  0  0  0 
 21 41  1  0  0  0  0 
 23 42  1  0  0  0  0 
 25 43  1  0  0  0  0 
 25 44  1  0  0  0  0 
 25 45  1  0  0  0  0 
M  END
> <cdk:Title>
etersalate

> <Conformer>
1

> <SuperDrugID>
SD000955

$$$$
