cevimeline
  CDK     0628171802

 30 32  0  0  0  0  0  0  0  0999 V2000
    0.4929   -0.5146   -1.0308 C   0  0  0  0  0  0  0  0  0  0  0  0
    1.2600   -0.1217    0.2465 C   0  0  2  0  0  0  0  0  0  0  0  0
    1.0646    1.2718    0.5475 O   0  0  0  0  0  0  0  0  0  0  0  0
    3.0656   -0.2848    0.0775 S   0  0  0  0  0  0  0  0  0  0  0  0
    2.1299    1.8437    1.3562 C   0  0  1  0  0  0  0  0  0  0  0  0
    3.4678    1.3748    0.6957 C   0  0  1  0  0  0  0  0  0  0  0  0
    1.9706    3.4129    1.3090 C   0  0  2  0  0  0  0  0  0  0  0  0
    1.9797    1.4082    2.8738 C   0  0  1  0  0  0  0  0  0  0  0  0
    3.0504    4.0797    2.2266 C   0  0  2  0  0  0  0  0  0  0  0  0
    0.5697    3.8023    1.8934 C   0  0  2  0  0  0  0  0  0  0  0  0
    1.7275    2.5816    3.7818 N   0  0  1  0  0  0  0  0  0  0  0  0
    2.8805    3.5434    3.6868 C   0  0  2  0  0  0  0  0  0  0  0  0
    0.4599    3.2744    3.3621 C   0  0  2  0  0  0  0  0  0  0  0  0
   -0.5780   -0.3698   -0.8703 H   0  0  0  0  0  0  0  0  0  0  0  0
    0.6712   -1.5650   -1.2710 H   0  0  0  0  0  0  0  0  0  0  0  0
    0.8084    0.1051   -1.8730 H   0  0  0  0  0  0  0  0  0  0  0  0
    0.9227   -0.7389    1.0812 H   0  0  0  0  0  0  0  0  0  0  0  0
    4.3095    1.3382    1.3899 H   0  0  0  0  0  0  0  0  0  0  0  0
    3.7309    1.9946   -0.1644 H   0  0  0  0  0  0  0  0  0  0  0  0
    2.0589    3.7869    0.2842 H   0  0  0  0  0  0  0  0  0  0  0  0
    1.1484    0.7097    2.9898 H   0  0  0  0  0  0  0  0  0  0  0  0
    2.8681    0.8739    3.2262 H   0  0  0  0  0  0  0  0  0  0  0  0
    2.9327    5.1672    2.2091 H   0  0  0  0  0  0  0  0  0  0  0  0
    4.0566    3.8615    1.8594 H   0  0  0  0  0  0  0  0  0  0  0  0
   -0.2307    3.3803    1.2803 H   0  0  0  0  0  0  0  0  0  0  0  0
    0.4476    4.8888    1.8750 H   0  0  0  0  0  0  0  0  0  0  0  0
    2.7200    4.3806    4.3732 H   0  0  0  0  0  0  0  0  0  0  0  0
    3.7990    3.0475    4.0142 H   0  0  0  0  0  0  0  0  0  0  0  0
   -0.3832    2.5829    3.4488 H   0  0  0  0  0  0  0  0  0  0  0  0
    0.2489    4.1042    4.0434 H   0  0  0  0  0  0  0  0  0  0  0  0
  2  1  1  0  0  0  0 
  2  3  1  0  0  0  0 
  2  4  1  0  0  0  0 
  4  6  1  0  0  0  0 
  5  3  1  0  0  0  0 
  5  6  1  0  0  0  0 
  5  7  1  0  0  0  0 
  5  8  1  0  0  0  0 
  7  9  1  0  0  0  0 
  7 10  1  0  0  0  0 
  8 11  1  0  0  0  0 
  9 12  1  0  0  0  0 
 10 13  1  0  0  0  0 
 11 12  1  0  0  0  0 
 11 13  1  0  0  0  0 
  1 14  1  0  0  0  0 
  1 15  1  0  0  0  0 
  1 16  1  0  0  0  0 
  2 17  1  0  0  0  0 
  6 18  1  0  0  0  0 
  6 19  1  0  0  0  0 
  7 20  1  0  0  0  0 
  8 21  1  0  0  0  0 
  8 22  1  0  0  0  0 
  9 23  1  0  0  0  0 
  9 24  1  0  0  0  0 
 10 25  1  0  0  0  0 
 10 26  1  0  0  0  0 
 12 27  1  0  0  0  0 
 12 28  1  0  0  0  0 
 13 29  1  0  0  0  0 
 13 30  1  0  0  0  0 
M  END
> <cdk:Title>
cevimeline

> <Conformer>
1

> <SuperDrugID>
SD000511

$$$$
