mepiperphenidol
  CDK     0628171801

 53 54  0  0  0  0  0  0  0  0999 V2000
    1.5700    2.0906    2.3227 C   0  0  1  0  0  0  0  0  0  0  0  0
    0.6454    2.3701    1.0755 C   0  0  1  0  0  0  0  0  0  0  0  0
    2.3721    3.3382    2.8702 C   0  0  2  0  0  0  0  0  0  0  0  0
    0.8141    1.3780    3.4117 C   0  0  0  0  0  0  0  0  0  0  0  0
   -0.1417    1.1477    0.5011 C   0  0  2  0  0  0  0  0  0  0  0  0
   -0.3111    3.3932    1.3609 O   0  0  0  0  0  0  0  0  0  0  0  0
    3.1862    4.0698    1.7606 C   0  0  0  0  0  0  0  0  0  0  0  0
    3.3376    2.9501    4.0336 C   0  0  0  0  0  0  0  0  0  0  0  0
   -0.2267    2.0174    4.1316 C   0  0  0  0  0  0  0  0  0  0  0  0
    1.1222    0.0339    3.7448 C   0  0  0  0  0  0  0  0  0  0  0  0
    0.7488   -0.0046   -0.0692 C   0  0  2  0  0  0  0  0  0  0  0  0
   -0.9565    1.3275    5.1168 C   0  0  0  0  0  0  0  0  0  0  0  0
    0.3931   -0.6558    4.7308 C   0  0  0  0  0  0  0  0  0  0  0  0
    0.0732   -1.2563   -0.6361 N   0  0  2  0  0  0  0  0  0  0  0  0
   -0.6525   -0.0117    5.4130 C   0  0  0  0  0  0  0  0  0  0  0  0
   -0.8342   -0.8641   -1.7848 C   0  0  0  0  0  0  0  0  0  0  0  0
   -0.7169   -1.9769    0.4462 C   0  0  2  0  0  0  0  0  0  0  0  0
    1.1755   -2.1848   -1.1391 C   0  0  1  0  0  0  0  0  0  0  0  0
   -1.2462   -3.3863    0.0521 C   0  0  2  0  0  0  0  0  0  0  0  0
    0.7289   -3.6126   -1.5665 C   0  0  1  0  0  0  0  0  0  0  0  0
   -0.1091   -4.3006   -0.4632 C   0  0  1  0  0  0  0  0  0  0  0  0
    2.3497    1.4217    1.9501 H   0  0  0  0  0  0  0  0  0  0  0  0
    1.2621    2.7439    0.2537 H   0  0  0  0  0  0  0  0  0  0  0  0
    1.6679    4.0706    3.2765 H   0  0  0  0  0  0  0  0  0  0  0  0
   -0.7716    1.5296   -0.3051 H   0  0  0  0  0  0  0  0  0  0  0  0
   -0.8066    0.7578    1.2712 H   0  0  0  0  0  0  0  0  0  0  0  0
    0.2117    4.1778    1.6214 H   0  0  0  0  0  0  0  0  0  0  0  0
    3.8250    3.3654    1.2227 H   0  0  0  0  0  0  0  0  0  0  0  0
    3.8178    4.8523    2.1867 H   0  0  0  0  0  0  0  0  0  0  0  0
    2.5151    4.5525    1.0489 H   0  0  0  0  0  0  0  0  0  0  0  0
    2.7833    2.5469    4.8818 H   0  0  0  0  0  0  0  0  0  0  0  0
    3.8870    3.8227    4.3913 H   0  0  0  0  0  0  0  0  0  0  0  0
    4.0596    2.2008    3.7041 H   0  0  0  0  0  0  0  0  0  0  0  0
   -0.4670    2.9937    3.9446 H   0  0  0  0  0  0  0  0  0  0  0  0
    1.8801   -0.4603    3.2679 H   0  0  0  0  0  0  0  0  0  0  0  0
    1.4248   -0.3120    0.7309 H   0  0  0  0  0  0  0  0  0  0  0  0
    1.3851    0.4435   -0.8407 H   0  0  0  0  0  0  0  0  0  0  0  0
   -1.7098    1.8013    5.6185 H   0  0  0  0  0  0  0  0  0  0  0  0
    0.6250   -1.6264    4.9500 H   0  0  0  0  0  0  0  0  0  0  0  0
   -1.1869   -0.5136    6.1255 H   0  0  0  0  0  0  0  0  0  0  0  0
   -0.3007   -0.2662   -2.5277 H   0  0  0  0  0  0  0  0  0  0  0  0
   -1.2509   -1.7250   -2.3082 H   0  0  0  0  0  0  0  0  0  0  0  0
   -1.6901   -0.2808   -1.4409 H   0  0  0  0  0  0  0  0  0  0  0  0
   -1.5838   -1.3851    0.7559 H   0  0  0  0  0  0  0  0  0  0  0  0
   -0.0976   -2.1055    1.3415 H   0  0  0  0  0  0  0  0  0  0  0  0
    1.6988   -1.7323   -1.9878 H   0  0  0  0  0  0  0  0  0  0  0  0
    1.9310   -2.3281   -0.3583 H   0  0  0  0  0  0  0  0  0  0  0  0
   -2.0190   -3.2966   -0.7146 H   0  0  0  0  0  0  0  0  0  0  0  0
   -1.7125   -3.8490    0.9256 H   0  0  0  0  0  0  0  0  0  0  0  0
    0.1540   -3.5692   -2.4937 H   0  0  0  0  0  0  0  0  0  0  0  0
    1.6166   -4.2182   -1.7688 H   0  0  0  0  0  0  0  0  0  0  0  0
    0.5446   -4.5624    0.3725 H   0  0  0  0  0  0  0  0  0  0  0  0
   -0.5368   -5.2259   -0.8578 H   0  0  0  0  0  0  0  0  0  0  0  0
  1  2  1  0  0  0  0 
  1  3  1  0  0  0  0 
  1  4  1  0  0  0  0 
  2  5  1  0  0  0  0 
  2  6  1  0  0  0  0 
  3  7  1  0  0  0  0 
  3  8  1  0  0  0  0 
  4  9  2  0  0  0  0 
  4 10  1  0  0  0  0 
  5 11  1  0  0  0  0 
  9 12  1  0  0  0  0 
 10 13  2  0  0  0  0 
 11 14  1  0  0  0  0 
 12 15  2  0  0  0  0 
 13 15  1  0  0  0  0 
 14 16  1  0  0  0  0 
 14 17  1  0  0  0  0 
 14 18  1  0  0  0  0 
 17 19  1  0  0  0  0 
 18 20  1  0  0  0  0 
 19 21  1  0  0  0  0 
 20 21  1  0  0  0  0 
  1 22  1  0  0  0  0 
  2 23  1  0  0  0  0 
  3 24  1  0  0  0  0 
  5 25  1  0  0  0  0 
  5 26  1  0  0  0  0 
  6 27  1  0  0  0  0 
  7 28  1  0  0  0  0 
  7 29  1  0  0  0  0 
  7 30  1  0  0  0  0 
  8 31  1  0  0  0  0 
  8 32  1  0  0  0  0 
  8 33  1  0  0  0  0 
  9 34  1  0  0  0  0 
 10 35  1  0  0  0  0 
 11 36  1  0  0  0  0 
 11 37  1  0  0  0  0 
 12 38  1  0  0  0  0 
 13 39  1  0  0  0  0 
 15 40  1  0  0  0  0 
 16 41  1  0  0  0  0 
 16 42  1  0  0  0  0 
 16 43  1  0  0  0  0 
 17 44  1  0  0  0  0 
 17 45  1  0  0  0  0 
 18 46  1  0  0  0  0 
 18 47  1  0  0  0  0 
 19 48  1  0  0  0  0 
 19 49  1  0  0  0  0 
 20 50  1  0  0  0  0 
 20 51  1  0  0  0  0 
 21 52  1  0  0  0  0 
 21 53  1  0  0  0  0 
M  CHG  1  14   1
M  END
> <cdk:Title>
mepiperphenidol

> <Conformer>
1

> <SuperDrugID>
SD001502

$$$$
