tiazofurine
  CDK     0628171801

 29 30  0  0  0  0  0  0  0  0999 V2000
    3.9122   -0.2570   -1.5285 O   0  0  0  0  0  0  0  0  0  0  0  0
    3.9636   -1.6746   -1.3474 C   0  0  1  0  0  0  0  0  0  0  0  0
    4.3285   -2.0223    0.1152 C   0  0  1  0  0  0  0  0  0  0  0  0
    2.5650   -2.2900   -1.4873 C   0  0  2  0  0  0  0  0  0  0  0  0
    3.0971   -2.1711    0.8409 O   0  0  0  0  0  0  0  0  0  0  0  0
    5.1275   -3.2579    0.2363 C   0  0  0  0  0  0  0  0  0  0  0  0
    1.7808   -1.6756   -2.5086 O   0  0  0  0  0  0  0  0  0  0  0  0
    1.9895   -2.0719   -0.0699 C   0  0  2  0  0  0  0  0  0  0  0  0
    6.4714   -3.3531    0.1087 N   0  0  0  0  0  0  0  0  0  0  0  0
    4.5420   -4.8865    0.5315 S   0  0  0  0  0  0  0  0  0  0  0  0
    0.8792   -3.0706    0.3231 C   0  0  2  0  0  0  0  0  0  0  0  0
    7.0389   -4.5869    0.2412 C   0  0  0  0  0  0  0  0  0  0  0  0
    6.1301   -5.6265    0.4937 C   0  0  0  0  0  0  0  0  0  0  0  0
    0.4521   -2.8292    1.6592 O   0  0  0  0  0  0  0  0  0  0  0  0
    8.4338   -4.7663    0.1272 C   0  0  0  0  0  0  0  0  0  0  0  0
    9.0318   -5.9516    0.3492 N   0  0  0  0  0  0  0  0  0  0  0  0
    9.1728   -3.8059   -0.1870 O   0  0  0  0  0  0  0  0  0  0  0  0
    4.8245    0.0592   -1.3584 H   0  0  0  0  0  0  0  0  0  0  0  0
    4.6607   -2.0946   -2.0795 H   0  0  0  0  0  0  0  0  0  0  0  0
    4.8985   -1.2084    0.5700 H   0  0  0  0  0  0  0  0  0  0  0  0
    2.6596   -3.3574   -1.7100 H   0  0  0  0  0  0  0  0  0  0  0  0
    0.9240   -2.1527   -2.4946 H   0  0  0  0  0  0  0  0  0  0  0  0
    1.5832   -1.0566    0.0024 H   0  0  0  0  0  0  0  0  0  0  0  0
    1.2485   -4.0961    0.2569 H   0  0  0  0  0  0  0  0  0  0  0  0
    0.0207   -2.9582   -0.3418 H   0  0  0  0  0  0  0  0  0  0  0  0
    6.3352   -6.6170    0.6267 H   0  0  0  0  0  0  0  0  0  0  0  0
   -0.2219   -3.5180    1.8349 H   0  0  0  0  0  0  0  0  0  0  0  0
    9.9950   -6.0306    0.2682 H   0  0  0  0  0  0  0  0  0  0  0  0
    8.5050   -6.7281    0.5933 H   0  0  0  0  0  0  0  0  0  0  0  0
  2  1  1  0  0  0  0 
  2  3  1  0  0  0  0 
  4  2  1  0  0  0  0 
  3  5  1  0  0  0  0 
  3  6  1  0  0  0  0 
  4  7  1  0  0  0  0 
  8  4  1  0  0  0  0 
  8  5  1  0  0  0  0 
  6  9  2  0  0  0  0 
  6 10  1  0  0  0  0 
  8 11  1  0  0  0  0 
  9 12  1  0  0  0  0 
 10 13  1  0  0  0  0 
 11 14  1  0  0  0  0 
 12 13  2  0  0  0  0 
 12 15  1  0  0  0  0 
 15 16  1  0  0  0  0 
 15 17  2  0  0  0  0 
  1 18  1  0  0  0  0 
  2 19  1  0  0  0  0 
  3 20  1  0  0  0  0 
  4 21  1  0  0  0  0 
  7 22  1  0  0  0  0 
  8 23  1  0  0  0  0 
 11 24  1  0  0  0  0 
 11 25  1  0  0  0  0 
 13 26  1  0  0  0  0 
 14 27  1  0  0  0  0 
 16 28  1  0  0  0  0 
 16 29  1  0  0  0  0 
M  END
> <cdk:Title>
tiazofurine

> <Conformer>
1

> <SuperDrugID>
SD003090

$$$$
