toremifene
  CDK     0628171801

 57 59  0  0  0  0  0  0  0  0999 V2000
    2.4134   -2.8256    3.4867 C   0  0  0  0  0  0  0  0  0  0  0  0
    1.5739   -1.7129    3.6645 C   0  0  0  0  0  0  0  0  0  0  0  0
    2.1031   -0.4958    4.1300 C   0  0  0  0  0  0  0  0  0  0  0  0
    3.4834   -0.3774    4.4308 C   0  0  0  0  0  0  0  0  0  0  0  0
    4.3179   -1.5046    4.2378 C   0  0  0  0  0  0  0  0  0  0  0  0
    3.7859   -2.7186    3.7691 C   0  0  0  0  0  0  0  0  0  0  0  0
    4.0121    0.8309    4.9124 C   0  0  0  0  0  0  0  0  0  0  0  0
    3.9953    1.9557    4.1391 C   0  0  0  0  0  0  0  0  0  0  0  0
    4.5419    0.8019    6.2973 C   0  0  1  0  0  0  0  0  0  0  0  0
    4.4008    3.2033    4.6248 C   0  0  0  0  0  0  0  0  0  0  0  0
    3.5692    1.9713    2.7968 C   0  0  0  0  0  0  0  0  0  0  0  0
    3.5730    3.9434    5.5042 C   0  0  0  0  0  0  0  0  0  0  0  0
    3.9718    5.2116    5.9661 C   0  0  0  0  0  0  0  0  0  0  0  0
    5.2059    5.7520    5.5616 C   0  0  0  0  0  0  0  0  0  0  0  0
    6.0367    5.0285    4.6870 C   0  0  0  0  0  0  0  0  0  0  0  0
    5.6318    3.7672    4.2114 C   0  0  0  0  0  0  0  0  0  0  0  0
    2.4618    2.7621    2.4074 C   0  0  0  0  0  0  0  0  0  0  0  0
    2.0489    2.8211    1.0662 C   0  0  0  0  0  0  0  0  0  0  0  0
    2.7214    2.0697    0.0791 C   0  0  0  0  0  0  0  0  0  0  0  0
    3.8233    1.2759    0.4526 C   0  0  0  0  0  0  0  0  0  0  0  0
    4.2390    1.2219    1.7976 C   0  0  0  0  0  0  0  0  0  0  0  0
    2.3615    2.1220   -1.2440 O   0  0  0  0  0  0  0  0  0  0  0  0
    1.0459    1.6039   -1.5351 C   0  0  1  0  0  0  0  0  0  0  0  0
    0.7576    1.6854   -3.0531 C   0  0  1  0  0  0  0  0  0  0  0  0
    1.1509    2.9746   -3.7107 N   0  0  1  0  0  0  0  0  0  0  0  0
    1.0282    2.9081   -5.1970 C   0  0  0  0  0  0  0  0  0  0  0  0
    0.4908    4.1876   -3.1442 C   0  0  0  0  0  0  0  0  0  0  0  0
    6.0891    0.8777    6.4002 C   0  0  1  0  0  0  0  0  0  0  0  0
    6.6188    0.8287    8.0795 Cl  0  0  0  0  0  0  0  0  0  0  0  0
    2.0263   -3.7103    3.1523 H   0  0  0  0  0  0  0  0  0  0  0  0
    0.5770   -1.7893    3.4537 H   0  0  0  0  0  0  0  0  0  0  0  0
    1.4746    0.3023    4.2463 H   0  0  0  0  0  0  0  0  0  0  0  0
    5.3215   -1.4517    4.4281 H   0  0  0  0  0  0  0  0  0  0  0  0
    4.4006   -3.5215    3.6320 H   0  0  0  0  0  0  0  0  0  0  0  0
    4.1063    1.6150    6.8816 H   0  0  0  0  0  0  0  0  0  0  0  0
    4.2375   -0.1178    6.8095 H   0  0  0  0  0  0  0  0  0  0  0  0
    2.6708    3.5661    5.8081 H   0  0  0  0  0  0  0  0  0  0  0  0
    3.3614    5.7421    6.5925 H   0  0  0  0  0  0  0  0  0  0  0  0
    5.4974    6.6715    5.9022 H   0  0  0  0  0  0  0  0  0  0  0  0
    6.9352    5.4207    4.3943 H   0  0  0  0  0  0  0  0  0  0  0  0
    6.2437    3.2583    3.5674 H   0  0  0  0  0  0  0  0  0  0  0  0
    1.9426    3.3062    3.0994 H   0  0  0  0  0  0  0  0  0  0  0  0
    1.2560    3.4165    0.8151 H   0  0  0  0  0  0  0  0  0  0  0  0
    4.3286    0.7394   -0.2582 H   0  0  0  0  0  0  0  0  0  0  0  0
    5.0405    0.6343    2.0403 H   0  0  0  0  0  0  0  0  0  0  0  0
    0.9682    0.5594   -1.2178 H   0  0  0  0  0  0  0  0  0  0  0  0
    0.2733    2.1740   -1.0134 H   0  0  0  0  0  0  0  0  0  0  0  0
    1.3151    0.8684   -3.5195 H   0  0  0  0  0  0  0  0  0  0  0  0
   -0.3085    1.4930   -3.2135 H   0  0  0  0  0  0  0  0  0  0  0  0
   -0.0165    2.8103   -5.5030 H   0  0  0  0  0  0  0  0  0  0  0  0
    1.5893    2.0592   -5.5937 H   0  0  0  0  0  0  0  0  0  0  0  0
    1.4442    3.8079   -5.6541 H   0  0  0  0  0  0  0  0  0  0  0  0
   -0.5977    4.0960   -3.1772 H   0  0  0  0  0  0  0  0  0  0  0  0
    0.7833    5.0848   -3.6946 H   0  0  0  0  0  0  0  0  0  0  0  0
    0.8026    4.3388   -2.1100 H   0  0  0  0  0  0  0  0  0  0  0  0
    6.5456    0.0369    5.8777 H   0  0  0  0  0  0  0  0  0  0  0  0
    6.4748    1.7984    5.9677 H   0  0  0  0  0  0  0  0  0  0  0  0
  1  2  2  0  0  0  0 
  2  3  1  0  0  0  0 
  3  4  2  0  0  0  0 
  4  5  1  0  0  0  0 
  5  6  2  0  0  0  0 
  1  6  1  0  0  0  0 
  4  7  1  0  0  0  0 
  7  8  2  0  0  0  0 
  7  9  1  0  0  0  0 
  8 10  1  0  0  0  0 
  8 11  1  0  0  0  0 
 12 13  1  0  0  0  0 
 13 14  2  0  0  0  0 
 14 15  1  0  0  0  0 
 15 16  2  0  0  0  0 
 10 12  2  0  0  0  0 
 10 16  1  0  0  0  0 
 17 18  1  0  0  0  0 
 18 19  2  0  0  0  0 
 19 20  1  0  0  0  0 
 20 21  2  0  0  0  0 
 11 17  2  0  0  0  0 
 11 21  1  0  0  0  0 
 19 22  1  0  0  0  0 
 22 23  1  0  0  0  0 
 23 24  1  0  0  0  0 
 24 25  1  0  0  0  0 
 25 26  1  0  0  0  0 
 25 27  1  0  0  0  0 
  9 28  1  0  0  0  0 
 28 29  1  0  0  0  0 
  1 30  1  0  0  0  0 
  2 31  1  0  0  0  0 
  3 32  1  0  0  0  0 
  5 33  1  0  0  0  0 
  6 34  1  0  0  0  0 
  9 35  1  0  0  0  0 
  9 36  1  0  0  0  0 
 12 37  1  0  0  0  0 
 13 38  1  0  0  0  0 
 14 39  1  0  0  0  0 
 15 40  1  0  0  0  0 
 16 41  1  0  0  0  0 
 17 42  1  0  0  0  0 
 18 43  1  0  0  0  0 
 20 44  1  0  0  0  0 
 21 45  1  0  0  0  0 
 23 46  1  0  0  0  0 
 23 47  1  0  0  0  0 
 24 48  1  0  0  0  0 
 24 49  1  0  0  0  0 
 26 50  1  0  0  0  0 
 26 51  1  0  0  0  0 
 26 52  1  0  0  0  0 
 27 53  1  0  0  0  0 
 27 54  1  0  0  0  0 
 27 55  1  0  0  0  0 
 28 56  1  0  0  0  0 
 28 57  1  0  0  0  0 
M  END
> <cdk:Title>
toremifene

> <Conformer>
1

> <SuperDrugID>
SD002440

$$$$
