sparfloxacin
  CDK     0628171801

 50 53  0  0  0  0  0  0  0  0999 V2000
    0.2698    2.1316   -3.2982 F   0  0  0  0  0  0  0  0  0  0  0  0
    0.2527    3.1043   -2.4266 C   0  0  0  0  0  0  0  0  0  0  0  0
   -0.3640    4.3505   -2.7309 C   0  0  0  0  0  0  0  0  0  0  0  0
    0.8238    2.8391   -1.1657 C   0  0  0  0  0  0  0  0  0  0  0  0
   -0.6317    5.2487   -1.6457 C   0  0  0  0  0  0  0  0  0  0  0  0
   -0.7086    4.7100   -4.0225 N   0  0  0  0  0  0  0  0  0  0  0  0
    0.6676    3.7935   -0.1400 C   0  0  0  0  0  0  0  0  0  0  0  0
    1.5194    1.6669   -0.9460 N   0  0  0  0  0  0  0  0  0  0  0  0
   -1.4545    6.3795   -1.9171 C   0  0  0  0  0  0  0  0  0  0  0  0
   -0.0773    4.9738   -0.3566 C   0  0  0  0  0  0  0  0  0  0  0  0
   -1.5303    5.7787   -4.2479 C   0  0  0  0  0  0  0  0  0  0  0  0
   -0.2325    4.0201   -5.2119 C   0  0  1  0  0  0  0  0  0  0  0  0
    1.2281    3.5704    1.0236 F   0  0  0  0  0  0  0  0  0  0  0  0
    1.0591    0.6994    0.0244 C   0  0  1  0  0  0  0  0  0  0  0  0
    2.7204    1.3549   -1.6918 C   0  0  2  0  0  0  0  0  0  0  0  0
   -1.7711    7.1700   -0.9974 O   0  0  0  0  0  0  0  0  0  0  0  0
   -1.9553    6.6405   -3.2173 C   0  0  0  0  0  0  0  0  0  0  0  0
   -0.2015    5.8095    0.7094 N   0  0  0  0  0  0  0  0  0  0  0  0
    0.5275    4.8332   -6.2853 C   0  0  2  0  0  0  0  0  0  0  0  0
    1.2910    3.8444   -5.4100 C   0  0  1  0  0  0  0  0  0  0  0  0
    0.9247   -0.7047   -0.6327 C   0  0  2  0  0  0  0  0  0  0  0  0
    2.5988   -0.0458   -2.3632 C   0  0  2  0  0  0  0  0  0  0  0  0
   -2.8340    7.7266   -3.5276 C   0  0  0  0  0  0  0  0  0  0  0  0
    0.5665   -1.7877    0.4183 C   0  0  0  0  0  0  0  0  0  0  0  0
    2.1879   -1.0538   -1.3445 N   0  0  2  0  0  0  0  0  0  0  0  0
    3.9216   -0.4598   -3.0549 C   0  0  0  0  0  0  0  0  0  0  0  0
   -3.2526    7.9734   -4.7950 O   0  0  0  0  0  0  0  0  0  0  0  0
   -3.2837    8.5081   -2.6584 O   0  0  0  0  0  0  0  0  0  0  0  0
   -1.8435    5.9682   -5.2068 H   0  0  0  0  0  0  0  0  0  0  0  0
   -0.8505    3.2184   -5.6273 H   0  0  0  0  0  0  0  0  0  0  0  0
    1.7852    0.6539    0.8412 H   0  0  0  0  0  0  0  0  0  0  0  0
    0.0928    0.9818    0.4558 H   0  0  0  0  0  0  0  0  0  0  0  0
    3.5598    1.3451   -0.9927 H   0  0  0  0  0  0  0  0  0  0  0  0
    2.9465    2.1108   -2.4518 H   0  0  0  0  0  0  0  0  0  0  0  0
   -0.7105    6.6293    0.6521 H   0  0  0  0  0  0  0  0  0  0  0  0
    0.2307    5.5909    1.5500 H   0  0  0  0  0  0  0  0  0  0  0  0
    0.7616    5.8788   -6.0729 H   0  0  0  0  0  0  0  0  0  0  0  0
    0.4245    4.5108   -7.3233 H   0  0  0  0  0  0  0  0  0  0  0  0
    1.9430    4.2904   -4.6545 H   0  0  0  0  0  0  0  0  0  0  0  0
    1.6058    2.9233   -5.9059 H   0  0  0  0  0  0  0  0  0  0  0  0
    0.1094   -0.6703   -1.3633 H   0  0  0  0  0  0  0  0  0  0  0  0
    1.8304   -0.0099   -3.1412 H   0  0  0  0  0  0  0  0  0  0  0  0
    1.3425   -1.8576    1.1850 H   0  0  0  0  0  0  0  0  0  0  0  0
   -0.3813   -1.5439    0.9061 H   0  0  0  0  0  0  0  0  0  0  0  0
    0.4604   -2.7633   -0.0610 H   0  0  0  0  0  0  0  0  0  0  0  0
    2.0341   -1.9419   -1.8306 H   0  0  0  0  0  0  0  0  0  0  0  0
    4.1460    0.2270   -3.8753 H   0  0  0  0  0  0  0  0  0  0  0  0
    3.8342   -1.4669   -3.4668 H   0  0  0  0  0  0  0  0  0  0  0  0
    4.7545   -0.4423   -2.3483 H   0  0  0  0  0  0  0  0  0  0  0  0
   -3.8537    8.7253   -4.9766 H   0  0  0  0  0  0  0  0  0  0  0  0
  1  2  1  0  0  0  0 
  2  3  2  0  0  0  0 
  2  4  1  0  0  0  0 
  3  5  1  0  0  0  0 
  3  6  1  0  0  0  0 
  4  7  2  0  0  0  0 
  4  8  1  0  0  0  0 
  5  9  1  0  0  0  0 
  5 10  2  0  0  0  0 
  6 11  1  0  0  0  0 
  6 12  1  0  0  0  0 
  7 10  1  0  0  0  0 
  7 13  1  0  0  0  0 
  8 14  1  0  0  0  0 
  8 15  1  0  0  0  0 
  9 16  2  0  0  0  0 
  9 17  1  0  0  0  0 
 10 18  1  0  0  0  0 
 11 17  2  0  0  0  0 
 12 19  1  0  0  0  0 
 12 20  1  0  0  0  0 
 21 14  1  0  0  0  0 
 22 15  1  0  0  0  0 
 17 23  1  0  0  0  0 
 19 20  1  0  0  0  0 
 21 24  1  0  0  0  0 
 21 25  1  0  0  0  0 
 22 25  1  0  0  0  0 
 22 26  1  0  0  0  0 
 23 27  1  0  0  0  0 
 23 28  2  0  0  0  0 
 11 29  1  0  0  0  0 
 12 30  1  0  0  0  0 
 14 31  1  0  0  0  0 
 14 32  1  0  0  0  0 
 15 33  1  0  0  0  0 
 15 34  1  0  0  0  0 
 18 35  1  0  0  0  0 
 18 36  1  0  0  0  0 
 19 37  1  0  0  0  0 
 19 38  1  0  0  0  0 
 20 39  1  0  0  0  0 
 20 40  1  0  0  0  0 
 21 41  1  0  0  0  0 
 22 42  1  0  0  0  0 
 24 43  1  0  0  0  0 
 24 44  1  0  0  0  0 
 24 45  1  0  0  0  0 
 25 46  1  0  0  0  0 
 26 47  1  0  0  0  0 
 26 48  1  0  0  0  0 
 26 49  1  0  0  0  0 
 27 50  1  0  0  0  0 
M  END
> <cdk:Title>
sparfloxacin

> <Conformer>
1

> <SuperDrugID>
SD002214

$$$$
