delavirdine
  CDK     0628171802

 60 63  0  0  0  0  0  0  0  0999 V2000
    7.2078    5.4936    9.5158 N   0  0  0  0  0  0  0  0  0  0  0  0
    8.2292    6.5026    9.4246 C   0  0  1  0  0  0  0  0  0  0  0  0
    7.2791    4.2823   10.1512 C   0  0  0  0  0  0  0  0  0  0  0  0
    9.4838    5.9667    8.6807 C   0  0  0  0  0  0  0  0  0  0  0  0
    7.6397    7.7393    8.6990 C   0  0  0  0  0  0  0  0  0  0  0  0
    6.4955    3.1800    9.6923 C   0  0  0  0  0  0  0  0  0  0  0  0
    8.1053    4.0922   11.2870 C   0  0  0  0  0  0  0  0  0  0  0  0
    6.5817    2.0026   10.3760 N   0  0  0  0  0  0  0  0  0  0  0  0
    5.6564    3.2007    8.5866 N   0  0  0  0  0  0  0  0  0  0  0  0
    8.1489    2.8562   11.9505 C   0  0  0  0  0  0  0  0  0  0  0  0
    7.3637    1.8023   11.4647 C   0  0  0  0  0  0  0  0  0  0  0  0
    4.3639    2.5613    8.5927 C   0  0  1  0  0  0  0  0  0  0  0  0
    5.9994    3.8341    7.3393 C   0  0  1  0  0  0  0  0  0  0  0  0
    4.2954    1.4478    7.5147 C   0  0  1  0  0  0  0  0  0  0  0  0
    5.8173    2.8905    6.1166 C   0  0  2  0  0  0  0  0  0  0  0  0
    4.9015    1.7597    6.2369 N   0  0  0  0  0  0  0  0  0  0  0  0
    4.7198    0.9407    5.1139 C   0  0  0  0  0  0  0  0  0  0  0  0
    5.2149    1.3257    4.0241 O   0  0  0  0  0  0  0  0  0  0  0  0
    4.0758   -0.3345    5.0369 C   0  0  0  0  0  0  0  0  0  0  0  0
    3.9640   -1.0991    3.8636 C   0  0  0  0  0  0  0  0  0  0  0  0
    3.5276   -1.0751    6.0292 N   0  0  0  0  0  0  0  0  0  0  0  0
    3.4004   -2.3176    4.1975 C   0  0  0  0  0  0  0  0  0  0  0  0
    3.1191   -2.2656    5.5561 C   0  0  0  0  0  0  0  0  0  0  0  0
    3.1447   -3.4642    3.4271 C   0  0  0  0  0  0  0  0  0  0  0  0
    2.5268   -3.3618    6.2031 C   0  0  0  0  0  0  0  0  0  0  0  0
    2.5832   -4.6004    4.0659 C   0  0  0  0  0  0  0  0  0  0  0  0
    2.2554   -4.5235    5.4451 C   0  0  0  0  0  0  0  0  0  0  0  0
    2.3488   -5.7925    3.4479 N   0  0  0  0  0  0  0  0  0  0  0  0
    2.8387   -6.2633    1.8709 S   0  0  2  0  0  0  0  0  0  0  0  0
    4.6638   -6.3301    1.7615 C   0  0  0  0  0  0  0  0  0  0  0  0
    2.2506   -5.2527    0.7744 O   0  0  0  0  0  0  0  0  0  0  0  0
    2.2517   -7.7294    1.5870 O   0  0  0  0  0  0  0  0  0  0  0  0
    6.3928    5.6692    9.0206 H   0  0  0  0  0  0  0  0  0  0  0  0
    8.5230    6.8293   10.4264 H   0  0  0  0  0  0  0  0  0  0  0  0
    9.9890    5.1917    9.3361 H   0  0  0  0  0  0  0  0  0  0  0  0
    9.1789    5.6573    7.6327 H   0  0  0  0  0  0  0  0  0  0  0  0
   10.2042    6.7786    8.5680 H   0  0  0  0  0  0  0  0  0  0  0  0
    7.3427    7.4814    7.6795 H   0  0  0  0  0  0  0  0  0  0  0  0
    6.7629    8.1102    9.2344 H   0  0  0  0  0  0  0  0  0  0  0  0
    8.3783    8.5435    8.6556 H   0  0  0  0  0  0  0  0  0  0  0  0
    8.6807    4.8520   11.6543 H   0  0  0  0  0  0  0  0  0  0  0  0
    8.7418    2.7300   12.7744 H   0  0  0  0  0  0  0  0  0  0  0  0
    7.3760    0.8897   11.9236 H   0  0  0  0  0  0  0  0  0  0  0  0
    4.1097    2.1309    9.5662 H   0  0  0  0  0  0  0  0  0  0  0  0
    3.5997    3.3147    8.3762 H   0  0  0  0  0  0  0  0  0  0  0  0
    5.3597    4.7142    7.2178 H   0  0  0  0  0  0  0  0  0  0  0  0
    7.0331    4.1877    7.3246 H   0  0  0  0  0  0  0  0  0  0  0  0
    4.7877    0.5590    7.9163 H   0  0  0  0  0  0  0  0  0  0  0  0
    3.2357    1.2219    7.3704 H   0  0  0  0  0  0  0  0  0  0  0  0
    6.8030    2.4822    5.8697 H   0  0  0  0  0  0  0  0  0  0  0  0
    5.5075    3.5189    5.2751 H   0  0  0  0  0  0  0  0  0  0  0  0
    4.2669   -0.8279    2.9256 H   0  0  0  0  0  0  0  0  0  0  0  0
    3.4584   -0.8087    6.9576 H   0  0  0  0  0  0  0  0  0  0  0  0
    3.3837   -3.4641    2.4345 H   0  0  0  0  0  0  0  0  0  0  0  0
    2.3066   -3.3246    7.2003 H   0  0  0  0  0  0  0  0  0  0  0  0
    1.8239   -5.3247    5.9150 H   0  0  0  0  0  0  0  0  0  0  0  0
    1.8836   -6.4658    3.9690 H   0  0  0  0  0  0  0  0  0  0  0  0
    5.0417   -7.0762    2.4602 H   0  0  0  0  0  0  0  0  0  0  0  0
    4.9622   -6.5971    0.7476 H   0  0  0  0  0  0  0  0  0  0  0  0
    5.0900   -5.3610    2.0118 H   0  0  0  0  0  0  0  0  0  0  0  0
  1  2  1  0  0  0  0 
  1  3  1  0  0  0  0 
  2  4  1  0  0  0  0 
  2  5  1  0  0  0  0 
  3  6  2  0  0  0  0 
  3  7  1  0  0  0  0 
  6  8  1  0  0  0  0 
  6  9  1  0  0  0  0 
  7 10  2  0  0  0  0 
  8 11  2  0  0  0  0 
  9 12  1  0  0  0  0 
  9 13  1  0  0  0  0 
 10 11  1  0  0  0  0 
 12 14  1  0  0  0  0 
 13 15  1  0  0  0  0 
 14 16  1  0  0  0  0 
 15 16  1  0  0  0  0 
 16 17  1  0  0  0  0 
 17 18  2  0  0  0  0 
 17 19  1  0  0  0  0 
 19 20  2  0  0  0  0 
 19 21  1  0  0  0  0 
 20 22  1  0  0  0  0 
 21 23  1  0  0  0  0 
 22 23  1  0  0  0  0 
 22 24  2  0  0  0  0 
 23 25  2  0  0  0  0 
 24 26  1  0  0  0  0 
 25 27  1  0  0  0  0 
 26 27  2  0  0  0  0 
 26 28  1  0  0  0  0 
 28 29  1  0  0  0  0 
 29 30  1  0  0  0  0 
 29 31  2  0  0  0  0 
 29 32  2  0  0  0  0 
  1 33  1  0  0  0  0 
  2 34  1  0  0  0  0 
  4 35  1  0  0  0  0 
  4 36  1  0  0  0  0 
  4 37  1  0  0  0  0 
  5 38  1  0  0  0  0 
  5 39  1  0  0  0  0 
  5 40  1  0  0  0  0 
  7 41  1  0  0  0  0 
 10 42  1  0  0  0  0 
 11 43  1  0  0  0  0 
 12 44  1  0  0  0  0 
 12 45  1  0  0  0  0 
 13 46  1  0  0  0  0 
 13 47  1  0  0  0  0 
 14 48  1  0  0  0  0 
 14 49  1  0  0  0  0 
 15 50  1  0  0  0  0 
 15 51  1  0  0  0  0 
 20 52  1  0  0  0  0 
 21 53  1  0  0  0  0 
 24 54  1  0  0  0  0 
 25 55  1  0  0  0  0 
 27 56  1  0  0  0  0 
 28 57  1  0  0  0  0 
 30 58  1  0  0  0  0 
 30 59  1  0  0  0  0 
 30 60  1  0  0  0  0 
M  END
> <cdk:Title>
delavirdine

> <Conformer>
1

> <SuperDrugID>
SD000705

$$$$
