sulfasomizole
  CDK     0628171801

 28 29  0  0  0  0  0  0  0  0999 V2000
   -2.5678   -3.2954    0.6869 S   0  0  1  0  0  0  0  0  0  0  0  0
   -3.3301   -2.0433   -0.2027 N   0  0  0  0  0  0  0  0  0  0  0  0
   -2.1950   -2.7394    2.1459 O   0  0  0  0  0  0  0  0  0  0  0  0
   -3.5909   -4.5221    0.8474 O   0  0  0  0  0  0  0  0  0  0  0  0
   -1.1295   -3.8670   -0.1779 C   0  0  0  0  0  0  0  0  0  0  0  0
   -4.5227   -1.5012    0.1364 C   0  0  0  0  0  0  0  0  0  0  0  0
    0.0978   -4.0537    0.4922 C   0  0  0  0  0  0  0  0  0  0  0  0
   -1.2195   -4.1749   -1.5514 C   0  0  0  0  0  0  0  0  0  0  0  0
   -5.1108   -0.3991   -0.4829 C   0  0  0  0  0  0  0  0  0  0  0  0
   -5.6223   -1.9776    1.4126 S   0  0  0  0  0  0  0  0  0  0  0  0
    1.2159   -4.5619   -0.1986 C   0  0  0  0  0  0  0  0  0  0  0  0
   -0.1025   -4.6812   -2.2420 C   0  0  0  0  0  0  0  0  0  0  0  0
   -6.3361    0.0003    0.0834 C   0  0  0  0  0  0  0  0  0  0  0  0
   -6.7627   -0.7507    1.1216 N   0  0  0  0  0  0  0  0  0  0  0  0
    1.1140   -4.8931   -1.5649 C   0  0  0  0  0  0  0  0  0  0  0  0
   -7.1041    1.1603   -0.4034 C   0  0  0  0  0  0  0  0  0  0  0  0
    2.1617   -5.4259   -2.2231 N   0  0  0  0  0  0  0  0  0  0  0  0
   -2.8660   -1.6919   -0.9782 H   0  0  0  0  0  0  0  0  0  0  0  0
    0.1821   -3.8331    1.4869 H   0  0  0  0  0  0  0  0  0  0  0  0
   -2.1003   -4.0438   -2.0537 H   0  0  0  0  0  0  0  0  0  0  0  0
   -4.6794    0.0872   -1.2746 H   0  0  0  0  0  0  0  0  0  0  0  0
    2.0974   -4.6988    0.3024 H   0  0  0  0  0  0  0  0  0  0  0  0
   -0.1831   -4.9057   -3.2362 H   0  0  0  0  0  0  0  0  0  0  0  0
   -7.3944    1.0016   -1.4427 H   0  0  0  0  0  0  0  0  0  0  0  0
   -8.0069    1.3106    0.1919 H   0  0  0  0  0  0  0  0  0  0  0  0
   -6.4901    2.0594   -0.3350 H   0  0  0  0  0  0  0  0  0  0  0  0
    2.0744   -5.6593   -3.1608 H   0  0  0  0  0  0  0  0  0  0  0  0
    2.9988   -5.5912   -1.7617 H   0  0  0  0  0  0  0  0  0  0  0  0
  1  2  1  0  0  0  0 
  1  3  2  0  0  0  0 
  1  4  2  0  0  0  0 
  1  5  1  0  0  0  0 
  2  6  1  0  0  0  0 
  5  7  2  0  0  0  0 
  5  8  1  0  0  0  0 
  6  9  2  0  0  0  0 
  6 10  1  0  0  0  0 
  7 11  1  0  0  0  0 
  8 12  2  0  0  0  0 
  9 13  1  0  0  0  0 
 10 14  1  0  0  0  0 
 11 15  2  0  0  0  0 
 12 15  1  0  0  0  0 
 13 14  2  0  0  0  0 
 13 16  1  0  0  0  0 
 15 17  1  0  0  0  0 
  2 18  1  0  0  0  0 
  7 19  1  0  0  0  0 
  8 20  1  0  0  0  0 
  9 21  1  0  0  0  0 
 11 22  1  0  0  0  0 
 12 23  1  0  0  0  0 
 16 24  1  0  0  0  0 
 16 25  1  0  0  0  0 
 16 26  1  0  0  0  0 
 17 27  1  0  0  0  0 
 17 28  1  0  0  0  0 
M  END
> <cdk:Title>
sulfasomizole

> <Conformer>
1

> <SuperDrugID>
SD003271

$$$$
