cefdinir
  CDK     0628171802

 39 41  0  0  0  0  0  0  0  0999 V2000
   -2.5424   -3.6564    3.9318 C   0  0  0  0  0  0  0  0  0  0  0  0
   -1.8402   -4.4748    4.7538 O   0  0  0  0  0  0  0  0  0  0  0  0
   -3.3358   -2.8717    4.5020 O   0  0  0  0  0  0  0  0  0  0  0  0
   -2.4034   -3.6616    2.5333 C   0  0  0  0  0  0  0  0  0  0  0  0
   -2.6093   -2.4895    1.8908 N   0  0  0  0  0  0  0  0  0  0  0  0
   -2.0624   -4.7610    1.7978 C   0  0  0  0  0  0  0  0  0  0  0  0
   -2.9723   -2.2022    0.5469 C   0  0  1  0  0  0  0  0  0  0  0  0
   -2.4038   -1.2009    2.2022 C   0  0  0  0  0  0  0  0  0  0  0  0
   -1.8217   -5.9709    2.3732 C   0  0  0  0  0  0  0  0  0  0  0  0
   -1.9531   -4.7768    0.3235 C   0  0  2  0  0  0  0  0  0  0  0  0
   -2.7187   -0.6980    0.8677 C   0  0  1  0  0  0  0  0  0  0  0  0
   -1.8036   -3.1410   -0.4801 S   0  0  0  0  0  0  0  0  0  0  0  0
   -1.9925   -0.6240    3.2341 O   0  0  0  0  0  0  0  0  0  0  0  0
   -0.5826   -6.3839    2.6717 C   0  0  0  0  0  0  0  0  0  0  0  0
   -1.5757   -0.0927    0.2667 N   0  0  0  0  0  0  0  0  0  0  0  0
   -1.2498    1.2264    0.3614 C   0  0  0  0  0  0  0  0  0  0  0  0
    0.0101    1.7454   -0.2199 C   0  0  1  0  0  0  0  0  0  0  0  0
   -2.0167    2.0357    0.9379 O   0  0  0  0  0  0  0  0  0  0  0  0
    0.9793    0.7463   -0.3138 N   0  0  0  0  0  0  0  0  0  0  0  0
   -0.2965    2.3592   -1.5360 C   0  0  0  0  0  0  0  0  0  0  0  0
    2.0831    0.9385   -0.6437 O   0  0  0  0  0  0  0  0  0  0  0  0
   -0.2996    3.7468   -1.7560 C   0  0  0  0  0  0  0  0  0  0  0  0
   -0.6242    1.5982   -2.6216 N   0  0  0  0  0  0  0  0  0  0  0  0
   -0.7504    3.9646   -3.4354 S   0  0  0  0  0  0  0  0  0  0  0  0
   -0.9108    2.2489   -3.7677 C   0  0  0  0  0  0  0  0  0  0  0  0
   -1.2509    1.6725   -4.9291 N   0  0  0  0  0  0  0  0  0  0  0  0
   -1.9674   -4.4367    5.7272 H   0  0  0  0  0  0  0  0  0  0  0  0
   -4.0146   -2.4443    0.3221 H   0  0  0  0  0  0  0  0  0  0  0  0
   -2.5937   -6.5616    2.5745 H   0  0  0  0  0  0  0  0  0  0  0  0
   -2.8415   -5.2647   -0.0865 H   0  0  0  0  0  0  0  0  0  0  0  0
   -1.0798   -5.3473   -0.0046 H   0  0  0  0  0  0  0  0  0  0  0  0
   -3.6314   -0.0940    0.8434 H   0  0  0  0  0  0  0  0  0  0  0  0
    0.2132   -5.8151    2.4842 H   0  0  0  0  0  0  0  0  0  0  0  0
   -0.4423   -7.2705    3.0931 H   0  0  0  0  0  0  0  0  0  0  0  0
   -0.9636   -0.6706   -0.2130 H   0  0  0  0  0  0  0  0  0  0  0  0
    0.4018    2.5031    0.4699 H   0  0  0  0  0  0  0  0  0  0  0  0
   -0.1047    4.4856   -1.0792 H   0  0  0  0  0  0  0  0  0  0  0  0
   -1.2618    0.7051   -5.0020 H   0  0  0  0  0  0  0  0  0  0  0  0
   -1.4818    2.2172   -5.6975 H   0  0  0  0  0  0  0  0  0  0  0  0
  1  2  1  0  0  0  0 
  1  3  2  0  0  0  0 
  1  4  1  0  0  0  0 
  4  5  1  0  0  0  0 
  4  6  2  0  0  0  0 
  7  5  1  0  0  0  0 
  5  8  1  0  0  0  0 
  6  9  1  0  0  0  0 
  6 10  1  0  0  0  0 
  7 11  1  0  0  0  0 
  7 12  1  0  0  0  0 
 11  8  1  0  0  0  0 
  8 13  2  0  0  0  0 
  9 14  2  0  0  0  0 
 10 12  1  0  0  0  0 
 11 15  1  0  0  0  0 
 15 16  1  0  0  0  0 
 16 17  1  0  0  0  0 
 16 18  2  0  0  0  0 
 17 19  1  0  0  0  0 
 17 20  1  0  0  0  0 
 19 21  2  0  0  0  0 
 20 22  2  0  0  0  0 
 20 23  1  0  0  0  0 
 22 24  1  0  0  0  0 
 23 25  2  0  0  0  0 
 24 25  1  0  0  0  0 
 25 26  1  0  0  0  0 
 27  2  1  0  0  0  0 
  7 28  1  0  0  0  0 
 29  9  1  0  0  0  0 
 30 10  1  0  0  0  0 
 31 10  1  0  0  0  0 
 11 32  1  0  0  0  0 
 33 14  1  0  0  0  0 
 34 14  1  0  0  0  0 
 35 15  1  0  0  0  0 
 36 17  1  0  0  0  0 
 37 22  1  0  0  0  0 
 38 26  1  0  0  0  0 
 39 26  1  0  0  0  0 
M  END
> <cdk:Title>
cefdinir

> <Conformer>
1

> <SuperDrugID>
SD000461

$$$$
