baricitinib
  CDK     0628171802

 43 46  0  0  0  0  0  0  0  0999 V2000
   -2.9556    0.0460  -11.8704 C   0  0  0  0  0  0  0  0  0  0  0  0
   -1.8117    0.7799  -11.9393 N   0  0  0  0  0  0  0  0  0  0  0  0
   -1.1800    1.1331  -10.7927 C   0  0  0  0  0  0  0  0  0  0  0  0
   -1.6726    0.7534   -9.5435 C   0  0  0  0  0  0  0  0  0  0  0  0
   -2.8659    0.0003   -9.4726 C   0  0  0  0  0  0  0  0  0  0  0  0
   -3.4637   -0.3184  -10.6591 N   0  0  0  0  0  0  0  0  0  0  0  0
   -0.0651    1.8600  -10.6201 N   0  0  0  0  0  0  0  0  0  0  0  0
    0.1879    1.9602   -9.3034 C   0  0  0  0  0  0  0  0  0  0  0  0
   -0.8024    1.2832   -8.5960 C   0  0  0  0  0  0  0  0  0  0  0  0
   -3.4721   -0.4170   -8.2676 C   0  0  0  0  0  0  0  0  0  0  0  0
   -4.8325   -0.4577   -7.9960 C   0  0  0  0  0  0  0  0  0  0  0  0
   -5.0109   -0.9127   -6.7467 N   0  0  0  0  0  0  0  0  0  0  0  0
   -3.8558   -1.1700   -6.2041 N   0  0  0  0  0  0  0  0  0  0  0  0
   -2.8822   -0.8933   -7.1012 C   0  0  0  0  0  0  0  0  0  0  0  0
   -3.7137   -1.7230   -4.8701 C   0  0  1  0  0  0  0  0  0  0  0  0
   -3.9013   -3.2757   -4.8490 C   0  0  1  0  0  0  0  0  0  0  0  0
   -3.3086   -0.5306   -3.0981 N   0  0  2  0  0  0  0  0  0  0  0  0
   -2.4634   -1.2574   -4.0680 C   0  0  1  0  0  0  0  0  0  0  0  0
   -4.5399   -0.9621   -3.7941 C   0  0  2  0  0  0  0  0  0  0  0  0
   -3.0299    1.2189   -3.0351 S   0  0  2  0  0  0  0  0  0  0  0  0
   -3.2070    2.0147   -4.6781 C   0  0  2  0  0  0  0  0  0  0  0  0
   -2.8027    3.5017   -4.6503 C   0  0  0  0  0  0  0  0  0  0  0  0
   -1.5478    1.4588   -2.4723 O   0  0  0  0  0  0  0  0  0  0  0  0
   -4.0760    1.8562   -2.0011 O   0  0  0  0  0  0  0  0  0  0  0  0
   -5.1379   -3.6851   -5.2742 C   0  0  0  0  0  0  0  0  0  0  0  0
   -6.1748   -4.0302   -5.6286 N   0  0  0  0  0  0  0  0  0  0  0  0
   -3.4357   -0.2302  -12.7272 H   0  0  0  0  0  0  0  0  0  0  0  0
    0.4699    2.2536  -11.3285 H   0  0  0  0  0  0  0  0  0  0  0  0
    0.9794    2.4563   -8.8908 H   0  0  0  0  0  0  0  0  0  0  0  0
   -0.8705    1.2051   -7.5809 H   0  0  0  0  0  0  0  0  0  0  0  0
   -5.5813   -0.1773   -8.6322 H   0  0  0  0  0  0  0  0  0  0  0  0
   -1.8791   -1.0305   -6.9618 H   0  0  0  0  0  0  0  0  0  0  0  0
   -3.1493   -3.7330   -5.4944 H   0  0  0  0  0  0  0  0  0  0  0  0
   -3.7610   -3.6707   -3.8391 H   0  0  0  0  0  0  0  0  0  0  0  0
   -1.9258   -2.0667   -3.5668 H   0  0  0  0  0  0  0  0  0  0  0  0
   -1.7619   -0.6322   -4.6201 H   0  0  0  0  0  0  0  0  0  0  0  0
   -5.1355   -1.6146   -3.1505 H   0  0  0  0  0  0  0  0  0  0  0  0
   -5.1591   -0.1556   -4.1923 H   0  0  0  0  0  0  0  0  0  0  0  0
   -4.2439    1.9281   -5.0039 H   0  0  0  0  0  0  0  0  0  0  0  0
   -2.5750    1.4965   -5.3972 H   0  0  0  0  0  0  0  0  0  0  0  0
   -1.7491    3.6065   -4.3841 H   0  0  0  0  0  0  0  0  0  0  0  0
   -2.9551    3.9375   -5.6383 H   0  0  0  0  0  0  0  0  0  0  0  0
   -3.4083    4.0511   -3.9274 H   0  0  0  0  0  0  0  0  0  0  0  0
  1  2  1  0  0  0  0 
  1  6  2  0  0  0  0 
  2  3  2  0  0  0  0 
  3  4  1  0  0  0  0 
  4  5  2  0  0  0  0 
  5  6  1  0  0  0  0 
  7  8  1  0  0  0  0 
  8  9  2  0  0  0  0 
  3  7  1  0  0  0  0 
  4  9  1  0  0  0  0 
  5 10  1  0  0  0  0 
 11 12  2  0  0  0  0 
 12 13  1  0  0  0  0 
 13 14  1  0  0  0  0 
 10 11  1  0  0  0  0 
 10 14  2  0  0  0  0 
 13 15  1  0  0  0  0 
 15 16  1  0  0  0  0 
 17 18  1  0  0  0  0 
 19 17  1  0  0  0  0 
 18 15  1  0  0  0  0 
 15 19  1  0  0  0  0 
 17 20  1  0  0  0  0 
 20 21  1  0  0  0  0 
 21 22  1  0  0  0  0 
 20 23  2  0  0  0  0 
 20 24  2  0  0  0  0 
 16 25  1  0  0  0  0 
 25 26  3  0  0  0  0 
 27  1  1  0  0  0  0 
 28  7  1  0  0  0  0 
 29  8  1  0  0  0  0 
 30  9  1  0  0  0  0 
 31 11  1  0  0  0  0 
 32 14  1  0  0  0  0 
 33 16  1  0  0  0  0 
 34 16  1  0  0  0  0 
 35 18  1  0  0  0  0 
 36 18  1  0  0  0  0 
 37 19  1  0  0  0  0 
 38 19  1  0  0  0  0 
 39 21  1  0  0  0  0 
 40 21  1  0  0  0  0 
 41 22  1  0  0  0  0 
 42 22  1  0  0  0  0 
 43 22  1  0  0  0  0 
M  END
> <cdk:Title>
baricitinib

> <Conformer>
1

> <SuperDrugID>
SD003936

$$$$
