glimepiride
  CDK     0628171801

 68 70  0  0  0  0  0  0  0  0999 V2000
    1.5769   -1.0586   -9.2256 C   0  0  0  0  0  0  0  0  0  0  0  0
    0.2649   -1.0578   -8.8450 N   0  0  0  0  0  0  0  0  0  0  0  0
    2.4506   -1.4188   -8.3979 O   0  0  0  0  0  0  0  0  0  0  0  0
    1.9541   -0.6472  -10.4840 N   0  0  0  0  0  0  0  0  0  0  0  0
   -0.2064   -1.3158   -7.5186 C   0  0  1  0  0  0  0  0  0  0  0  0
    3.2226   -0.5662  -10.9594 C   0  0  0  0  0  0  0  0  0  0  0  0
    1.0575   -0.1978  -11.5006 C   0  0  1  0  0  0  0  0  0  0  0  0
    0.1317   -0.1565   -6.5361 C   0  0  2  0  0  0  0  0  0  0  0  0
    4.2631   -0.8818  -10.3336 O   0  0  0  0  0  0  0  0  0  0  0  0
    3.2211   -0.0580  -12.2290 C   0  0  0  0  0  0  0  0  0  0  0  0
    1.9467    0.1639  -12.5820 C   0  0  0  0  0  0  0  0  0  0  0  0
   -0.2984   -0.4231   -5.1337 C   0  0  0  0  0  0  0  0  0  0  0  0
    4.4301    0.2436  -12.9900 C   0  0  2  0  0  0  0  0  0  0  0  0
    1.4861    0.7334  -13.8374 C   0  0  0  0  0  0  0  0  0  0  0  0
    0.2667   -1.4906   -4.3962 C   0  0  0  0  0  0  0  0  0  0  0  0
   -1.2742    0.3814   -4.5009 C   0  0  0  0  0  0  0  0  0  0  0  0
    5.0051    1.6190  -12.5760 C   0  0  0  0  0  0  0  0  0  0  0  0
   -0.1700   -1.7785   -3.0882 C   0  0  0  0  0  0  0  0  0  0  0  0
   -1.7047    0.1018   -3.1905 C   0  0  0  0  0  0  0  0  0  0  0  0
   -1.1693   -0.9898   -2.4804 C   0  0  0  0  0  0  0  0  0  0  0  0
   -1.7771   -1.3637   -0.8557 S   0  0  1  0  0  0  0  0  0  0  0  0
   -1.0475   -0.3490    0.3221 N   0  0  0  0  0  0  0  0  0  0  0  0
   -3.3646   -1.1245   -0.8000 O   0  0  0  0  0  0  0  0  0  0  0  0
   -1.4959   -2.8986   -0.4790 O   0  0  0  0  0  0  0  0  0  0  0  0
   -1.2475   -0.4812    1.6561 C   0  0  0  0  0  0  0  0  0  0  0  0
   -0.6382    0.3985    2.4964 N   0  0  0  0  0  0  0  0  0  0  0  0
   -1.9721   -1.3993    2.1106 O   0  0  0  0  0  0  0  0  0  0  0  0
   -0.6698    0.3308    3.9304 C   0  0  1  0  0  0  0  0  0  0  0  0
    0.3353   -0.7534    4.4219 C   0  0  2  0  0  0  0  0  0  0  0  0
   -0.3300    1.7161    4.5504 C   0  0  1  0  0  0  0  0  0  0  0  0
    0.4583   -0.8080    5.9665 C   0  0  2  0  0  0  0  0  0  0  0  0
   -0.2645    1.6478    6.1015 C   0  0  2  0  0  0  0  0  0  0  0  0
    0.7777    0.5894    6.5788 C   0  0  1  0  0  0  0  0  0  0  0  0
    0.8736    0.5131    8.1263 C   0  0  0  0  0  0  0  0  0  0  0  0
   -0.4014   -0.8420   -9.5177 H   0  0  0  0  0  0  0  0  0  0  0  0
   -1.2916   -1.4320   -7.5733 H   0  0  0  0  0  0  0  0  0  0  0  0
    0.2113   -2.2631   -7.1656 H   0  0  0  0  0  0  0  0  0  0  0  0
    0.3709   -0.9948  -11.8019 H   0  0  0  0  0  0  0  0  0  0  0  0
    0.4984    0.6803  -11.1628 H   0  0  0  0  0  0  0  0  0  0  0  0
   -0.3371    0.7540   -6.9197 H   0  0  0  0  0  0  0  0  0  0  0  0
    1.2077    0.0211   -6.5314 H   0  0  0  0  0  0  0  0  0  0  0  0
    4.2325    0.2452  -14.0648 H   0  0  0  0  0  0  0  0  0  0  0  0
    5.1862   -0.5265  -12.8077 H   0  0  0  0  0  0  0  0  0  0  0  0
    1.8192    0.1192  -14.6754 H   0  0  0  0  0  0  0  0  0  0  0  0
    1.8836    1.7436  -13.9568 H   0  0  0  0  0  0  0  0  0  0  0  0
    0.3957    0.7886  -13.8718 H   0  0  0  0  0  0  0  0  0  0  0  0
    0.9976   -2.0741   -4.8103 H   0  0  0  0  0  0  0  0  0  0  0  0
   -1.6874    1.1770   -4.9912 H   0  0  0  0  0  0  0  0  0  0  0  0
    5.9252    1.8207  -13.1268 H   0  0  0  0  0  0  0  0  0  0  0  0
    4.2871    2.4131  -12.7942 H   0  0  0  0  0  0  0  0  0  0  0  0
    5.2324    1.6369  -11.5067 H   0  0  0  0  0  0  0  0  0  0  0  0
    0.2432   -2.5713   -2.5895 H   0  0  0  0  0  0  0  0  0  0  0  0
   -2.4175    0.6946   -2.7619 H   0  0  0  0  0  0  0  0  0  0  0  0
   -0.4664    0.3630    0.0135 H   0  0  0  0  0  0  0  0  0  0  0  0
   -0.1144    1.1095    2.0978 H   0  0  0  0  0  0  0  0  0  0  0  0
   -1.6790    0.0631    4.2619 H   0  0  0  0  0  0  0  0  0  0  0  0
    1.3235   -0.5533    3.9947 H   0  0  0  0  0  0  0  0  0  0  0  0
    0.0173   -1.7377    4.0690 H   0  0  0  0  0  0  0  0  0  0  0  0
    0.6337    2.0665    4.1686 H   0  0  0  0  0  0  0  0  0  0  0  0
   -1.0862    2.4485    4.2585 H   0  0  0  0  0  0  0  0  0  0  0  0
    1.2522   -1.5155    6.2252 H   0  0  0  0  0  0  0  0  0  0  0  0
   -0.4775   -1.1908    6.3826 H   0  0  0  0  0  0  0  0  0  0  0  0
   -1.2541    1.3962    6.4945 H   0  0  0  0  0  0  0  0  0  0  0  0
    0.0046    2.6349    6.4891 H   0  0  0  0  0  0  0  0  0  0  0  0
    1.7637    0.9018    6.2149 H   0  0  0  0  0  0  0  0  0  0  0  0
   -0.0733    0.1832    8.5571 H   0  0  0  0  0  0  0  0  0  0  0  0
    1.1253    1.4910    8.5407 H   0  0  0  0  0  0  0  0  0  0  0  0
    1.6549   -0.1916    8.4213 H   0  0  0  0  0  0  0  0  0  0  0  0
  1  2  1  0  0  0  0 
  1  3  2  0  0  0  0 
  1  4  1  0  0  0  0 
  2  5  1  0  0  0  0 
  4  6  1  0  0  0  0 
  4  7  1  0  0  0  0 
  5  8  1  0  0  0  0 
  6  9  2  0  0  0  0 
  6 10  1  0  0  0  0 
  7 11  1  0  0  0  0 
  8 12  1  0  0  0  0 
 10 11  2  0  0  0  0 
 10 13  1  0  0  0  0 
 11 14  1  0  0  0  0 
 12 15  2  0  0  0  0 
 12 16  1  0  0  0  0 
 13 17  1  0  0  0  0 
 15 18  1  0  0  0  0 
 16 19  2  0  0  0  0 
 18 20  2  0  0  0  0 
 19 20  1  0  0  0  0 
 20 21  1  0  0  0  0 
 21 22  1  0  0  0  0 
 21 23  2  0  0  0  0 
 21 24  2  0  0  0  0 
 22 25  1  0  0  0  0 
 25 26  1  0  0  0  0 
 25 27  2  0  0  0  0 
 28 26  1  0  0  0  0 
 28 29  1  0  0  0  0 
 28 30  1  0  0  0  0 
 29 31  1  0  0  0  0 
 30 32  1  0  0  0  0 
 33 31  1  0  0  0  0 
 33 32  1  0  0  0  0 
 33 34  1  0  0  0  0 
  2 35  1  0  0  0  0 
  5 36  1  0  0  0  0 
  5 37  1  0  0  0  0 
  7 38  1  0  0  0  0 
  7 39  1  0  0  0  0 
  8 40  1  0  0  0  0 
  8 41  1  0  0  0  0 
 13 42  1  0  0  0  0 
 13 43  1  0  0  0  0 
 14 44  1  0  0  0  0 
 14 45  1  0  0  0  0 
 14 46  1  0  0  0  0 
 15 47  1  0  0  0  0 
 16 48  1  0  0  0  0 
 17 49  1  0  0  0  0 
 17 50  1  0  0  0  0 
 17 51  1  0  0  0  0 
 18 52  1  0  0  0  0 
 19 53  1  0  0  0  0 
 22 54  1  0  0  0  0 
 26 55  1  0  0  0  0 
 28 56  1  0  0  0  0 
 29 57  1  0  0  0  0 
 29 58  1  0  0  0  0 
 30 59  1  0  0  0  0 
 30 60  1  0  0  0  0 
 31 61  1  0  0  0  0 
 31 62  1  0  0  0  0 
 32 63  1  0  0  0  0 
 32 64  1  0  0  0  0 
 33 65  1  0  0  0  0 
 34 66  1  0  0  0  0 
 34 67  1  0  0  0  0 
 34 68  1  0  0  0  0 
M  END
> <cdk:Title>
glimepiride

> <Conformer>
1

> <SuperDrugID>
SD001156

$$$$
