choline
  CDK     0628171801

 21 20  0  0  0  0  0  0  0  0999 V2000
   -2.4729   -1.2196    0.4395 C   0  0  0  0  0  0  0  0  0  0  0  0
   -1.9743   -0.2696    1.5023 N   0  0  1  0  0  0  0  0  0  0  0  0
   -3.1373    0.5947    1.9444 C   0  0  0  0  0  0  0  0  0  0  0  0
   -1.4960   -1.0598    2.6969 C   0  0  0  0  0  0  0  0  0  0  0  0
   -0.8734    0.6344    0.9619 C   0  0  2  0  0  0  0  0  0  0  0  0
    0.4375   -0.0196    0.4409 C   0  0  1  0  0  0  0  0  0  0  0  0
    1.3341    0.9876   -0.0184 O   0  0  0  0  0  0  0  0  0  0  0  0
   -1.7007   -1.9295    0.1351 H   0  0  0  0  0  0  0  0  0  0  0  0
   -2.8002   -0.6814   -0.4549 H   0  0  0  0  0  0  0  0  0  0  0  0
   -3.3218   -1.8109    0.7964 H   0  0  0  0  0  0  0  0  0  0  0  0
   -3.9605   -0.0057    2.3431 H   0  0  0  0  0  0  0  0  0  0  0  0
   -2.8401    1.2963    2.7290 H   0  0  0  0  0  0  0  0  0  0  0  0
   -3.5390    1.1820    1.1138 H   0  0  0  0  0  0  0  0  0  0  0  0
   -0.7089   -1.7673    2.4269 H   0  0  0  0  0  0  0  0  0  0  0  0
   -1.0989   -0.4032    3.4766 H   0  0  0  0  0  0  0  0  0  0  0  0
   -2.3070   -1.6450    3.1415 H   0  0  0  0  0  0  0  0  0  0  0  0
   -0.5740    1.3451    1.7417 H   0  0  0  0  0  0  0  0  0  0  0  0
   -1.2706    1.2312    0.1318 H   0  0  0  0  0  0  0  0  0  0  0  0
    0.9412   -0.5741    1.2340 H   0  0  0  0  0  0  0  0  0  0  0  0
    0.2357   -0.6895   -0.3963 H   0  0  0  0  0  0  0  0  0  0  0  0
    2.1269    0.4987   -0.3268 H   0  0  0  0  0  0  0  0  0  0  0  0
  1  2  1  0  0  0  0 
  2  3  1  0  0  0  0 
  2  4  1  0  0  0  0 
  2  5  1  0  0  0  0 
  5  6  1  0  0  0  0 
  6  7  1  0  0  0  0 
  1  8  1  0  0  0  0 
  1  9  1  0  0  0  0 
  1 10  1  0  0  0  0 
  3 11  1  0  0  0  0 
  3 12  1  0  0  0  0 
  3 13  1  0  0  0  0 
  4 14  1  0  0  0  0 
  4 15  1  0  0  0  0 
  4 16  1  0  0  0  0 
  5 17  1  0  0  0  0 
  5 18  1  0  0  0  0 
  6 19  1  0  0  0  0 
  6 20  1  0  0  0  0 
  7 21  1  0  0  0  0 
M  CHG  1   2   1
M  END
> <cdk:Title>
choline

> <Conformer>
1

> <SuperDrugID>
SD002688

$$$$
