luseogliflozin
  CDK     0628171802

 60 62  0  0  0  0  0  0  0  0999 V2000
   -0.6118    4.3929    7.6708 C   0  0  0  0  0  0  0  0  0  0  0  0
   -1.4943    4.4336    8.7673 C   0  0  0  0  0  0  0  0  0  0  0  0
   -2.8716    4.6456    8.5622 C   0  0  0  0  0  0  0  0  0  0  0  0
   -3.3560    4.8438    7.2567 C   0  0  0  0  0  0  0  0  0  0  0  0
   -2.4756    4.8034    6.1624 C   0  0  0  0  0  0  0  0  0  0  0  0
   -1.0928    4.5723    6.3507 C   0  0  0  0  0  0  0  0  0  0  0  0
   -0.1708    4.5006    5.1860 C   0  0  2  0  0  0  0  0  0  0  0  0
    0.3838    5.8405    4.8082 C   0  0  0  0  0  0  0  0  0  0  0  0
   -3.7259    4.6924    9.6271 O   0  0  0  0  0  0  0  0  0  0  0  0
   -0.1675    6.6954    3.8075 C   0  0  0  0  0  0  0  0  0  0  0  0
    0.5022    7.9012    3.5015 C   0  0  0  0  0  0  0  0  0  0  0  0
    1.6979    8.2831    4.1420 C   0  0  0  0  0  0  0  0  0  0  0  0
    2.2602    7.4415    5.1366 C   0  0  0  0  0  0  0  0  0  0  0  0
    1.5645    6.2561    5.4746 C   0  0  0  0  0  0  0  0  0  0  0  0
    3.6034    7.6913    5.7611 C   0  0  1  0  0  0  0  0  0  0  0  0
    4.7456    7.3497    4.7537 C   0  0  1  0  0  0  0  0  0  0  0  0
    6.1758    7.5610    5.3259 C   0  0  2  0  0  0  0  0  0  0  0  0
    6.4445    9.0257    5.7669 C   0  0  1  0  0  0  0  0  0  0  0  0
    5.5167    9.4866    6.9326 C   0  0  2  0  0  0  0  0  0  0  0  0
    3.7619    9.3805    6.4400 S   0  0  0  0  0  0  0  0  0  0  0  0
    2.3371    9.4292    3.7288 O   0  0  0  0  0  0  0  0  0  0  0  0
   -1.4081    6.4314    3.0221 C   0  0  0  0  0  0  0  0  0  0  0  0
   -4.2893    3.4102    9.9682 C   0  0  1  0  0  0  0  0  0  0  0  0
   -5.1584    3.5903   11.2262 C   0  0  0  0  0  0  0  0  0  0  0  0
    1.6281   10.6540    4.0035 C   0  0  0  0  0  0  0  0  0  0  0  0
    5.8228   10.9305    7.4181 C   0  0  1  0  0  0  0  0  0  0  0  0
    5.7490   11.8788    6.3560 O   0  0  0  0  0  0  0  0  0  0  0  0
    7.8131    9.1338    6.1581 O   0  0  0  0  0  0  0  0  0  0  0  0
    7.1317    7.1872    4.3311 O   0  0  0  0  0  0  0  0  0  0  0  0
    4.6479    5.9758    4.3633 O   0  0  0  0  0  0  0  0  0  0  0  0
    0.3844    4.2257    7.8433 H   0  0  0  0  0  0  0  0  0  0  0  0
   -1.1345    4.3062    9.7170 H   0  0  0  0  0  0  0  0  0  0  0  0
   -4.3515    5.0151    7.1055 H   0  0  0  0  0  0  0  0  0  0  0  0
   -2.8582    4.9364    5.2264 H   0  0  0  0  0  0  0  0  0  0  0  0
   -0.6656    4.0102    4.3488 H   0  0  0  0  0  0  0  0  0  0  0  0
    0.6536    3.8189    5.4212 H   0  0  0  0  0  0  0  0  0  0  0  0
    0.1218    8.5129    2.7752 H   0  0  0  0  0  0  0  0  0  0  0  0
    1.9567    5.6507    6.2037 H   0  0  0  0  0  0  0  0  0  0  0  0
    3.7365    7.0368    6.6277 H   0  0  0  0  0  0  0  0  0  0  0  0
    4.6366    7.9588    3.8523 H   0  0  0  0  0  0  0  0  0  0  0  0
    6.3234    6.8958    6.1817 H   0  0  0  0  0  0  0  0  0  0  0  0
    6.3018    9.6816    4.9010 H   0  0  0  0  0  0  0  0  0  0  0  0
    5.6516    8.8078    7.7787 H   0  0  0  0  0  0  0  0  0  0  0  0
   -2.1616    7.1890    3.2557 H   0  0  0  0  0  0  0  0  0  0  0  0
   -1.8509    5.4593    3.2002 H   0  0  0  0  0  0  0  0  0  0  0  0
   -1.1859    6.4830    1.9531 H   0  0  0  0  0  0  0  0  0  0  0  0
   -4.9161    3.0286    9.1551 H   0  0  0  0  0  0  0  0  0  0  0  0
   -3.5039    2.6788   10.1863 H   0  0  0  0  0  0  0  0  0  0  0  0
   -4.5516    3.9979   12.0374 H   0  0  0  0  0  0  0  0  0  0  0  0
   -5.5735    2.6315   11.5443 H   0  0  0  0  0  0  0  0  0  0  0  0
   -5.9805    4.2786   11.0173 H   0  0  0  0  0  0  0  0  0  0  0  0
    2.2771   11.4882    3.7393 H   0  0  0  0  0  0  0  0  0  0  0  0
    0.7218   10.7327    3.3972 H   0  0  0  0  0  0  0  0  0  0  0  0
    1.3614   10.7384    5.0598 H   0  0  0  0  0  0  0  0  0  0  0  0
    5.1159   11.2248    8.1979 H   0  0  0  0  0  0  0  0  0  0  0  0
    6.8249   10.9775    7.8473 H   0  0  0  0  0  0  0  0  0  0  0  0
    6.0241   12.7284    6.7599 H   0  0  0  0  0  0  0  0  0  0  0  0
    7.9772   10.0976    6.2320 H   0  0  0  0  0  0  0  0  0  0  0  0
    6.9713    7.7995    3.5819 H   0  0  0  0  0  0  0  0  0  0  0  0
    3.7740    5.8876    3.9292 H   0  0  0  0  0  0  0  0  0  0  0  0
  1  2  2  0  0  0  0 
  1  6  1  0  0  0  0 
  2  3  1  0  0  0  0 
  3  4  2  0  0  0  0 
  4  5  1  0  0  0  0 
  5  6  2  0  0  0  0 
  6  7  1  0  0  0  0 
  7  8  1  0  0  0  0 
  3  9  1  0  0  0  0 
 10 11  1  0  0  0  0 
 11 12  2  0  0  0  0 
 12 13  1  0  0  0  0 
 13 14  2  0  0  0  0 
  8 10  2  0  0  0  0 
  8 14  1  0  0  0  0 
 15 13  1  0  0  0  0 
 16 17  1  0  0  0  0 
 17 18  1  0  0  0  0 
 18 19  1  0  0  0  0 
 19 20  1  0  0  0  0 
 15 16  1  0  0  0  0 
 15 20  1  0  0  0  0 
 12 21  1  0  0  0  0 
 10 22  1  0  0  0  0 
  9 23  1  0  0  0  0 
 23 24  1  0  0  0  0 
 21 25  1  0  0  0  0 
 19 26  1  0  0  0  0 
 26 27  1  0  0  0  0 
 18 28  1  0  0  0  0 
 17 29  1  0  0  0  0 
 16 30  1  0  0  0  0 
  1 31  1  0  0  0  0 
  2 32  1  0  0  0  0 
  4 33  1  0  0  0  0 
  5 34  1  0  0  0  0 
  7 35  1  0  0  0  0 
  7 36  1  0  0  0  0 
 11 37  1  0  0  0  0 
 14 38  1  0  0  0  0 
 15 39  1  0  0  0  0 
 16 40  1  0  0  0  0 
 17 41  1  0  0  0  0 
 18 42  1  0  0  0  0 
 19 43  1  0  0  0  0 
 22 44  1  0  0  0  0 
 22 45  1  0  0  0  0 
 22 46  1  0  0  0  0 
 23 47  1  0  0  0  0 
 23 48  1  0  0  0  0 
 24 49  1  0  0  0  0 
 24 50  1  0  0  0  0 
 24 51  1  0  0  0  0 
 25 52  1  0  0  0  0 
 25 53  1  0  0  0  0 
 25 54  1  0  0  0  0 
 26 55  1  0  0  0  0 
 26 56  1  0  0  0  0 
 27 57  1  0  0  0  0 
 28 58  1  0  0  0  0 
 29 59  1  0  0  0  0 
 30 60  1  0  0  0  0 
M  END
> <cdk:Title>
luseogliflozin

> <Conformer>
1

> <SuperDrugID>
SD003829

$$$$
