hydroquinidine
  CDK     0628171802

 50 53  0  0  0  0  0  0  0  0999 V2000
    2.7811    2.5126    0.1015 C   0  0  1  0  0  0  0  0  0  0  0  0
    2.5502    3.0071    1.4222 O   0  0  0  0  0  0  0  0  0  0  0  0
    3.6044    3.5193   -0.6580 C   0  0  0  0  0  0  0  0  0  0  0  0
    3.4627    1.1033    0.1643 C   0  0  2  0  0  0  0  0  0  0  0  0
    3.2876    4.0490   -1.9504 C   0  0  0  0  0  0  0  0  0  0  0  0
    4.7948    3.9676   -0.0287 C   0  0  0  0  0  0  0  0  0  0  0  0
    3.6707    0.4925   -1.2073 N   0  0  2  0  0  0  0  0  0  0  0  0
    2.7622    0.0584    1.1135 C   0  0  2  0  0  0  0  0  0  0  0  0
    4.1965    4.9833   -2.5387 C   0  0  0  0  0  0  0  0  0  0  0  0
    2.1381    3.7088   -2.7115 C   0  0  0  0  0  0  0  0  0  0  0  0
    5.6304    4.9050   -0.6513 C   0  0  0  0  0  0  0  0  0  0  0  0
    2.3794   -0.0268   -1.7932 C   0  0  2  0  0  0  0  0  0  0  0  0
    4.6295   -0.6636   -1.0816 C   0  0  1  0  0  0  0  0  0  0  0  0
    2.6353   -1.3187    0.3782 C   0  0  1  0  0  0  0  0  0  0  0  0
    3.9733    5.5180   -3.8221 C   0  0  0  0  0  0  0  0  0  0  0  0
    5.3125    5.3751   -1.8759 N   0  0  0  0  0  0  0  0  0  0  0  0
    1.9133    4.2374   -4.0014 C   0  0  0  0  0  0  0  0  0  0  0  0
    1.7353   -1.1513   -0.8979 C   0  0  1  0  0  0  0  0  0  0  0  0
    4.0650   -1.7450   -0.0981 C   0  0  1  0  0  0  0  0  0  0  0  0
    2.8373    5.1405   -4.5538 C   0  0  0  0  0  0  0  0  0  0  0  0
    0.8320    3.8505   -4.7508 O   0  0  0  0  0  0  0  0  0  0  0  0
    0.2205   -0.9415   -0.5650 C   0  0  1  0  0  0  0  0  0  0  0  0
   -0.3901    4.5225   -4.3994 C   0  0  0  0  0  0  0  0  0  0  0  0
   -0.7128   -1.0123   -1.7954 C   0  0  0  0  0  0  0  0  0  0  0  0
    4.4535    1.2828    0.6010 H   0  0  0  0  0  0  0  0  0  0  0  0
    1.7850    2.4000   -0.3132 H   0  0  0  0  0  0  0  0  0  0  0  0
    2.1078    3.8745    1.2915 H   0  0  0  0  0  0  0  0  0  0  0  0
    5.0678    3.6201    0.8935 H   0  0  0  0  0  0  0  0  0  0  0  0
    1.7774    0.4063    1.4297 H   0  0  0  0  0  0  0  0  0  0  0  0
    3.3534   -0.0721    2.0260 H   0  0  0  0  0  0  0  0  0  0  0  0
    1.4364    3.0682   -2.3531 H   0  0  0  0  0  0  0  0  0  0  0  0
    6.4814    5.2327   -0.1889 H   0  0  0  0  0  0  0  0  0  0  0  0
    2.5772   -0.4180   -2.7969 H   0  0  0  0  0  0  0  0  0  0  0  0
    1.6837    0.7962   -1.9330 H   0  0  0  0  0  0  0  0  0  0  0  0
    4.8115   -1.1039   -2.0660 H   0  0  0  0  0  0  0  0  0  0  0  0
    5.6013   -0.3095   -0.7260 H   0  0  0  0  0  0  0  0  0  0  0  0
    2.2233   -2.0793    1.0489 H   0  0  0  0  0  0  0  0  0  0  0  0
    4.6397    6.1771   -4.2359 H   0  0  0  0  0  0  0  0  0  0  0  0
    1.7893   -2.0955   -1.4499 H   0  0  0  0  0  0  0  0  0  0  0  0
    4.0235   -2.7192   -0.5951 H   0  0  0  0  0  0  0  0  0  0  0  0
    4.7225   -1.8476    0.7694 H   0  0  0  0  0  0  0  0  0  0  0  0
    2.6878    5.5182   -5.4928 H   0  0  0  0  0  0  0  0  0  0  0  0
   -0.0995   -1.7178    0.1348 H   0  0  0  0  0  0  0  0  0  0  0  0
    0.0617    0.0202   -0.0742 H   0  0  0  0  0  0  0  0  0  0  0  0
   -1.1631    4.2063   -5.1004 H   0  0  0  0  0  0  0  0  0  0  0  0
   -0.7150    4.2494   -3.3927 H   0  0  0  0  0  0  0  0  0  0  0  0
   -0.2893    5.6087   -4.4707 H   0  0  0  0  0  0  0  0  0  0  0  0
   -1.7531   -0.8928   -1.4814 H   0  0  0  0  0  0  0  0  0  0  0  0
   -0.6055   -1.9800   -2.2895 H   0  0  0  0  0  0  0  0  0  0  0  0
   -0.4755   -0.2198   -2.5055 H   0  0  0  0  0  0  0  0  0  0  0  0
  1  2  1  0  0  0  0 
  1  3  1  0  0  0  0 
  4  1  1  0  0  0  0 
  3  5  2  0  0  0  0 
  3  6  1  0  0  0  0 
  7  4  1  0  0  0  0 
  4  8  1  0  0  0  0 
  4 25  1  0  0  0  0 
  5  9  1  0  0  0  0 
  5 10  1  0  0  0  0 
  6 11  2  0  0  0  0 
  7 12  1  0  0  0  0 
  7 13  1  0  0  0  0 
 14  8  1  0  0  0  0 
  9 15  1  0  0  0  0 
  9 16  2  0  0  0  0 
 10 17  2  0  0  0  0 
 11 16  1  0  0  0  0 
 18 12  1  0  0  0  0 
 13 19  1  0  0  0  0 
 14 18  1  0  0  0  0 
 14 19  1  0  0  0  0 
 15 20  2  0  0  0  0 
 17 20  1  0  0  0  0 
 17 21  1  0  0  0  0 
 18 22  1  0  0  0  0 
 21 23  1  0  0  0  0 
 22 24  1  0  0  0  0 
  1 26  1  0  0  0  0 
  2 27  1  0  0  0  0 
  6 28  1  0  0  0  0 
  8 29  1  0  0  0  0 
  8 30  1  0  0  0  0 
 10 31  1  0  0  0  0 
 11 32  1  0  0  0  0 
 12 33  1  0  0  0  0 
 12 34  1  0  0  0  0 
 13 35  1  0  0  0  0 
 13 36  1  0  0  0  0 
 14 37  1  0  0  0  0 
 15 38  1  0  0  0  0 
 18 39  1  0  0  0  0 
 19 40  1  0  0  0  0 
 19 41  1  0  0  0  0 
 20 42  1  0  0  0  0 
 22 43  1  0  0  0  0 
 22 44  1  0  0  0  0 
 23 45  1  0  0  0  0 
 23 46  1  0  0  0  0 
 23 47  1  0  0  0  0 
 24 48  1  0  0  0  0 
 24 49  1  0  0  0  0 
 24 50  1  0  0  0  0 
M  END
> <cdk:Title>
hydroquinidine

> <Conformer>
1

> <SuperDrugID>
SD000791

$$$$
