cefpodoxime proxetil
  CDK     0628171802

 64 66  0  0  0  0  0  0  0  0999 V2000
   -4.3430   -1.4877   -1.4859 C   0  0  0  0  0  0  0  0  0  0  0  0
   -4.3211   -2.4276   -2.4772 O   0  0  0  0  0  0  0  0  0  0  0  0
   -3.2739   -1.1165   -0.9435 O   0  0  0  0  0  0  0  0  0  0  0  0
   -5.5396   -0.9034   -1.0824 C   0  0  0  0  0  0  0  0  0  0  0  0
   -3.1792   -3.1897   -2.8879 C   0  0  1  0  0  0  0  0  0  0  0  0
   -5.5635    0.4398   -1.0292 N   0  0  0  0  0  0  0  0  0  0  0  0
   -6.6488   -1.6169   -0.7318 C   0  0  0  0  0  0  0  0  0  0  0  0
   -2.8586   -4.0799   -1.8052 O   0  0  0  0  0  0  0  0  0  0  0  0
   -3.5358   -4.0187   -4.1353 C   0  0  0  0  0  0  0  0  0  0  0  0
   -6.3608    1.3315   -0.2653 C   0  0  1  0  0  0  0  0  0  0  0  0
   -4.9611    1.4110   -1.7252 C   0  0  0  0  0  0  0  0  0  0  0  0
   -6.6678   -3.0866   -0.7493 C   0  0  2  0  0  0  0  0  0  0  0  0
   -7.9120   -0.9767   -0.3071 C   0  0  2  0  0  0  0  0  0  0  0  0
   -1.7012   -4.1627   -1.0930 C   0  0  0  0  0  0  0  0  0  0  0  0
   -5.6902    2.4900   -1.0595 C   0  0  1  0  0  0  0  0  0  0  0  0
   -8.0696    0.8196   -0.6219 S   0  0  0  0  0  0  0  0  0  0  0  0
   -4.1101    1.4057   -2.6437 O   0  0  0  0  0  0  0  0  0  0  0  0
   -6.9328   -3.5118   -2.1000 O   0  0  0  0  0  0  0  0  0  0  0  0
   -1.6856   -5.0579   -0.0636 O   0  0  0  0  0  0  0  0  0  0  0  0
   -0.7066   -3.4534   -1.3743 O   0  0  0  0  0  0  0  0  0  0  0  0
   -6.5711    3.2359   -1.8943 N   0  0  0  0  0  0  0  0  0  0  0  0
   -6.9224   -4.9363   -2.2956 C   0  0  0  0  0  0  0  0  0  0  0  0
   -0.6072   -5.3879    0.8271 C   0  0  1  0  0  0  0  0  0  0  0  0
   -6.1743    4.1153   -2.8510 C   0  0  0  0  0  0  0  0  0  0  0  0
   -0.1738   -4.1811    1.6979 C   0  0  0  0  0  0  0  0  0  0  0  0
   -1.0723   -6.5768    1.7052 C   0  0  0  0  0  0  0  0  0  0  0  0
   -7.1222    4.7466   -3.6507 C   0  0  0  0  0  0  0  0  0  0  0  0
   -4.9558    4.3647   -3.0157 O   0  0  0  0  0  0  0  0  0  0  0  0
   -7.0330    6.0080   -3.9052 N   0  0  0  0  0  0  0  0  0  0  0  0
   -8.1991    4.0272   -4.1808 C   0  0  0  0  0  0  0  0  0  0  0  0
   -6.1326    6.8113   -3.4714 O   0  0  0  0  0  0  0  0  0  0  0  0
   -8.1937    2.6580   -4.2442 N   0  0  0  0  0  0  0  0  0  0  0  0
   -9.3774    4.6169   -4.6767 C   0  0  0  0  0  0  0  0  0  0  0  0
   -6.3504    8.1376   -3.9665 C   0  0  0  0  0  0  0  0  0  0  0  0
   -9.2799    2.0401   -4.7524 C   0  0  0  0  0  0  0  0  0  0  0  0
  -10.4155    3.3012   -5.1891 S   0  0  0  0  0  0  0  0  0  0  0  0
   -9.4623    0.6900   -4.8941 N   0  0  0  0  0  0  0  0  0  0  0  0
   -6.1162    1.3125    0.8003 H   0  0  0  0  0  0  0  0  0  0  0  0
   -2.3504   -2.5175   -3.1389 H   0  0  0  0  0  0  0  0  0  0  0  0
   -2.6873   -4.6417   -4.4230 H   0  0  0  0  0  0  0  0  0  0  0  0
   -4.3877   -4.6657   -3.9269 H   0  0  0  0  0  0  0  0  0  0  0  0
   -3.7879   -3.3596   -4.9679 H   0  0  0  0  0  0  0  0  0  0  0  0
   -7.4395   -3.4826   -0.0810 H   0  0  0  0  0  0  0  0  0  0  0  0
   -5.7171   -3.4901   -0.3878 H   0  0  0  0  0  0  0  0  0  0  0  0
   -8.0233   -1.1242    0.7695 H   0  0  0  0  0  0  0  0  0  0  0  0
   -8.7614   -1.4485   -0.8067 H   0  0  0  0  0  0  0  0  0  0  0  0
   -5.0335    3.1103   -0.4443 H   0  0  0  0  0  0  0  0  0  0  0  0
   -7.5256    3.1060   -1.7728 H   0  0  0  0  0  0  0  0  0  0  0  0
   -7.7158   -5.4206   -1.7219 H   0  0  0  0  0  0  0  0  0  0  0  0
   -7.0998   -5.1295   -3.3538 H   0  0  0  0  0  0  0  0  0  0  0  0
   -5.9571   -5.3703   -2.0244 H   0  0  0  0  0  0  0  0  0  0  0  0
    0.2481   -5.7154    0.2303 H   0  0  0  0  0  0  0  0  0  0  0  0
    0.6382   -4.4663    2.3712 H   0  0  0  0  0  0  0  0  0  0  0  0
    0.1877   -3.3659    1.0705 H   0  0  0  0  0  0  0  0  0  0  0  0
   -1.0158   -3.8199    2.2921 H   0  0  0  0  0  0  0  0  0  0  0  0
   -0.2677   -6.9155    2.3606 H   0  0  0  0  0  0  0  0  0  0  0  0
   -1.3684   -7.4123    1.0679 H   0  0  0  0  0  0  0  0  0  0  0  0
   -1.9280   -6.2935    2.3225 H   0  0  0  0  0  0  0  0  0  0  0  0
   -9.6014    5.6116   -4.7238 H   0  0  0  0  0  0  0  0  0  0  0  0
   -5.5929    8.7951   -3.5368 H   0  0  0  0  0  0  0  0  0  0  0  0
   -6.2478    8.1660   -5.0544 H   0  0  0  0  0  0  0  0  0  0  0  0
   -7.3345    8.5171   -3.6765 H   0  0  0  0  0  0  0  0  0  0  0  0
   -8.7622    0.0492   -4.6361 H   0  0  0  0  0  0  0  0  0  0  0  0
  -10.2995    0.3263   -5.2593 H   0  0  0  0  0  0  0  0  0  0  0  0
  1  2  1  0  0  0  0 
  1  3  2  0  0  0  0 
  1  4  1  0  0  0  0 
  2  5  1  0  0  0  0 
  4  6  1  0  0  0  0 
  4  7  2  0  0  0  0 
  5  8  1  0  0  0  0 
  5  9  1  0  0  0  0 
 10  6  1  0  0  0  0 
  6 11  1  0  0  0  0 
  7 12  1  0  0  0  0 
  7 13  1  0  0  0  0 
  8 14  1  0  0  0  0 
 15 10  1  0  0  0  0 
 10 16  1  0  0  0  0 
 10 38  1  0  0  0  0 
 15 11  1  0  0  0  0 
 11 17  2  0  0  0  0 
 12 18  1  0  0  0  0 
 13 16  1  0  0  0  0 
 14 19  1  0  0  0  0 
 14 20  2  0  0  0  0 
 15 21  1  0  0  0  0 
 18 22  1  0  0  0  0 
 19 23  1  0  0  0  0 
 21 24  1  0  0  0  0 
 23 25  1  0  0  0  0 
 23 26  1  0  0  0  0 
 24 27  1  0  0  0  0 
 24 28  2  0  0  0  0 
 27 29  2  0  0  0  0 
 27 30  1  0  0  0  0 
 29 31  1  0  0  0  0 
 30 32  1  0  0  0  0 
 30 33  2  0  0  0  0 
 31 34  1  0  0  0  0 
 32 35  2  0  0  0  0 
 33 36  1  0  0  0  0 
 35 36  1  0  0  0  0 
 35 37  1  0  0  0  0 
  5 39  1  0  0  0  0 
  9 40  1  0  0  0  0 
  9 41  1  0  0  0  0 
  9 42  1  0  0  0  0 
 12 43  1  0  0  0  0 
 12 44  1  0  0  0  0 
 13 45  1  0  0  0  0 
 13 46  1  0  0  0  0 
 15 47  1  0  0  0  0 
 21 48  1  0  0  0  0 
 22 49  1  0  0  0  0 
 22 50  1  0  0  0  0 
 22 51  1  0  0  0  0 
 23 52  1  0  0  0  0 
 25 53  1  0  0  0  0 
 25 54  1  0  0  0  0 
 25 55  1  0  0  0  0 
 26 56  1  0  0  0  0 
 26 57  1  0  0  0  0 
 26 58  1  0  0  0  0 
 33 59  1  0  0  0  0 
 34 60  1  0  0  0  0 
 34 61  1  0  0  0  0 
 34 62  1  0  0  0  0 
 37 63  1  0  0  0  0 
 37 64  1  0  0  0  0 
M  END
> <cdk:Title>
cefpodoxime proxetil

> <Conformer>
1

> <SuperDrugID>
SD000482

$$$$
