clobetasone butyrate
  CDK     0628171801

 65 68  0  0  0  0  0  0  0  0999 V2000
   -1.4572    2.8073   -0.0575 O   0  0  0  0  0  0  0  0  0  0  0  0
   -0.7625    3.6829    0.7336 C   0  0  0  0  0  0  0  0  0  0  0  0
   -1.0621    2.0319   -1.2247 C   0  0  1  0  0  0  0  0  0  0  0  0
   -1.4896    4.3979    1.8043 C   0  0  2  0  0  0  0  0  0  0  0  0
    0.4551    3.9103    0.5383 O   0  0  0  0  0  0  0  0  0  0  0  0
    0.0387    1.0860   -0.8128 C   0  0  0  0  0  0  0  0  0  0  0  0
   -2.3572    1.2606   -1.7160 C   0  0  2  0  0  0  0  0  0  0  0  0
   -0.7941    3.0771   -2.4014 C   0  0  1  0  0  0  0  0  0  0  0  0
   -0.9088    4.1640    3.2232 C   0  0  1  0  0  0  0  0  0  0  0  0
    0.1326    0.4495    0.5217 C   0  0  2  0  0  0  0  0  0  0  0  0
    0.8735    0.6703   -1.6500 O   0  0  0  0  0  0  0  0  0  0  0  0
   -1.9960    0.0866   -2.7153 C   0  0  0  0  0  0  0  0  0  0  0  0
   -3.1431    2.4398   -2.3862 C   0  0  1  0  0  0  0  0  0  0  0  0
   -3.2821    0.6455   -0.6034 C   0  0  2  0  0  0  0  0  0  0  0  0
    0.4807    2.9450   -3.2849 C   0  0  0  0  0  0  0  0  0  0  0  0
   -2.0840    3.1092   -3.2808 C   0  0  1  0  0  0  0  0  0  0  0  0
   -1.5787    5.1885    4.3183 C   0  0  0  0  0  0  0  0  0  0  0  0
    1.6999    0.7707    1.2560 Cl  0  0  0  0  0  0  0  0  0  0  0  0
   -4.5273    2.0182   -2.9885 C   0  0  1  0  0  0  0  0  0  0  0  0
   -4.6176    0.2925   -1.1671 C   0  0  0  0  0  0  0  0  0  0  0  0
   -5.4301    1.3489   -1.8699 C   0  0  1  0  0  0  0  0  0  0  0  0
   -5.2598    3.2223   -3.6542 C   0  0  1  0  0  0  0  0  0  0  0  0
   -4.9907   -0.8993   -1.0711 O   0  0  0  0  0  0  0  0  0  0  0  0
   -5.6536    2.2956   -0.8772 F   0  0  0  0  0  0  0  0  0  0  0  0
   -6.8725    0.9563   -2.4326 C   0  0  2  0  0  0  0  0  0  0  0  0
   -6.6994    2.8810   -4.1147 C   0  0  2  0  0  0  0  0  0  0  0  0
   -6.8448   -0.1864   -3.5133 C   0  0  0  0  0  0  0  0  0  0  0  0
   -7.4481    2.2020   -3.0484 C   0  0  0  0  0  0  0  0  0  0  0  0
   -7.7150    0.4398   -1.3214 C   0  0  0  0  0  0  0  0  0  0  0  0
   -8.5967    2.7511   -2.5857 C   0  0  0  0  0  0  0  0  0  0  0  0
   -8.8376    1.0463   -0.9037 C   0  0  0  0  0  0  0  0  0  0  0  0
   -9.2918    2.1936   -1.5267 C   0  0  0  0  0  0  0  0  0  0  0  0
  -10.3430    2.7421   -1.1194 O   0  0  0  0  0  0  0  0  0  0  0  0
   -2.5405    4.0907    1.8076 H   0  0  0  0  0  0  0  0  0  0  0  0
   -1.4615    5.4643    1.5671 H   0  0  0  0  0  0  0  0  0  0  0  0
   -0.7075    4.0739   -1.9577 H   0  0  0  0  0  0  0  0  0  0  0  0
   -1.0912    3.1329    3.5381 H   0  0  0  0  0  0  0  0  0  0  0  0
    0.1699    4.3345    3.2198 H   0  0  0  0  0  0  0  0  0  0  0  0
    0.0091   -0.6299    0.4160 H   0  0  0  0  0  0  0  0  0  0  0  0
   -0.6381    0.8047    1.2033 H   0  0  0  0  0  0  0  0  0  0  0  0
   -1.5049   -0.7308   -2.1832 H   0  0  0  0  0  0  0  0  0  0  0  0
   -1.3219    0.4087   -3.5066 H   0  0  0  0  0  0  0  0  0  0  0  0
   -2.8781   -0.3378   -3.1935 H   0  0  0  0  0  0  0  0  0  0  0  0
   -3.3892    3.1908   -1.6226 H   0  0  0  0  0  0  0  0  0  0  0  0
   -3.4460    1.3528    0.2106 H   0  0  0  0  0  0  0  0  0  0  0  0
   -2.8040   -0.2328   -0.1627 H   0  0  0  0  0  0  0  0  0  0  0  0
    0.5071    3.7389   -4.0354 H   0  0  0  0  0  0  0  0  0  0  0  0
    0.5001    1.9893   -3.8088 H   0  0  0  0  0  0  0  0  0  0  0  0
    1.3805    3.0377   -2.6736 H   0  0  0  0  0  0  0  0  0  0  0  0
   -2.3713    4.1320   -3.5416 H   0  0  0  0  0  0  0  0  0  0  0  0
   -1.9614    2.5485   -4.2110 H   0  0  0  0  0  0  0  0  0  0  0  0
   -1.2465    5.0229    5.3749 H   0  0  0  0  0  0  0  0  0  0  0  0
   -2.6956    5.1460    4.3834 H   0  0  0  0  0  0  0  0  0  0  0  0
   -1.3585    6.2717    4.1306 H   0  0  0  0  0  0  0  0  0  0  0  0
   -4.3410    1.2956   -3.7844 H   0  0  0  0  0  0  0  0  0  0  0  0
   -5.3041    4.0585   -2.9498 H   0  0  0  0  0  0  0  0  0  0  0  0
   -4.6923    3.5541   -4.5276 H   0  0  0  0  0  0  0  0  0  0  0  0
   -6.6641    2.2508   -5.0054 H   0  0  0  0  0  0  0  0  0  0  0  0
   -7.1687    3.8199   -4.4246 H   0  0  0  0  0  0  0  0  0  0  0  0
   -6.2084    0.0605   -4.3612 H   0  0  0  0  0  0  0  0  0  0  0  0
   -6.4711   -1.1262   -3.1059 H   0  0  0  0  0  0  0  0  0  0  0  0
   -7.8497   -0.3752   -3.9007 H   0  0  0  0  0  0  0  0  0  0  0  0
   -7.4465   -0.3937   -0.8498 H   0  0  0  0  0  0  0  0  0  0  0  0
   -8.9555    3.5854   -2.9920 H   0  0  0  0  0  0  0  0  0  0  0  0
   -9.3475    0.6598   -0.1410 H   0  0  0  0  0  0  0  0  0  0  0  0
  1  2  1  0  0  0  0 
  2  4  1  0  0  0  0 
  2  5  2  0  0  0  0 
  3  1  1  0  0  0  0 
  3  6  1  0  0  0  0 
  3  7  1  0  0  0  0 
  3  8  1  0  0  0  0 
  4  9  1  0  0  0  0 
  6 10  1  0  0  0  0 
  6 11  2  0  0  0  0 
  7 12  1  0  0  0  0 
  7 13  1  0  0  0  0 
  7 14  1  0  0  0  0 
  8 15  1  0  0  0  0 
  8 16  1  0  0  0  0 
  9 17  1  0  0  0  0 
 10 18  1  0  0  0  0 
 13 16  1  0  0  0  0 
 13 19  1  0  0  0  0 
 14 20  1  0  0  0  0 
 19 21  1  0  0  0  0 
 19 22  1  0  0  0  0 
 21 20  1  0  0  0  0 
 20 23  2  0  0  0  0 
 21 24  1  0  0  0  0 
 21 25  1  0  0  0  0 
 22 26  1  0  0  0  0 
 25 27  1  0  0  0  0 
 25 28  1  0  0  0  0 
 25 29  1  0  0  0  0 
 26 28  1  0  0  0  0 
 28 30  2  0  0  0  0 
 29 31  2  0  0  0  0 
 30 32  1  0  0  0  0 
 31 32  1  0  0  0  0 
 32 33  2  0  0  0  0 
 34  4  1  0  0  0  0 
 35  4  1  0  0  0  0 
  8 36  1  0  0  0  0 
 37  9  1  0  0  0  0 
 38  9  1  0  0  0  0 
 39 10  1  0  0  0  0 
 40 10  1  0  0  0  0 
 41 12  1  0  0  0  0 
 42 12  1  0  0  0  0 
 43 12  1  0  0  0  0 
 13 44  1  0  0  0  0 
 45 14  1  0  0  0  0 
 46 14  1  0  0  0  0 
 47 15  1  0  0  0  0 
 48 15  1  0  0  0  0 
 49 15  1  0  0  0  0 
 50 16  1  0  0  0  0 
 51 16  1  0  0  0  0 
 52 17  1  0  0  0  0 
 53 17  1  0  0  0  0 
 54 17  1  0  0  0  0 
 19 55  1  0  0  0  0 
 56 22  1  0  0  0  0 
 57 22  1  0  0  0  0 
 58 26  1  0  0  0  0 
 59 26  1  0  0  0  0 
 60 27  1  0  0  0  0 
 61 27  1  0  0  0  0 
 62 27  1  0  0  0  0 
 63 29  1  0  0  0  0 
 64 30  1  0  0  0  0 
 65 31  1  0  0  0  0 
M  END
> <cdk:Title>
clobetasone butyrate

> <Conformer>
1

> <SuperDrugID>
SD003297

$$$$
