phenol
  CDK     0628171801

 13 13  0  0  0  0  0  0  0  0999 V2000
   -0.0804   -0.0463   -0.3003 C   0  0  0  0  0  0  0  0  0  0  0  0
    0.8870    0.1208   -1.3109 C   0  0  0  0  0  0  0  0  0  0  0  0
    1.2280    1.4109   -1.7624 C   0  0  0  0  0  0  0  0  0  0  0  0
    0.6001    2.5396   -1.2023 C   0  0  0  0  0  0  0  0  0  0  0  0
   -0.3667    2.3779   -0.1926 C   0  0  0  0  0  0  0  0  0  0  0  0
   -0.7067    1.0880    0.2578 C   0  0  0  0  0  0  0  0  0  0  0  0
   -0.3959   -1.2979    0.1219 O   0  0  0  0  0  0  0  0  0  0  0  0
    1.3459   -0.6955   -1.7210 H   0  0  0  0  0  0  0  0  0  0  0  0
    1.9302    1.5289   -2.4957 H   0  0  0  0  0  0  0  0  0  0  0  0
    0.8462    3.4758   -1.5285 H   0  0  0  0  0  0  0  0  0  0  0  0
   -0.8228    3.1965    0.2143 H   0  0  0  0  0  0  0  0  0  0  0  0
   -1.4087    0.9737    0.9906 H   0  0  0  0  0  0  0  0  0  0  0  0
   -1.0781   -1.1819    0.8166 H   0  0  0  0  0  0  0  0  0  0  0  0
  1  2  2  0  0  0  0 
  1  6  1  0  0  0  0 
  2  3  1  0  0  0  0 
  3  4  2  0  0  0  0 
  4  5  1  0  0  0  0 
  5  6  2  0  0  0  0 
  1  7  1  0  0  0  0 
  2  8  1  0  0  0  0 
  3  9  1  0  0  0  0 
  4 10  1  0  0  0  0 
  5 11  1  0  0  0  0 
  6 12  1  0  0  0  0 
  7 13  1  0  0  0  0 
M  END
> <cdk:Title>
phenol

> <Conformer>
1

> <SuperDrugID>
SD003463

$$$$
