niceritrol
  CDK     0628171801

 65 68  0  0  0  0  0  0  0  0999 V2000
    0.2653   -2.4111    1.4848 C   0  0  1  0  0  0  0  0  0  0  0  0
    0.1268   -0.9142    1.0221 C   0  0  1  0  0  0  0  0  0  0  0  0
    1.2504   -2.6000    2.6960 C   0  0  1  0  0  0  0  0  0  0  0  0
   -1.1698   -2.8820    1.9165 C   0  0  1  0  0  0  0  0  0  0  0  0
    0.8532   -3.2547    0.2972 C   0  0  1  0  0  0  0  0  0  0  0  0
    1.3423   -0.1599    1.0585 O   0  0  0  0  0  0  0  0  0  0  0  0
    1.1938   -1.5657    3.6818 O   0  0  0  0  0  0  0  0  0  0  0  0
   -1.3885   -4.2997    1.8842 O   0  0  0  0  0  0  0  0  0  0  0  0
   -0.0939   -3.6540   -0.7042 O   0  0  0  0  0  0  0  0  0  0  0  0
    1.4165    1.0953    0.5324 C   0  0  0  0  0  0  0  0  0  0  0  0
    1.8589   -1.6801    4.8658 C   0  0  0  0  0  0  0  0  0  0  0  0
   -2.5174   -4.8661    2.4041 C   0  0  0  0  0  0  0  0  0  0  0  0
    0.3017   -4.1928   -1.8970 C   0  0  0  0  0  0  0  0  0  0  0  0
    1.3118    1.2112   -0.7120 O   0  0  0  0  0  0  0  0  0  0  0  0
    1.5835    2.2279    1.3687 C   0  0  0  0  0  0  0  0  0  0  0  0
    1.4689   -2.5611    5.6688 O   0  0  0  0  0  0  0  0  0  0  0  0
    2.9698   -0.8504    5.1619 C   0  0  0  0  0  0  0  0  0  0  0  0
   -2.6603   -4.8208    3.6492 O   0  0  0  0  0  0  0  0  0  0  0  0
   -3.5057   -5.4581    1.5739 C   0  0  0  0  0  0  0  0  0  0  0  0
    0.9701   -3.4635   -2.6680 O   0  0  0  0  0  0  0  0  0  0  0  0
   -0.0020   -5.5355   -2.2489 C   0  0  0  0  0  0  0  0  0  0  0  0
    1.3509    2.1551    2.7648 C   0  0  0  0  0  0  0  0  0  0  0  0
    1.9421    3.4897    0.8384 C   0  0  0  0  0  0  0  0  0  0  0  0
    3.6339   -0.1159    4.1478 C   0  0  0  0  0  0  0  0  0  0  0  0
    3.4934   -0.7602    6.4734 C   0  0  0  0  0  0  0  0  0  0  0  0
   -3.5220   -5.2361    0.1734 C   0  0  0  0  0  0  0  0  0  0  0  0
   -4.5527   -6.2459    2.1139 C   0  0  0  0  0  0  0  0  0  0  0  0
   -0.4191   -6.4715   -1.2573 C   0  0  0  0  0  0  0  0  0  0  0  0
    0.1588   -5.9903   -3.5796 C   0  0  0  0  0  0  0  0  0  0  0  0
    1.4712    3.2967    3.5772 C   0  0  0  0  0  0  0  0  0  0  0  0
    2.0502    4.5752    1.6458 N   0  0  0  0  0  0  0  0  0  0  0  0
    4.7658    0.6640    4.4453 C   0  0  0  0  0  0  0  0  0  0  0  0
    4.5878   -0.0004    6.7320 N   0  0  0  0  0  0  0  0  0  0  0  0
   -4.5505   -5.7610   -0.6291 C   0  0  0  0  0  0  0  0  0  0  0  0
   -5.5236   -6.7497    1.3106 N   0  0  0  0  0  0  0  0  0  0  0  0
   -0.6587   -7.8459   -1.5100 C   0  0  0  0  0  0  0  0  0  0  0  0
   -0.1031   -7.3526   -3.7821 N   0  0  0  0  0  0  0  0  0  0  0  0
    1.8261    4.5182    2.9816 C   0  0  0  0  0  0  0  0  0  0  0  0
    5.2327    0.7037    5.7695 C   0  0  0  0  0  0  0  0  0  0  0  0
   -5.5553   -6.5343   -0.0273 C   0  0  0  0  0  0  0  0  0  0  0  0
   -0.4959   -8.3303   -2.8575 C   0  0  0  0  0  0  0  0  0  0  0  0
   -0.2953   -0.8880    0.0113 H   0  0  0  0  0  0  0  0  0  0  0  0
   -0.5718   -0.3769    1.6721 H   0  0  0  0  0  0  0  0  0  0  0  0
    1.0611   -3.5708    3.1671 H   0  0  0  0  0  0  0  0  0  0  0  0
    2.2887   -2.6145    2.3478 H   0  0  0  0  0  0  0  0  0  0  0  0
   -1.3866   -2.4913    2.9162 H   0  0  0  0  0  0  0  0  0  0  0  0
   -1.9148   -2.4558    1.2385 H   0  0  0  0  0  0  0  0  0  0  0  0
    1.6795   -2.6992   -0.1598 H   0  0  0  0  0  0  0  0  0  0  0  0
    1.2767   -4.1873    0.6800 H   0  0  0  0  0  0  0  0  0  0  0  0
    1.0776    1.2745    3.2065 H   0  0  0  0  0  0  0  0  0  0  0  0
    2.1227    3.6097   -0.1593 H   0  0  0  0  0  0  0  0  0  0  0  0
    3.3118   -0.1498    3.1778 H   0  0  0  0  0  0  0  0  0  0  0  0
    3.0620   -1.2665    7.2480 H   0  0  0  0  0  0  0  0  0  0  0  0
   -2.7975   -4.6764   -0.2813 H   0  0  0  0  0  0  0  0  0  0  0  0
   -4.6036   -6.4524    3.1146 H   0  0  0  0  0  0  0  0  0  0  0  0
   -0.5419   -6.1548   -0.2920 H   0  0  0  0  0  0  0  0  0  0  0  0
    0.4483   -5.3910   -4.3564 H   0  0  0  0  0  0  0  0  0  0  0  0
    1.2986    3.2412    4.5830 H   0  0  0  0  0  0  0  0  0  0  0  0
    5.2448    1.1893    3.7108 H   0  0  0  0  0  0  0  0  0  0  0  0
   -4.5703   -5.5785   -1.6340 H   0  0  0  0  0  0  0  0  0  0  0  0
   -0.9459   -8.4214   -0.6489 H   0  0  0  0  0  0  0  0  0  0  0  0
    1.9143    5.3650    3.5454 H   0  0  0  0  0  0  0  0  0  0  0  0
    6.0559    1.2563    6.0138 H   0  0  0  0  0  0  0  0  0  0  0  0
   -6.3077   -6.9346   -0.5899 H   0  0  0  0  0  0  0  0  0  0  0  0
   -0.6525   -9.3065   -3.1159 H   0  0  0  0  0  0  0  0  0  0  0  0
  1  2  1  0  0  0  0 
  1  3  1  0  0  0  0 
  1  4  1  0  0  0  0 
  1  5  1  0  0  0  0 
  2  6  1  0  0  0  0 
  3  7  1  0  0  0  0 
  4  8  1  0  0  0  0 
  5  9  1  0  0  0  0 
  6 10  1  0  0  0  0 
  7 11  1  0  0  0  0 
  8 12  1  0  0  0  0 
  9 13  1  0  0  0  0 
 10 14  2  0  0  0  0 
 10 15  1  0  0  0  0 
 11 16  2  0  0  0  0 
 11 17  1  0  0  0  0 
 12 18  2  0  0  0  0 
 12 19  1  0  0  0  0 
 13 20  2  0  0  0  0 
 13 21  1  0  0  0  0 
 15 22  2  0  0  0  0 
 15 23  1  0  0  0  0 
 17 24  2  0  0  0  0 
 17 25  1  0  0  0  0 
 19 26  2  0  0  0  0 
 19 27  1  0  0  0  0 
 21 28  2  0  0  0  0 
 21 29  1  0  0  0  0 
 22 30  1  0  0  0  0 
 23 31  2  0  0  0  0 
 24 32  1  0  0  0  0 
 25 33  2  0  0  0  0 
 26 34  1  0  0  0  0 
 27 35  2  0  0  0  0 
 28 36  1  0  0  0  0 
 29 37  2  0  0  0  0 
 30 38  2  0  0  0  0 
 31 38  1  0  0  0  0 
 32 39  2  0  0  0  0 
 33 39  1  0  0  0  0 
 34 40  2  0  0  0  0 
 35 40  1  0  0  0  0 
 36 41  2  0  0  0  0 
 37 41  1  0  0  0  0 
  2 42  1  0  0  0  0 
  2 43  1  0  0  0  0 
  3 44  1  0  0  0  0 
  3 45  1  0  0  0  0 
  4 46  1  0  0  0  0 
  4 47  1  0  0  0  0 
  5 48  1  0  0  0  0 
  5 49  1  0  0  0  0 
 22 50  1  0  0  0  0 
 23 51  1  0  0  0  0 
 24 52  1  0  0  0  0 
 25 53  1  0  0  0  0 
 26 54  1  0  0  0  0 
 27 55  1  0  0  0  0 
 28 56  1  0  0  0  0 
 29 57  1  0  0  0  0 
 30 58  1  0  0  0  0 
 32 59  1  0  0  0  0 
 34 60  1  0  0  0  0 
 36 61  1  0  0  0  0 
 38 62  1  0  0  0  0 
 39 63  1  0  0  0  0 
 40 64  1  0  0  0  0 
 41 65  1  0  0  0  0 
M  END
> <cdk:Title>
niceritrol

> <Conformer>
1

> <SuperDrugID>
SD001706

$$$$
