carvedilol
  CDK     0628171802

 56 59  0  0  0  0  0  0  0  0999 V2000
   -4.2608    7.8837   -3.6373 O   0  0  0  0  0  0  0  0  0  0  0  0
   -4.3217    6.8169   -2.6639 C   0  0  2  0  0  0  0  0  0  0  0  0
   -5.4660    8.4969   -3.8504 C   0  0  0  0  0  0  0  0  0  0  0  0
   -2.9139    6.2000   -2.4571 C   0  0  2  0  0  0  0  0  0  0  0  0
   -6.3639    8.0445   -4.8406 C   0  0  0  0  0  0  0  0  0  0  0  0
   -5.8366    9.6260   -3.0816 C   0  0  0  0  0  0  0  0  0  0  0  0
   -1.8745    7.2494   -1.9882 C   0  0  1  0  0  0  0  0  0  0  0  0
   -2.4650    5.5899   -3.6670 O   0  0  0  0  0  0  0  0  0  0  0  0
   -6.2976    7.0088   -5.7711 C   0  0  0  0  0  0  0  0  0  0  0  0
   -7.6047    8.6629   -5.0283 C   0  0  0  0  0  0  0  0  0  0  0  0
   -7.0786   10.2670   -3.2906 C   0  0  0  0  0  0  0  0  0  0  0  0
   -0.5393    6.6372   -1.8063 N   0  0  2  0  0  0  0  0  0  0  0  0
   -7.5194    7.0056   -6.4506 C   0  0  0  0  0  0  0  0  0  0  0  0
   -5.2898    6.0780   -6.0915 C   0  0  0  0  0  0  0  0  0  0  0  0
   -8.2834    8.0132   -5.9915 N   0  0  0  0  0  0  0  0  0  0  0  0
   -7.9768    9.7850   -4.2662 C   0  0  0  0  0  0  0  0  0  0  0  0
    0.5153    7.5996   -1.4177 C   0  0  1  0  0  0  0  0  0  0  0  0
   -7.7919    6.0443   -7.4413 C   0  0  0  0  0  0  0  0  0  0  0  0
   -5.5488    5.1193   -7.0926 C   0  0  0  0  0  0  0  0  0  0  0  0
    1.8642    6.8709   -1.2837 C   0  0  2  0  0  0  0  0  0  0  0  0
   -6.7945    5.0951   -7.7577 C   0  0  0  0  0  0  0  0  0  0  0  0
    2.8752    7.8191   -0.8848 O   0  0  0  0  0  0  0  0  0  0  0  0
    4.0968    7.2300   -0.7018 C   0  0  0  0  0  0  0  0  0  0  0  0
    4.4540    6.6986    0.5591 C   0  0  0  0  0  0  0  0  0  0  0  0
    5.0087    7.1611   -1.7748 C   0  0  0  0  0  0  0  0  0  0  0  0
    3.5777    6.7501    1.6101 O   0  0  0  0  0  0  0  0  0  0  0  0
    5.7057    6.0701    0.7229 C   0  0  0  0  0  0  0  0  0  0  0  0
    6.2513    6.5237   -1.6083 C   0  0  0  0  0  0  0  0  0  0  0  0
    3.6680    7.9696    2.3659 C   0  0  0  0  0  0  0  0  0  0  0  0
    6.6002    5.9796   -0.3592 C   0  0  0  0  0  0  0  0  0  0  0  0
   -4.9972    6.0257   -3.0049 H   0  0  0  0  0  0  0  0  0  0  0  0
   -4.6883    7.1885   -1.7003 H   0  0  0  0  0  0  0  0  0  0  0  0
   -2.9874    5.4162   -1.6975 H   0  0  0  0  0  0  0  0  0  0  0  0
   -5.2013    9.9840   -2.3635 H   0  0  0  0  0  0  0  0  0  0  0  0
   -1.8055    8.0481   -2.7309 H   0  0  0  0  0  0  0  0  0  0  0  0
   -2.2050    7.6795   -1.0385 H   0  0  0  0  0  0  0  0  0  0  0  0
   -3.1340    4.9023   -3.8692 H   0  0  0  0  0  0  0  0  0  0  0  0
   -7.3284   11.0847   -2.7288 H   0  0  0  0  0  0  0  0  0  0  0  0
   -0.2636    6.2465   -2.7099 H   0  0  0  0  0  0  0  0  0  0  0  0
   -4.3849    6.0905   -5.6208 H   0  0  0  0  0  0  0  0  0  0  0  0
   -9.1762    8.2327   -6.3030 H   0  0  0  0  0  0  0  0  0  0  0  0
   -8.8787   10.2424   -4.4180 H   0  0  0  0  0  0  0  0  0  0  0  0
    0.6064    8.3812   -2.1761 H   0  0  0  0  0  0  0  0  0  0  0  0
    0.2606    8.0622   -0.4607 H   0  0  0  0  0  0  0  0  0  0  0  0
   -8.6948    6.0314   -7.9216 H   0  0  0  0  0  0  0  0  0  0  0  0
   -4.8276    4.4367   -7.3373 H   0  0  0  0  0  0  0  0  0  0  0  0
    2.1177    6.4218   -2.2501 H   0  0  0  0  0  0  0  0  0  0  0  0
    1.7550    6.0762   -0.5374 H   0  0  0  0  0  0  0  0  0  0  0  0
   -6.9728    4.3878   -8.4750 H   0  0  0  0  0  0  0  0  0  0  0  0
    4.7633    7.5671   -2.6802 H   0  0  0  0  0  0  0  0  0  0  0  0
    5.9657    5.6774    1.6305 H   0  0  0  0  0  0  0  0  0  0  0  0
    6.8960    6.4506   -2.3970 H   0  0  0  0  0  0  0  0  0  0  0  0
    2.9273    7.9301    3.1638 H   0  0  0  0  0  0  0  0  0  0  0  0
    4.6539    8.0801    2.8219 H   0  0  0  0  0  0  0  0  0  0  0  0
    3.4509    8.8429    1.7470 H   0  0  0  0  0  0  0  0  0  0  0  0
    7.5028    5.5183   -0.2372 H   0  0  0  0  0  0  0  0  0  0  0  0
  1  2  1  0  0  0  0 
  1  3  1  0  0  0  0 
  4  2  1  0  0  0  0 
  3  5  1  0  0  0  0 
  3  6  2  0  0  0  0 
  4  7  1  0  0  0  0 
  4  8  1  0  0  0  0 
  5  9  1  0  0  0  0 
  5 10  2  0  0  0  0 
  6 11  1  0  0  0  0 
  7 12  1  0  0  0  0 
  9 13  2  0  0  0  0 
  9 14  1  0  0  0  0 
 10 15  1  0  0  0  0 
 10 16  1  0  0  0  0 
 11 16  2  0  0  0  0 
 12 17  1  0  0  0  0 
 13 15  1  0  0  0  0 
 13 18  1  0  0  0  0 
 14 19  2  0  0  0  0 
 17 20  1  0  0  0  0 
 18 21  2  0  0  0  0 
 19 21  1  0  0  0  0 
 20 22  1  0  0  0  0 
 22 23  1  0  0  0  0 
 23 24  2  0  0  0  0 
 23 25  1  0  0  0  0 
 24 26  1  0  0  0  0 
 24 27  1  0  0  0  0 
 25 28  2  0  0  0  0 
 26 29  1  0  0  0  0 
 27 30  2  0  0  0  0 
 28 30  1  0  0  0  0 
  2 31  1  0  0  0  0 
  2 32  1  0  0  0  0 
  4 33  1  0  0  0  0 
  6 34  1  0  0  0  0 
  7 35  1  0  0  0  0 
  7 36  1  0  0  0  0 
  8 37  1  0  0  0  0 
 11 38  1  0  0  0  0 
 12 39  1  0  0  0  0 
 14 40  1  0  0  0  0 
 15 41  1  0  0  0  0 
 16 42  1  0  0  0  0 
 17 43  1  0  0  0  0 
 17 44  1  0  0  0  0 
 18 45  1  0  0  0  0 
 19 46  1  0  0  0  0 
 20 47  1  0  0  0  0 
 20 48  1  0  0  0  0 
 21 49  1  0  0  0  0 
 25 50  1  0  0  0  0 
 27 51  1  0  0  0  0 
 28 52  1  0  0  0  0 
 29 53  1  0  0  0  0 
 29 54  1  0  0  0  0 
 29 55  1  0  0  0  0 
 30 56  1  0  0  0  0 
M  END
> <cdk:Title>
carvedilol

> <Conformer>
1

> <SuperDrugID>
SD000452

$$$$
