capsaicin
  CDK     0628171801

 49 49  0  0  0  0  0  0  0  0999 V2000
   -0.1875    0.2332   -0.3539 C   0  0  1  0  0  0  0  0  0  0  0  0
   -0.8855   -0.2391    0.7981 N   0  0  0  0  0  0  0  0  0  0  0  0
    1.2130   -0.2619   -0.4200 C   0  0  0  0  0  0  0  0  0  0  0  0
   -0.6035    0.1012    2.0864 C   0  0  0  0  0  0  0  0  0  0  0  0
    2.2905    0.5727   -0.0481 C   0  0  0  0  0  0  0  0  0  0  0  0
    1.4977   -1.5782   -0.8496 C   0  0  0  0  0  0  0  0  0  0  0  0
   -1.4663   -0.3921    3.1768 C   0  0  1  0  0  0  0  0  0  0  0  0
    0.3571    0.8533    2.3778 O   0  0  0  0  0  0  0  0  0  0  0  0
    3.6218    0.1063   -0.0807 C   0  0  0  0  0  0  0  0  0  0  0  0
    2.8269   -2.0334   -0.9387 C   0  0  0  0  0  0  0  0  0  0  0  0
   -2.7212    0.5066    3.3456 C   0  0  2  0  0  0  0  0  0  0  0  0
    4.6414    0.9195    0.3402 O   0  0  0  0  0  0  0  0  0  0  0  0
    3.8923   -1.1950   -0.5576 C   0  0  0  0  0  0  0  0  0  0  0  0
   -3.4630    0.2336    4.6789 C   0  0  1  0  0  0  0  0  0  0  0  0
    4.7231    1.0024    1.7778 C   0  0  0  0  0  0  0  0  0  0  0  0
    5.1649   -1.6600   -0.6605 O   0  0  0  0  0  0  0  0  0  0  0  0
   -4.7254    1.1170    4.8592 C   0  0  1  0  0  0  0  0  0  0  0  0
   -5.3137    0.9279    6.1762 C   0  0  0  0  0  0  0  0  0  0  0  0
   -5.2181    1.8296    7.1696 C   0  0  0  0  0  0  0  0  0  0  0  0
   -5.8210    1.6396    8.4885 C   0  0  1  0  0  0  0  0  0  0  0  0
   -5.1181    2.5046    9.5741 C   0  0  0  0  0  0  0  0  0  0  0  0
   -7.3452    1.9373    8.4423 C   0  0  0  0  0  0  0  0  0  0  0  0
   -0.7280   -0.1055   -1.2399 H   0  0  0  0  0  0  0  0  0  0  0  0
   -0.2276    1.3260   -0.3692 H   0  0  0  0  0  0  0  0  0  0  0  0
   -1.6378   -0.8340    0.6469 H   0  0  0  0  0  0  0  0  0  0  0  0
    2.1103    1.5277    0.2708 H   0  0  0  0  0  0  0  0  0  0  0  0
    0.7369   -2.2127   -1.1062 H   0  0  0  0  0  0  0  0  0  0  0  0
   -1.7739   -1.4213    2.9695 H   0  0  0  0  0  0  0  0  0  0  0  0
   -0.8926   -0.4045    4.1089 H   0  0  0  0  0  0  0  0  0  0  0  0
    3.0155   -2.9791   -1.2820 H   0  0  0  0  0  0  0  0  0  0  0  0
   -3.4037    0.3362    2.5073 H   0  0  0  0  0  0  0  0  0  0  0  0
   -2.4225    1.5595    3.3309 H   0  0  0  0  0  0  0  0  0  0  0  0
   -3.7484   -0.8216    4.7172 H   0  0  0  0  0  0  0  0  0  0  0  0
   -2.7732    0.4317    5.5053 H   0  0  0  0  0  0  0  0  0  0  0  0
    5.5626    1.6481    2.0360 H   0  0  0  0  0  0  0  0  0  0  0  0
    3.8182    1.4423    2.2072 H   0  0  0  0  0  0  0  0  0  0  0  0
    4.8936    0.0202    2.2289 H   0  0  0  0  0  0  0  0  0  0  0  0
    5.7499   -0.8940   -0.4724 H   0  0  0  0  0  0  0  0  0  0  0  0
   -4.4612    2.1675    4.6983 H   0  0  0  0  0  0  0  0  0  0  0  0
   -5.4660    0.8480    4.1006 H   0  0  0  0  0  0  0  0  0  0  0  0
   -5.8079    0.0796    6.3388 H   0  0  0  0  0  0  0  0  0  0  0  0
   -4.7243    2.6764    6.9968 H   0  0  0  0  0  0  0  0  0  0  0  0
   -5.6902    0.5941    8.7908 H   0  0  0  0  0  0  0  0  0  0  0  0
   -5.5168    2.2700   10.5640 H   0  0  0  0  0  0  0  0  0  0  0  0
   -5.2729    3.5695    9.3820 H   0  0  0  0  0  0  0  0  0  0  0  0
   -4.0432    2.3060    9.5862 H   0  0  0  0  0  0  0  0  0  0  0  0
   -7.7939    1.7813    9.4259 H   0  0  0  0  0  0  0  0  0  0  0  0
   -7.8460    1.2724    7.7343 H   0  0  0  0  0  0  0  0  0  0  0  0
   -7.5277    2.9711    8.1385 H   0  0  0  0  0  0  0  0  0  0  0  0
  1  2  1  0  0  0  0 
  1  3  1  0  0  0  0 
  2  4  1  0  0  0  0 
  3  5  2  0  0  0  0 
  3  6  1  0  0  0  0 
  4  7  1  0  0  0  0 
  4  8  2  0  0  0  0 
  5  9  1  0  0  0  0 
  6 10  2  0  0  0  0 
  7 11  1  0  0  0  0 
  9 12  1  0  0  0  0 
  9 13  2  0  0  0  0 
 10 13  1  0  0  0  0 
 11 14  1  0  0  0  0 
 12 15  1  0  0  0  0 
 13 16  1  0  0  0  0 
 14 17  1  0  0  0  0 
 17 18  1  0  0  0  0 
 18 19  2  0  0  0  0 
 19 20  1  0  0  0  0 
 20 21  1  0  0  0  0 
 20 22  1  0  0  0  0 
  1 23  1  0  0  0  0 
  1 24  1  0  0  0  0 
  2 25  1  0  0  0  0 
  5 26  1  0  0  0  0 
  6 27  1  0  0  0  0 
  7 28  1  0  0  0  0 
  7 29  1  0  0  0  0 
 10 30  1  0  0  0  0 
 11 31  1  0  0  0  0 
 11 32  1  0  0  0  0 
 14 33  1  0  0  0  0 
 14 34  1  0  0  0  0 
 15 35  1  0  0  0  0 
 15 36  1  0  0  0  0 
 15 37  1  0  0  0  0 
 16 38  1  0  0  0  0 
 17 39  1  0  0  0  0 
 17 40  1  0  0  0  0 
 18 41  1  0  0  0  0 
 19 42  1  0  0  0  0 
 20 43  1  0  0  0  0 
 21 44  1  0  0  0  0 
 21 45  1  0  0  0  0 
 21 46  1  0  0  0  0 
 22 47  1  0  0  0  0 
 22 48  1  0  0  0  0 
 22 49  1  0  0  0  0 
M  END
> <cdk:Title>
capsaicin

> <Conformer>
1

> <SuperDrugID>
SD002660

$$$$
