reserpine
  CDK     0628171801

 84 89  0  0  0  0  0  0  0  0999 V2000
   -1.6741    0.7471    2.9025 C   0  0  0  0  0  0  0  0  0  0  0  0
   -0.3708    0.9939    2.5662 O   0  0  0  0  0  0  0  0  0  0  0  0
   -2.1585    1.2491    3.9451 O   0  0  0  0  0  0  0  0  0  0  0  0
   -2.5456   -0.1105    2.0493 C   0  0  1  0  0  0  0  0  0  0  0  0
    0.5360    1.8779    3.2313 C   0  0  0  0  0  0  0  0  0  0  0  0
   -3.8009    0.6920    1.5322 C   0  0  1  0  0  0  0  0  0  0  0  0
   -1.7786   -0.8302    0.8813 C   0  0  1  0  0  0  0  0  0  0  0  0
   -3.4770    2.0049    0.7376 C   0  0  1  0  0  0  0  0  0  0  0  0
   -4.7262   -0.2648    0.7177 C   0  0  1  0  0  0  0  0  0  0  0  0
   -0.5771   -1.5223    1.3075 O   0  0  0  0  0  0  0  0  0  0  0  0
   -2.6895   -1.6843   -0.0695 C   0  0  1  0  0  0  0  0  0  0  0  0
   -4.6910    2.6644   -0.0019 C   0  0  2  0  0  0  0  0  0  0  0  0
   -5.9955    0.5034    0.2618 C   0  0  1  0  0  0  0  0  0  0  0  0
   -3.9757   -0.9203   -0.4821 C   0  0  2  0  0  0  0  0  0  0  0  0
   -0.6850   -2.6821    2.1501 C   0  0  0  0  0  0  0  0  0  0  0  0
   -1.9967   -1.9674   -1.3013 O   0  0  0  0  0  0  0  0  0  0  0  0
   -5.4075    3.7326    0.7461 C   0  0  0  0  0  0  0  0  0  0  0  0
   -5.6459    1.6667   -0.6091 N   0  0  1  0  0  0  0  0  0  0  0  0
   -0.8676   -2.7147   -1.4234 C   0  0  0  0  0  0  0  0  0  0  0  0
   -6.7768    3.9774    0.5949 C   0  0  0  0  0  0  0  0  0  0  0  0
   -4.8827    4.6881    1.5377 N   0  0  0  0  0  0  0  0  0  0  0  0
   -6.8350    2.3122   -1.2596 C   0  0  1  0  0  0  0  0  0  0  0  0
   -0.9548   -3.9450   -1.2048 O   0  0  0  0  0  0  0  0  0  0  0  0
    0.3667   -2.0608   -1.6754 C   0  0  0  0  0  0  0  0  0  0  0  0
   -7.0628    5.1133    1.3489 C   0  0  0  0  0  0  0  0  0  0  0  0
   -7.6698    3.1718   -0.2662 C   0  0  2  0  0  0  0  0  0  0  0  0
   -5.8562    5.5332    1.9105 C   0  0  0  0  0  0  0  0  0  0  0  0
    0.4072   -0.6943   -2.0437 C   0  0  0  0  0  0  0  0  0  0  0  0
    1.5927   -2.7241   -1.4504 C   0  0  0  0  0  0  0  0  0  0  0  0
   -8.2537    5.8298    1.5690 C   0  0  0  0  0  0  0  0  0  0  0  0
   -5.7856    6.6934    2.6984 C   0  0  0  0  0  0  0  0  0  0  0  0
    1.6182    0.0269   -2.0548 C   0  0  0  0  0  0  0  0  0  0  0  0
    2.8133   -2.0184   -1.4594 C   0  0  0  0  0  0  0  0  0  0  0  0
   -8.1973    6.9944    2.3647 C   0  0  0  0  0  0  0  0  0  0  0  0
   -6.9663    7.4421    2.9076 C   0  0  0  0  0  0  0  0  0  0  0  0
    1.6141    1.3661   -2.3523 O   0  0  0  0  0  0  0  0  0  0  0  0
    2.8283   -0.6359   -1.7515 C   0  0  0  0  0  0  0  0  0  0  0  0
    3.9772   -2.6784   -1.1653 O   0  0  0  0  0  0  0  0  0  0  0  0
   -6.9129    8.5943    3.6441 O   0  0  0  0  0  0  0  0  0  0  0  0
    1.3494    2.2069   -1.2138 C   0  0  0  0  0  0  0  0  0  0  0  0
    4.0020    0.0688   -1.6679 O   0  0  0  0  0  0  0  0  0  0  0  0
    4.1963   -2.8046    0.2522 C   0  0  0  0  0  0  0  0  0  0  0  0
   -6.8224    9.7748    2.8239 C   0  0  0  0  0  0  0  0  0  0  0  0
    4.7410    0.1518   -2.8965 C   0  0  0  0  0  0  0  0  0  0  0  0
   -4.2507    3.2070   -0.8455 H   0  0  0  0  0  0  0  0  0  0  0  0
   -4.3691    1.0013    2.4154 H   0  0  0  0  0  0  0  0  0  0  0  0
   -5.0604   -1.0698    1.3819 H   0  0  0  0  0  0  0  0  0  0  0  0
   -2.9231   -0.9005    2.7050 H   0  0  0  0  0  0  0  0  0  0  0  0
    0.6166    1.6463    4.2931 H   0  0  0  0  0  0  0  0  0  0  0  0
    1.5215    1.7748    2.7770 H   0  0  0  0  0  0  0  0  0  0  0  0
    0.1934    2.9074    3.1089 H   0  0  0  0  0  0  0  0  0  0  0  0
   -1.3774   -0.0359    0.2527 H   0  0  0  0  0  0  0  0  0  0  0  0
   -3.0173    2.7293    1.4146 H   0  0  0  0  0  0  0  0  0  0  0  0
   -2.7215    1.7811   -0.0162 H   0  0  0  0  0  0  0  0  0  0  0  0
   -2.9851   -2.6195    0.4131 H   0  0  0  0  0  0  0  0  0  0  0  0
   -6.6383   -0.1928   -0.2832 H   0  0  0  0  0  0  0  0  0  0  0  0
   -6.5519    0.8395    1.1415 H   0  0  0  0  0  0  0  0  0  0  0  0
   -3.7032   -0.1463   -1.2034 H   0  0  0  0  0  0  0  0  0  0  0  0
   -4.6468   -1.6191   -0.9914 H   0  0  0  0  0  0  0  0  0  0  0  0
    0.3241   -3.0373    2.3622 H   0  0  0  0  0  0  0  0  0  0  0  0
   -1.2221   -3.4890    1.6509 H   0  0  0  0  0  0  0  0  0  0  0  0
   -1.1656   -2.4507    3.1004 H   0  0  0  0  0  0  0  0  0  0  0  0
   -3.9474    4.7684    1.7807 H   0  0  0  0  0  0  0  0  0  0  0  0
   -6.4730    2.9614   -2.0613 H   0  0  0  0  0  0  0  0  0  0  0  0
   -7.4745    1.5639   -1.7338 H   0  0  0  0  0  0  0  0  0  0  0  0
   -8.3317    3.8265   -0.8375 H   0  0  0  0  0  0  0  0  0  0  0  0
   -8.2864    2.5292    0.3668 H   0  0  0  0  0  0  0  0  0  0  0  0
   -0.4531   -0.1927   -2.2752 H   0  0  0  0  0  0  0  0  0  0  0  0
    1.6091   -3.7223   -1.2283 H   0  0  0  0  0  0  0  0  0  0  0  0
   -9.1397    5.5233    1.1608 H   0  0  0  0  0  0  0  0  0  0  0  0
   -4.8935    6.9912    3.0990 H   0  0  0  0  0  0  0  0  0  0  0  0
   -9.0517    7.5281    2.5406 H   0  0  0  0  0  0  0  0  0  0  0  0
    1.4026    3.2454   -1.5426 H   0  0  0  0  0  0  0  0  0  0  0  0
    0.3522    2.0323   -0.8057 H   0  0  0  0  0  0  0  0  0  0  0  0
    2.0925    2.0627   -0.4263 H   0  0  0  0  0  0  0  0  0  0  0  0
    5.1280   -3.3478    0.4048 H   0  0  0  0  0  0  0  0  0  0  0  0
    4.2896   -1.8259    0.7279 H   0  0  0  0  0  0  0  0  0  0  0  0
    3.3958   -3.3688    0.7375 H   0  0  0  0  0  0  0  0  0  0  0  0
   -6.8048   10.6441    3.4805 H   0  0  0  0  0  0  0  0  0  0  0  0
   -5.9054    9.7781    2.2285 H   0  0  0  0  0  0  0  0  0  0  0  0
   -7.6866    9.8709    2.1614 H   0  0  0  0  0  0  0  0  0  0  0  0
    5.6695    0.6849   -2.6919 H   0  0  0  0  0  0  0  0  0  0  0  0
    4.9956   -0.8379   -3.2804 H   0  0  0  0  0  0  0  0  0  0  0  0
    4.1886    0.7102   -3.6544 H   0  0  0  0  0  0  0  0  0  0  0  0
  1  2  1  0  0  0  0 
  1  3  2  0  0  0  0 
  2  5  1  0  0  0  0 
  4  1  1  0  0  0  0 
  4  6  1  0  0  0  0 
  7  4  1  0  0  0  0 
  6  8  1  0  0  0  0 
  6  9  1  0  0  0  0 
  6 46  1  0  0  0  0 
  7 10  1  0  0  0  0 
 11  7  1  0  0  0  0 
 12  8  1  0  0  0  0 
  9 13  1  0  0  0  0 
  9 14  1  0  0  0  0 
  9 47  1  0  0  0  0 
 10 15  1  0  0  0  0 
 11 14  1  0  0  0  0 
 11 16  1  0  0  0  0 
 12 17  1  0  0  0  0 
 12 18  1  0  0  0  0 
 12 45  1  0  0  0  0 
 13 18  1  0  0  0  0 
 16 19  1  0  0  0  0 
 17 20  2  0  0  0  0 
 17 21  1  0  0  0  0 
 18 22  1  0  0  0  0 
 19 23  2  0  0  0  0 
 19 24  1  0  0  0  0 
 20 25  1  0  0  0  0 
 20 26  1  0  0  0  0 
 21 27  1  0  0  0  0 
 22 26  1  0  0  0  0 
 24 28  2  0  0  0  0 
 24 29  1  0  0  0  0 
 25 27  1  0  0  0  0 
 25 30  2  0  0  0  0 
 27 31  2  0  0  0  0 
 28 32  1  0  0  0  0 
 29 33  2  0  0  0  0 
 30 34  1  0  0  0  0 
 31 35  1  0  0  0  0 
 32 36  1  0  0  0  0 
 32 37  2  0  0  0  0 
 33 37  1  0  0  0  0 
 33 38  1  0  0  0  0 
 34 35  2  0  0  0  0 
 35 39  1  0  0  0  0 
 36 40  1  0  0  0  0 
 37 41  1  0  0  0  0 
 38 42  1  0  0  0  0 
 39 43  1  0  0  0  0 
 41 44  1  0  0  0  0 
  4 48  1  0  0  0  0 
  5 49  1  0  0  0  0 
  5 50  1  0  0  0  0 
  5 51  1  0  0  0  0 
  7 52  1  0  0  0  0 
  8 53  1  0  0  0  0 
  8 54  1  0  0  0  0 
 11 55  1  0  0  0  0 
 13 56  1  0  0  0  0 
 13 57  1  0  0  0  0 
 14 58  1  0  0  0  0 
 14 59  1  0  0  0  0 
 15 60  1  0  0  0  0 
 15 61  1  0  0  0  0 
 15 62  1  0  0  0  0 
 21 63  1  0  0  0  0 
 22 64  1  0  0  0  0 
 22 65  1  0  0  0  0 
 26 66  1  0  0  0  0 
 26 67  1  0  0  0  0 
 28 68  1  0  0  0  0 
 29 69  1  0  0  0  0 
 30 70  1  0  0  0  0 
 31 71  1  0  0  0  0 
 34 72  1  0  0  0  0 
 40 73  1  0  0  0  0 
 40 74  1  0  0  0  0 
 40 75  1  0  0  0  0 
 42 76  1  0  0  0  0 
 42 77  1  0  0  0  0 
 42 78  1  0  0  0  0 
 43 79  1  0  0  0  0 
 43 80  1  0  0  0  0 
 43 81  1  0  0  0  0 
 44 82  1  0  0  0  0 
 44 83  1  0  0  0  0 
 44 84  1  0  0  0  0 
M  END
> <cdk:Title>
reserpine

> <Conformer>
1

> <SuperDrugID>
SD002132

$$$$
