pitofenone
  CDK     0628171801

 52 54  0  0  0  0  0  0  0  0999 V2000
   -6.4670    0.9782    5.3626 C   0  0  0  0  0  0  0  0  0  0  0  0
   -7.0612    1.2229    4.2848 O   0  0  0  0  0  0  0  0  0  0  0  0
   -6.4629   -0.3726    5.8047 C   0  0  0  0  0  0  0  0  0  0  0  0
   -5.8044    2.0204    6.0816 C   0  0  0  0  0  0  0  0  0  0  0  0
   -7.6512   -1.0974    6.1206 C   0  0  0  0  0  0  0  0  0  0  0  0
   -5.2036   -1.0085    5.9343 C   0  0  0  0  0  0  0  0  0  0  0  0
   -5.5449    1.9114    7.4723 C   0  0  0  0  0  0  0  0  0  0  0  0
   -5.3571    3.1887    5.4179 C   0  0  0  0  0  0  0  0  0  0  0  0
   -8.9545   -0.5360    6.0407 C   0  0  0  0  0  0  0  0  0  0  0  0
   -7.5277   -2.4366    6.5712 C   0  0  0  0  0  0  0  0  0  0  0  0
   -5.1061   -2.3269    6.4044 C   0  0  0  0  0  0  0  0  0  0  0  0
   -4.8259    2.9030    8.1631 C   0  0  0  0  0  0  0  0  0  0  0  0
   -4.6346    4.1824    6.1054 C   0  0  0  0  0  0  0  0  0  0  0  0
  -10.0141   -1.3296    5.6970 O   0  0  0  0  0  0  0  0  0  0  0  0
   -9.1502    0.6763    6.2978 O   0  0  0  0  0  0  0  0  0  0  0  0
   -6.2690   -3.0408    6.7248 C   0  0  0  0  0  0  0  0  0  0  0  0
   -4.3665    4.0485    7.4822 C   0  0  0  0  0  0  0  0  0  0  0  0
  -11.3728   -0.9094    5.5500 C   0  0  0  0  0  0  0  0  0  0  0  0
   -3.5939    5.0040    8.0885 O   0  0  0  0  0  0  0  0  0  0  0  0
   -4.1829    5.7530    9.1735 C   0  0  2  0  0  0  0  0  0  0  0  0
   -5.3642    6.6841    8.7739 C   0  0  1  0  0  0  0  0  0  0  0  0
   -6.6947    6.0434    9.0614 N   0  0  2  0  0  0  0  0  0  0  0  0
   -7.5909    5.9083    7.8705 C   0  0  2  0  0  0  0  0  0  0  0  0
   -7.4024    6.6074   10.2591 C   0  0  1  0  0  0  0  0  0  0  0  0
   -8.8448    5.0556    8.1928 C   0  0  2  0  0  0  0  0  0  0  0  0
   -8.6632    5.7894   10.6342 C   0  0  1  0  0  0  0  0  0  0  0  0
   -9.6082    5.6165    9.4185 C   0  0  1  0  0  0  0  0  0  0  0  0
   -4.3415   -0.5151    5.6863 H   0  0  0  0  0  0  0  0  0  0  0  0
   -5.8659    1.0981    8.0008 H   0  0  0  0  0  0  0  0  0  0  0  0
   -5.5330    3.3195    4.4183 H   0  0  0  0  0  0  0  0  0  0  0  0
   -8.3546   -2.9872    6.8159 H   0  0  0  0  0  0  0  0  0  0  0  0
   -4.1896   -2.7674    6.5095 H   0  0  0  0  0  0  0  0  0  0  0  0
   -4.6229    2.7768    9.1577 H   0  0  0  0  0  0  0  0  0  0  0  0
   -4.2890    4.9982    5.5920 H   0  0  0  0  0  0  0  0  0  0  0  0
   -6.1995   -3.9997    7.0729 H   0  0  0  0  0  0  0  0  0  0  0  0
  -11.4433   -0.1358    4.7834 H   0  0  0  0  0  0  0  0  0  0  0  0
  -11.9811   -1.7643    5.2502 H   0  0  0  0  0  0  0  0  0  0  0  0
  -11.7458   -0.5154    6.4963 H   0  0  0  0  0  0  0  0  0  0  0  0
   -3.3708    6.3817    9.5494 H   0  0  0  0  0  0  0  0  0  0  0  0
   -4.4678    5.0957    9.9989 H   0  0  0  0  0  0  0  0  0  0  0  0
   -5.2634    7.6250    9.3243 H   0  0  0  0  0  0  0  0  0  0  0  0
   -5.2511    6.9532    7.7205 H   0  0  0  0  0  0  0  0  0  0  0  0
   -7.0583    5.4165    7.0553 H   0  0  0  0  0  0  0  0  0  0  0  0
   -7.8966    6.8980    7.5198 H   0  0  0  0  0  0  0  0  0  0  0  0
   -6.7354    6.6049   11.1237 H   0  0  0  0  0  0  0  0  0  0  0  0
   -7.6962    7.6443   10.0678 H   0  0  0  0  0  0  0  0  0  0  0  0
   -8.5352    4.0289    8.4082 H   0  0  0  0  0  0  0  0  0  0  0  0
   -9.5096    5.0353    7.3247 H   0  0  0  0  0  0  0  0  0  0  0  0
   -8.3543    4.8055   10.9955 H   0  0  0  0  0  0  0  0  0  0  0  0
   -9.2028    6.2901   11.4446 H   0  0  0  0  0  0  0  0  0  0  0  0
  -10.0568    6.5813    9.1624 H   0  0  0  0  0  0  0  0  0  0  0  0
  -10.4205    4.9350    9.6840 H   0  0  0  0  0  0  0  0  0  0  0  0
  1  2  2  0  0  0  0 
  1  3  1  0  0  0  0 
  1  4  1  0  0  0  0 
  3  5  2  0  0  0  0 
  3  6  1  0  0  0  0 
  4  7  2  0  0  0  0 
  4  8  1  0  0  0  0 
  5  9  1  0  0  0  0 
  5 10  1  0  0  0  0 
  6 11  2  0  0  0  0 
  7 12  1  0  0  0  0 
  8 13  2  0  0  0  0 
  9 14  1  0  0  0  0 
  9 15  2  0  0  0  0 
 10 16  2  0  0  0  0 
 11 16  1  0  0  0  0 
 12 17  2  0  0  0  0 
 13 17  1  0  0  0  0 
 14 18  1  0  0  0  0 
 17 19  1  0  0  0  0 
 19 20  1  0  0  0  0 
 20 21  1  0  0  0  0 
 21 22  1  0  0  0  0 
 22 23  1  0  0  0  0 
 22 24  1  0  0  0  0 
 23 25  1  0  0  0  0 
 24 26  1  0  0  0  0 
 25 27  1  0  0  0  0 
 26 27  1  0  0  0  0 
  6 28  1  0  0  0  0 
  7 29  1  0  0  0  0 
  8 30  1  0  0  0  0 
 10 31  1  0  0  0  0 
 11 32  1  0  0  0  0 
 12 33  1  0  0  0  0 
 13 34  1  0  0  0  0 
 16 35  1  0  0  0  0 
 18 36  1  0  0  0  0 
 18 37  1  0  0  0  0 
 18 38  1  0  0  0  0 
 20 39  1  0  0  0  0 
 20 40  1  0  0  0  0 
 21 41  1  0  0  0  0 
 21 42  1  0  0  0  0 
 23 43  1  0  0  0  0 
 23 44  1  0  0  0  0 
 24 45  1  0  0  0  0 
 24 46  1  0  0  0  0 
 25 47  1  0  0  0  0 
 25 48  1  0  0  0  0 
 26 49  1  0  0  0  0 
 26 50  1  0  0  0  0 
 27 51  1  0  0  0  0 
 27 52  1  0  0  0  0 
M  END
> <cdk:Title>
pitofenone

> <Conformer>
1

> <SuperDrugID>
SD001988

$$$$
