nicorandil
  CDK     0628171801

 24 24  0  0  0  0  0  0  0  0999 V2000
    2.0389   -1.0791    0.0359 C   0  0  0  0  0  0  0  0  0  0  0  0
    1.0580   -2.0307    0.0450 N   0  0  0  0  0  0  0  0  0  0  0  0
    3.2376   -1.4439    0.1010 O   0  0  0  0  0  0  0  0  0  0  0  0
    1.7269    0.3105   -0.0168 C   0  0  0  0  0  0  0  0  0  0  0  0
    1.2822   -3.4387    0.1248 C   0  0  1  0  0  0  0  0  0  0  0  0
    2.6981    1.2988    0.2924 C   0  0  0  0  0  0  0  0  0  0  0  0
    0.4350    0.7785   -0.3673 C   0  0  0  0  0  0  0  0  0  0  0  0
   -0.0538   -4.2111    0.1315 C   0  0  1  0  0  0  0  0  0  0  0  0
    2.3712    2.6674    0.2869 C   0  0  0  0  0  0  0  0  0  0  0  0
    0.1467    2.1053   -0.3652 N   0  0  0  0  0  0  0  0  0  0  0  0
    0.2348   -5.6218    0.1916 O   0  0  0  0  0  0  0  0  0  0  0  0
    1.0620    3.0512   -0.0424 C   0  0  0  0  0  0  0  0  0  0  0  0
   -0.8170   -6.3505    0.1614 N   0  0  0  0  0  0  0  0  0  0  0  0
   -1.0996   -6.9200   -0.8166 O   0  0  0  0  0  0  0  0  0  0  0  0
   -1.5253   -6.5221    1.1995 O   0  0  0  0  0  0  0  0  0  0  0  0
    0.1371   -1.7323    0.0029 H   0  0  0  0  0  0  0  0  0  0  0  0
    1.8783   -3.7637   -0.7325 H   0  0  0  0  0  0  0  0  0  0  0  0
    1.8285   -3.6707    1.0436 H   0  0  0  0  0  0  0  0  0  0  0  0
    3.6545    1.0326    0.5371 H   0  0  0  0  0  0  0  0  0  0  0  0
   -0.3110    0.1341   -0.6346 H   0  0  0  0  0  0  0  0  0  0  0  0
   -0.6434   -3.9025    1.0013 H   0  0  0  0  0  0  0  0  0  0  0  0
   -0.6146   -3.9727   -0.7788 H   0  0  0  0  0  0  0  0  0  0  0  0
    3.0742    3.3699    0.5256 H   0  0  0  0  0  0  0  0  0  0  0  0
    0.7946    4.0357   -0.0398 H   0  0  0  0  0  0  0  0  0  0  0  0
  1  2  1  0  0  0  0 
  1  3  2  0  0  0  0 
  1  4  1  0  0  0  0 
  2  5  1  0  0  0  0 
  4  6  2  0  0  0  0 
  4  7  1  0  0  0  0 
  5  8  1  0  0  0  0 
  6  9  1  0  0  0  0 
  7 10  2  0  0  0  0 
  8 11  1  0  0  0  0 
  9 12  2  0  0  0  0 
 10 12  1  0  0  0  0 
 11 13  1  0  0  0  0 
 13 14  2  0  0  0  0 
 13 15  1  0  0  0  0 
  2 16  1  0  0  0  0 
  5 17  1  0  0  0  0 
  5 18  1  0  0  0  0 
  6 19  1  0  0  0  0 
  7 20  1  0  0  0  0 
  8 21  1  0  0  0  0 
  8 22  1  0  0  0  0 
  9 23  1  0  0  0  0 
 12 24  1  0  0  0  0 
M  CHG  1  13   1
M  CHG  1  15  -1
M  END
> <cdk:Title>
nicorandil

> <Conformer>
1

> <SuperDrugID>
SD001714

$$$$
