deutetrabenazine
  CDK     0628171802

 50 52  0  0  0  0  0  0  0  0999 V2000
    5.9473   -2.6755    2.2652 O   0  0  0  0  0  0  0  0  0  0  0  0
    5.2197   -3.6248    1.4639 C   0  0  1  0  0  0  0  0  0  0  0  0
    5.1380   -1.7652    2.8860 C   0  0  0  0  0  0  0  0  0  0  0  0
    4.8638   -0.5361    2.2549 C   0  0  0  0  0  0  0  0  0  0  0  0
    4.5976   -2.0355    4.1605 C   0  0  0  0  0  0  0  0  0  0  0  0
    4.0086    0.4220    2.8527 C   0  0  0  0  0  0  0  0  0  0  0  0
    4.8878   -3.1979    4.8306 O   0  0  0  0  0  0  0  0  0  0  0  0
    3.7084   -1.1115    4.7397 C   0  0  0  0  0  0  0  0  0  0  0  0
    3.7706    1.7334    2.1702 C   0  0  1  0  0  0  0  0  0  0  0  0
    3.3993    0.1108    4.0986 C   0  0  0  0  0  0  0  0  0  0  0  0
    2.5706    2.4776    2.6946 N   0  0  2  0  0  0  0  0  0  0  0  0
    5.0631    2.6140    2.2046 C   0  0  2  0  0  0  0  0  0  0  0  0
    2.4178    1.0291    4.7328 C   0  0  2  0  0  0  0  0  0  0  0  0
    2.3872    3.8243    2.0570 C   0  0  1  0  0  0  0  0  0  0  0  0
    2.4439    2.4745    4.1801 C   0  0  1  0  0  0  0  0  0  0  0  0
    4.8007    3.9487    1.6262 C   0  0  0  0  0  0  0  0  0  0  0  0
    3.6523    4.7357    2.1567 C   0  0  1  0  0  0  0  0  0  0  0  0
    5.5135    4.3540    0.6789 O   0  0  0  0  0  0  0  0  0  0  0  0
    3.4075    6.1266    1.4805 C   0  0  2  0  0  0  0  0  0  0  0  0
    4.5073    7.2191    1.7061 C   0  0  1  0  0  0  0  0  0  0  0  0
    4.2235    8.4610    0.8125 C   0  0  0  0  0  0  0  0  0  0  0  0
    4.6634    7.6439    3.1966 C   0  0  0  0  0  0  0  0  0  0  0  0
    3.5401    1.5092    1.1229 H   0  0  0  0  0  0  0  0  0  0  0  0
    5.9379   -4.2962    0.9933 H   0  0  0  0  0  0  0  0  0  0  0  0
    4.5416   -4.2281    2.0717 H   0  0  0  0  0  0  0  0  0  0  0  0
    4.6526   -3.1306    0.6723 H   0  0  0  0  0  0  0  0  0  0  0  0
    6.1363   -3.1511    5.5463 C   0  0  2  0  0  0  0  0  0  0  0  0
    6.2174   -4.0599    6.1427 H   0  0  0  0  0  0  0  0  0  0  0  0
    6.1899   -2.2955    6.2256 H   0  0  0  0  0  0  0  0  0  0  0  0
    6.9827   -3.1229    4.8566 H   0  0  0  0  0  0  0  0  0  0  0  0
    5.2933   -0.3424    1.3464 H   0  0  0  0  0  0  0  0  0  0  0  0
    3.2860   -1.3402    5.6432 H   0  0  0  0  0  0  0  0  0  0  0  0
    5.8702    2.1237    1.6529 H   0  0  0  0  0  0  0  0  0  0  0  0
    5.4032    2.7509    3.2343 H   0  0  0  0  0  0  0  0  0  0  0  0
    2.5956    1.0777    5.8111 H   0  0  0  0  0  0  0  0  0  0  0  0
    1.4222    0.6041    4.5737 H   0  0  0  0  0  0  0  0  0  0  0  0
    2.1392    3.6658    1.0035 H   0  0  0  0  0  0  0  0  0  0  0  0
    1.5278    4.3346    2.5022 H   0  0  0  0  0  0  0  0  0  0  0  0
    3.2709    3.0191    4.6388 H   0  0  0  0  0  0  0  0  0  0  0  0
    1.5128    2.9685    4.4761 H   0  0  0  0  0  0  0  0  0  0  0  0
    3.8408    4.9156    3.2166 H   0  0  0  0  0  0  0  0  0  0  0  0
    2.4591    6.5309    1.8449 H   0  0  0  0  0  0  0  0  0  0  0  0
    3.2827    5.9623    0.4065 H   0  0  0  0  0  0  0  0  0  0  0  0
    5.4715    6.8207    1.3834 H   0  0  0  0  0  0  0  0  0  0  0  0
    4.1645    8.1704   -0.2387 H   0  0  0  0  0  0  0  0  0  0  0  0
    5.0258    9.1949    0.9085 H   0  0  0  0  0  0  0  0  0  0  0  0
    3.2817    8.9344    1.0946 H   0  0  0  0  0  0  0  0  0  0  0  0
    5.0733    6.8246    3.7889 H   0  0  0  0  0  0  0  0  0  0  0  0
    5.3551    8.4844    3.2874 H   0  0  0  0  0  0  0  0  0  0  0  0
    3.7019    7.9389    3.6213 H   0  0  0  0  0  0  0  0  0  0  0  0
  1  2  1  0  0  0  0 
  1  3  1  0  0  0  0 
  3  4  2  0  0  0  0 
  3  5  1  0  0  0  0 
  4  6  1  0  0  0  0 
  5  7  1  0  0  0  0 
  5  8  2  0  0  0  0 
  9  6  1  0  0  0  0 
  6 10  2  0  0  0  0 
  8 10  1  0  0  0  0 
  9 11  1  0  0  0  0 
  9 12  1  0  0  0  0 
 10 13  1  0  0  0  0 
 11 14  1  0  0  0  0 
 11 15  1  0  0  0  0 
 12 16  1  0  0  0  0 
 13 15  1  0  0  0  0 
 17 14  1  0  0  0  0 
 17 16  1  0  0  0  0 
 16 18  2  0  0  0  0 
 17 19  1  0  0  0  0 
 19 20  1  0  0  0  0 
 20 21  1  0  0  0  0 
 20 22  1  0  0  0  0 
  9 23  1  0  0  0  0 
  2 24  1  0  0  0  0 
  2 25  1  0  0  0  0 
  2 26  1  0  0  0  0 
  7 27  1  0  0  0  0 
 27 28  1  0  0  0  0 
 27 29  1  0  0  0  0 
 27 30  1  0  0  0  0 
  4 31  1  0  0  0  0 
  8 32  1  0  0  0  0 
 12 33  1  0  0  0  0 
 12 34  1  0  0  0  0 
 13 35  1  0  0  0  0 
 13 36  1  0  0  0  0 
 14 37  1  0  0  0  0 
 14 38  1  0  0  0  0 
 15 39  1  0  0  0  0 
 15 40  1  0  0  0  0 
 17 41  1  0  0  0  0 
 19 42  1  0  0  0  0 
 19 43  1  0  0  0  0 
 20 44  1  0  0  0  0 
 21 45  1  0  0  0  0 
 21 46  1  0  0  0  0 
 21 47  1  0  0  0  0 
 22 48  1  0  0  0  0 
 22 49  1  0  0  0  0 
 22 50  1  0  0  0  0 
M  ISO  1  24   2
M  ISO  1  25   2
M  ISO  1  26   2
M  ISO  1  28   2
M  ISO  1  29   2
M  ISO  1  30   2
M  END
> <cdk:Title>
deutetrabenazine

> <Conformer>
1

> <SuperDrugID>
SD003948

$$$$
