cinnarizine
  CDK     0628171802

 56 59  0  0  0  0  0  0  0  0999 V2000
   -2.3588   -5.8549    4.5196 C   0  0  2  0  0  0  0  0  0  0  0  0
   -2.6382   -4.7161    3.5603 N   0  0  1  0  0  0  0  0  0  0  0  0
   -3.5981   -6.5745    4.9755 C   0  0  0  0  0  0  0  0  0  0  0  0
   -1.5685   -5.4524    5.7303 C   0  0  0  0  0  0  0  0  0  0  0  0
   -1.3940   -4.0383    3.0544 C   0  0  2  0  0  0  0  0  0  0  0  0
   -3.5111   -5.0969    2.3976 C   0  0  1  0  0  0  0  0  0  0  0  0
   -4.6045   -5.9191    5.7303 C   0  0  0  0  0  0  0  0  0  0  0  0
   -3.8136   -7.9291    4.6169 C   0  0  0  0  0  0  0  0  0  0  0  0
   -0.5664   -6.3061    6.2528 C   0  0  0  0  0  0  0  0  0  0  0  0
   -1.7887   -4.2077    6.3727 C   0  0  0  0  0  0  0  0  0  0  0  0
   -1.7414   -2.8050    2.1858 C   0  0  2  0  0  0  0  0  0  0  0  0
   -3.8513   -3.8758    1.5086 C   0  0  2  0  0  0  0  0  0  0  0  0
   -5.7757   -6.5945    6.1208 C   0  0  0  0  0  0  0  0  0  0  0  0
   -4.9887   -8.6035    4.9972 C   0  0  0  0  0  0  0  0  0  0  0  0
    0.2142   -5.9141    7.3570 C   0  0  0  0  0  0  0  0  0  0  0  0
   -1.0127   -3.8160    7.4777 C   0  0  0  0  0  0  0  0  0  0  0  0
   -2.6034   -3.1990    1.0287 N   0  0  1  0  0  0  0  0  0  0  0  0
   -5.9690   -7.9363    5.7506 C   0  0  0  0  0  0  0  0  0  0  0  0
   -0.0067   -4.6676    7.9668 C   0  0  0  0  0  0  0  0  0  0  0  0
   -2.8359   -2.0607    0.0805 C   0  0  1  0  0  0  0  0  0  0  0  0
   -3.5817   -2.4533   -1.1062 C   0  0  0  0  0  0  0  0  0  0  0  0
   -3.0583   -3.1806   -2.1117 C   0  0  0  0  0  0  0  0  0  0  0  0
   -3.7503   -3.6683   -3.2320 C   0  0  0  0  0  0  0  0  0  0  0  0
   -3.0089   -4.1450   -4.3447 C   0  0  0  0  0  0  0  0  0  0  0  0
   -5.1678   -3.7504   -3.3097 C   0  0  0  0  0  0  0  0  0  0  0  0
   -3.6484   -4.6886   -5.4749 C   0  0  0  0  0  0  0  0  0  0  0  0
   -5.8100   -4.2893   -4.4406 C   0  0  0  0  0  0  0  0  0  0  0  0
   -5.0494   -4.7619   -5.5225 C   0  0  0  0  0  0  0  0  0  0  0  0
   -1.7381   -6.5561    3.9452 H   0  0  0  0  0  0  0  0  0  0  0  0
   -0.7927   -4.7359    2.4635 H   0  0  0  0  0  0  0  0  0  0  0  0
   -0.7725   -3.6910    3.8801 H   0  0  0  0  0  0  0  0  0  0  0  0
   -3.0126   -5.8604    1.7914 H   0  0  0  0  0  0  0  0  0  0  0  0
   -4.4582   -5.5096    2.7474 H   0  0  0  0  0  0  0  0  0  0  0  0
   -4.4991   -4.9399    5.9983 H   0  0  0  0  0  0  0  0  0  0  0  0
   -3.1187   -8.4352    4.0630 H   0  0  0  0  0  0  0  0  0  0  0  0
   -0.3952   -7.2230    5.8297 H   0  0  0  0  0  0  0  0  0  0  0  0
   -2.5086   -3.5687    6.0293 H   0  0  0  0  0  0  0  0  0  0  0  0
   -0.8085   -2.3622    1.8289 H   0  0  0  0  0  0  0  0  0  0  0  0
   -2.2536   -2.0595    2.8040 H   0  0  0  0  0  0  0  0  0  0  0  0
   -4.4746   -3.1746    2.0734 H   0  0  0  0  0  0  0  0  0  0  0  0
   -4.4399   -4.2364    0.6621 H   0  0  0  0  0  0  0  0  0  0  0  0
   -6.4885   -6.1099    6.6724 H   0  0  0  0  0  0  0  0  0  0  0  0
   -5.1306   -9.5791    4.7248 H   0  0  0  0  0  0  0  0  0  0  0  0
    0.9411   -6.5364    7.7172 H   0  0  0  0  0  0  0  0  0  0  0  0
   -1.1783   -2.9090    7.9243 H   0  0  0  0  0  0  0  0  0  0  0  0
   -6.8217   -8.4270    6.0293 H   0  0  0  0  0  0  0  0  0  0  0  0
    0.5610   -4.3821    8.7667 H   0  0  0  0  0  0  0  0  0  0  0  0
   -3.3753   -1.2634    0.6009 H   0  0  0  0  0  0  0  0  0  0  0  0
   -1.8780   -1.6394   -0.2378 H   0  0  0  0  0  0  0  0  0  0  0  0
   -4.5370   -2.1888   -1.1315 H   0  0  0  0  0  0  0  0  0  0  0  0
   -2.0875   -3.3940   -2.0439 H   0  0  0  0  0  0  0  0  0  0  0  0
   -1.9863   -4.1029   -4.3469 H   0  0  0  0  0  0  0  0  0  0  0  0
   -5.7591   -3.4331   -2.5400 H   0  0  0  0  0  0  0  0  0  0  0  0
   -3.0937   -5.0334   -6.2624 H   0  0  0  0  0  0  0  0  0  0  0  0
   -6.8311   -4.3440   -4.4745 H   0  0  0  0  0  0  0  0  0  0  0  0
   -5.5143   -5.1591   -6.3416 H   0  0  0  0  0  0  0  0  0  0  0  0
  1  2  1  0  0  0  0 
  1  3  1  0  0  0  0 
  1  4  1  0  0  0  0 
  2  5  1  0  0  0  0 
  2  6  1  0  0  0  0 
  3  7  2  0  0  0  0 
  3  8  1  0  0  0  0 
  4  9  2  0  0  0  0 
  4 10  1  0  0  0  0 
  5 11  1  0  0  0  0 
  6 12  1  0  0  0  0 
  7 13  1  0  0  0  0 
  8 14  2  0  0  0  0 
  9 15  1  0  0  0  0 
 10 16  2  0  0  0  0 
 11 17  1  0  0  0  0 
 12 17  1  0  0  0  0 
 13 18  2  0  0  0  0 
 14 18  1  0  0  0  0 
 15 19  2  0  0  0  0 
 16 19  1  0  0  0  0 
 17 20  1  0  0  0  0 
 20 21  1  0  0  0  0 
 21 22  2  0  0  0  0 
 22 23  1  0  0  0  0 
 23 24  2  0  0  0  0 
 23 25  1  0  0  0  0 
 24 26  1  0  0  0  0 
 25 27  2  0  0  0  0 
 26 28  2  0  0  0  0 
 27 28  1  0  0  0  0 
  1 29  1  0  0  0  0 
  5 30  1  0  0  0  0 
  5 31  1  0  0  0  0 
  6 32  1  0  0  0  0 
  6 33  1  0  0  0  0 
  7 34  1  0  0  0  0 
  8 35  1  0  0  0  0 
  9 36  1  0  0  0  0 
 10 37  1  0  0  0  0 
 11 38  1  0  0  0  0 
 11 39  1  0  0  0  0 
 12 40  1  0  0  0  0 
 12 41  1  0  0  0  0 
 13 42  1  0  0  0  0 
 14 43  1  0  0  0  0 
 15 44  1  0  0  0  0 
 16 45  1  0  0  0  0 
 18 46  1  0  0  0  0 
 19 47  1  0  0  0  0 
 20 48  1  0  0  0  0 
 20 49  1  0  0  0  0 
 21 50  1  0  0  0  0 
 22 51  1  0  0  0  0 
 24 52  1  0  0  0  0 
 25 53  1  0  0  0  0 
 26 54  1  0  0  0  0 
 27 55  1  0  0  0  0 
 28 56  1  0  0  0  0 
M  END
> <cdk:Title>
cinnarizine

> <Conformer>
1

> <SuperDrugID>
SD000574

$$$$
