rufloxacin
  CDK     0628171801

 43 46  0  0  0  0  0  0  0  0999 V2000
    1.8222   -0.2505    2.5428 C   0  0  0  0  0  0  0  0  0  0  0  0
    1.3294   -0.5335    1.2420 C   0  0  0  0  0  0  0  0  0  0  0  0
    2.2149   -1.0139    0.2582 C   0  0  0  0  0  0  0  0  0  0  0  0
    3.5663   -1.2122    0.5628 C   0  0  0  0  0  0  0  0  0  0  0  0
    4.0790   -0.8999    1.8430 C   0  0  0  0  0  0  0  0  0  0  0  0
    3.2130   -0.3710    2.8502 C   0  0  0  0  0  0  0  0  0  0  0  0
    3.7483   -0.0062    4.0764 N   0  0  0  0  0  0  0  0  0  0  0  0
    5.4500   -1.1020    2.1385 C   0  0  0  0  0  0  0  0  0  0  0  0
    5.9644   -0.8059    3.4220 C   0  0  0  0  0  0  0  0  0  0  0  0
    5.0690   -0.2479    4.3587 C   0  0  0  0  0  0  0  0  0  0  0  0
    6.2150   -1.5446    1.2464 O   0  0  0  0  0  0  0  0  0  0  0  0
    7.3274   -1.0281    3.7877 C   0  0  0  0  0  0  0  0  0  0  0  0
    7.8287   -0.6101    4.9749 O   0  0  0  0  0  0  0  0  0  0  0  0
    8.1428   -1.6226    3.0455 O   0  0  0  0  0  0  0  0  0  0  0  0
    1.5994    0.0428    5.3287 C   0  0  2  0  0  0  0  0  0  0  0  0
    0.6589    0.2145    3.7884 S   0  0  0  0  0  0  0  0  0  0  0  0
    2.9682    0.6945    5.0876 C   0  0  1  0  0  0  0  0  0  0  0  0
    0.0170   -0.3138    0.8991 N   0  0  0  0  0  0  0  0  0  0  0  0
   -1.0875    1.1758   -0.6935 C   0  0  1  0  0  0  0  0  0  0  0  0
   -2.1232    0.1245   -0.9143 N   0  0  2  0  0  0  0  0  0  0  0  0
   -1.5913   -1.2585   -0.7095 C   0  0  1  0  0  0  0  0  0  0  0  0
   -0.8963   -1.4084    0.6696 C   0  0  1  0  0  0  0  0  0  0  0  0
   -0.4645    1.0329    0.7141 C   0  0  1  0  0  0  0  0  0  0  0  0
   -2.8514    0.2925   -2.2030 C   0  0  0  0  0  0  0  0  0  0  0  0
    1.8058   -1.2731   -0.9548 F   0  0  0  0  0  0  0  0  0  0  0  0
    4.1769   -1.5795   -0.1726 H   0  0  0  0  0  0  0  0  0  0  0  0
    5.4339    0.0000    5.2835 H   0  0  0  0  0  0  0  0  0  0  0  0
    8.7665   -0.7859    5.2033 H   0  0  0  0  0  0  0  0  0  0  0  0
    1.7202   -1.0153    5.5697 H   0  0  0  0  0  0  0  0  0  0  0  0
    1.0641    0.5439    6.1379 H   0  0  0  0  0  0  0  0  0  0  0  0
    3.4621    0.7408    6.0635 H   0  0  0  0  0  0  0  0  0  0  0  0
    2.8257    1.7309    4.7629 H   0  0  0  0  0  0  0  0  0  0  0  0
   -0.2974    1.0929   -1.4471 H   0  0  0  0  0  0  0  0  0  0  0  0
   -1.5388    2.1697   -0.7694 H   0  0  0  0  0  0  0  0  0  0  0  0
   -2.4155   -1.9751   -0.7576 H   0  0  0  0  0  0  0  0  0  0  0  0
   -0.8752   -1.5077   -1.4980 H   0  0  0  0  0  0  0  0  0  0  0  0
   -0.3891   -2.3801    0.6982 H   0  0  0  0  0  0  0  0  0  0  0  0
   -1.6536   -1.4071    1.4599 H   0  0  0  0  0  0  0  0  0  0  0  0
   -1.2234    1.2505    1.4695 H   0  0  0  0  0  0  0  0  0  0  0  0
    0.3326    1.7760    0.8160 H   0  0  0  0  0  0  0  0  0  0  0  0
   -2.1915    0.1391   -3.0600 H   0  0  0  0  0  0  0  0  0  0  0  0
   -3.2815    1.2939   -2.2700 H   0  0  0  0  0  0  0  0  0  0  0  0
   -3.6739   -0.4211   -2.2601 H   0  0  0  0  0  0  0  0  0  0  0  0
  1  2  1  0  0  0  0 
  2  3  2  0  0  0  0 
  3  4  1  0  0  0  0 
  4  5  2  0  0  0  0 
  5  6  1  0  0  0  0 
  1  6  2  0  0  0  0 
  8  9  1  0  0  0  0 
  9 10  2  0  0  0  0 
  7 10  1  0  0  0  0 
  5  8  1  0  0  0  0 
  7  6  1  0  0  0  0 
  8 11  2  0  0  0  0 
  9 12  1  0  0  0  0 
 12 13  1  0  0  0  0 
 12 14  2  0  0  0  0 
 15 16  1  0  0  0  0 
 15 17  1  0  0  0  0 
 16  1  1  0  0  0  0 
  7 17  1  0  0  0  0 
  2 18  1  0  0  0  0 
 19 20  1  0  0  0  0 
 20 21  1  0  0  0  0 
 21 22  1  0  0  0  0 
 19 23  1  0  0  0  0 
 22 18  1  0  0  0  0 
 18 23  1  0  0  0  0 
 20 24  1  0  0  0  0 
  3 25  1  0  0  0  0 
  4 26  1  0  0  0  0 
 10 27  1  0  0  0  0 
 13 28  1  0  0  0  0 
 15 29  1  0  0  0  0 
 15 30  1  0  0  0  0 
 17 31  1  0  0  0  0 
 17 32  1  0  0  0  0 
 19 33  1  0  0  0  0 
 19 34  1  0  0  0  0 
 21 35  1  0  0  0  0 
 21 36  1  0  0  0  0 
 22 37  1  0  0  0  0 
 22 38  1  0  0  0  0 
 23 39  1  0  0  0  0 
 23 40  1  0  0  0  0 
 24 41  1  0  0  0  0 
 24 42  1  0  0  0  0 
 24 43  1  0  0  0  0 
M  END
> <cdk:Title>
rufloxacin

> <Conformer>
1

> <SuperDrugID>
SD002171

$$$$
