pleconaril
  CDK     0628171802

 45 47  0  0  0  0  0  0  0  0999 V2000
    0.9700   -0.2454   -1.4796 C   0  0  1  0  0  0  0  0  0  0  0  0
    0.2986   -1.4691   -1.0224 C   0  0  0  0  0  0  0  0  0  0  0  0
   -0.7040   -1.4893   -0.1380 N   0  0  0  0  0  0  0  0  0  0  0  0
    0.5610   -2.7319   -1.4248 O   0  0  0  0  0  0  0  0  0  0  0  0
   -1.0577   -2.7748    0.0001 C   0  0  0  0  0  0  0  0  0  0  0  0
   -0.2721   -3.5181   -0.8026 N   0  0  0  0  0  0  0  0  0  0  0  0
   -2.0878   -3.2446    0.8558 C   0  0  0  0  0  0  0  0  0  0  0  0
   -2.5953   -4.5562    0.7320 C   0  0  0  0  0  0  0  0  0  0  0  0
   -2.6309   -2.4075    1.8570 C   0  0  0  0  0  0  0  0  0  0  0  0
   -3.6246   -5.0334    1.5752 C   0  0  0  0  0  0  0  0  0  0  0  0
   -3.6414   -2.8566    2.7367 C   0  0  0  0  0  0  0  0  0  0  0  0
   -4.1247   -6.4202    1.3701 C   0  0  0  0  0  0  0  0  0  0  0  0
   -4.1355   -4.1789    2.5899 C   0  0  0  0  0  0  0  0  0  0  0  0
   -4.1717   -1.9511    3.7932 C   0  0  0  0  0  0  0  0  0  0  0  0
   -5.1381   -4.6123    3.4212 O   0  0  0  0  0  0  0  0  0  0  0  0
   -4.6684   -5.3657    4.5540 C   0  0  1  0  0  0  0  0  0  0  0  0
   -5.8984   -5.8462    5.3534 C   0  0  2  0  0  0  0  0  0  0  0  0
   -5.4925   -6.7687    6.5274 C   0  0  2  0  0  0  0  0  0  0  0  0
   -6.6675   -7.2222    7.2867 C   0  0  0  0  0  0  0  0  0  0  0  0
   -7.3032   -6.5499    8.3183 C   0  0  0  0  0  0  0  0  0  0  0  0
   -7.3281   -8.3857    7.0873 O   0  0  0  0  0  0  0  0  0  0  0  0
   -8.3450   -7.3768    8.7117 C   0  0  0  0  0  0  0  0  0  0  0  0
   -8.3226   -8.4721    7.9317 N   0  0  0  0  0  0  0  0  0  0  0  0
   -9.3018   -7.1152    9.7936 C   0  0  0  0  0  0  0  0  0  0  0  0
    2.1374   -0.5364   -2.1403 F   0  0  0  0  0  0  0  0  0  0  0  0
    0.1344    0.4313   -2.3319 F   0  0  0  0  0  0  0  0  0  0  0  0
    1.2657    0.5643   -0.4103 F   0  0  0  0  0  0  0  0  0  0  0  0
   -2.2208   -5.1753    0.0053 H   0  0  0  0  0  0  0  0  0  0  0  0
   -2.2806   -1.4497    1.9537 H   0  0  0  0  0  0  0  0  0  0  0  0
   -5.0998   -6.5817    1.8348 H   0  0  0  0  0  0  0  0  0  0  0  0
   -4.2313   -6.6389    0.3046 H   0  0  0  0  0  0  0  0  0  0  0  0
   -3.4112   -7.1248    1.8028 H   0  0  0  0  0  0  0  0  0  0  0  0
   -3.9612   -2.3648    4.7800 H   0  0  0  0  0  0  0  0  0  0  0  0
   -5.2517   -1.8406    3.6798 H   0  0  0  0  0  0  0  0  0  0  0  0
   -3.7228   -0.9562    3.7520 H   0  0  0  0  0  0  0  0  0  0  0  0
   -4.0895   -6.2373    4.2354 H   0  0  0  0  0  0  0  0  0  0  0  0
   -4.0391   -4.7482    5.2024 H   0  0  0  0  0  0  0  0  0  0  0  0
   -6.5676   -6.3928    4.6820 H   0  0  0  0  0  0  0  0  0  0  0  0
   -6.4348   -4.9708    5.7373 H   0  0  0  0  0  0  0  0  0  0  0  0
   -4.8072   -6.2415    7.1988 H   0  0  0  0  0  0  0  0  0  0  0  0
   -4.9746   -7.6463    6.1333 H   0  0  0  0  0  0  0  0  0  0  0  0
   -7.0542   -5.6355    8.7052 H   0  0  0  0  0  0  0  0  0  0  0  0
   -9.7248   -6.1147    9.6854 H   0  0  0  0  0  0  0  0  0  0  0  0
  -10.1118   -7.8445    9.7668 H   0  0  0  0  0  0  0  0  0  0  0  0
   -8.7951   -7.1868   10.7573 H   0  0  0  0  0  0  0  0  0  0  0  0
  1  2  1  0  0  0  0 
  2  3  2  0  0  0  0 
  2  4  1  0  0  0  0 
  3  5  1  0  0  0  0 
  4  6  1  0  0  0  0 
  5  6  2  0  0  0  0 
  5  7  1  0  0  0  0 
  7  8  2  0  0  0  0 
  7  9  1  0  0  0  0 
  8 10  1  0  0  0  0 
  9 11  2  0  0  0  0 
 10 12  1  0  0  0  0 
 10 13  2  0  0  0  0 
 11 13  1  0  0  0  0 
 11 14  1  0  0  0  0 
 13 15  1  0  0  0  0 
 15 16  1  0  0  0  0 
 16 17  1  0  0  0  0 
 17 18  1  0  0  0  0 
 18 19  1  0  0  0  0 
 19 20  2  0  0  0  0 
 19 21  1  0  0  0  0 
 20 22  1  0  0  0  0 
 21 23  1  0  0  0  0 
 22 23  2  0  0  0  0 
 22 24  1  0  0  0  0 
  1 25  1  0  0  0  0 
  1 26  1  0  0  0  0 
  1 27  1  0  0  0  0 
  8 28  1  0  0  0  0 
  9 29  1  0  0  0  0 
 12 30  1  0  0  0  0 
 12 31  1  0  0  0  0 
 12 32  1  0  0  0  0 
 14 33  1  0  0  0  0 
 14 34  1  0  0  0  0 
 14 35  1  0  0  0  0 
 16 36  1  0  0  0  0 
 16 37  1  0  0  0  0 
 17 38  1  0  0  0  0 
 17 39  1  0  0  0  0 
 18 40  1  0  0  0  0 
 18 41  1  0  0  0  0 
 20 42  1  0  0  0  0 
 24 43  1  0  0  0  0 
 24 44  1  0  0  0  0 
 24 45  1  0  0  0  0 
M  END
> <cdk:Title>
pleconaril

> <Conformer>
1

> <SuperDrugID>
SD003719

$$$$
