xenbucin
  CDK     0628171801

 34 35  0  0  0  0  0  0  0  0999 V2000
    2.0538    5.8306    5.0021 C   0  0  1  0  0  0  0  0  0  0  0  0
    2.0765    6.6655    3.7758 C   0  0  0  0  0  0  0  0  0  0  0  0
    1.0286    4.7489    4.8316 C   0  0  0  0  0  0  0  0  0  0  0  0
    2.5501    6.1938    2.5987 O   0  0  0  0  0  0  0  0  0  0  0  0
    1.2919    3.5578    4.1120 C   0  0  0  0  0  0  0  0  0  0  0  0
   -0.2705    4.9181    5.3693 C   0  0  0  0  0  0  0  0  0  0  0  0
    0.3042    2.5687    3.9588 C   0  0  0  0  0  0  0  0  0  0  0  0
   -1.2665    3.9400    5.1984 C   0  0  0  0  0  0  0  0  0  0  0  0
   -0.9930    2.7473    4.4906 C   0  0  0  0  0  0  0  0  0  0  0  0
   -1.9881    1.7477    4.3094 C   0  0  0  0  0  0  0  0  0  0  0  0
   -2.6944    1.2167    5.4161 C   0  0  0  0  0  0  0  0  0  0  0  0
   -2.2807    1.2485    3.0157 C   0  0  0  0  0  0  0  0  0  0  0  0
   -3.6602    0.2089    5.2340 C   0  0  0  0  0  0  0  0  0  0  0  0
   -3.2458    0.2405    2.8358 C   0  0  0  0  0  0  0  0  0  0  0  0
   -3.9367   -0.2788    3.9444 C   0  0  0  0  0  0  0  0  0  0  0  0
    3.4722    5.3197    5.4155 C   0  0  1  0  0  0  0  0  0  0  0  0
    4.4720    6.4492    5.7689 C   0  0  0  0  0  0  0  0  0  0  0  0
    1.6510    7.8432    3.8036 O   0  0  0  0  0  0  0  0  0  0  0  0
    1.7342    6.4764    5.8295 H   0  0  0  0  0  0  0  0  0  0  0  0
    2.5408    6.7690    1.8043 H   0  0  0  0  0  0  0  0  0  0  0  0
    2.2072    3.3966    3.6882 H   0  0  0  0  0  0  0  0  0  0  0  0
   -0.5121    5.7706    5.8811 H   0  0  0  0  0  0  0  0  0  0  0  0
    0.5434    1.7111    3.4550 H   0  0  0  0  0  0  0  0  0  0  0  0
   -2.1981    4.1146    5.5844 H   0  0  0  0  0  0  0  0  0  0  0  0
   -2.5019    1.5504    6.3651 H   0  0  0  0  0  0  0  0  0  0  0  0
   -1.7965    1.6182    2.1921 H   0  0  0  0  0  0  0  0  0  0  0  0
   -4.1570   -0.1737    6.0410 H   0  0  0  0  0  0  0  0  0  0  0  0
   -3.4434   -0.1164    1.8985 H   0  0  0  0  0  0  0  0  0  0  0  0
   -4.6378   -1.0115    3.8136 H   0  0  0  0  0  0  0  0  0  0  0  0
    3.3831    4.6660    6.2899 H   0  0  0  0  0  0  0  0  0  0  0  0
    3.9092    4.7282    4.6083 H   0  0  0  0  0  0  0  0  0  0  0  0
    4.1062    7.0330    6.6159 H   0  0  0  0  0  0  0  0  0  0  0  0
    5.4379    6.0140    6.0354 H   0  0  0  0  0  0  0  0  0  0  0  0
    4.6225    7.1184    4.9194 H   0  0  0  0  0  0  0  0  0  0  0  0
  1  2  1  0  0  0  0 
  1  3  1  0  0  0  0 
  2  4  1  0  0  0  0 
  3  5  2  0  0  0  0 
  3  6  1  0  0  0  0 
  5  7  1  0  0  0  0 
  6  8  2  0  0  0  0 
  7  9  2  0  0  0  0 
  8  9  1  0  0  0  0 
  9 10  1  0  0  0  0 
 10 11  2  0  0  0  0 
 10 12  1  0  0  0  0 
 11 13  1  0  0  0  0 
 12 14  2  0  0  0  0 
 13 15  2  0  0  0  0 
 14 15  1  0  0  0  0 
  1 16  1  0  0  0  0 
 16 17  1  0  0  0  0 
  2 18  2  0  0  0  0 
  1 19  1  0  0  0  0 
  4 20  1  0  0  0  0 
  5 21  1  0  0  0  0 
  6 22  1  0  0  0  0 
  7 23  1  0  0  0  0 
  8 24  1  0  0  0  0 
 11 25  1  0  0  0  0 
 12 26  1  0  0  0  0 
 13 27  1  0  0  0  0 
 14 28  1  0  0  0  0 
 15 29  1  0  0  0  0 
 16 30  1  0  0  0  0 
 16 31  1  0  0  0  0 
 17 32  1  0  0  0  0 
 17 33  1  0  0  0  0 
 17 34  1  0  0  0  0 
M  END
> <cdk:Title>
xenbucin

> <Conformer>
1

> <SuperDrugID>
SD003129

$$$$
