brimonidine
  CDK     0628171801

 27 29  0  0  0  0  0  0  0  0999 V2000
   -2.7996    2.6780    1.5357 Br  0  0  0  0  0  0  0  0  0  0  0  0
   -1.2381    3.5165    0.9440 C   0  0  0  0  0  0  0  0  0  0  0  0
   -0.8167    4.7084    1.5724 C   0  0  0  0  0  0  0  0  0  0  0  0
   -0.4925    2.9788   -0.1339 C   0  0  0  0  0  0  0  0  0  0  0  0
    0.3726    5.3559    1.1481 C   0  0  0  0  0  0  0  0  0  0  0  0
   -1.5290    5.2761    2.5836 N   0  0  0  0  0  0  0  0  0  0  0  0
   -0.9589    1.8736   -0.7146 N   0  0  0  0  0  0  0  0  0  0  0  0
    0.7098    3.6211   -0.5234 C   0  0  0  0  0  0  0  0  0  0  0  0
    1.1370    4.8036    0.1057 C   0  0  0  0  0  0  0  0  0  0  0  0
    0.7444    6.5114    1.7613 N   0  0  0  0  0  0  0  0  0  0  0  0
   -1.1566    6.4315    3.1913 C   0  0  0  0  0  0  0  0  0  0  0  0
   -0.8550    1.4110   -1.9090 C   0  0  0  0  0  0  0  0  0  0  0  0
    0.0197    7.0723    2.7636 C   0  0  0  0  0  0  0  0  0  0  0  0
   -1.3685    0.2597   -2.2618 N   0  0  0  0  0  0  0  0  0  0  0  0
   -0.2767    1.9657   -2.9483 N   0  0  0  0  0  0  0  0  0  0  0  0
   -1.0965   -0.0815   -3.6073 C   0  0  1  0  0  0  0  0  0  0  0  0
   -0.3421    1.1672   -4.1105 C   0  0  2  0  0  0  0  0  0  0  0  0
    1.2986    3.2289   -1.2594 H   0  0  0  0  0  0  0  0  0  0  0  0
    2.0029    5.2577   -0.1975 H   0  0  0  0  0  0  0  0  0  0  0  0
   -1.7273    6.8264    3.9413 H   0  0  0  0  0  0  0  0  0  0  0  0
    0.3253    7.9477    3.1936 H   0  0  0  0  0  0  0  0  0  0  0  0
   -1.8809   -0.3037   -1.6609 H   0  0  0  0  0  0  0  0  0  0  0  0
    0.1336    2.8435   -2.9315 H   0  0  0  0  0  0  0  0  0  0  0  0
   -0.4717   -0.9776   -3.6498 H   0  0  0  0  0  0  0  0  0  0  0  0
   -2.0268   -0.2440   -4.1595 H   0  0  0  0  0  0  0  0  0  0  0  0
    0.6632    0.9245   -4.4620 H   0  0  0  0  0  0  0  0  0  0  0  0
   -0.8978    1.6903   -4.8916 H   0  0  0  0  0  0  0  0  0  0  0  0
  1  2  1  0  0  0  0 
  2  3  2  0  0  0  0 
  2  4  1  0  0  0  0 
  3  5  1  0  0  0  0 
  3  6  1  0  0  0  0 
  4  7  1  0  0  0  0 
  4  8  2  0  0  0  0 
  5  9  2  0  0  0  0 
  5 10  1  0  0  0  0 
  6 11  2  0  0  0  0 
  7 12  2  0  0  0  0 
  8  9  1  0  0  0  0 
 10 13  2  0  0  0  0 
 11 13  1  0  0  0  0 
 12 14  1  0  0  0  0 
 12 15  1  0  0  0  0 
 14 16  1  0  0  0  0 
 15 17  1  0  0  0  0 
 16 17  1  0  0  0  0 
 18  8  1  0  0  0  0 
 19  9  1  0  0  0  0 
 20 11  1  0  0  0  0 
 21 13  1  0  0  0  0 
 22 14  1  0  0  0  0 
 23 15  1  0  0  0  0 
 24 16  1  0  0  0  0 
 25 16  1  0  0  0  0 
 26 17  1  0  0  0  0 
 27 17  1  0  0  0  0 
M  END
> <cdk:Title>
brimonidine

> <Conformer>
1

> <SuperDrugID>
SD000337

$$$$
