miconazole
  CDK     0628171801

 39 41  0  0  0  0  0  0  0  0999 V2000
   -2.0158   -1.0874   -0.2226 C   0  0  1  0  0  0  0  0  0  0  0  0
   -2.7934   -0.1509    0.7592 C   0  0  1  0  0  0  0  0  0  0  0  0
   -0.6193   -1.2409    0.1441 O   0  0  0  0  0  0  0  0  0  0  0  0
   -2.6795   -2.4338   -0.2185 C   0  0  0  0  0  0  0  0  0  0  0  0
   -2.4442    1.2374    0.6606 N   0  0  0  0  0  0  0  0  0  0  0  0
    0.3292   -0.2801   -0.3671 C   0  0  2  0  0  0  0  0  0  0  0  0
   -3.7155   -2.7864   -1.1319 C   0  0  0  0  0  0  0  0  0  0  0  0
   -2.3168   -3.3845    0.7697 C   0  0  0  0  0  0  0  0  0  0  0  0
   -2.5291    2.0027   -0.4418 C   0  0  0  0  0  0  0  0  0  0  0  0
   -1.9968    2.0383    1.6507 C   0  0  0  0  0  0  0  0  0  0  0  0
    1.6890   -0.5817    0.1611 C   0  0  0  0  0  0  0  0  0  0  0  0
   -4.2809   -1.7384   -2.3448 Cl  0  0  0  0  0  0  0  0  0  0  0  0
   -4.3487   -4.0454   -1.0435 C   0  0  0  0  0  0  0  0  0  0  0  0
   -2.9478   -4.6372    0.8509 C   0  0  0  0  0  0  0  0  0  0  0  0
   -2.1067    3.2784   -0.1029 C   0  0  0  0  0  0  0  0  0  0  0  0
   -1.7809    3.2862    1.1974 N   0  0  0  0  0  0  0  0  0  0  0  0
    1.9690   -0.5741    1.5557 C   0  0  0  0  0  0  0  0  0  0  0  0
    2.7477   -0.8761   -0.7343 C   0  0  0  0  0  0  0  0  0  0  0  0
   -3.9748   -4.9667   -0.0487 C   0  0  0  0  0  0  0  0  0  0  0  0
    0.7970   -0.1829    2.7223 Cl  0  0  0  0  0  0  0  0  0  0  0  0
    3.2627   -0.8886    2.0237 C   0  0  0  0  0  0  0  0  0  0  0  0
    4.0352   -1.1865   -0.2626 C   0  0  0  0  0  0  0  0  0  0  0  0
   -4.7576   -6.4634    0.0725 Cl  0  0  0  0  0  0  0  0  0  0  0  0
    4.2952   -1.2004    1.1191 C   0  0  0  0  0  0  0  0  0  0  0  0
    5.8431   -1.5865    1.6877 Cl  0  0  0  0  0  0  0  0  0  0  0  0
   -2.0638   -0.6760   -1.2347 H   0  0  0  0  0  0  0  0  0  0  0  0
   -3.8674   -0.2142    0.5562 H   0  0  0  0  0  0  0  0  0  0  0  0
   -2.6440   -0.5124    1.7829 H   0  0  0  0  0  0  0  0  0  0  0  0
    0.0672    0.7326   -0.0637 H   0  0  0  0  0  0  0  0  0  0  0  0
    0.3146   -0.3146   -1.4602 H   0  0  0  0  0  0  0  0  0  0  0  0
   -1.5865   -3.1715    1.4533 H   0  0  0  0  0  0  0  0  0  0  0  0
   -2.8417    1.7070   -1.3690 H   0  0  0  0  0  0  0  0  0  0  0  0
   -1.8406    1.7494    2.6190 H   0  0  0  0  0  0  0  0  0  0  0  0
   -5.0921   -4.2942   -1.7031 H   0  0  0  0  0  0  0  0  0  0  0  0
   -2.6563   -5.3021    1.5717 H   0  0  0  0  0  0  0  0  0  0  0  0
   -2.0470    4.0748   -0.7399 H   0  0  0  0  0  0  0  0  0  0  0  0
    2.5935   -0.8673   -1.7455 H   0  0  0  0  0  0  0  0  0  0  0  0
    3.4580   -0.8887    3.0289 H   0  0  0  0  0  0  0  0  0  0  0  0
    4.7797   -1.4018   -0.9308 H   0  0  0  0  0  0  0  0  0  0  0  0
  1  2  1  0  0  0  0 
  1  3  1  0  0  0  0 
  1  4  1  0  0  0  0 
  2  5  1  0  0  0  0 
  3  6  1  0  0  0  0 
  4  7  2  0  0  0  0 
  4  8  1  0  0  0  0 
  5  9  1  0  0  0  0 
  5 10  1  0  0  0  0 
  6 11  1  0  0  0  0 
  7 12  1  0  0  0  0 
  7 13  1  0  0  0  0 
  8 14  2  0  0  0  0 
  9 15  2  0  0  0  0 
 10 16  2  0  0  0  0 
 11 17  2  0  0  0  0 
 11 18  1  0  0  0  0 
 13 19  2  0  0  0  0 
 14 19  1  0  0  0  0 
 15 16  1  0  0  0  0 
 17 20  1  0  0  0  0 
 17 21  1  0  0  0  0 
 18 22  2  0  0  0  0 
 19 23  1  0  0  0  0 
 21 24  2  0  0  0  0 
 22 24  1  0  0  0  0 
 24 25  1  0  0  0  0 
  1 26  1  0  0  0  0 
  2 27  1  0  0  0  0 
  2 28  1  0  0  0  0 
  6 29  1  0  0  0  0 
  6 30  1  0  0  0  0 
  8 31  1  0  0  0  0 
  9 32  1  0  0  0  0 
 10 33  1  0  0  0  0 
 13 34  1  0  0  0  0 
 14 35  1  0  0  0  0 
 15 36  1  0  0  0  0 
 18 37  1  0  0  0  0 
 21 38  1  0  0  0  0 
 22 39  1  0  0  0  0 
M  END
> <cdk:Title>
miconazole

> <Conformer>
1

> <SuperDrugID>
SD001600

$$$$
