ceftobiprole medocaril
  CDK     0628171801

 73 78  0  0  0  0  0  0  0  0999 V2000
  -10.8175   -2.9403   -4.2752 C   0  0  0  0  0  0  0  0  0  0  0  0
  -12.1595   -2.9373   -4.1101 N   0  0  0  0  0  0  0  0  0  0  0  0
  -13.1921   -2.4611   -4.9581 C   0  0  2  0  0  0  0  0  0  0  0  0
  -12.7543   -0.7183   -5.2504 S   0  0  0  0  0  0  0  0  0  0  0  0
  -11.0099   -0.9264   -5.7642 C   0  0  1  0  0  0  0  0  0  0  0  0
  -10.2474   -1.9871   -5.0721 C   0  0  0  0  0  0  0  0  0  0  0  0
  -14.2025   -2.8655   -3.8424 C   0  0  1  0  0  0  0  0  0  0  0  0
  -13.0035   -3.2805   -3.1223 C   0  0  0  0  0  0  0  0  0  0  0  0
  -12.8467   -3.7475   -1.9710 O   0  0  0  0  0  0  0  0  0  0  0  0
  -10.1061   -3.9550   -3.6126 C   0  0  0  0  0  0  0  0  0  0  0  0
   -8.8178   -3.8304   -3.2166 O   0  0  0  0  0  0  0  0  0  0  0  0
  -10.6411   -5.0560   -3.3453 O   0  0  0  0  0  0  0  0  0  0  0  0
   -8.9014   -1.9805   -5.3265 C   0  0  0  0  0  0  0  0  0  0  0  0
   -7.9866   -1.2976   -4.6059 C   0  0  0  0  0  0  0  0  0  0  0  0
   -8.2849   -0.4083   -3.5095 C   0  0  1  0  0  0  0  0  0  0  0  0
   -6.9026   -0.0723   -2.9180 C   0  0  1  0  0  0  0  0  0  0  0  0
   -5.9674   -0.6735   -3.8095 N   0  0  0  0  0  0  0  0  0  0  0  0
   -6.6223   -1.3738   -4.7698 C   0  0  0  0  0  0  0  0  0  0  0  0
   -6.0609   -2.0514   -5.6617 O   0  0  0  0  0  0  0  0  0  0  0  0
   -4.5411   -0.5867   -3.5847 C   0  0  1  0  0  0  0  0  0  0  0  0
   -3.9062   -1.9066   -3.1067 C   0  0  2  0  0  0  0  0  0  0  0  0
   -2.5084   -1.6745   -3.2907 N   0  0  0  0  0  0  0  0  0  0  0  0
   -2.2410   -0.6891   -4.2972 C   0  0  1  0  0  0  0  0  0  0  0  0
   -3.6268   -0.1862   -4.7617 C   0  0  2  0  0  0  0  0  0  0  0  0
  -14.8875   -1.7938   -3.1989 N   0  0  0  0  0  0  0  0  0  0  0  0
  -16.0815   -1.8883   -2.5535 C   0  0  0  0  0  0  0  0  0  0  0  0
  -16.6591   -0.6787   -1.9245 C   0  0  1  0  0  0  0  0  0  0  0  0
  -16.6889   -2.9841   -2.4701 O   0  0  0  0  0  0  0  0  0  0  0  0
  -17.9593   -0.3208   -2.5404 C   0  0  0  0  0  0  0  0  0  0  0  0
  -16.7791   -0.8893   -0.5560 N   0  0  0  0  0  0  0  0  0  0  0  0
  -17.1107   -0.0587    0.1958 O   0  0  0  0  0  0  0  0  0  0  0  0
  -18.1245    0.8398   -3.2178 N   0  0  0  0  0  0  0  0  0  0  0  0
  -19.7398    0.8819   -3.7508 S   0  0  0  0  0  0  0  0  0  0  0  0
  -20.1563   -0.6602   -3.0432 C   0  0  0  0  0  0  0  0  0  0  0  0
  -19.0498   -1.1287   -2.4435 N   0  0  0  0  0  0  0  0  0  0  0  0
  -21.3508   -1.2681   -3.0836 N   0  0  0  0  0  0  0  0  0  0  0  0
   -1.5325   -2.2948   -2.5522 C   0  0  0  0  0  0  0  0  0  0  0  0
   -0.2291   -1.8964   -2.6681 O   0  0  0  0  0  0  0  0  0  0  0  0
   -1.8272   -3.2027   -1.7361 O   0  0  0  0  0  0  0  0  0  0  0  0
    0.8770   -2.3999   -1.9093 C   0  0  2  0  0  0  0  0  0  0  0  0
    2.0923   -1.6361   -2.2262 C   0  0  0  0  0  0  0  0  0  0  0  0
    2.7719   -0.8896   -1.3285 O   0  0  0  0  0  0  0  0  0  0  0  0
    3.8219   -0.3559   -1.9897 C   0  0  0  0  0  0  0  0  0  0  0  0
    3.8293   -0.7416   -3.2854 O   0  0  0  0  0  0  0  0  0  0  0  0
    2.7548   -1.5453   -3.4515 C   0  0  0  0  0  0  0  0  0  0  0  0
    2.3872   -2.1975   -4.7188 C   0  0  0  0  0  0  0  0  0  0  0  0
    4.6758    0.3930   -1.4663 O   0  0  0  0  0  0  0  0  0  0  0  0
  -13.2821   -3.0482   -5.8763 H   0  0  0  0  0  0  0  0  0  0  0  0
  -11.0239   -1.1400   -6.8345 H   0  0  0  0  0  0  0  0  0  0  0  0
  -10.5336    0.0462   -5.6240 H   0  0  0  0  0  0  0  0  0  0  0  0
  -14.8245   -3.7235   -4.1196 H   0  0  0  0  0  0  0  0  0  0  0  0
   -8.3727   -4.5740   -2.7600 H   0  0  0  0  0  0  0  0  0  0  0  0
   -8.5923   -2.5596   -6.0742 H   0  0  0  0  0  0  0  0  0  0  0  0
   -8.7783    0.4924   -3.8836 H   0  0  0  0  0  0  0  0  0  0  0  0
   -8.9162   -0.8923   -2.7592 H   0  0  0  0  0  0  0  0  0  0  0  0
   -6.7533    1.0093   -2.8576 H   0  0  0  0  0  0  0  0  0  0  0  0
   -6.7946   -0.5142   -1.9224 H   0  0  0  0  0  0  0  0  0  0  0  0
   -4.3614    0.1570   -2.7949 H   0  0  0  0  0  0  0  0  0  0  0  0
   -4.2195   -2.7542   -3.7218 H   0  0  0  0  0  0  0  0  0  0  0  0
   -4.1734   -2.0940   -2.0626 H   0  0  0  0  0  0  0  0  0  0  0  0
   -1.6681    0.1380   -3.8688 H   0  0  0  0  0  0  0  0  0  0  0  0
   -1.6817   -1.1221   -5.1314 H   0  0  0  0  0  0  0  0  0  0  0  0
   -3.6334    0.8939   -4.9260 H   0  0  0  0  0  0  0  0  0  0  0  0
   -3.9121   -0.6856   -5.6886 H   0  0  0  0  0  0  0  0  0  0  0  0
  -14.4553   -0.9259   -3.2099 H   0  0  0  0  0  0  0  0  0  0  0  0
  -15.9638    0.1562   -2.0645 H   0  0  0  0  0  0  0  0  0  0  0  0
  -22.1021   -0.8376   -3.5214 H   0  0  0  0  0  0  0  0  0  0  0  0
  -21.4630   -2.1412   -2.6744 H   0  0  0  0  0  0  0  0  0  0  0  0
    1.0382   -3.4566   -2.1311 H   0  0  0  0  0  0  0  0  0  0  0  0
    0.6639   -2.2932   -0.8431 H   0  0  0  0  0  0  0  0  0  0  0  0
    2.3639   -3.2803   -4.5873 H   0  0  0  0  0  0  0  0  0  0  0  0
    3.1193   -1.9554   -5.4906 H   0  0  0  0  0  0  0  0  0  0  0  0
    1.4049   -1.8553   -5.0483 H   0  0  0  0  0  0  0  0  0  0  0  0
  1  2  1  0  0  0  0 
  1  6  2  0  0  0  0 
  3  2  1  0  0  0  0 
  3  4  1  0  0  0  0 
  4  5  1  0  0  0  0 
  5  6  1  0  0  0  0 
  7  8  1  0  0  0  0 
  8  2  1  0  0  0  0 
  3  7  1  0  0  0  0 
  8  9  2  0  0  0  0 
  1 10  1  0  0  0  0 
 10 11  1  0  0  0  0 
 10 12  2  0  0  0  0 
 13  6  1  0  0  0  0 
 13 14  2  0  0  0  0 
 15 16  1  0  0  0  0 
 16 17  1  0  0  0  0 
 17 18  1  0  0  0  0 
 14 15  1  0  0  0  0 
 14 18  1  0  0  0  0 
 18 19  2  0  0  0  0 
 20 17  1  0  0  0  0 
 21 22  1  0  0  0  0 
 22 23  1  0  0  0  0 
 23 24  1  0  0  0  0 
 20 21  1  0  0  0  0 
 20 24  1  0  0  0  0 
  7 25  1  0  0  0  0 
 25 26  1  0  0  0  0 
 26 27  1  0  0  0  0 
 26 28  2  0  0  0  0 
 27 29  1  0  0  0  0 
 27 30  1  0  0  0  0 
 30 31  2  0  0  0  0 
 32 33  1  0  0  0  0 
 33 34  1  0  0  0  0 
 34 35  2  0  0  0  0 
 29 32  2  0  0  0  0 
 29 35  1  0  0  0  0 
 34 36  1  0  0  0  0 
 22 37  1  0  0  0  0 
 37 38  1  0  0  0  0 
 37 39  2  0  0  0  0 
 38 40  1  0  0  0  0 
 40 41  1  0  0  0  0 
 42 43  1  0  0  0  0 
 43 44  1  0  0  0  0 
 44 45  1  0  0  0  0 
 41 42  1  0  0  0  0 
 41 45  2  0  0  0  0 
 45 46  1  0  0  0  0 
 43 47  2  0  0  0  0 
  3 48  1  0  0  0  0 
 49  5  1  0  0  0  0 
 50  5  1  0  0  0  0 
  7 51  1  0  0  0  0 
 52 11  1  0  0  0  0 
 53 13  1  0  0  0  0 
 54 15  1  0  0  0  0 
 55 15  1  0  0  0  0 
 56 16  1  0  0  0  0 
 57 16  1  0  0  0  0 
 20 58  1  0  0  0  0 
 59 21  1  0  0  0  0 
 60 21  1  0  0  0  0 
 61 23  1  0  0  0  0 
 62 23  1  0  0  0  0 
 63 24  1  0  0  0  0 
 64 24  1  0  0  0  0 
 65 25  1  0  0  0  0 
 66 27  1  0  0  0  0 
 67 36  1  0  0  0  0 
 68 36  1  0  0  0  0 
 69 40  1  0  0  0  0 
 70 40  1  0  0  0  0 
 71 46  1  0  0  0  0 
 72 46  1  0  0  0  0 
 73 46  1  0  0  0  0 
M  END
> <cdk:Title>
ceftobiprole medocaril

> <Conformer>
1

> <SuperDrugID>
SD003546

$$$$
