piromidic acid
  CDK     0628171801

 37 39  0  0  0  0  0  0  0  0999 V2000
   -1.8187    1.8667    5.0675 C   0  0  1  0  0  0  0  0  0  0  0  0
   -2.0704    0.3601    4.8294 C   0  0  0  0  0  0  0  0  0  0  0  0
   -2.5829    2.7027    4.1520 N   0  0  0  0  0  0  0  0  0  0  0  0
   -2.1769    2.8977    2.8523 C   0  0  0  0  0  0  0  0  0  0  0  0
   -3.7279    3.3093    4.6045 C   0  0  0  0  0  0  0  0  0  0  0  0
   -2.9456    3.7009    1.9667 C   0  0  0  0  0  0  0  0  0  0  0  0
   -1.0241    2.3470    2.3782 N   0  0  0  0  0  0  0  0  0  0  0  0
   -4.5467    4.1200    3.7807 C   0  0  0  0  0  0  0  0  0  0  0  0
   -4.1460    4.2835    2.4301 C   0  0  0  0  0  0  0  0  0  0  0  0
   -2.4519    3.8869    0.6553 C   0  0  0  0  0  0  0  0  0  0  0  0
   -0.5543    2.5346    1.1157 C   0  0  0  0  0  0  0  0  0  0  0  0
   -5.7072    4.7482    4.3258 C   0  0  0  0  0  0  0  0  0  0  0  0
   -4.8388    4.9575    1.6296 O   0  0  0  0  0  0  0  0  0  0  0  0
   -1.2879    3.3109    0.2771 N   0  0  0  0  0  0  0  0  0  0  0  0
    0.6280    1.9720    0.7070 N   0  0  0  0  0  0  0  0  0  0  0  0
   -5.9526    4.7568    5.6587 O   0  0  0  0  0  0  0  0  0  0  0  0
   -6.5535    5.3423    3.6192 O   0  0  0  0  0  0  0  0  0  0  0  0
    1.3324    0.9851    1.4663 C   0  0  1  0  0  0  0  0  0  0  0  0
    1.2833    2.3144   -0.5183 C   0  0  1  0  0  0  0  0  0  0  0  0
    2.4592    0.5005    0.5363 C   0  0  1  0  0  0  0  0  0  0  0  0
    2.6881    1.6999   -0.3935 C   0  0  1  0  0  0  0  0  0  0  0  0
   -2.0702    2.0745    6.1128 H   0  0  0  0  0  0  0  0  0  0  0  0
   -0.7485    2.0777    4.9785 H   0  0  0  0  0  0  0  0  0  0  0  0
   -1.5798   -0.2246    5.6099 H   0  0  0  0  0  0  0  0  0  0  0  0
   -3.1409    0.1456    4.8590 H   0  0  0  0  0  0  0  0  0  0  0  0
   -1.6723    0.0505    3.8621 H   0  0  0  0  0  0  0  0  0  0  0  0
   -4.0101    3.1666    5.5799 H   0  0  0  0  0  0  0  0  0  0  0  0
   -2.9503    4.4611   -0.0277 H   0  0  0  0  0  0  0  0  0  0  0  0
   -6.7445    5.2142    6.0103 H   0  0  0  0  0  0  0  0  0  0  0  0
    1.7497    1.4395    2.3705 H   0  0  0  0  0  0  0  0  0  0  0  0
    0.6836    0.1494    1.7454 H   0  0  0  0  0  0  0  0  0  0  0  0
    0.7438    1.8729   -1.3616 H   0  0  0  0  0  0  0  0  0  0  0  0
    1.3536    3.3974   -0.6570 H   0  0  0  0  0  0  0  0  0  0  0  0
    3.3608    0.2369    1.0917 H   0  0  0  0  0  0  0  0  0  0  0  0
    2.1283   -0.3650   -0.0463 H   0  0  0  0  0  0  0  0  0  0  0  0
    3.0951    1.3983   -1.3619 H   0  0  0  0  0  0  0  0  0  0  0  0
    3.3732    2.4123    0.0769 H   0  0  0  0  0  0  0  0  0  0  0  0
  1  2  1  0  0  0  0 
  1  3  1  0  0  0  0 
  3  4  1  0  0  0  0 
  3  5  1  0  0  0  0 
  4  6  1  0  0  0  0 
  4  7  2  0  0  0  0 
  5  8  2  0  0  0  0 
  6  9  1  0  0  0  0 
  6 10  2  0  0  0  0 
  7 11  1  0  0  0  0 
  8  9  1  0  0  0  0 
  8 12  1  0  0  0  0 
  9 13  2  0  0  0  0 
 10 14  1  0  0  0  0 
 11 14  2  0  0  0  0 
 11 15  1  0  0  0  0 
 12 16  1  0  0  0  0 
 12 17  2  0  0  0  0 
 15 18  1  0  0  0  0 
 15 19  1  0  0  0  0 
 18 20  1  0  0  0  0 
 19 21  1  0  0  0  0 
 20 21  1  0  0  0  0 
  1 22  1  0  0  0  0 
  1 23  1  0  0  0  0 
  2 24  1  0  0  0  0 
  2 25  1  0  0  0  0 
  2 26  1  0  0  0  0 
  5 27  1  0  0  0  0 
 10 28  1  0  0  0  0 
 16 29  1  0  0  0  0 
 18 30  1  0  0  0  0 
 18 31  1  0  0  0  0 
 19 32  1  0  0  0  0 
 19 33  1  0  0  0  0 
 20 34  1  0  0  0  0 
 20 35  1  0  0  0  0 
 21 36  1  0  0  0  0 
 21 37  1  0  0  0  0 
M  END
> <cdk:Title>
piromidic acid

> <Conformer>
1

> <SuperDrugID>
SD001983

$$$$
