sodium myristyl sulfate
  CDK     0628171801

 49 48  0  0  0  0  0  0  0  0999 V2000
    4.0967   -1.4149   -2.1822 C   0  0  1  0  0  0  0  0  0  0  0  0
    3.7290   -0.0233   -1.6037 C   0  0  2  0  0  0  0  0  0  0  0  0
    4.8550   -2.2875   -1.1561 C   0  0  2  0  0  0  0  0  0  0  0  0
    2.9723    0.8831   -2.6091 C   0  0  2  0  0  0  0  0  0  0  0  0
    5.1840   -3.5494   -1.7559 O   0  0  0  0  0  0  0  0  0  0  0  0
    2.6280    2.2614   -1.9846 C   0  0  1  0  0  0  0  0  0  0  0  0
    6.0017   -4.5887   -0.6577 S   0  0  1  0  0  0  0  0  0  0  0  0
    1.8693    3.1926   -2.9646 C   0  0  1  0  0  0  0  0  0  0  0  0
    6.2782   -5.9869   -1.3847 O   0  0  0  0  0  0  0  0  0  0  0  0
    7.3868   -3.9273   -0.1994 O   0  0  0  0  0  0  0  0  0  0  0  0
    5.0260   -4.8688    0.7136 O   0  0  0  0  0  0  0  0  0  0  0  0
    1.5275    4.5688   -2.3331 C   0  0  1  0  0  0  0  0  0  0  0  0
    0.7679    5.4974   -3.3179 C   0  0  2  0  0  0  0  0  0  0  0  0
    0.4207    6.8782   -2.6961 C   0  0  1  0  0  0  0  0  0  0  0  0
   -0.3391    7.8040   -3.6848 C   0  0  2  0  0  0  0  0  0  0  0  0
   -0.6921    9.1884   -3.0744 C   0  0  2  0  0  0  0  0  0  0  0  0
   -1.4510   10.1018   -4.0747 C   0  0  1  0  0  0  0  0  0  0  0  0
   -1.8064   11.4869   -3.4699 C   0  0  1  0  0  0  0  0  0  0  0  0
   -2.5619   12.3977   -4.4640 C   0  0  0  0  0  0  0  0  0  0  0  0
    3.1859   -1.9387   -2.4824 H   0  0  0  0  0  0  0  0  0  0  0  0
    4.7209   -1.2876   -3.0701 H   0  0  0  0  0  0  0  0  0  0  0  0
    4.6471    0.4851   -1.2962 H   0  0  0  0  0  0  0  0  0  0  0  0
    3.1049   -0.1629   -0.7165 H   0  0  0  0  0  0  0  0  0  0  0  0
    4.2159   -2.4385   -0.2815 H   0  0  0  0  0  0  0  0  0  0  0  0
    5.7662   -1.7660   -0.8483 H   0  0  0  0  0  0  0  0  0  0  0  0
    2.0482    0.3863   -2.9190 H   0  0  0  0  0  0  0  0  0  0  0  0
    3.5937    1.0348   -3.4967 H   0  0  0  0  0  0  0  0  0  0  0  0
    2.0111    2.1044   -1.0952 H   0  0  0  0  0  0  0  0  0  0  0  0
    3.5547    2.7526   -1.6740 H   0  0  0  0  0  0  0  0  0  0  0  0
    2.4863    3.3519   -3.8531 H   0  0  0  0  0  0  0  0  0  0  0  0
    0.9421    2.7028   -3.2742 H   0  0  0  0  0  0  0  0  0  0  0  0
    4.1225   -5.0087    0.3612 H   0  0  0  0  0  0  0  0  0  0  0  0
    0.9104    4.4112   -1.4435 H   0  0  0  0  0  0  0  0  0  0  0  0
    2.4543    5.0602   -2.0222 H   0  0  0  0  0  0  0  0  0  0  0  0
   -0.1579    5.0039   -3.6286 H   0  0  0  0  0  0  0  0  0  0  0  0
    1.3860    5.6529   -4.2074 H   0  0  0  0  0  0  0  0  0  0  0  0
   -0.1973    6.7214   -1.8071 H   0  0  0  0  0  0  0  0  0  0  0  0
    1.3471    7.3705   -2.3860 H   0  0  0  0  0  0  0  0  0  0  0  0
   -1.2635    7.3081   -3.9947 H   0  0  0  0  0  0  0  0  0  0  0  0
    0.2802    7.9569   -4.5733 H   0  0  0  0  0  0  0  0  0  0  0  0
    0.2307    9.6877   -2.7651 H   0  0  0  0  0  0  0  0  0  0  0  0
   -1.3131    9.0389   -2.1864 H   0  0  0  0  0  0  0  0  0  0  0  0
   -0.8295   10.2501   -4.9632 H   0  0  0  0  0  0  0  0  0  0  0  0
   -2.3735    9.6012   -4.3844 H   0  0  0  0  0  0  0  0  0  0  0  0
   -2.4315   11.3469   -2.5834 H   0  0  0  0  0  0  0  0  0  0  0  0
   -0.8884   11.9955   -3.1618 H   0  0  0  0  0  0  0  0  0  0  0  0
   -2.7877   13.3563   -3.9916 H   0  0  0  0  0  0  0  0  0  0  0  0
   -1.9530   12.5840   -5.3504 H   0  0  0  0  0  0  0  0  0  0  0  0
   -3.5008   11.9334   -4.7701 H   0  0  0  0  0  0  0  0  0  0  0  0
  1  2  1  0  0  0  0 
  1  3  1  0  0  0  0 
  2  4  1  0  0  0  0 
  3  5  1  0  0  0  0 
  4  6  1  0  0  0  0 
  5  7  1  0  0  0  0 
  6  8  1  0  0  0  0 
  7  9  2  0  0  0  0 
  7 10  2  0  0  0  0 
  7 11  1  0  0  0  0 
  8 12  1  0  0  0  0 
 12 13  1  0  0  0  0 
 13 14  1  0  0  0  0 
 14 15  1  0  0  0  0 
 15 16  1  0  0  0  0 
 16 17  1  0  0  0  0 
 17 18  1  0  0  0  0 
 18 19  1  0  0  0  0 
  1 20  1  0  0  0  0 
  1 21  1  0  0  0  0 
  2 22  1  0  0  0  0 
  2 23  1  0  0  0  0 
  3 24  1  0  0  0  0 
  3 25  1  0  0  0  0 
  4 26  1  0  0  0  0 
  4 27  1  0  0  0  0 
  6 28  1  0  0  0  0 
  6 29  1  0  0  0  0 
  8 30  1  0  0  0  0 
  8 31  1  0  0  0  0 
 11 32  1  0  0  0  0 
 12 33  1  0  0  0  0 
 12 34  1  0  0  0  0 
 13 35  1  0  0  0  0 
 13 36  1  0  0  0  0 
 14 37  1  0  0  0  0 
 14 38  1  0  0  0  0 
 15 39  1  0  0  0  0 
 15 40  1  0  0  0  0 
 16 41  1  0  0  0  0 
 16 42  1  0  0  0  0 
 17 43  1  0  0  0  0 
 17 44  1  0  0  0  0 
 18 45  1  0  0  0  0 
 18 46  1  0  0  0  0 
 19 47  1  0  0  0  0 
 19 48  1  0  0  0  0 
 19 49  1  0  0  0  0 
M  END
> <cdk:Title>
sodium myristyl sulfate

> <Conformer>
1

> <SuperDrugID>
SD002213

$$$$
