bencyclane
  CDK     0628171801

 52 53  0  0  0  0  0  0  0  0999 V2000
   -0.6685   -1.6463   -0.1831 C   0  0  2  0  0  0  0  0  0  0  0  0
   -0.9381   -3.1283    0.2984 C   0  0  2  0  0  0  0  0  0  0  0  0
   -0.0389   -0.7147    0.8031 C   0  0  0  0  0  0  0  0  0  0  0  0
   -1.4121   -3.9344   -0.8198 O   0  0  0  0  0  0  0  0  0  0  0  0
   -1.9444   -3.1260    1.5115 C   0  0  2  0  0  0  0  0  0  0  0  0
    0.4246   -3.7923    0.7217 C   0  0  2  0  0  0  0  0  0  0  0  0
    1.3682   -0.5760    0.8854 C   0  0  0  0  0  0  0  0  0  0  0  0
   -0.8382    0.0727    1.6702 C   0  0  0  0  0  0  0  0  0  0  0  0
   -2.6205   -3.5844   -1.5320 C   0  0  2  0  0  0  0  0  0  0  0  0
   -2.5248   -4.4847    1.9857 C   0  0  2  0  0  0  0  0  0  0  0  0
    0.5237   -5.3461    0.7421 C   0  0  1  0  0  0  0  0  0  0  0  0
    1.9573    0.2943    1.8210 C   0  0  0  0  0  0  0  0  0  0  0  0
   -0.2530    0.9457    2.6040 C   0  0  0  0  0  0  0  0  0  0  0  0
   -2.9336   -4.6470   -2.6115 C   0  0  2  0  0  0  0  0  0  0  0  0
   -1.4783   -5.5323    2.4458 C   0  0  2  0  0  0  0  0  0  0  0  0
   -0.6832   -6.1646    1.2769 C   0  0  1  0  0  0  0  0  0  0  0  0
    1.1465    1.0561    2.6790 C   0  0  0  0  0  0  0  0  0  0  0  0
   -3.1610   -6.0820   -2.0603 C   0  0  2  0  0  0  0  0  0  0  0  0
   -3.8100   -7.0184   -3.0368 N   0  0  2  0  0  0  0  0  0  0  0  0
   -4.2483   -8.2881   -2.3834 C   0  0  0  0  0  0  0  0  0  0  0  0
   -3.0015   -7.2789   -4.2673 C   0  0  0  0  0  0  0  0  0  0  0  0
   -1.6086   -1.1933   -0.4996 H   0  0  0  0  0  0  0  0  0  0  0  0
   -0.0501   -1.6796   -1.0837 H   0  0  0  0  0  0  0  0  0  0  0  0
   -2.8012   -2.4977    1.2554 H   0  0  0  0  0  0  0  0  0  0  0  0
   -1.4701   -2.6561    2.3774 H   0  0  0  0  0  0  0  0  0  0  0  0
    0.7160   -3.4221    1.7085 H   0  0  0  0  0  0  0  0  0  0  0  0
    1.2090   -3.4643    0.0334 H   0  0  0  0  0  0  0  0  0  0  0  0
    1.9783   -1.1058    0.2603 H   0  0  0  0  0  0  0  0  0  0  0  0
   -1.8571    0.0163    1.6275 H   0  0  0  0  0  0  0  0  0  0  0  0
   -2.4925   -2.6313   -2.0477 H   0  0  0  0  0  0  0  0  0  0  0  0
   -3.4742   -3.5018   -0.8568 H   0  0  0  0  0  0  0  0  0  0  0  0
   -3.1562   -4.9146    1.2042 H   0  0  0  0  0  0  0  0  0  0  0  0
   -3.1802   -4.2801    2.8385 H   0  0  0  0  0  0  0  0  0  0  0  0
    0.7309   -5.6932   -0.2753 H   0  0  0  0  0  0  0  0  0  0  0  0
    1.4018   -5.6074    1.3397 H   0  0  0  0  0  0  0  0  0  0  0  0
    2.9752    0.3744    1.8749 H   0  0  0  0  0  0  0  0  0  0  0  0
   -0.8424    1.4973    3.2275 H   0  0  0  0  0  0  0  0  0  0  0  0
   -2.1023   -4.6624   -3.3206 H   0  0  0  0  0  0  0  0  0  0  0  0
   -3.8327   -4.3337   -3.1490 H   0  0  0  0  0  0  0  0  0  0  0  0
   -2.0225   -6.3368    2.9506 H   0  0  0  0  0  0  0  0  0  0  0  0
   -0.7950   -5.0946    3.1779 H   0  0  0  0  0  0  0  0  0  0  0  0
   -1.3700   -6.3740    0.4563 H   0  0  0  0  0  0  0  0  0  0  0  0
   -0.3026   -7.1360    1.6067 H   0  0  0  0  0  0  0  0  0  0  0  0
    1.5734    1.6903    3.3571 H   0  0  0  0  0  0  0  0  0  0  0  0
   -3.7970   -5.9953   -1.1728 H   0  0  0  0  0  0  0  0  0  0  0  0
   -2.1997   -6.4966   -1.7457 H   0  0  0  0  0  0  0  0  0  0  0  0
   -4.9285   -8.0790   -1.5546 H   0  0  0  0  0  0  0  0  0  0  0  0
   -4.7911   -8.9164   -3.0915 H   0  0  0  0  0  0  0  0  0  0  0  0
   -3.3930   -8.8499   -2.0000 H   0  0  0  0  0  0  0  0  0  0  0  0
   -2.8806   -6.3618   -4.8464 H   0  0  0  0  0  0  0  0  0  0  0  0
   -3.5045   -7.9976   -4.9176 H   0  0  0  0  0  0  0  0  0  0  0  0
   -2.0122   -7.6697   -4.0143 H   0  0  0  0  0  0  0  0  0  0  0  0
  1  2  1  0  0  0  0 
  1  3  1  0  0  0  0 
  2  4  1  0  0  0  0 
  2  5  1  0  0  0  0 
  2  6  1  0  0  0  0 
  3  7  2  0  0  0  0 
  3  8  1  0  0  0  0 
  4  9  1  0  0  0  0 
  5 10  1  0  0  0  0 
  6 11  1  0  0  0  0 
  7 12  1  0  0  0  0 
  8 13  2  0  0  0  0 
  9 14  1  0  0  0  0 
 10 15  1  0  0  0  0 
 11 16  1  0  0  0  0 
 12 17  2  0  0  0  0 
 13 17  1  0  0  0  0 
 14 18  1  0  0  0  0 
 15 16  1  0  0  0  0 
 18 19  1  0  0  0  0 
 19 20  1  0  0  0  0 
 19 21  1  0  0  0  0 
  1 22  1  0  0  0  0 
  1 23  1  0  0  0  0 
  5 24  1  0  0  0  0 
  5 25  1  0  0  0  0 
  6 26  1  0  0  0  0 
  6 27  1  0  0  0  0 
  7 28  1  0  0  0  0 
  8 29  1  0  0  0  0 
  9 30  1  0  0  0  0 
  9 31  1  0  0  0  0 
 10 32  1  0  0  0  0 
 10 33  1  0  0  0  0 
 11 34  1  0  0  0  0 
 11 35  1  0  0  0  0 
 12 36  1  0  0  0  0 
 13 37  1  0  0  0  0 
 14 38  1  0  0  0  0 
 14 39  1  0  0  0  0 
 15 40  1  0  0  0  0 
 15 41  1  0  0  0  0 
 16 42  1  0  0  0  0 
 16 43  1  0  0  0  0 
 17 44  1  0  0  0  0 
 18 45  1  0  0  0  0 
 18 46  1  0  0  0  0 
 20 47  1  0  0  0  0 
 20 48  1  0  0  0  0 
 20 49  1  0  0  0  0 
 21 50  1  0  0  0  0 
 21 51  1  0  0  0  0 
 21 52  1  0  0  0  0 
M  END
> <cdk:Title>
bencyclane

> <Conformer>
1

> <SuperDrugID>
SD000252

$$$$
