voriconazole
  CDK     0628171801

 39 41  0  0  0  0  0  0  0  0999 V2000
   -2.7466    0.1049   -1.1405 C   0  0  1  0  0  0  0  0  0  0  0  0
   -2.3090    0.1812   -2.6646 C   0  0  1  0  0  0  0  0  0  0  0  0
   -2.1450    1.2563   -0.2556 C   0  0  1  0  0  0  0  0  0  0  0  0
   -4.1477    0.4413   -1.1499 O   0  0  0  0  0  0  0  0  0  0  0  0
   -2.5646   -1.2796   -0.5331 C   0  0  0  0  0  0  0  0  0  0  0  0
   -0.8097    0.4859   -2.9681 C   0  0  0  0  0  0  0  0  0  0  0  0
   -2.7759   -1.0161   -3.4376 C   0  0  0  0  0  0  0  0  0  0  0  0
   -2.6388    1.2861    1.0923 N   0  0  0  0  0  0  0  0  0  0  0  0
   -1.2926   -1.8074   -0.1646 C   0  0  0  0  0  0  0  0  0  0  0  0
   -3.6870   -2.1327   -0.3320 C   0  0  0  0  0  0  0  0  0  0  0  0
   -4.0364   -1.0839   -4.0805 C   0  0  0  0  0  0  0  0  0  0  0  0
   -1.9685   -2.1130   -3.4975 N   0  0  0  0  0  0  0  0  0  0  0  0
   -3.4018    2.2416    1.6579 C   0  0  0  0  0  0  0  0  0  0  0  0
   -2.3961    0.3822    1.9879 N   0  0  0  0  0  0  0  0  0  0  0  0
   -0.1866   -1.1271   -0.2779 F   0  0  0  0  0  0  0  0  0  0  0  0
   -1.1615   -3.1066    0.3678 C   0  0  0  0  0  0  0  0  0  0  0  0
   -3.5587   -3.4241    0.2065 C   0  0  0  0  0  0  0  0  0  0  0  0
   -4.8899   -0.0955   -4.0497 F   0  0  0  0  0  0  0  0  0  0  0  0
   -4.3748   -2.2682   -4.7643 C   0  0  0  0  0  0  0  0  0  0  0  0
   -2.3159   -3.2463   -4.1557 C   0  0  0  0  0  0  0  0  0  0  0  0
   -3.6470    1.9232    2.9357 N   0  0  0  0  0  0  0  0  0  0  0  0
   -3.0107    0.7587    3.1182 C   0  0  0  0  0  0  0  0  0  0  0  0
   -2.2947   -3.9119    0.5647 C   0  0  0  0  0  0  0  0  0  0  0  0
   -3.5137   -3.3146   -4.7861 N   0  0  0  0  0  0  0  0  0  0  0  0
   -2.1751   -5.1040    1.0831 F   0  0  0  0  0  0  0  0  0  0  0  0
   -2.8117    1.0551   -3.0944 H   0  0  0  0  0  0  0  0  0  0  0  0
   -1.0593    1.1873   -0.1996 H   0  0  0  0  0  0  0  0  0  0  0  0
   -2.3590    2.2138   -0.7424 H   0  0  0  0  0  0  0  0  0  0  0  0
   -4.2152    1.3368   -1.5439 H   0  0  0  0  0  0  0  0  0  0  0  0
   -0.6550    0.5704   -4.0464 H   0  0  0  0  0  0  0  0  0  0  0  0
   -0.1551   -0.3016   -2.6025 H   0  0  0  0  0  0  0  0  0  0  0  0
   -0.5023    1.4337   -2.5240 H   0  0  0  0  0  0  0  0  0  0  0  0
   -4.6303   -1.8326   -0.5813 H   0  0  0  0  0  0  0  0  0  0  0  0
   -3.7460    3.0852    1.1951 H   0  0  0  0  0  0  0  0  0  0  0  0
   -0.2374   -3.4692    0.6182 H   0  0  0  0  0  0  0  0  0  0  0  0
   -4.3893   -4.0071    0.3355 H   0  0  0  0  0  0  0  0  0  0  0  0
   -5.2712   -2.3543   -5.2471 H   0  0  0  0  0  0  0  0  0  0  0  0
   -1.6803   -4.0422   -4.1753 H   0  0  0  0  0  0  0  0  0  0  0  0
   -2.9933    0.2320    3.9920 H   0  0  0  0  0  0  0  0  0  0  0  0
  2  1  1  0  0  0  0 
  1  3  1  0  0  0  0 
  1  4  1  0  0  0  0 
  1  5  1  0  0  0  0 
  2  6  1  0  0  0  0 
  2  7  1  0  0  0  0 
  3  8  1  0  0  0  0 
  5  9  2  0  0  0  0 
  5 10  1  0  0  0  0 
  7 11  2  0  0  0  0 
  7 12  1  0  0  0  0 
  8 13  1  0  0  0  0 
  8 14  1  0  0  0  0 
  9 15  1  0  0  0  0 
  9 16  1  0  0  0  0 
 10 17  2  0  0  0  0 
 11 18  1  0  0  0  0 
 11 19  1  0  0  0  0 
 12 20  2  0  0  0  0 
 13 21  2  0  0  0  0 
 14 22  2  0  0  0  0 
 16 23  2  0  0  0  0 
 17 23  1  0  0  0  0 
 19 24  2  0  0  0  0 
 20 24  1  0  0  0  0 
 21 22  1  0  0  0  0 
 23 25  1  0  0  0  0 
  2 26  1  0  0  0  0 
  3 27  1  0  0  0  0 
  3 28  1  0  0  0  0 
  4 29  1  0  0  0  0 
  6 30  1  0  0  0  0 
  6 31  1  0  0  0  0 
  6 32  1  0  0  0  0 
 10 33  1  0  0  0  0 
 13 34  1  0  0  0  0 
 16 35  1  0  0  0  0 
 17 36  1  0  0  0  0 
 19 37  1  0  0  0  0 
 20 38  1  0  0  0  0 
 22 39  1  0  0  0  0 
M  END
> <cdk:Title>
voriconazole

> <Conformer>
1

> <SuperDrugID>
SD002564

$$$$
