amikacin
  CDK     0628171801

 83 85  0  0  0  0  0  0  0  0999 V2000
    0.8873   -6.9789    2.4595 O   0  0  0  0  0  0  0  0  0  0  0  0
    1.0385   -5.6340    1.9383 C   0  0  1  0  0  0  0  0  0  0  0  0
    1.1854   -7.2442    3.8484 C   0  0  1  0  0  0  0  0  0  0  0  0
    2.5225   -5.2324    1.6467 C   0  0  2  0  0  0  0  0  0  0  0  0
    0.1806   -5.6260    0.6330 C   0  0  1  0  0  0  0  0  0  0  0  0
    0.5079   -6.3496    4.7606 O   0  0  0  0  0  0  0  0  0  0  0  0
    0.7255   -8.7309    4.1616 C   0  0  2  0  0  0  0  0  0  0  0  0
    3.2665   -4.9525    2.8391 N   0  0  0  0  0  0  0  0  0  0  0  0
    2.6156   -3.9138    0.8220 C   0  0  2  0  0  0  0  0  0  0  0  0
   -1.1694   -5.9223    0.9888 O   0  0  0  0  0  0  0  0  0  0  0  0
    0.2780   -4.2704   -0.1297 C   0  0  1  0  0  0  0  0  0  0  0  0
   -0.9392   -6.3837    4.7616 C   0  0  2  0  0  0  0  0  0  0  0  0
    1.3084   -9.6446    3.2076 O   0  0  0  0  0  0  0  0  0  0  0  0
   -0.8825   -8.8677    4.1292 C   0  0  2  0  0  0  0  0  0  0  0  0
    4.5029   -5.4300    3.1476 C   0  0  0  0  0  0  0  0  0  0  0  0
    1.7654   -3.9696   -0.4698 C   0  0  1  0  0  0  0  0  0  0  0  0
   -0.4098   -4.2467   -1.3991 O   0  0  0  0  0  0  0  0  0  0  0  0
   -1.4060   -5.3029    5.7687 C   0  0  2  0  0  0  0  0  0  0  0  0
   -1.4719   -7.8080    5.1065 C   0  0  2  0  0  0  0  0  0  0  0  0
   -1.4284  -10.2145    4.5005 N   0  0  2  0  0  0  0  0  0  0  0  0
    5.2699   -4.7493    4.2185 C   0  0  2  0  0  0  0  0  0  0  0  0
    5.0169   -6.3725    2.4979 O   0  0  0  0  0  0  0  0  0  0  0  0
    1.8955   -2.7001   -1.2059 N   0  0  2  0  0  0  0  0  0  0  0  0
   -1.8388   -4.0490   -1.4418 C   0  0  1  0  0  0  0  0  0  0  0  0
   -0.8933   -4.0257    5.3991 O   0  0  0  0  0  0  0  0  0  0  0  0
   -2.8992   -7.8167    5.0450 O   0  0  0  0  0  0  0  0  0  0  0  0
    5.6874   -3.3241    3.7438 C   0  0  1  0  0  0  0  0  0  0  0  0
    6.4197   -5.5206    4.5748 O   0  0  0  0  0  0  0  0  0  0  0  0
   -2.3484   -3.0315   -0.5493 O   0  0  0  0  0  0  0  0  0  0  0  0
   -2.2415   -3.7320   -2.9074 C   0  0  2  0  0  0  0  0  0  0  0  0
    6.4943   -2.5138    4.7835 C   0  0  2  0  0  0  0  0  0  0  0  0
   -1.9329   -1.6712   -0.8178 C   0  0  2  0  0  0  0  0  0  0  0  0
   -1.6512   -4.6721   -3.8055 O   0  0  0  0  0  0  0  0  0  0  0  0
   -1.8188   -2.2871   -3.2897 C   0  0  2  0  0  0  0  0  0  0  0  0
    6.7704   -1.1652    4.2745 N   0  0  1  0  0  0  0  0  0  0  0  0
   -2.5540   -0.7848    0.2919 C   0  0  2  0  0  0  0  0  0  0  0  0
   -2.3526   -1.2529   -2.2587 C   0  0  2  0  0  0  0  0  0  0  0  0
   -2.2863   -1.9676   -4.5994 O   0  0  0  0  0  0  0  0  0  0  0  0
   -2.0967   -1.2158    1.6187 N   0  0  1  0  0  0  0  0  0  0  0  0
   -1.8451    0.0418   -2.5847 O   0  0  0  0  0  0  0  0  0  0  0  0
    2.2801   -7.0348    3.9909 H   0  0  0  0  0  0  0  0  0  0  0  0
   -2.3244   -4.9845   -1.1630 H   0  0  0  0  0  0  0  0  0  0  0  0
    0.6052   -4.9015    2.6276 H   0  0  0  0  0  0  0  0  0  0  0  0
    2.9843   -6.0375    1.0655 H   0  0  0  0  0  0  0  0  0  0  0  0
    0.5288   -6.4289   -0.0244 H   0  0  0  0  0  0  0  0  0  0  0  0
    1.0905   -9.0051    5.1539 H   0  0  0  0  0  0  0  0  0  0  0  0
    2.8864   -4.2935    3.4411 H   0  0  0  0  0  0  0  0  0  0  0  0
    3.6603   -3.7262    0.5527 H   0  0  0  0  0  0  0  0  0  0  0  0
    2.2730   -3.0686    1.4308 H   0  0  0  0  0  0  0  0  0  0  0  0
   -1.5774   -6.2787    0.1712 H   0  0  0  0  0  0  0  0  0  0  0  0
   -0.0875   -3.4745    0.5257 H   0  0  0  0  0  0  0  0  0  0  0  0
   -1.3194   -6.0956    3.7766 H   0  0  0  0  0  0  0  0  0  0  0  0
    2.3032   -9.5927    3.2383 H   0  0  0  0  0  0  0  0  0  0  0  0
   -1.3576   -8.6665    3.1299 H   0  0  0  0  0  0  0  0  0  0  0  0
    2.1578   -4.7595   -1.1195 H   0  0  0  0  0  0  0  0  0  0  0  0
   -1.0511   -5.5425    6.7737 H   0  0  0  0  0  0  0  0  0  0  0  0
   -2.4957   -5.2399    5.7852 H   0  0  0  0  0  0  0  0  0  0  0  0
   -1.1791   -8.0593    6.1293 H   0  0  0  0  0  0  0  0  0  0  0  0
   -1.0079  -10.4772    5.3945 H   0  0  0  0  0  0  0  0  0  0  0  0
   -1.0785  -10.8763    3.8033 H   0  0  0  0  0  0  0  0  0  0  0  0
    4.6361   -4.6727    5.1069 H   0  0  0  0  0  0  0  0  0  0  0  0
    1.3718   -2.8102   -2.0784 H   0  0  0  0  0  0  0  0  0  0  0  0
    2.8799   -2.6071   -1.4706 H   0  0  0  0  0  0  0  0  0  0  0  0
   -1.2503   -3.4067    6.0702 H   0  0  0  0  0  0  0  0  0  0  0  0
   -3.1650   -8.7087    5.3510 H   0  0  0  0  0  0  0  0  0  0  0  0
    6.2868   -3.4146    2.8325 H   0  0  0  0  0  0  0  0  0  0  0  0
    4.7898   -2.7482    3.4978 H   0  0  0  0  0  0  0  0  0  0  0  0
    6.7855   -5.0840    5.3706 H   0  0  0  0  0  0  0  0  0  0  0  0
   -3.3267   -3.8227   -3.0027 H   0  0  0  0  0  0  0  0  0  0  0  0
    7.4448   -3.0055    4.9926 H   0  0  0  0  0  0  0  0  0  0  0  0
    5.9283   -2.4270    5.7123 H   0  0  0  0  0  0  0  0  0  0  0  0
   -0.8445   -1.5841   -0.7372 H   0  0  0  0  0  0  0  0  0  0  0  0
   -2.0234   -5.5416   -3.5460 H   0  0  0  0  0  0  0  0  0  0  0  0
   -0.7266   -2.2310   -3.3151 H   0  0  0  0  0  0  0  0  0  0  0  0
    7.2824   -0.6638    5.0024 H   0  0  0  0  0  0  0  0  0  0  0  0
    7.4060   -1.2647    3.4797 H   0  0  0  0  0  0  0  0  0  0  0  0
   -3.6430   -0.8502    0.2616 H   0  0  0  0  0  0  0  0  0  0  0  0
   -2.2615    0.2573    0.1573 H   0  0  0  0  0  0  0  0  0  0  0  0
   -3.4441   -1.2180   -2.3211 H   0  0  0  0  0  0  0  0  0  0  0  0
   -3.2623   -2.0486   -4.5559 H   0  0  0  0  0  0  0  0  0  0  0  0
   -2.5295   -0.5954    2.3046 H   0  0  0  0  0  0  0  0  0  0  0  0
   -2.4804   -2.1491    1.7810 H   0  0  0  0  0  0  0  0  0  0  0  0
   -2.2705    0.6565   -1.9510 H   0  0  0  0  0  0  0  0  0  0  0  0
  3  1  1  0  0  0  0 
  2  1  1  0  0  0  0 
  2  4  1  0  0  0  0 
  5  2  1  0  0  0  0 
  3  6  1  0  0  0  0 
  7  3  1  0  0  0  0 
  3 41  1  0  0  0  0 
  4  8  1  0  0  0  0 
  4  9  1  0  0  0  0 
  5 10  1  0  0  0  0 
 11  5  1  0  0  0  0 
 12  6  1  0  0  0  0 
  7 13  1  0  0  0  0 
 14  7  1  0  0  0  0 
  8 15  1  0  0  0  0 
 16  9  1  0  0  0  0 
 16 11  1  0  0  0  0 
 11 17  1  0  0  0  0 
 12 18  1  0  0  0  0 
 19 12  1  0  0  0  0 
 19 14  1  0  0  0  0 
 14 20  1  0  0  0  0 
 21 15  1  0  0  0  0 
 15 22  2  0  0  0  0 
 16 23  1  0  0  0  0 
 24 17  1  0  0  0  0 
 18 25  1  0  0  0  0 
 19 26  1  0  0  0  0 
 21 27  1  0  0  0  0 
 21 28  1  0  0  0  0 
 24 29  1  0  0  0  0 
 30 24  1  0  0  0  0 
 24 42  1  0  0  0  0 
 27 31  1  0  0  0  0 
 32 29  1  0  0  0  0 
 30 33  1  0  0  0  0 
 30 34  1  0  0  0  0 
 31 35  1  0  0  0  0 
 32 36  1  0  0  0  0 
 37 32  1  0  0  0  0 
 34 37  1  0  0  0  0 
 34 38  1  0  0  0  0 
 36 39  1  0  0  0  0 
 37 40  1  0  0  0  0 
  2 43  1  0  0  0  0 
  4 44  1  0  0  0  0 
  5 45  1  0  0  0  0 
  7 46  1  0  0  0  0 
  8 47  1  0  0  0  0 
  9 48  1  0  0  0  0 
  9 49  1  0  0  0  0 
 10 50  1  0  0  0  0 
 11 51  1  0  0  0  0 
 12 52  1  0  0  0  0 
 13 53  1  0  0  0  0 
 14 54  1  0  0  0  0 
 16 55  1  0  0  0  0 
 18 56  1  0  0  0  0 
 18 57  1  0  0  0  0 
 19 58  1  0  0  0  0 
 20 59  1  0  0  0  0 
 20 60  1  0  0  0  0 
 21 61  1  0  0  0  0 
 23 62  1  0  0  0  0 
 23 63  1  0  0  0  0 
 25 64  1  0  0  0  0 
 26 65  1  0  0  0  0 
 27 66  1  0  0  0  0 
 27 67  1  0  0  0  0 
 28 68  1  0  0  0  0 
 30 69  1  0  0  0  0 
 31 70  1  0  0  0  0 
 31 71  1  0  0  0  0 
 32 72  1  0  0  0  0 
 33 73  1  0  0  0  0 
 34 74  1  0  0  0  0 
 35 75  1  0  0  0  0 
 35 76  1  0  0  0  0 
 36 77  1  0  0  0  0 
 36 78  1  0  0  0  0 
 37 79  1  0  0  0  0 
 38 80  1  0  0  0  0 
 39 81  1  0  0  0  0 
 39 82  1  0  0  0  0 
 40 83  1  0  0  0  0 
M  END
> <cdk:Title>
amikacin

> <Conformer>
1

> <SuperDrugID>
SD000123

$$$$
