ecabet
  CDK     0628171802

 54 56  0  0  0  0  0  0  0  0999 V2000
    1.9911   -0.5914   -2.8494 C   0  0  0  0  0  0  0  0  0  0  0  0
    1.1088    0.7111   -2.8602 C   0  0  1  0  0  0  0  0  0  0  0  0
    1.7297    1.5655   -1.7528 C   0  0  0  0  0  0  0  0  0  0  0  0
    1.1020    1.5418   -4.2232 C   0  0  2  0  0  0  0  0  0  0  0  0
   -0.3910    0.3156   -2.5611 C   0  0  2  0  0  0  0  0  0  0  0  0
    2.6854    2.5819   -2.0400 C   0  0  0  0  0  0  0  0  0  0  0  0
    1.4440    1.3314   -0.3821 C   0  0  0  0  0  0  0  0  0  0  0  0
    0.3052    0.9715   -5.4796 C   0  0  1  0  0  0  0  0  0  0  0  0
    2.5402    2.0437   -4.5541 C   0  0  1  0  0  0  0  0  0  0  0  0
   -1.1398   -0.3549   -3.7439 C   0  0  2  0  0  0  0  0  0  0  0  0
    3.2982    3.2988   -0.9873 C   0  0  0  0  0  0  0  0  0  0  0  0
    3.0854    2.9491   -3.4268 C   0  0  2  0  0  0  0  0  0  0  0  0
    2.0572    2.0412    0.6746 C   0  0  0  0  0  0  0  0  0  0  0  0
    0.1148    2.0783   -6.4931 C   0  0  0  0  0  0  0  0  0  0  0  0
    1.0184   -0.2286   -6.2043 C   0  0  0  0  0  0  0  0  0  0  0  0
   -1.1296    0.5322   -5.0118 C   0  0  2  0  0  0  0  0  0  0  0  0
    3.0346    3.0331    0.3782 C   0  0  0  0  0  0  0  0  0  0  0  0
    1.5481    1.6332    2.3315 S   0  0  1  0  0  0  0  0  0  0  0  0
    0.5862    2.0141   -7.7646 O   0  0  0  0  0  0  0  0  0  0  0  0
   -0.4864    3.1383   -6.2004 O   0  0  0  0  0  0  0  0  0  0  0  0
    3.8119    3.7939    1.4258 C   0  0  2  0  0  0  0  0  0  0  0  0
    2.7872    1.1325    3.2177 O   0  0  0  0  0  0  0  0  0  0  0  0
    0.8868    2.9126    3.0370 O   0  0  0  0  0  0  0  0  0  0  0  0
    0.3789    0.3829    2.3556 O   0  0  0  0  0  0  0  0  0  0  0  0
    3.5548    5.3252    1.3760 C   0  0  0  0  0  0  0  0  0  0  0  0
    5.3287    3.4588    1.3656 C   0  0  0  0  0  0  0  0  0  0  0  0
    0.5490    2.4559   -3.9637 H   0  0  0  0  0  0  0  0  0  0  0  0
    1.6456   -1.3389   -3.5520 H   0  0  0  0  0  0  0  0  0  0  0  0
    1.9660   -1.0691   -1.8659 H   0  0  0  0  0  0  0  0  0  0  0  0
    3.0380   -0.3780   -3.0709 H   0  0  0  0  0  0  0  0  0  0  0  0
   -0.9500    1.2089   -2.2652 H   0  0  0  0  0  0  0  0  0  0  0  0
   -0.4532   -0.3875   -1.7265 H   0  0  0  0  0  0  0  0  0  0  0  0
    0.7782    0.6045   -0.1358 H   0  0  0  0  0  0  0  0  0  0  0  0
    3.2153    1.2004   -4.7002 H   0  0  0  0  0  0  0  0  0  0  0  0
    2.5578    2.6190   -5.4829 H   0  0  0  0  0  0  0  0  0  0  0  0
   -2.1794   -0.5297   -3.4482 H   0  0  0  0  0  0  0  0  0  0  0  0
   -0.7056   -1.3322   -3.9608 H   0  0  0  0  0  0  0  0  0  0  0  0
    3.9707    4.0313   -1.2304 H   0  0  0  0  0  0  0  0  0  0  0  0
    4.1752    2.9480   -3.5044 H   0  0  0  0  0  0  0  0  0  0  0  0
    2.7369    3.9685   -3.6093 H   0  0  0  0  0  0  0  0  0  0  0  0
    2.0455    0.0246   -6.4695 H   0  0  0  0  0  0  0  0  0  0  0  0
    1.0375   -1.1381   -5.6163 H   0  0  0  0  0  0  0  0  0  0  0  0
    0.4943   -0.4850   -7.1279 H   0  0  0  0  0  0  0  0  0  0  0  0
   -1.6443    0.0035   -5.8194 H   0  0  0  0  0  0  0  0  0  0  0  0
   -1.7403    1.4101   -4.7747 H   0  0  0  0  0  0  0  0  0  0  0  0
    0.4442    2.7589   -8.3849 H   0  0  0  0  0  0  0  0  0  0  0  0
    3.5059    3.4960    2.4269 H   0  0  0  0  0  0  0  0  0  0  0  0
    0.8959   -0.4411    2.2340 H   0  0  0  0  0  0  0  0  0  0  0  0
    4.0656    5.8212    2.2061 H   0  0  0  0  0  0  0  0  0  0  0  0
    3.9253    5.7545    0.4439 H   0  0  0  0  0  0  0  0  0  0  0  0
    2.4840    5.5288    1.4626 H   0  0  0  0  0  0  0  0  0  0  0  0
    5.8560    3.9519    2.1841 H   0  0  0  0  0  0  0  0  0  0  0  0
    5.4826    2.3822    1.4655 H   0  0  0  0  0  0  0  0  0  0  0  0
    5.7713    3.7878    0.4248 H   0  0  0  0  0  0  0  0  0  0  0  0
  2  1  1  0  0  0  0 
  2  3  1  0  0  0  0 
  4  2  1  0  0  0  0 
  2  5  1  0  0  0  0 
  3  6  2  0  0  0  0 
  3  7  1  0  0  0  0 
  8  4  1  0  0  0  0 
  4  9  1  0  0  0  0 
  4 27  1  0  0  0  0 
  5 10  1  0  0  0  0 
  6 11  1  0  0  0  0 
  6 12  1  0  0  0  0 
  7 13  2  0  0  0  0 
  8 14  1  0  0  0  0 
  8 15  1  0  0  0  0 
  8 16  1  0  0  0  0 
  9 12  1  0  0  0  0 
 10 16  1  0  0  0  0 
 11 17  2  0  0  0  0 
 13 17  1  0  0  0  0 
 13 18  1  0  0  0  0 
 14 19  1  0  0  0  0 
 14 20  2  0  0  0  0 
 17 21  1  0  0  0  0 
 18 22  2  0  0  0  0 
 18 23  2  0  0  0  0 
 18 24  1  0  0  0  0 
 21 25  1  0  0  0  0 
 21 26  1  0  0  0  0 
  1 28  1  0  0  0  0 
  1 29  1  0  0  0  0 
  1 30  1  0  0  0  0 
  5 31  1  0  0  0  0 
  5 32  1  0  0  0  0 
  7 33  1  0  0  0  0 
  9 34  1  0  0  0  0 
  9 35  1  0  0  0  0 
 10 36  1  0  0  0  0 
 10 37  1  0  0  0  0 
 11 38  1  0  0  0  0 
 12 39  1  0  0  0  0 
 12 40  1  0  0  0  0 
 15 41  1  0  0  0  0 
 15 42  1  0  0  0  0 
 15 43  1  0  0  0  0 
 16 44  1  0  0  0  0 
 16 45  1  0  0  0  0 
 19 46  1  0  0  0  0 
 21 47  1  0  0  0  0 
 24 48  1  0  0  0  0 
 25 49  1  0  0  0  0 
 25 50  1  0  0  0  0 
 25 51  1  0  0  0  0 
 26 52  1  0  0  0  0 
 26 53  1  0  0  0  0 
 26 54  1  0  0  0  0 
M  END
> <cdk:Title>
ecabet

> <Conformer>
1

> <SuperDrugID>
SD000870

$$$$
