dimetotiazine
  CDK     0628171801

 51 53  0  0  0  0  0  0  0  0999 V2000
    3.9475    0.5583    0.7925 C   0  0  0  0  0  0  0  0  0  0  0  0
    2.7751    0.8723    1.7632 C   0  0  1  0  0  0  0  0  0  0  0  0
    3.1848    0.7236    3.2686 C   0  0  1  0  0  0  0  0  0  0  0  0
    3.7543   -0.5675    3.6465 N   0  0  0  0  0  0  0  0  0  0  0  0
    4.9772   -0.6337    4.3051 C   0  0  0  0  0  0  0  0  0  0  0  0
    5.2855    0.2402    5.3787 C   0  0  0  0  0  0  0  0  0  0  0  0
    6.5119    0.1474    6.0595 C   0  0  0  0  0  0  0  0  0  0  0  0
    7.4521   -0.8269    5.6840 C   0  0  0  0  0  0  0  0  0  0  0  0
    7.1684   -1.7070    4.6248 C   0  0  0  0  0  0  0  0  0  0  0  0
    5.9392   -1.6125    3.9444 C   0  0  0  0  0  0  0  0  0  0  0  0
    5.5457   -2.7457    2.6527 S   0  0  0  0  0  0  0  0  0  0  0  0
    3.7926   -2.8478    2.7740 C   0  0  0  0  0  0  0  0  0  0  0  0
    3.0930   -1.7507    3.3349 C   0  0  0  0  0  0  0  0  0  0  0  0
    1.7088   -1.9049    3.5745 C   0  0  0  0  0  0  0  0  0  0  0  0
    1.0335   -3.0944    3.2406 C   0  0  0  0  0  0  0  0  0  0  0  0
    1.7355   -4.1388    2.6076 C   0  0  0  0  0  0  0  0  0  0  0  0
    3.1166   -4.0152    2.3715 C   0  0  0  0  0  0  0  0  0  0  0  0
   -0.6720   -3.2483    3.6899 S   0  0  1  0  0  0  0  0  0  0  0  0
   -1.3993   -4.4132    2.8621 O   0  0  0  0  0  0  0  0  0  0  0  0
   -0.7418   -3.5987    5.2548 O   0  0  0  0  0  0  0  0  0  0  0  0
   -1.4748   -1.6938    3.3924 N   0  0  1  0  0  0  0  0  0  0  0  0
   -1.7231   -1.4718    1.9457 C   0  0  0  0  0  0  0  0  0  0  0  0
   -2.6660   -1.4717    4.2485 C   0  0  0  0  0  0  0  0  0  0  0  0
    2.1246    2.1924    1.4292 N   0  0  1  0  0  0  0  0  0  0  0  0
    0.7747    2.4103    2.0298 C   0  0  0  0  0  0  0  0  0  0  0  0
    2.9763    3.4203    1.4758 C   0  0  0  0  0  0  0  0  0  0  0  0
    4.2480   -0.4869    0.8732 H   0  0  0  0  0  0  0  0  0  0  0  0
    4.8170    1.1812    1.0069 H   0  0  0  0  0  0  0  0  0  0  0  0
    3.6365    0.7363   -0.2387 H   0  0  0  0  0  0  0  0  0  0  0  0
    2.0279    0.1011    1.5503 H   0  0  0  0  0  0  0  0  0  0  0  0
    3.8873    1.5315    3.4805 H   0  0  0  0  0  0  0  0  0  0  0  0
    2.3130    0.9100    3.8983 H   0  0  0  0  0  0  0  0  0  0  0  0
    4.6091    0.9428    5.6870 H   0  0  0  0  0  0  0  0  0  0  0  0
    6.7163    0.7841    6.8328 H   0  0  0  0  0  0  0  0  0  0  0  0
    8.3415   -0.8984    6.1838 H   0  0  0  0  0  0  0  0  0  0  0  0
    7.8537   -2.4184    4.3625 H   0  0  0  0  0  0  0  0  0  0  0  0
    1.1831   -1.1478    4.0138 H   0  0  0  0  0  0  0  0  0  0  0  0
    1.2558   -4.9999    2.3378 H   0  0  0  0  0  0  0  0  0  0  0  0
    3.6286   -4.7814    1.9273 H   0  0  0  0  0  0  0  0  0  0  0  0
   -2.0717   -0.4526    1.7710 H   0  0  0  0  0  0  0  0  0  0  0  0
   -0.8026   -1.6030    1.3751 H   0  0  0  0  0  0  0  0  0  0  0  0
   -2.4732   -2.1675    1.5653 H   0  0  0  0  0  0  0  0  0  0  0  0
   -2.3757   -1.4822    5.2998 H   0  0  0  0  0  0  0  0  0  0  0  0
   -3.1065   -0.4931    4.0459 H   0  0  0  0  0  0  0  0  0  0  0  0
   -3.4222   -2.2403    4.0827 H   0  0  0  0  0  0  0  0  0  0  0  0
    0.1704    1.5013    1.9910 H   0  0  0  0  0  0  0  0  0  0  0  0
    0.2386    3.1790    1.4675 H   0  0  0  0  0  0  0  0  0  0  0  0
    0.8541    2.7327    3.0713 H   0  0  0  0  0  0  0  0  0  0  0  0
    3.8377    3.3242    0.8128 H   0  0  0  0  0  0  0  0  0  0  0  0
    2.4148    4.2957    1.1387 H   0  0  0  0  0  0  0  0  0  0  0  0
    3.3290    3.6139    2.4899 H   0  0  0  0  0  0  0  0  0  0  0  0
  2  1  1  0  0  0  0 
  2  3  1  0  0  0  0 
  3  4  1  0  0  0  0 
  4  5  1  0  0  0  0 
  5  6  2  0  0  0  0 
  6  7  1  0  0  0  0 
  7  8  2  0  0  0  0 
  8  9  1  0  0  0  0 
  9 10  2  0  0  0  0 
  5 10  1  0  0  0  0 
 10 11  1  0  0  0  0 
 11 12  1  0  0  0  0 
 12 13  2  0  0  0  0 
  4 13  1  0  0  0  0 
 13 14  1  0  0  0  0 
 14 15  2  0  0  0  0 
 15 16  1  0  0  0  0 
 16 17  2  0  0  0  0 
 12 17  1  0  0  0  0 
 15 18  1  0  0  0  0 
 18 19  2  0  0  0  0 
 18 20  2  0  0  0  0 
 18 21  1  0  0  0  0 
 21 22  1  0  0  0  0 
 21 23  1  0  0  0  0 
  2 24  1  0  0  0  0 
 24 25  1  0  0  0  0 
 24 26  1  0  0  0  0 
  1 27  1  0  0  0  0 
  1 28  1  0  0  0  0 
  1 29  1  0  0  0  0 
  2 30  1  0  0  0  0 
  3 31  1  0  0  0  0 
  3 32  1  0  0  0  0 
  6 33  1  0  0  0  0 
  7 34  1  0  0  0  0 
  8 35  1  0  0  0  0 
  9 36  1  0  0  0  0 
 14 37  1  0  0  0  0 
 16 38  1  0  0  0  0 
 17 39  1  0  0  0  0 
 22 40  1  0  0  0  0 
 22 41  1  0  0  0  0 
 22 42  1  0  0  0  0 
 23 43  1  0  0  0  0 
 23 44  1  0  0  0  0 
 23 45  1  0  0  0  0 
 25 46  1  0  0  0  0 
 25 47  1  0  0  0  0 
 25 48  1  0  0  0  0 
 26 49  1  0  0  0  0 
 26 50  1  0  0  0  0 
 26 51  1  0  0  0  0 
M  END
> <cdk:Title>
dimetotiazine

> <Conformer>
1

> <SuperDrugID>
SD001108

$$$$
