amixetrine
  CDK     0628171801

 46 47  0  0  0  0  0  0  0  0999 V2000
   -1.8745    0.9949    0.1720 C   0  0  1  0  0  0  0  0  0  0  0  0
   -2.4362    0.5417   -1.2175 C   0  0  1  0  0  0  0  0  0  0  0  0
   -0.4861    1.4196    0.1379 O   0  0  0  0  0  0  0  0  0  0  0  0
   -2.7042    2.1219    0.7014 C   0  0  0  0  0  0  0  0  0  0  0  0
   -1.9663   -0.8113   -1.6397 N   0  0  2  0  0  0  0  0  0  0  0  0
    0.4963    0.4173   -0.2043 C   0  0  2  0  0  0  0  0  0  0  0  0
   -2.5952    3.4224    0.1514 C   0  0  0  0  0  0  0  0  0  0  0  0
   -3.6540    1.9098    1.7334 C   0  0  0  0  0  0  0  0  0  0  0  0
   -2.0837   -1.1353   -3.0816 C   0  0  1  0  0  0  0  0  0  0  0  0
   -2.4671   -1.9834   -0.8892 C   0  0  1  0  0  0  0  0  0  0  0  0
    1.9212    1.0029   -0.0718 C   0  0  2  0  0  0  0  0  0  0  0  0
   -3.4155    4.4710    0.6071 C   0  0  0  0  0  0  0  0  0  0  0  0
   -4.4811    2.9556    2.1822 C   0  0  0  0  0  0  0  0  0  0  0  0
   -2.0913   -2.6762   -3.1771 C   0  0  1  0  0  0  0  0  0  0  0  0
   -1.9670   -3.1680   -1.7252 C   0  0  1  0  0  0  0  0  0  0  0  0
    3.0813    0.0005   -0.3810 C   0  0  2  0  0  0  0  0  0  0  0  0
   -4.3595    4.2389    1.6219 C   0  0  0  0  0  0  0  0  0  0  0  0
    4.4499    0.7187   -0.2037 C   0  0  0  0  0  0  0  0  0  0  0  0
    2.9759   -0.6376   -1.7977 C   0  0  0  0  0  0  0  0  0  0  0  0
   -1.9451    0.1622    0.8773 H   0  0  0  0  0  0  0  0  0  0  0  0
   -3.5304    0.5454   -1.2107 H   0  0  0  0  0  0  0  0  0  0  0  0
   -2.1157    1.2794   -1.9594 H   0  0  0  0  0  0  0  0  0  0  0  0
    0.3557    0.1174   -1.2422 H   0  0  0  0  0  0  0  0  0  0  0  0
    0.4025   -0.4588    0.4445 H   0  0  0  0  0  0  0  0  0  0  0  0
   -1.9158    3.6125   -0.5893 H   0  0  0  0  0  0  0  0  0  0  0  0
   -3.7604    0.9860    2.1593 H   0  0  0  0  0  0  0  0  0  0  0  0
   -3.0022   -0.7312   -3.5184 H   0  0  0  0  0  0  0  0  0  0  0  0
   -1.2238   -0.7190   -3.6123 H   0  0  0  0  0  0  0  0  0  0  0  0
   -2.0486   -2.0373    0.1178 H   0  0  0  0  0  0  0  0  0  0  0  0
   -3.5603   -1.9858   -0.8295 H   0  0  0  0  0  0  0  0  0  0  0  0
    2.0409    1.3777    0.9498 H   0  0  0  0  0  0  0  0  0  0  0  0
    2.0046    1.8565   -0.7502 H   0  0  0  0  0  0  0  0  0  0  0  0
   -3.3293    5.4029    0.1972 H   0  0  0  0  0  0  0  0  0  0  0  0
   -5.1746    2.7816    2.9129 H   0  0  0  0  0  0  0  0  0  0  0  0
   -3.0323   -3.0285   -3.6084 H   0  0  0  0  0  0  0  0  0  0  0  0
   -1.2619   -3.0461   -3.7845 H   0  0  0  0  0  0  0  0  0  0  0  0
   -0.9180   -3.3726   -1.4818 H   0  0  0  0  0  0  0  0  0  0  0  0
   -2.5630   -4.0658   -1.5380 H   0  0  0  0  0  0  0  0  0  0  0  0
    3.0407   -0.8150    0.3513 H   0  0  0  0  0  0  0  0  0  0  0  0
   -4.9563    5.0005    1.9524 H   0  0  0  0  0  0  0  0  0  0  0  0
    4.5462    1.1076    0.8139 H   0  0  0  0  0  0  0  0  0  0  0  0
    5.2759    0.0249   -0.3788 H   0  0  0  0  0  0  0  0  0  0  0  0
    4.5387    1.5522   -0.9066 H   0  0  0  0  0  0  0  0  0  0  0  0
    2.1309   -1.3276   -1.8441 H   0  0  0  0  0  0  0  0  0  0  0  0
    3.8754   -1.2083   -2.0344 H   0  0  0  0  0  0  0  0  0  0  0  0
    2.8453    0.1335   -2.5599 H   0  0  0  0  0  0  0  0  0  0  0  0
  1  2  1  0  0  0  0 
  1  3  1  0  0  0  0 
  1  4  1  0  0  0  0 
  2  5  1  0  0  0  0 
  3  6  1  0  0  0  0 
  4  7  2  0  0  0  0 
  4  8  1  0  0  0  0 
  5  9  1  0  0  0  0 
  5 10  1  0  0  0  0 
  6 11  1  0  0  0  0 
  7 12  1  0  0  0  0 
  8 13  2  0  0  0  0 
  9 14  1  0  0  0  0 
 10 15  1  0  0  0  0 
 11 16  1  0  0  0  0 
 12 17  2  0  0  0  0 
 13 17  1  0  0  0  0 
 14 15  1  0  0  0  0 
 16 18  1  0  0  0  0 
 16 19  1  0  0  0  0 
  1 20  1  0  0  0  0 
  2 21  1  0  0  0  0 
  2 22  1  0  0  0  0 
  6 23  1  0  0  0  0 
  6 24  1  0  0  0  0 
  7 25  1  0  0  0  0 
  8 26  1  0  0  0  0 
  9 27  1  0  0  0  0 
  9 28  1  0  0  0  0 
 10 29  1  0  0  0  0 
 10 30  1  0  0  0  0 
 11 31  1  0  0  0  0 
 11 32  1  0  0  0  0 
 12 33  1  0  0  0  0 
 13 34  1  0  0  0  0 
 14 35  1  0  0  0  0 
 14 36  1  0  0  0  0 
 15 37  1  0  0  0  0 
 15 38  1  0  0  0  0 
 16 39  1  0  0  0  0 
 17 40  1  0  0  0  0 
 18 41  1  0  0  0  0 
 18 42  1  0  0  0  0 
 18 43  1  0  0  0  0 
 19 44  1  0  0  0  0 
 19 45  1  0  0  0  0 
 19 46  1  0  0  0  0 
M  END
> <cdk:Title>
amixetrine

> <Conformer>
1

> <SuperDrugID>
SD003141

$$$$
