chlorbetamide
  CDK     0628171802

 29 29  0  0  0  0  0  0  0  0999 V2000
   -0.9150    0.5324    0.9228 C   0  0  1  0  0  0  0  0  0  0  0  0
   -1.3631   -0.7110    0.3125 N   0  0  0  0  0  0  0  0  0  0  0  0
    0.5706    0.7173    0.9974 C   0  0  0  0  0  0  0  0  0  0  0  0
   -2.3355   -1.5444    0.8819 C   0  0  0  0  0  0  0  0  0  0  0  0
   -0.8332   -1.0456   -1.0077 C   0  0  1  0  0  0  0  0  0  0  0  0
    1.4122   -0.1145    1.7879 C   0  0  0  0  0  0  0  0  0  0  0  0
    1.1768    1.7636    0.2590 C   0  0  0  0  0  0  0  0  0  0  0  0
   -3.2262   -1.2447    2.0429 C   0  0  2  0  0  0  0  0  0  0  0  0
   -2.5695   -2.6550    0.3433 O   0  0  0  0  0  0  0  0  0  0  0  0
    0.2227   -2.1782   -0.9967 C   0  0  2  0  0  0  0  0  0  0  0  0
    0.8231   -1.4100    2.7106 Cl  0  0  0  0  0  0  0  0  0  0  0  0
    2.8053    0.1055    1.8238 C   0  0  0  0  0  0  0  0  0  0  0  0
    2.5672    1.9751    0.2949 C   0  0  0  0  0  0  0  0  0  0  0  0
   -4.1434    0.2372    1.7935 Cl  0  0  0  0  0  0  0  0  0  0  0  0
   -2.4121   -1.1975    3.6017 Cl  0  0  0  0  0  0  0  0  0  0  0  0
    0.5905   -2.5143   -2.3286 O   0  0  0  0  0  0  0  0  0  0  0  0
    3.3878    1.1442    1.0777 C   0  0  0  0  0  0  0  0  0  0  0  0
    5.0630    1.3896    1.1171 Cl  0  0  0  0  0  0  0  0  0  0  0  0
   -1.3768    1.3402    0.3452 H   0  0  0  0  0  0  0  0  0  0  0  0
   -1.2783    0.6573    1.9388 H   0  0  0  0  0  0  0  0  0  0  0  0
   -1.6584   -1.3319   -1.6697 H   0  0  0  0  0  0  0  0  0  0  0  0
   -0.3731   -0.1749   -1.4875 H   0  0  0  0  0  0  0  0  0  0  0  0
    0.6095    2.3889   -0.3200 H   0  0  0  0  0  0  0  0  0  0  0  0
   -3.9755   -2.0340    2.1521 H   0  0  0  0  0  0  0  0  0  0  0  0
   -0.1589   -3.0762   -0.5098 H   0  0  0  0  0  0  0  0  0  0  0  0
    1.1163   -1.8467   -0.4703 H   0  0  0  0  0  0  0  0  0  0  0  0
    3.4014   -0.4985    2.3941 H   0  0  0  0  0  0  0  0  0  0  0  0
    2.9760    2.7363   -0.2536 H   0  0  0  0  0  0  0  0  0  0  0  0
    1.2713   -3.2105   -2.2339 H   0  0  0  0  0  0  0  0  0  0  0  0
  1  2  1  0  0  0  0 
  1  3  1  0  0  0  0 
  2  4  1  0  0  0  0 
  2  5  1  0  0  0  0 
  3  6  2  0  0  0  0 
  3  7  1  0  0  0  0 
  4  8  1  0  0  0  0 
  4  9  2  0  0  0  0 
  5 10  1  0  0  0  0 
  6 11  1  0  0  0  0 
  6 12  1  0  0  0  0 
  7 13  2  0  0  0  0 
  8 14  1  0  0  0  0 
  8 15  1  0  0  0  0 
 10 16  1  0  0  0  0 
 12 17  2  0  0  0  0 
 13 17  1  0  0  0  0 
 17 18  1  0  0  0  0 
  1 19  1  0  0  0  0 
  1 20  1  0  0  0  0 
  5 21  1  0  0  0  0 
  5 22  1  0  0  0  0 
  7 23  1  0  0  0  0 
  8 24  1  0  0  0  0 
 10 25  1  0  0  0  0 
 10 26  1  0  0  0  0 
 12 27  1  0  0  0  0 
 13 28  1  0  0  0  0 
 16 29  1  0  0  0  0 
M  END
> <cdk:Title>
chlorbetamide

> <Conformer>
1

> <SuperDrugID>
SD000517

$$$$
