carfenazine
  CDK     0628171802

 61 64  0  0  0  0  0  0  0  0999 V2000
   -1.1173   -9.3667    2.4426 C   0  0  0  0  0  0  0  0  0  0  0  0
   -2.0570   -8.3493    1.7551 C   0  0  1  0  0  0  0  0  0  0  0  0
   -3.2323   -8.9217    1.0373 C   0  0  0  0  0  0  0  0  0  0  0  0
   -3.2219  -10.1466    0.7621 O   0  0  0  0  0  0  0  0  0  0  0  0
   -4.3783   -8.1332    0.6925 C   0  0  0  0  0  0  0  0  0  0  0  0
   -5.6169   -8.7556    0.4063 C   0  0  0  0  0  0  0  0  0  0  0  0
   -6.7730   -7.9919    0.1816 C   0  0  0  0  0  0  0  0  0  0  0  0
   -6.7039   -6.5898    0.2249 C   0  0  0  0  0  0  0  0  0  0  0  0
   -8.1705   -5.6562   -0.0254 S   0  0  0  0  0  0  0  0  0  0  0  0
   -7.5503   -4.1710   -0.7263 C   0  0  0  0  0  0  0  0  0  0  0  0
   -8.3955   -3.4151   -1.5596 C   0  0  0  0  0  0  0  0  0  0  0  0
   -7.9011   -2.2601   -2.1817 C   0  0  0  0  0  0  0  0  0  0  0  0
   -6.5668   -1.8690   -1.9804 C   0  0  0  0  0  0  0  0  0  0  0  0
   -5.7318   -2.6263   -1.1354 C   0  0  0  0  0  0  0  0  0  0  0  0
   -6.2095   -3.7820   -0.4650 C   0  0  0  0  0  0  0  0  0  0  0  0
   -5.4188   -4.5104    0.4310 N   0  0  0  0  0  0  0  0  0  0  0  0
   -4.5719   -3.7991    1.3868 C   0  0  2  0  0  0  0  0  0  0  0  0
   -5.3051   -2.7464    2.2696 C   0  0  1  0  0  0  0  0  0  0  0  0
   -6.5102   -3.3005    3.0785 C   0  0  1  0  0  0  0  0  0  0  0  0
   -6.2238   -4.5465    3.8642 N   0  0  1  0  0  0  0  0  0  0  0  0
   -5.2607   -4.3468    4.9916 C   0  0  1  0  0  0  0  0  0  0  0  0
   -4.9665   -5.6712    5.7391 C   0  0  1  0  0  0  0  0  0  0  0  0
   -6.2186   -6.3562    6.1914 N   0  0  2  0  0  0  0  0  0  0  0  0
   -5.9889   -7.6411    6.9350 C   0  0  1  0  0  0  0  0  0  0  0  0
   -5.1558   -7.5165    8.2343 C   0  0  1  0  0  0  0  0  0  0  0  0
   -5.2625   -8.7154    8.9993 O   0  0  0  0  0  0  0  0  0  0  0  0
   -7.1718   -6.5457    5.0530 C   0  0  2  0  0  0  0  0  0  0  0  0
   -7.4767   -5.2126    4.3320 C   0  0  1  0  0  0  0  0  0  0  0  0
   -5.4799   -5.9099    0.4402 C   0  0  0  0  0  0  0  0  0  0  0  0
   -4.3308   -6.7158    0.6517 C   0  0  0  0  0  0  0  0  0  0  0  0
   -0.6947  -10.0574    1.7110 H   0  0  0  0  0  0  0  0  0  0  0  0
   -0.2983   -8.8356    2.9330 H   0  0  0  0  0  0  0  0  0  0  0  0
   -1.6651   -9.9349    3.1978 H   0  0  0  0  0  0  0  0  0  0  0  0
   -2.4147   -7.6791    2.5416 H   0  0  0  0  0  0  0  0  0  0  0  0
   -1.4699   -7.7603    1.0471 H   0  0  0  0  0  0  0  0  0  0  0  0
   -5.6929   -9.7760    0.3702 H   0  0  0  0  0  0  0  0  0  0  0  0
   -7.6612   -8.4613   -0.0117 H   0  0  0  0  0  0  0  0  0  0  0  0
   -9.3643   -3.7034   -1.7234 H   0  0  0  0  0  0  0  0  0  0  0  0
   -8.5111   -1.7088   -2.7885 H   0  0  0  0  0  0  0  0  0  0  0  0
   -6.2046   -1.0341   -2.4495 H   0  0  0  0  0  0  0  0  0  0  0  0
   -4.7659   -2.3215   -1.0196 H   0  0  0  0  0  0  0  0  0  0  0  0
   -3.7606   -3.3032    0.8483 H   0  0  0  0  0  0  0  0  0  0  0  0
   -4.0823   -4.4807    2.0864 H   0  0  0  0  0  0  0  0  0  0  0  0
   -4.5799   -2.3017    2.9554 H   0  0  0  0  0  0  0  0  0  0  0  0
   -5.6653   -1.9321    1.6387 H   0  0  0  0  0  0  0  0  0  0  0  0
   -6.8825   -2.5119    3.7417 H   0  0  0  0  0  0  0  0  0  0  0  0
   -7.3053   -3.5014    2.3561 H   0  0  0  0  0  0  0  0  0  0  0  0
   -4.3071   -3.9740    4.6130 H   0  0  0  0  0  0  0  0  0  0  0  0
   -5.6515   -3.6111    5.7014 H   0  0  0  0  0  0  0  0  0  0  0  0
   -4.3882   -6.3281    5.0819 H   0  0  0  0  0  0  0  0  0  0  0  0
   -4.3455   -5.4213    6.6027 H   0  0  0  0  0  0  0  0  0  0  0  0
   -6.9603   -8.0550    7.2253 H   0  0  0  0  0  0  0  0  0  0  0  0
   -5.5002   -8.3698    6.2813 H   0  0  0  0  0  0  0  0  0  0  0  0
   -4.1016   -7.3514    8.0005 H   0  0  0  0  0  0  0  0  0  0  0  0
   -5.5216   -6.6838    8.8367 H   0  0  0  0  0  0  0  0  0  0  0  0
   -4.7235   -8.5619    9.8044 H   0  0  0  0  0  0  0  0  0  0  0  0
   -8.1203   -6.9470    5.4193 H   0  0  0  0  0  0  0  0  0  0  0  0
   -6.7586   -7.2553    4.3279 H   0  0  0  0  0  0  0  0  0  0  0  0
   -8.0328   -4.5518    5.0069 H   0  0  0  0  0  0  0  0  0  0  0  0
   -8.1145   -5.4428    3.4747 H   0  0  0  0  0  0  0  0  0  0  0  0
   -3.4313   -6.2512    0.7721 H   0  0  0  0  0  0  0  0  0  0  0  0
  1  2  1  0  0  0  0 
  2  3  1  0  0  0  0 
  3  4  2  0  0  0  0 
  3  5  1  0  0  0  0 
  5  6  2  0  0  0  0 
  6  7  1  0  0  0  0 
  7  8  2  0  0  0  0 
  8  9  1  0  0  0  0 
  9 10  1  0  0  0  0 
 10 11  2  0  0  0  0 
 11 12  1  0  0  0  0 
 12 13  2  0  0  0  0 
 13 14  1  0  0  0  0 
 14 15  2  0  0  0  0 
 10 15  1  0  0  0  0 
 15 16  1  0  0  0  0 
 16 17  1  0  0  0  0 
 17 18  1  0  0  0  0 
 18 19  1  0  0  0  0 
 19 20  1  0  0  0  0 
 20 21  1  0  0  0  0 
 21 22  1  0  0  0  0 
 22 23  1  0  0  0  0 
 23 24  1  0  0  0  0 
 24 25  1  0  0  0  0 
 25 26  1  0  0  0  0 
 23 27  1  0  0  0  0 
 27 28  1  0  0  0  0 
 20 28  1  0  0  0  0 
 16 29  1  0  0  0  0 
  8 29  1  0  0  0  0 
 29 30  2  0  0  0  0 
  5 30  1  0  0  0  0 
 31  1  1  0  0  0  0 
 32  1  1  0  0  0  0 
 33  1  1  0  0  0  0 
 34  2  1  0  0  0  0 
 35  2  1  0  0  0  0 
 36  6  1  0  0  0  0 
 37  7  1  0  0  0  0 
 38 11  1  0  0  0  0 
 39 12  1  0  0  0  0 
 40 13  1  0  0  0  0 
 41 14  1  0  0  0  0 
 42 17  1  0  0  0  0 
 43 17  1  0  0  0  0 
 44 18  1  0  0  0  0 
 45 18  1  0  0  0  0 
 46 19  1  0  0  0  0 
 47 19  1  0  0  0  0 
 48 21  1  0  0  0  0 
 49 21  1  0  0  0  0 
 50 22  1  0  0  0  0 
 51 22  1  0  0  0  0 
 52 24  1  0  0  0  0 
 53 24  1  0  0  0  0 
 54 25  1  0  0  0  0 
 55 25  1  0  0  0  0 
 56 26  1  0  0  0  0 
 57 27  1  0  0  0  0 
 58 27  1  0  0  0  0 
 59 28  1  0  0  0  0 
 60 28  1  0  0  0  0 
 61 30  1  0  0  0  0 
M  END
> <cdk:Title>
carfenazine

> <Conformer>
1

> <SuperDrugID>
SD000446

$$$$
