ivabradine
  CDK     0628171801

 70 73  0  0  0  0  0  0  0  0999 V2000
   -2.1534    0.9366    0.9767 C   0  0  2  0  0  0  0  0  0  0  0  0
   -0.8989    1.1737    0.1811 N   0  0  1  0  0  0  0  0  0  0  0  0
   -2.0382    1.5919    2.3773 C   0  0  2  0  0  0  0  0  0  0  0  0
    0.1162    0.0656    0.2057 C   0  0  1  0  0  0  0  0  0  0  0  0
   -1.1694    1.6920   -1.1933 C   0  0  0  0  0  0  0  0  0  0  0  0
   -3.3340    1.8915    3.0640 C   0  0  0  0  0  0  0  0  0  0  0  0
   -1.7274    3.1408    2.4267 C   0  0  1  0  0  0  0  0  0  0  0  0
    0.7035   -0.2394    1.6117 C   0  0  2  0  0  0  0  0  0  0  0  0
   -2.9812    3.2527    3.1599 C   0  0  0  0  0  0  0  0  0  0  0  0
   -4.5612    1.2734    3.5526 C   0  0  0  0  0  0  0  0  0  0  0  0
    1.9156   -1.2096    1.5917 C   0  0  1  0  0  0  0  0  0  0  0  0
   -3.8321    4.1222    3.8498 C   0  0  0  0  0  0  0  0  0  0  0  0
   -5.4151    2.2062    4.1977 C   0  0  0  0  0  0  0  0  0  0  0  0
    2.2825   -1.6421    2.9317 N   0  0  0  0  0  0  0  0  0  0  0  0
   -5.0322    3.5779    4.3925 C   0  0  0  0  0  0  0  0  0  0  0  0
   -6.6188    1.7537    4.6695 O   0  0  0  0  0  0  0  0  0  0  0  0
    1.6647   -2.7407    3.5082 C   0  0  0  0  0  0  0  0  0  0  0  0
    3.3057   -0.9240    3.6639 C   0  0  1  0  0  0  0  0  0  0  0  0
   -5.8424    4.4121    5.1137 O   0  0  0  0  0  0  0  0  0  0  0  0
   -7.7266    2.0765    3.8059 C   0  0  0  0  0  0  0  0  0  0  0  0
    0.7369   -3.3379    2.9094 O   0  0  0  0  0  0  0  0  0  0  0  0
    2.0645   -3.2894    4.8267 C   0  0  1  0  0  0  0  0  0  0  0  0
    2.7902   -0.2287    4.9506 C   0  0  2  0  0  0  0  0  0  0  0  0
   -5.5413    4.3881    6.5216 C   0  0  0  0  0  0  0  0  0  0  0  0
    1.7366   -2.3907    5.9715 C   0  0  0  0  0  0  0  0  0  0  0  0
    2.1463   -1.0233    6.0471 C   0  0  0  0  0  0  0  0  0  0  0  0
    1.0185   -2.9491    7.0599 C   0  0  0  0  0  0  0  0  0  0  0  0
    1.9021   -0.3120    7.2498 C   0  0  0  0  0  0  0  0  0  0  0  0
    0.7900   -2.2298    8.2442 C   0  0  0  0  0  0  0  0  0  0  0  0
    1.2613   -0.9077    8.3508 C   0  0  0  0  0  0  0  0  0  0  0  0
    0.1830   -2.8601    9.2989 O   0  0  0  0  0  0  0  0  0  0  0  0
    1.0829   -0.1902    9.5037 O   0  0  0  0  0  0  0  0  0  0  0  0
   -1.2172   -2.5667    9.4309 C   0  0  0  0  0  0  0  0  0  0  0  0
    2.1621   -0.3568   10.4416 C   0  0  0  0  0  0  0  0  0  0  0  0
   -2.3506   -0.1332    1.0991 H   0  0  0  0  0  0  0  0  0  0  0  0
   -3.0354    1.3494    0.4747 H   0  0  0  0  0  0  0  0  0  0  0  0
   -1.3915    1.0243    3.0501 H   0  0  0  0  0  0  0  0  0  0  0  0
   -0.3295   -0.8462   -0.2002 H   0  0  0  0  0  0  0  0  0  0  0  0
    0.9571    0.3306   -0.4402 H   0  0  0  0  0  0  0  0  0  0  0  0
   -1.7135    0.9447   -1.7760 H   0  0  0  0  0  0  0  0  0  0  0  0
   -0.2425    1.9422   -1.7145 H   0  0  0  0  0  0  0  0  0  0  0  0
   -1.7694    2.6058   -1.1426 H   0  0  0  0  0  0  0  0  0  0  0  0
   -0.8503    3.4003    3.0240 H   0  0  0  0  0  0  0  0  0  0  0  0
   -1.7682    3.6498    1.4577 H   0  0  0  0  0  0  0  0  0  0  0  0
   -0.0795   -0.6924    2.2220 H   0  0  0  0  0  0  0  0  0  0  0  0
    1.0125    0.6994    2.0801 H   0  0  0  0  0  0  0  0  0  0  0  0
   -4.7816    0.2823    3.4428 H   0  0  0  0  0  0  0  0  0  0  0  0
    1.6769   -2.0769    0.9683 H   0  0  0  0  0  0  0  0  0  0  0  0
    2.7554   -0.7175    1.0926 H   0  0  0  0  0  0  0  0  0  0  0  0
   -3.5849    5.1061    3.9698 H   0  0  0  0  0  0  0  0  0  0  0  0
    4.1258   -1.5989    3.9137 H   0  0  0  0  0  0  0  0  0  0  0  0
    3.7592   -0.1388    3.0507 H   0  0  0  0  0  0  0  0  0  0  0  0
   -8.6204    1.6134    4.2236 H   0  0  0  0  0  0  0  0  0  0  0  0
   -7.8971    3.1551    3.7589 H   0  0  0  0  0  0  0  0  0  0  0  0
   -7.5829    1.6882    2.7932 H   0  0  0  0  0  0  0  0  0  0  0  0
    1.6052   -4.2765    4.9476 H   0  0  0  0  0  0  0  0  0  0  0  0
    3.1387   -3.4831    4.8353 H   0  0  0  0  0  0  0  0  0  0  0  0
    2.0650    0.5325    4.6472 H   0  0  0  0  0  0  0  0  0  0  0  0
    3.6547    0.2996    5.3676 H   0  0  0  0  0  0  0  0  0  0  0  0
   -6.2288    5.0716    7.0198 H   0  0  0  0  0  0  0  0  0  0  0  0
   -5.6819    3.3897    6.9469 H   0  0  0  0  0  0  0  0  0  0  0  0
   -4.5197    4.7263    6.7196 H   0  0  0  0  0  0  0  0  0  0  0  0
    0.6640   -3.9072    7.0127 H   0  0  0  0  0  0  0  0  0  0  0  0
    2.2041    0.6616    7.3451 H   0  0  0  0  0  0  0  0  0  0  0  0
   -1.6097   -3.1646   10.2540 H   0  0  0  0  0  0  0  0  0  0  0  0
   -1.3779   -1.5139    9.6702 H   0  0  0  0  0  0  0  0  0  0  0  0
   -1.7725   -2.8246    8.5262 H   0  0  0  0  0  0  0  0  0  0  0  0
    1.9608    0.2718   11.3089 H   0  0  0  0  0  0  0  0  0  0  0  0
    2.2371   -1.3915   10.7837 H   0  0  0  0  0  0  0  0  0  0  0  0
    3.1183   -0.0456   10.0144 H   0  0  0  0  0  0  0  0  0  0  0  0
  1  2  1  0  0  0  0 
  2  4  1  0  0  0  0 
  2  5  1  0  0  0  0 
  3  1  1  0  0  0  0 
  3  6  1  0  0  0  0 
  3  7  1  0  0  0  0 
  4  8  1  0  0  0  0 
  6  9  2  0  0  0  0 
  6 10  1  0  0  0  0 
  7  9  1  0  0  0  0 
  8 11  1  0  0  0  0 
  9 12  1  0  0  0  0 
 10 13  2  0  0  0  0 
 11 14  1  0  0  0  0 
 12 15  2  0  0  0  0 
 13 15  1  0  0  0  0 
 13 16  1  0  0  0  0 
 14 17  1  0  0  0  0 
 14 18  1  0  0  0  0 
 15 19  1  0  0  0  0 
 16 20  1  0  0  0  0 
 17 21  2  0  0  0  0 
 17 22  1  0  0  0  0 
 18 23  1  0  0  0  0 
 19 24  1  0  0  0  0 
 22 25  1  0  0  0  0 
 23 26  1  0  0  0  0 
 25 26  2  0  0  0  0 
 25 27  1  0  0  0  0 
 26 28  1  0  0  0  0 
 27 29  2  0  0  0  0 
 28 30  2  0  0  0  0 
 29 30  1  0  0  0  0 
 29 31  1  0  0  0  0 
 30 32  1  0  0  0  0 
 31 33  1  0  0  0  0 
 32 34  1  0  0  0  0 
  1 35  1  0  0  0  0 
  1 36  1  0  0  0  0 
  3 37  1  0  0  0  0 
  4 38  1  0  0  0  0 
  4 39  1  0  0  0  0 
  5 40  1  0  0  0  0 
  5 41  1  0  0  0  0 
  5 42  1  0  0  0  0 
  7 43  1  0  0  0  0 
  7 44  1  0  0  0  0 
  8 45  1  0  0  0  0 
  8 46  1  0  0  0  0 
 10 47  1  0  0  0  0 
 11 48  1  0  0  0  0 
 11 49  1  0  0  0  0 
 12 50  1  0  0  0  0 
 18 51  1  0  0  0  0 
 18 52  1  0  0  0  0 
 20 53  1  0  0  0  0 
 20 54  1  0  0  0  0 
 20 55  1  0  0  0  0 
 22 56  1  0  0  0  0 
 22 57  1  0  0  0  0 
 23 58  1  0  0  0  0 
 23 59  1  0  0  0  0 
 24 60  1  0  0  0  0 
 24 61  1  0  0  0  0 
 24 62  1  0  0  0  0 
 27 63  1  0  0  0  0 
 28 64  1  0  0  0  0 
 33 65  1  0  0  0  0 
 33 66  1  0  0  0  0 
 33 67  1  0  0  0  0 
 34 68  1  0  0  0  0 
 34 69  1  0  0  0  0 
 34 70  1  0  0  0  0 
M  END
> <cdk:Title>
ivabradine

> <Conformer>
1

> <SuperDrugID>
SD002860

$$$$
