neltenexine
  CDK     0628171801

 45 47  0  0  0  0  0  0  0  0999 V2000
    3.3142    3.0649    6.0930 N   0  0  0  0  0  0  0  0  0  0  0  0
    4.3260    3.7124    5.4466 C   0  0  0  0  0  0  0  0  0  0  0  0
    2.2865    3.6596    6.7694 C   0  0  0  0  0  0  0  0  0  0  0  0
    4.3568    4.9638    5.3903 O   0  0  0  0  0  0  0  0  0  0  0  0
    5.3531    2.9804    4.8169 C   0  0  0  0  0  0  0  0  0  0  0  0
    2.4766    4.5105    7.8993 C   0  0  0  0  0  0  0  0  0  0  0  0
    0.9754    3.3945    6.3063 C   0  0  0  0  0  0  0  0  0  0  0  0
    6.5239    3.4891    4.2299 C   0  0  0  0  0  0  0  0  0  0  0  0
    5.4292    1.2362    4.6147 S   0  0  0  0  0  0  0  0  0  0  0  0
    3.8083    4.7891    8.5002 C   0  0  1  0  0  0  0  0  0  0  0  0
    1.3462    5.1216    8.4926 C   0  0  0  0  0  0  0  0  0  0  0  0
    0.6567    2.2752    4.8488 Br  0  0  0  0  0  0  0  0  0  0  0  0
   -0.1331    3.9974    6.9258 C   0  0  0  0  0  0  0  0  0  0  0  0
    7.3896    2.5362    3.6631 C   0  0  0  0  0  0  0  0  0  0  0  0
    6.9622    1.2122    3.7681 C   0  0  0  0  0  0  0  0  0  0  0  0
    4.2079    6.1567    8.1073 N   0  0  2  0  0  0  0  0  0  0  0  0
    0.0517    4.8664    8.0125 C   0  0  0  0  0  0  0  0  0  0  0  0
    5.5869    6.5800    8.4431 C   0  0  1  0  0  0  0  0  0  0  0  0
   -1.4158    5.6727    8.8231 Br  0  0  0  0  0  0  0  0  0  0  0  0
    5.9458    7.7577    7.4963 C   0  0  1  0  0  0  0  0  0  0  0  0
    5.7293    6.9998    9.9355 C   0  0  1  0  0  0  0  0  0  0  0  0
    7.3596    8.3210    7.7909 C   0  0  1  0  0  0  0  0  0  0  0  0
    7.1411    7.5642   10.2438 C   0  0  2  0  0  0  0  0  0  0  0  0
    7.5315    8.7195    9.2825 C   0  0  1  0  0  0  0  0  0  0  0  0
    8.8860    9.0934    9.5264 O   0  0  0  0  0  0  0  0  0  0  0  0
    3.2914    2.0963    6.0349 H   0  0  0  0  0  0  0  0  0  0  0  0
    6.7447    4.4871    4.2168 H   0  0  0  0  0  0  0  0  0  0  0  0
    3.7537    4.7122    9.5895 H   0  0  0  0  0  0  0  0  0  0  0  0
    4.5538    4.0660    8.1642 H   0  0  0  0  0  0  0  0  0  0  0  0
    1.4596    5.7524    9.2910 H   0  0  0  0  0  0  0  0  0  0  0  0
   -1.0777    3.8107    6.5835 H   0  0  0  0  0  0  0  0  0  0  0  0
    8.2695    2.7891    3.2099 H   0  0  0  0  0  0  0  0  0  0  0  0
    7.4485    0.3853    3.4211 H   0  0  0  0  0  0  0  0  0  0  0  0
    3.5613    6.8220    8.5372 H   0  0  0  0  0  0  0  0  0  0  0  0
    6.2841    5.7617    8.2311 H   0  0  0  0  0  0  0  0  0  0  0  0
    5.9145    7.4102    6.4588 H   0  0  0  0  0  0  0  0  0  0  0  0
    5.2089    8.5595    7.6023 H   0  0  0  0  0  0  0  0  0  0  0  0
    4.9785    7.7576   10.1769 H   0  0  0  0  0  0  0  0  0  0  0  0
    5.5534    6.1356   10.5814 H   0  0  0  0  0  0  0  0  0  0  0  0
    8.1053    7.5654    7.5273 H   0  0  0  0  0  0  0  0  0  0  0  0
    7.5308    9.1969    7.1587 H   0  0  0  0  0  0  0  0  0  0  0  0
    7.8744    6.7571   10.1583 H   0  0  0  0  0  0  0  0  0  0  0  0
    7.1658    7.9299   11.2740 H   0  0  0  0  0  0  0  0  0  0  0  0
    6.9047    9.5908    9.4962 H   0  0  0  0  0  0  0  0  0  0  0  0
    9.0629    9.8327    8.9071 H   0  0  0  0  0  0  0  0  0  0  0  0
  1  2  1  0  0  0  0 
  1  3  1  0  0  0  0 
  2  4  2  0  0  0  0 
  2  5  1  0  0  0  0 
  3  6  2  0  0  0  0 
  3  7  1  0  0  0  0 
  5  8  2  0  0  0  0 
  5  9  1  0  0  0  0 
  6 10  1  0  0  0  0 
  6 11  1  0  0  0  0 
  7 12  1  0  0  0  0 
  7 13  2  0  0  0  0 
  8 14  1  0  0  0  0 
  9 15  1  0  0  0  0 
 10 16  1  0  0  0  0 
 11 17  2  0  0  0  0 
 13 17  1  0  0  0  0 
 14 15  2  0  0  0  0 
 17 19  1  0  0  0  0 
 18 16  1  0  0  0  0 
 18 20  1  0  0  0  0 
 18 21  1  0  0  0  0 
 20 22  1  0  0  0  0 
 21 23  1  0  0  0  0 
 24 22  1  0  0  0  0 
 24 23  1  0  0  0  0 
 24 25  1  0  0  0  0 
  1 26  1  0  0  0  0 
  8 27  1  0  0  0  0 
 10 28  1  0  0  0  0 
 10 29  1  0  0  0  0 
 11 30  1  0  0  0  0 
 13 31  1  0  0  0  0 
 14 32  1  0  0  0  0 
 15 33  1  0  0  0  0 
 16 34  1  0  0  0  0 
 18 35  1  0  0  0  0 
 20 36  1  0  0  0  0 
 20 37  1  0  0  0  0 
 21 38  1  0  0  0  0 
 21 39  1  0  0  0  0 
 22 40  1  0  0  0  0 
 22 41  1  0  0  0  0 
 23 42  1  0  0  0  0 
 23 43  1  0  0  0  0 
 24 44  1  0  0  0  0 
 25 45  1  0  0  0  0 
M  END
> <cdk:Title>
neltenexine

> <Conformer>
1

> <SuperDrugID>
SD001689

$$$$
