triaziquone
  CDK     0628171801

 30 33  0  0  0  0  0  0  0  0999 V2000
    2.9250    4.7369    1.3626 O   0  0  0  0  0  0  0  0  0  0  0  0
    1.8414    4.1394    1.1609 C   0  0  0  0  0  0  0  0  0  0  0  0
    1.7721    2.7378    1.3385 C   0  0  0  0  0  0  0  0  0  0  0  0
    0.7325    4.8714    0.6984 C   0  0  0  0  0  0  0  0  0  0  0  0
    0.7101    2.0592    0.8163 C   0  0  0  0  0  0  0  0  0  0  0  0
    2.8310    2.0672    1.9784 N   0  0  2  0  0  0  0  0  0  0  0  0
   -0.3456    4.1842    0.2673 C   0  0  0  0  0  0  0  0  0  0  0  0
    0.7495    6.2719    0.5953 N   0  0  2  0  0  0  0  0  0  0  0  0
   -0.3866    2.7954    0.3193 C   0  0  0  0  0  0  0  0  0  0  0  0
    0.6485    0.6520    0.8322 N   0  0  2  0  0  0  0  0  0  0  0  0
    2.4491    1.2518    3.1689 C   0  0  1  0  0  0  0  0  0  0  0  0
    3.1914    2.5576    3.3389 C   0  0  1  0  0  0  0  0  0  0  0  0
    1.1003    7.0282    1.8272 C   0  0  1  0  0  0  0  0  0  0  0  0
   -0.3344    6.9606    1.3547 C   0  0  1  0  0  0  0  0  0  0  0  0
   -1.4444    2.2302   -0.0464 O   0  0  0  0  0  0  0  0  0  0  0  0
    1.7586   -0.0442    0.1189 C   0  0  1  0  0  0  0  0  0  0  0  0
    0.3691   -0.0149   -0.4712 C   0  0  1  0  0  0  0  0  0  0  0  0
   -1.1296    4.6755   -0.1013 H   0  0  0  0  0  0  0  0  0  0  0  0
    1.4199    1.2761    3.5408 H   0  0  0  0  0  0  0  0  0  0  0  0
    3.0527    0.3610    3.3577 H   0  0  0  0  0  0  0  0  0  0  0  0
    4.2398    2.4505    3.6207 H   0  0  0  0  0  0  0  0  0  0  0  0
    2.5999    3.3520    3.8025 H   0  0  0  0  0  0  0  0  0  0  0  0
    1.2951    6.4884    2.7566 H   0  0  0  0  0  0  0  0  0  0  0  0
    1.5762    7.9973    1.6723 H   0  0  0  0  0  0  0  0  0  0  0  0
   -0.7067    7.8964    0.9345 H   0  0  0  0  0  0  0  0  0  0  0  0
   -0.9902    6.3838    2.0153 H   0  0  0  0  0  0  0  0  0  0  0  0
    2.4928    0.5390   -0.4450 H   0  0  0  0  0  0  0  0  0  0  0  0
    2.0604   -1.0062    0.5359 H   0  0  0  0  0  0  0  0  0  0  0  0
   -0.1694   -0.9613   -0.4149 H   0  0  0  0  0  0  0  0  0  0  0  0
    0.2825    0.5885   -1.3783 H   0  0  0  0  0  0  0  0  0  0  0  0
  1  2  2  0  0  0  0 
  2  3  1  0  0  0  0 
  2  4  1  0  0  0  0 
  3  5  2  0  0  0  0 
  3  6  1  0  0  0  0 
  4  7  2  0  0  0  0 
  4  8  1  0  0  0  0 
  5  9  1  0  0  0  0 
  5 10  1  0  0  0  0 
  6 11  1  0  0  0  0 
  6 12  1  0  0  0  0 
  7  9  1  0  0  0  0 
  8 13  1  0  0  0  0 
  8 14  1  0  0  0  0 
  9 15  2  0  0  0  0 
 10 16  1  0  0  0  0 
 10 17  1  0  0  0  0 
 11 12  1  0  0  0  0 
 13 14  1  0  0  0  0 
 16 17  1  0  0  0  0 
  7 18  1  0  0  0  0 
 11 19  1  0  0  0  0 
 11 20  1  0  0  0  0 
 12 21  1  0  0  0  0 
 12 22  1  0  0  0  0 
 13 23  1  0  0  0  0 
 13 24  1  0  0  0  0 
 14 25  1  0  0  0  0 
 14 26  1  0  0  0  0 
 16 27  1  0  0  0  0 
 16 28  1  0  0  0  0 
 17 29  1  0  0  0  0 
 17 30  1  0  0  0  0 
M  END
> <cdk:Title>
triaziquone

> <Conformer>
1

> <SuperDrugID>
SD003526

$$$$
