imipramine oxide
  CDK     0628171801

 46 48  0  0  0  0  0  0  0  0999 V2000
   -3.0691   -0.8209   -2.6694 C   0  0  2  0  0  0  0  0  0  0  0  0
   -2.9408   -2.2405   -2.0392 C   0  0  1  0  0  0  0  0  0  0  0  0
   -3.6029   -0.7484   -4.0233 N   0  0  0  0  0  0  0  0  0  0  0  0
   -2.2977   -2.1884   -0.6165 C   0  0  2  0  0  0  0  0  0  0  0  0
   -4.4913    0.2539   -4.3994 C   0  0  0  0  0  0  0  0  0  0  0  0
   -3.1229   -1.6036   -4.9933 C   0  0  0  0  0  0  0  0  0  0  0  0
   -1.8378   -3.4894   -0.0031 N   0  0  2  0  0  0  0  0  0  0  0  0
   -5.6532    0.0344   -5.2067 C   0  0  0  0  0  0  0  0  0  0  0  0
   -4.1952    1.5849   -3.9963 C   0  0  0  0  0  0  0  0  0  0  0  0
   -3.9785   -2.5444   -5.6242 C   0  0  0  0  0  0  0  0  0  0  0  0
   -1.7588   -1.5621   -5.3679 C   0  0  0  0  0  0  0  0  0  0  0  0
   -2.9593   -4.4472    0.2624 C   0  0  0  0  0  0  0  0  0  0  0  0
   -1.0575   -3.2319    1.2557 C   0  0  0  0  0  0  0  0  0  0  0  0
   -0.9758   -4.1002   -0.8680 O   0  0  0  0  0  0  0  0  0  0  0  0
   -6.1474   -1.2962   -5.6872 C   0  0  2  0  0  0  0  0  0  0  0  0
   -6.4271    1.1541   -5.6142 C   0  0  0  0  0  0  0  0  0  0  0  0
   -4.9937    2.6724   -4.3835 C   0  0  0  0  0  0  0  0  0  0  0  0
   -5.4123   -2.5876   -5.2531 C   0  0  1  0  0  0  0  0  0  0  0  0
   -3.4558   -3.4295   -6.5973 C   0  0  0  0  0  0  0  0  0  0  0  0
   -1.2491   -2.4435   -6.3384 C   0  0  0  0  0  0  0  0  0  0  0  0
   -6.1035    2.4573   -5.2082 C   0  0  0  0  0  0  0  0  0  0  0  0
   -2.0954   -3.3824   -6.9494 C   0  0  0  0  0  0  0  0  0  0  0  0
   -2.0787   -0.3593   -2.6853 H   0  0  0  0  0  0  0  0  0  0  0  0
   -3.6847   -0.2271   -1.9847 H   0  0  0  0  0  0  0  0  0  0  0  0
   -3.9349   -2.6889   -1.9828 H   0  0  0  0  0  0  0  0  0  0  0  0
   -2.3217   -2.8659   -2.6842 H   0  0  0  0  0  0  0  0  0  0  0  0
   -3.0161   -1.7049    0.0540 H   0  0  0  0  0  0  0  0  0  0  0  0
   -1.4304   -1.5229   -0.6869 H   0  0  0  0  0  0  0  0  0  0  0  0
   -3.3754    1.7854   -3.4184 H   0  0  0  0  0  0  0  0  0  0  0  0
   -1.1260   -0.8861   -4.9358 H   0  0  0  0  0  0  0  0  0  0  0  0
   -3.4820   -4.7099   -0.6596 H   0  0  0  0  0  0  0  0  0  0  0  0
   -3.6862   -4.0156    0.9550 H   0  0  0  0  0  0  0  0  0  0  0  0
   -2.5874   -5.3781    0.7019 H   0  0  0  0  0  0  0  0  0  0  0  0
   -0.1948   -2.5877    1.0620 H   0  0  0  0  0  0  0  0  0  0  0  0
   -1.6785   -2.7398    2.0088 H   0  0  0  0  0  0  0  0  0  0  0  0
   -0.6749   -4.1607    1.6873 H   0  0  0  0  0  0  0  0  0  0  0  0
   -6.1510   -1.2759   -6.7801 H   0  0  0  0  0  0  0  0  0  0  0  0
   -7.1860   -1.4107   -5.3613 H   0  0  0  0  0  0  0  0  0  0  0  0
   -7.2441    1.0288   -6.2191 H   0  0  0  0  0  0  0  0  0  0  0  0
   -4.7618    3.6186   -4.0714 H   0  0  0  0  0  0  0  0  0  0  0  0
   -5.9129   -3.4369   -5.7300 H   0  0  0  0  0  0  0  0  0  0  0  0
   -5.5105   -2.7307   -4.1749 H   0  0  0  0  0  0  0  0  0  0  0  0
   -4.0587   -4.1159   -7.0594 H   0  0  0  0  0  0  0  0  0  0  0  0
   -0.2599   -2.4050   -6.5989 H   0  0  0  0  0  0  0  0  0  0  0  0
   -6.6750    3.2504   -5.5119 H   0  0  0  0  0  0  0  0  0  0  0  0
   -1.7225   -4.0299   -7.6480 H   0  0  0  0  0  0  0  0  0  0  0  0
  1  2  1  0  0  0  0 
  1  3  1  0  0  0  0 
  2  4  1  0  0  0  0 
  3  5  1  0  0  0  0 
  3  6  1  0  0  0  0 
  4  7  1  0  0  0  0 
  5  8  2  0  0  0  0 
  5  9  1  0  0  0  0 
  6 10  2  0  0  0  0 
  6 11  1  0  0  0  0 
  7 12  1  0  0  0  0 
  7 13  1  0  0  0  0 
  7 14  1  0  0  0  0 
  8 15  1  0  0  0  0 
  8 16  1  0  0  0  0 
  9 17  2  0  0  0  0 
 10 18  1  0  0  0  0 
 10 19  1  0  0  0  0 
 11 20  2  0  0  0  0 
 15 18  1  0  0  0  0 
 16 21  2  0  0  0  0 
 17 21  1  0  0  0  0 
 19 22  2  0  0  0  0 
 20 22  1  0  0  0  0 
  1 23  1  0  0  0  0 
  1 24  1  0  0  0  0 
  2 25  1  0  0  0  0 
  2 26  1  0  0  0  0 
  4 27  1  0  0  0  0 
  4 28  1  0  0  0  0 
  9 29  1  0  0  0  0 
 11 30  1  0  0  0  0 
 12 31  1  0  0  0  0 
 12 32  1  0  0  0  0 
 12 33  1  0  0  0  0 
 13 34  1  0  0  0  0 
 13 35  1  0  0  0  0 
 13 36  1  0  0  0  0 
 15 37  1  0  0  0  0 
 15 38  1  0  0  0  0 
 16 39  1  0  0  0  0 
 17 40  1  0  0  0  0 
 18 41  1  0  0  0  0 
 18 42  1  0  0  0  0 
 19 43  1  0  0  0  0 
 20 44  1  0  0  0  0 
 21 45  1  0  0  0  0 
 22 46  1  0  0  0  0 
M  CHG  1   7   1
M  CHG  1  14  -1
M  END
> <cdk:Title>
imipramine oxide

> <Conformer>
1

> <SuperDrugID>
SD002846

$$$$
