naratriptan
  CDK     0628171801

 48 50  0  0  0  0  0  0  0  0999 V2000
    0.2512    3.5060    2.1290 C   0  0  1  0  0  0  0  0  0  0  0  0
   -0.5033    2.2490    1.6127 C   0  0  2  0  0  0  0  0  0  0  0  0
    1.1768    3.2092    3.2560 C   0  0  0  0  0  0  0  0  0  0  0  0
    0.5889    0.9666    0.8788 S   0  0  1  0  0  0  0  0  0  0  0  0
    2.5461    2.9226    3.0130 C   0  0  0  0  0  0  0  0  0  0  0  0
    0.6867    3.1684    4.5891 C   0  0  0  0  0  0  0  0  0  0  0  0
   -0.3475   -0.3282    0.1329 N   0  0  2  0  0  0  0  0  0  0  0  0
    1.5606    1.6136   -0.2202 O   0  0  0  0  0  0  0  0  0  0  0  0
    1.4803    0.2886    2.0264 O   0  0  0  0  0  0  0  0  0  0  0  0
    3.3724    2.5417    4.0886 C   0  0  0  0  0  0  0  0  0  0  0  0
    1.5240    2.8031    5.6622 C   0  0  0  0  0  0  0  0  0  0  0  0
   -1.1316    0.0901   -1.0401 C   0  0  0  0  0  0  0  0  0  0  0  0
    4.7208    2.1734    4.1548 C   0  0  0  0  0  0  0  0  0  0  0  0
    2.8630    2.4893    5.3859 C   0  0  0  0  0  0  0  0  0  0  0  0
    4.9691    1.9391    5.5127 C   0  0  0  0  0  0  0  0  0  0  0  0
    5.6916    2.0884    3.0264 C   0  0  2  0  0  0  0  0  0  0  0  0
    3.8432    2.1226    6.2207 N   0  0  0  0  0  0  0  0  0  0  0  0
    6.7547    0.9542    3.1774 C   0  0  2  0  0  0  0  0  0  0  0  0
    6.3906    3.4627    2.8141 C   0  0  1  0  0  0  0  0  0  0  0  0
    7.7597    0.9653    1.9915 C   0  0  1  0  0  0  0  0  0  0  0  0
    7.4095    3.4060    1.6440 C   0  0  1  0  0  0  0  0  0  0  0  0
    8.4072    2.3008    1.7968 N   0  0  1  0  0  0  0  0  0  0  0  0
    9.5281    2.5915    2.7388 C   0  0  0  0  0  0  0  0  0  0  0  0
    0.7901    3.9690    1.2979 H   0  0  0  0  0  0  0  0  0  0  0  0
   -0.4911    4.2396    2.4571 H   0  0  0  0  0  0  0  0  0  0  0  0
   -1.2126    2.5679    0.8471 H   0  0  0  0  0  0  0  0  0  0  0  0
   -1.0743    1.7948    2.4261 H   0  0  0  0  0  0  0  0  0  0  0  0
    2.9279    2.9771    2.0673 H   0  0  0  0  0  0  0  0  0  0  0  0
   -0.2890    3.4041    4.7890 H   0  0  0  0  0  0  0  0  0  0  0  0
   -1.0089   -0.6642    0.8353 H   0  0  0  0  0  0  0  0  0  0  0  0
    1.1663    2.7680    6.6198 H   0  0  0  0  0  0  0  0  0  0  0  0
   -1.9496    0.7453   -0.7396 H   0  0  0  0  0  0  0  0  0  0  0  0
   -1.5542   -0.8015   -1.5038 H   0  0  0  0  0  0  0  0  0  0  0  0
   -0.5039    0.5964   -1.7760 H   0  0  0  0  0  0  0  0  0  0  0  0
    5.8660    1.6751    5.9221 H   0  0  0  0  0  0  0  0  0  0  0  0
    5.1194    1.8563    2.1227 H   0  0  0  0  0  0  0  0  0  0  0  0
    3.7593    2.0172    7.1813 H   0  0  0  0  0  0  0  0  0  0  0  0
    6.2598   -0.0204    3.2207 H   0  0  0  0  0  0  0  0  0  0  0  0
    7.3208    1.0820    4.1038 H   0  0  0  0  0  0  0  0  0  0  0  0
    5.6423    4.2303    2.5993 H   0  0  0  0  0  0  0  0  0  0  0  0
    6.9169    3.7539    3.7271 H   0  0  0  0  0  0  0  0  0  0  0  0
    8.5182    0.1925    2.1498 H   0  0  0  0  0  0  0  0  0  0  0  0
    7.2323    0.7000    1.0702 H   0  0  0  0  0  0  0  0  0  0  0  0
    6.8671    3.2564    0.7060 H   0  0  0  0  0  0  0  0  0  0  0  0
    7.9147    4.3716    1.5616 H   0  0  0  0  0  0  0  0  0  0  0  0
   10.2729    1.7942    2.6976 H   0  0  0  0  0  0  0  0  0  0  0  0
   10.0284    3.5183    2.4530 H   0  0  0  0  0  0  0  0  0  0  0  0
    9.1781    2.6871    3.7684 H   0  0  0  0  0  0  0  0  0  0  0  0
  1  2  1  0  0  0  0 
  1  3  1  0  0  0  0 
  2  4  1  0  0  0  0 
  3  5  1  0  0  0  0 
  3  6  2  0  0  0  0 
  4  7  1  0  0  0  0 
  4  8  2  0  0  0  0 
  4  9  2  0  0  0  0 
  5 10  2  0  0  0  0 
  6 11  1  0  0  0  0 
  7 12  1  0  0  0  0 
 10 13  1  0  0  0  0 
 10 14  1  0  0  0  0 
 11 14  2  0  0  0  0 
 13 15  2  0  0  0  0 
 13 16  1  0  0  0  0 
 14 17  1  0  0  0  0 
 15 17  1  0  0  0  0 
 16 18  1  0  0  0  0 
 16 19  1  0  0  0  0 
 18 20  1  0  0  0  0 
 19 21  1  0  0  0  0 
 20 22  1  0  0  0  0 
 21 22  1  0  0  0  0 
 22 23  1  0  0  0  0 
  1 24  1  0  0  0  0 
  1 25  1  0  0  0  0 
  2 26  1  0  0  0  0 
  2 27  1  0  0  0  0 
  5 28  1  0  0  0  0 
  6 29  1  0  0  0  0 
  7 30  1  0  0  0  0 
 11 31  1  0  0  0  0 
 12 32  1  0  0  0  0 
 12 33  1  0  0  0  0 
 12 34  1  0  0  0  0 
 15 35  1  0  0  0  0 
 16 36  1  0  0  0  0 
 17 37  1  0  0  0  0 
 18 38  1  0  0  0  0 
 18 39  1  0  0  0  0 
 19 40  1  0  0  0  0 
 19 41  1  0  0  0  0 
 20 42  1  0  0  0  0 
 20 43  1  0  0  0  0 
 21 44  1  0  0  0  0 
 21 45  1  0  0  0  0 
 23 46  1  0  0  0  0 
 23 47  1  0  0  0  0 
 23 48  1  0  0  0  0 
M  END
> <cdk:Title>
naratriptan

> <Conformer>
1

> <SuperDrugID>
SD001680

$$$$
