UREA C-13
  CDK     0628171801

  8  7  0  0  0  0  0  0  0  0999 V2000
   -0.0090   -0.1906    0.0617 C   0  0  0  0  0  0  0  0  0  0  0  0
   -0.9436   -1.1275    0.2838 N   0  0  0  0  0  0  0  0  0  0  0  0
   -0.3403    1.0113   -0.0319 O   0  0  0  0  0  0  0  0  0  0  0  0
    1.2805   -0.5412   -0.0601 N   0  0  0  0  0  0  0  0  0  0  0  0
   -1.8753   -0.8725    0.3710 H   0  0  0  0  0  0  0  0  0  0  0  0
   -0.6878   -2.0608    0.3560 H   0  0  0  0  0  0  0  0  0  0  0  0
    1.5390   -1.4737    0.0131 H   0  0  0  0  0  0  0  0  0  0  0  0
    1.9549    0.1373   -0.2200 H   0  0  0  0  0  0  0  0  0  0  0  0
  1  2  1  0  0  0  0 
  1  3  2  0  0  0  0 
  1  4  1  0  0  0  0 
  5  2  1  0  0  0  0 
  6  2  1  0  0  0  0 
  7  4  1  0  0  0  0 
  8  4  1  0  0  0  0 
M  ISO  1   1  13
M  END
> <cdk:Title>
UREA C-13

> <Conformer>
1

> <SuperDrugID>
SD003498

$$$$
