oxyquinoline
  CDK     0628171801

 18 19  0  0  0  0  0  0  0  0999 V2000
    0.9784   -0.2024   -0.2780 O   0  0  0  0  0  0  0  0  0  0  0  0
    0.2514    0.2340    0.7831 C   0  0  0  0  0  0  0  0  0  0  0  0
    0.8892    0.5328    2.0053 C   0  0  0  0  0  0  0  0  0  0  0  0
    0.1393    0.9822    3.1073 C   0  0  0  0  0  0  0  0  0  0  0  0
   -1.2538    1.1373    3.0011 C   0  0  0  0  0  0  0  0  0  0  0  0
   -1.9066    0.8431    1.7842 C   0  0  0  0  0  0  0  0  0  0  0  0
   -1.1467    0.3902    0.6690 C   0  0  0  0  0  0  0  0  0  0  0  0
   -1.7834    0.1075   -0.4996 N   0  0  0  0  0  0  0  0  0  0  0  0
   -3.1249    0.2373   -0.6606 C   0  0  0  0  0  0  0  0  0  0  0  0
   -3.9192    0.6814    0.4102 C   0  0  0  0  0  0  0  0  0  0  0  0
   -3.3042    0.9851    1.6378 C   0  0  0  0  0  0  0  0  0  0  0  0
    1.7586   -0.6544    0.1060 H   0  0  0  0  0  0  0  0  0  0  0  0
    1.9012    0.4258    2.0959 H   0  0  0  0  0  0  0  0  0  0  0  0
    0.6070    1.1987    3.9907 H   0  0  0  0  0  0  0  0  0  0  0  0
   -1.7843    1.4651    3.8123 H   0  0  0  0  0  0  0  0  0  0  0  0
   -3.5547    0.0121   -1.5591 H   0  0  0  0  0  0  0  0  0  0  0  0
   -4.9297    0.7826    0.3006 H   0  0  0  0  0  0  0  0  0  0  0  0
   -3.8827    1.3080    2.4165 H   0  0  0  0  0  0  0  0  0  0  0  0
  1  2  1  0  0  0  0 
  2  3  1  0  0  0  0 
  3  4  2  0  0  0  0 
  4  5  1  0  0  0  0 
  5  6  2  0  0  0  0 
  6  7  1  0  0  0  0 
  2  7  2  0  0  0  0 
  7  8  1  0  0  0  0 
  8  9  2  0  0  0  0 
  9 10  1  0  0  0  0 
 10 11  2  0  0  0  0 
  6 11  1  0  0  0  0 
  1 12  1  0  0  0  0 
  3 13  1  0  0  0  0 
  4 14  1  0  0  0  0 
  5 15  1  0  0  0  0 
  9 16  1  0  0  0  0 
 10 17  1  0  0  0  0 
 11 18  1  0  0  0  0 
M  END
> <cdk:Title>
oxyquinoline

> <Conformer>
1

> <SuperDrugID>
SD002841

$$$$
