budralazine
  CDK     0628171801

 34 35  0  0  0  0  0  0  0  0999 V2000
    0.3793    0.3395    0.6358 N   0  0  0  0  0  0  0  0  0  0  0  0
   -0.3861    1.0485   -0.0230 N   0  0  0  0  0  0  0  0  0  0  0  0
    0.9885   -0.8254    0.4117 C   0  0  0  0  0  0  0  0  0  0  0  0
   -0.8581    0.9413   -1.2353 C   0  0  0  0  0  0  0  0  0  0  0  0
    2.0966   -1.2240    1.2034 C   0  0  0  0  0  0  0  0  0  0  0  0
    0.5658   -1.6741   -0.5657 N   0  0  0  0  0  0  0  0  0  0  0  0
   -0.0136    0.7566   -2.2761 C   0  0  0  0  0  0  0  0  0  0  0  0
   -2.3018    1.0800   -1.3792 C   0  0  0  0  0  0  0  0  0  0  0  0
    2.7137   -2.4790    0.9243 C   0  0  0  0  0  0  0  0  0  0  0  0
    2.6192   -0.4259    2.2516 C   0  0  0  0  0  0  0  0  0  0  0  0
    1.1297   -2.8261   -0.8197 N   0  0  0  0  0  0  0  0  0  0  0  0
   -0.3780    0.5669   -3.6832 C   0  0  2  0  0  0  0  0  0  0  0  0
    2.1950   -3.2763   -0.1162 C   0  0  0  0  0  0  0  0  0  0  0  0
    3.8241   -2.9091    1.6839 C   0  0  0  0  0  0  0  0  0  0  0  0
    3.7298   -0.8608    2.9959 C   0  0  0  0  0  0  0  0  0  0  0  0
   -0.4424   -0.9501   -4.0123 C   0  0  0  0  0  0  0  0  0  0  0  0
    0.6022    1.3123   -4.6327 C   0  0  0  0  0  0  0  0  0  0  0  0
    4.3326   -2.0980    2.7122 C   0  0  0  0  0  0  0  0  0  0  0  0
    0.9616    0.7158   -2.0703 H   0  0  0  0  0  0  0  0  0  0  0  0
   -2.5233    1.9866   -1.9448 H   0  0  0  0  0  0  0  0  0  0  0  0
   -2.7187    0.2187   -1.9053 H   0  0  0  0  0  0  0  0  0  0  0  0
   -2.8134    1.1621   -0.4149 H   0  0  0  0  0  0  0  0  0  0  0  0
    2.2006    0.4786    2.4814 H   0  0  0  0  0  0  0  0  0  0  0  0
   -1.3688    0.9833   -3.8848 H   0  0  0  0  0  0  0  0  0  0  0  0
    2.6048   -4.1830   -0.3500 H   0  0  0  0  0  0  0  0  0  0  0  0
    4.2693   -3.8108    1.4919 H   0  0  0  0  0  0  0  0  0  0  0  0
    4.0981   -0.2747    3.7474 H   0  0  0  0  0  0  0  0  0  0  0  0
   -0.7533   -1.0996   -5.0475 H   0  0  0  0  0  0  0  0  0  0  0  0
    0.5311   -1.4235   -3.8753 H   0  0  0  0  0  0  0  0  0  0  0  0
   -1.1650   -1.4537   -3.3658 H   0  0  0  0  0  0  0  0  0  0  0  0
    0.2762    1.2027   -5.6694 H   0  0  0  0  0  0  0  0  0  0  0  0
    1.6162    0.9128   -4.5466 H   0  0  0  0  0  0  0  0  0  0  0  0
    0.6250    2.3796   -4.3971 H   0  0  0  0  0  0  0  0  0  0  0  0
    5.1390   -2.4110    3.2557 H   0  0  0  0  0  0  0  0  0  0  0  0
  1  2  2  0  0  0  0 
  1  3  1  0  0  0  0 
  2  4  1  0  0  0  0 
  3  5  2  0  0  0  0 
  3  6  1  0  0  0  0 
  4  7  2  0  0  0  0 
  4  8  1  0  0  0  0 
  5  9  1  0  0  0  0 
  5 10  1  0  0  0  0 
  6 11  2  0  0  0  0 
  7 12  1  0  0  0  0 
  9 13  2  0  0  0  0 
  9 14  1  0  0  0  0 
 10 15  2  0  0  0  0 
 11 13  1  0  0  0  0 
 12 16  1  0  0  0  0 
 12 17  1  0  0  0  0 
 14 18  2  0  0  0  0 
 15 18  1  0  0  0  0 
  7 19  1  0  0  0  0 
 20  8  1  0  0  0  0 
 21  8  1  0  0  0  0 
 22  8  1  0  0  0  0 
 23 10  1  0  0  0  0 
 24 12  1  0  0  0  0 
 25 13  1  0  0  0  0 
 26 14  1  0  0  0  0 
 27 15  1  0  0  0  0 
 28 16  1  0  0  0  0 
 29 16  1  0  0  0  0 
 30 16  1  0  0  0  0 
 31 17  1  0  0  0  0 
 32 17  1  0  0  0  0 
 33 17  1  0  0  0  0 
 34 18  1  0  0  0  0 
M  END
> <cdk:Title>
budralazine

> <Conformer>
1

> <SuperDrugID>
SD000363

$$$$
