estradiol dipropionate
  CDK     0628171801

 60 63  0  0  0  0  0  0  0  0999 V2000
  -12.2684    1.0010   -2.8978 C   0  0  0  0  0  0  0  0  0  0  0  0
  -10.9310    0.6703   -2.1268 C   0  0  2  0  0  0  0  0  0  0  0  0
  -10.3059   -0.7257   -2.4397 C   0  0  2  0  0  0  0  0  0  0  0  0
  -11.2320    0.4916   -0.6031 C   0  0  1  0  0  0  0  0  0  0  0  0
   -9.8512    1.7518   -2.4534 C   0  0  2  0  0  0  0  0  0  0  0  0
   -9.9296   -0.8869   -3.9509 C   0  0  1  0  0  0  0  0  0  0  0  0
  -11.2813   -1.7162   -1.7611 C   0  0  1  0  0  0  0  0  0  0  0  0
  -12.1098    1.5029   -0.0726 O   0  0  0  0  0  0  0  0  0  0  0  0
  -11.7798   -0.9605   -0.4981 C   0  0  2  0  0  0  0  0  0  0  0  0
   -9.3389    1.6562   -3.9211 C   0  0  2  0  0  0  0  0  0  0  0  0
   -8.8886    0.2204   -4.3728 C   0  0  2  0  0  0  0  0  0  0  0  0
   -9.3258   -2.2837   -4.2669 C   0  0  1  0  0  0  0  0  0  0  0  0
  -12.5185    1.6594    1.2243 C   0  0  0  0  0  0  0  0  0  0  0  0
   -8.4822    0.0816   -5.8221 C   0  0  0  0  0  0  0  0  0  0  0  0
   -8.9844   -2.4289   -5.7739 C   0  0  2  0  0  0  0  0  0  0  0  0
  -13.3626    2.8206    1.5756 C   0  0  1  0  0  0  0  0  0  0  0  0
  -12.1529    0.8594    2.1184 O   0  0  0  0  0  0  0  0  0  0  0  0
   -8.4877   -1.1972   -6.4569 C   0  0  0  0  0  0  0  0  0  0  0  0
   -8.0352    1.1918   -6.5870 C   0  0  0  0  0  0  0  0  0  0  0  0
  -14.6752    2.9007    0.7651 C   0  0  0  0  0  0  0  0  0  0  0  0
   -8.0396   -1.3257   -7.7957 C   0  0  0  0  0  0  0  0  0  0  0  0
   -7.6135    1.0497   -7.9197 C   0  0  0  0  0  0  0  0  0  0  0  0
   -7.6015   -0.2099   -8.5402 C   0  0  0  0  0  0  0  0  0  0  0  0
   -7.1322   -0.2391   -9.8310 O   0  0  0  0  0  0  0  0  0  0  0  0
   -7.0954   -1.2094  -10.7954 C   0  0  0  0  0  0  0  0  0  0  0  0
   -6.4005   -0.9185  -12.0642 C   0  0  2  0  0  0  0  0  0  0  0  0
   -7.6453   -2.3235  -10.6445 O   0  0  0  0  0  0  0  0  0  0  0  0
   -4.8970   -0.6524  -11.8364 C   0  0  0  0  0  0  0  0  0  0  0  0
  -10.8386   -0.7867   -4.5519 H   0  0  0  0  0  0  0  0  0  0  0  0
   -7.9683    0.0214   -3.8128 H   0  0  0  0  0  0  0  0  0  0  0  0
   -9.3608   -0.8273   -1.8861 H   0  0  0  0  0  0  0  0  0  0  0  0
  -12.1194    1.0670   -3.9729 H   0  0  0  0  0  0  0  0  0  0  0  0
  -12.6711    1.9611   -2.5690 H   0  0  0  0  0  0  0  0  0  0  0  0
  -13.0398    0.2492   -2.7275 H   0  0  0  0  0  0  0  0  0  0  0  0
  -10.2943    0.5492   -0.0358 H   0  0  0  0  0  0  0  0  0  0  0  0
   -8.9922    1.6303   -1.7872 H   0  0  0  0  0  0  0  0  0  0  0  0
  -10.2547    2.7514   -2.2753 H   0  0  0  0  0  0  0  0  0  0  0  0
  -12.1133   -1.9541   -2.4285 H   0  0  0  0  0  0  0  0  0  0  0  0
  -10.7803   -2.6485   -1.4892 H   0  0  0  0  0  0  0  0  0  0  0  0
  -12.8730   -0.9547   -0.4685 H   0  0  0  0  0  0  0  0  0  0  0  0
  -11.4133   -1.4407    0.4140 H   0  0  0  0  0  0  0  0  0  0  0  0
   -8.4859    2.3369   -3.9902 H   0  0  0  0  0  0  0  0  0  0  0  0
  -10.1075    2.0261   -4.6020 H   0  0  0  0  0  0  0  0  0  0  0  0
   -8.4173   -2.4393   -3.6747 H   0  0  0  0  0  0  0  0  0  0  0  0
  -10.0330   -3.0714   -3.9925 H   0  0  0  0  0  0  0  0  0  0  0  0
   -9.8882   -2.7495   -6.2983 H   0  0  0  0  0  0  0  0  0  0  0  0
   -8.2420   -3.2255   -5.8791 H   0  0  0  0  0  0  0  0  0  0  0  0
  -13.6108    2.8001    2.6411 H   0  0  0  0  0  0  0  0  0  0  0  0
  -12.7836    3.7264    1.3867 H   0  0  0  0  0  0  0  0  0  0  0  0
   -7.9955    2.1306   -6.1922 H   0  0  0  0  0  0  0  0  0  0  0  0
  -15.2111    3.8125    1.0372 H   0  0  0  0  0  0  0  0  0  0  0  0
  -14.4658    2.9325   -0.3060 H   0  0  0  0  0  0  0  0  0  0  0  0
  -15.3164    2.0429    0.9788 H   0  0  0  0  0  0  0  0  0  0  0  0
   -8.0245   -2.2511   -8.2229 H   0  0  0  0  0  0  0  0  0  0  0  0
   -7.3045    1.8767   -8.4404 H   0  0  0  0  0  0  0  0  0  0  0  0
   -6.8601   -0.0443  -12.5293 H   0  0  0  0  0  0  0  0  0  0  0  0
   -6.5072   -1.7574  -12.7573 H   0  0  0  0  0  0  0  0  0  0  0  0
   -4.4256   -0.4739  -12.8045 H   0  0  0  0  0  0  0  0  0  0  0  0
   -4.7859    0.3070  -11.2422 H   0  0  0  0  0  0  0  0  0  0  0  0
   -4.4289   -1.5951  -11.4139 H   0  0  0  0  0  0  0  0  0  0  0  0
  2  1  1  0  0  0  0 
  3  2  1  0  0  0  0 
  2  4  1  0  0  0  0 
  2  5  1  0  0  0  0 
  6  3  1  0  0  0  0 
  3  7  1  0  0  0  0 
  3 31  1  0  0  0  0 
  4  8  1  0  0  0  0 
  4  9  1  0  0  0  0 
  5 10  1  0  0  0  0 
 11  6  1  0  0  0  0 
  6 12  1  0  0  0  0 
  6 29  1  0  0  0  0 
  7  9  1  0  0  0  0 
  8 13  1  0  0  0  0 
 11 10  1  0  0  0  0 
 11 14  1  0  0  0  0 
 11 30  1  0  0  0  0 
 12 15  1  0  0  0  0 
 13 16  1  0  0  0  0 
 13 17  2  0  0  0  0 
 14 18  2  0  0  0  0 
 14 19  1  0  0  0  0 
 15 18  1  0  0  0  0 
 16 20  1  0  0  0  0 
 18 21  1  0  0  0  0 
 19 22  2  0  0  0  0 
 21 23  2  0  0  0  0 
 22 23  1  0  0  0  0 
 23 24  1  0  0  0  0 
 24 25  1  0  0  0  0 
 25 26  1  0  0  0  0 
 25 27  2  0  0  0  0 
 26 28  1  0  0  0  0 
  1 32  1  0  0  0  0 
  1 33  1  0  0  0  0 
  1 34  1  0  0  0  0 
  4 35  1  0  0  0  0 
  5 36  1  0  0  0  0 
  5 37  1  0  0  0  0 
  7 38  1  0  0  0  0 
  7 39  1  0  0  0  0 
  9 40  1  0  0  0  0 
  9 41  1  0  0  0  0 
 10 42  1  0  0  0  0 
 10 43  1  0  0  0  0 
 12 44  1  0  0  0  0 
 12 45  1  0  0  0  0 
 15 46  1  0  0  0  0 
 15 47  1  0  0  0  0 
 16 48  1  0  0  0  0 
 16 49  1  0  0  0  0 
 19 50  1  0  0  0  0 
 20 51  1  0  0  0  0 
 20 52  1  0  0  0  0 
 20 53  1  0  0  0  0 
 21 54  1  0  0  0  0 
 22 55  1  0  0  0  0 
 26 56  1  0  0  0  0 
 26 57  1  0  0  0  0 
 28 58  1  0  0  0  0 
 28 59  1  0  0  0  0 
 28 60  1  0  0  0  0 
M  END
> <cdk:Title>
estradiol dipropionate

> <Conformer>
1

> <SuperDrugID>
SD000945

$$$$
