pinaverium
  CDK     0628171801

 73 76  0  0  0  0  0  0  0  0999 V2000
    0.5486   -1.2061   -2.2629 C   0  0  1  0  0  0  0  0  0  0  0  0
    0.5535    0.3163   -2.4735 N   0  0  1  0  0  0  0  0  0  0  0  0
    1.4797   -1.7816   -1.2329 C   0  0  0  0  0  0  0  0  0  0  0  0
    1.8891    0.8009   -3.0512 C   0  0  1  0  0  0  0  0  0  0  0  0
   -0.6236    0.6690   -3.3725 C   0  0  1  0  0  0  0  0  0  0  0  0
    0.2946    1.0333   -1.1524 C   0  0  2  0  0  0  0  0  0  0  0  0
    2.8340   -2.0229   -1.5712 C   0  0  0  0  0  0  0  0  0  0  0  0
    1.0686   -2.1077    0.0882 C   0  0  0  0  0  0  0  0  0  0  0  0
    2.3706    0.2907   -4.4412 C   0  0  1  0  0  0  0  0  0  0  0  0
   -0.8648    2.1948   -3.5321 C   0  0  1  0  0  0  0  0  0  0  0  0
   -0.0159    2.5561   -1.2852 C   0  0  2  0  0  0  0  0  0  0  0  0
    3.7780   -2.4556   -0.6211 C   0  0  0  0  0  0  0  0  0  0  0  0
   -0.6937   -1.9657    0.6845 Br  0  0  0  0  0  0  0  0  0  0  0  0
    2.0027   -2.5748    1.0346 C   0  0  0  0  0  0  0  0  0  0  0  0
    1.5442    0.7655   -5.5205 O   0  0  0  0  0  0  0  0  0  0  0  0
   -1.0626    2.8102   -2.2438 O   0  0  0  0  0  0  0  0  0  0  0  0
    5.0906   -2.6209   -0.9830 O   0  0  0  0  0  0  0  0  0  0  0  0
    3.3569   -2.7417    0.6924 C   0  0  0  0  0  0  0  0  0  0  0  0
    1.9586    0.3193   -6.8250 C   0  0  1  0  0  0  0  0  0  0  0  0
    5.8442   -1.3940   -0.9716 C   0  0  0  0  0  0  0  0  0  0  0  0
    4.2591   -3.1369    1.6441 O   0  0  0  0  0  0  0  0  0  0  0  0
    0.8742    0.6521   -7.8774 C   0  0  1  0  0  0  0  0  0  0  0  0
    4.4361   -4.5622    1.7201 C   0  0  0  0  0  0  0  0  0  0  0  0
   -0.5460    0.0332   -7.6352 C   0  0  2  0  0  0  0  0  0  0  0  0
   -0.5429   -1.5365   -7.4655 C   0  0  1  0  0  0  0  0  0  0  0  0
   -1.5743    0.4915   -8.7536 C   0  0  2  0  0  0  0  0  0  0  0  0
   -1.9769   -2.1529   -7.2737 C   0  0  1  0  0  0  0  0  0  0  0  0
   -0.4238   -2.1914   -8.8719 C   0  0  1  0  0  0  0  0  0  0  0  0
   -2.4680   -0.6400   -9.3986 C   0  0  2  0  0  0  0  0  0  0  0  0
   -2.0216   -2.1069   -8.8498 C   0  0  2  0  0  0  0  0  0  0  0  0
   -1.9569   -3.6274   -6.7331 C   0  0  0  0  0  0  0  0  0  0  0  0
   -3.0152   -1.3653   -6.3664 C   0  0  0  0  0  0  0  0  0  0  0  0
   -0.4603   -1.5439   -2.0164 H   0  0  0  0  0  0  0  0  0  0  0  0
    0.7432   -1.7157   -3.2094 H   0  0  0  0  0  0  0  0  0  0  0  0
    1.9095    1.8877   -3.1352 H   0  0  0  0  0  0  0  0  0  0  0  0
    2.6850    0.5733   -2.3359 H   0  0  0  0  0  0  0  0  0  0  0  0
   -0.5256    0.2109   -4.3544 H   0  0  0  0  0  0  0  0  0  0  0  0
   -1.5552    0.2667   -2.9583 H   0  0  0  0  0  0  0  0  0  0  0  0
    1.1410    0.9138   -0.4682 H   0  0  0  0  0  0  0  0  0  0  0  0
   -0.5753    0.5950   -0.6548 H   0  0  0  0  0  0  0  0  0  0  0  0
    3.1589   -1.8728   -2.5233 H   0  0  0  0  0  0  0  0  0  0  0  0
    3.3929    0.6523   -4.5894 H   0  0  0  0  0  0  0  0  0  0  0  0
    2.3995   -0.7972   -4.4524 H   0  0  0  0  0  0  0  0  0  0  0  0
   -0.0402    2.6701   -4.0674 H   0  0  0  0  0  0  0  0  0  0  0  0
   -1.7719    2.3556   -4.1202 H   0  0  0  0  0  0  0  0  0  0  0  0
    0.8797    3.1235   -1.5445 H   0  0  0  0  0  0  0  0  0  0  0  0
   -0.3576    2.9353   -0.3201 H   0  0  0  0  0  0  0  0  0  0  0  0
    1.6969   -2.7927    1.9844 H   0  0  0  0  0  0  0  0  0  0  0  0
    2.8851    0.8277   -7.1007 H   0  0  0  0  0  0  0  0  0  0  0  0
    2.1575   -0.7540   -6.8404 H   0  0  0  0  0  0  0  0  0  0  0  0
    6.8663   -1.6227   -1.2743 H   0  0  0  0  0  0  0  0  0  0  0  0
    5.4385   -0.6666   -1.6799 H   0  0  0  0  0  0  0  0  0  0  0  0
    5.8745   -0.9536    0.0287 H   0  0  0  0  0  0  0  0  0  0  0  0
    0.7756    1.7416   -7.9150 H   0  0  0  0  0  0  0  0  0  0  0  0
    1.2488    0.3293   -8.8514 H   0  0  0  0  0  0  0  0  0  0  0  0
    5.1770   -4.7700    2.4930 H   0  0  0  0  0  0  0  0  0  0  0  0
    3.5071   -5.0669    1.9967 H   0  0  0  0  0  0  0  0  0  0  0  0
    4.8083   -4.9696    0.7772 H   0  0  0  0  0  0  0  0  0  0  0  0
   -0.8894    0.4511   -6.6876 H   0  0  0  0  0  0  0  0  0  0  0  0
    0.1733   -1.9089   -6.7299 H   0  0  0  0  0  0  0  0  0  0  0  0
   -1.0360    0.9898   -9.5650 H   0  0  0  0  0  0  0  0  0  0  0  0
   -2.2265    1.2620   -8.3290 H   0  0  0  0  0  0  0  0  0  0  0  0
    0.1552   -1.5920   -9.6181 H   0  0  0  0  0  0  0  0  0  0  0  0
    0.0706   -3.1933   -8.7977 H   0  0  0  0  0  0  0  0  0  0  0  0
   -2.3842   -0.5133  -10.5128 H   0  0  0  0  0  0  0  0  0  0  0  0
   -3.5373   -0.3675   -9.1876 H   0  0  0  0  0  0  0  0  0  0  0  0
   -2.5270   -2.9435   -9.3386 H   0  0  0  0  0  0  0  0  0  0  0  0
   -2.9456   -4.0762   -6.8384 H   0  0  0  0  0  0  0  0  0  0  0  0
   -1.2581   -4.2729   -7.2615 H   0  0  0  0  0  0  0  0  0  0  0  0
   -1.6803   -3.6430   -5.6777 H   0  0  0  0  0  0  0  0  0  0  0  0
   -2.6759   -1.3530   -5.3298 H   0  0  0  0  0  0  0  0  0  0  0  0
   -3.9917   -1.8517   -6.4117 H   0  0  0  0  0  0  0  0  0  0  0  0
   -3.1607   -0.3379   -6.6833 H   0  0  0  0  0  0  0  0  0  0  0  0
  1  2  1  0  0  0  0 
  1  3  1  0  0  0  0 
  2  4  1  0  0  0  0 
  2  5  1  0  0  0  0 
  2  6  1  0  0  0  0 
  3  7  2  0  0  0  0 
  3  8  1  0  0  0  0 
  4  9  1  0  0  0  0 
  5 10  1  0  0  0  0 
  6 11  1  0  0  0  0 
  7 12  1  0  0  0  0 
  8 13  1  0  0  0  0 
  8 14  2  0  0  0  0 
  9 15  1  0  0  0  0 
 10 16  1  0  0  0  0 
 11 16  1  0  0  0  0 
 12 17  1  0  0  0  0 
 12 18  2  0  0  0  0 
 14 18  1  0  0  0  0 
 15 19  1  0  0  0  0 
 17 20  1  0  0  0  0 
 18 21  1  0  0  0  0 
 19 22  1  0  0  0  0 
 21 23  1  0  0  0  0 
 22 24  1  0  0  0  0 
 24 25  1  0  0  0  0 
 24 26  1  0  0  0  0 
 25 27  1  0  0  0  0 
 25 28  1  0  0  0  0 
 26 29  1  0  0  0  0 
 27 30  1  0  0  0  0 
 28 30  1  0  0  0  0 
 29 30  1  0  0  0  0 
 27 31  1  0  0  0  0 
 27 32  1  0  0  0  0 
  1 33  1  0  0  0  0 
  1 34  1  0  0  0  0 
  4 35  1  0  0  0  0 
  4 36  1  0  0  0  0 
  5 37  1  0  0  0  0 
  5 38  1  0  0  0  0 
  6 39  1  0  0  0  0 
  6 40  1  0  0  0  0 
  7 41  1  0  0  0  0 
  9 42  1  0  0  0  0 
  9 43  1  0  0  0  0 
 10 44  1  0  0  0  0 
 10 45  1  0  0  0  0 
 11 46  1  0  0  0  0 
 11 47  1  0  0  0  0 
 14 48  1  0  0  0  0 
 19 49  1  0  0  0  0 
 19 50  1  0  0  0  0 
 20 51  1  0  0  0  0 
 20 52  1  0  0  0  0 
 20 53  1  0  0  0  0 
 22 54  1  0  0  0  0 
 22 55  1  0  0  0  0 
 23 56  1  0  0  0  0 
 23 57  1  0  0  0  0 
 23 58  1  0  0  0  0 
 24 59  1  0  0  0  0 
 25 60  1  0  0  0  0 
 26 61  1  0  0  0  0 
 26 62  1  0  0  0  0 
 28 63  1  0  0  0  0 
 28 64  1  0  0  0  0 
 29 65  1  0  0  0  0 
 29 66  1  0  0  0  0 
 30 67  1  0  0  0  0 
 31 68  1  0  0  0  0 
 31 69  1  0  0  0  0 
 31 70  1  0  0  0  0 
 32 71  1  0  0  0  0 
 32 72  1  0  0  0  0 
 32 73  1  0  0  0  0 
M  CHG  1   2   1
M  END
> <cdk:Title>
pinaverium

> <Conformer>
1

> <SuperDrugID>
SD001951

$$$$
