estradiol mustard
  CDK     0628171801

102107  0  0  0  0  0  0  0  0999 V2000
   -1.3260   -6.7049    0.2517 C   0  0  0  0  0  0  0  0  0  0  0  0
    0.2110   -6.9366    0.0114 C   0  0  2  0  0  0  0  0  0  0  0  0
    0.7308   -8.3962    0.2383 C   0  0  2  0  0  0  0  0  0  0  0  0
    1.0309   -6.1906    1.1194 C   0  0  1  0  0  0  0  0  0  0  0  0
    0.5579   -6.5677   -1.4709 C   0  0  2  0  0  0  0  0  0  0  0  0
    0.0379   -9.4500   -0.6831 C   0  0  1  0  0  0  0  0  0  0  0  0
    0.6939   -8.5820    1.7675 C   0  0  1  0  0  0  0  0  0  0  0  0
    0.5184   -4.9278    1.5964 O   0  0  0  0  0  0  0  0  0  0  0  0
    1.0452   -7.1789    2.3207 C   0  0  2  0  0  0  0  0  0  0  0  0
   -0.0092   -7.6015   -2.5009 C   0  0  2  0  0  0  0  0  0  0  0  0
    0.3352   -9.1086   -2.1911 C   0  0  2  0  0  0  0  0  0  0  0  0
    0.4900  -10.9058   -0.3887 C   0  0  1  0  0  0  0  0  0  0  0  0
    1.1131   -3.7044    1.4778 C   0  0  0  0  0  0  0  0  0  0  0  0
   -0.2751  -10.1398   -3.1187 C   0  0  0  0  0  0  0  0  0  0  0  0
   -0.2727  -11.9155   -1.2814 C   0  0  2  0  0  0  0  0  0  0  0  0
    0.9348   -2.6997    2.5505 C   0  0  1  0  0  0  0  0  0  0  0  0
    1.8721   -3.4607    0.5107 O   0  0  0  0  0  0  0  0  0  0  0  0
   -0.5492  -11.4705   -2.6752 C   0  0  0  0  0  0  0  0  0  0  0  0
   -0.5618   -9.8374   -4.4736 C   0  0  0  0  0  0  0  0  0  0  0  0
   -0.3573   -1.9532    2.6240 C   0  0  0  0  0  0  0  0  0  0  0  0
   -1.1232  -12.4191   -3.5604 C   0  0  0  0  0  0  0  0  0  0  0  0
   -1.1438  -10.7823   -5.3354 C   0  0  0  0  0  0  0  0  0  0  0  0
   -0.3528   -0.6224    3.1058 C   0  0  0  0  0  0  0  0  0  0  0  0
   -1.6085   -2.5338    2.3100 C   0  0  0  0  0  0  0  0  0  0  0  0
   -1.4216  -12.0866   -4.8981 C   0  0  0  0  0  0  0  0  0  0  0  0
   -1.5492    0.0952    3.2796 C   0  0  0  0  0  0  0  0  0  0  0  0
   -2.8059   -1.8083    2.4667 C   0  0  0  0  0  0  0  0  0  0  0  0
   -1.9795  -12.9261   -5.8341 O   0  0  0  0  0  0  0  0  0  0  0  0
   -2.8023   -0.4834    2.9692 C   0  0  0  0  0  0  0  0  0  0  0  0
   -2.1585  -14.2841   -5.8875 C   0  0  0  0  0  0  0  0  0  0  0  0
   -3.9827    0.2256    3.1548 N   0  0  0  0  0  0  0  0  0  0  0  0
   -2.9171  -14.8532   -7.0227 C   0  0  2  0  0  0  0  0  0  0  0  0
   -1.6873  -15.0575   -5.0209 O   0  0  0  0  0  0  0  0  0  0  0  0
   -4.1239    1.5750    2.6266 C   0  0  1  0  0  0  0  0  0  0  0  0
   -5.0763   -0.3608    3.9164 C   0  0  2  0  0  0  0  0  0  0  0  0
   -2.1050  -15.7203   -7.9252 C   0  0  0  0  0  0  0  0  0  0  0  0
   -3.7948    1.6924    1.0811 C   0  0  2  0  0  0  0  0  0  0  0  0
   -5.3534    0.3820    5.2489 C   0  0  1  0  0  0  0  0  0  0  0  0
   -1.1191  -15.1633   -8.7649 C   0  0  0  0  0  0  0  0  0  0  0  0
   -2.3162  -17.1129   -7.9988 C   0  0  0  0  0  0  0  0  0  0  0  0
   -3.9402    3.4173    0.6215 Cl  0  0  0  0  0  0  0  0  0  0  0  0
   -6.5102   -0.4978    6.2441 Cl  0  0  0  0  0  0  0  0  0  0  0  0
   -0.3792  -15.9715   -9.6506 C   0  0  0  0  0  0  0  0  0  0  0  0
   -1.5596  -17.9151   -8.8753 C   0  0  0  0  0  0  0  0  0  0  0  0
   -0.5679  -17.3810   -9.7479 C   0  0  0  0  0  0  0  0  0  0  0  0
    0.1787  -18.2020  -10.6324 N   0  0  0  0  0  0  0  0  0  0  0  0
   -0.3424  -19.5215  -11.0102 C   0  0  2  0  0  0  0  0  0  0  0  0
    1.5136  -17.7932  -11.0641 C   0  0  1  0  0  0  0  0  0  0  0  0
    0.2884  -20.3273  -12.1800 C   0  0  2  0  0  0  0  0  0  0  0  0
    2.5238  -17.8690   -9.8963 C   0  0  1  0  0  0  0  0  0  0  0  0
   -0.5752  -21.8334  -12.4759 Cl  0  0  0  0  0  0  0  0  0  0  0  0
    4.1384  -17.3825  -10.4015 Cl  0  0  0  0  0  0  0  0  0  0  0  0
   -1.0390   -9.4138   -0.5075 H   0  0  0  0  0  0  0  0  0  0  0  0
    1.4181   -9.1987   -2.3406 H   0  0  0  0  0  0  0  0  0  0  0  0
    1.7999   -8.4360   -0.0193 H   0  0  0  0  0  0  0  0  0  0  0  0
   -1.9446   -7.3287   -0.3904 H   0  0  0  0  0  0  0  0  0  0  0  0
   -1.5844   -5.6644    0.0378 H   0  0  0  0  0  0  0  0  0  0  0  0
   -1.6099   -6.9134    1.2830 H   0  0  0  0  0  0  0  0  0  0  0  0
    2.0658   -6.0604    0.7742 H   0  0  0  0  0  0  0  0  0  0  0  0
    1.6447   -6.5240   -1.5893 H   0  0  0  0  0  0  0  0  0  0  0  0
    0.1746   -5.5716   -1.7173 H   0  0  0  0  0  0  0  0  0  0  0  0
   -0.3017   -8.8912    2.0990 H   0  0  0  0  0  0  0  0  0  0  0  0
    1.4247   -9.3301    2.0905 H   0  0  0  0  0  0  0  0  0  0  0  0
    0.3032   -6.8879    3.0697 H   0  0  0  0  0  0  0  0  0  0  0  0
    2.0274   -7.1818    2.8000 H   0  0  0  0  0  0  0  0  0  0  0  0
    0.4086   -7.3211   -3.4706 H   0  0  0  0  0  0  0  0  0  0  0  0
   -1.0946   -7.4923   -2.5753 H   0  0  0  0  0  0  0  0  0  0  0  0
    1.5662  -11.0010   -0.5591 H   0  0  0  0  0  0  0  0  0  0  0  0
    0.2942  -11.1631    0.6554 H   0  0  0  0  0  0  0  0  0  0  0  0
   -1.2270  -12.1433   -0.7963 H   0  0  0  0  0  0  0  0  0  0  0  0
    0.3105  -12.8382   -1.3183 H   0  0  0  0  0  0  0  0  0  0  0  0
    1.0675   -3.2115    3.5072 H   0  0  0  0  0  0  0  0  0  0  0  0
    1.7656   -1.9901    2.4725 H   0  0  0  0  0  0  0  0  0  0  0  0
   -0.3536   -8.9191   -4.8628 H   0  0  0  0  0  0  0  0  0  0  0  0
   -1.3302  -13.3581   -3.2218 H   0  0  0  0  0  0  0  0  0  0  0  0
   -1.3648  -10.5160   -6.2989 H   0  0  0  0  0  0  0  0  0  0  0  0
    0.5273   -0.1606    3.3517 H   0  0  0  0  0  0  0  0  0  0  0  0
   -1.6650   -3.4945    1.9702 H   0  0  0  0  0  0  0  0  0  0  0  0
   -1.4966    1.0470    3.6474 H   0  0  0  0  0  0  0  0  0  0  0  0
   -3.6887   -2.2586    2.2110 H   0  0  0  0  0  0  0  0  0  0  0  0
   -3.3434  -14.0422   -7.6204 H   0  0  0  0  0  0  0  0  0  0  0  0
   -3.7594  -15.4090   -6.6048 H   0  0  0  0  0  0  0  0  0  0  0  0
   -5.1469    1.9401    2.7570 H   0  0  0  0  0  0  0  0  0  0  0  0
   -3.4766    2.2510    3.1924 H   0  0  0  0  0  0  0  0  0  0  0  0
   -4.8719   -1.4059    4.1696 H   0  0  0  0  0  0  0  0  0  0  0  0
   -5.9836   -0.3563    3.3060 H   0  0  0  0  0  0  0  0  0  0  0  0
   -4.3545    0.9732    0.3862 H   0  0  0  0  0  0  0  0  0  0  0  0
   -2.7372    1.4571    0.9519 H   0  0  0  0  0  0  0  0  0  0  0  0
   -4.4269    0.4950    5.8153 H   0  0  0  0  0  0  0  0  0  0  0  0
   -5.7673    1.3735    5.0565 H   0  0  0  0  0  0  0  0  0  0  0  0
   -0.9383  -14.1555   -8.7451 H   0  0  0  0  0  0  0  0  0  0  0  0
   -3.0277  -17.5570   -7.4106 H   0  0  0  0  0  0  0  0  0  0  0  0
    0.3056  -15.4872  -10.2285 H   0  0  0  0  0  0  0  0  0  0  0  0
   -1.7544  -18.9159   -8.8498 H   0  0  0  0  0  0  0  0  0  0  0  0
   -1.4003  -19.4051  -11.2689 H   0  0  0  0  0  0  0  0  0  0  0  0
   -0.2770  -20.1653  -10.1289 H   0  0  0  0  0  0  0  0  0  0  0  0
    1.9130  -18.4003  -11.8726 H   0  0  0  0  0  0  0  0  0  0  0  0
    1.4986  -16.7907  -11.4903 H   0  0  0  0  0  0  0  0  0  0  0  0
    1.3208  -20.5976  -11.9477 H   0  0  0  0  0  0  0  0  0  0  0  0
    0.2667  -19.7350  -13.0969 H   0  0  0  0  0  0  0  0  0  0  0  0
    2.2175  -17.2100   -9.0850 H   0  0  0  0  0  0  0  0  0  0  0  0
    2.5700  -18.8902   -9.5152 H   0  0  0  0  0  0  0  0  0  0  0  0
  2  1  1  0  0  0  0 
  3  2  1  0  0  0  0 
  2  4  1  0  0  0  0 
  2  5  1  0  0  0  0 
  6  3  1  0  0  0  0 
  3  7  1  0  0  0  0 
  3 55  1  0  0  0  0 
  4  8  1  0  0  0  0 
  4  9  1  0  0  0  0 
  5 10  1  0  0  0  0 
 11  6  1  0  0  0  0 
  6 12  1  0  0  0  0 
  6 53  1  0  0  0  0 
  7  9  1  0  0  0  0 
  8 13  1  0  0  0  0 
 11 10  1  0  0  0  0 
 11 14  1  0  0  0  0 
 11 54  1  0  0  0  0 
 12 15  1  0  0  0  0 
 13 16  1  0  0  0  0 
 13 17  2  0  0  0  0 
 14 18  2  0  0  0  0 
 14 19  1  0  0  0  0 
 15 18  1  0  0  0  0 
 16 20  1  0  0  0  0 
 18 21  1  0  0  0  0 
 19 22  2  0  0  0  0 
 20 23  2  0  0  0  0 
 20 24  1  0  0  0  0 
 21 25  2  0  0  0  0 
 22 25  1  0  0  0  0 
 23 26  1  0  0  0  0 
 24 27  2  0  0  0  0 
 25 28  1  0  0  0  0 
 26 29  2  0  0  0  0 
 27 29  1  0  0  0  0 
 28 30  1  0  0  0  0 
 29 31  1  0  0  0  0 
 30 32  1  0  0  0  0 
 30 33  2  0  0  0  0 
 31 34  1  0  0  0  0 
 31 35  1  0  0  0  0 
 32 36  1  0  0  0  0 
 34 37  1  0  0  0  0 
 35 38  1  0  0  0  0 
 36 39  2  0  0  0  0 
 36 40  1  0  0  0  0 
 37 41  1  0  0  0  0 
 38 42  1  0  0  0  0 
 39 43  1  0  0  0  0 
 40 44  2  0  0  0  0 
 43 45  2  0  0  0  0 
 44 45  1  0  0  0  0 
 45 46  1  0  0  0  0 
 46 47  1  0  0  0  0 
 46 48  1  0  0  0  0 
 47 49  1  0  0  0  0 
 48 50  1  0  0  0  0 
 49 51  1  0  0  0  0 
 50 52  1  0  0  0  0 
  1 56  1  0  0  0  0 
  1 57  1  0  0  0  0 
  1 58  1  0  0  0  0 
  4 59  1  0  0  0  0 
  5 60  1  0  0  0  0 
  5 61  1  0  0  0  0 
  7 62  1  0  0  0  0 
  7 63  1  0  0  0  0 
  9 64  1  0  0  0  0 
  9 65  1  0  0  0  0 
 10 66  1  0  0  0  0 
 10 67  1  0  0  0  0 
 12 68  1  0  0  0  0 
 12 69  1  0  0  0  0 
 15 70  1  0  0  0  0 
 15 71  1  0  0  0  0 
 16 72  1  0  0  0  0 
 16 73  1  0  0  0  0 
 19 74  1  0  0  0  0 
 21 75  1  0  0  0  0 
 22 76  1  0  0  0  0 
 23 77  1  0  0  0  0 
 24 78  1  0  0  0  0 
 26 79  1  0  0  0  0 
 27 80  1  0  0  0  0 
 32 81  1  0  0  0  0 
 32 82  1  0  0  0  0 
 34 83  1  0  0  0  0 
 34 84  1  0  0  0  0 
 35 85  1  0  0  0  0 
 35 86  1  0  0  0  0 
 37 87  1  0  0  0  0 
 37 88  1  0  0  0  0 
 38 89  1  0  0  0  0 
 38 90  1  0  0  0  0 
 39 91  1  0  0  0  0 
 40 92  1  0  0  0  0 
 43 93  1  0  0  0  0 
 44 94  1  0  0  0  0 
 47 95  1  0  0  0  0 
 47 96  1  0  0  0  0 
 48 97  1  0  0  0  0 
 48 98  1  0  0  0  0 
 49 99  1  0  0  0  0 
 49100  1  0  0  0  0 
 50101  1  0  0  0  0 
 50102  1  0  0  0  0 
M  END
> <cdk:Title>
estradiol mustard

> <Conformer>
1

> <SuperDrugID>
SD000947

$$$$
