omacetaxine mepesuccinate
  CDK     0628171802

 78 82  0  0  0  0  0  0  0  0999 V2000
    1.8073    2.8455    3.2646 O   0  0  0  0  0  0  0  0  0  0  0  0
    0.6745    2.9378    2.5006 C   0  0  0  0  0  0  0  0  0  0  0  0
    2.8915    1.9172    3.0736 C   0  0  1  0  0  0  0  0  0  0  0  0
   -0.6495    3.1899    3.1565 C   0  0  1  0  0  0  0  0  0  0  0  0
    0.7600    2.7444    1.2645 O   0  0  0  0  0  0  0  0  0  0  0  0
    4.1658    2.1940    3.9182 C   0  0  2  0  0  0  0  0  0  0  0  0
    2.4371    0.7088    3.7121 C   0  0  0  0  0  0  0  0  0  0  0  0
   -0.9177    2.0360    4.1929 C   0  0  1  0  0  0  0  0  0  0  0  0
   -0.7059    4.6095    3.8152 C   0  0  2  0  0  0  0  0  0  0  0  0
   -1.6725    3.1053    2.1530 O   0  0  0  0  0  0  0  0  0  0  0  0
    3.7765    1.7125    5.3628 C   0  0  2  0  0  0  0  0  0  0  0  0
    4.8583    3.5048    3.6475 C   0  0  0  0  0  0  0  0  0  0  0  0
    1.6340   -0.2021    3.1495 O   0  0  0  0  0  0  0  0  0  0  0  0
    2.8653    0.6323    4.9725 C   0  0  0  0  0  0  0  0  0  0  0  0
   -2.4263    2.0198    4.7953 C   0  0  1  0  0  0  0  0  0  0  0  0
   -0.5381    5.7353    2.8718 C   0  0  0  0  0  0  0  0  0  0  0  0
    3.0726    2.6348    6.3194 N   0  0  2  0  0  0  0  0  0  0  0  0
    4.9577    1.1625    6.2066 C   0  0  2  0  0  0  0  0  0  0  0  0
    4.4929    4.7624    4.2238 C   0  0  0  0  0  0  0  0  0  0  0  0
    5.9659    3.4816    2.7471 C   0  0  0  0  0  0  0  0  0  0  0  0
    2.3232   -1.1314    2.2928 C   0  0  0  0  0  0  0  0  0  0  0  0
   -2.5927    0.6593    5.7027 C   0  0  2  0  0  0  0  0  0  0  0  0
    0.4827    6.6238    3.0467 O   0  0  0  0  0  0  0  0  0  0  0  0
   -1.3545    5.8781    1.9301 O   0  0  0  0  0  0  0  0  0  0  0  0
    3.5525    4.0488    6.4524 C   0  0  2  0  0  0  0  0  0  0  0  0
    3.1306    1.9305    7.6404 C   0  0  2  0  0  0  0  0  0  0  0  0
    4.3807    1.0217    7.6288 C   0  0  2  0  0  0  0  0  0  0  0  0
    3.3705    4.9099    5.1866 C   0  0  1  0  0  0  0  0  0  0  0  0
    5.2400    5.9299    3.9000 C   0  0  0  0  0  0  0  0  0  0  0  0
    6.7030    4.6409    2.4802 C   0  0  0  0  0  0  0  0  0  0  0  0
   -3.9946    0.4064    6.4034 C   0  0  2  0  0  0  0  0  0  0  0  0
    0.7087    7.7877    2.2468 C   0  0  0  0  0  0  0  0  0  0  0  0
    6.3489    5.8451    3.0498 C   0  0  0  0  0  0  0  0  0  0  0  0
    7.7937    4.7609    1.6997 O   0  0  0  0  0  0  0  0  0  0  0  0
   -3.9353   -0.8288    7.3523 C   0  0  0  0  0  0  0  0  0  0  0  0
   -5.1436    0.2406    5.3687 C   0  0  0  0  0  0  0  0  0  0  0  0
   -4.2884    1.5489    7.2106 O   0  0  0  0  0  0  0  0  0  0  0  0
    7.1914    6.8332    2.6875 O   0  0  0  0  0  0  0  0  0  0  0  0
    8.2499    6.0767    2.0662 C   0  0  2  0  0  0  0  0  0  0  0  0
    4.8886    1.4303    3.5832 H   0  0  0  0  0  0  0  0  0  0  0  0
    3.1396    1.7697    2.0172 H   0  0  0  0  0  0  0  0  0  0  0  0
   -0.6484    1.0795    3.6605 H   0  0  0  0  0  0  0  0  0  0  0  0
   -0.1154    2.1254    4.9778 H   0  0  0  0  0  0  0  0  0  0  0  0
    0.0424    4.6807    4.6074 H   0  0  0  0  0  0  0  0  0  0  0  0
   -1.6762    4.7545    4.2912 H   0  0  0  0  0  0  0  0  0  0  0  0
   -2.5009    3.3846    2.5947 H   0  0  0  0  0  0  0  0  0  0  0  0
    2.6004   -0.1112    5.5797 H   0  0  0  0  0  0  0  0  0  0  0  0
   -2.5964    2.8924    5.4276 H   0  0  0  0  0  0  0  0  0  0  0  0
   -3.1581    2.0083    3.9871 H   0  0  0  0  0  0  0  0  0  0  0  0
    5.7805    1.8824    6.2035 H   0  0  0  0  0  0  0  0  0  0  0  0
    5.3399    0.2053    5.8410 H   0  0  0  0  0  0  0  0  0  0  0  0
    6.2609    2.6193    2.2809 H   0  0  0  0  0  0  0  0  0  0  0  0
    1.6149   -1.9111    2.0077 H   0  0  0  0  0  0  0  0  0  0  0  0
    3.1727   -1.6098    2.7915 H   0  0  0  0  0  0  0  0  0  0  0  0
    2.6704   -0.6393    1.3815 H   0  0  0  0  0  0  0  0  0  0  0  0
   -1.8486    0.6096    6.5455 H   0  0  0  0  0  0  0  0  0  0  0  0
   -2.3875   -0.2867    5.1309 H   0  0  0  0  0  0  0  0  0  0  0  0
    4.5913    4.0933    6.7961 H   0  0  0  0  0  0  0  0  0  0  0  0
    2.9431    4.5314    7.2253 H   0  0  0  0  0  0  0  0  0  0  0  0
    2.2250    1.3233    7.7344 H   0  0  0  0  0  0  0  0  0  0  0  0
    3.1599    2.5985    8.5078 H   0  0  0  0  0  0  0  0  0  0  0  0
    5.1193    1.3296    8.3750 H   0  0  0  0  0  0  0  0  0  0  0  0
    4.0893   -0.0162    7.8252 H   0  0  0  0  0  0  0  0  0  0  0  0
    3.2759    5.9510    5.5150 H   0  0  0  0  0  0  0  0  0  0  0  0
    2.4266    4.6718    4.7125 H   0  0  0  0  0  0  0  0  0  0  0  0
    4.9985    6.8443    4.2883 H   0  0  0  0  0  0  0  0  0  0  0  0
   -0.1359    8.4747    2.3388 H   0  0  0  0  0  0  0  0  0  0  0  0
    1.6149    8.2870    2.5883 H   0  0  0  0  0  0  0  0  0  0  0  0
    0.8343    7.5016    1.2018 H   0  0  0  0  0  0  0  0  0  0  0  0
   -3.1591   -0.6921    8.1096 H   0  0  0  0  0  0  0  0  0  0  0  0
   -3.7111   -1.7373    6.7885 H   0  0  0  0  0  0  0  0  0  0  0  0
   -4.8885   -0.9667    7.8687 H   0  0  0  0  0  0  0  0  0  0  0  0
   -6.0933    0.0599    5.8773 H   0  0  0  0  0  0  0  0  0  0  0  0
   -4.9447   -0.5983    4.6985 H   0  0  0  0  0  0  0  0  0  0  0  0
   -5.2541    1.1448    4.7695 H   0  0  0  0  0  0  0  0  0  0  0  0
   -5.1357    1.3405    7.6577 H   0  0  0  0  0  0  0  0  0  0  0  0
    8.6077    6.5988    1.1773 H   0  0  0  0  0  0  0  0  0  0  0  0
    9.0892    5.9854    2.7644 H   0  0  0  0  0  0  0  0  0  0  0  0
  1  2  1  0  0  0  0 
  4  2  1  0  0  0  0 
  2  5  2  0  0  0  0 
  3  1  1  0  0  0  0 
  6  3  1  0  0  0  0 
  3  7  1  0  0  0  0 
  4  8  1  0  0  0  0 
  4  9  1  0  0  0  0 
  4 10  1  0  0  0  0 
 11  6  1  0  0  0  0 
  6 12  1  0  0  0  0 
  6 40  1  0  0  0  0 
  7 13  1  0  0  0  0 
  7 14  2  0  0  0  0 
  8 15  1  0  0  0  0 
  9 16  1  0  0  0  0 
 11 14  1  0  0  0  0 
 11 17  1  0  0  0  0 
 11 18  1  0  0  0  0 
 12 19  2  0  0  0  0 
 12 20  1  0  0  0  0 
 13 21  1  0  0  0  0 
 15 22  1  0  0  0  0 
 16 23  1  0  0  0  0 
 16 24  2  0  0  0  0 
 17 25  1  0  0  0  0 
 17 26  1  0  0  0  0 
 18 27  1  0  0  0  0 
 19 28  1  0  0  0  0 
 19 29  1  0  0  0  0 
 20 30  2  0  0  0  0 
 22 31  1  0  0  0  0 
 23 32  1  0  0  0  0 
 25 28  1  0  0  0  0 
 26 27  1  0  0  0  0 
 29 33  2  0  0  0  0 
 30 33  1  0  0  0  0 
 30 34  1  0  0  0  0 
 31 35  1  0  0  0  0 
 31 36  1  0  0  0  0 
 31 37  1  0  0  0  0 
 33 38  1  0  0  0  0 
 34 39  1  0  0  0  0 
 38 39  1  0  0  0  0 
  3 41  1  0  0  0  0 
  8 42  1  0  0  0  0 
  8 43  1  0  0  0  0 
  9 44  1  0  0  0  0 
  9 45  1  0  0  0  0 
 10 46  1  0  0  0  0 
 14 47  1  0  0  0  0 
 15 48  1  0  0  0  0 
 15 49  1  0  0  0  0 
 18 50  1  0  0  0  0 
 18 51  1  0  0  0  0 
 20 52  1  0  0  0  0 
 21 53  1  0  0  0  0 
 21 54  1  0  0  0  0 
 21 55  1  0  0  0  0 
 22 56  1  0  0  0  0 
 22 57  1  0  0  0  0 
 25 58  1  0  0  0  0 
 25 59  1  0  0  0  0 
 26 60  1  0  0  0  0 
 26 61  1  0  0  0  0 
 27 62  1  0  0  0  0 
 27 63  1  0  0  0  0 
 28 64  1  0  0  0  0 
 28 65  1  0  0  0  0 
 29 66  1  0  0  0  0 
 32 67  1  0  0  0  0 
 32 68  1  0  0  0  0 
 32 69  1  0  0  0  0 
 35 70  1  0  0  0  0 
 35 71  1  0  0  0  0 
 35 72  1  0  0  0  0 
 36 73  1  0  0  0  0 
 36 74  1  0  0  0  0 
 36 75  1  0  0  0  0 
 37 76  1  0  0  0  0 
 39 77  1  0  0  0  0 
 39 78  1  0  0  0  0 
M  END
> <cdk:Title>
omacetaxine mepesuccinate

> <Conformer>
1

> <SuperDrugID>
SD003708

$$$$
