bromazine
  CDK     0628171801

 40 41  0  0  0  0  0  0  0  0999 V2000
   -0.9795   -1.5903    0.0454 C   0  0  2  0  0  0  0  0  0  0  0  0
   -1.2632   -0.1961    0.3351 O   0  0  0  0  0  0  0  0  0  0  0  0
   -1.1422   -1.9039   -1.4073 C   0  0  0  0  0  0  0  0  0  0  0  0
   -1.8404   -2.5142    0.8477 C   0  0  0  0  0  0  0  0  0  0  0  0
   -0.2697    0.7538   -0.1157 C   0  0  2  0  0  0  0  0  0  0  0  0
   -2.3071   -1.5095   -2.1112 C   0  0  0  0  0  0  0  0  0  0  0  0
   -0.1298   -2.5954   -2.1150 C   0  0  0  0  0  0  0  0  0  0  0  0
   -3.1680   -2.1810    1.2127 C   0  0  0  0  0  0  0  0  0  0  0  0
   -1.3360   -3.7763    1.2522 C   0  0  0  0  0  0  0  0  0  0  0  0
   -0.7565    2.2010    0.1355 C   0  0  1  0  0  0  0  0  0  0  0  0
   -2.4439   -1.7756   -3.4858 C   0  0  0  0  0  0  0  0  0  0  0  0
   -0.2722   -2.8767   -3.4862 C   0  0  0  0  0  0  0  0  0  0  0  0
   -3.9594   -3.0750    1.9603 C   0  0  0  0  0  0  0  0  0  0  0  0
   -2.1238   -4.6719    1.9991 C   0  0  0  0  0  0  0  0  0  0  0  0
   -2.1499    2.4715   -0.3483 N   0  0  2  0  0  0  0  0  0  0  0  0
   -1.4276   -2.4641   -4.1735 C   0  0  0  0  0  0  0  0  0  0  0  0
   -3.4373   -4.3201    2.3565 C   0  0  0  0  0  0  0  0  0  0  0  0
   -2.2929    2.4991   -1.8344 C   0  0  0  0  0  0  0  0  0  0  0  0
   -2.7467    3.6890    0.2802 C   0  0  0  0  0  0  0  0  0  0  0  0
   -1.6032   -2.8448   -5.9862 Br  0  0  0  0  0  0  0  0  0  0  0  0
    0.0560   -1.7745    0.3594 H   0  0  0  0  0  0  0  0  0  0  0  0
   -0.0492    0.6283   -1.1792 H   0  0  0  0  0  0  0  0  0  0  0  0
    0.6583    0.5999    0.4423 H   0  0  0  0  0  0  0  0  0  0  0  0
   -3.0596   -1.0197   -1.6243 H   0  0  0  0  0  0  0  0  0  0  0  0
    0.7200   -2.9018   -1.6350 H   0  0  0  0  0  0  0  0  0  0  0  0
   -3.5711   -1.2824    0.9373 H   0  0  0  0  0  0  0  0  0  0  0  0
   -0.3830   -4.0549    1.0059 H   0  0  0  0  0  0  0  0  0  0  0  0
   -0.7063    2.3540    1.2173 H   0  0  0  0  0  0  0  0  0  0  0  0
   -0.0509    2.9001   -0.3239 H   0  0  0  0  0  0  0  0  0  0  0  0
   -3.2859   -1.4743   -3.9820 H   0  0  0  0  0  0  0  0  0  0  0  0
    0.4677   -3.3783   -3.9822 H   0  0  0  0  0  0  0  0  0  0  0  0
   -4.9157   -2.8221    2.2203 H   0  0  0  0  0  0  0  0  0  0  0  0
   -1.7427   -5.5773    2.2844 H   0  0  0  0  0  0  0  0  0  0  0  0
   -4.0090   -4.9677    2.9044 H   0  0  0  0  0  0  0  0  0  0  0  0
   -1.9317    1.5743   -2.2821 H   0  0  0  0  0  0  0  0  0  0  0  0
   -3.3448    2.5911   -2.1076 H   0  0  0  0  0  0  0  0  0  0  0  0
   -1.7453    3.3396   -2.2680 H   0  0  0  0  0  0  0  0  0  0  0  0
   -2.7152    3.6166    1.3697 H   0  0  0  0  0  0  0  0  0  0  0  0
   -3.7962    3.7897   -0.0035 H   0  0  0  0  0  0  0  0  0  0  0  0
   -2.2121    4.5936   -0.0236 H   0  0  0  0  0  0  0  0  0  0  0  0
  1  2  1  0  0  0  0 
  1  3  1  0  0  0  0 
  1  4  1  0  0  0  0 
  2  5  1  0  0  0  0 
  3  6  2  0  0  0  0 
  3  7  1  0  0  0  0 
  4  8  2  0  0  0  0 
  4  9  1  0  0  0  0 
  5 10  1  0  0  0  0 
  6 11  1  0  0  0  0 
  7 12  2  0  0  0  0 
  8 13  1  0  0  0  0 
  9 14  2  0  0  0  0 
 10 15  1  0  0  0  0 
 11 16  2  0  0  0  0 
 12 16  1  0  0  0  0 
 13 17  2  0  0  0  0 
 14 17  1  0  0  0  0 
 15 18  1  0  0  0  0 
 15 19  1  0  0  0  0 
 16 20  1  0  0  0  0 
  1 21  1  0  0  0  0 
  5 22  1  0  0  0  0 
  5 23  1  0  0  0  0 
  6 24  1  0  0  0  0 
  7 25  1  0  0  0  0 
  8 26  1  0  0  0  0 
  9 27  1  0  0  0  0 
 10 28  1  0  0  0  0 
 10 29  1  0  0  0  0 
 11 30  1  0  0  0  0 
 12 31  1  0  0  0  0 
 13 32  1  0  0  0  0 
 14 33  1  0  0  0  0 
 17 34  1  0  0  0  0 
 18 35  1  0  0  0  0 
 18 36  1  0  0  0  0 
 18 37  1  0  0  0  0 
 19 38  1  0  0  0  0 
 19 39  1  0  0  0  0 
 19 40  1  0  0  0  0 
M  END
> <cdk:Title>
bromazine

> <Conformer>
1

> <SuperDrugID>
SD000346

$$$$
