rapacuronium
  CDK     0628171801

104109  0  0  0  0  0  0  0  0999 V2000
  -15.4843   -6.6857    6.7964 C   0  0  2  0  0  0  0  0  0  0  0  0
  -15.5588   -5.3173    6.2767 C   0  0  0  0  0  0  0  0  0  0  0  0
  -15.3689   -7.8355    5.7761 N   0  0  1  0  0  0  0  0  0  0  0  0
  -16.6796   -4.5847    6.2160 C   0  0  0  0  0  0  0  0  0  0  0  0
  -15.2953   -9.1623    6.5256 C   0  0  2  0  0  0  0  0  0  0  0  0
  -16.6228   -7.8677    4.9049 C   0  0  1  0  0  0  0  0  0  0  0  0
  -14.1125   -7.6241    4.8933 C   0  0  2  0  0  0  0  0  0  0  0  0
  -16.5708   -9.5883    7.3132 C   0  0  2  0  0  0  0  0  0  0  0  0
  -17.9555   -8.2166    5.6328 C   0  0  1  0  0  0  0  0  0  0  0  0
  -13.7249   -8.5699    3.6779 C   0  0  2  0  0  0  0  0  0  0  0  0
  -12.7572   -7.4024    5.6523 C   0  0  1  0  0  0  0  0  0  0  0  0
  -17.8502   -9.5328    6.4425 C   0  0  1  0  0  0  0  0  0  0  0  0
  -14.4820   -9.7806    3.4716 O   0  0  0  0  0  0  0  0  0  0  0  0
  -12.2074   -8.9392    3.8535 C   0  0  1  0  0  0  0  0  0  0  0  0
  -11.6629   -7.6867    4.6105 C   0  0  2  0  0  0  0  0  0  0  0  0
  -15.0755  -10.2506    2.3323 C   0  0  0  0  0  0  0  0  0  0  0  0
  -12.0761  -10.3132    4.6285 C   0  0  0  0  0  0  0  0  0  0  0  0
  -11.4000   -9.0254    2.5139 C   0  0  2  0  0  0  0  0  0  0  0  0
  -10.1761   -7.8759    5.0636 C   0  0  1  0  0  0  0  0  0  0  0  0
  -15.6510  -11.6106    2.3362 C   0  0  2  0  0  0  0  0  0  0  0  0
  -15.1223   -9.5619    1.2865 O   0  0  0  0  0  0  0  0  0  0  0  0
   -9.8602   -9.1100    2.7499 C   0  0  2  0  0  0  0  0  0  0  0  0
   -9.2692   -8.0705    3.7780 C   0  0  2  0  0  0  0  0  0  0  0  0
   -9.6329   -6.7422    5.9817 C   0  0  2  0  0  0  0  0  0  0  0  0
  -16.6773  -11.8416    3.4638 C   0  0  0  0  0  0  0  0  0  0  0  0
   -7.6915   -8.2956    4.0781 C   0  0  2  0  0  0  0  0  0  0  0  0
   -8.1440   -6.9847    6.3594 C   0  0  1  0  0  0  0  0  0  0  0  0
   -7.5352   -9.7021    4.8431 C   0  0  0  0  0  0  0  0  0  0  0  0
   -7.2682   -7.0996    5.0760 C   0  0  1  0  0  0  0  0  0  0  0  0
   -6.7553   -8.2188    2.7074 C   0  0  2  0  0  0  0  0  0  0  0  0
   -5.7264   -7.0970    5.3291 C   0  0  2  0  0  0  0  0  0  0  0  0
   -5.1808   -8.2685    3.0181 C   0  0  1  0  0  0  0  0  0  0  0  0
   -4.8943   -7.0677    4.0006 C   0  0  1  0  0  0  0  0  0  0  0  0
   -4.7556   -9.6532    3.4899 N   0  0  2  0  0  0  0  0  0  0  0  0
   -5.1052   -5.8502    3.2599 O   0  0  0  0  0  0  0  0  0  0  0  0
   -3.4266   -9.7487    4.1929 C   0  0  2  0  0  0  0  0  0  0  0  0
   -4.8477  -10.7201    2.4246 C   0  0  1  0  0  0  0  0  0  0  0  0
   -4.7336   -4.5763    3.5774 C   0  0  0  0  0  0  0  0  0  0  0  0
   -3.1508  -11.1574    4.7835 C   0  0  2  0  0  0  0  0  0  0  0  0
   -4.6527  -12.1457    2.9992 C   0  0  1  0  0  0  0  0  0  0  0  0
   -4.9951   -3.5003    2.6134 C   0  0  0  0  0  0  0  0  0  0  0  0
   -4.1504   -4.3058    4.6536 O   0  0  0  0  0  0  0  0  0  0  0  0
   -3.2909  -12.2666    3.7165 C   0  0  1  0  0  0  0  0  0  0  0  0
  -10.1491   -8.7595    5.6922 H   0  0  0  0  0  0  0  0  0  0  0  0
   -9.3237   -7.1138    3.2440 H   0  0  0  0  0  0  0  0  0  0  0  0
  -11.6728   -6.8166    3.9355 H   0  0  0  0  0  0  0  0  0  0  0  0
   -7.4440   -6.1634    4.5325 H   0  0  0  0  0  0  0  0  0  0  0  0
  -16.3392   -6.8299    7.4571 H   0  0  0  0  0  0  0  0  0  0  0  0
  -14.6304   -6.7067    7.4789 H   0  0  0  0  0  0  0  0  0  0  0  0
  -14.7217   -4.8928    5.9514 H   0  0  0  0  0  0  0  0  0  0  0  0
  -17.5486   -4.9436    6.5294 H   0  0  0  0  0  0  0  0  0  0  0  0
  -16.6539   -3.6625    5.8493 H   0  0  0  0  0  0  0  0  0  0  0  0
  -14.4726   -9.1613    7.2438 H   0  0  0  0  0  0  0  0  0  0  0  0
  -15.0893   -9.9778    5.8344 H   0  0  0  0  0  0  0  0  0  0  0  0
  -16.7631   -6.9126    4.3916 H   0  0  0  0  0  0  0  0  0  0  0  0
  -16.5249   -8.6091    4.1141 H   0  0  0  0  0  0  0  0  0  0  0  0
  -14.2861   -6.6615    4.3957 H   0  0  0  0  0  0  0  0  0  0  0  0
  -16.7007   -8.9526    8.1915 H   0  0  0  0  0  0  0  0  0  0  0  0
  -16.4375  -10.6094    7.6818 H   0  0  0  0  0  0  0  0  0  0  0  0
  -18.2458   -7.4068    6.3030 H   0  0  0  0  0  0  0  0  0  0  0  0
  -18.7544   -8.3181    4.8923 H   0  0  0  0  0  0  0  0  0  0  0  0
  -13.8141   -7.9703    2.7629 H   0  0  0  0  0  0  0  0  0  0  0  0
  -12.6666   -6.3737    6.0112 H   0  0  0  0  0  0  0  0  0  0  0  0
  -12.6335   -8.0731    6.5010 H   0  0  0  0  0  0  0  0  0  0  0  0
  -17.8575  -10.3823    5.7567 H   0  0  0  0  0  0  0  0  0  0  0  0
  -18.7287   -9.6338    7.0878 H   0  0  0  0  0  0  0  0  0  0  0  0
  -12.6240  -10.2927    5.5693 H   0  0  0  0  0  0  0  0  0  0  0  0
  -12.4747  -11.1336    4.0285 H   0  0  0  0  0  0  0  0  0  0  0  0
  -11.0483  -10.5849    4.8548 H   0  0  0  0  0  0  0  0  0  0  0  0
  -11.6022   -8.1427    1.8972 H   0  0  0  0  0  0  0  0  0  0  0  0
  -11.7295   -9.8953    1.9358 H   0  0  0  0  0  0  0  0  0  0  0  0
  -14.8332  -12.3257    2.4610 H   0  0  0  0  0  0  0  0  0  0  0  0
  -16.1329  -11.8196    1.3775 H   0  0  0  0  0  0  0  0  0  0  0  0
   -9.3866   -8.9611    1.7767 H   0  0  0  0  0  0  0  0  0  0  0  0
   -9.6247  -10.1264    3.0620 H   0  0  0  0  0  0  0  0  0  0  0  0
  -10.2178   -6.6970    6.9045 H   0  0  0  0  0  0  0  0  0  0  0  0
   -9.7303   -5.7754    5.4804 H   0  0  0  0  0  0  0  0  0  0  0  0
  -17.0614  -12.8618    3.4073 H   0  0  0  0  0  0  0  0  0  0  0  0
  -16.2029  -11.7129    4.4385 H   0  0  0  0  0  0  0  0  0  0  0  0
  -17.5135  -11.1455    3.3715 H   0  0  0  0  0  0  0  0  0  0  0  0
   -7.7956   -6.1478    6.9717 H   0  0  0  0  0  0  0  0  0  0  0  0
   -8.0530   -7.8893    6.9667 H   0  0  0  0  0  0  0  0  0  0  0  0
   -8.2838   -9.8806    5.6081 H   0  0  0  0  0  0  0  0  0  0  0  0
   -6.5727   -9.7926    5.3376 H   0  0  0  0  0  0  0  0  0  0  0  0
   -7.5933  -10.5218    4.1276 H   0  0  0  0  0  0  0  0  0  0  0  0
   -6.9796   -7.2765    2.2007 H   0  0  0  0  0  0  0  0  0  0  0  0
   -7.0539   -8.9905    2.0078 H   0  0  0  0  0  0  0  0  0  0  0  0
   -5.4325   -7.9619    5.9233 H   0  0  0  0  0  0  0  0  0  0  0  0
   -5.4659   -6.2183    5.9233 H   0  0  0  0  0  0  0  0  0  0  0  0
   -4.5115   -8.0596    2.1342 H   0  0  0  0  0  0  0  0  0  0  0  0
   -3.8312   -7.0562    4.2495 H   0  0  0  0  0  0  0  0  0  0  0  0
   -3.3897   -9.0735    5.0462 H   0  0  0  0  0  0  0  0  0  0  0  0
   -2.6179   -9.4724    3.5089 H   0  0  0  0  0  0  0  0  0  0  0  0
   -5.8229  -10.7383    1.9446 H   0  0  0  0  0  0  0  0  0  0  0  0
   -4.1057  -10.5379    1.6395 H   0  0  0  0  0  0  0  0  0  0  0  0
   -3.8599  -11.3502    5.5945 H   0  0  0  0  0  0  0  0  0  0  0  0
   -2.1426  -11.1877    5.2048 H   0  0  0  0  0  0  0  0  0  0  0  0
   -5.4586  -12.3626    3.7075 H   0  0  0  0  0  0  0  0  0  0  0  0
   -4.7069  -12.8805    2.1913 H   0  0  0  0  0  0  0  0  0  0  0  0
   -4.0450   -3.0704    2.2914 H   0  0  0  0  0  0  0  0  0  0  0  0
   -5.5224   -3.8794    1.7351 H   0  0  0  0  0  0  0  0  0  0  0  0
   -5.6006   -2.7219    3.0800 H   0  0  0  0  0  0  0  0  0  0  0  0
   -2.4812  -12.1830    2.9854 H   0  0  0  0  0  0  0  0  0  0  0  0
   -3.2162  -13.2479    4.1935 H   0  0  0  0  0  0  0  0  0  0  0  0
  1  2  1  0  0  0  0 
  1  3  1  0  0  0  0 
  2  4  2  0  0  0  0 
  3  5  1  0  0  0  0 
  3  6  1  0  0  0  0 
  5  8  1  0  0  0  0 
  6  9  1  0  0  0  0 
  7  3  1  0  0  0  0 
 10  7  1  0  0  0  0 
 11  7  1  0  0  0  0 
  8 12  1  0  0  0  0 
  9 12  1  0  0  0  0 
 10 13  1  0  0  0  0 
 14 10  1  0  0  0  0 
 15 11  1  0  0  0  0 
 13 16  1  0  0  0  0 
 14 15  1  0  0  0  0 
 14 17  1  0  0  0  0 
 14 18  1  0  0  0  0 
 15 19  1  0  0  0  0 
 15 46  1  0  0  0  0 
 16 20  1  0  0  0  0 
 16 21  2  0  0  0  0 
 18 22  1  0  0  0  0 
 19 23  1  0  0  0  0 
 19 24  1  0  0  0  0 
 19 44  1  0  0  0  0 
 20 25  1  0  0  0  0 
 23 22  1  0  0  0  0 
 23 26  1  0  0  0  0 
 23 45  1  0  0  0  0 
 24 27  1  0  0  0  0 
 26 28  1  0  0  0  0 
 26 29  1  0  0  0  0 
 26 30  1  0  0  0  0 
 29 27  1  0  0  0  0 
 29 31  1  0  0  0  0 
 29 47  1  0  0  0  0 
 32 30  1  0  0  0  0 
 33 31  1  0  0  0  0 
 32 33  1  0  0  0  0 
 32 34  1  0  0  0  0 
 33 35  1  0  0  0  0 
 34 36  1  0  0  0  0 
 34 37  1  0  0  0  0 
 35 38  1  0  0  0  0 
 36 39  1  0  0  0  0 
 37 40  1  0  0  0  0 
 38 41  1  0  0  0  0 
 38 42  2  0  0  0  0 
 39 43  1  0  0  0  0 
 40 43  1  0  0  0  0 
  1 48  1  0  0  0  0 
  1 49  1  0  0  0  0 
  2 50  1  0  0  0  0 
  4 51  1  0  0  0  0 
  4 52  1  0  0  0  0 
  5 53  1  0  0  0  0 
  5 54  1  0  0  0  0 
  6 55  1  0  0  0  0 
  6 56  1  0  0  0  0 
  7 57  1  0  0  0  0 
  8 58  1  0  0  0  0 
  8 59  1  0  0  0  0 
  9 60  1  0  0  0  0 
  9 61  1  0  0  0  0 
 10 62  1  0  0  0  0 
 11 63  1  0  0  0  0 
 11 64  1  0  0  0  0 
 12 65  1  0  0  0  0 
 12 66  1  0  0  0  0 
 17 67  1  0  0  0  0 
 17 68  1  0  0  0  0 
 17 69  1  0  0  0  0 
 18 70  1  0  0  0  0 
 18 71  1  0  0  0  0 
 20 72  1  0  0  0  0 
 20 73  1  0  0  0  0 
 22 74  1  0  0  0  0 
 22 75  1  0  0  0  0 
 24 76  1  0  0  0  0 
 24 77  1  0  0  0  0 
 25 78  1  0  0  0  0 
 25 79  1  0  0  0  0 
 25 80  1  0  0  0  0 
 27 81  1  0  0  0  0 
 27 82  1  0  0  0  0 
 28 83  1  0  0  0  0 
 28 84  1  0  0  0  0 
 28 85  1  0  0  0  0 
 30 86  1  0  0  0  0 
 30 87  1  0  0  0  0 
 31 88  1  0  0  0  0 
 31 89  1  0  0  0  0 
 32 90  1  0  0  0  0 
 33 91  1  0  0  0  0 
 36 92  1  0  0  0  0 
 36 93  1  0  0  0  0 
 37 94  1  0  0  0  0 
 37 95  1  0  0  0  0 
 39 96  1  0  0  0  0 
 39 97  1  0  0  0  0 
 40 98  1  0  0  0  0 
 40 99  1  0  0  0  0 
 41100  1  0  0  0  0 
 41101  1  0  0  0  0 
 41102  1  0  0  0  0 
 43103  1  0  0  0  0 
 43104  1  0  0  0  0 
M  CHG  1   3   1
M  END
> <cdk:Title>
rapacuronium

> <Conformer>
1

> <SuperDrugID>
SD003029

$$$$
