deserpidine
  CDK     0628171802

 80 85  0  0  0  0  0  0  0  0999 V2000
   -1.3879    1.0664    2.7183 C   0  0  0  0  0  0  0  0  0  0  0  0
   -0.1282    1.2008    2.2022 O   0  0  0  0  0  0  0  0  0  0  0  0
   -1.7213    1.7322    3.7285 O   0  0  0  0  0  0  0  0  0  0  0  0
   -2.3843    0.1451    2.1006 C   0  0  1  0  0  0  0  0  0  0  0  0
    0.8809    2.1207    2.6329 C   0  0  0  0  0  0  0  0  0  0  0  0
   -3.6416    0.9405    1.5934 C   0  0  1  0  0  0  0  0  0  0  0  0
   -1.7895   -0.7803    0.9767 C   0  0  1  0  0  0  0  0  0  0  0  0
   -3.3309    2.0650    0.5475 C   0  0  1  0  0  0  0  0  0  0  0  0
   -4.7070   -0.0572    1.0382 C   0  0  1  0  0  0  0  0  0  0  0  0
   -0.5943   -1.4947    1.3829 O   0  0  0  0  0  0  0  0  0  0  0  0
   -2.8498   -1.6930    0.2567 C   0  0  1  0  0  0  0  0  0  0  0  0
   -4.5974    2.7339   -0.0742 C   0  0  2  0  0  0  0  0  0  0  0  0
   -5.9872    0.7214    0.6284 C   0  0  1  0  0  0  0  0  0  0  0  0
   -4.1424   -0.9245   -0.1297 C   0  0  2  0  0  0  0  0  0  0  0  0
   -0.6812   -2.5228    2.3887 C   0  0  0  0  0  0  0  0  0  0  0  0
   -2.3160   -2.2049   -0.9817 O   0  0  0  0  0  0  0  0  0  0  0  0
   -5.1296    3.9034    0.6717 C   0  0  0  0  0  0  0  0  0  0  0  0
   -5.6862    1.7486   -0.4173 N   0  0  1  0  0  0  0  0  0  0  0  0
   -1.2413   -3.0343   -1.1065 C   0  0  0  0  0  0  0  0  0  0  0  0
   -6.4827    4.2545    0.6575 C   0  0  0  0  0  0  0  0  0  0  0  0
   -4.4375    4.8469    1.3392 N   0  0  0  0  0  0  0  0  0  0  0  0
   -6.9013    2.4107   -0.9964 C   0  0  1  0  0  0  0  0  0  0  0  0
   -1.3405   -4.2009   -0.6581 O   0  0  0  0  0  0  0  0  0  0  0  0
   -0.0220   -2.5161   -1.6237 C   0  0  0  0  0  0  0  0  0  0  0  0
   -6.5821    5.4542    1.3610 C   0  0  0  0  0  0  0  0  0  0  0  0
   -7.5284    3.4719   -0.0419 C   0  0  2  0  0  0  0  0  0  0  0  0
   -5.2871    5.7985    1.7536 C   0  0  0  0  0  0  0  0  0  0  0  0
    1.1881   -3.2201   -1.4537 C   0  0  0  0  0  0  0  0  0  0  0  0
    0.0324   -1.2303   -2.2101 C   0  0  0  0  0  0  0  0  0  0  0  0
   -7.6728    6.2910    1.6624 C   0  0  0  0  0  0  0  0  0  0  0  0
   -5.0253    6.9972    2.4395 C   0  0  0  0  0  0  0  0  0  0  0  0
    2.4269   -2.6049   -1.7177 C   0  0  0  0  0  0  0  0  0  0  0  0
    1.2649   -0.5996   -2.4722 C   0  0  0  0  0  0  0  0  0  0  0  0
   -7.4243    7.4983    2.3537 C   0  0  0  0  0  0  0  0  0  0  0  0
   -6.1092    7.8523    2.7334 C   0  0  0  0  0  0  0  0  0  0  0  0
    3.5786   -3.3056   -1.4810 O   0  0  0  0  0  0  0  0  0  0  0  0
    2.5207   -1.2554   -2.2133 C   0  0  0  0  0  0  0  0  0  0  0  0
    1.2763    0.6686   -2.9913 O   0  0  0  0  0  0  0  0  0  0  0  0
    3.9728   -3.2724   -0.0960 C   0  0  0  0  0  0  0  0  0  0  0  0
    3.7942   -0.5935   -2.4040 O   0  0  0  0  0  0  0  0  0  0  0  0
    1.1901    1.7050   -1.9933 C   0  0  0  0  0  0  0  0  0  0  0  0
    4.2600   -0.7185   -3.8398 C   0  0  0  0  0  0  0  0  0  0  0  0
   -4.2663    3.1587   -1.0292 H   0  0  0  0  0  0  0  0  0  0  0  0
   -4.0872    1.4331    2.4670 H   0  0  0  0  0  0  0  0  0  0  0  0
   -4.9887   -0.7453    1.8438 H   0  0  0  0  0  0  0  0  0  0  0  0
   -2.7223   -0.5099    2.9077 H   0  0  0  0  0  0  0  0  0  0  0  0
    1.0556    2.0336    3.7084 H   0  0  0  0  0  0  0  0  0  0  0  0
    1.8074    1.8973    2.1037 H   0  0  0  0  0  0  0  0  0  0  0  0
    0.5741    3.1423    2.3926 H   0  0  0  0  0  0  0  0  0  0  0  0
   -1.4036   -0.1119    0.2027 H   0  0  0  0  0  0  0  0  0  0  0  0
   -2.6896    2.8238    1.0004 H   0  0  0  0  0  0  0  0  0  0  0  0
   -2.7571    1.6425   -0.2773 H   0  0  0  0  0  0  0  0  0  0  0  0
   -3.1439   -2.5214    0.9048 H   0  0  0  0  0  0  0  0  0  0  0  0
   -6.7195    0.0036    0.2499 H   0  0  0  0  0  0  0  0  0  0  0  0
   -6.4230    1.1899    1.5157 H   0  0  0  0  0  0  0  0  0  0  0  0
   -3.9406   -0.2962   -1.0024 H   0  0  0  0  0  0  0  0  0  0  0  0
   -4.9001   -1.6523   -0.4353 H   0  0  0  0  0  0  0  0  0  0  0  0
    0.3226   -2.9232    2.5384 H   0  0  0  0  0  0  0  0  0  0  0  0
   -1.3197   -3.3471    2.0737 H   0  0  0  0  0  0  0  0  0  0  0  0
   -1.0378   -2.1335    3.3428 H   0  0  0  0  0  0  0  0  0  0  0  0
   -3.4765    4.8533    1.4763 H   0  0  0  0  0  0  0  0  0  0  0  0
   -6.6008    2.9106   -1.9222 H   0  0  0  0  0  0  0  0  0  0  0  0
   -7.6517    1.6672   -1.2781 H   0  0  0  0  0  0  0  0  0  0  0  0
   -8.1590    4.1438   -0.6291 H   0  0  0  0  0  0  0  0  0  0  0  0
   -8.1572    2.9778    0.7008 H   0  0  0  0  0  0  0  0  0  0  0  0
    1.1875   -4.1760   -1.0887 H   0  0  0  0  0  0  0  0  0  0  0  0
   -0.8294   -0.7207   -2.4240 H   0  0  0  0  0  0  0  0  0  0  0  0
   -8.6225    6.0389    1.3807 H   0  0  0  0  0  0  0  0  0  0  0  0
   -4.0715    7.2498    2.7075 H   0  0  0  0  0  0  0  0  0  0  0  0
   -8.2007    8.1256    2.5758 H   0  0  0  0  0  0  0  0  0  0  0  0
   -5.9410    8.7355    3.2196 H   0  0  0  0  0  0  0  0  0  0  0  0
    4.8755   -3.8731    0.0132 H   0  0  0  0  0  0  0  0  0  0  0  0
    4.1972   -2.2517    0.2253 H   0  0  0  0  0  0  0  0  0  0  0  0
    3.2039   -3.6985    0.5559 H   0  0  0  0  0  0  0  0  0  0  0  0
    1.2686    2.6686   -2.4981 H   0  0  0  0  0  0  0  0  0  0  0  0
    0.2312    1.6759   -1.4687 H   0  0  0  0  0  0  0  0  0  0  0  0
    2.0068    1.6392   -1.2694 H   0  0  0  0  0  0  0  0  0  0  0  0
    5.2696   -0.2730   -4.0151 H   0  0  0  0  0  0  0  0  0  0  0  0
    4.3511   -1.7699   -4.2010 H   0  0  0  0  0  0  0  0  0  0  0  0
    3.5976   -0.2113   -4.5802 H   0  0  0  0  0  0  0  0  0  0  0  0
  1  2  1  0  0  0  0 
  1  3  2  0  0  0  0 
  2  5  1  0  0  0  0 
  4  1  1  0  0  0  0 
  4  6  1  0  0  0  0 
  7  4  1  0  0  0  0 
  6  8  1  0  0  0  0 
  6  9  1  0  0  0  0 
  6 44  1  0  0  0  0 
  7 10  1  0  0  0  0 
 11  7  1  0  0  0  0 
 12  8  1  0  0  0  0 
  9 13  1  0  0  0  0 
  9 14  1  0  0  0  0 
  9 45  1  0  0  0  0 
 10 15  1  0  0  0  0 
 11 14  1  0  0  0  0 
 11 16  1  0  0  0  0 
 12 17  1  0  0  0  0 
 12 18  1  0  0  0  0 
 12 43  1  0  0  0  0 
 13 18  1  0  0  0  0 
 16 19  1  0  0  0  0 
 17 20  2  0  0  0  0 
 17 21  1  0  0  0  0 
 18 22  1  0  0  0  0 
 19 23  2  0  0  0  0 
 19 24  1  0  0  0  0 
 20 25  1  0  0  0  0 
 20 26  1  0  0  0  0 
 21 27  1  0  0  0  0 
 22 26  1  0  0  0  0 
 24 28  2  0  0  0  0 
 24 29  1  0  0  0  0 
 25 27  1  0  0  0  0 
 25 30  2  0  0  0  0 
 27 31  2  0  0  0  0 
 28 32  1  0  0  0  0 
 29 33  2  0  0  0  0 
 30 34  1  0  0  0  0 
 31 35  1  0  0  0  0 
 32 36  1  0  0  0  0 
 32 37  2  0  0  0  0 
 33 37  1  0  0  0  0 
 33 38  1  0  0  0  0 
 34 35  2  0  0  0  0 
 36 39  1  0  0  0  0 
 37 40  1  0  0  0  0 
 38 41  1  0  0  0  0 
 40 42  1  0  0  0  0 
  4 46  1  0  0  0  0 
  5 47  1  0  0  0  0 
  5 48  1  0  0  0  0 
  5 49  1  0  0  0  0 
  7 50  1  0  0  0  0 
  8 51  1  0  0  0  0 
  8 52  1  0  0  0  0 
 11 53  1  0  0  0  0 
 13 54  1  0  0  0  0 
 13 55  1  0  0  0  0 
 14 56  1  0  0  0  0 
 14 57  1  0  0  0  0 
 15 58  1  0  0  0  0 
 15 59  1  0  0  0  0 
 15 60  1  0  0  0  0 
 21 61  1  0  0  0  0 
 22 62  1  0  0  0  0 
 22 63  1  0  0  0  0 
 26 64  1  0  0  0  0 
 26 65  1  0  0  0  0 
 28 66  1  0  0  0  0 
 29 67  1  0  0  0  0 
 30 68  1  0  0  0  0 
 31 69  1  0  0  0  0 
 34 70  1  0  0  0  0 
 35 71  1  0  0  0  0 
 39 72  1  0  0  0  0 
 39 73  1  0  0  0  0 
 39 74  1  0  0  0  0 
 41 75  1  0  0  0  0 
 41 76  1  0  0  0  0 
 41 77  1  0  0  0  0 
 42 78  1  0  0  0  0 
 42 79  1  0  0  0  0 
 42 80  1  0  0  0  0 
M  END
> <cdk:Title>
deserpidine

> <Conformer>
1

> <SuperDrugID>
SD000715

$$$$
