lifitegrast
  CDK     0628171802

 65 69  0  0  0  0  0  0  0  0999 V2000
    2.6846   -2.5346   -0.0880 C   0  0  0  0  0  0  0  0  0  0  0  0
    1.9882   -3.5177   -0.8082 C   0  0  0  0  0  0  0  0  0  0  0  0
    0.8155   -3.2264   -1.5017 C   0  0  0  0  0  0  0  0  0  0  0  0
    0.2903   -1.9233   -1.5086 C   0  0  0  0  0  0  0  0  0  0  0  0
    0.9754   -0.9022   -0.7982 C   0  0  0  0  0  0  0  0  0  0  0  0
    2.1685   -1.2225   -0.0903 C   0  0  0  0  0  0  0  0  0  0  0  0
    0.3539   -4.3436   -2.1131 O   0  0  0  0  0  0  0  0  0  0  0  0
    1.2232   -5.3441   -1.8161 C   0  0  0  0  0  0  0  0  0  0  0  0
    2.2511   -4.8637   -1.0082 C   0  0  0  0  0  0  0  0  0  0  0  0
    0.5195    0.4408   -0.8289 C   0  0  0  0  0  0  0  0  0  0  0  0
   -0.7567    0.8911   -0.4942 N   0  0  0  0  0  0  0  0  0  0  0  0
    1.3881    1.2615   -1.2170 O   0  0  0  0  0  0  0  0  0  0  0  0
   -1.0547    2.3058   -0.6560 C   0  0  2  0  0  0  0  0  0  0  0  0
   -2.3721    2.8049   -0.1719 C   0  0  0  0  0  0  0  0  0  0  0  0
   -3.2607    1.9737    0.5552 C   0  0  0  0  0  0  0  0  0  0  0  0
   -2.7258    0.6582    1.0120 C   0  0  2  0  0  0  0  0  0  0  0  0
   -1.8088    0.0014   -0.0432 C   0  0  1  0  0  0  0  0  0  0  0  0
   -2.7321    4.1381   -0.4542 C   0  0  0  0  0  0  0  0  0  0  0  0
   -3.9859    4.6428   -0.0745 C   0  0  0  0  0  0  0  0  0  0  0  0
   -4.9232    3.7968    0.5691 C   0  0  0  0  0  0  0  0  0  0  0  0
   -4.5651    2.4523    0.8693 C   0  0  0  0  0  0  0  0  0  0  0  0
   -5.6944    1.4338    1.6434 Cl  0  0  0  0  0  0  0  0  0  0  0  0
   -4.3032    6.2749   -0.4262 Cl  0  0  0  0  0  0  0  0  0  0  0  0
   -6.1800    4.3081    0.9582 C   0  0  0  0  0  0  0  0  0  0  0  0
   -7.2124    3.9388    0.3509 O   0  0  0  0  0  0  0  0  0  0  0  0
   -6.2108    5.1658    2.0100 N   0  0  0  0  0  0  0  0  0  0  0  0
   -7.3685    5.7065    2.6607 C   0  0  2  0  0  0  0  0  0  0  0  0
   -7.4670    7.1328    2.2827 C   0  0  0  0  0  0  0  0  0  0  0  0
   -7.2529    5.5172    4.2061 C   0  0  2  0  0  0  0  0  0  0  0  0
   -6.8870    4.1213    4.5839 C   0  0  0  0  0  0  0  0  0  0  0  0
   -5.5477    3.7960    4.8974 C   0  0  0  0  0  0  0  0  0  0  0  0
   -5.1546    2.4432    5.2034 C   0  0  0  0  0  0  0  0  0  0  0  0
   -6.1539    1.4543    5.1927 C   0  0  0  0  0  0  0  0  0  0  0  0
   -7.4967    1.7653    4.9009 C   0  0  0  0  0  0  0  0  0  0  0  0
   -7.8548    3.0924    4.5883 C   0  0  0  0  0  0  0  0  0  0  0  0
   -8.7163    0.4797    4.9248 S   0  0  1  0  0  0  0  0  0  0  0  0
   -8.3204   -0.6507    5.9943 O   0  0  0  0  0  0  0  0  0  0  0  0
  -10.1546    1.0679    5.3259 O   0  0  0  0  0  0  0  0  0  0  0  0
   -8.8250   -0.2981    3.2722 C   0  0  0  0  0  0  0  0  0  0  0  0
   -6.4003    7.9583    2.4149 O   0  0  0  0  0  0  0  0  0  0  0  0
   -8.5241    7.6012    1.8032 O   0  0  0  0  0  0  0  0  0  0  0  0
   -8.2759    5.1914    2.3286 H   0  0  0  0  0  0  0  0  0  0  0  0
    3.5460   -2.7621    0.4167 H   0  0  0  0  0  0  0  0  0  0  0  0
   -0.5642   -1.7278   -2.0371 H   0  0  0  0  0  0  0  0  0  0  0  0
    2.6776   -0.4993    0.4265 H   0  0  0  0  0  0  0  0  0  0  0  0
    1.1358   -6.3076   -2.1428 H   0  0  0  0  0  0  0  0  0  0  0  0
    3.0438   -5.3955   -0.6407 H   0  0  0  0  0  0  0  0  0  0  0  0
   -0.9902    2.5259   -1.7254 H   0  0  0  0  0  0  0  0  0  0  0  0
   -0.2918    2.8928   -0.1385 H   0  0  0  0  0  0  0  0  0  0  0  0
   -3.5099   -0.0566    1.2601 H   0  0  0  0  0  0  0  0  0  0  0  0
   -2.1383    0.8343    1.9180 H   0  0  0  0  0  0  0  0  0  0  0  0
   -2.4135   -0.2892   -0.9075 H   0  0  0  0  0  0  0  0  0  0  0  0
   -1.4142   -0.9108    0.4129 H   0  0  0  0  0  0  0  0  0  0  0  0
   -2.0677    4.7485   -0.9398 H   0  0  0  0  0  0  0  0  0  0  0  0
   -5.3514    5.4122    2.3847 H   0  0  0  0  0  0  0  0  0  0  0  0
   -8.2039    5.7752    4.6807 H   0  0  0  0  0  0  0  0  0  0  0  0
   -6.5116    6.2150    4.6104 H   0  0  0  0  0  0  0  0  0  0  0  0
   -4.8272    4.5215    4.8989 H   0  0  0  0  0  0  0  0  0  0  0  0
   -4.1687    2.0906    5.4455 H   0  0  0  0  0  0  0  0  0  0  0  0
   -5.8904    0.4909    5.4058 H   0  0  0  0  0  0  0  0  0  0  0  0
   -8.8284    3.3141    4.3656 H   0  0  0  0  0  0  0  0  0  0  0  0
   -7.8556   -0.7170    2.9990 H   0  0  0  0  0  0  0  0  0  0  0  0
   -9.5683   -1.0949    3.2997 H   0  0  0  0  0  0  0  0  0  0  0  0
   -9.1180    0.4489    2.5338 H   0  0  0  0  0  0  0  0  0  0  0  0
   -6.4557    8.8894    2.1100 H   0  0  0  0  0  0  0  0  0  0  0  0
  1  2  2  0  0  0  0 
  1  6  1  0  0  0  0 
  2  3  1  0  0  0  0 
  3  4  2  0  0  0  0 
  4  5  1  0  0  0  0 
  5  6  2  0  0  0  0 
  7  8  1  0  0  0  0 
  8  9  2  0  0  0  0 
  2  9  1  0  0  0  0 
  3  7  1  0  0  0  0 
  5 10  1  0  0  0  0 
 10 11  1  0  0  0  0 
 10 12  2  0  0  0  0 
 13 14  1  0  0  0  0 
 15 16  1  0  0  0  0 
 16 17  1  0  0  0  0 
 11 13  1  0  0  0  0 
 11 17  1  0  0  0  0 
 18 19  1  0  0  0  0 
 19 20  2  0  0  0  0 
 20 21  1  0  0  0  0 
 14 18  2  0  0  0  0 
 15 21  2  0  0  0  0 
 15 14  1  0  0  0  0 
 21 22  1  0  0  0  0 
 19 23  1  0  0  0  0 
 20 24  1  0  0  0  0 
 24 25  2  0  0  0  0 
 24 26  1  0  0  0  0 
 26 27  1  0  0  0  0 
 27 28  1  0  0  0  0 
 27 29  1  0  0  0  0 
 29 30  1  0  0  0  0 
 31 32  1  0  0  0  0 
 32 33  2  0  0  0  0 
 33 34  1  0  0  0  0 
 34 35  2  0  0  0  0 
 30 31  2  0  0  0  0 
 30 35  1  0  0  0  0 
 34 36  1  0  0  0  0 
 36 37  2  0  0  0  0 
 36 38  2  0  0  0  0 
 36 39  1  0  0  0  0 
 28 40  1  0  0  0  0 
 28 41  2  0  0  0  0 
 27 42  1  0  0  0  0 
  1 43  1  0  0  0  0 
  4 44  1  0  0  0  0 
  6 45  1  0  0  0  0 
  8 46  1  0  0  0  0 
  9 47  1  0  0  0  0 
 13 48  1  0  0  0  0 
 13 49  1  0  0  0  0 
 16 50  1  0  0  0  0 
 16 51  1  0  0  0  0 
 17 52  1  0  0  0  0 
 17 53  1  0  0  0  0 
 18 54  1  0  0  0  0 
 26 55  1  0  0  0  0 
 29 56  1  0  0  0  0 
 29 57  1  0  0  0  0 
 31 58  1  0  0  0  0 
 32 59  1  0  0  0  0 
 33 60  1  0  0  0  0 
 35 61  1  0  0  0  0 
 39 62  1  0  0  0  0 
 39 63  1  0  0  0  0 
 39 64  1  0  0  0  0 
 40 65  1  0  0  0  0 
M  END
> <cdk:Title>
lifitegrast

> <Conformer>
1

> <SuperDrugID>
SD003928

$$$$
