ethionamide
  CDK     0628171801

 21 21  0  0  0  0  0  0  0  0999 V2000
    4.3850   -0.4826   -0.7587 C   0  0  0  0  0  0  0  0  0  0  0  0
    3.3747    0.2025   -1.2595 N   0  0  0  0  0  0  0  0  0  0  0  0
    3.8895   -1.6232    0.4082 S   0  0  0  0  0  0  0  0  0  0  0  0
    5.7215   -0.2793   -1.1466 C   0  0  0  0  0  0  0  0  0  0  0  0
    6.8040   -0.8704   -0.4420 C   0  0  0  0  0  0  0  0  0  0  0  0
    6.0521    0.5272   -2.2691 C   0  0  0  0  0  0  0  0  0  0  0  0
    8.1411   -0.6866   -0.8628 C   0  0  0  0  0  0  0  0  0  0  0  0
    7.3942    0.7150   -2.6431 C   0  0  0  0  0  0  0  0  0  0  0  0
    9.2808   -1.3271   -0.1585 C   0  0  2  0  0  0  0  0  0  0  0  0
    8.3802    0.1054   -1.9416 N   0  0  0  0  0  0  0  0  0  0  0  0
    9.2443   -2.8725   -0.2242 C   0  0  0  0  0  0  0  0  0  0  0  0
    3.5235    0.8768   -1.9364 H   0  0  0  0  0  0  0  0  0  0  0  0
    2.4723    0.0361   -0.9425 H   0  0  0  0  0  0  0  0  0  0  0  0
    6.6347   -1.4420    0.3879 H   0  0  0  0  0  0  0  0  0  0  0  0
    5.3311    0.9874   -2.8302 H   0  0  0  0  0  0  0  0  0  0  0  0
    7.6301    1.3063   -3.4419 H   0  0  0  0  0  0  0  0  0  0  0  0
    9.2817   -1.0150    0.8891 H   0  0  0  0  0  0  0  0  0  0  0  0
   10.2221   -0.9899   -0.6021 H   0  0  0  0  0  0  0  0  0  0  0  0
   10.1190   -3.2812    0.2835 H   0  0  0  0  0  0  0  0  0  0  0  0
    8.3506   -3.2650    0.2652 H   0  0  0  0  0  0  0  0  0  0  0  0
    9.2553   -3.2089   -1.2630 H   0  0  0  0  0  0  0  0  0  0  0  0
  1  2  1  0  0  0  0 
  1  3  2  0  0  0  0 
  1  4  1  0  0  0  0 
  4  5  2  0  0  0  0 
  4  6  1  0  0  0  0 
  5  7  1  0  0  0  0 
  6  8  2  0  0  0  0 
  7  9  1  0  0  0  0 
  7 10  2  0  0  0  0 
  8 10  1  0  0  0  0 
  9 11  1  0  0  0  0 
  2 12  1  0  0  0  0 
  2 13  1  0  0  0  0 
  5 14  1  0  0  0  0 
  6 15  1  0  0  0  0 
  8 16  1  0  0  0  0 
  9 17  1  0  0  0  0 
  9 18  1  0  0  0  0 
 11 19  1  0  0  0  0 
 11 20  1  0  0  0  0 
 11 21  1  0  0  0  0 
M  END
> <cdk:Title>
ethionamide

> <Conformer>
1

> <SuperDrugID>
SD000967

$$$$
