chlorazanil
  CDK     0628171802

 23 24  0  0  0  0  0  0  0  0999 V2000
    2.6158    2.8289   -0.2199 N   0  0  0  0  0  0  0  0  0  0  0  0
    2.6972    4.0627   -0.7854 C   0  0  0  0  0  0  0  0  0  0  0  0
    1.5635    1.9620   -0.1023 C   0  0  0  0  0  0  0  0  0  0  0  0
    1.7219    4.6604   -1.5222 N   0  0  0  0  0  0  0  0  0  0  0  0
    3.8752    4.7172   -0.6169 N   0  0  0  0  0  0  0  0  0  0  0  0
    1.8971    0.6416    0.2777 C   0  0  0  0  0  0  0  0  0  0  0  0
    0.1957    2.2741   -0.3041 C   0  0  0  0  0  0  0  0  0  0  0  0
    1.9172    5.8865   -2.0734 C   0  0  0  0  0  0  0  0  0  0  0  0
    4.0797    5.9407   -1.1633 C   0  0  0  0  0  0  0  0  0  0  0  0
    0.9049   -0.3413    0.4416 C   0  0  0  0  0  0  0  0  0  0  0  0
   -0.7990    1.2894   -0.1458 C   0  0  0  0  0  0  0  0  0  0  0  0
    0.9563    6.4710   -2.8038 N   0  0  0  0  0  0  0  0  0  0  0  0
    3.0981    6.5255   -1.8912 N   0  0  0  0  0  0  0  0  0  0  0  0
   -0.4480   -0.0202    0.2320 C   0  0  0  0  0  0  0  0  0  0  0  0
   -1.6418   -1.2033    0.4417 Cl  0  0  0  0  0  0  0  0  0  0  0  0
    3.4540    2.5008    0.1403 H   0  0  0  0  0  0  0  0  0  0  0  0
    2.8737    0.3810    0.4393 H   0  0  0  0  0  0  0  0  0  0  0  0
   -0.1013    3.2166   -0.5540 H   0  0  0  0  0  0  0  0  0  0  0  0
    4.9703    6.4190   -1.0292 H   0  0  0  0  0  0  0  0  0  0  0  0
    1.1754   -1.2873    0.7195 H   0  0  0  0  0  0  0  0  0  0  0  0
   -1.7795    1.5326   -0.3030 H   0  0  0  0  0  0  0  0  0  0  0  0
    1.1111    7.3393   -3.2098 H   0  0  0  0  0  0  0  0  0  0  0  0
    0.1076    6.0234   -2.9362 H   0  0  0  0  0  0  0  0  0  0  0  0
  1  2  1  0  0  0  0 
  1  3  1  0  0  0  0 
  2  4  2  0  0  0  0 
  2  5  1  0  0  0  0 
  3  6  2  0  0  0  0 
  3  7  1  0  0  0  0 
  4  8  1  0  0  0  0 
  5  9  2  0  0  0  0 
  6 10  1  0  0  0  0 
  7 11  2  0  0  0  0 
  8 12  1  0  0  0  0 
  8 13  2  0  0  0  0 
  9 13  1  0  0  0  0 
 10 14  2  0  0  0  0 
 11 14  1  0  0  0  0 
 14 15  1  0  0  0  0 
  1 16  1  0  0  0  0 
  6 17  1  0  0  0  0 
  7 18  1  0  0  0  0 
  9 19  1  0  0  0  0 
 10 20  1  0  0  0  0 
 11 21  1  0  0  0  0 
 12 22  1  0  0  0  0 
 12 23  1  0  0  0  0 
M  END
> <cdk:Title>
chlorazanil

> <Conformer>
1

> <SuperDrugID>
SD000516

$$$$
