enoximone
  CDK     0628171801

 29 30  0  0  0  0  0  0  0  0999 V2000
   -0.3673   -5.6036   -0.0489 C   0  0  0  0  0  0  0  0  0  0  0  0
   -0.5175   -6.7856   -0.4408 O   0  0  0  0  0  0  0  0  0  0  0  0
   -1.4115   -4.6864   -0.3349 C   0  0  0  0  0  0  0  0  0  0  0  0
    0.8371   -5.3016    0.6335 C   0  0  0  0  0  0  0  0  0  0  0  0
   -1.7158   -3.4239    0.2027 C   0  0  0  0  0  0  0  0  0  0  0  0
   -2.3788   -4.9447   -1.2340 N   0  0  0  0  0  0  0  0  0  0  0  0
    1.2799   -6.1246    1.6963 C   0  0  0  0  0  0  0  0  0  0  0  0
    1.6382   -4.2008    0.2516 C   0  0  0  0  0  0  0  0  0  0  0  0
   -1.0321   -2.6417    1.2486 C   0  0  0  0  0  0  0  0  0  0  0  0
   -2.8304   -2.9924   -0.4124 N   0  0  0  0  0  0  0  0  0  0  0  0
   -3.2340   -3.9182   -1.2888 C   0  0  0  0  0  0  0  0  0  0  0  0
    2.4741   -5.8338    2.3804 C   0  0  0  0  0  0  0  0  0  0  0  0
    2.8331   -3.9103    0.9365 C   0  0  0  0  0  0  0  0  0  0  0  0
   -4.2418   -3.8441   -2.0258 O   0  0  0  0  0  0  0  0  0  0  0  0
    3.2567   -4.7223    2.0073 C   0  0  0  0  0  0  0  0  0  0  0  0
    4.7741   -4.3656    2.8215 S   0  0  0  0  0  0  0  0  0  0  0  0
    4.3535   -4.2071    4.5859 C   0  0  0  0  0  0  0  0  0  0  0  0
   -2.4487   -5.7554   -1.7616 H   0  0  0  0  0  0  0  0  0  0  0  0
    0.7362   -6.9446    1.9808 H   0  0  0  0  0  0  0  0  0  0  0  0
    1.3638   -3.6065   -0.5354 H   0  0  0  0  0  0  0  0  0  0  0  0
   -1.7612   -2.0376    1.7894 H   0  0  0  0  0  0  0  0  0  0  0  0
   -0.5299   -3.2857    1.9702 H   0  0  0  0  0  0  0  0  0  0  0  0
   -0.3022   -1.9751    0.7869 H   0  0  0  0  0  0  0  0  0  0  0  0
   -3.2768   -2.1470   -0.2433 H   0  0  0  0  0  0  0  0  0  0  0  0
    2.7689   -6.4428    3.1465 H   0  0  0  0  0  0  0  0  0  0  0  0
    3.3942   -3.1068    0.6447 H   0  0  0  0  0  0  0  0  0  0  0  0
    5.2638   -3.9988    5.1478 H   0  0  0  0  0  0  0  0  0  0  0  0
    3.9123   -5.1327    4.9556 H   0  0  0  0  0  0  0  0  0  0  0  0
    3.6504   -3.3855    4.7244 H   0  0  0  0  0  0  0  0  0  0  0  0
  1  2  2  0  0  0  0 
  1  3  1  0  0  0  0 
  1  4  1  0  0  0  0 
  3  5  2  0  0  0  0 
  3  6  1  0  0  0  0 
  4  7  2  0  0  0  0 
  4  8  1  0  0  0  0 
  5  9  1  0  0  0  0 
  5 10  1  0  0  0  0 
  6 11  1  0  0  0  0 
  7 12  1  0  0  0  0 
  8 13  2  0  0  0  0 
 10 11  1  0  0  0  0 
 11 14  2  0  0  0  0 
 12 15  2  0  0  0  0 
 13 15  1  0  0  0  0 
 15 16  1  0  0  0  0 
 16 17  1  0  0  0  0 
 18  6  1  0  0  0  0 
 19  7  1  0  0  0  0 
 20  8  1  0  0  0  0 
 21  9  1  0  0  0  0 
 22  9  1  0  0  0  0 
 23  9  1  0  0  0  0 
 24 10  1  0  0  0  0 
 25 12  1  0  0  0  0 
 26 13  1  0  0  0  0 
 27 17  1  0  0  0  0 
 28 17  1  0  0  0  0 
 29 17  1  0  0  0  0 
M  END
> <cdk:Title>
enoximone

> <Conformer>
1

> <SuperDrugID>
SD000901

$$$$
