amino(diphenylhydantoin) valeric acid
  CDK     0628171802

 48 50  0  0  0  0  0  0  0  0999 V2000
   -0.7264   -9.4901    1.2638 N   0  0  1  0  0  0  0  0  0  0  0  0
   -0.4158   -8.2458    0.5446 C   0  0  1  0  0  0  0  0  0  0  0  0
   -0.1813   -7.0882    1.5587 C   0  0  1  0  0  0  0  0  0  0  0  0
    0.7491   -8.4926   -0.3319 C   0  0  0  0  0  0  0  0  0  0  0  0
    1.8671   -8.7849    0.1504 O   0  0  0  0  0  0  0  0  0  0  0  0
    0.6356   -8.4194   -1.6776 O   0  0  0  0  0  0  0  0  0  0  0  0
   -0.0961   -5.6850    0.9008 C   0  0  2  0  0  0  0  0  0  0  0  0
    0.1506   -4.5474    1.9265 C   0  0  2  0  0  0  0  0  0  0  0  0
   -0.0300   -3.2645    1.3073 N   0  0  0  0  0  0  0  0  0  0  0  0
   -1.1094   -2.4720    1.4302 C   0  0  0  0  0  0  0  0  0  0  0  0
   -0.9544   -1.3819    0.6756 N   0  0  0  0  0  0  0  0  0  0  0  0
    0.2716   -1.3669   -0.0514 C   0  0  1  0  0  0  0  0  0  0  0  0
    0.8299   -2.6429    0.4675 C   0  0  0  0  0  0  0  0  0  0  0  0
   -2.1296   -2.6904    2.1206 O   0  0  0  0  0  0  0  0  0  0  0  0
    1.9543   -3.0966    0.1446 O   0  0  0  0  0  0  0  0  0  0  0  0
   -0.1463   -1.3598   -1.5011 C   0  0  0  0  0  0  0  0  0  0  0  0
    1.1990   -0.2419    0.3312 C   0  0  0  0  0  0  0  0  0  0  0  0
    0.9452    0.6138    1.4351 C   0  0  0  0  0  0  0  0  0  0  0  0
    1.8307    1.6529    1.7735 C   0  0  0  0  0  0  0  0  0  0  0  0
    2.9918    1.8618    1.0119 C   0  0  0  0  0  0  0  0  0  0  0  0
    3.2676    1.0287   -0.0844 C   0  0  0  0  0  0  0  0  0  0  0  0
    2.3833   -0.0140   -0.4162 C   0  0  0  0  0  0  0  0  0  0  0  0
   -0.6202   -0.1559   -2.0840 C   0  0  0  0  0  0  0  0  0  0  0  0
   -1.0505   -0.1069   -3.4228 C   0  0  0  0  0  0  0  0  0  0  0  0
   -1.0351   -1.2710   -4.2084 C   0  0  0  0  0  0  0  0  0  0  0  0
   -0.5843   -2.4801   -3.6537 C   0  0  0  0  0  0  0  0  0  0  0  0
   -0.1449   -2.5235   -2.3175 C   0  0  0  0  0  0  0  0  0  0  0  0
   -1.5695   -9.3197    1.8148 H   0  0  0  0  0  0  0  0  0  0  0  0
   -0.9735  -10.1903    0.5614 H   0  0  0  0  0  0  0  0  0  0  0  0
   -1.2881   -8.0035   -0.0702 H   0  0  0  0  0  0  0  0  0  0  0  0
   -1.0178   -7.0742    2.2624 H   0  0  0  0  0  0  0  0  0  0  0  0
    0.7301   -7.2764    2.1332 H   0  0  0  0  0  0  0  0  0  0  0  0
    1.4191   -8.5931   -2.2396 H   0  0  0  0  0  0  0  0  0  0  0  0
   -1.0372   -5.4874    0.3794 H   0  0  0  0  0  0  0  0  0  0  0  0
    0.7059   -5.6720    0.1603 H   0  0  0  0  0  0  0  0  0  0  0  0
    1.1606   -4.6170    2.3406 H   0  0  0  0  0  0  0  0  0  0  0  0
   -0.5477   -4.6607    2.7609 H   0  0  0  0  0  0  0  0  0  0  0  0
   -1.6194   -0.6774    0.6191 H   0  0  0  0  0  0  0  0  0  0  0  0
    0.1142    0.4873    2.0139 H   0  0  0  0  0  0  0  0  0  0  0  0
    1.6289    2.2568    2.5737 H   0  0  0  0  0  0  0  0  0  0  0  0
    3.6339    2.6182    1.2552 H   0  0  0  0  0  0  0  0  0  0  0  0
    4.1104    1.1822   -0.6414 H   0  0  0  0  0  0  0  0  0  0  0  0
    2.6106   -0.6095   -1.2150 H   0  0  0  0  0  0  0  0  0  0  0  0
   -0.6606    0.7031   -1.5318 H   0  0  0  0  0  0  0  0  0  0  0  0
   -1.3798    0.7746   -3.8225 H   0  0  0  0  0  0  0  0  0  0  0  0
   -1.3556   -1.2414   -5.1795 H   0  0  0  0  0  0  0  0  0  0  0  0
   -0.5845   -3.3299   -4.2231 H   0  0  0  0  0  0  0  0  0  0  0  0
    0.1595   -3.4249   -1.9468 H   0  0  0  0  0  0  0  0  0  0  0  0
  2  1  1  0  0  0  0 
  2  3  1  0  0  0  0 
  2  4  1  0  0  0  0 
  4  5  2  0  0  0  0 
  4  6  1  0  0  0  0 
  3  7  1  0  0  0  0 
  7  8  1  0  0  0  0 
  8  9  1  0  0  0  0 
 10 11  1  0  0  0  0 
 11 12  1  0  0  0  0 
 12 13  1  0  0  0  0 
  9 10  1  0  0  0  0 
  9 13  1  0  0  0  0 
 10 14  2  0  0  0  0 
 13 15  2  0  0  0  0 
 12 16  1  0  0  0  0 
 12 17  1  0  0  0  0 
 18 19  1  0  0  0  0 
 19 20  2  0  0  0  0 
 20 21  1  0  0  0  0 
 21 22  2  0  0  0  0 
 17 18  2  0  0  0  0 
 17 22  1  0  0  0  0 
 23 24  1  0  0  0  0 
 24 25  2  0  0  0  0 
 25 26  1  0  0  0  0 
 26 27  2  0  0  0  0 
 16 23  2  0  0  0  0 
 16 27  1  0  0  0  0 
 28  1  1  0  0  0  0 
 29  1  1  0  0  0  0 
 30  2  1  0  0  0  0 
 31  3  1  0  0  0  0 
 32  3  1  0  0  0  0 
 33  6  1  0  0  0  0 
 34  7  1  0  0  0  0 
 35  7  1  0  0  0  0 
 36  8  1  0  0  0  0 
 37  8  1  0  0  0  0 
 38 11  1  0  0  0  0 
 39 18  1  0  0  0  0 
 40 19  1  0  0  0  0 
 41 20  1  0  0  0  0 
 42 21  1  0  0  0  0 
 43 22  1  0  0  0  0 
 44 23  1  0  0  0  0 
 45 24  1  0  0  0  0 
 46 25  1  0  0  0  0 
 47 26  1  0  0  0  0 
 48 27  1  0  0  0  0 
M  END
> <cdk:Title>
amino(diphenylhydantoin) valeric acid

> <Conformer>
1

> <SuperDrugID>
SD003888

$$$$
