telbivudine
  CDK     0628171801

 31 32  0  0  0  0  0  0  0  0999 V2000
    3.4496   -5.3447   -1.3743 C   0  0  0  0  0  0  0  0  0  0  0  0
    3.9226   -6.5905   -1.6194 N   0  0  0  0  0  0  0  0  0  0  0  0
    3.1410   -7.5560   -2.1511 C   0  0  0  0  0  0  0  0  0  0  0  0
    1.7981   -7.2786   -2.4845 C   0  0  0  0  0  0  0  0  0  0  0  0
    1.3276   -5.9802   -2.1920 C   0  0  0  0  0  0  0  0  0  0  0  0
    2.1420   -5.0182   -1.6479 N   0  0  0  0  0  0  0  0  0  0  0  0
    3.6560   -8.6821   -2.3386 O   0  0  0  0  0  0  0  0  0  0  0  0
    0.9302   -8.3006   -3.1167 C   0  0  0  0  0  0  0  0  0  0  0  0
    4.2687   -4.5277   -0.8943 O   0  0  0  0  0  0  0  0  0  0  0  0
    1.6425   -3.6825   -1.3537 C   0  0  2  0  0  0  0  0  0  0  0  0
    1.3260   -3.4882    0.1500 C   0  0  2  0  0  0  0  0  0  0  0  0
    0.4491   -3.3386   -2.0887 O   0  0  0  0  0  0  0  0  0  0  0  0
   -0.5668   -2.9061   -1.1737 C   0  0  2  0  0  0  0  0  0  0  0  0
   -0.2032   -3.5497    0.1787 C   0  0  2  0  0  0  0  0  0  0  0  0
   -1.9716   -3.2886   -1.6972 C   0  0  2  0  0  0  0  0  0  0  0  0
   -2.2217   -2.6590   -2.9476 O   0  0  0  0  0  0  0  0  0  0  0  0
   -0.7546   -2.8503    1.2893 O   0  0  0  0  0  0  0  0  0  0  0  0
    4.8477   -6.7955   -1.4127 H   0  0  0  0  0  0  0  0  0  0  0  0
    0.3446   -5.7724   -2.3930 H   0  0  0  0  0  0  0  0  0  0  0  0
   -0.0589   -7.9077   -3.3607 H   0  0  0  0  0  0  0  0  0  0  0  0
    1.3912   -8.6441   -4.0439 H   0  0  0  0  0  0  0  0  0  0  0  0
    0.8061   -9.1513   -2.4445 H   0  0  0  0  0  0  0  0  0  0  0  0
    2.3883   -2.9451   -1.6670 H   0  0  0  0  0  0  0  0  0  0  0  0
    1.6724   -2.5037    0.4819 H   0  0  0  0  0  0  0  0  0  0  0  0
    1.7700   -4.2529    0.7942 H   0  0  0  0  0  0  0  0  0  0  0  0
   -0.5060   -1.8142   -1.0902 H   0  0  0  0  0  0  0  0  0  0  0  0
   -0.5257   -4.5941    0.2170 H   0  0  0  0  0  0  0  0  0  0  0  0
   -2.7363   -2.9648   -0.9876 H   0  0  0  0  0  0  0  0  0  0  0  0
   -2.0440   -4.3697   -1.8359 H   0  0  0  0  0  0  0  0  0  0  0  0
   -3.1078   -2.9808   -3.2149 H   0  0  0  0  0  0  0  0  0  0  0  0
   -1.7242   -2.8993    1.1554 H   0  0  0  0  0  0  0  0  0  0  0  0
  1  2  1  0  0  0  0 
  2  3  1  0  0  0  0 
  3  4  1  0  0  0  0 
  4  5  2  0  0  0  0 
  5  6  1  0  0  0  0 
  1  6  1  0  0  0  0 
  3  7  2  0  0  0  0 
  4  8  1  0  0  0  0 
  1  9  2  0  0  0  0 
 10  6  1  0  0  0  0 
 10 11  1  0  0  0  0 
 10 12  1  0  0  0  0 
 13 12  1  0  0  0  0 
 13 14  1  0  0  0  0 
 14 11  1  0  0  0  0 
 13 15  1  0  0  0  0 
 15 16  1  0  0  0  0 
 14 17  1  0  0  0  0 
 18  2  1  0  0  0  0 
 19  5  1  0  0  0  0 
 20  8  1  0  0  0  0 
 21  8  1  0  0  0  0 
 22  8  1  0  0  0  0 
 10 23  1  0  0  0  0 
 24 11  1  0  0  0  0 
 25 11  1  0  0  0  0 
 13 26  1  0  0  0  0 
 14 27  1  0  0  0  0 
 28 15  1  0  0  0  0 
 29 15  1  0  0  0  0 
 30 16  1  0  0  0  0 
 31 17  1  0  0  0  0 
M  END
> <cdk:Title>
telbivudine

> <Conformer>
1

> <SuperDrugID>
SD003432

$$$$
