flumedroxone
  CDK     0628171801

 57 60  0  0  0  0  0  0  0  0999 V2000
   -3.4685   -2.2489    1.4172 C   0  0  0  0  0  0  0  0  0  0  0  0
   -2.6046   -0.9438    1.5739 C   0  0  1  0  0  0  0  0  0  0  0  0
   -2.9671   -0.1464    2.9107 C   0  0  2  0  0  0  0  0  0  0  0  0
   -1.1504   -1.3531    1.5618 C   0  0  0  0  0  0  0  0  0  0  0  0
   -2.9330    0.0170    0.3555 C   0  0  1  0  0  0  0  0  0  0  0  0
   -2.3658   -0.7885    4.2111 C   0  0  2  0  0  0  0  0  0  0  0  0
   -4.4871    0.2164    3.1074 C   0  0  1  0  0  0  0  0  0  0  0  0
   -0.5814   -1.9691    2.7989 C   0  0  2  0  0  0  0  0  0  0  0  0
   -0.3952   -1.1984    0.4445 C   0  0  0  0  0  0  0  0  0  0  0  0
   -2.2995   -0.4412   -0.9745 C   0  0  1  0  0  0  0  0  0  0  0  0
   -2.6806    0.1321    5.4371 C   0  0  1  0  0  0  0  0  0  0  0  0
   -0.8420   -1.0214    4.0097 C   0  0  2  0  0  0  0  0  0  0  0  0
   -4.8036    1.0065    4.4188 C   0  0  1  0  0  0  0  0  0  0  0  0
    0.9046   -2.4843    2.8205 C   0  0  1  0  0  0  0  0  0  0  0  0
   -0.8701   -0.7235   -0.7648 C   0  0  0  0  0  0  0  0  0  0  0  0
   -4.2121    0.3255    5.7066 C   0  0  1  0  0  0  0  0  0  0  0  0
   -2.0864   -0.2325    6.8110 C   0  0  1  0  0  0  0  0  0  0  0  0
    1.2084   -3.1180    4.0027 F   0  0  0  0  0  0  0  0  0  0  0  0
    1.1334   -3.4323    1.8508 F   0  0  0  0  0  0  0  0  0  0  0  0
    1.8109   -1.4596    2.6736 F   0  0  0  0  0  0  0  0  0  0  0  0
   -0.0782   -0.5629   -1.7233 O   0  0  0  0  0  0  0  0  0  0  0  0
   -5.0052   -1.0124    5.9849 C   0  0  0  0  0  0  0  0  0  0  0  0
   -4.1469    1.1939    7.0259 C   0  0  2  0  0  0  0  0  0  0  0  0
   -2.9647    0.5387    7.8268 C   0  0  2  0  0  0  0  0  0  0  0  0
   -5.4351    1.3171    7.7855 C   0  0  0  0  0  0  0  0  0  0  0  0
   -3.7366    2.5359    6.7236 O   0  0  0  0  0  0  0  0  0  0  0  0
   -6.5692    2.1497    7.3369 C   0  0  0  0  0  0  0  0  0  0  0  0
   -5.6097    0.6973    8.8614 O   0  0  0  0  0  0  0  0  0  0  0  0
   -3.0997   -2.8720    0.5979 H   0  0  0  0  0  0  0  0  0  0  0  0
   -3.4565   -2.8528    2.3255 H   0  0  0  0  0  0  0  0  0  0  0  0
   -4.5123   -2.0137    1.1969 H   0  0  0  0  0  0  0  0  0  0  0  0
   -2.4637    0.8232    2.8274 H   0  0  0  0  0  0  0  0  0  0  0  0
   -4.0088    0.1179    0.1979 H   0  0  0  0  0  0  0  0  0  0  0  0
   -2.5446    1.0214    0.5514 H   0  0  0  0  0  0  0  0  0  0  0  0
   -2.8165   -1.7670    4.3870 H   0  0  0  0  0  0  0  0  0  0  0  0
   -4.8310    0.8289    2.2726 H   0  0  0  0  0  0  0  0  0  0  0  0
   -5.0894   -0.6901    3.0982 H   0  0  0  0  0  0  0  0  0  0  0  0
   -1.1631   -2.8799    2.9767 H   0  0  0  0  0  0  0  0  0  0  0  0
    0.5628   -1.4400    0.4525 H   0  0  0  0  0  0  0  0  0  0  0  0
   -2.7910   -1.3451   -1.3408 H   0  0  0  0  0  0  0  0  0  0  0  0
   -2.4273    0.3417   -1.7292 H   0  0  0  0  0  0  0  0  0  0  0  0
   -2.2398    1.1093    5.1890 H   0  0  0  0  0  0  0  0  0  0  0  0
   -0.4379   -1.4657    4.9210 H   0  0  0  0  0  0  0  0  0  0  0  0
   -0.3259   -0.0697    3.8546 H   0  0  0  0  0  0  0  0  0  0  0  0
   -4.3989    2.0150    4.3057 H   0  0  0  0  0  0  0  0  0  0  0  0
   -5.8878    1.1125    4.5112 H   0  0  0  0  0  0  0  0  0  0  0  0
   -2.1467   -1.3112    6.9813 H   0  0  0  0  0  0  0  0  0  0  0  0
   -1.0381    0.0733    6.8784 H   0  0  0  0  0  0  0  0  0  0  0  0
   -6.0639   -0.7985    6.1483 H   0  0  0  0  0  0  0  0  0  0  0  0
   -4.6277   -1.5341    6.8668 H   0  0  0  0  0  0  0  0  0  0  0  0
   -4.9562   -1.7141    5.1566 H   0  0  0  0  0  0  0  0  0  0  0  0
   -2.3730    1.2954    8.3488 H   0  0  0  0  0  0  0  0  0  0  0  0
   -3.3117   -0.1727    8.5793 H   0  0  0  0  0  0  0  0  0  0  0  0
   -3.6438    2.9848    7.5903 H   0  0  0  0  0  0  0  0  0  0  0  0
   -7.4295    1.5080    7.1297 H   0  0  0  0  0  0  0  0  0  0  0  0
   -6.3297    2.7191    6.4378 H   0  0  0  0  0  0  0  0  0  0  0  0
   -6.8330    2.8589    8.1246 H   0  0  0  0  0  0  0  0  0  0  0  0
  2  1  1  0  0  0  0 
  3  2  1  0  0  0  0 
  2  4  1  0  0  0  0 
  2  5  1  0  0  0  0 
  3  6  1  0  0  0  0 
  3  7  1  0  0  0  0 
  8  4  1  0  0  0  0 
  4  9  2  0  0  0  0 
  5 10  1  0  0  0  0 
  6 11  1  0  0  0  0 
  6 12  1  0  0  0  0 
  7 13  1  0  0  0  0 
  8 12  1  0  0  0  0 
  8 14  1  0  0  0  0 
  9 15  1  0  0  0  0 
 10 15  1  0  0  0  0 
 11 16  1  0  0  0  0 
 11 17  1  0  0  0  0 
 16 13  1  0  0  0  0 
 14 18  1  0  0  0  0 
 14 19  1  0  0  0  0 
 14 20  1  0  0  0  0 
 15 21  2  0  0  0  0 
 16 22  1  0  0  0  0 
 16 23  1  0  0  0  0 
 17 24  1  0  0  0  0 
 23 24  1  0  0  0  0 
 23 25  1  0  0  0  0 
 23 26  1  0  0  0  0 
 25 27  1  0  0  0  0 
 25 28  2  0  0  0  0 
 29  1  1  0  0  0  0 
 30  1  1  0  0  0  0 
 31  1  1  0  0  0  0 
  3 32  1  0  0  0  0 
 33  5  1  0  0  0  0 
 34  5  1  0  0  0  0 
  6 35  1  0  0  0  0 
 36  7  1  0  0  0  0 
 37  7  1  0  0  0  0 
  8 38  1  0  0  0  0 
 39  9  1  0  0  0  0 
 40 10  1  0  0  0  0 
 41 10  1  0  0  0  0 
 11 42  1  0  0  0  0 
 43 12  1  0  0  0  0 
 44 12  1  0  0  0  0 
 45 13  1  0  0  0  0 
 46 13  1  0  0  0  0 
 47 17  1  0  0  0  0 
 48 17  1  0  0  0  0 
 49 22  1  0  0  0  0 
 50 22  1  0  0  0  0 
 51 22  1  0  0  0  0 
 52 24  1  0  0  0  0 
 53 24  1  0  0  0  0 
 54 26  1  0  0  0  0 
 55 27  1  0  0  0  0 
 56 27  1  0  0  0  0 
 57 27  1  0  0  0  0 
M  END
> <cdk:Title>
flumedroxone

> <Conformer>
1

> <SuperDrugID>
SD003615

$$$$
