phenobarbital
  CDK     0628171801

 29 30  0  0  0  0  0  0  0  0999 V2000
    1.3136   -0.7114    1.0257 C   0  0  0  0  0  0  0  0  0  0  0  0
    0.9883   -0.1135   -0.3706 C   0  0  1  0  0  0  0  0  0  0  0  0
    1.8271   -0.6703   -1.5910 C   0  0  1  0  0  0  0  0  0  0  0  0
    3.2809   -0.5136   -1.2140 C   0  0  0  0  0  0  0  0  0  0  0  0
    3.7762    0.6252   -1.0425 O   0  0  0  0  0  0  0  0  0  0  0  0
    4.1075   -1.5797   -1.0394 N   0  0  0  0  0  0  0  0  0  0  0  0
    3.6773   -2.8513   -1.2271 C   0  0  0  0  0  0  0  0  0  0  0  0
    4.4725   -3.8015   -1.0585 O   0  0  0  0  0  0  0  0  0  0  0  0
    2.4008   -3.1150   -1.5964 N   0  0  0  0  0  0  0  0  0  0  0  0
    1.4933   -2.1229   -1.7920 C   0  0  0  0  0  0  0  0  0  0  0  0
    0.3438   -2.4761   -2.1469 O   0  0  0  0  0  0  0  0  0  0  0  0
    1.5465    0.0140   -2.9227 C   0  0  0  0  0  0  0  0  0  0  0  0
    0.2847    0.5963   -3.2318 C   0  0  0  0  0  0  0  0  0  0  0  0
    0.0331    1.2178   -4.4695 C   0  0  0  0  0  0  0  0  0  0  0  0
    1.0390    1.2746   -5.4465 C   0  0  0  0  0  0  0  0  0  0  0  0
    2.2860    0.6857   -5.1891 C   0  0  0  0  0  0  0  0  0  0  0  0
    2.5230    0.0442   -3.9600 C   0  0  0  0  0  0  0  0  0  0  0  0
    0.6743   -0.2571    1.7840 H   0  0  0  0  0  0  0  0  0  0  0  0
    2.3490   -0.5200    1.3066 H   0  0  0  0  0  0  0  0  0  0  0  0
    1.1417   -1.7883    1.0278 H   0  0  0  0  0  0  0  0  0  0  0  0
   -0.0763   -0.2962   -0.5262 H   0  0  0  0  0  0  0  0  0  0  0  0
    1.1160    0.9711   -0.3087 H   0  0  0  0  0  0  0  0  0  0  0  0
    5.0290   -1.4286   -0.7735 H   0  0  0  0  0  0  0  0  0  0  0  0
    2.1273   -4.0381   -1.7222 H   0  0  0  0  0  0  0  0  0  0  0  0
   -0.4874    0.5696   -2.5670 H   0  0  0  0  0  0  0  0  0  0  0  0
   -0.8852    1.6275   -4.6606 H   0  0  0  0  0  0  0  0  0  0  0  0
    0.8627    1.7340   -6.3441 H   0  0  0  0  0  0  0  0  0  0  0  0
    3.0219    0.7198   -5.8978 H   0  0  0  0  0  0  0  0  0  0  0  0
    3.4319   -0.4055   -3.8361 H   0  0  0  0  0  0  0  0  0  0  0  0
  1  2  1  0  0  0  0 
  2  3  1  0  0  0  0 
  3  4  1  0  0  0  0 
  4  5  2  0  0  0  0 
  4  6  1  0  0  0  0 
  6  7  1  0  0  0  0 
  7  8  2  0  0  0  0 
  7  9  1  0  0  0  0 
  9 10  1  0  0  0  0 
  3 10  1  0  0  0  0 
 10 11  2  0  0  0  0 
  3 12  1  0  0  0  0 
 12 13  2  0  0  0  0 
 13 14  1  0  0  0  0 
 14 15  2  0  0  0  0 
 15 16  1  0  0  0  0 
 16 17  2  0  0  0  0 
 12 17  1  0  0  0  0 
 18  1  1  0  0  0  0 
 19  1  1  0  0  0  0 
 20  1  1  0  0  0  0 
 21  2  1  0  0  0  0 
 22  2  1  0  0  0  0 
 23  6  1  0  0  0  0 
 24  9  1  0  0  0  0 
 25 13  1  0  0  0  0 
 26 14  1  0  0  0  0 
 27 15  1  0  0  0  0 
 28 16  1  0  0  0  0 
 29 17  1  0  0  0  0 
M  END
> <cdk:Title>
phenobarbital

> <Conformer>
1

> <SuperDrugID>
SD001914

$$$$
