protoverine
  CDK     0628171801

 80 86  0  0  0  0  0  0  0  0999 V2000
   -0.6437   -2.9473    6.8168 C   0  0  0  0  0  0  0  0  0  0  0  0
    0.6705   -3.2942    7.6075 C   0  0  1  0  0  0  0  0  0  0  0  0
    1.7982   -2.1919    7.6537 C   0  0  2  0  0  0  0  0  0  0  0  0
    0.5088   -3.3846    9.1608 C   0  0  1  0  0  0  0  0  0  0  0  0
    1.1505   -4.6853    7.0218 C   0  0  2  0  0  0  0  0  0  0  0  0
    1.2441   -0.7840    8.0463 C   0  0  2  0  0  0  0  0  0  0  0  0
    2.6278   -1.9187    6.3717 C   0  0  2  0  0  0  0  0  0  0  0  0
    2.6951   -2.6232    8.7161 O   0  0  0  0  0  0  0  0  0  0  0  0
    2.0093   -3.5919    9.5336 C   0  0  1  0  0  0  0  0  0  0  0  0
   -0.1086   -2.0902    9.8201 C   0  0  2  0  0  0  0  0  0  0  0  0
    2.4645   -5.2431    7.6253 C   0  0  1  0  0  0  0  0  0  0  0  0
    2.3674    0.2027    7.6065 C   0  0  2  0  0  0  0  0  0  0  0  0
    0.6941   -0.7736    9.5138 C   0  0  1  0  0  0  0  0  0  0  0  0
    2.7932   -0.3698    6.2160 C   0  0  2  0  0  0  0  0  0  0  0  0
    2.2874   -3.3670   10.9159 O   0  0  0  0  0  0  0  0  0  0  0  0
    2.5381   -5.0105    9.1558 C   0  0  2  0  0  0  0  0  0  0  0  0
   -0.2622   -2.2743   11.2281 O   0  0  0  0  0  0  0  0  0  0  0  0
    3.4742    0.0619    8.5111 O   0  0  0  0  0  0  0  0  0  0  0  0
    1.9737    1.7170    7.5794 C   0  0  1  0  0  0  0  0  0  0  0  0
    1.7386   -0.5841   10.4687 O   0  0  0  0  0  0  0  0  0  0  0  0
    1.9810    0.1787    4.9786 C   0  0  1  0  0  0  0  0  0  0  0  0
    1.8056   -6.0280    9.8387 O   0  0  0  0  0  0  0  0  0  0  0  0
    3.1549    2.5260    7.5892 O   0  0  0  0  0  0  0  0  0  0  0  0
    1.1116    2.1504    6.3592 C   0  0  1  0  0  0  0  0  0  0  0  0
    1.7506    1.7256    4.9887 C   0  0  2  0  0  0  0  0  0  0  0  0
    2.6841   -0.2196    3.6473 C   0  0  1  0  0  0  0  0  0  0  0  0
   -0.2293    1.6800    6.4916 O   0  0  0  0  0  0  0  0  0  0  0  0
    0.9694    2.2087    3.6937 C   0  0  2  0  0  0  0  0  0  0  0  0
    1.8738    0.1696    2.4545 N   0  0  1  0  0  0  0  0  0  0  0  0
    0.8501    3.7680    3.6565 C   0  0  0  0  0  0  0  0  0  0  0  0
   -0.3729    1.7119    3.7427 O   0  0  0  0  0  0  0  0  0  0  0  0
    1.6518    1.6604    2.3701 C   0  0  1  0  0  0  0  0  0  0  0  0
    2.4444   -0.4643    1.2177 C   0  0  2  0  0  0  0  0  0  0  0  0
    0.8538    2.0236    1.0668 C   0  0  2  0  0  0  0  0  0  0  0  0
    1.5645   -0.1902   -0.0320 C   0  0  2  0  0  0  0  0  0  0  0  0
    1.4064    1.3432   -0.2088 C   0  0  2  0  0  0  0  0  0  0  0  0
    0.2045   -0.9460    0.0072 C   0  0  0  0  0  0  0  0  0  0  0  0
    0.3906   -0.5508    7.4136 H   0  0  0  0  0  0  0  0  0  0  0  0
   -0.1005   -4.2483    9.4430 H   0  0  0  0  0  0  0  0  0  0  0  0
    3.8508   -0.1258    6.0588 H   0  0  0  0  0  0  0  0  0  0  0  0
    0.9947   -0.2974    4.9839 H   0  0  0  0  0  0  0  0  0  0  0  0
    2.7393    2.1965    4.9488 H   0  0  0  0  0  0  0  0  0  0  0  0
    2.6332    2.1414    2.2780 H   0  0  0  0  0  0  0  0  0  0  0  0
   -0.4099   -2.7673    5.7657 H   0  0  0  0  0  0  0  0  0  0  0  0
   -1.1685   -2.0719    7.1870 H   0  0  0  0  0  0  0  0  0  0  0  0
   -1.3549   -3.7744    6.8697 H   0  0  0  0  0  0  0  0  0  0  0  0
    1.2815   -4.6166    5.9381 H   0  0  0  0  0  0  0  0  0  0  0  0
    0.3717   -5.4338    7.2011 H   0  0  0  0  0  0  0  0  0  0  0  0
    2.1240   -2.3676    5.5156 H   0  0  0  0  0  0  0  0  0  0  0  0
    3.6136   -2.3860    6.4462 H   0  0  0  0  0  0  0  0  0  0  0  0
   -1.1266   -1.9654    9.4460 H   0  0  0  0  0  0  0  0  0  0  0  0
    2.5537   -6.3099    7.4003 H   0  0  0  0  0  0  0  0  0  0  0  0
    3.3134   -4.7468    7.1478 H   0  0  0  0  0  0  0  0  0  0  0  0
    0.0236    0.0809    9.6322 H   0  0  0  0  0  0  0  0  0  0  0  0
    3.2598   -3.4600   11.0006 H   0  0  0  0  0  0  0  0  0  0  0  0
    3.5841   -5.1040    9.4634 H   0  0  0  0  0  0  0  0  0  0  0  0
   -0.7964   -3.0909   11.3238 H   0  0  0  0  0  0  0  0  0  0  0  0
    4.2010    0.5903    8.1193 H   0  0  0  0  0  0  0  0  0  0  0  0
    1.4335    1.9591    8.4989 H   0  0  0  0  0  0  0  0  0  0  0  0
    1.2870   -0.4673   11.3305 H   0  0  0  0  0  0  0  0  0  0  0  0
    1.9751   -5.8678   10.7910 H   0  0  0  0  0  0  0  0  0  0  0  0
    2.8359    3.4489    7.6793 H   0  0  0  0  0  0  0  0  0  0  0  0
    1.0505    3.2378    6.4084 H   0  0  0  0  0  0  0  0  0  0  0  0
    3.6758    0.2436    3.5967 H   0  0  0  0  0  0  0  0  0  0  0  0
    2.8370   -1.3005    3.6402 H   0  0  0  0  0  0  0  0  0  0  0  0
   -0.5664    2.1001    7.3104 H   0  0  0  0  0  0  0  0  0  0  0  0
    0.2737    4.1064    2.7974 H   0  0  0  0  0  0  0  0  0  0  0  0
    0.3205    4.1520    4.5259 H   0  0  0  0  0  0  0  0  0  0  0  0
    1.8386    4.2299    3.6163 H   0  0  0  0  0  0  0  0  0  0  0  0
   -0.2956    0.7367    3.7004 H   0  0  0  0  0  0  0  0  0  0  0  0
    2.4275   -1.5927    1.3656 H   0  0  0  0  0  0  0  0  0  0  0  0
    3.4630    0.0088    1.0235 H   0  0  0  0  0  0  0  0  0  0  0  0
    0.8945    3.0994    0.8865 H   0  0  0  0  0  0  0  0  0  0  0  0
   -0.1966    1.7471    1.1806 H   0  0  0  0  0  0  0  0  0  0  0  0
    2.1061   -0.5685   -0.9053 H   0  0  0  0  0  0  0  0  0  0  0  0
    2.3833    1.7781   -0.4430 H   0  0  0  0  0  0  0  0  0  0  0  0
    0.7472    1.5575   -1.0549 H   0  0  0  0  0  0  0  0  0  0  0  0
   -0.3832   -0.7141   -0.8834 H   0  0  0  0  0  0  0  0  0  0  0  0
   -0.3756   -0.6743    0.8905 H   0  0  0  0  0  0  0  0  0  0  0  0
    0.3746   -2.0243    0.0273 H   0  0  0  0  0  0  0  0  0  0  0  0
  2  1  1  0  0  0  0 
  3  2  1  0  0  0  0 
  2  4  1  0  0  0  0 
  2  5  1  0  0  0  0 
  6  3  1  0  0  0  0 
  3  7  1  0  0  0  0 
  3  8  1  0  0  0  0 
  4  9  1  0  0  0  0 
 10  4  1  0  0  0  0 
  4 39  1  0  0  0  0 
  5 11  1  0  0  0  0 
 12  6  1  0  0  0  0 
  6 13  1  0  0  0  0 
  6 38  1  0  0  0  0 
 14  7  1  0  0  0  0 
  9  8  1  0  0  0  0 
  9 15  1  0  0  0  0 
  9 16  1  0  0  0  0 
 13 10  1  0  0  0  0 
 10 17  1  0  0  0  0 
 16 11  1  0  0  0  0 
 14 12  1  0  0  0  0 
 12 18  1  0  0  0  0 
 19 12  1  0  0  0  0 
 13 20  1  0  0  0  0 
 21 14  1  0  0  0  0 
 14 40  1  0  0  0  0 
 16 22  1  0  0  0  0 
 19 23  1  0  0  0  0 
 24 19  1  0  0  0  0 
 25 21  1  0  0  0  0 
 21 26  1  0  0  0  0 
 21 41  1  0  0  0  0 
 25 24  1  0  0  0  0 
 24 27  1  0  0  0  0 
 28 25  1  0  0  0  0 
 25 42  1  0  0  0  0 
 26 29  1  0  0  0  0 
 28 30  1  0  0  0  0 
 28 31  1  0  0  0  0 
 28 32  1  0  0  0  0 
 32 29  1  0  0  0  0 
 29 33  1  0  0  0  0 
 32 34  1  0  0  0  0 
 32 43  1  0  0  0  0 
 35 33  1  0  0  0  0 
 34 36  1  0  0  0  0 
 35 36  1  0  0  0  0 
 35 37  1  0  0  0  0 
  1 44  1  0  0  0  0 
  1 45  1  0  0  0  0 
  1 46  1  0  0  0  0 
  5 47  1  0  0  0  0 
  5 48  1  0  0  0  0 
  7 49  1  0  0  0  0 
  7 50  1  0  0  0  0 
 10 51  1  0  0  0  0 
 11 52  1  0  0  0  0 
 11 53  1  0  0  0  0 
 13 54  1  0  0  0  0 
 15 55  1  0  0  0  0 
 16 56  1  0  0  0  0 
 17 57  1  0  0  0  0 
 18 58  1  0  0  0  0 
 19 59  1  0  0  0  0 
 20 60  1  0  0  0  0 
 22 61  1  0  0  0  0 
 23 62  1  0  0  0  0 
 24 63  1  0  0  0  0 
 26 64  1  0  0  0  0 
 26 65  1  0  0  0  0 
 27 66  1  0  0  0  0 
 30 67  1  0  0  0  0 
 30 68  1  0  0  0  0 
 30 69  1  0  0  0  0 
 31 70  1  0  0  0  0 
 33 71  1  0  0  0  0 
 33 72  1  0  0  0  0 
 34 73  1  0  0  0  0 
 34 74  1  0  0  0  0 
 35 75  1  0  0  0  0 
 36 76  1  0  0  0  0 
 36 77  1  0  0  0  0 
 37 78  1  0  0  0  0 
 37 79  1  0  0  0  0 
 37 80  1  0  0  0  0 
M  END
> <cdk:Title>
protoverine

> <Conformer>
1

> <SuperDrugID>
SD002083

$$$$
