benzylpenicillin
  CDK     0628171801

 41 43  0  0  0  0  0  0  0  0999 V2000
   -4.8423   -0.6835    2.0912 C   0  0  0  0  0  0  0  0  0  0  0  0
   -4.1860    0.7158    1.8762 C   0  0  1  0  0  0  0  0  0  0  0  0
   -5.0783    1.8036    2.5517 C   0  0  0  0  0  0  0  0  0  0  0  0
   -2.5477    0.7611    2.7228 S   0  0  0  0  0  0  0  0  0  0  0  0
   -1.5040    1.1231    1.2755 C   0  0  2  0  0  0  0  0  0  0  0  0
   -0.7921    2.4923    1.0180 C   0  0  2  0  0  0  0  0  0  0  0  0
   -0.6278    3.3613    2.1415 N   0  0  0  0  0  0  0  0  0  0  0  0
    0.3801    3.2693    3.0535 C   0  0  0  0  0  0  0  0  0  0  0  0
    1.2417    2.3601    2.9845 O   0  0  0  0  0  0  0  0  0  0  0  0
    0.4854    4.2867    4.1223 C   0  0  2  0  0  0  0  0  0  0  0  0
   -0.6445    4.2060    5.0861 C   0  0  0  0  0  0  0  0  0  0  0  0
   -0.6713    3.1926    6.0740 C   0  0  0  0  0  0  0  0  0  0  0  0
   -1.7173    3.1311    7.0140 C   0  0  0  0  0  0  0  0  0  0  0  0
   -2.7588    4.0747    6.9672 C   0  0  0  0  0  0  0  0  0  0  0  0
   -2.7518    5.0800    5.9834 C   0  0  0  0  0  0  0  0  0  0  0  0
   -1.7027    5.1441    5.0478 C   0  0  0  0  0  0  0  0  0  0  0  0
   -1.9689    2.7986    0.2048 C   0  0  0  0  0  0  0  0  0  0  0  0
   -2.3359    3.8156   -0.4245 O   0  0  0  0  0  0  0  0  0  0  0  0
   -2.5458    1.6322    0.4779 N   0  0  0  0  0  0  0  0  0  0  0  0
   -3.8583    1.0967    0.3787 C   0  0  1  0  0  0  0  0  0  0  0  0
   -3.8655    0.0216   -0.6449 C   0  0  0  0  0  0  0  0  0  0  0  0
   -4.6377    0.1430   -1.7502 O   0  0  0  0  0  0  0  0  0  0  0  0
   -3.1473   -0.9991   -0.5425 O   0  0  0  0  0  0  0  0  0  0  0  0
   -4.1678   -1.4872    1.7934 H   0  0  0  0  0  0  0  0  0  0  0  0
   -5.7606   -0.7675    1.5067 H   0  0  0  0  0  0  0  0  0  0  0  0
   -5.0934   -0.8366    3.1428 H   0  0  0  0  0  0  0  0  0  0  0  0
   -4.6503    2.8000    2.4241 H   0  0  0  0  0  0  0  0  0  0  0  0
   -6.0776    1.8050    2.1111 H   0  0  0  0  0  0  0  0  0  0  0  0
   -5.1792    1.6136    3.6222 H   0  0  0  0  0  0  0  0  0  0  0  0
   -1.0338    0.2472    0.8187 H   0  0  0  0  0  0  0  0  0  0  0  0
    0.1017    2.4080    0.3913 H   0  0  0  0  0  0  0  0  0  0  0  0
   -1.2707    4.0798    2.2537 H   0  0  0  0  0  0  0  0  0  0  0  0
    0.5302    5.2734    3.6498 H   0  0  0  0  0  0  0  0  0  0  0  0
    1.4232    4.1704    4.6751 H   0  0  0  0  0  0  0  0  0  0  0  0
    0.0791    2.4989    6.1192 H   0  0  0  0  0  0  0  0  0  0  0  0
   -1.7182    2.4038    7.7332 H   0  0  0  0  0  0  0  0  0  0  0  0
   -3.5197    4.0305    7.6481 H   0  0  0  0  0  0  0  0  0  0  0  0
   -3.5072    5.7671    5.9492 H   0  0  0  0  0  0  0  0  0  0  0  0
   -1.7145    5.8801    4.3373 H   0  0  0  0  0  0  0  0  0  0  0  0
   -4.5368    1.8809    0.0292 H   0  0  0  0  0  0  0  0  0  0  0  0
   -4.6229   -0.5463   -2.4474 H   0  0  0  0  0  0  0  0  0  0  0  0
  1  2  1  0  0  0  0 
  2  3  1  0  0  0  0 
  2  4  1  0  0  0  0 
  4  5  1  0  0  0  0 
  5  6  1  0  0  0  0 
  6  7  1  0  0  0  0 
  7  8  1  0  0  0  0 
  8  9  2  0  0  0  0 
  8 10  1  0  0  0  0 
 10 11  1  0  0  0  0 
 11 12  2  0  0  0  0 
 12 13  1  0  0  0  0 
 13 14  2  0  0  0  0 
 14 15  1  0  0  0  0 
 15 16  2  0  0  0  0 
 11 16  1  0  0  0  0 
  6 17  1  0  0  0  0 
 17 18  2  0  0  0  0 
 17 19  1  0  0  0  0 
  5 19  1  0  0  0  0 
 19 20  1  0  0  0  0 
  2 20  1  0  0  0  0 
 20 21  1  0  0  0  0 
 21 22  1  0  0  0  0 
 21 23  2  0  0  0  0 
  1 24  1  0  0  0  0 
  1 25  1  0  0  0  0 
  1 26  1  0  0  0  0 
  3 27  1  0  0  0  0 
  3 28  1  0  0  0  0 
  3 29  1  0  0  0  0 
  5 30  1  0  0  0  0 
  6 31  1  0  0  0  0 
  7 32  1  0  0  0  0 
 10 33  1  0  0  0  0 
 10 34  1  0  0  0  0 
 12 35  1  0  0  0  0 
 13 36  1  0  0  0  0 
 14 37  1  0  0  0  0 
 15 38  1  0  0  0  0 
 16 39  1  0  0  0  0 
 20 40  1  0  0  0  0 
 22 41  1  0  0  0  0 
M  END
> <cdk:Title>
benzylpenicillin

> <Conformer>
1

> <SuperDrugID>
SD001867

$$$$
