ketamine
  CDK     0628171801

 32 33  0  0  0  0  0  0  0  0999 V2000
   -2.8622    1.3620    0.5351 N   0  0  1  0  0  0  0  0  0  0  0  0
   -2.8603    1.7075    1.9794 C   0  0  0  0  0  0  0  0  0  0  0  0
   -1.9095    0.3258    0.0080 C   0  0  1  0  0  0  0  0  0  0  0  0
   -2.2158   -0.9331    0.7713 C   0  0  0  0  0  0  0  0  0  0  0  0
   -2.2794    0.1490   -1.5098 C   0  0  2  0  0  0  0  0  0  0  0  0
   -0.4478    0.7678    0.0267 C   0  0  0  0  0  0  0  0  0  0  0  0
   -1.5375   -1.2356    1.7830 O   0  0  0  0  0  0  0  0  0  0  0  0
   -3.4076   -1.7656    0.4672 C   0  0  1  0  0  0  0  0  0  0  0  0
   -3.6503   -0.5266   -1.7628 C   0  0  1  0  0  0  0  0  0  0  0  0
    0.6572   -0.1274   -0.1600 C   0  0  0  0  0  0  0  0  0  0  0  0
   -0.1256    2.1499    0.1426 C   0  0  0  0  0  0  0  0  0  0  0  0
   -3.7045   -1.8969   -1.0477 C   0  0  2  0  0  0  0  0  0  0  0  0
    0.5069   -1.7964   -0.4497 Cl  0  0  0  0  0  0  0  0  0  0  0  0
    1.9879    0.3468   -0.1470 C   0  0  0  0  0  0  0  0  0  0  0  0
    1.2002    2.6173    0.1442 C   0  0  0  0  0  0  0  0  0  0  0  0
    2.2609    1.7132    0.0108 C   0  0  0  0  0  0  0  0  0  0  0  0
   -3.8096    1.0415    0.3272 H   0  0  0  0  0  0  0  0  0  0  0  0
   -3.4638    2.6045    2.1159 H   0  0  0  0  0  0  0  0  0  0  0  0
   -3.3024    0.9047    2.5710 H   0  0  0  0  0  0  0  0  0  0  0  0
   -1.8547    1.9093    2.3474 H   0  0  0  0  0  0  0  0  0  0  0  0
   -1.5316   -0.4648   -2.0178 H   0  0  0  0  0  0  0  0  0  0  0  0
   -2.2785    1.1226   -2.0071 H   0  0  0  0  0  0  0  0  0  0  0  0
   -3.2848   -2.7674    0.8871 H   0  0  0  0  0  0  0  0  0  0  0  0
   -4.2693   -1.3036    0.9522 H   0  0  0  0  0  0  0  0  0  0  0  0
   -4.4605    0.1156   -1.4078 H   0  0  0  0  0  0  0  0  0  0  0  0
   -3.7893   -0.6727   -2.8371 H   0  0  0  0  0  0  0  0  0  0  0  0
   -0.8569    2.8567    0.2201 H   0  0  0  0  0  0  0  0  0  0  0  0
   -4.6948   -2.3366   -1.1933 H   0  0  0  0  0  0  0  0  0  0  0  0
   -2.9744   -2.5724   -1.5028 H   0  0  0  0  0  0  0  0  0  0  0  0
    2.7758   -0.2976   -0.2618 H   0  0  0  0  0  0  0  0  0  0  0  0
    1.3939    3.6164    0.2379 H   0  0  0  0  0  0  0  0  0  0  0  0
    3.2287    2.0463    0.0231 H   0  0  0  0  0  0  0  0  0  0  0  0
  1  2  1  0  0  0  0 
  3  1  1  0  0  0  0 
  3  4  1  0  0  0  0 
  3  5  1  0  0  0  0 
  3  6  1  0  0  0  0 
  4  7  2  0  0  0  0 
  4  8  1  0  0  0  0 
  5  9  1  0  0  0  0 
  6 10  2  0  0  0  0 
  6 11  1  0  0  0  0 
  8 12  1  0  0  0  0 
  9 12  1  0  0  0  0 
 10 13  1  0  0  0  0 
 10 14  1  0  0  0  0 
 11 15  2  0  0  0  0 
 14 16  2  0  0  0  0 
 15 16  1  0  0  0  0 
  1 17  1  0  0  0  0 
  2 18  1  0  0  0  0 
  2 19  1  0  0  0  0 
  2 20  1  0  0  0  0 
  5 21  1  0  0  0  0 
  5 22  1  0  0  0  0 
  8 23  1  0  0  0  0 
  8 24  1  0  0  0  0 
  9 25  1  0  0  0  0 
  9 26  1  0  0  0  0 
 11 27  1  0  0  0  0 
 12 28  1  0  0  0  0 
 12 29  1  0  0  0  0 
 14 30  1  0  0  0  0 
 15 31  1  0  0  0  0 
 16 32  1  0  0  0  0 
M  END
> <cdk:Title>
ketamine

> <Conformer>
1

> <SuperDrugID>
SD001346

$$$$
