grepafloxacin
  CDK     0628171801

 48 51  0  0  0  0  0  0  0  0999 V2000
    5.0706   -4.6602   -4.0348 O   0  0  0  0  0  0  0  0  0  0  0  0
    5.1660   -3.4253   -3.8481 C   0  0  0  0  0  0  0  0  0  0  0  0
    4.0398   -2.6669   -3.4071 C   0  0  0  0  0  0  0  0  0  0  0  0
    6.4400   -2.8385   -4.0619 C   0  0  0  0  0  0  0  0  0  0  0  0
    4.2745   -1.2761   -3.1546 C   0  0  0  0  0  0  0  0  0  0  0  0
    2.7214   -3.2096   -3.2023 C   0  0  0  0  0  0  0  0  0  0  0  0
    7.6081   -3.5777   -4.4398 C   0  0  0  0  0  0  0  0  0  0  0  0
    6.5338   -1.4432   -3.8863 C   0  0  0  0  0  0  0  0  0  0  0  0
    5.4748   -0.6803   -3.4912 N   0  0  0  0  0  0  0  0  0  0  0  0
    3.2439   -0.5250   -2.5402 C   0  0  0  0  0  0  0  0  0  0  0  0
    2.3487   -4.5986   -3.6154 C   0  0  0  0  0  0  0  0  0  0  0  0
    1.7183   -2.3966   -2.6057 C   0  0  0  0  0  0  0  0  0  0  0  0
    8.7986   -2.9728   -4.6781 O   0  0  0  0  0  0  0  0  0  0  0  0
    7.6172   -4.8243   -4.5631 O   0  0  0  0  0  0  0  0  0  0  0  0
    5.6871    0.7559   -3.4234 C   0  0  1  0  0  0  0  0  0  0  0  0
    1.9793   -1.0577   -2.2583 C   0  0  0  0  0  0  0  0  0  0  0  0
    0.5175   -2.8610   -2.3623 F   0  0  0  0  0  0  0  0  0  0  0  0
    6.2979    1.5446   -4.6040 C   0  0  2  0  0  0  0  0  0  0  0  0
    4.7953    1.6205   -4.3451 C   0  0  1  0  0  0  0  0  0  0  0  0
    1.0518   -0.2394   -1.6564 N   0  0  0  0  0  0  0  0  0  0  0  0
    0.5910   -0.4924   -0.3104 C   0  0  2  0  0  0  0  0  0  0  0  0
    0.5549    0.9367   -2.3373 C   0  0  1  0  0  0  0  0  0  0  0  0
   -0.9647   -0.4685   -0.2593 C   0  0  1  0  0  0  0  0  0  0  0  0
   -0.9898    0.9779   -2.2746 C   0  0  2  0  0  0  0  0  0  0  0  0
   -1.4969   -0.5676    1.1900 C   0  0  0  0  0  0  0  0  0  0  0  0
   -1.4684    0.7827   -0.8861 N   0  0  1  0  0  0  0  0  0  0  0  0
    7.4332   -0.9827   -4.0561 H   0  0  0  0  0  0  0  0  0  0  0  0
    3.4059    0.4435   -2.2615 H   0  0  0  0  0  0  0  0  0  0  0  0
    2.6229   -4.7547   -4.6590 H   0  0  0  0  0  0  0  0  0  0  0  0
    1.2815   -4.8117   -3.5508 H   0  0  0  0  0  0  0  0  0  0  0  0
    2.8642   -5.3238   -2.9854 H   0  0  0  0  0  0  0  0  0  0  0  0
    9.5858   -3.5093   -4.9162 H   0  0  0  0  0  0  0  0  0  0  0  0
    5.8455    1.1953   -2.4347 H   0  0  0  0  0  0  0  0  0  0  0  0
    6.5763    0.9859   -5.5000 H   0  0  0  0  0  0  0  0  0  0  0  0
    6.8407    2.4597   -4.3585 H   0  0  0  0  0  0  0  0  0  0  0  0
    4.1734    1.0972   -5.0747 H   0  0  0  0  0  0  0  0  0  0  0  0
    4.4333    2.5571   -3.9177 H   0  0  0  0  0  0  0  0  0  0  0  0
    0.9875    0.3000    0.3311 H   0  0  0  0  0  0  0  0  0  0  0  0
    0.9624   -1.4437    0.0868 H   0  0  0  0  0  0  0  0  0  0  0  0
    0.9594    1.8286   -1.8489 H   0  0  0  0  0  0  0  0  0  0  0  0
    0.8568    0.9705   -3.3913 H   0  0  0  0  0  0  0  0  0  0  0  0
   -1.3565   -1.3249   -0.8208 H   0  0  0  0  0  0  0  0  0  0  0  0
   -1.4010    0.1982   -2.9217 H   0  0  0  0  0  0  0  0  0  0  0  0
   -1.3413    1.9467   -2.6366 H   0  0  0  0  0  0  0  0  0  0  0  0
   -1.1588    0.2859    1.7838 H   0  0  0  0  0  0  0  0  0  0  0  0
   -2.5893   -0.5781    1.1843 H   0  0  0  0  0  0  0  0  0  0  0  0
   -1.1447   -1.4871    1.6662 H   0  0  0  0  0  0  0  0  0  0  0  0
   -2.4884    0.7184   -0.9286 H   0  0  0  0  0  0  0  0  0  0  0  0
  1  2  2  0  0  0  0 
  2  3  1  0  0  0  0 
  2  4  1  0  0  0  0 
  3  5  1  0  0  0  0 
  3  6  2  0  0  0  0 
  4  7  1  0  0  0  0 
  4  8  2  0  0  0  0 
  5  9  1  0  0  0  0 
  5 10  2  0  0  0  0 
  6 11  1  0  0  0  0 
  6 12  1  0  0  0  0 
  7 13  1  0  0  0  0 
  7 14  2  0  0  0  0 
  8  9  1  0  0  0  0 
  9 15  1  0  0  0  0 
 10 16  1  0  0  0  0 
 12 16  2  0  0  0  0 
 12 17  1  0  0  0  0 
 15 18  1  0  0  0  0 
 15 19  1  0  0  0  0 
 16 20  1  0  0  0  0 
 18 19  1  0  0  0  0 
 20 21  1  0  0  0  0 
 20 22  1  0  0  0  0 
 23 21  1  0  0  0  0 
 22 24  1  0  0  0  0 
 23 25  1  0  0  0  0 
 23 26  1  0  0  0  0 
 24 26  1  0  0  0  0 
  8 27  1  0  0  0  0 
 10 28  1  0  0  0  0 
 11 29  1  0  0  0  0 
 11 30  1  0  0  0  0 
 11 31  1  0  0  0  0 
 13 32  1  0  0  0  0 
 15 33  1  0  0  0  0 
 18 34  1  0  0  0  0 
 18 35  1  0  0  0  0 
 19 36  1  0  0  0  0 
 19 37  1  0  0  0  0 
 21 38  1  0  0  0  0 
 21 39  1  0  0  0  0 
 22 40  1  0  0  0  0 
 22 41  1  0  0  0  0 
 23 42  1  0  0  0  0 
 24 43  1  0  0  0  0 
 24 44  1  0  0  0  0 
 25 45  1  0  0  0  0 
 25 46  1  0  0  0  0 
 25 47  1  0  0  0  0 
 26 48  1  0  0  0  0 
M  END
> <cdk:Title>
grepafloxacin

> <Conformer>
1

> <SuperDrugID>
SD001181

$$$$
