molindone
  CDK     0628171801

 44 46  0  0  0  0  0  0  0  0999 V2000
   -3.1727   -4.5254    0.6730 C   0  0  1  0  0  0  0  0  0  0  0  0
   -3.7007   -4.4647   -0.7758 C   0  0  0  0  0  0  0  0  0  0  0  0
   -3.8648   -3.5538    1.5546 C   0  0  0  0  0  0  0  0  0  0  0  0
   -3.6332   -2.1738    1.6537 C   0  0  0  0  0  0  0  0  0  0  0  0
   -4.8970   -3.8421    2.4621 C   0  0  0  0  0  0  0  0  0  0  0  0
   -4.5382   -1.6873    2.5939 C   0  0  0  0  0  0  0  0  0  0  0  0
   -2.7131   -1.3106    1.0027 C   0  0  0  0  0  0  0  0  0  0  0  0
   -5.5344   -5.1447    2.7213 C   0  0  0  0  0  0  0  0  0  0  0  0
   -5.2616   -2.7037    3.0719 N   0  0  0  0  0  0  0  0  0  0  0  0
   -4.6577   -0.2695    2.9789 C   0  0  1  0  0  0  0  0  0  0  0  0
   -1.9736   -1.7635    0.0993 O   0  0  0  0  0  0  0  0  0  0  0  0
   -2.6098    0.1251    1.4339 C   0  0  2  0  0  0  0  0  0  0  0  0
   -4.0044    0.6533    1.9099 C   0  0  1  0  0  0  0  0  0  0  0  0
   -2.0152    1.0838    0.3523 C   0  0  1  0  0  0  0  0  0  0  0  0
   -0.6765    0.6760   -0.1824 N   0  0  1  0  0  0  0  0  0  0  0  0
   -0.3470    1.3441   -1.4798 C   0  0  1  0  0  0  0  0  0  0  0  0
    0.4615    0.7503    0.7902 C   0  0  2  0  0  0  0  0  0  0  0  0
    0.9577    0.7548   -2.0632 C   0  0  1  0  0  0  0  0  0  0  0  0
    1.7393    0.1671    0.1395 C   0  0  2  0  0  0  0  0  0  0  0  0
    2.0340    0.8273   -1.1076 O   0  0  0  0  0  0  0  0  0  0  0  0
   -3.3192   -5.5411    1.0418 H   0  0  0  0  0  0  0  0  0  0  0  0
   -2.0993   -4.3336    0.6909 H   0  0  0  0  0  0  0  0  0  0  0  0
   -3.1313   -5.1516   -1.4061 H   0  0  0  0  0  0  0  0  0  0  0  0
   -3.6066   -3.4577   -1.1864 H   0  0  0  0  0  0  0  0  0  0  0  0
   -4.7532   -4.7571   -0.8020 H   0  0  0  0  0  0  0  0  0  0  0  0
   -6.0706   -5.4658    1.8278 H   0  0  0  0  0  0  0  0  0  0  0  0
   -6.2451   -5.0679    3.5463 H   0  0  0  0  0  0  0  0  0  0  0  0
   -4.7807   -5.8895    2.9789 H   0  0  0  0  0  0  0  0  0  0  0  0
   -5.9536   -2.6218    3.7458 H   0  0  0  0  0  0  0  0  0  0  0  0
   -5.7151   -0.0161    3.0823 H   0  0  0  0  0  0  0  0  0  0  0  0
   -4.1723   -0.1315    3.9491 H   0  0  0  0  0  0  0  0  0  0  0  0
   -1.9552    0.1470    2.3085 H   0  0  0  0  0  0  0  0  0  0  0  0
   -4.6743    0.7151    1.0462 H   0  0  0  0  0  0  0  0  0  0  0  0
   -3.9089    1.6600    2.3250 H   0  0  0  0  0  0  0  0  0  0  0  0
   -2.7361    1.1069   -0.4717 H   0  0  0  0  0  0  0  0  0  0  0  0
   -1.9514    2.1019    0.7534 H   0  0  0  0  0  0  0  0  0  0  0  0
   -1.1479    1.1782   -2.2062 H   0  0  0  0  0  0  0  0  0  0  0  0
   -0.2312    2.4236   -1.3370 H   0  0  0  0  0  0  0  0  0  0  0  0
    0.2544    0.1662    1.6884 H   0  0  0  0  0  0  0  0  0  0  0  0
    0.6449    1.7857    1.0948 H   0  0  0  0  0  0  0  0  0  0  0  0
    0.7923   -0.2814   -2.3712 H   0  0  0  0  0  0  0  0  0  0  0  0
    1.2447    1.3265   -2.9469 H   0  0  0  0  0  0  0  0  0  0  0  0
    1.6140   -0.9074   -0.0222 H   0  0  0  0  0  0  0  0  0  0  0  0
    2.5894    0.3089    0.8089 H   0  0  0  0  0  0  0  0  0  0  0  0
  1  2  1  0  0  0  0 
  1  3  1  0  0  0  0 
  3  4  1  0  0  0  0 
  3  5  2  0  0  0  0 
  4  6  2  0  0  0  0 
  4  7  1  0  0  0  0 
  5  8  1  0  0  0  0 
  5  9  1  0  0  0  0 
  6  9  1  0  0  0  0 
  6 10  1  0  0  0  0 
  7 11  2  0  0  0  0 
 12  7  1  0  0  0  0 
 10 13  1  0  0  0  0 
 12 13  1  0  0  0  0 
 12 14  1  0  0  0  0 
 14 15  1  0  0  0  0 
 15 16  1  0  0  0  0 
 15 17  1  0  0  0  0 
 16 18  1  0  0  0  0 
 17 19  1  0  0  0  0 
 18 20  1  0  0  0  0 
 19 20  1  0  0  0  0 
 21  1  1  0  0  0  0 
 22  1  1  0  0  0  0 
 23  2  1  0  0  0  0 
 24  2  1  0  0  0  0 
 25  2  1  0  0  0  0 
 26  8  1  0  0  0  0 
 27  8  1  0  0  0  0 
 28  8  1  0  0  0  0 
 29  9  1  0  0  0  0 
 30 10  1  0  0  0  0 
 31 10  1  0  0  0  0 
 32 12  1  0  0  0  0 
 33 13  1  0  0  0  0 
 34 13  1  0  0  0  0 
 35 14  1  0  0  0  0 
 36 14  1  0  0  0  0 
 37 16  1  0  0  0  0 
 38 16  1  0  0  0  0 
 39 17  1  0  0  0  0 
 40 17  1  0  0  0  0 
 41 18  1  0  0  0  0 
 42 18  1  0  0  0  0 
 43 19  1  0  0  0  0 
 44 19  1  0  0  0  0 
M  END
> <cdk:Title>
molindone

> <Conformer>
1

> <SuperDrugID>
SD001629

$$$$
