sequifenadine
  CDK     0628171802

 51 54  0  0  0  0  0  0  0  0999 V2000
    2.1962   -1.4971   -0.1101 C   0  0  2  0  0  0  0  0  0  0  0  0
    1.3229   -2.8489   -0.1222 C   0  0  1  0  0  0  0  0  0  0  0  0
    3.4708   -1.6370    0.7181 C   0  0  0  0  0  0  0  0  0  0  0  0
    1.5105   -0.1579    0.2038 C   0  0  0  0  0  0  0  0  0  0  0  0
    1.9773   -4.1043   -0.8454 C   0  0  2  0  0  0  0  0  0  0  0  0
    0.6700   -3.4114    1.2111 C   0  0  1  0  0  0  0  0  0  0  0  0
    3.3426   -1.4667    2.1258 C   0  0  0  0  0  0  0  0  0  0  0  0
    4.7972   -1.9027    0.2157 C   0  0  0  0  0  0  0  0  0  0  0  0
    2.1327    1.1254   -0.0209 C   0  0  0  0  0  0  0  0  0  0  0  0
    0.1966   -0.1249    0.7505 C   0  0  0  0  0  0  0  0  0  0  0  0
    0.8479   -5.1323   -1.1929 C   0  0  2  0  0  0  0  0  0  0  0  0
    2.9612   -4.8856    0.0948 C   0  0  2  0  0  0  0  0  0  0  0  0
    0.7676   -4.9075    1.3296 N   0  0  1  0  0  0  0  0  0  0  0  0
    4.4196   -1.6246    3.0106 C   0  0  0  0  0  0  0  0  0  0  0  0
    5.8757   -2.0492    1.1290 C   0  0  0  0  0  0  0  0  0  0  0  0
    3.4820    1.3076   -0.6345 C   0  0  0  0  0  0  0  0  0  0  0  0
    1.4549    2.3181    0.3437 C   0  0  0  0  0  0  0  0  0  0  0  0
   -0.4588    1.0641    1.1074 C   0  0  0  0  0  0  0  0  0  0  0  0
    0.1276   -5.5545    0.1300 C   0  0  2  0  0  0  0  0  0  0  0  0
    2.2152   -5.2953    1.4028 C   0  0  2  0  0  0  0  0  0  0  0  0
    5.6881   -1.9281    2.5110 C   0  0  0  0  0  0  0  0  0  0  0  0
    0.1777    2.2906    0.9154 C   0  0  0  0  0  0  0  0  0  0  0  0
    5.1476   -2.0610   -1.2277 C   0  0  0  0  0  0  0  0  0  0  0  0
    2.4637   -1.3315   -1.5053 O   0  0  0  0  0  0  0  0  0  0  0  0
    0.4660   -2.5851   -0.7548 H   0  0  0  0  0  0  0  0  0  0  0  0
    2.4739   -3.8248   -1.7746 H   0  0  0  0  0  0  0  0  0  0  0  0
    1.1063   -2.9695    2.0999 H   0  0  0  0  0  0  0  0  0  0  0  0
   -0.3940   -3.1658    1.2518 H   0  0  0  0  0  0  0  0  0  0  0  0
    2.4472   -1.2057    2.5407 H   0  0  0  0  0  0  0  0  0  0  0  0
   -0.3355   -0.9695    0.9047 H   0  0  0  0  0  0  0  0  0  0  0  0
    1.2791   -6.0108   -1.6841 H   0  0  0  0  0  0  0  0  0  0  0  0
    0.1347   -4.6958   -1.8967 H   0  0  0  0  0  0  0  0  0  0  0  0
    3.8402   -4.3060    0.3442 H   0  0  0  0  0  0  0  0  0  0  0  0
    3.3294   -5.7809   -0.4140 H   0  0  0  0  0  0  0  0  0  0  0  0
    4.2821   -1.5129    4.0176 H   0  0  0  0  0  0  0  0  0  0  0  0
    6.8240   -2.2495    0.7994 H   0  0  0  0  0  0  0  0  0  0  0  0
    3.5036    0.9118   -1.6475 H   0  0  0  0  0  0  0  0  0  0  0  0
    3.7870    2.3534   -0.7060 H   0  0  0  0  0  0  0  0  0  0  0  0
    4.2401    0.8179   -0.0335 H   0  0  0  0  0  0  0  0  0  0  0  0
    1.8826    3.2364    0.1976 H   0  0  0  0  0  0  0  0  0  0  0  0
   -1.4019    1.0386    1.5031 H   0  0  0  0  0  0  0  0  0  0  0  0
    0.1624   -6.6412    0.2417 H   0  0  0  0  0  0  0  0  0  0  0  0
   -0.9286   -5.2804    0.0767 H   0  0  0  0  0  0  0  0  0  0  0  0
    2.6883   -4.8192    2.2677 H   0  0  0  0  0  0  0  0  0  0  0  0
    2.2973   -6.3741    1.5578 H   0  0  0  0  0  0  0  0  0  0  0  0
    6.4768   -2.0539    3.1499 H   0  0  0  0  0  0  0  0  0  0  0  0
   -0.2878    3.1608    1.1836 H   0  0  0  0  0  0  0  0  0  0  0  0
    6.2053   -2.2696   -1.3967 H   0  0  0  0  0  0  0  0  0  0  0  0
    4.6030   -2.8914   -1.6670 H   0  0  0  0  0  0  0  0  0  0  0  0
    4.9250   -1.1507   -1.7789 H   0  0  0  0  0  0  0  0  0  0  0  0
    1.5877   -1.2368   -1.9383 H   0  0  0  0  0  0  0  0  0  0  0  0
  2  1  1  0  0  0  0 
  1  3  1  0  0  0  0 
  1  4  1  0  0  0  0 
  2  5  1  0  0  0  0 
  2  6  1  0  0  0  0 
  3  7  2  0  0  0  0 
  3  8  1  0  0  0  0 
  4  9  2  0  0  0  0 
  4 10  1  0  0  0  0 
  5 11  1  0  0  0  0 
  5 12  1  0  0  0  0 
  6 13  1  0  0  0  0 
  7 14  1  0  0  0  0 
  8 15  2  0  0  0  0 
  9 16  1  0  0  0  0 
  9 17  1  0  0  0  0 
 10 18  2  0  0  0  0 
 11 19  1  0  0  0  0 
 12 20  1  0  0  0  0 
 13 19  1  0  0  0  0 
 13 20  1  0  0  0  0 
 14 21  2  0  0  0  0 
 15 21  1  0  0  0  0 
 17 22  2  0  0  0  0 
 18 22  1  0  0  0  0 
  8 23  1  0  0  0  0 
  1 24  1  0  0  0  0 
  2 25  1  0  0  0  0 
  5 26  1  0  0  0  0 
  6 27  1  0  0  0  0 
  6 28  1  0  0  0  0 
  7 29  1  0  0  0  0 
 10 30  1  0  0  0  0 
 11 31  1  0  0  0  0 
 11 32  1  0  0  0  0 
 12 33  1  0  0  0  0 
 12 34  1  0  0  0  0 
 14 35  1  0  0  0  0 
 15 36  1  0  0  0  0 
 16 37  1  0  0  0  0 
 16 38  1  0  0  0  0 
 16 39  1  0  0  0  0 
 17 40  1  0  0  0  0 
 18 41  1  0  0  0  0 
 19 42  1  0  0  0  0 
 19 43  1  0  0  0  0 
 20 44  1  0  0  0  0 
 20 45  1  0  0  0  0 
 21 46  1  0  0  0  0 
 22 47  1  0  0  0  0 
 23 48  1  0  0  0  0 
 23 49  1  0  0  0  0 
 23 50  1  0  0  0  0 
 24 51  1  0  0  0  0 
M  END
> <cdk:Title>
sequifenadine

> <Conformer>
1

> <SuperDrugID>
SD003766

$$$$
