estradiol
  CDK     0628171801

 44 47  0  0  0  0  0  0  0  0999 V2000
   -7.1210    2.0331    0.2397 C   0  0  0  0  0  0  0  0  0  0  0  0
   -6.5198    2.6361    1.5682 C   0  0  1  0  0  0  0  0  0  0  0  0
   -5.8852    1.5980    2.5449 C   0  0  2  0  0  0  0  0  0  0  0  0
   -5.4063    3.6787    1.2321 C   0  0  2  0  0  0  0  0  0  0  0  0
   -7.6744    3.1741    2.4722 C   0  0  1  0  0  0  0  0  0  0  0  0
   -4.7010    0.8036    1.9035 C   0  0  1  0  0  0  0  0  0  0  0  0
   -7.1036    0.8405    3.1215 C   0  0  1  0  0  0  0  0  0  0  0  0
   -4.1480    3.0041    0.6022 C   0  0  2  0  0  0  0  0  0  0  0  0
   -8.6996    3.8772    1.7688 O   0  0  0  0  0  0  0  0  0  0  0  0
   -8.2196    1.9157    3.2008 C   0  0  2  0  0  0  0  0  0  0  0  0
   -3.5702    1.7924    1.4241 C   0  0  2  0  0  0  0  0  0  0  0  0
   -4.0719   -0.2155    2.8948 C   0  0  1  0  0  0  0  0  0  0  0  0
   -2.4322    1.0312    0.7820 C   0  0  0  0  0  0  0  0  0  0  0  0
   -2.9266   -1.0239    2.2326 C   0  0  2  0  0  0  0  0  0  0  0  0
   -2.1052   -0.2851    1.2312 C   0  0  0  0  0  0  0  0  0  0  0  0
   -1.6395    1.5869   -0.2581 C   0  0  0  0  0  0  0  0  0  0  0  0
   -0.9976   -0.9699    0.6759 C   0  0  0  0  0  0  0  0  0  0  0  0
   -0.5669    0.8805   -0.8269 C   0  0  0  0  0  0  0  0  0  0  0  0
   -0.2321   -0.3968   -0.3516 C   0  0  0  0  0  0  0  0  0  0  0  0
    0.8066   -1.0936   -0.8794 O   0  0  0  0  0  0  0  0  0  0  0  0
   -5.0784    0.2400    1.0463 H   0  0  0  0  0  0  0  0  0  0  0  0
   -3.1327    2.2498    2.3209 H   0  0  0  0  0  0  0  0  0  0  0  0
   -5.4454    2.1340    3.4020 H   0  0  0  0  0  0  0  0  0  0  0  0
   -6.3745    1.5157   -0.3598 H   0  0  0  0  0  0  0  0  0  0  0  0
   -7.5400    2.8284   -0.3800 H   0  0  0  0  0  0  0  0  0  0  0  0
   -7.9189    1.3175    0.4410 H   0  0  0  0  0  0  0  0  0  0  0  0
   -5.0959    4.2038    2.1427 H   0  0  0  0  0  0  0  0  0  0  0  0
   -5.7966    4.4367    0.5484 H   0  0  0  0  0  0  0  0  0  0  0  0
   -7.2760    3.8681    3.2219 H   0  0  0  0  0  0  0  0  0  0  0  0
   -7.4039    0.0200    2.4657 H   0  0  0  0  0  0  0  0  0  0  0  0
   -6.8844    0.4301    4.1103 H   0  0  0  0  0  0  0  0  0  0  0  0
   -3.3842    3.7814    0.5212 H   0  0  0  0  0  0  0  0  0  0  0  0
   -4.3815    2.6866   -0.4164 H   0  0  0  0  0  0  0  0  0  0  0  0
   -8.2381    4.6325    1.3442 H   0  0  0  0  0  0  0  0  0  0  0  0
   -9.1284    1.5479    2.7163 H   0  0  0  0  0  0  0  0  0  0  0  0
   -8.4607    2.1556    4.2396 H   0  0  0  0  0  0  0  0  0  0  0  0
   -3.6754    0.3151    3.7664 H   0  0  0  0  0  0  0  0  0  0  0  0
   -4.8323   -0.9143    3.2520 H   0  0  0  0  0  0  0  0  0  0  0  0
   -3.3719   -1.8778    1.7134 H   0  0  0  0  0  0  0  0  0  0  0  0
   -2.2802   -1.4182    3.0244 H   0  0  0  0  0  0  0  0  0  0  0  0
   -1.8235    2.5224   -0.6209 H   0  0  0  0  0  0  0  0  0  0  0  0
   -0.7472   -1.9060    1.0088 H   0  0  0  0  0  0  0  0  0  0  0  0
   -0.0276    1.3016   -1.5862 H   0  0  0  0  0  0  0  0  0  0  0  0
    1.3088   -0.4561   -1.4313 H   0  0  0  0  0  0  0  0  0  0  0  0
  2  1  1  0  0  0  0 
  3  2  1  0  0  0  0 
  2  4  1  0  0  0  0 
  2  5  1  0  0  0  0 
  6  3  1  0  0  0  0 
  3  7  1  0  0  0  0 
  3 23  1  0  0  0  0 
  4  8  1  0  0  0  0 
  5  9  1  0  0  0  0 
  5 10  1  0  0  0  0 
 11  6  1  0  0  0  0 
  6 12  1  0  0  0  0 
  6 21  1  0  0  0  0 
  7 10  1  0  0  0  0 
 11  8  1  0  0  0  0 
 11 13  1  0  0  0  0 
 11 22  1  0  0  0  0 
 12 14  1  0  0  0  0 
 13 15  2  0  0  0  0 
 13 16  1  0  0  0  0 
 14 15  1  0  0  0  0 
 15 17  1  0  0  0  0 
 16 18  2  0  0  0  0 
 17 19  2  0  0  0  0 
 18 19  1  0  0  0  0 
 19 20  1  0  0  0  0 
  1 24  1  0  0  0  0 
  1 25  1  0  0  0  0 
  1 26  1  0  0  0  0 
  4 27  1  0  0  0  0 
  4 28  1  0  0  0  0 
  5 29  1  0  0  0  0 
  7 30  1  0  0  0  0 
  7 31  1  0  0  0  0 
  8 32  1  0  0  0  0 
  8 33  1  0  0  0  0 
  9 34  1  0  0  0  0 
 10 35  1  0  0  0  0 
 10 36  1  0  0  0  0 
 12 37  1  0  0  0  0 
 12 38  1  0  0  0  0 
 14 39  1  0  0  0  0 
 14 40  1  0  0  0  0 
 16 41  1  0  0  0  0 
 17 42  1  0  0  0  0 
 18 43  1  0  0  0  0 
 20 44  1  0  0  0  0 
M  END
> <cdk:Title>
estradiol

> <Conformer>
1

> <SuperDrugID>
SD000942

$$$$
