betamethasone acetate
  CDK     0628171801

 62 65  0  0  0  0  0  0  0  0999 V2000
   -3.1221   -4.0407   -2.8206 C   0  0  0  0  0  0  0  0  0  0  0  0
   -3.6193   -5.3558   -2.0977 C   0  0  2  0  0  0  0  0  0  0  0  0
   -2.8160   -6.6414   -2.4804 C   0  0  2  0  0  0  0  0  0  0  0  0
   -5.0627   -5.7635   -2.6176 C   0  0  2  0  0  0  0  0  0  0  0  0
   -3.4572   -5.1746   -0.5426 C   0  0  2  0  0  0  0  0  0  0  0  0
   -1.2891   -6.5756   -2.1439 C   0  0  1  0  0  0  0  0  0  0  0  0
   -3.2611   -6.9242   -3.9294 C   0  0  1  0  0  0  0  0  0  0  0  0
   -6.0350   -4.6139   -2.7322 C   0  0  0  0  0  0  0  0  0  0  0  0
   -5.6426   -6.6887   -1.6802 O   0  0  0  0  0  0  0  0  0  0  0  0
   -4.7913   -6.6359   -3.9178 C   0  0  2  0  0  0  0  0  0  0  0  0
   -1.9690   -5.1488   -0.0457 C   0  0  1  0  0  0  0  0  0  0  0  0
   -1.0646   -6.3298   -0.5938 C   0  0  1  0  0  0  0  0  0  0  0  0
   -0.5422   -7.8648   -2.6124 C   0  0  1  0  0  0  0  0  0  0  0  0
   -6.9924   -4.2260   -1.6666 C   0  0  2  0  0  0  0  0  0  0  0  0
   -6.0057   -3.8594   -3.7326 O   0  0  0  0  0  0  0  0  0  0  0  0
   -5.2926   -6.1369   -5.3032 C   0  0  0  0  0  0  0  0  0  0  0  0
   -1.4193   -3.8593   -0.2939 O   0  0  0  0  0  0  0  0  0  0  0  0
   -1.5730   -7.4425    0.0668 F   0  0  0  0  0  0  0  0  0  0  0  0
    0.4959   -6.2907   -0.2335 C   0  0  2  0  0  0  0  0  0  0  0  0
    0.9520   -7.8611   -2.2083 C   0  0  2  0  0  0  0  0  0  0  0  0
   -7.9440   -5.2755   -1.4658 O   0  0  0  0  0  0  0  0  0  0  0  0
    1.2917   -5.0709   -0.8302 C   0  0  0  0  0  0  0  0  0  0  0  0
    1.1319   -7.5360   -0.7862 C   0  0  0  0  0  0  0  0  0  0  0  0
    0.6800   -6.1699    1.2349 C   0  0  0  0  0  0  0  0  0  0  0  0
   -9.2596   -5.1801   -1.1328 C   0  0  0  0  0  0  0  0  0  0  0  0
    1.8498   -8.3673    0.0040 C   0  0  0  0  0  0  0  0  0  0  0  0
    1.4033   -7.0385    1.9594 C   0  0  0  0  0  0  0  0  0  0  0  0
   -9.9966   -6.4318   -0.9201 C   0  0  0  0  0  0  0  0  0  0  0  0
   -9.8259   -4.0718   -0.9847 O   0  0  0  0  0  0  0  0  0  0  0  0
    2.0151   -8.1204    1.3559 C   0  0  0  0  0  0  0  0  0  0  0  0
    2.7225   -8.8935    2.0427 O   0  0  0  0  0  0  0  0  0  0  0  0
   -3.6565   -3.1696   -2.4335 H   0  0  0  0  0  0  0  0  0  0  0  0
   -3.2937   -4.0788   -3.8958 H   0  0  0  0  0  0  0  0  0  0  0  0
   -2.0612   -3.8519   -2.6783 H   0  0  0  0  0  0  0  0  0  0  0  0
   -3.2000   -7.4876   -1.8943 H   0  0  0  0  0  0  0  0  0  0  0  0
   -3.9588   -5.9926   -0.0187 H   0  0  0  0  0  0  0  0  0  0  0  0
   -3.9621   -4.2582   -0.2232 H   0  0  0  0  0  0  0  0  0  0  0  0
   -0.8574   -5.7510   -2.7109 H   0  0  0  0  0  0  0  0  0  0  0  0
   -2.7266   -6.2687   -4.6217 H   0  0  0  0  0  0  0  0  0  0  0  0
   -3.0606   -7.9606   -4.2137 H   0  0  0  0  0  0  0  0  0  0  0  0
   -6.4672   -7.0044   -2.1104 H   0  0  0  0  0  0  0  0  0  0  0  0
   -5.2907   -7.6063   -3.7973 H   0  0  0  0  0  0  0  0  0  0  0  0
   -2.0115   -5.2226    1.0455 H   0  0  0  0  0  0  0  0  0  0  0  0
   -1.0232   -8.7508   -2.1858 H   0  0  0  0  0  0  0  0  0  0  0  0
   -0.5973   -7.9537   -3.7012 H   0  0  0  0  0  0  0  0  0  0  0  0
   -7.5007   -3.2917   -1.9241 H   0  0  0  0  0  0  0  0  0  0  0  0
   -6.4544   -4.0649   -0.7308 H   0  0  0  0  0  0  0  0  0  0  0  0
   -6.3780   -6.0099   -5.2882 H   0  0  0  0  0  0  0  0  0  0  0  0
   -4.8230   -5.1917   -5.5800 H   0  0  0  0  0  0  0  0  0  0  0  0
   -5.0529   -6.8748   -6.0733 H   0  0  0  0  0  0  0  0  0  0  0  0
   -1.9919   -3.2386    0.2072 H   0  0  0  0  0  0  0  0  0  0  0  0
    1.4875   -7.1285   -2.8157 H   0  0  0  0  0  0  0  0  0  0  0  0
    1.3657   -8.8405   -2.4718 H   0  0  0  0  0  0  0  0  0  0  0  0
    1.1280   -4.9522   -1.8995 H   0  0  0  0  0  0  0  0  0  0  0  0
    1.0250   -4.1256   -0.3572 H   0  0  0  0  0  0  0  0  0  0  0  0
    2.3676   -5.2047   -0.6813 H   0  0  0  0  0  0  0  0  0  0  0  0
    0.2696   -5.4024    1.7151 H   0  0  0  0  0  0  0  0  0  0  0  0
    2.2735   -9.1822   -0.3787 H   0  0  0  0  0  0  0  0  0  0  0  0
    1.5030   -6.8967    2.9381 H   0  0  0  0  0  0  0  0  0  0  0  0
  -11.0300   -6.2401   -0.6231 H   0  0  0  0  0  0  0  0  0  0  0  0
   -9.9948   -7.0203   -1.8383 H   0  0  0  0  0  0  0  0  0  0  0  0
   -9.5041   -7.0056   -0.1334 H   0  0  0  0  0  0  0  0  0  0  0  0
  2  1  1  0  0  0  0 
  3  2  1  0  0  0  0 
  2  4  1  0  0  0  0 
  2  5  1  0  0  0  0 
  6  3  1  0  0  0  0 
  3  7  1  0  0  0  0 
  4  8  1  0  0  0  0 
  4  9  1  0  0  0  0 
  4 10  1  0  0  0  0 
 11  5  1  0  0  0  0 
 12  6  1  0  0  0  0 
  6 13  1  0  0  0  0 
 10  7  1  0  0  0  0 
  8 14  1  0  0  0  0 
  8 15  2  0  0  0  0 
 10 16  1  0  0  0  0 
 12 11  1  0  0  0  0 
 11 17  1  0  0  0  0 
 12 18  1  0  0  0  0 
 12 19  1  0  0  0  0 
 13 20  1  0  0  0  0 
 14 21  1  0  0  0  0 
 19 22  1  0  0  0  0 
 19 23  1  0  0  0  0 
 19 24  1  0  0  0  0 
 20 23  1  0  0  0  0 
 21 25  1  0  0  0  0 
 23 26  2  0  0  0  0 
 24 27  2  0  0  0  0 
 25 28  1  0  0  0  0 
 25 29  2  0  0  0  0 
 26 30  1  0  0  0  0 
 27 30  1  0  0  0  0 
 30 31  2  0  0  0  0 
 32  1  1  0  0  0  0 
 33  1  1  0  0  0  0 
 34  1  1  0  0  0  0 
  3 35  1  0  0  0  0 
 36  5  1  0  0  0  0 
 37  5  1  0  0  0  0 
  6 38  1  0  0  0  0 
 39  7  1  0  0  0  0 
 40  7  1  0  0  0  0 
 41  9  1  0  0  0  0 
 10 42  1  0  0  0  0 
 11 43  1  0  0  0  0 
 44 13  1  0  0  0  0 
 45 13  1  0  0  0  0 
 46 14  1  0  0  0  0 
 47 14  1  0  0  0  0 
 48 16  1  0  0  0  0 
 49 16  1  0  0  0  0 
 50 16  1  0  0  0  0 
 51 17  1  0  0  0  0 
 52 20  1  0  0  0  0 
 53 20  1  0  0  0  0 
 54 22  1  0  0  0  0 
 55 22  1  0  0  0  0 
 56 22  1  0  0  0  0 
 57 24  1  0  0  0  0 
 58 26  1  0  0  0  0 
 59 27  1  0  0  0  0 
 60 28  1  0  0  0  0 
 61 28  1  0  0  0  0 
 62 28  1  0  0  0  0 
M  END
> <cdk:Title>
betamethasone acetate

> <Conformer>
1

> <SuperDrugID>
SD000294

$$$$
