zorubicin
  CDK     0628171801

 82 87  0  0  0  0  0  0  0  0999 V2000
   -0.9594    4.4050    4.8784 O   0  0  0  0  0  0  0  0  0  0  0  0
   -1.6215    3.9621    3.7765 C   0  0  0  0  0  0  0  0  0  0  0  0
   -2.9255    4.4612    3.5500 C   0  0  0  0  0  0  0  0  0  0  0  0
   -1.0220    3.0076    2.9074 C   0  0  0  0  0  0  0  0  0  0  0  0
   -3.6752    3.9690    2.4507 C   0  0  0  0  0  0  0  0  0  0  0  0
   -3.5170    5.4801    4.4722 C   0  0  1  0  0  0  0  0  0  0  0  0
   -1.7623    2.5147    1.7946 C   0  0  0  0  0  0  0  0  0  0  0  0
    0.3141    2.5285    3.1226 C   0  0  0  0  0  0  0  0  0  0  0  0
   -5.0612    4.4729    2.1574 C   0  0  1  0  0  0  0  0  0  0  0  0
   -3.0799    3.0146    1.5819 C   0  0  0  0  0  0  0  0  0  0  0  0
   -4.5000    6.4721    3.7624 C   0  0  2  0  0  0  0  0  0  0  0  0
   -1.1504    1.5302    0.9340 C   0  0  0  0  0  0  0  0  0  0  0  0
    1.0432    3.0611    3.9952 O   0  0  0  0  0  0  0  0  0  0  0  0
    0.8596    1.4659    2.3409 C   0  0  0  0  0  0  0  0  0  0  0  0
   -5.9602    3.3280    2.1263 O   0  0  0  0  0  0  0  0  0  0  0  0
   -5.6019    5.5642    3.1351 C   0  0  1  0  0  0  0  0  0  0  0  0
   -3.8147    2.5947    0.5143 O   0  0  0  0  0  0  0  0  0  0  0  0
   -3.8707    7.4772    2.8684 C   0  0  0  0  0  0  0  0  0  0  0  0
   -5.1278    7.2586    4.7821 O   0  0  0  0  0  0  0  0  0  0  0  0
   -1.7243    1.1844   -0.1258 O   0  0  0  0  0  0  0  0  0  0  0  0
    0.1248    0.9466    1.2365 C   0  0  0  0  0  0  0  0  0  0  0  0
    2.1367    0.9307    2.6461 C   0  0  0  0  0  0  0  0  0  0  0  0
   -7.2463    3.5052    1.4791 C   0  0  1  0  0  0  0  0  0  0  0  0
   -2.6912    7.8855    3.1956 N   0  0  0  0  0  0  0  0  0  0  0  0
   -4.5857    8.0754    1.7341 C   0  0  0  0  0  0  0  0  0  0  0  0
    0.6985   -0.1141    0.4689 C   0  0  0  0  0  0  0  0  0  0  0  0
    2.6968   -0.0905    1.8685 C   0  0  0  0  0  0  0  0  0  0  0  0
   -7.8154    2.1316    1.0170 C   0  0  1  0  0  0  0  0  0  0  0  0
   -8.1919    4.2125    2.3161 O   0  0  0  0  0  0  0  0  0  0  0  0
   -1.9630    8.7751    2.6508 N   0  0  0  0  0  0  0  0  0  0  0  0
    0.0732   -0.6735   -0.6182 O   0  0  0  0  0  0  0  0  0  0  0  0
    1.9838   -0.6047    0.7791 C   0  0  0  0  0  0  0  0  0  0  0  0
   -8.4363    1.3158    2.1853 C   0  0  2  0  0  0  0  0  0  0  0  0
   -8.6538    3.4844    3.4781 C   0  0  2  0  0  0  0  0  0  0  0  0
   -0.9756    8.5073    1.7569 C   0  0  0  0  0  0  0  0  0  0  0  0
   -0.6537   -1.8787   -0.3148 C   0  0  0  0  0  0  0  0  0  0  0  0
   -9.1368    0.1312    1.6652 N   0  0  2  0  0  0  0  0  0  0  0  0
   -9.3994    2.1903    3.0335 C   0  0  1  0  0  0  0  0  0  0  0  0
   -9.5291    4.4230    4.3430 C   0  0  0  0  0  0  0  0  0  0  0  0
   -0.7781    7.3264    1.3783 O   0  0  0  0  0  0  0  0  0  0  0  0
   -0.1297    9.5489    1.2976 C   0  0  0  0  0  0  0  0  0  0  0  0
  -10.5733    2.5072    2.2820 O   0  0  0  0  0  0  0  0  0  0  0  0
   -0.6284   10.8402    0.9944 C   0  0  0  0  0  0  0  0  0  0  0  0
    1.2614    9.3174    1.1660 C   0  0  0  0  0  0  0  0  0  0  0  0
    0.2448   11.8746    0.6042 C   0  0  0  0  0  0  0  0  0  0  0  0
    2.1344   10.3557    0.7927 C   0  0  0  0  0  0  0  0  0  0  0  0
    1.6271   11.6353    0.5127 C   0  0  0  0  0  0  0  0  0  0  0  0
   -0.9905    3.6517    5.5068 H   0  0  0  0  0  0  0  0  0  0  0  0
   -4.0494    4.9349    5.2586 H   0  0  0  0  0  0  0  0  0  0  0  0
   -2.7447    6.0577    4.9861 H   0  0  0  0  0  0  0  0  0  0  0  0
   -4.9953    4.9230    1.1616 H   0  0  0  0  0  0  0  0  0  0  0  0
   -6.3563    6.1727    2.6326 H   0  0  0  0  0  0  0  0  0  0  0  0
   -6.1209    5.0514    3.9506 H   0  0  0  0  0  0  0  0  0  0  0  0
   -3.2455    2.7551   -0.2677 H   0  0  0  0  0  0  0  0  0  0  0  0
   -5.5618    6.6217    5.3918 H   0  0  0  0  0  0  0  0  0  0  0  0
    2.6858    1.2848    3.4326 H   0  0  0  0  0  0  0  0  0  0  0  0
   -7.1145    4.1063    0.5742 H   0  0  0  0  0  0  0  0  0  0  0  0
   -4.0514    8.9123    1.2765 H   0  0  0  0  0  0  0  0  0  0  0  0
   -4.7401    7.3288    0.9559 H   0  0  0  0  0  0  0  0  0  0  0  0
   -5.5522    8.4611    2.0625 H   0  0  0  0  0  0  0  0  0  0  0  0
    3.6260   -0.4559    2.0921 H   0  0  0  0  0  0  0  0  0  0  0  0
   -8.5849    2.3131    0.2604 H   0  0  0  0  0  0  0  0  0  0  0  0
   -7.0218    1.5458    0.5426 H   0  0  0  0  0  0  0  0  0  0  0  0
   -2.1037    9.6969    2.9198 H   0  0  0  0  0  0  0  0  0  0  0  0
    2.4085   -1.3433    0.2097 H   0  0  0  0  0  0  0  0  0  0  0  0
   -7.6289    0.9557    2.8308 H   0  0  0  0  0  0  0  0  0  0  0  0
   -7.7951    3.2004    4.0970 H   0  0  0  0  0  0  0  0  0  0  0  0
   -1.1279   -2.2274   -1.2321 H   0  0  0  0  0  0  0  0  0  0  0  0
    0.0102   -2.6679    0.0449 H   0  0  0  0  0  0  0  0  0  0  0  0
   -1.4380   -1.7008    0.4240 H   0  0  0  0  0  0  0  0  0  0  0  0
   -9.4950   -0.3833    2.4732 H   0  0  0  0  0  0  0  0  0  0  0  0
   -8.4321   -0.4659    1.2243 H   0  0  0  0  0  0  0  0  0  0  0  0
   -9.7150    1.6205    3.9122 H   0  0  0  0  0  0  0  0  0  0  0  0
  -10.3370    4.8595    3.7530 H   0  0  0  0  0  0  0  0  0  0  0  0
   -8.9164    5.2333    4.7448 H   0  0  0  0  0  0  0  0  0  0  0  0
   -9.9658    3.8728    5.1796 H   0  0  0  0  0  0  0  0  0  0  0  0
  -11.1749    2.9537    2.9144 H   0  0  0  0  0  0  0  0  0  0  0  0
   -1.6311   11.0396    1.0526 H   0  0  0  0  0  0  0  0  0  0  0  0
    1.6575    8.3950    1.3648 H   0  0  0  0  0  0  0  0  0  0  0  0
   -0.1244   12.8052    0.3954 H   0  0  0  0  0  0  0  0  0  0  0  0
    3.1399   10.1842    0.7355 H   0  0  0  0  0  0  0  0  0  0  0  0
    2.2641   12.3902    0.2472 H   0  0  0  0  0  0  0  0  0  0  0  0
  1  2  1  0  0  0  0 
  2  3  2  0  0  0  0 
  2  4  1  0  0  0  0 
  3  5  1  0  0  0  0 
  3  6  1  0  0  0  0 
  4  7  2  0  0  0  0 
  4  8  1  0  0  0  0 
  9  5  1  0  0  0  0 
  5 10  2  0  0  0  0 
 11  6  1  0  0  0  0 
  7 10  1  0  0  0  0 
  7 12  1  0  0  0  0 
  8 13  2  0  0  0  0 
  8 14  1  0  0  0  0 
  9 15  1  0  0  0  0 
  9 16  1  0  0  0  0 
 10 17  1  0  0  0  0 
 11 16  1  0  0  0  0 
 11 18  1  0  0  0  0 
 11 19  1  0  0  0  0 
 12 20  2  0  0  0  0 
 12 21  1  0  0  0  0 
 14 21  2  0  0  0  0 
 14 22  1  0  0  0  0 
 23 15  1  0  0  0  0 
 18 24  2  0  0  0  0 
 18 25  1  0  0  0  0 
 21 26  1  0  0  0  0 
 22 27  2  0  0  0  0 
 23 28  1  0  0  0  0 
 23 29  1  0  0  0  0 
 24 30  1  0  0  0  0 
 26 31  1  0  0  0  0 
 26 32  2  0  0  0  0 
 27 32  1  0  0  0  0 
 33 28  1  0  0  0  0 
 34 29  1  0  0  0  0 
 30 35  1  0  0  0  0 
 31 36  1  0  0  0  0 
 33 37  1  0  0  0  0 
 38 33  1  0  0  0  0 
 38 34  1  0  0  0  0 
 34 39  1  0  0  0  0 
 35 40  2  0  0  0  0 
 35 41  1  0  0  0  0 
 38 42  1  0  0  0  0 
 41 43  2  0  0  0  0 
 41 44  1  0  0  0  0 
 43 45  1  0  0  0  0 
 44 46  2  0  0  0  0 
 45 47  2  0  0  0  0 
 46 47  1  0  0  0  0 
 48  1  1  0  0  0  0 
 49  6  1  0  0  0  0 
 50  6  1  0  0  0  0 
  9 51  1  0  0  0  0 
 52 16  1  0  0  0  0 
 53 16  1  0  0  0  0 
 54 17  1  0  0  0  0 
 55 19  1  0  0  0  0 
 56 22  1  0  0  0  0 
 23 57  1  0  0  0  0 
 58 25  1  0  0  0  0 
 59 25  1  0  0  0  0 
 60 25  1  0  0  0  0 
 61 27  1  0  0  0  0 
 62 28  1  0  0  0  0 
 63 28  1  0  0  0  0 
 64 30  1  0  0  0  0 
 65 32  1  0  0  0  0 
 33 66  1  0  0  0  0 
 34 67  1  0  0  0  0 
 68 36  1  0  0  0  0 
 69 36  1  0  0  0  0 
 70 36  1  0  0  0  0 
 71 37  1  0  0  0  0 
 72 37  1  0  0  0  0 
 38 73  1  0  0  0  0 
 74 39  1  0  0  0  0 
 75 39  1  0  0  0  0 
 76 39  1  0  0  0  0 
 77 42  1  0  0  0  0 
 78 43  1  0  0  0  0 
 79 44  1  0  0  0  0 
 80 45  1  0  0  0  0 
 81 46  1  0  0  0  0 
 82 47  1  0  0  0  0 
M  END
> <cdk:Title>
zorubicin

> <Conformer>
1

> <SuperDrugID>
SD002590

$$$$
