cefotaxime
  CDK     0628171802

 47 49  0  0  0  0  0  0  0  0999 V2000
   -4.8916   -5.1123    0.5962 N   0  0  0  0  0  0  0  0  0  0  0  0
   -3.8032   -5.7754    1.2396 C   0  0  1  0  0  0  0  0  0  0  0  0
   -2.4553   -5.7438    0.4577 C   0  0  2  0  0  0  0  0  0  0  0  0
   -2.0050   -4.7727    1.3961 N   0  0  0  0  0  0  0  0  0  0  0  0
   -3.1061   -4.8693    2.1525 C   0  0  0  0  0  0  0  0  0  0  0  0
   -3.4847   -4.2801    3.1910 O   0  0  0  0  0  0  0  0  0  0  0  0
   -1.8879   -6.6776    0.5115 H   0  0  0  0  0  0  0  0  0  0  0  0
   -4.0448   -6.7405    1.6897 H   0  0  0  0  0  0  0  0  0  0  0  0
   -2.3595   -4.9607   -1.1809 S   0  0  0  0  0  0  0  0  0  0  0  0
   -0.6742   -4.2670   -1.0649 C   0  0  1  0  0  0  0  0  0  0  0  0
   -0.3696   -3.5695    0.2003 C   0  0  0  0  0  0  0  0  0  0  0  0
   -0.9841   -3.8872    1.3787 C   0  0  0  0  0  0  0  0  0  0  0  0
    0.6149   -2.4833    0.0932 C   0  0  1  0  0  0  0  0  0  0  0  0
   -0.6760   -3.2918    2.6012 C   0  0  0  0  0  0  0  0  0  0  0  0
   -0.1432   -1.2681    0.0358 O   0  0  0  0  0  0  0  0  0  0  0  0
   -5.9906   -4.6067    1.2254 C   0  0  0  0  0  0  0  0  0  0  0  0
   -6.7937   -3.6490    0.5957 C   0  0  0  0  0  0  0  0  0  0  0  0
   -6.2461   -4.9614    2.4028 O   0  0  0  0  0  0  0  0  0  0  0  0
   -8.0606   -3.5973    0.8271 N   0  0  0  0  0  0  0  0  0  0  0  0
   -6.2514   -2.6867   -0.2746 C   0  0  0  0  0  0  0  0  0  0  0  0
   -4.9026   -2.5559   -0.4780 N   0  0  0  0  0  0  0  0  0  0  0  0
   -4.4628   -1.6146   -1.3395 C   0  0  0  0  0  0  0  0  0  0  0  0
   -5.8858   -0.7861   -1.9355 S   0  0  0  0  0  0  0  0  0  0  0  0
   -7.0152   -1.7604   -1.0141 C   0  0  0  0  0  0  0  0  0  0  0  0
   -3.1891   -1.3604   -1.6742 N   0  0  0  0  0  0  0  0  0  0  0  0
   -8.7428   -4.3909    1.5658 O   0  0  0  0  0  0  0  0  0  0  0  0
   -9.9062   -3.7329    2.0757 C   0  0  0  0  0  0  0  0  0  0  0  0
    0.3266    0.0050   -0.0811 C   0  0  0  0  0  0  0  0  0  0  0  0
   -0.6386    1.1125   -0.0793 C   0  0  0  0  0  0  0  0  0  0  0  0
    1.5516    0.2476   -0.1910 O   0  0  0  0  0  0  0  0  0  0  0  0
   -0.5640   -2.0528    2.7408 O   0  0  0  0  0  0  0  0  0  0  0  0
   -0.5307   -4.0576    3.7087 O   0  0  0  0  0  0  0  0  0  0  0  0
   -4.8039   -4.9393   -0.3537 H   0  0  0  0  0  0  0  0  0  0  0  0
    0.0347   -5.0889   -1.1711 H   0  0  0  0  0  0  0  0  0  0  0  0
   -0.5633   -3.6100   -1.9289 H   0  0  0  0  0  0  0  0  0  0  0  0
    1.3005   -2.4708    0.9456 H   0  0  0  0  0  0  0  0  0  0  0  0
    1.2292   -2.5661   -0.8093 H   0  0  0  0  0  0  0  0  0  0  0  0
   -8.0303   -1.6602   -1.0270 H   0  0  0  0  0  0  0  0  0  0  0  0
   -2.9845   -0.6650   -2.3194 H   0  0  0  0  0  0  0  0  0  0  0  0
   -2.4710   -1.8783   -1.2803 H   0  0  0  0  0  0  0  0  0  0  0  0
  -10.4868   -4.4702    2.6298 H   0  0  0  0  0  0  0  0  0  0  0  0
   -9.6353   -2.9244    2.7607 H   0  0  0  0  0  0  0  0  0  0  0  0
  -10.5304   -3.3375    1.2698 H   0  0  0  0  0  0  0  0  0  0  0  0
   -1.6490    0.7373    0.0946 H   0  0  0  0  0  0  0  0  0  0  0  0
   -0.6165    1.6233   -1.0425 H   0  0  0  0  0  0  0  0  0  0  0  0
   -0.3888    1.8222    0.7107 H   0  0  0  0  0  0  0  0  0  0  0  0
   -0.3212   -3.6403    4.5707 H   0  0  0  0  0  0  0  0  0  0  0  0
  2  1  1  0  0  0  0 
  2  3  1  0  0  0  0 
  3  4  1  0  0  0  0 
  4  5  1  0  0  0  0 
  2  5  1  0  0  0  0 
  5  6  2  0  0  0  0 
  3  7  1  0  0  0  0 
  2  8  1  0  0  0  0 
  3  9  1  0  0  0  0 
  9 10  1  0  0  0  0 
 10 11  1  0  0  0  0 
 11 12  2  0  0  0  0 
  4 12  1  0  0  0  0 
 11 13  1  0  0  0  0 
 12 14  1  0  0  0  0 
 13 15  1  0  0  0  0 
  1 16  1  0  0  0  0 
 16 17  1  0  0  0  0 
 16 18  2  0  0  0  0 
 17 19  2  0  0  0  0 
 17 20  1  0  0  0  0 
 20 21  1  0  0  0  0 
 21 22  2  0  0  0  0 
 22 23  1  0  0  0  0 
 23 24  1  0  0  0  0 
 20 24  2  0  0  0  0 
 22 25  1  0  0  0  0 
 19 26  1  0  0  0  0 
 26 27  1  0  0  0  0 
 15 28  1  0  0  0  0 
 28 29  1  0  0  0  0 
 28 30  2  0  0  0  0 
 14 31  2  0  0  0  0 
 14 32  1  0  0  0  0 
  1 33  1  0  0  0  0 
 10 34  1  0  0  0  0 
 10 35  1  0  0  0  0 
 13 36  1  0  0  0  0 
 13 37  1  0  0  0  0 
 24 38  1  0  0  0  0 
 25 39  1  0  0  0  0 
 25 40  1  0  0  0  0 
 27 41  1  0  0  0  0 
 27 42  1  0  0  0  0 
 27 43  1  0  0  0  0 
 29 44  1  0  0  0  0 
 29 45  1  0  0  0  0 
 29 46  1  0  0  0  0 
 32 47  1  0  0  0  0 
M  END
> <cdk:Title>
cefotaxime

> <Conformer>
1

> <SuperDrugID>
SD000474

$$$$
