iodinated glycerol
  CDK     0628171801

 21 21  0  0  0  0  0  0  0  0999 V2000
   -0.8434    1.3567   -0.2592 C   0  0  2  0  0  0  0  0  0  0  0  0
   -1.6571    2.6364    0.0344 C   0  0  0  0  0  0  0  0  0  0  0  0
   -1.9198    0.1675   -1.6548 I   0  0  0  0  0  0  0  0  0  0  0  0
   -0.5145    0.5410    1.0150 C   0  0  1  0  0  0  0  0  0  0  0  0
   -1.7017    0.1519    1.7197 O   0  0  0  0  0  0  0  0  0  0  0  0
    0.2384   -0.6305    0.6777 O   0  0  0  0  0  0  0  0  0  0  0  0
   -1.5788   -1.2491    1.9587 C   0  0  1  0  0  0  0  0  0  0  0  0
   -0.0964   -1.5539    1.7051 C   0  0  2  0  0  0  0  0  0  0  0  0
   -2.0588   -1.6187    3.3801 C   0  0  2  0  0  0  0  0  0  0  0  0
   -3.4232   -1.2527    3.5516 O   0  0  0  0  0  0  0  0  0  0  0  0
    0.0977    1.6500   -0.7294 H   0  0  0  0  0  0  0  0  0  0  0  0
   -1.7925    3.2102   -0.8838 H   0  0  0  0  0  0  0  0  0  0  0  0
   -1.1338    3.2635    0.7582 H   0  0  0  0  0  0  0  0  0  0  0  0
   -2.6399    2.3806    0.4322 H   0  0  0  0  0  0  0  0  0  0  0  0
    0.0919    1.1592    1.6856 H   0  0  0  0  0  0  0  0  0  0  0  0
   -2.1904   -1.7755    1.2205 H   0  0  0  0  0  0  0  0  0  0  0  0
    0.5235   -1.3693    2.5885 H   0  0  0  0  0  0  0  0  0  0  0  0
    0.0512   -2.5811    1.3665 H   0  0  0  0  0  0  0  0  0  0  0  0
   -1.4639   -1.0923    4.1291 H   0  0  0  0  0  0  0  0  0  0  0  0
   -1.9583   -2.6943    3.5385 H   0  0  0  0  0  0  0  0  0  0  0  0
   -3.6243   -1.4691    4.4886 H   0  0  0  0  0  0  0  0  0  0  0  0
  1  2  1  0  0  0  0 
  1  3  1  0  0  0  0 
  1  4  1  0  0  0  0 
  4  5  1  0  0  0  0 
  4  6  1  0  0  0  0 
  5  7  1  0  0  0  0 
  6  8  1  0  0  0  0 
  7  8  1  0  0  0  0 
  7  9  1  0  0  0  0 
  9 10  1  0  0  0  0 
  1 11  1  0  0  0  0 
  2 12  1  0  0  0  0 
  2 13  1  0  0  0  0 
  2 14  1  0  0  0  0 
  4 15  1  0  0  0  0 
  7 16  1  0  0  0  0 
  8 17  1  0  0  0  0 
  8 18  1  0  0  0  0 
  9 19  1  0  0  0  0 
  9 20  1  0  0  0  0 
 10 21  1  0  0  0  0 
M  END
> <cdk:Title>
iodinated glycerol

> <Conformer>
1

> <SuperDrugID>
SD001288

$$$$
