lactitol
  CDK     0628171801

 47 47  0  0  0  0  0  0  0  0999 V2000
  -24.2669   15.5584   17.3859 O   0  0  0  0  0  0  0  0  0  0  0  0
  -24.1674   16.9787   17.6719 C   0  0  1  0  0  0  0  0  0  0  0  0
  -25.5141   15.0356   16.8789 C   0  0  2  0  0  0  0  0  0  0  0  0
  -22.8275   17.2096   18.4531 C   0  0  1  0  0  0  0  0  0  0  0  0
  -24.3134   17.8504   16.3763 C   0  0  1  0  0  0  0  0  0  0  0  0
  -26.6095   15.3531   17.7684 O   0  0  0  0  0  0  0  0  0  0  0  0
  -25.3999   13.4939   16.7302 C   0  0  2  0  0  0  0  0  0  0  0  0
  -22.7766   16.5407   19.8659 C   0  0  2  0  0  0  0  0  0  0  0  0
  -21.7125   16.7584   17.6821 O   0  0  0  0  0  0  0  0  0  0  0  0
  -24.1842   19.3794   16.5883 C   0  0  2  0  0  0  0  0  0  0  0  0
  -23.3847   17.4263   15.3801 O   0  0  0  0  0  0  0  0  0  0  0  0
  -27.9081   14.9043   17.3064 C   0  0  2  0  0  0  0  0  0  0  0  0
  -24.3453   13.1576   15.8309 O   0  0  0  0  0  0  0  0  0  0  0  0
  -26.7456   12.9085   16.2188 C   0  0  2  0  0  0  0  0  0  0  0  0
  -21.5411   16.9562   20.7084 C   0  0  2  0  0  0  0  0  0  0  0  0
  -22.7575   15.1168   19.7620 O   0  0  0  0  0  0  0  0  0  0  0  0
  -24.6161   20.0823   15.4271 O   0  0  0  0  0  0  0  0  0  0  0  0
  -28.9897   15.4388   18.2808 C   0  0  1  0  0  0  0  0  0  0  0  0
  -27.9350   13.3554   17.1144 C   0  0  1  0  0  0  0  0  0  0  0  0
  -26.6795   11.4854   16.1454 O   0  0  0  0  0  0  0  0  0  0  0  0
  -21.5302   18.3560   20.9683 O   0  0  0  0  0  0  0  0  0  0  0  0
  -28.7267   15.0737   19.6337 O   0  0  0  0  0  0  0  0  0  0  0  0
  -27.8690   12.6636   18.3639 O   0  0  0  0  0  0  0  0  0  0  0  0
  -24.9848   17.2632   18.3413 H   0  0  0  0  0  0  0  0  0  0  0  0
  -25.6947   15.4545   15.8855 H   0  0  0  0  0  0  0  0  0  0  0  0
  -22.7001   18.2818   18.6130 H   0  0  0  0  0  0  0  0  0  0  0  0
  -25.3170   17.6874   15.9786 H   0  0  0  0  0  0  0  0  0  0  0  0
  -25.1626   13.0568   17.7041 H   0  0  0  0  0  0  0  0  0  0  0  0
  -23.6696   16.8245   20.4292 H   0  0  0  0  0  0  0  0  0  0  0  0
  -21.6702   17.3586   16.9093 H   0  0  0  0  0  0  0  0  0  0  0  0
  -23.1474   19.6579   16.7857 H   0  0  0  0  0  0  0  0  0  0  0  0
  -24.8044   19.6948   17.4298 H   0  0  0  0  0  0  0  0  0  0  0  0
  -23.6065   17.9519   14.5817 H   0  0  0  0  0  0  0  0  0  0  0  0
  -28.1162   15.3719   16.3376 H   0  0  0  0  0  0  0  0  0  0  0  0
  -23.5252   13.4711   16.2702 H   0  0  0  0  0  0  0  0  0  0  0  0
  -26.9215   13.2662   15.1994 H   0  0  0  0  0  0  0  0  0  0  0  0
  -20.6181   16.6844   20.1919 H   0  0  0  0  0  0  0  0  0  0  0  0
  -21.5603   16.4402   21.6714 H   0  0  0  0  0  0  0  0  0  0  0  0
  -23.6266   14.8720   19.3818 H   0  0  0  0  0  0  0  0  0  0  0  0
  -24.5247   21.0310   15.6579 H   0  0  0  0  0  0  0  0  0  0  0  0
  -29.0130   16.5307   18.2285 H   0  0  0  0  0  0  0  0  0  0  0  0
  -29.9761   15.0607   17.9969 H   0  0  0  0  0  0  0  0  0  0  0  0
  -28.8685   13.0677   16.6233 H   0  0  0  0  0  0  0  0  0  0  0  0
  -26.5224   11.1873   17.0653 H   0  0  0  0  0  0  0  0  0  0  0  0
  -20.7478   18.4974   21.5428 H   0  0  0  0  0  0  0  0  0  0  0  0
  -29.4580   15.4840   20.1435 H   0  0  0  0  0  0  0  0  0  0  0  0
  -28.7339   12.8255   18.7970 H   0  0  0  0  0  0  0  0  0  0  0  0
  2  1  1  0  0  0  0 
  4  2  1  0  0  0  0 
  2  5  1  0  0  0  0 
  2 24  1  0  0  0  0 
  3  1  1  0  0  0  0 
  3  6  1  0  0  0  0 
  7  3  1  0  0  0  0 
  8  4  1  0  0  0  0 
  4  9  1  0  0  0  0 
  5 10  1  0  0  0  0 
  5 11  1  0  0  0  0 
 12  6  1  0  0  0  0 
  7 13  1  0  0  0  0 
 14  7  1  0  0  0  0 
  8 15  1  0  0  0  0 
  8 16  1  0  0  0  0 
 10 17  1  0  0  0  0 
 12 18  1  0  0  0  0 
 19 12  1  0  0  0  0 
 14 19  1  0  0  0  0 
 14 20  1  0  0  0  0 
 15 21  1  0  0  0  0 
 18 22  1  0  0  0  0 
 19 23  1  0  0  0  0 
  3 25  1  0  0  0  0 
  4 26  1  0  0  0  0 
  5 27  1  0  0  0  0 
  7 28  1  0  0  0  0 
  8 29  1  0  0  0  0 
  9 30  1  0  0  0  0 
 10 31  1  0  0  0  0 
 10 32  1  0  0  0  0 
 11 33  1  0  0  0  0 
 12 34  1  0  0  0  0 
 13 35  1  0  0  0  0 
 14 36  1  0  0  0  0 
 15 37  1  0  0  0  0 
 15 38  1  0  0  0  0 
 16 39  1  0  0  0  0 
 17 40  1  0  0  0  0 
 18 41  1  0  0  0  0 
 18 42  1  0  0  0  0 
 19 43  1  0  0  0  0 
 20 44  1  0  0  0  0 
 21 45  1  0  0  0  0 
 22 46  1  0  0  0  0 
 23 47  1  0  0  0  0 
M  END
> <cdk:Title>
lactitol

> <Conformer>
1

> <SuperDrugID>
SD001357

$$$$
