pantethine
  CDK     0628171801

 78 77  0  0  0  0  0  0  0  0999 V2000
    0.1267    1.8010    1.8936 C   0  0  1  0  0  0  0  0  0  0  0  0
   -0.7104    1.0565    0.9135 C   0  0  0  0  0  0  0  0  0  0  0  0
    1.1430    2.8381    1.2767 C   0  0  1  0  0  0  0  0  0  0  0  0
   -0.7476    2.4105    2.8457 O   0  0  0  0  0  0  0  0  0  0  0  0
   -0.3260   -0.1961    0.5465 N   0  0  0  0  0  0  0  0  0  0  0  0
   -1.7630    1.5679    0.4615 O   0  0  0  0  0  0  0  0  0  0  0  0
    2.1104    2.1406    0.2586 C   0  0  1  0  0  0  0  0  0  0  0  0
    0.3828    3.9898    0.5419 C   0  0  0  0  0  0  0  0  0  0  0  0
    2.0118    3.4783    2.4153 C   0  0  0  0  0  0  0  0  0  0  0  0
   -1.0777   -1.1307   -0.2355 C   0  0  2  0  0  0  0  0  0  0  0  0
    2.8480    1.0781    0.8603 O   0  0  0  0  0  0  0  0  0  0  0  0
   -0.1343   -2.2097   -0.8373 C   0  0  2  0  0  0  0  0  0  0  0  0
   -0.7482   -3.5369   -1.0669 C   0  0  0  0  0  0  0  0  0  0  0  0
   -1.5630   -3.7692   -2.1357 N   0  0  0  0  0  0  0  0  0  0  0  0
   -0.4465   -4.4729   -0.2870 O   0  0  0  0  0  0  0  0  0  0  0  0
   -1.9886   -5.0790   -2.5258 C   0  0  1  0  0  0  0  0  0  0  0  0
   -2.9224   -5.0485   -3.7566 C   0  0  1  0  0  0  0  0  0  0  0  0
   -3.1718   -6.7286   -4.4124 S   0  0  0  0  0  0  0  0  0  0  0  0
   -4.2382   -6.4035   -6.1954 S   0  0  0  0  0  0  0  0  0  0  0  0
   -5.9613   -6.6450   -5.6653 C   0  0  1  0  0  0  0  0  0  0  0  0
   -6.9415   -6.6956   -6.8584 C   0  0  1  0  0  0  0  0  0  0  0  0
   -8.2671   -6.8008   -6.3455 N   0  0  0  0  0  0  0  0  0  0  0  0
   -9.4113   -6.7234   -7.0745 C   0  0  0  0  0  0  0  0  0  0  0  0
  -10.7141   -6.7830   -6.3756 C   0  0  1  0  0  0  0  0  0  0  0  0
   -9.3818   -6.5798   -8.3202 O   0  0  0  0  0  0  0  0  0  0  0  0
  -10.8282   -5.6711   -5.3030 C   0  0  1  0  0  0  0  0  0  0  0  0
  -12.1151   -5.6241   -4.6953 N   0  0  0  0  0  0  0  0  0  0  0  0
  -12.3568   -4.8878   -3.5153 C   0  0  0  0  0  0  0  0  0  0  0  0
  -13.7822   -4.8555   -3.0773 C   0  0  1  0  0  0  0  0  0  0  0  0
  -11.4783   -4.2591   -2.8302 O   0  0  0  0  0  0  0  0  0  0  0  0
  -14.1697   -4.1736   -1.6995 C   0  0  2  0  0  0  0  0  0  0  0  0
  -14.4949   -4.2470   -4.1580 O   0  0  0  0  0  0  0  0  0  0  0  0
  -13.4569   -4.8840   -0.4939 C   0  0  1  0  0  0  0  0  0  0  0  0
  -15.7168   -4.2979   -1.4635 C   0  0  0  0  0  0  0  0  0  0  0  0
  -13.8298   -2.6423   -1.7013 C   0  0  0  0  0  0  0  0  0  0  0  0
  -13.7526   -6.2783   -0.4291 O   0  0  0  0  0  0  0  0  0  0  0  0
    0.6948    1.0645    2.4698 H   0  0  0  0  0  0  0  0  0  0  0  0
   -0.1610    2.7612    3.5477 H   0  0  0  0  0  0  0  0  0  0  0  0
    0.5220   -0.5066    0.8997 H   0  0  0  0  0  0  0  0  0  0  0  0
    1.5525    1.7303   -0.5864 H   0  0  0  0  0  0  0  0  0  0  0  0
    2.8277    2.8620   -0.1420 H   0  0  0  0  0  0  0  0  0  0  0  0
    1.0846    4.7321    0.1546 H   0  0  0  0  0  0  0  0  0  0  0  0
   -0.1974    3.6034   -0.2983 H   0  0  0  0  0  0  0  0  0  0  0  0
   -0.3023    4.4982    1.2234 H   0  0  0  0  0  0  0  0  0  0  0  0
    2.5211    2.7103    3.0014 H   0  0  0  0  0  0  0  0  0  0  0  0
    2.7743    4.1402    1.9975 H   0  0  0  0  0  0  0  0  0  0  0  0
    1.3980    4.0694    3.0981 H   0  0  0  0  0  0  0  0  0  0  0  0
   -1.6161   -0.6252   -1.0430 H   0  0  0  0  0  0  0  0  0  0  0  0
   -1.8071   -1.5899    0.4370 H   0  0  0  0  0  0  0  0  0  0  0  0
    3.4106    0.7188    0.1430 H   0  0  0  0  0  0  0  0  0  0  0  0
    0.7148   -2.3525   -0.1608 H   0  0  0  0  0  0  0  0  0  0  0  0
    0.2714   -1.8447   -1.7853 H   0  0  0  0  0  0  0  0  0  0  0  0
   -1.8219   -3.0177   -2.6930 H   0  0  0  0  0  0  0  0  0  0  0  0
   -1.0928   -5.6553   -2.7748 H   0  0  0  0  0  0  0  0  0  0  0  0
   -2.4998   -5.5755   -1.6942 H   0  0  0  0  0  0  0  0  0  0  0  0
   -3.8911   -4.6332   -3.4726 H   0  0  0  0  0  0  0  0  0  0  0  0
   -2.4806   -4.4269   -4.5391 H   0  0  0  0  0  0  0  0  0  0  0  0
   -6.0299   -7.5798   -5.1018 H   0  0  0  0  0  0  0  0  0  0  0  0
   -6.2311   -5.8159   -5.0061 H   0  0  0  0  0  0  0  0  0  0  0  0
   -6.8432   -5.7853   -7.4580 H   0  0  0  0  0  0  0  0  0  0  0  0
   -6.7207   -7.5620   -7.4874 H   0  0  0  0  0  0  0  0  0  0  0  0
   -8.3585   -6.9243   -5.3871 H   0  0  0  0  0  0  0  0  0  0  0  0
  -11.5300   -6.6783   -7.0975 H   0  0  0  0  0  0  0  0  0  0  0  0
  -10.8144   -7.7575   -5.8907 H   0  0  0  0  0  0  0  0  0  0  0  0
  -10.0738   -5.8471   -4.5290 H   0  0  0  0  0  0  0  0  0  0  0  0
  -10.6354   -4.6975   -5.7630 H   0  0  0  0  0  0  0  0  0  0  0  0
  -12.8597   -6.0774   -5.1252 H   0  0  0  0  0  0  0  0  0  0  0  0
  -14.1102   -5.8991   -3.0344 H   0  0  0  0  0  0  0  0  0  0  0  0
  -15.4382   -4.4413   -3.9837 H   0  0  0  0  0  0  0  0  0  0  0  0
  -12.3743   -4.7758   -0.5527 H   0  0  0  0  0  0  0  0  0  0  0  0
  -13.7734   -4.4378    0.4515 H   0  0  0  0  0  0  0  0  0  0  0  0
  -16.0396   -5.3399   -1.5039 H   0  0  0  0  0  0  0  0  0  0  0  0
  -15.9965   -3.9018   -0.4838 H   0  0  0  0  0  0  0  0  0  0  0  0
  -16.2810   -3.7411   -2.2144 H   0  0  0  0  0  0  0  0  0  0  0  0
  -12.7563   -2.4615   -1.7319 H   0  0  0  0  0  0  0  0  0  0  0  0
  -14.2136   -2.1548   -0.8028 H   0  0  0  0  0  0  0  0  0  0  0  0
  -14.2792   -2.1475   -2.5653 H   0  0  0  0  0  0  0  0  0  0  0  0
  -13.2602   -6.6076    0.3522 H   0  0  0  0  0  0  0  0  0  0  0  0
  1  2  1  0  0  0  0 
  1  3  1  0  0  0  0 
  1  4  1  0  0  0  0 
  2  5  1  0  0  0  0 
  2  6  2  0  0  0  0 
  3  7  1  0  0  0  0 
  3  8  1  0  0  0  0 
  3  9  1  0  0  0  0 
  5 10  1  0  0  0  0 
  7 11  1  0  0  0  0 
 10 12  1  0  0  0  0 
 12 13  1  0  0  0  0 
 13 14  1  0  0  0  0 
 13 15  2  0  0  0  0 
 14 16  1  0  0  0  0 
 16 17  1  0  0  0  0 
 17 18  1  0  0  0  0 
 18 19  1  0  0  0  0 
 19 20  1  0  0  0  0 
 20 21  1  0  0  0  0 
 21 22  1  0  0  0  0 
 22 23  1  0  0  0  0 
 23 24  1  0  0  0  0 
 23 25  2  0  0  0  0 
 24 26  1  0  0  0  0 
 26 27  1  0  0  0  0 
 27 28  1  0  0  0  0 
 29 28  1  0  0  0  0 
 28 30  2  0  0  0  0 
 29 31  1  0  0  0  0 
 29 32  1  0  0  0  0 
 31 33  1  0  0  0  0 
 31 34  1  0  0  0  0 
 31 35  1  0  0  0  0 
 33 36  1  0  0  0  0 
  1 37  1  0  0  0  0 
  4 38  1  0  0  0  0 
  5 39  1  0  0  0  0 
  7 40  1  0  0  0  0 
  7 41  1  0  0  0  0 
  8 42  1  0  0  0  0 
  8 43  1  0  0  0  0 
  8 44  1  0  0  0  0 
  9 45  1  0  0  0  0 
  9 46  1  0  0  0  0 
  9 47  1  0  0  0  0 
 10 48  1  0  0  0  0 
 10 49  1  0  0  0  0 
 11 50  1  0  0  0  0 
 12 51  1  0  0  0  0 
 12 52  1  0  0  0  0 
 14 53  1  0  0  0  0 
 16 54  1  0  0  0  0 
 16 55  1  0  0  0  0 
 17 56  1  0  0  0  0 
 17 57  1  0  0  0  0 
 20 58  1  0  0  0  0 
 20 59  1  0  0  0  0 
 21 60  1  0  0  0  0 
 21 61  1  0  0  0  0 
 22 62  1  0  0  0  0 
 24 63  1  0  0  0  0 
 24 64  1  0  0  0  0 
 26 65  1  0  0  0  0 
 26 66  1  0  0  0  0 
 27 67  1  0  0  0  0 
 29 68  1  0  0  0  0 
 32 69  1  0  0  0  0 
 33 70  1  0  0  0  0 
 33 71  1  0  0  0  0 
 34 72  1  0  0  0  0 
 34 73  1  0  0  0  0 
 34 74  1  0  0  0  0 
 35 75  1  0  0  0  0 
 35 76  1  0  0  0  0 
 35 77  1  0  0  0  0 
 36 78  1  0  0  0  0 
M  END
> <cdk:Title>
pantethine

> <Conformer>
1

> <SuperDrugID>
SD002943

$$$$
