betazole
  CDK     0628171801

 17 17  0  0  0  0  0  0  0  0999 V2000
    0.0237    0.4233   -1.2270 N   0  0  1  0  0  0  0  0  0  0  0  0
    0.4285   -0.1476    0.0591 C   0  0  1  0  0  0  0  0  0  0  0  0
   -0.2993    0.5674    1.2200 C   0  0  1  0  0  0  0  0  0  0  0  0
    0.0993   -0.0028    2.5211 C   0  0  0  0  0  0  0  0  0  0  0  0
   -0.4844   -1.0395    3.1474 N   0  0  0  0  0  0  0  0  0  0  0  0
    0.1180   -1.3205    4.2612 N   0  0  0  0  0  0  0  0  0  0  0  0
    1.1418   -0.4636    4.4125 C   0  0  0  0  0  0  0  0  0  0  0  0
    1.1617    0.3922    3.3235 C   0  0  0  0  0  0  0  0  0  0  0  0
    0.3171    1.4030   -1.2141 H   0  0  0  0  0  0  0  0  0  0  0  0
    0.5815   -0.0476   -1.9441 H   0  0  0  0  0  0  0  0  0  0  0  0
    0.1888   -1.2140    0.0600 H   0  0  0  0  0  0  0  0  0  0  0  0
    1.5115   -0.0261    0.1601 H   0  0  0  0  0  0  0  0  0  0  0  0
   -0.0639    1.6361    1.1994 H   0  0  0  0  0  0  0  0  0  0  0  0
   -1.3803    0.4611    1.0951 H   0  0  0  0  0  0  0  0  0  0  0  0
   -1.2529   -1.5231    2.8070 H   0  0  0  0  0  0  0  0  0  0  0  0
    1.7960   -0.4515    5.1979 H   0  0  0  0  0  0  0  0  0  0  0  0
    1.8273    1.1487    3.1467 H   0  0  0  0  0  0  0  0  0  0  0  0
  1  2  1  0  0  0  0 
  2  3  1  0  0  0  0 
  3  4  1  0  0  0  0 
  4  5  1  0  0  0  0 
  5  6  1  0  0  0  0 
  6  7  2  0  0  0  0 
  7  8  1  0  0  0  0 
  4  8  2  0  0  0  0 
  9  1  1  0  0  0  0 
 10  1  1  0  0  0  0 
 11  2  1  0  0  0  0 
 12  2  1  0  0  0  0 
 13  3  1  0  0  0  0 
 14  3  1  0  0  0  0 
 15  5  1  0  0  0  0 
 16  7  1  0  0  0  0 
 17  8  1  0  0  0  0 
M  END
> <cdk:Title>
betazole

> <Conformer>
1

> <SuperDrugID>
SD000302

$$$$
