pentorex
  CDK     0628171801

 29 29  0  0  0  0  0  0  0  0999 V2000
   -0.6816   -2.3875    0.8818 C   0  0  0  0  0  0  0  0  0  0  0  0
   -0.9881   -1.0556    0.1292 C   0  0  2  0  0  0  0  0  0  0  0  0
   -1.3349   -1.3179   -1.3118 C   0  0  0  0  0  0  0  0  0  0  0  0
   -0.4936   -2.0887   -2.1544 C   0  0  0  0  0  0  0  0  0  0  0  0
   -0.8414   -2.3464   -3.4933 C   0  0  0  0  0  0  0  0  0  0  0  0
   -2.0330   -1.8204   -4.0200 C   0  0  0  0  0  0  0  0  0  0  0  0
   -2.8703   -1.0335   -3.2115 C   0  0  0  0  0  0  0  0  0  0  0  0
   -2.5257   -0.7894   -1.8698 C   0  0  0  0  0  0  0  0  0  0  0  0
    0.1067    0.0725    0.3057 C   0  0  1  0  0  0  0  0  0  0  0  0
   -0.3770    1.4171   -0.3268 C   0  0  0  0  0  0  0  0  0  0  0  0
    0.4561    0.3212    1.8073 C   0  0  0  0  0  0  0  0  0  0  0  0
    1.3657   -0.2872   -0.3787 N   0  0  2  0  0  0  0  0  0  0  0  0
    0.3312   -2.7320    0.6736 H   0  0  0  0  0  0  0  0  0  0  0  0
   -0.7849   -2.2471    1.9586 H   0  0  0  0  0  0  0  0  0  0  0  0
   -1.3791   -3.1739    0.5863 H   0  0  0  0  0  0  0  0  0  0  0  0
   -1.8902   -0.6781    0.6252 H   0  0  0  0  0  0  0  0  0  0  0  0
    0.3828   -2.4770   -1.8001 H   0  0  0  0  0  0  0  0  0  0  0  0
   -0.2268   -2.9165   -4.0823 H   0  0  0  0  0  0  0  0  0  0  0  0
   -2.2916   -2.0106   -4.9899 H   0  0  0  0  0  0  0  0  0  0  0  0
   -3.7294   -0.6428   -3.6011 H   0  0  0  0  0  0  0  0  0  0  0  0
   -3.1493   -0.2117   -1.3027 H   0  0  0  0  0  0  0  0  0  0  0  0
   -0.4604    1.3298   -1.4121 H   0  0  0  0  0  0  0  0  0  0  0  0
   -1.3531    1.7000    0.0744 H   0  0  0  0  0  0  0  0  0  0  0  0
    0.3266    2.2264   -0.1196 H   0  0  0  0  0  0  0  0  0  0  0  0
    1.1038    1.1923    1.9243 H   0  0  0  0  0  0  0  0  0  0  0  0
   -0.4505    0.4904    2.3901 H   0  0  0  0  0  0  0  0  0  0  0  0
    0.9852   -0.5325    2.2335 H   0  0  0  0  0  0  0  0  0  0  0  0
    1.7864   -1.0662    0.1321 H   0  0  0  0  0  0  0  0  0  0  0  0
    2.0014    0.5081   -0.2766 H   0  0  0  0  0  0  0  0  0  0  0  0
  2  1  1  0  0  0  0 
  2  3  1  0  0  0  0 
  3  4  2  0  0  0  0 
  4  5  1  0  0  0  0 
  5  6  2  0  0  0  0 
  6  7  1  0  0  0  0 
  7  8  2  0  0  0  0 
  3  8  1  0  0  0  0 
  2  9  1  0  0  0  0 
  9 10  1  0  0  0  0 
  9 11  1  0  0  0  0 
  9 12  1  0  0  0  0 
  1 13  1  0  0  0  0 
  1 14  1  0  0  0  0 
  1 15  1  0  0  0  0 
  2 16  1  0  0  0  0 
  4 17  1  0  0  0  0 
  5 18  1  0  0  0  0 
  6 19  1  0  0  0  0 
  7 20  1  0  0  0  0 
  8 21  1  0  0  0  0 
 10 22  1  0  0  0  0 
 10 23  1  0  0  0  0 
 10 24  1  0  0  0  0 
 11 25  1  0  0  0  0 
 11 26  1  0  0  0  0 
 11 27  1  0  0  0  0 
 12 28  1  0  0  0  0 
 12 29  1  0  0  0  0 
M  END
> <cdk:Title>
pentorex

> <Conformer>
1

> <SuperDrugID>
SD002951

$$$$
