cyclarbamate
  CDK     0628171801

 51 53  0  0  0  0  0  0  0  0999 V2000
   -2.2646   -4.2335    0.2583 C   0  0  2  0  0  0  0  0  0  0  0  0
   -1.5395   -4.4788    1.4745 O   0  0  0  0  0  0  0  0  0  0  0  0
   -1.3475   -4.3412   -1.0047 C   0  0  2  0  0  0  0  0  0  0  0  0
   -2.0749   -4.5591    2.7285 C   0  0  0  0  0  0  0  0  0  0  0  0
   -0.1387   -3.3444   -0.8969 C   0  0  2  0  0  0  0  0  0  0  0  0
   -2.1717   -4.1034   -2.3077 C   0  0  2  0  0  0  0  0  0  0  0  0
   -0.8331   -5.7954   -1.2227 C   0  0  2  0  0  0  0  0  0  0  0  0
   -1.1963   -4.6902    3.7559 N   0  0  0  0  0  0  0  0  0  0  0  0
   -3.3187   -4.5461    2.8849 O   0  0  0  0  0  0  0  0  0  0  0  0
   -0.5729   -1.9778   -0.8304 O   0  0  0  0  0  0  0  0  0  0  0  0
   -1.4720   -4.8910   -3.4356 C   0  0  2  0  0  0  0  0  0  0  0  0
   -0.5692   -5.9348   -2.7384 C   0  0  2  0  0  0  0  0  0  0  0  0
   -1.4366   -4.7303    5.1021 C   0  0  0  0  0  0  0  0  0  0  0  0
    0.2332   -0.8761   -0.7930 C   0  0  0  0  0  0  0  0  0  0  0  0
   -2.5838   -4.2034    5.7480 C   0  0  0  0  0  0  0  0  0  0  0  0
   -0.4315   -5.3212    5.9008 C   0  0  0  0  0  0  0  0  0  0  0  0
   -0.3892    0.3302   -0.7316 N   0  0  0  0  0  0  0  0  0  0  0  0
    1.4805   -1.0026   -0.7949 O   0  0  0  0  0  0  0  0  0  0  0  0
   -2.7243   -4.2859    7.1457 C   0  0  0  0  0  0  0  0  0  0  0  0
   -0.5787   -5.4221    7.2970 C   0  0  0  0  0  0  0  0  0  0  0  0
    0.1602    1.5837   -0.7330 C   0  0  0  0  0  0  0  0  0  0  0  0
   -1.7255   -4.9015    7.9205 C   0  0  0  0  0  0  0  0  0  0  0  0
   -0.5785    2.5975   -0.0828 C   0  0  0  0  0  0  0  0  0  0  0  0
    1.3805    1.9377   -1.3611 C   0  0  0  0  0  0  0  0  0  0  0  0
   -0.0955    3.9182   -0.0164 C   0  0  0  0  0  0  0  0  0  0  0  0
    1.8537    3.2639   -1.3154 C   0  0  0  0  0  0  0  0  0  0  0  0
    1.1210    4.2527   -0.6353 C   0  0  0  0  0  0  0  0  0  0  0  0
   -2.7017   -3.2310    0.3094 H   0  0  0  0  0  0  0  0  0  0  0  0
   -3.0876   -4.9533    0.1823 H   0  0  0  0  0  0  0  0  0  0  0  0
    0.5218   -3.4480   -1.7630 H   0  0  0  0  0  0  0  0  0  0  0  0
    0.4531   -3.5655   -0.0043 H   0  0  0  0  0  0  0  0  0  0  0  0
   -2.2487   -3.0430   -2.5587 H   0  0  0  0  0  0  0  0  0  0  0  0
   -3.1906   -4.4930   -2.2062 H   0  0  0  0  0  0  0  0  0  0  0  0
   -1.5933   -6.5298   -0.9322 H   0  0  0  0  0  0  0  0  0  0  0  0
    0.0711   -6.0052   -0.6428 H   0  0  0  0  0  0  0  0  0  0  0  0
   -0.2671   -4.7818    3.4913 H   0  0  0  0  0  0  0  0  0  0  0  0
   -0.8702   -4.2127   -4.0511 H   0  0  0  0  0  0  0  0  0  0  0  0
   -2.2111   -5.3774   -4.0819 H   0  0  0  0  0  0  0  0  0  0  0  0
   -0.7980   -6.9503   -3.0760 H   0  0  0  0  0  0  0  0  0  0  0  0
    0.4834   -5.7247   -2.9591 H   0  0  0  0  0  0  0  0  0  0  0  0
   -3.3222   -3.7408    5.2207 H   0  0  0  0  0  0  0  0  0  0  0  0
    0.4182   -5.6931    5.4695 H   0  0  0  0  0  0  0  0  0  0  0  0
   -1.3553    0.2925   -0.6420 H   0  0  0  0  0  0  0  0  0  0  0  0
   -3.5537   -3.8953    7.6001 H   0  0  0  0  0  0  0  0  0  0  0  0
    0.1472   -5.8733    7.8597 H   0  0  0  0  0  0  0  0  0  0  0  0
   -1.8309   -4.9681    8.9359 H   0  0  0  0  0  0  0  0  0  0  0  0
   -1.4752    2.3787    0.3579 H   0  0  0  0  0  0  0  0  0  0  0  0
    1.9281    1.2436   -1.8707 H   0  0  0  0  0  0  0  0  0  0  0  0
   -0.6303    4.6358    0.4805 H   0  0  0  0  0  0  0  0  0  0  0  0
    2.7290    3.5130   -1.7814 H   0  0  0  0  0  0  0  0  0  0  0  0
    1.4643    5.2158   -0.5990 H   0  0  0  0  0  0  0  0  0  0  0  0
  1  2  1  0  0  0  0 
  1  3  1  0  0  0  0 
  2  4  1  0  0  0  0 
  3  5  1  0  0  0  0 
  3  6  1  0  0  0  0 
  3  7  1  0  0  0  0 
  4  8  1  0  0  0  0 
  4  9  2  0  0  0  0 
  5 10  1  0  0  0  0 
  6 11  1  0  0  0  0 
  7 12  1  0  0  0  0 
  8 13  1  0  0  0  0 
 10 14  1  0  0  0  0 
 11 12  1  0  0  0  0 
 13 15  2  0  0  0  0 
 13 16  1  0  0  0  0 
 14 17  1  0  0  0  0 
 14 18  2  0  0  0  0 
 15 19  1  0  0  0  0 
 16 20  2  0  0  0  0 
 17 21  1  0  0  0  0 
 19 22  2  0  0  0  0 
 20 22  1  0  0  0  0 
 21 23  2  0  0  0  0 
 21 24  1  0  0  0  0 
 23 25  1  0  0  0  0 
 24 26  2  0  0  0  0 
 25 27  2  0  0  0  0 
 26 27  1  0  0  0  0 
 28  1  1  0  0  0  0 
 29  1  1  0  0  0  0 
 30  5  1  0  0  0  0 
 31  5  1  0  0  0  0 
 32  6  1  0  0  0  0 
 33  6  1  0  0  0  0 
 34  7  1  0  0  0  0 
 35  7  1  0  0  0  0 
 36  8  1  0  0  0  0 
 37 11  1  0  0  0  0 
 38 11  1  0  0  0  0 
 39 12  1  0  0  0  0 
 40 12  1  0  0  0  0 
 41 15  1  0  0  0  0 
 42 16  1  0  0  0  0 
 43 17  1  0  0  0  0 
 44 19  1  0  0  0  0 
 45 20  1  0  0  0  0 
 46 22  1  0  0  0  0 
 47 23  1  0  0  0  0 
 48 24  1  0  0  0  0 
 49 25  1  0  0  0  0 
 50 26  1  0  0  0  0 
 51 27  1  0  0  0  0 
M  END
> <cdk:Title>
cyclarbamate

> <Conformer>
1

> <SuperDrugID>
SD003180

$$$$
