tyramine
  CDK     0628171801

 21 21  0  0  0  0  0  0  0  0999 V2000
    3.3269   -0.8747   -1.2942 N   0  0  1  0  0  0  0  0  0  0  0  0
    2.6106    0.3355   -0.8869 C   0  0  1  0  0  0  0  0  0  0  0  0
    3.5455    1.3021   -0.1242 C   0  0  1  0  0  0  0  0  0  0  0  0
    2.8188    2.5276    0.3027 C   0  0  0  0  0  0  0  0  0  0  0  0
    2.7513    3.6601   -0.5436 C   0  0  0  0  0  0  0  0  0  0  0  0
    2.0360    4.8073   -0.1510 C   0  0  0  0  0  0  0  0  0  0  0  0
    1.3813    4.8388    1.0934 C   0  0  0  0  0  0  0  0  0  0  0  0
    0.6939    5.9434    1.4717 O   0  0  0  0  0  0  0  0  0  0  0  0
    1.4389    3.7194    1.9431 C   0  0  0  0  0  0  0  0  0  0  0  0
    2.1541    2.5720    1.5510 C   0  0  0  0  0  0  0  0  0  0  0  0
    2.6711   -1.4353   -1.8436 H   0  0  0  0  0  0  0  0  0  0  0  0
    4.0665   -0.5780   -1.9344 H   0  0  0  0  0  0  0  0  0  0  0  0
    2.2223    0.8193   -1.7858 H   0  0  0  0  0  0  0  0  0  0  0  0
    1.7709    0.0421   -0.2533 H   0  0  0  0  0  0  0  0  0  0  0  0
    3.9615    0.7874    0.7465 H   0  0  0  0  0  0  0  0  0  0  0  0
    4.3875    1.5677   -0.7690 H   0  0  0  0  0  0  0  0  0  0  0  0
    3.2199    3.6554   -1.4538 H   0  0  0  0  0  0  0  0  0  0  0  0
    1.9911    5.6185   -0.7719 H   0  0  0  0  0  0  0  0  0  0  0  0
    1.3551    6.4904    1.9446 H   0  0  0  0  0  0  0  0  0  0  0  0
    0.9598    3.7384    2.8460 H   0  0  0  0  0  0  0  0  0  0  0  0
    2.1833    1.7665    2.1822 H   0  0  0  0  0  0  0  0  0  0  0  0
  1  2  1  0  0  0  0 
  2  3  1  0  0  0  0 
  3  4  1  0  0  0  0 
  4  5  2  0  0  0  0 
  5  6  1  0  0  0  0 
  6  7  2  0  0  0  0 
  7  8  1  0  0  0  0 
  7  9  1  0  0  0  0 
  9 10  2  0  0  0  0 
  4 10  1  0  0  0  0 
  1 11  1  0  0  0  0 
  1 12  1  0  0  0  0 
  2 13  1  0  0  0  0 
  2 14  1  0  0  0  0 
  3 15  1  0  0  0  0 
  3 16  1  0  0  0  0 
  5 17  1  0  0  0  0 
  6 18  1  0  0  0  0 
  8 19  1  0  0  0  0 
  9 20  1  0  0  0  0 
 10 21  1  0  0  0  0 
M  END
> <cdk:Title>
tyramine

> <Conformer>
1

> <SuperDrugID>
SD002513

$$$$
