potassium canrenoate
  CDK     0628171802

 56 59  0  0  0  0  0  0  0  0999 V2000
   -1.5414   -4.8821    3.7335 C   0  0  0  0  0  0  0  0  0  0  0  0
   -1.9068   -3.4289    3.2191 C   0  0  2  0  0  0  0  0  0  0  0  0
   -3.3918   -3.2810    2.7346 C   0  0  2  0  0  0  0  0  0  0  0  0
   -1.1232   -3.1384    1.8675 C   0  0  1  0  0  0  0  0  0  0  0  0
   -1.6935   -2.4368    4.4234 C   0  0  2  0  0  0  0  0  0  0  0  0
   -4.4548   -3.5511    3.8523 C   0  0  1  0  0  0  0  0  0  0  0  0
   -3.4200   -4.1112    1.4369 C   0  0  1  0  0  0  0  0  0  0  0  0
   -0.7872   -1.6203    1.6156 C   0  0  2  0  0  0  0  0  0  0  0  0
    0.1418   -3.8145    1.8566 O   0  0  0  0  0  0  0  0  0  0  0  0
   -2.0597   -3.7713    0.7767 C   0  0  1  0  0  0  0  0  0  0  0  0
   -2.7404   -2.6170    5.5637 C   0  0  2  0  0  0  0  0  0  0  0  0
   -4.2119   -2.5386    5.0345 C   0  0  2  0  0  0  0  0  0  0  0  0
   -5.8397   -3.4892    3.3970 C   0  0  0  0  0  0  0  0  0  0  0  0
   -0.0919   -1.2557    0.2720 C   0  0  2  0  0  0  0  0  0  0  0  0
   -5.3688   -2.6140    6.1197 C   0  0  2  0  0  0  0  0  0  0  0  0
   -6.8430   -2.9974    4.1444 C   0  0  0  0  0  0  0  0  0  0  0  0
    0.3618    0.1505    0.2489 C   0  0  0  0  0  0  0  0  0  0  0  0
   -5.3759   -3.9804    6.8915 C   0  0  0  0  0  0  0  0  0  0  0  0
   -6.6780   -2.4653    5.4082 C   0  0  0  0  0  0  0  0  0  0  0  0
   -5.1828   -1.4492    7.1670 C   0  0  1  0  0  0  0  0  0  0  0  0
   -0.5365    1.1619    0.3146 O   0  0  0  0  0  0  0  0  0  0  0  0
    1.5771    0.4400    0.1647 O   0  0  0  0  0  0  0  0  0  0  0  0
   -7.7244   -1.8220    5.9818 C   0  0  0  0  0  0  0  0  0  0  0  0
   -6.4347   -1.1846    8.0417 C   0  0  1  0  0  0  0  0  0  0  0  0
   -7.6771   -1.2437    7.2415 C   0  0  0  0  0  0  0  0  0  0  0  0
   -8.7253   -0.7694    7.7387 O   0  0  0  0  0  0  0  0  0  0  0  0
   -2.2183   -5.2463    4.5031 H   0  0  0  0  0  0  0  0  0  0  0  0
   -1.5520   -5.6143    2.9268 H   0  0  0  0  0  0  0  0  0  0  0  0
   -0.5364   -4.8950    4.1597 H   0  0  0  0  0  0  0  0  0  0  0  0
   -3.5685   -2.2447    2.4183 H   0  0  0  0  0  0  0  0  0  0  0  0
   -1.7792   -1.4020    4.0899 H   0  0  0  0  0  0  0  0  0  0  0  0
   -0.6875   -2.5549    4.8371 H   0  0  0  0  0  0  0  0  0  0  0  0
   -4.3217   -4.5737    4.1993 H   0  0  0  0  0  0  0  0  0  0  0  0
   -3.5021   -5.1789    1.6579 H   0  0  0  0  0  0  0  0  0  0  0  0
   -4.2541   -3.8346    0.7886 H   0  0  0  0  0  0  0  0  0  0  0  0
   -0.1118   -1.2988    2.4137 H   0  0  0  0  0  0  0  0  0  0  0  0
   -1.6964   -1.0197    1.6887 H   0  0  0  0  0  0  0  0  0  0  0  0
    0.4643   -3.7594    0.9336 H   0  0  0  0  0  0  0  0  0  0  0  0
   -2.2400   -3.0856   -0.0519 H   0  0  0  0  0  0  0  0  0  0  0  0
   -1.6230   -4.6802    0.3558 H   0  0  0  0  0  0  0  0  0  0  0  0
   -2.5668   -1.8212    6.2919 H   0  0  0  0  0  0  0  0  0  0  0  0
   -2.5707   -3.5644    6.0753 H   0  0  0  0  0  0  0  0  0  0  0  0
   -4.2909   -1.5356    4.5923 H   0  0  0  0  0  0  0  0  0  0  0  0
   -6.0611   -3.8607    2.5021 H   0  0  0  0  0  0  0  0  0  0  0  0
   -0.7811   -1.3855   -0.5639 H   0  0  0  0  0  0  0  0  0  0  0  0
    0.7646   -1.9100    0.1095 H   0  0  0  0  0  0  0  0  0  0  0  0
   -7.7506   -3.0303    3.7348 H   0  0  0  0  0  0  0  0  0  0  0  0
   -4.4665   -4.0977    7.4840 H   0  0  0  0  0  0  0  0  0  0  0  0
   -5.4484   -4.8306    6.2130 H   0  0  0  0  0  0  0  0  0  0  0  0
   -6.2257   -4.0400    7.5756 H   0  0  0  0  0  0  0  0  0  0  0  0
   -4.3413   -1.6553    7.8321 H   0  0  0  0  0  0  0  0  0  0  0  0
   -4.9556   -0.5175    6.6391 H   0  0  0  0  0  0  0  0  0  0  0  0
   -0.2349    2.0960    0.2953 H   0  0  0  0  0  0  0  0  0  0  0  0
   -8.5916   -1.7479    5.4924 H   0  0  0  0  0  0  0  0  0  0  0  0
   -6.4964   -1.9204    8.8478 H   0  0  0  0  0  0  0  0  0  0  0  0
   -6.3389   -0.1952    8.5014 H   0  0  0  0  0  0  0  0  0  0  0  0
  2  1  1  0  0  0  0 
  2  3  1  0  0  0  0 
  2  4  1  0  0  0  0 
  2  5  1  0  0  0  0 
  3  6  1  0  0  0  0 
  3  7  1  0  0  0  0 
  4  8  1  0  0  0  0 
  4  9  1  0  0  0  0 
  4 10  1  0  0  0  0 
  5 11  1  0  0  0  0 
  6 12  1  0  0  0  0 
  6 13  1  0  0  0  0 
  7 10  1  0  0  0  0 
  8 14  1  0  0  0  0 
 12 11  1  0  0  0  0 
 12 15  1  0  0  0  0 
 13 16  2  0  0  0  0 
 14 17  1  0  0  0  0 
 15 18  1  0  0  0  0 
 15 19  1  0  0  0  0 
 15 20  1  0  0  0  0 
 16 19  1  0  0  0  0 
 17 21  1  0  0  0  0 
 17 22  2  0  0  0  0 
 19 23  2  0  0  0  0 
 20 24  1  0  0  0  0 
 23 25  1  0  0  0  0 
 24 25  1  0  0  0  0 
 25 26  2  0  0  0  0 
 27  1  1  0  0  0  0 
 28  1  1  0  0  0  0 
 29  1  1  0  0  0  0 
  3 30  1  0  0  0  0 
 31  5  1  0  0  0  0 
 32  5  1  0  0  0  0 
  6 33  1  0  0  0  0 
 34  7  1  0  0  0  0 
 35  7  1  0  0  0  0 
 36  8  1  0  0  0  0 
 37  8  1  0  0  0  0 
 38  9  1  0  0  0  0 
 39 10  1  0  0  0  0 
 40 10  1  0  0  0  0 
 41 11  1  0  0  0  0 
 42 11  1  0  0  0  0 
 12 43  1  0  0  0  0 
 44 13  1  0  0  0  0 
 45 14  1  0  0  0  0 
 46 14  1  0  0  0  0 
 47 16  1  0  0  0  0 
 48 18  1  0  0  0  0 
 49 18  1  0  0  0  0 
 50 18  1  0  0  0  0 
 51 20  1  0  0  0  0 
 52 20  1  0  0  0  0 
 53 21  1  0  0  0  0 
 54 23  1  0  0  0  0 
 55 24  1  0  0  0  0 
 56 24  1  0  0  0  0 
M  END
> <cdk:Title>
potassium canrenoate

> <Conformer>
1

> <SuperDrugID>
SD000413

$$$$
