imidapril
  CDK     0628171801

 56 57  0  0  0  0  0  0  0  0999 V2000
    0.0779    1.3808    5.3932 C   0  0  0  0  0  0  0  0  0  0  0  0
    0.3207    2.7642    5.4564 C   0  0  0  0  0  0  0  0  0  0  0  0
    0.1986    3.5492    4.2968 C   0  0  0  0  0  0  0  0  0  0  0  0
   -0.1471    2.9507    3.0714 C   0  0  0  0  0  0  0  0  0  0  0  0
   -0.3710    1.5562    2.9890 C   0  0  0  0  0  0  0  0  0  0  0  0
   -0.2658    0.7798    4.1678 C   0  0  0  0  0  0  0  0  0  0  0  0
   -0.6775    0.9057    1.6868 C   0  0  2  0  0  0  0  0  0  0  0  0
    0.6094    0.3376    1.0247 C   0  0  2  0  0  0  0  0  0  0  0  0
    0.3868   -0.3245   -0.3690 C   0  0  2  0  0  0  0  0  0  0  0  0
   -0.4898   -1.5264   -0.2381 N   0  0  1  0  0  0  0  0  0  0  0  0
   -0.9689   -2.1961   -1.4826 C   0  0  2  0  0  0  0  0  0  0  0  0
   -1.6525   -1.2951   -2.4614 C   0  0  0  0  0  0  0  0  0  0  0  0
   -2.6411   -0.3553   -2.1856 N   0  0  0  0  0  0  0  0  0  0  0  0
   -1.2561   -1.4156   -3.6477 O   0  0  0  0  0  0  0  0  0  0  0  0
   -3.2641   -0.1125   -0.9999 C   0  0  0  0  0  0  0  0  0  0  0  0
   -4.1599    0.8933   -1.0884 N   0  0  0  0  0  0  0  0  0  0  0  0
   -4.2070    1.4131   -2.4028 C   0  0  2  0  0  0  0  0  0  0  0  0
   -3.1925    0.5308   -3.1767 C   0  0  1  0  0  0  0  0  0  0  0  0
   -3.0785   -0.7341    0.0687 O   0  0  0  0  0  0  0  0  0  0  0  0
   -4.9783    1.4068   -0.0267 C   0  0  0  0  0  0  0  0  0  0  0  0
   -2.1782    1.3518   -3.8842 C   0  0  0  0  0  0  0  0  0  0  0  0
   -1.3772    2.0808   -3.2554 O   0  0  0  0  0  0  0  0  0  0  0  0
   -2.1012    1.3100   -5.2345 O   0  0  0  0  0  0  0  0  0  0  0  0
   -0.0770   -2.6234   -1.9539 H   0  0  0  0  0  0  0  0  0  0  0  0
   -1.8688   -3.4156   -1.1588 C   0  0  0  0  0  0  0  0  0  0  0  0
    1.6936   -0.6699   -0.9789 C   0  0  0  0  0  0  0  0  0  0  0  0
   -0.1130    0.4196   -0.9968 H   0  0  0  0  0  0  0  0  0  0  0  0
    2.0097   -0.1998   -2.0979 O   0  0  0  0  0  0  0  0  0  0  0  0
    2.5378   -1.4881   -0.2867 O   0  0  0  0  0  0  0  0  0  0  0  0
    3.8535   -1.8993   -0.6635 C   0  0  2  0  0  0  0  0  0  0  0  0
    4.4260   -2.7895    0.4513 C   0  0  0  0  0  0  0  0  0  0  0  0
    0.1567    0.8079    6.2365 H   0  0  0  0  0  0  0  0  0  0  0  0
    0.5842    3.1975    6.3444 H   0  0  0  0  0  0  0  0  0  0  0  0
    0.3678    4.5543    4.3435 H   0  0  0  0  0  0  0  0  0  0  0  0
   -0.2221    3.5376    2.2384 H   0  0  0  0  0  0  0  0  0  0  0  0
   -0.4316   -0.2304    4.1396 H   0  0  0  0  0  0  0  0  0  0  0  0
   -1.1465    1.6245    1.0087 H   0  0  0  0  0  0  0  0  0  0  0  0
   -1.3969    0.0998    1.8509 H   0  0  0  0  0  0  0  0  0  0  0  0
    1.0539   -0.4025    1.6994 H   0  0  0  0  0  0  0  0  0  0  0  0
    1.3224    1.1632    0.9107 H   0  0  0  0  0  0  0  0  0  0  0  0
    0.0158   -2.2271    0.3113 H   0  0  0  0  0  0  0  0  0  0  0  0
   -3.9298    2.4730   -2.3897 H   0  0  0  0  0  0  0  0  0  0  0  0
   -5.2158    1.3112   -2.8118 H   0  0  0  0  0  0  0  0  0  0  0  0
   -3.7376   -0.0794   -3.9065 H   0  0  0  0  0  0  0  0  0  0  0  0
   -6.0318    1.3181   -0.2993 H   0  0  0  0  0  0  0  0  0  0  0  0
   -4.8261    0.8725    0.9133 H   0  0  0  0  0  0  0  0  0  0  0  0
   -4.7450    2.4599    0.1415 H   0  0  0  0  0  0  0  0  0  0  0  0
   -1.4296    1.8360   -5.7170 H   0  0  0  0  0  0  0  0  0  0  0  0
   -2.0880   -3.9735   -2.0738 H   0  0  0  0  0  0  0  0  0  0  0  0
   -1.3580   -4.0883   -0.4670 H   0  0  0  0  0  0  0  0  0  0  0  0
   -2.8151   -3.1134   -0.7105 H   0  0  0  0  0  0  0  0  0  0  0  0
    4.4932   -1.0232   -0.7963 H   0  0  0  0  0  0  0  0  0  0  0  0
    3.8146   -2.4610   -1.5989 H   0  0  0  0  0  0  0  0  0  0  0  0
    3.8052   -3.6776    0.5751 H   0  0  0  0  0  0  0  0  0  0  0  0
    5.4399   -3.0991    0.1976 H   0  0  0  0  0  0  0  0  0  0  0  0
    4.4503   -2.2429    1.3961 H   0  0  0  0  0  0  0  0  0  0  0  0
  1  2  2  0  0  0  0 
  2  3  1  0  0  0  0 
  3  4  2  0  0  0  0 
  4  5  1  0  0  0  0 
  5  6  2  0  0  0  0 
  1  6  1  0  0  0  0 
  5  7  1  0  0  0  0 
  7  8  1  0  0  0  0 
  8  9  1  0  0  0  0 
  9 10  1  0  0  0  0 
 10 11  1  0  0  0  0 
 11 12  1  0  0  0  0 
 12 13  1  0  0  0  0 
 12 14  2  0  0  0  0 
 15 16  1  0  0  0  0 
 16 17  1  0  0  0  0 
 17 18  1  0  0  0  0 
 13 15  1  0  0  0  0 
 13 18  1  0  0  0  0 
 15 19  2  0  0  0  0 
 16 20  1  0  0  0  0 
 18 21  1  0  0  0  0 
 21 22  2  0  0  0  0 
 21 23  1  0  0  0  0 
 11 24  1  0  0  0  0 
 11 25  1  0  0  0  0 
  9 26  1  0  0  0  0 
  9 27  1  0  0  0  0 
 26 28  2  0  0  0  0 
 26 29  1  0  0  0  0 
 29 30  1  0  0  0  0 
 30 31  1  0  0  0  0 
  1 32  1  0  0  0  0 
  2 33  1  0  0  0  0 
  3 34  1  0  0  0  0 
  4 35  1  0  0  0  0 
  6 36  1  0  0  0  0 
  7 37  1  0  0  0  0 
  7 38  1  0  0  0  0 
  8 39  1  0  0  0  0 
  8 40  1  0  0  0  0 
 10 41  1  0  0  0  0 
 17 42  1  0  0  0  0 
 17 43  1  0  0  0  0 
 18 44  1  0  0  0  0 
 20 45  1  0  0  0  0 
 20 46  1  0  0  0  0 
 20 47  1  0  0  0  0 
 23 48  1  0  0  0  0 
 25 49  1  0  0  0  0 
 25 50  1  0  0  0  0 
 25 51  1  0  0  0  0 
 30 52  1  0  0  0  0 
 30 53  1  0  0  0  0 
 31 54  1  0  0  0  0 
 31 55  1  0  0  0  0 
 31 56  1  0  0  0  0 
M  END
> <cdk:Title>
imidapril

> <Conformer>
1

> <SuperDrugID>
SD001264

$$$$
