amitriptyline
  CDK     0628171801

 44 46  0  0  0  0  0  0  0  0999 V2000
   -1.8299   -1.9560   -0.1041 C   0  0  0  0  0  0  0  0  0  0  0  0
   -3.0676   -1.9942   -0.6513 C   0  0  0  0  0  0  0  0  0  0  0  0
   -3.9336   -0.8956   -0.6952 C   0  0  0  0  0  0  0  0  0  0  0  0
   -3.4913   -3.1626   -1.2802 C   0  0  0  0  0  0  0  0  0  0  0  0
   -4.3828   -0.3015   -1.9167 C   0  0  0  0  0  0  0  0  0  0  0  0
   -4.3984   -0.3674    0.5374 C   0  0  0  0  0  0  0  0  0  0  0  0
   -3.5623   -3.2174   -2.6992 C   0  0  0  0  0  0  0  0  0  0  0  0
   -3.8199   -4.3085   -0.5185 C   0  0  0  0  0  0  0  0  0  0  0  0
   -4.0656   -0.7927   -3.3012 C   0  0  1  0  0  0  0  0  0  0  0  0
   -5.2194    0.8444   -1.8435 C   0  0  0  0  0  0  0  0  0  0  0  0
   -5.2243    0.7666    0.5822 C   0  0  0  0  0  0  0  0  0  0  0  0
   -3.1586   -2.0361   -3.5120 C   0  0  2  0  0  0  0  0  0  0  0  0
   -3.9861   -4.4148   -3.3227 C   0  0  0  0  0  0  0  0  0  0  0  0
   -4.2196   -5.4974   -1.1552 C   0  0  0  0  0  0  0  0  0  0  0  0
   -5.6343    1.3752   -0.6113 C   0  0  0  0  0  0  0  0  0  0  0  0
   -4.3083   -5.5475   -2.5559 C   0  0  0  0  0  0  0  0  0  0  0  0
   -1.1689   -0.7563    0.4059 C   0  0  2  0  0  0  0  0  0  0  0  0
    0.2835   -0.9758    0.9172 C   0  0  2  0  0  0  0  0  0  0  0  0
    1.1913   -1.6830   -0.0480 N   0  0  1  0  0  0  0  0  0  0  0  0
    1.5050   -0.8981   -1.2787 C   0  0  0  0  0  0  0  0  0  0  0  0
    2.4166   -2.2151    0.6150 C   0  0  0  0  0  0  0  0  0  0  0  0
   -1.3004   -2.8000   -0.0839 H   0  0  0  0  0  0  0  0  0  0  0  0
   -4.1387   -0.8044    1.4261 H   0  0  0  0  0  0  0  0  0  0  0  0
   -3.7672   -4.2882    0.5034 H   0  0  0  0  0  0  0  0  0  0  0  0
   -5.0178   -1.0006   -3.8016 H   0  0  0  0  0  0  0  0  0  0  0  0
   -3.5863    0.0314   -3.8406 H   0  0  0  0  0  0  0  0  0  0  0  0
   -5.5414    1.3083   -2.6981 H   0  0  0  0  0  0  0  0  0  0  0  0
   -5.5252    1.1468    1.4842 H   0  0  0  0  0  0  0  0  0  0  0  0
   -3.1662   -2.2772   -4.5783 H   0  0  0  0  0  0  0  0  0  0  0  0
   -2.1261   -1.7806   -3.2589 H   0  0  0  0  0  0  0  0  0  0  0  0
   -4.0556   -4.4759   -4.3431 H   0  0  0  0  0  0  0  0  0  0  0  0
   -4.4466   -6.3246   -0.5980 H   0  0  0  0  0  0  0  0  0  0  0  0
   -6.2354    2.2020   -0.5804 H   0  0  0  0  0  0  0  0  0  0  0  0
   -4.6026   -6.4105   -3.0175 H   0  0  0  0  0  0  0  0  0  0  0  0
   -1.7448   -0.3354    1.2318 H   0  0  0  0  0  0  0  0  0  0  0  0
   -1.1479   -0.0085   -0.3901 H   0  0  0  0  0  0  0  0  0  0  0  0
    0.2037   -1.5542    1.8441 H   0  0  0  0  0  0  0  0  0  0  0  0
    0.7097   -0.0019    1.1823 H   0  0  0  0  0  0  0  0  0  0  0  0
    2.1489   -1.4687   -1.9527 H   0  0  0  0  0  0  0  0  0  0  0  0
    0.5896   -0.6762   -1.8272 H   0  0  0  0  0  0  0  0  0  0  0  0
    2.0040    0.0438   -1.0351 H   0  0  0  0  0  0  0  0  0  0  0  0
    2.1442   -2.8892    1.4299 H   0  0  0  0  0  0  0  0  0  0  0  0
    3.0173   -2.7903   -0.0907 H   0  0  0  0  0  0  0  0  0  0  0  0
    3.0285   -1.4062    1.0203 H   0  0  0  0  0  0  0  0  0  0  0  0
  1  2  2  0  0  0  0 
  2  3  1  0  0  0  0 
  2  4  1  0  0  0  0 
  3  5  2  0  0  0  0 
  3  6  1  0  0  0  0 
  4  7  2  0  0  0  0 
  4  8  1  0  0  0  0 
  5  9  1  0  0  0  0 
  5 10  1  0  0  0  0 
  6 11  2  0  0  0  0 
  7 12  1  0  0  0  0 
  7 13  1  0  0  0  0 
  8 14  2  0  0  0  0 
  9 12  1  0  0  0  0 
 10 15  2  0  0  0  0 
 11 15  1  0  0  0  0 
 13 16  2  0  0  0  0 
 14 16  1  0  0  0  0 
  1 17  1  0  0  0  0 
 17 18  1  0  0  0  0 
 18 19  1  0  0  0  0 
 19 20  1  0  0  0  0 
 19 21  1  0  0  0  0 
  1 22  1  0  0  0  0 
  6 23  1  0  0  0  0 
  8 24  1  0  0  0  0 
  9 25  1  0  0  0  0 
  9 26  1  0  0  0  0 
 10 27  1  0  0  0  0 
 11 28  1  0  0  0  0 
 12 29  1  0  0  0  0 
 12 30  1  0  0  0  0 
 13 31  1  0  0  0  0 
 14 32  1  0  0  0  0 
 15 33  1  0  0  0  0 
 16 34  1  0  0  0  0 
 17 35  1  0  0  0  0 
 17 36  1  0  0  0  0 
 18 37  1  0  0  0  0 
 18 38  1  0  0  0  0 
 20 39  1  0  0  0  0 
 20 40  1  0  0  0  0 
 20 41  1  0  0  0  0 
 21 42  1  0  0  0  0 
 21 43  1  0  0  0  0 
 21 44  1  0  0  0  0 
M  END
> <cdk:Title>
amitriptyline

> <Conformer>
1

> <SuperDrugID>
SD000145

$$$$
