ethylmethylthiambutene
  CDK     0628171801

 37 38  0  0  0  0  0  0  0  0999 V2000
   -3.9578    0.1755    1.4638 C   0  0  0  0  0  0  0  0  0  0  0  0
   -2.8138   -0.2092    0.8502 C   0  0  0  0  0  0  0  0  0  0  0  0
   -5.0753    0.6158    0.7608 C   0  0  0  0  0  0  0  0  0  0  0  0
   -4.0414    0.1457    2.8605 C   0  0  0  0  0  0  0  0  0  0  0  0
   -2.5118   -0.1925   -0.5877 C   0  0  2  0  0  0  0  0  0  0  0  0
   -5.7610    1.8295    0.9382 C   0  0  0  0  0  0  0  0  0  0  0  0
   -5.9490   -0.2512   -0.4935 S   0  0  0  0  0  0  0  0  0  0  0  0
   -5.1779   -0.0927    3.6539 C   0  0  0  0  0  0  0  0  0  0  0  0
   -2.7304    0.4405    3.9966 S   0  0  0  0  0  0  0  0  0  0  0  0
   -2.9539   -1.4646   -1.2555 N   0  0  0  0  0  0  0  0  0  0  0  0
   -1.0127    0.1295   -0.8601 C   0  0  0  0  0  0  0  0  0  0  0  0
   -6.8784    2.0315    0.1095 C   0  0  0  0  0  0  0  0  0  0  0  0
   -7.1687    0.9781   -0.7587 C   0  0  0  0  0  0  0  0  0  0  0  0
   -4.9916   -0.0133    5.0452 C   0  0  0  0  0  0  0  0  0  0  0  0
   -3.6936    0.2925    5.4502 C   0  0  0  0  0  0  0  0  0  0  0  0
   -2.5030   -2.7748   -0.6814 C   0  0  1  0  0  0  0  0  0  0  0  0
   -3.0806   -1.4284   -2.7398 C   0  0  0  0  0  0  0  0  0  0  0  0
   -3.7080   -3.4800   -0.0266 C   0  0  0  0  0  0  0  0  0  0  0  0
   -2.0831   -0.5673    1.4240 H   0  0  0  0  0  0  0  0  0  0  0  0
   -3.0656    0.6381   -1.0331 H   0  0  0  0  0  0  0  0  0  0  0  0
   -5.4720    2.5281    1.6260 H   0  0  0  0  0  0  0  0  0  0  0  0
   -6.0910   -0.3100    3.2519 H   0  0  0  0  0  0  0  0  0  0  0  0
   -0.8345    0.2623   -1.9297 H   0  0  0  0  0  0  0  0  0  0  0  0
   -0.7304    1.0575   -0.3564 H   0  0  0  0  0  0  0  0  0  0  0  0
   -0.3678   -0.6746   -0.5003 H   0  0  0  0  0  0  0  0  0  0  0  0
   -7.4356    2.8881    0.1407 H   0  0  0  0  0  0  0  0  0  0  0  0
   -7.9468    0.9257   -1.4179 H   0  0  0  0  0  0  0  0  0  0  0  0
   -5.7488   -0.1691    5.7111 H   0  0  0  0  0  0  0  0  0  0  0  0
   -3.3653    0.4061    6.4103 H   0  0  0  0  0  0  0  0  0  0  0  0
   -2.0759   -3.4303   -1.4463 H   0  0  0  0  0  0  0  0  0  0  0  0
   -1.7285   -2.6385    0.0768 H   0  0  0  0  0  0  0  0  0  0  0  0
   -3.7335   -2.2329   -3.0819 H   0  0  0  0  0  0  0  0  0  0  0  0
   -3.5183   -0.4874   -3.0769 H   0  0  0  0  0  0  0  0  0  0  0  0
   -2.1026   -1.5455   -3.2082 H   0  0  0  0  0  0  0  0  0  0  0  0
   -3.3710   -4.3369    0.5562 H   0  0  0  0  0  0  0  0  0  0  0  0
   -4.2352   -2.7949    0.6379 H   0  0  0  0  0  0  0  0  0  0  0  0
   -4.4017   -3.8285   -0.7924 H   0  0  0  0  0  0  0  0  0  0  0  0
  1  2  2  0  0  0  0 
  1  3  1  0  0  0  0 
  1  4  1  0  0  0  0 
  5  2  1  0  0  0  0 
  3  6  2  0  0  0  0 
  3  7  1  0  0  0  0 
  4  8  2  0  0  0  0 
  4  9  1  0  0  0  0 
  5 10  1  0  0  0  0 
  5 11  1  0  0  0  0 
  6 12  1  0  0  0  0 
  7 13  1  0  0  0  0 
  8 14  1  0  0  0  0 
  9 15  1  0  0  0  0 
 10 16  1  0  0  0  0 
 10 17  1  0  0  0  0 
 12 13  2  0  0  0  0 
 14 15  2  0  0  0  0 
 16 18  1  0  0  0  0 
  2 19  1  0  0  0  0 
  5 20  1  0  0  0  0 
  6 21  1  0  0  0  0 
  8 22  1  0  0  0  0 
 11 23  1  0  0  0  0 
 11 24  1  0  0  0  0 
 11 25  1  0  0  0  0 
 12 26  1  0  0  0  0 
 13 27  1  0  0  0  0 
 14 28  1  0  0  0  0 
 15 29  1  0  0  0  0 
 16 30  1  0  0  0  0 
 16 31  1  0  0  0  0 
 17 32  1  0  0  0  0 
 17 33  1  0  0  0  0 
 17 34  1  0  0  0  0 
 18 35  1  0  0  0  0 
 18 36  1  0  0  0  0 
 18 37  1  0  0  0  0 
M  END
> <cdk:Title>
ethylmethylthiambutene

> <Conformer>
1

> <SuperDrugID>
SD002774

$$$$
