anagliptin
  CDK     0628171802

 53 55  0  0  0  0  0  0  0  0999 V2000
    0.9990   -2.3887    0.0334 C   0  0  0  0  0  0  0  0  0  0  0  0
    1.5075   -1.1541   -0.4555 C   0  0  0  0  0  0  0  0  0  0  0  0
    2.8463   -1.1828   -0.9387 C   0  0  0  0  0  0  0  0  0  0  0  0
    3.5976   -2.3155   -0.9068 N   0  0  0  0  0  0  0  0  0  0  0  0
    3.0582   -3.4511   -0.4102 C   0  0  0  0  0  0  0  0  0  0  0  0
    1.7907   -3.4942    0.0388 N   0  0  0  0  0  0  0  0  0  0  0  0
    1.4957   -4.6909    0.4510 N   0  0  0  0  0  0  0  0  0  0  0  0
    2.5812   -5.4790    0.2975 C   0  0  0  0  0  0  0  0  0  0  0  0
    3.6049   -4.7123   -0.2525 C   0  0  0  0  0  0  0  0  0  0  0  0
    2.6503   -6.9048    0.6536 C   0  0  0  0  0  0  0  0  0  0  0  0
    0.7458    0.0555   -0.4454 C   0  0  0  0  0  0  0  0  0  0  0  0
   -0.5122    0.1200    0.0840 N   0  0  0  0  0  0  0  0  0  0  0  0
    1.2436    1.1047   -0.9231 O   0  0  0  0  0  0  0  0  0  0  0  0
   -1.3066    1.3091    0.1819 C   0  0  2  0  0  0  0  0  0  0  0  0
   -2.7427    1.0619    0.7586 C   0  0  2  0  0  0  0  0  0  0  0  0
   -3.4130    0.1000   -0.1765 N   0  0  1  0  0  0  0  0  0  0  0  0
   -3.4823    2.4384    0.8459 C   0  0  0  0  0  0  0  0  0  0  0  0
   -2.6447    0.4390    2.1869 C   0  0  0  0  0  0  0  0  0  0  0  0
   -4.8850   -0.0696   -0.1299 C   0  0  2  0  0  0  0  0  0  0  0  0
   -5.3020   -1.2321   -0.9536 C   0  0  0  0  0  0  0  0  0  0  0  0
   -5.2320   -2.5527   -0.5318 N   0  0  0  0  0  0  0  0  0  0  0  0
   -5.7593   -0.9774   -2.0947 O   0  0  0  0  0  0  0  0  0  0  0  0
   -5.7642   -3.6658   -1.2830 C   0  0  1  0  0  0  0  0  0  0  0  0
   -5.4411   -4.9326   -0.4499 C   0  0  1  0  0  0  0  0  0  0  0  0
   -4.3609   -4.4736    0.5380 C   0  0  2  0  0  0  0  0  0  0  0  0
   -4.6168   -2.9651    0.6945 C   0  0  1  0  0  0  0  0  0  0  0  0
   -7.1166   -3.5663   -1.5434 C   0  0  0  0  0  0  0  0  0  0  0  0
   -8.2416   -3.4875   -1.7645 N   0  0  0  0  0  0  0  0  0  0  0  0
    0.0461   -2.4674    0.3932 H   0  0  0  0  0  0  0  0  0  0  0  0
    3.2846   -0.3431   -1.3209 H   0  0  0  0  0  0  0  0  0  0  0  0
    4.5533   -5.0138   -0.4876 H   0  0  0  0  0  0  0  0  0  0  0  0
    1.9798   -7.4764    0.0096 H   0  0  0  0  0  0  0  0  0  0  0  0
    2.3482   -7.0411    1.6933 H   0  0  0  0  0  0  0  0  0  0  0  0
    3.6659   -7.2878    0.5320 H   0  0  0  0  0  0  0  0  0  0  0  0
   -0.8908   -0.6939    0.4445 H   0  0  0  0  0  0  0  0  0  0  0  0
   -1.3917    1.7568   -0.8136 H   0  0  0  0  0  0  0  0  0  0  0  0
   -0.7709    2.0179    0.8200 H   0  0  0  0  0  0  0  0  0  0  0  0
   -3.1965    0.4059   -1.1262 H   0  0  0  0  0  0  0  0  0  0  0  0
   -4.4594    2.3256    1.3205 H   0  0  0  0  0  0  0  0  0  0  0  0
   -3.6325    2.8611   -0.1501 H   0  0  0  0  0  0  0  0  0  0  0  0
   -2.9083    3.1534    1.4402 H   0  0  0  0  0  0  0  0  0  0  0  0
   -3.6349    0.3287    2.6316 H   0  0  0  0  0  0  0  0  0  0  0  0
   -2.0479    1.0744    2.8459 H   0  0  0  0  0  0  0  0  0  0  0  0
   -2.1806   -0.5482    2.1524 H   0  0  0  0  0  0  0  0  0  0  0  0
   -5.3550    0.8391   -0.5186 H   0  0  0  0  0  0  0  0  0  0  0  0
   -5.2346   -0.2114    0.8937 H   0  0  0  0  0  0  0  0  0  0  0  0
   -5.2429   -3.7307   -2.2432 H   0  0  0  0  0  0  0  0  0  0  0  0
   -6.3073   -5.2996    0.1130 H   0  0  0  0  0  0  0  0  0  0  0  0
   -5.0706   -5.7429   -1.0839 H   0  0  0  0  0  0  0  0  0  0  0  0
   -3.3681   -4.6530    0.1110 H   0  0  0  0  0  0  0  0  0  0  0  0
   -4.4345   -4.9976    1.4949 H   0  0  0  0  0  0  0  0  0  0  0  0
   -3.6652   -2.4598    0.8720 H   0  0  0  0  0  0  0  0  0  0  0  0
   -5.2931   -2.7700    1.5310 H   0  0  0  0  0  0  0  0  0  0  0  0
  1  2  2  0  0  0  0 
  1  6  1  0  0  0  0 
  2  3  1  0  0  0  0 
  3  4  2  0  0  0  0 
  4  5  1  0  0  0  0 
  5  6  1  0  0  0  0 
  7  8  2  0  0  0  0 
  8  9  1  0  0  0  0 
  7  6  1  0  0  0  0 
  9  5  2  0  0  0  0 
  8 10  1  0  0  0  0 
  2 11  1  0  0  0  0 
 11 12  1  0  0  0  0 
 11 13  2  0  0  0  0 
 12 14  1  0  0  0  0 
 14 15  1  0  0  0  0 
 15 16  1  0  0  0  0 
 15 17  1  0  0  0  0 
 15 18  1  0  0  0  0 
 16 19  1  0  0  0  0 
 19 20  1  0  0  0  0 
 20 21  1  0  0  0  0 
 20 22  2  0  0  0  0 
 23 24  1  0  0  0  0 
 24 25  1  0  0  0  0 
 25 26  1  0  0  0  0 
 21 23  1  0  0  0  0 
 21 26  1  0  0  0  0 
 23 27  1  0  0  0  0 
 27 28  3  0  0  0  0 
  1 29  1  0  0  0  0 
  3 30  1  0  0  0  0 
  9 31  1  0  0  0  0 
 10 32  1  0  0  0  0 
 10 33  1  0  0  0  0 
 10 34  1  0  0  0  0 
 12 35  1  0  0  0  0 
 14 36  1  0  0  0  0 
 14 37  1  0  0  0  0 
 16 38  1  0  0  0  0 
 17 39  1  0  0  0  0 
 17 40  1  0  0  0  0 
 17 41  1  0  0  0  0 
 18 42  1  0  0  0  0 
 18 43  1  0  0  0  0 
 18 44  1  0  0  0  0 
 19 45  1  0  0  0  0 
 19 46  1  0  0  0  0 
 23 47  1  0  0  0  0 
 24 48  1  0  0  0  0 
 24 49  1  0  0  0  0 
 25 50  1  0  0  0  0 
 25 51  1  0  0  0  0 
 26 52  1  0  0  0  0 
 26 53  1  0  0  0  0 
M  END
> <cdk:Title>
anagliptin

> <Conformer>
1

> <SuperDrugID>
SD003834

$$$$
