fluocinonide
  CDK     0628171801

 67 71  0  0  0  0  0  0  0  0999 V2000
   -2.9073   -4.9160   -1.3559 C   0  0  0  0  0  0  0  0  0  0  0  0
   -3.0725   -5.9176   -0.4782 C   0  0  0  0  0  0  0  0  0  0  0  0
   -4.2931   -6.5483   -0.3509 C   0  0  0  0  0  0  0  0  0  0  0  0
   -5.3776   -6.1592   -1.1180 C   0  0  0  0  0  0  0  0  0  0  0  0
   -5.2929   -5.1490   -2.0163 C   0  0  0  0  0  0  0  0  0  0  0  0
   -3.9966   -4.4121   -2.2313 C   0  0  1  0  0  0  0  0  0  0  0  0
   -6.4813   -4.7059   -2.7694 C   0  0  2  0  0  0  0  0  0  0  0  0
   -6.7593   -3.2015   -2.5155 C   0  0  2  0  0  0  0  0  0  0  0  0
   -5.5006   -2.3003   -2.7157 C   0  0  2  0  0  0  0  0  0  0  0  0
   -4.2667   -2.8692   -1.9011 C   0  0  2  0  0  0  0  0  0  0  0  0
   -5.7898   -0.8182   -2.2976 C   0  0  1  0  0  0  0  0  0  0  0  0
   -4.5956    0.1658   -2.5190 C   0  0  1  0  0  0  0  0  0  0  0  0
   -3.3871   -0.3898   -1.6825 C   0  0  1  0  0  0  0  0  0  0  0  0
   -3.0331   -1.8849   -1.9917 C   0  0  2  0  0  0  0  0  0  0  0  0
   -4.4199   -7.4785    0.4801 O   0  0  0  0  0  0  0  0  0  0  0  0
   -2.3725   -1.9701   -3.2496 O   0  0  0  0  0  0  0  0  0  0  0  0
   -4.6120   -2.8331   -0.5537 F   0  0  0  0  0  0  0  0  0  0  0  0
   -4.1620    0.3383   -4.0298 C   0  0  0  0  0  0  0  0  0  0  0  0
   -3.5038   -4.7113   -3.6981 C   0  0  0  0  0  0  0  0  0  0  0  0
   -6.9983   -0.0648   -2.8890 C   0  0  1  0  0  0  0  0  0  0  0  0
   -6.7209    1.4195   -2.5178 C   0  0  2  0  0  0  0  0  0  0  0  0
   -5.2512    1.5103   -2.0029 C   0  0  1  0  0  0  0  0  0  0  0  0
   -7.5730    1.8491   -1.4544 O   0  0  0  0  0  0  0  0  0  0  0  0
   -6.7578    1.9928   -0.2855 C   0  0  1  0  0  0  0  0  0  0  0  0
   -5.4389    1.5022   -0.5770 O   0  0  0  0  0  0  0  0  0  0  0  0
   -4.4346    2.7404   -2.2694 C   0  0  0  0  0  0  0  0  0  0  0  0
   -3.2970    2.7948   -1.7445 O   0  0  0  0  0  0  0  0  0  0  0  0
   -6.7195    3.4892    0.1242 C   0  0  0  0  0  0  0  0  0  0  0  0
   -7.3511    1.1427    0.8668 C   0  0  0  0  0  0  0  0  0  0  0  0
   -4.8069    3.8850   -3.1289 C   0  0  1  0  0  0  0  0  0  0  0  0
   -4.1492    3.7320   -4.3889 O   0  0  0  0  0  0  0  0  0  0  0  0
   -4.7136    3.5621   -5.6179 C   0  0  0  0  0  0  0  0  0  0  0  0
   -3.8332    3.4252   -6.7832 C   0  0  0  0  0  0  0  0  0  0  0  0
   -5.9555    3.5016   -5.7745 O   0  0  0  0  0  0  0  0  0  0  0  0
   -7.6506   -5.3890   -2.4946 F   0  0  0  0  0  0  0  0  0  0  0  0
   -2.0043   -4.5029   -1.4142 H   0  0  0  0  0  0  0  0  0  0  0  0
   -2.3066   -6.2086    0.0853 H   0  0  0  0  0  0  0  0  0  0  0  0
   -6.2339   -6.6438   -0.9779 H   0  0  0  0  0  0  0  0  0  0  0  0
   -6.3029   -4.8641   -3.8334 H   0  0  0  0  0  0  0  0  0  0  0  0
   -7.1365   -3.0820   -1.4941 H   0  0  0  0  0  0  0  0  0  0  0  0
   -7.5482   -2.8759   -3.1998 H   0  0  0  0  0  0  0  0  0  0  0  0
   -5.2689   -2.3169   -3.7811 H   0  0  0  0  0  0  0  0  0  0  0  0
   -6.0023   -0.8753   -1.2222 H   0  0  0  0  0  0  0  0  0  0  0  0
   -2.4993    0.2261   -1.8476 H   0  0  0  0  0  0  0  0  0  0  0  0
   -3.6166   -0.3153   -0.6158 H   0  0  0  0  0  0  0  0  0  0  0  0
   -2.2831   -2.1800   -1.2531 H   0  0  0  0  0  0  0  0  0  0  0  0
   -1.6046   -1.3656   -3.1779 H   0  0  0  0  0  0  0  0  0  0  0  0
   -3.9819   -0.6095   -4.5309 H   0  0  0  0  0  0  0  0  0  0  0  0
   -3.2413    0.9235   -4.0964 H   0  0  0  0  0  0  0  0  0  0  0  0
   -4.9220    0.8571   -4.6145 H   0  0  0  0  0  0  0  0  0  0  0  0
   -3.5089   -5.7884   -3.8939 H   0  0  0  0  0  0  0  0  0  0  0  0
   -4.1341   -4.2387   -4.4508 H   0  0  0  0  0  0  0  0  0  0  0  0
   -2.4835   -4.3654   -3.8736 H   0  0  0  0  0  0  0  0  0  0  0  0
   -7.0340   -0.1962   -3.9746 H   0  0  0  0  0  0  0  0  0  0  0  0
   -7.9429   -0.4193   -2.4646 H   0  0  0  0  0  0  0  0  0  0  0  0
   -6.9167    2.0307   -3.3992 H   0  0  0  0  0  0  0  0  0  0  0  0
   -7.7047    3.8160    0.4630 H   0  0  0  0  0  0  0  0  0  0  0  0
   -5.9996    3.6423    0.9305 H   0  0  0  0  0  0  0  0  0  0  0  0
   -6.4322    4.1150   -0.7192 H   0  0  0  0  0  0  0  0  0  0  0  0
   -8.3715    1.4618    1.0896 H   0  0  0  0  0  0  0  0  0  0  0  0
   -6.7449    1.2518    1.7689 H   0  0  0  0  0  0  0  0  0  0  0  0
   -7.3749    0.0874    0.5931 H   0  0  0  0  0  0  0  0  0  0  0  0
   -5.8844    3.9940   -3.2353 H   0  0  0  0  0  0  0  0  0  0  0  0
   -4.4465    4.8111   -2.6788 H   0  0  0  0  0  0  0  0  0  0  0  0
   -2.7875    3.5230   -6.4855 H   0  0  0  0  0  0  0  0  0  0  0  0
   -3.9781    2.4446   -7.2381 H   0  0  0  0  0  0  0  0  0  0  0  0
   -4.0655    4.2014   -7.5134 H   0  0  0  0  0  0  0  0  0  0  0  0
  1  2  2  0  0  0  0 
  2  3  1  0  0  0  0 
  3  4  1  0  0  0  0 
  4  5  2  0  0  0  0 
  6  5  1  0  0  0  0 
  6  1  1  0  0  0  0 
  7  5  1  0  0  0  0 
  7  8  1  0  0  0  0 
  9  8  1  0  0  0  0 
 10  9  1  0  0  0  0 
 10  6  1  0  0  0  0 
  9 11  1  0  0  0  0 
 11 12  1  0  0  0  0 
 12 13  1  0  0  0  0 
 14 13  1  0  0  0  0 
 10 14  1  0  0  0  0 
  3 15  2  0  0  0  0 
 14 16  1  0  0  0  0 
 10 17  1  0  0  0  0 
 12 18  1  0  0  0  0 
  6 19  1  0  0  0  0 
 11 20  1  0  0  0  0 
 21 20  1  0  0  0  0 
 22 21  1  0  0  0  0 
 12 22  1  0  0  0  0 
 23 24  1  0  0  0  0 
 24 25  1  0  0  0  0 
 22 25  1  0  0  0  0 
 21 23  1  0  0  0  0 
 22 26  1  0  0  0  0 
 26 27  2  0  0  0  0 
 24 28  1  0  0  0  0 
 24 29  1  0  0  0  0 
 26 30  1  0  0  0  0 
 30 31  1  0  0  0  0 
 31 32  1  0  0  0  0 
 32 33  1  0  0  0  0 
 32 34  2  0  0  0  0 
  7 35  1  0  0  0  0 
 36  1  1  0  0  0  0 
 37  2  1  0  0  0  0 
 38  4  1  0  0  0  0 
  7 39  1  0  0  0  0 
 40  8  1  0  0  0  0 
 41  8  1  0  0  0  0 
  9 42  1  0  0  0  0 
 11 43  1  0  0  0  0 
 44 13  1  0  0  0  0 
 45 13  1  0  0  0  0 
 14 46  1  0  0  0  0 
 47 16  1  0  0  0  0 
 48 18  1  0  0  0  0 
 49 18  1  0  0  0  0 
 50 18  1  0  0  0  0 
 51 19  1  0  0  0  0 
 52 19  1  0  0  0  0 
 53 19  1  0  0  0  0 
 54 20  1  0  0  0  0 
 55 20  1  0  0  0  0 
 21 56  1  0  0  0  0 
 57 28  1  0  0  0  0 
 58 28  1  0  0  0  0 
 59 28  1  0  0  0  0 
 60 29  1  0  0  0  0 
 61 29  1  0  0  0  0 
 62 29  1  0  0  0  0 
 63 30  1  0  0  0  0 
 64 30  1  0  0  0  0 
 65 33  1  0  0  0  0 
 66 33  1  0  0  0  0 
 67 33  1  0  0  0  0 
M  END
> <cdk:Title>
fluocinonide

> <Conformer>
1

> <SuperDrugID>
SD001079

$$$$
