droxypropine
  CDK     0628171801

 49 50  0  0  0  0  0  0  0  0999 V2000
    2.1190    0.5583   -6.0290 C   0  0  0  0  0  0  0  0  0  0  0  0
    2.0604    0.7966   -7.5055 C   0  0  1  0  0  0  0  0  0  0  0  0
    2.6614   -0.5056   -5.6423 O   0  0  0  0  0  0  0  0  0  0  0  0
    1.5947    1.5543   -5.0044 C   0  0  1  0  0  0  0  0  0  0  0  0
    2.8095   -0.2305   -8.3908 C   0  0  0  0  0  0  0  0  0  0  0  0
    0.0328    1.6704   -5.2264 C   0  0  2  0  0  0  0  0  0  0  0  0
    1.8098    1.0604   -3.5165 C   0  0  1  0  0  0  0  0  0  0  0  0
    2.3546    2.8809   -5.1033 C   0  0  0  0  0  0  0  0  0  0  0  0
   -0.7425    0.3896   -4.8093 C   0  0  1  0  0  0  0  0  0  0  0  0
    0.9129   -0.1390   -3.0729 C   0  0  1  0  0  0  0  0  0  0  0  0
    1.7728    4.1400   -4.7726 C   0  0  0  0  0  0  0  0  0  0  0  0
    3.7399    2.9130   -5.4421 C   0  0  0  0  0  0  0  0  0  0  0  0
   -0.5424    0.0779   -3.3594 N   0  0  1  0  0  0  0  0  0  0  0  0
    2.5078    5.3404   -4.8048 C   0  0  0  0  0  0  0  0  0  0  0  0
    4.4770    4.1102   -5.4889 C   0  0  0  0  0  0  0  0  0  0  0  0
   -1.2199    0.9652   -2.3480 C   0  0  2  0  0  0  0  0  0  0  0  0
    3.8612    5.3288   -5.1692 C   0  0  0  0  0  0  0  0  0  0  0  0
   -2.7284    1.2461   -2.5532 C   0  0  1  0  0  0  0  0  0  0  0  0
   -3.4709    0.0169   -2.6520 O   0  0  0  0  0  0  0  0  0  0  0  0
   -4.8794    0.2101   -2.8945 C   0  0  1  0  0  0  0  0  0  0  0  0
   -5.6073   -1.1419   -2.7955 C   0  0  2  0  0  0  0  0  0  0  0  0
   -5.0707   -2.0820   -3.7186 O   0  0  0  0  0  0  0  0  0  0  0  0
    1.0182    0.7909   -7.8259 H   0  0  0  0  0  0  0  0  0  0  0  0
    2.4706    1.7847   -7.7272 H   0  0  0  0  0  0  0  0  0  0  0  0
    2.3890   -1.2283   -8.2562 H   0  0  0  0  0  0  0  0  0  0  0  0
    2.7098    0.0450   -9.4423 H   0  0  0  0  0  0  0  0  0  0  0  0
    3.8707   -0.2545   -8.1369 H   0  0  0  0  0  0  0  0  0  0  0  0
   -0.2031    1.9192   -6.2628 H   0  0  0  0  0  0  0  0  0  0  0  0
   -0.3976    2.4671   -4.6266 H   0  0  0  0  0  0  0  0  0  0  0  0
    2.8571    0.7840   -3.3593 H   0  0  0  0  0  0  0  0  0  0  0  0
    1.5984    1.8794   -2.8225 H   0  0  0  0  0  0  0  0  0  0  0  0
   -1.8012    0.5073   -5.0383 H   0  0  0  0  0  0  0  0  0  0  0  0
   -0.4083   -0.4588   -5.4120 H   0  0  0  0  0  0  0  0  0  0  0  0
    1.2348   -1.0549   -3.5757 H   0  0  0  0  0  0  0  0  0  0  0  0
    1.0649   -0.3183   -2.0029 H   0  0  0  0  0  0  0  0  0  0  0  0
    0.8028    4.2227   -4.4767 H   0  0  0  0  0  0  0  0  0  0  0  0
    4.2428    2.0521   -5.6574 H   0  0  0  0  0  0  0  0  0  0  0  0
    2.0593    6.2253   -4.5530 H   0  0  0  0  0  0  0  0  0  0  0  0
    5.4651    4.0946   -5.7479 H   0  0  0  0  0  0  0  0  0  0  0  0
   -0.7182    1.9338   -2.2895 H   0  0  0  0  0  0  0  0  0  0  0  0
   -1.1203    0.4928   -1.3652 H   0  0  0  0  0  0  0  0  0  0  0  0
    4.3937    6.2010   -5.1985 H   0  0  0  0  0  0  0  0  0  0  0  0
   -3.0877    1.8191   -1.6939 H   0  0  0  0  0  0  0  0  0  0  0  0
   -2.8699    1.8650   -3.4425 H   0  0  0  0  0  0  0  0  0  0  0  0
   -5.3191    0.8843   -2.1522 H   0  0  0  0  0  0  0  0  0  0  0  0
   -5.0354    0.6327   -3.8907 H   0  0  0  0  0  0  0  0  0  0  0  0
   -6.6690   -1.0045   -3.0085 H   0  0  0  0  0  0  0  0  0  0  0  0
   -5.5019   -1.5423   -1.7852 H   0  0  0  0  0  0  0  0  0  0  0  0
   -5.5591   -2.9132   -3.5376 H   0  0  0  0  0  0  0  0  0  0  0  0
  1  2  1  0  0  0  0 
  1  3  2  0  0  0  0 
  1  4  1  0  0  0  0 
  2  5  1  0  0  0  0 
  4  6  1  0  0  0  0 
  4  7  1  0  0  0  0 
  4  8  1  0  0  0  0 
  6  9  1  0  0  0  0 
  7 10  1  0  0  0  0 
  8 11  2  0  0  0  0 
  8 12  1  0  0  0  0 
  9 13  1  0  0  0  0 
 10 13  1  0  0  0  0 
 11 14  1  0  0  0  0 
 12 15  2  0  0  0  0 
 13 16  1  0  0  0  0 
 14 17  2  0  0  0  0 
 15 17  1  0  0  0  0 
 16 18  1  0  0  0  0 
 18 19  1  0  0  0  0 
 19 20  1  0  0  0  0 
 20 21  1  0  0  0  0 
 21 22  1  0  0  0  0 
  2 23  1  0  0  0  0 
  2 24  1  0  0  0  0 
  5 25  1  0  0  0  0 
  5 26  1  0  0  0  0 
  5 27  1  0  0  0  0 
  6 28  1  0  0  0  0 
  6 29  1  0  0  0  0 
  7 30  1  0  0  0  0 
  7 31  1  0  0  0  0 
  9 32  1  0  0  0  0 
  9 33  1  0  0  0  0 
 10 34  1  0  0  0  0 
 10 35  1  0  0  0  0 
 11 36  1  0  0  0  0 
 12 37  1  0  0  0  0 
 14 38  1  0  0  0  0 
 15 39  1  0  0  0  0 
 16 40  1  0  0  0  0 
 16 41  1  0  0  0  0 
 17 42  1  0  0  0  0 
 18 43  1  0  0  0  0 
 18 44  1  0  0  0  0 
 20 45  1  0  0  0  0 
 20 46  1  0  0  0  0 
 21 47  1  0  0  0  0 
 21 48  1  0  0  0  0 
 22 49  1  0  0  0  0 
M  END
> <cdk:Title>
droxypropine

> <Conformer>
1

> <SuperDrugID>
SD003580

$$$$
