bentazepam
  CDK     0628171801

 37 40  0  0  0  0  0  0  0  0999 V2000
    4.6008   -4.2833   -1.2647 O   0  0  0  0  0  0  0  0  0  0  0  0
    3.7731   -3.4787   -0.7784 C   0  0  0  0  0  0  0  0  0  0  0  0
    2.8095   -4.0327   -0.0216 N   0  0  0  0  0  0  0  0  0  0  0  0
    3.9643   -2.0524   -1.0808 C   0  0  2  0  0  0  0  0  0  0  0  0
    1.8168   -3.4305    0.6612 C   0  0  0  0  0  0  0  0  0  0  0  0
    2.9966   -1.1245   -0.7333 N   0  0  0  0  0  0  0  0  0  0  0  0
    1.3614   -2.0931    0.7609 C   0  0  0  0  0  0  0  0  0  0  0  0
    0.8233   -4.4461    1.6822 S   0  0  0  0  0  0  0  0  0  0  0  0
    1.9297   -1.0580   -0.0170 C   0  0  0  0  0  0  0  0  0  0  0  0
    0.2920   -1.9527    1.7158 C   0  0  0  0  0  0  0  0  0  0  0  0
   -0.1751   -3.1526    2.2915 C   0  0  0  0  0  0  0  0  0  0  0  0
    1.3791    0.2065   -0.1881 C   0  0  0  0  0  0  0  0  0  0  0  0
   -0.3552   -0.6799    2.1580 C   0  0  1  0  0  0  0  0  0  0  0  0
   -1.2830   -3.3314    3.2499 C   0  0  1  0  0  0  0  0  0  0  0  0
    0.2916    0.3918   -1.0756 C   0  0  0  0  0  0  0  0  0  0  0  0
    1.9388    1.3427    0.4507 C   0  0  0  0  0  0  0  0  0  0  0  0
   -1.1986   -0.7793    3.4621 C   0  0  1  0  0  0  0  0  0  0  0  0
   -2.1052   -2.0345    3.4607 C   0  0  2  0  0  0  0  0  0  0  0  0
   -0.2294    1.6788   -1.3112 C   0  0  0  0  0  0  0  0  0  0  0  0
    1.4060    2.6263    0.2225 C   0  0  0  0  0  0  0  0  0  0  0  0
    0.3226    2.7942   -0.6583 C   0  0  0  0  0  0  0  0  0  0  0  0
    2.8475   -4.9997    0.0605 H   0  0  0  0  0  0  0  0  0  0  0  0
    4.0617   -1.9662   -2.1655 H   0  0  0  0  0  0  0  0  0  0  0  0
    4.9071   -1.7278   -0.6373 H   0  0  0  0  0  0  0  0  0  0  0  0
    0.4116    0.0691    2.3476 H   0  0  0  0  0  0  0  0  0  0  0  0
   -1.0005   -0.3218    1.3558 H   0  0  0  0  0  0  0  0  0  0  0  0
   -1.9447   -4.1188    2.8831 H   0  0  0  0  0  0  0  0  0  0  0  0
   -0.8599   -3.6587    4.2006 H   0  0  0  0  0  0  0  0  0  0  0  0
   -0.1207   -0.4071   -1.5649 H   0  0  0  0  0  0  0  0  0  0  0  0
    2.7365    1.2405    1.0861 H   0  0  0  0  0  0  0  0  0  0  0  0
   -0.5270   -0.8225    4.3236 H   0  0  0  0  0  0  0  0  0  0  0  0
   -1.8153    0.1160    3.5662 H   0  0  0  0  0  0  0  0  0  0  0  0
   -2.6469   -2.0972    4.4080 H   0  0  0  0  0  0  0  0  0  0  0  0
   -2.8438   -1.9381    2.6606 H   0  0  0  0  0  0  0  0  0  0  0  0
   -1.0092    1.8080   -1.9611 H   0  0  0  0  0  0  0  0  0  0  0  0
    1.8079    3.4388    0.6952 H   0  0  0  0  0  0  0  0  0  0  0  0
   -0.0638    3.7272   -0.8284 H   0  0  0  0  0  0  0  0  0  0  0  0
  1  2  2  0  0  0  0 
  2  3  1  0  0  0  0 
  2  4  1  0  0  0  0 
  3  5  1  0  0  0  0 
  4  6  1  0  0  0  0 
  5  7  2  0  0  0  0 
  5  8  1  0  0  0  0 
  6  9  2  0  0  0  0 
  7  9  1  0  0  0  0 
  7 10  1  0  0  0  0 
  8 11  1  0  0  0  0 
  9 12  1  0  0  0  0 
 10 11  2  0  0  0  0 
 10 13  1  0  0  0  0 
 11 14  1  0  0  0  0 
 12 15  2  0  0  0  0 
 12 16  1  0  0  0  0 
 13 17  1  0  0  0  0 
 14 18  1  0  0  0  0 
 15 19  1  0  0  0  0 
 16 20  2  0  0  0  0 
 17 18  1  0  0  0  0 
 19 21  2  0  0  0  0 
 20 21  1  0  0  0  0 
  3 22  1  0  0  0  0 
  4 23  1  0  0  0  0 
  4 24  1  0  0  0  0 
 13 25  1  0  0  0  0 
 13 26  1  0  0  0  0 
 14 27  1  0  0  0  0 
 14 28  1  0  0  0  0 
 15 29  1  0  0  0  0 
 16 30  1  0  0  0  0 
 17 31  1  0  0  0  0 
 17 32  1  0  0  0  0 
 18 33  1  0  0  0  0 
 18 34  1  0  0  0  0 
 19 35  1  0  0  0  0 
 20 36  1  0  0  0  0 
 21 37  1  0  0  0  0 
M  END
> <cdk:Title>
bentazepam

> <Conformer>
1

> <SuperDrugID>
SD000264

$$$$
