dacisteine
  CDK     0628171801

 24 23  0  0  0  0  0  0  0  0999 V2000
   -1.5383   -1.6064    0.3505 C   0  0  2  0  0  0  0  0  0  0  0  0
   -2.2134   -2.4798   -0.6360 C   0  0  0  0  0  0  0  0  0  0  0  0
   -1.4688   -2.2690    1.7541 C   0  0  2  0  0  0  0  0  0  0  0  0
   -2.2771   -0.3755    0.4078 N   0  0  0  0  0  0  0  0  0  0  0  0
   -3.5058   -2.8418   -0.4551 O   0  0  0  0  0  0  0  0  0  0  0  0
   -1.6172   -2.8814   -1.6615 O   0  0  0  0  0  0  0  0  0  0  0  0
   -0.5336   -1.2372    2.9390 S   0  0  0  0  0  0  0  0  0  0  0  0
   -1.7497    0.8796    0.4286 C   0  0  0  0  0  0  0  0  0  0  0  0
   -0.7550   -2.0292    4.4856 C   0  0  0  0  0  0  0  0  0  0  0  0
   -2.6536    2.0422    0.4920 C   0  0  0  0  0  0  0  0  0  0  0  0
   -0.5104    1.0722    0.4093 O   0  0  0  0  0  0  0  0  0  0  0  0
    0.3402   -2.7982    5.0940 C   0  0  0  0  0  0  0  0  0  0  0  0
   -1.8609   -1.9181    5.0619 O   0  0  0  0  0  0  0  0  0  0  0  0
   -0.5122   -1.4306    0.0079 H   0  0  0  0  0  0  0  0  0  0  0  0
   -0.9704   -3.2389    1.6880 H   0  0  0  0  0  0  0  0  0  0  0  0
   -2.4749   -2.4269    2.1489 H   0  0  0  0  0  0  0  0  0  0  0  0
   -3.2449   -0.4445    0.4413 H   0  0  0  0  0  0  0  0  0  0  0  0
   -3.9715   -3.3892   -1.1227 H   0  0  0  0  0  0  0  0  0  0  0  0
   -2.0912    2.9776    0.5272 H   0  0  0  0  0  0  0  0  0  0  0  0
   -3.2982    2.0605   -0.3885 H   0  0  0  0  0  0  0  0  0  0  0  0
   -3.2771    1.9828    1.3852 H   0  0  0  0  0  0  0  0  0  0  0  0
    1.1867   -2.1378    5.2877 H   0  0  0  0  0  0  0  0  0  0  0  0
    0.6535   -3.5925    4.4153 H   0  0  0  0  0  0  0  0  0  0  0  0
    0.0280   -3.2486    6.0381 H   0  0  0  0  0  0  0  0  0  0  0  0
  1  2  1  0  0  0  0 
  1  3  1  0  0  0  0 
  1  4  1  0  0  0  0 
  2  5  1  0  0  0  0 
  2  6  2  0  0  0  0 
  3  7  1  0  0  0  0 
  4  8  1  0  0  0  0 
  7  9  1  0  0  0  0 
  8 10  1  0  0  0  0 
  8 11  2  0  0  0  0 
  9 12  1  0  0  0  0 
  9 13  2  0  0  0  0 
  1 14  1  0  0  0  0 
  3 15  1  0  0  0  0 
  3 16  1  0  0  0  0 
  4 17  1  0  0  0  0 
  5 18  1  0  0  0  0 
 10 19  1  0  0  0  0 
 10 20  1  0  0  0  0 
 10 21  1  0  0  0  0 
 12 22  1  0  0  0  0 
 12 23  1  0  0  0  0 
 12 24  1  0  0  0  0 
M  END
> <cdk:Title>
dacisteine

> <Conformer>
1

> <SuperDrugID>
SD001560

$$$$
