flurbiprofen axetil
  CDK     0628171801

 43 44  0  0  0  0  0  0  0  0999 V2000
   -0.1187    3.2596    0.3477 C   0  0  0  0  0  0  0  0  0  0  0  0
   -0.8211    3.0986    1.5647 C   0  0  0  0  0  0  0  0  0  0  0  0
   -0.3599    2.4063   -0.7414 C   0  0  0  0  0  0  0  0  0  0  0  0
   -1.8020    2.0787    1.6462 C   0  0  0  0  0  0  0  0  0  0  0  0
   -0.4951    3.9187    2.6811 C   0  0  0  0  0  0  0  0  0  0  0  0
   -1.2943    1.3487   -0.6482 C   0  0  0  0  0  0  0  0  0  0  0  0
   -2.0287    1.2144    0.5552 C   0  0  0  0  0  0  0  0  0  0  0  0
    0.8309    3.9365    3.1783 C   0  0  0  0  0  0  0  0  0  0  0  0
   -1.4723    4.7162    3.3237 C   0  0  0  0  0  0  0  0  0  0  0  0
   -1.4227    0.3692   -1.7769 C   0  0  2  0  0  0  0  0  0  0  0  0
    1.1703    4.7267    4.2916 C   0  0  0  0  0  0  0  0  0  0  0  0
   -1.1301    5.5101    4.4352 C   0  0  0  0  0  0  0  0  0  0  0  0
   -2.7962    0.2283   -2.3284 C   0  0  0  0  0  0  0  0  0  0  0  0
   -0.7791   -0.9876   -1.3698 C   0  0  0  0  0  0  0  0  0  0  0  0
    0.1906    5.5169    4.9178 C   0  0  0  0  0  0  0  0  0  0  0  0
   -3.2855   -1.0185   -2.6170 O   0  0  0  0  0  0  0  0  0  0  0  0
   -3.4682    1.2557   -2.5869 O   0  0  0  0  0  0  0  0  0  0  0  0
   -4.5071   -1.3724   -3.2771 C   0  0  2  0  0  0  0  0  0  0  0  0
   -5.2781   -2.1469   -2.3464 O   0  0  0  0  0  0  0  0  0  0  0  0
   -4.1471   -2.1952   -4.5351 C   0  0  0  0  0  0  0  0  0  0  0  0
   -6.5855   -2.5384   -2.4274 C   0  0  0  0  0  0  0  0  0  0  0  0
   -7.5699   -1.9250   -3.3375 C   0  0  0  0  0  0  0  0  0  0  0  0
   -6.9544   -3.4372   -1.6379 O   0  0  0  0  0  0  0  0  0  0  0  0
   -2.4926    1.8849    2.7392 F   0  0  0  0  0  0  0  0  0  0  0  0
    0.5854    3.9974    0.2437 H   0  0  0  0  0  0  0  0  0  0  0  0
    0.1769    2.5511   -1.5999 H   0  0  0  0  0  0  0  0  0  0  0  0
   -2.7244    0.4690    0.6481 H   0  0  0  0  0  0  0  0  0  0  0  0
    1.5587    3.3652    2.7413 H   0  0  0  0  0  0  0  0  0  0  0  0
   -2.4381    4.7272    2.9857 H   0  0  0  0  0  0  0  0  0  0  0  0
   -0.8319    0.7271   -2.6270 H   0  0  0  0  0  0  0  0  0  0  0  0
    2.1290    4.7223    4.6483 H   0  0  0  0  0  0  0  0  0  0  0  0
   -1.8424    6.0813    4.8947 H   0  0  0  0  0  0  0  0  0  0  0  0
   -0.7214   -1.6580   -2.2316 H   0  0  0  0  0  0  0  0  0  0  0  0
    0.2359   -0.8299   -0.9983 H   0  0  0  0  0  0  0  0  0  0  0  0
   -1.3649   -1.4782   -0.5885 H   0  0  0  0  0  0  0  0  0  0  0  0
    0.4398    6.0956    5.7235 H   0  0  0  0  0  0  0  0  0  0  0  0
   -5.0605   -0.4790   -3.5791 H   0  0  0  0  0  0  0  0  0  0  0  0
   -5.0461   -2.4312   -5.1037 H   0  0  0  0  0  0  0  0  0  0  0  0
   -3.4742   -1.6258   -5.1789 H   0  0  0  0  0  0  0  0  0  0  0  0
   -3.6542   -3.1288   -4.2539 H   0  0  0  0  0  0  0  0  0  0  0  0
   -8.5753   -2.2934   -3.1267 H   0  0  0  0  0  0  0  0  0  0  0  0
   -7.5652   -0.8434   -3.2074 H   0  0  0  0  0  0  0  0  0  0  0  0
   -7.3264   -2.1610   -4.3724 H   0  0  0  0  0  0  0  0  0  0  0  0
  1  2  2  0  0  0  0 
  1  3  1  0  0  0  0 
  2  4  1  0  0  0  0 
  2  5  1  0  0  0  0 
  3  6  2  0  0  0  0 
  4  7  2  0  0  0  0 
  5  8  2  0  0  0  0 
  5  9  1  0  0  0  0 
  6  7  1  0  0  0  0 
 10  6  1  0  0  0  0 
  8 11  1  0  0  0  0 
  9 12  2  0  0  0  0 
 10 13  1  0  0  0  0 
 10 14  1  0  0  0  0 
 11 15  2  0  0  0  0 
 12 15  1  0  0  0  0 
 13 16  1  0  0  0  0 
 13 17  2  0  0  0  0 
 16 18  1  0  0  0  0 
 18 19  1  0  0  0  0 
 18 20  1  0  0  0  0 
 19 21  1  0  0  0  0 
 21 22  1  0  0  0  0 
 21 23  2  0  0  0  0 
  4 24  1  0  0  0  0 
  1 25  1  0  0  0  0 
  3 26  1  0  0  0  0 
  7 27  1  0  0  0  0 
  8 28  1  0  0  0  0 
  9 29  1  0  0  0  0 
 10 30  1  0  0  0  0 
 11 31  1  0  0  0  0 
 12 32  1  0  0  0  0 
 14 33  1  0  0  0  0 
 14 34  1  0  0  0  0 
 14 35  1  0  0  0  0 
 15 36  1  0  0  0  0 
 18 37  1  0  0  0  0 
 20 38  1  0  0  0  0 
 20 39  1  0  0  0  0 
 20 40  1  0  0  0  0 
 22 41  1  0  0  0  0 
 22 42  1  0  0  0  0 
 22 43  1  0  0  0  0 
M  END
> <cdk:Title>
flurbiprofen axetil

> <Conformer>
1

> <SuperDrugID>
SD001093

$$$$
