cyclobutyrol
  CDK     0628171802

 31 31  0  0  0  0  0  0  0  0999 V2000
    0.2380    2.8824    1.7093 C   0  0  1  0  0  0  0  0  0  0  0  0
   -0.1127    4.0499    0.8529 C   0  0  0  0  0  0  0  0  0  0  0  0
    1.6580    2.3459    1.3191 C   0  0  2  0  0  0  0  0  0  0  0  0
    0.0348    3.1915    3.2526 C   0  0  1  0  0  0  0  0  0  0  0  0
   -1.1862    3.9946    0.0287 O   0  0  0  0  0  0  0  0  0  0  0  0
    0.5607    5.1058    0.8719 O   0  0  0  0  0  0  0  0  0  0  0  0
    1.8043    1.9059   -0.1609 C   0  0  0  0  0  0  0  0  0  0  0  0
    1.0081    4.1636    3.6533 O   0  0  0  0  0  0  0  0  0  0  0  0
   -1.3848    3.7828    3.5897 C   0  0  1  0  0  0  0  0  0  0  0  0
    0.2491    1.9594    4.2029 C   0  0  2  0  0  0  0  0  0  0  0  0
   -2.5295    2.7430    3.4410 C   0  0  2  0  0  0  0  0  0  0  0  0
   -0.8572    0.8783    4.0646 C   0  0  2  0  0  0  0  0  0  0  0  0
   -2.2696    1.4774    4.2990 C   0  0  2  0  0  0  0  0  0  0  0  0
   -0.4600    2.0859    1.4458 H   0  0  0  0  0  0  0  0  0  0  0  0
    1.8946    1.4632    1.9158 H   0  0  0  0  0  0  0  0  0  0  0  0
    2.4154    3.1035    1.5374 H   0  0  0  0  0  0  0  0  0  0  0  0
   -1.4236    4.7681   -0.5225 H   0  0  0  0  0  0  0  0  0  0  0  0
    1.6611    2.7499   -0.8383 H   0  0  0  0  0  0  0  0  0  0  0  0
    2.8044    1.4978   -0.3256 H   0  0  0  0  0  0  0  0  0  0  0  0
    1.0704    1.1324   -0.4016 H   0  0  0  0  0  0  0  0  0  0  0  0
    0.8158    4.9622    3.1207 H   0  0  0  0  0  0  0  0  0  0  0  0
   -1.3883    4.1432    4.6232 H   0  0  0  0  0  0  0  0  0  0  0  0
   -1.6076    4.6505    2.9649 H   0  0  0  0  0  0  0  0  0  0  0  0
    0.2493    2.3057    5.2423 H   0  0  0  0  0  0  0  0  0  0  0  0
    1.2257    1.5008    4.0443 H   0  0  0  0  0  0  0  0  0  0  0  0
   -2.6385    2.4578    2.3918 H   0  0  0  0  0  0  0  0  0  0  0  0
   -3.4729    3.1995    3.7546 H   0  0  0  0  0  0  0  0  0  0  0  0
   -0.6787    0.0858    4.7964 H   0  0  0  0  0  0  0  0  0  0  0  0
   -0.8107    0.4219    3.0729 H   0  0  0  0  0  0  0  0  0  0  0  0
   -3.0255    0.7206    4.0700 H   0  0  0  0  0  0  0  0  0  0  0  0
   -2.3714    1.7403    5.3554 H   0  0  0  0  0  0  0  0  0  0  0  0
  1  2  1  0  0  0  0 
  1  3  1  0  0  0  0 
  1  4  1  0  0  0  0 
  2  5  1  0  0  0  0 
  2  6  2  0  0  0  0 
  3  7  1  0  0  0  0 
  4  8  1  0  0  0  0 
  4  9  1  0  0  0  0 
  4 10  1  0  0  0  0 
  9 11  1  0  0  0  0 
 10 12  1  0  0  0  0 
 11 13  1  0  0  0  0 
 12 13  1  0  0  0  0 
  1 14  1  0  0  0  0 
  3 15  1  0  0  0  0 
  3 16  1  0  0  0  0 
  5 17  1  0  0  0  0 
  7 18  1  0  0  0  0 
  7 19  1  0  0  0  0 
  7 20  1  0  0  0  0 
  8 21  1  0  0  0  0 
  9 22  1  0  0  0  0 
  9 23  1  0  0  0  0 
 10 24  1  0  0  0  0 
 10 25  1  0  0  0  0 
 11 26  1  0  0  0  0 
 11 27  1  0  0  0  0 
 12 28  1  0  0  0  0 
 12 29  1  0  0  0  0 
 13 30  1  0  0  0  0 
 13 31  1  0  0  0  0 
M  END
> <cdk:Title>
cyclobutyrol

> <Conformer>
1

> <SuperDrugID>
SD000661

$$$$
