pempidine
  CDK     0628171801

 32 32  0  0  0  0  0  0  0  0999 V2000
    1.3527    0.1969   -0.5728 C   0  0  0  0  0  0  0  0  0  0  0  0
    0.2484   -0.1344    0.3993 N   0  0  0  0  0  0  0  0  0  0  0  0
   -0.0935    0.9698    1.4068 C   0  0  2  0  0  0  0  0  0  0  0  0
   -0.5696    2.2989    0.7230 C   0  0  0  0  0  0  0  0  0  0  0  0
    1.1645    1.3216    2.2823 C   0  0  0  0  0  0  0  0  0  0  0  0
   -1.1836    0.4868    2.4317 C   0  0  1  0  0  0  0  0  0  0  0  0
   -2.3945   -0.1984    1.7729 C   0  0  2  0  0  0  0  0  0  0  0  0
   -1.9018   -1.4185    0.9741 C   0  0  2  0  0  0  0  0  0  0  0  0
   -0.8422   -1.0700   -0.1357 C   0  0  1  0  0  0  0  0  0  0  0  0
   -1.5770   -0.4949   -1.3970 C   0  0  0  0  0  0  0  0  0  0  0  0
   -0.2178   -2.4522   -0.5508 C   0  0  0  0  0  0  0  0  0  0  0  0
    2.2147    0.6429   -0.0837 H   0  0  0  0  0  0  0  0  0  0  0  0
    1.7413   -0.6870   -1.0720 H   0  0  0  0  0  0  0  0  0  0  0  0
    1.0033    0.8903   -1.3377 H   0  0  0  0  0  0  0  0  0  0  0  0
   -1.4951    2.1627    0.1713 H   0  0  0  0  0  0  0  0  0  0  0  0
    0.1815    2.6785    0.0292 H   0  0  0  0  0  0  0  0  0  0  0  0
   -0.7468    3.0786    1.4677 H   0  0  0  0  0  0  0  0  0  0  0  0
    1.6671    0.4085    2.6092 H   0  0  0  0  0  0  0  0  0  0  0  0
    1.8869    1.9314    1.7381 H   0  0  0  0  0  0  0  0  0  0  0  0
    0.8874    1.8929    3.1725 H   0  0  0  0  0  0  0  0  0  0  0  0
   -0.7427   -0.2320    3.1318 H   0  0  0  0  0  0  0  0  0  0  0  0
   -1.5486    1.3256    3.0322 H   0  0  0  0  0  0  0  0  0  0  0  0
   -2.9365    0.4964    1.1297 H   0  0  0  0  0  0  0  0  0  0  0  0
   -3.0863   -0.5336    2.5512 H   0  0  0  0  0  0  0  0  0  0  0  0
   -2.7728   -1.9147    0.5356 H   0  0  0  0  0  0  0  0  0  0  0  0
   -1.4711   -2.1236    1.6943 H   0  0  0  0  0  0  0  0  0  0  0  0
   -2.3328   -1.1943   -1.7626 H   0  0  0  0  0  0  0  0  0  0  0  0
   -0.8778   -0.3181   -2.2158 H   0  0  0  0  0  0  0  0  0  0  0  0
   -2.0801    0.4424   -1.1780 H   0  0  0  0  0  0  0  0  0  0  0  0
   -0.9897   -3.2129   -0.6946 H   0  0  0  0  0  0  0  0  0  0  0  0
    0.3333   -2.3906   -1.4896 H   0  0  0  0  0  0  0  0  0  0  0  0
    0.4670   -2.8057    0.2233 H   0  0  0  0  0  0  0  0  0  0  0  0
  1  2  1  0  0  0  0 
  2  3  1  0  0  0  0 
  3  4  1  0  0  0  0 
  3  5  1  0  0  0  0 
  3  6  1  0  0  0  0 
  6  7  1  0  0  0  0 
  7  8  1  0  0  0  0 
  8  9  1  0  0  0  0 
  2  9  1  0  0  0  0 
  9 10  1  0  0  0  0 
  9 11  1  0  0  0  0 
  1 12  1  0  0  0  0 
  1 13  1  0  0  0  0 
  1 14  1  0  0  0  0 
  4 15  1  0  0  0  0 
  4 16  1  0  0  0  0 
  4 17  1  0  0  0  0 
  5 18  1  0  0  0  0 
  5 19  1  0  0  0  0 
  5 20  1  0  0  0  0 
  6 21  1  0  0  0  0 
  6 22  1  0  0  0  0 
  7 23  1  0  0  0  0 
  7 24  1  0  0  0  0 
  8 25  1  0  0  0  0 
  8 26  1  0  0  0  0 
 10 27  1  0  0  0  0 
 10 28  1  0  0  0  0 
 10 29  1  0  0  0  0 
 11 30  1  0  0  0  0 
 11 31  1  0  0  0  0 
 11 32  1  0  0  0  0 
M  END
> <cdk:Title>
pempidine

> <Conformer>
1

> <SuperDrugID>
SD001861

$$$$
