sulindac
  CDK     0628171801

 42 44  0  0  0  0  0  0  0  0999 V2000
   -1.7307   -1.6900    1.1688 C   0  0  0  0  0  0  0  0  0  0  0  0
   -2.0164   -2.7601    2.0177 C   0  0  0  0  0  0  0  0  0  0  0  0
   -3.2833   -2.8435    2.6452 C   0  0  0  0  0  0  0  0  0  0  0  0
   -4.2115   -1.7954    2.4790 C   0  0  0  0  0  0  0  0  0  0  0  0
   -3.8939   -0.6883    1.6648 C   0  0  0  0  0  0  0  0  0  0  0  0
   -2.6544   -0.6356    0.9965 C   0  0  0  0  0  0  0  0  0  0  0  0
   -0.5021   -1.9175    0.5946 C   0  0  0  0  0  0  0  0  0  0  0  0
   -0.0494   -3.0961    1.0725 C   0  0  0  0  0  0  0  0  0  0  0  0
   -0.9044   -3.5852    2.0313 C   0  0  0  0  0  0  0  0  0  0  0  0
    1.1890   -3.7531    0.6538 C   0  0  0  0  0  0  0  0  0  0  0  0
    1.4153   -0.4526    0.1657 C   0  0  0  0  0  0  0  0  0  0  0  0
    0.1669   -1.0346   -0.3694 C   0  0  2  0  0  0  0  0  0  0  0  0
   -0.6477   -4.6368    2.8452 C   0  0  0  0  0  0  0  0  0  0  0  0
   -1.4025   -5.0578    3.9291 C   0  0  0  0  0  0  0  0  0  0  0  0
   -1.5967   -4.2047    5.0402 C   0  0  0  0  0  0  0  0  0  0  0  0
   -1.9624   -6.3553    3.9598 C   0  0  0  0  0  0  0  0  0  0  0  0
   -2.7290   -6.7768    5.0643 C   0  0  0  0  0  0  0  0  0  0  0  0
   -2.9415   -5.9116    6.1609 C   0  0  0  0  0  0  0  0  0  0  0  0
   -2.3778   -4.6201    6.1323 C   0  0  0  0  0  0  0  0  0  0  0  0
   -3.9206   -6.3786    7.5635 S   0  0  1  0  0  0  0  0  0  0  0  0
   -4.3163   -7.9212    7.3754 O   0  0  0  0  0  0  0  0  0  0  0  0
   -2.8004   -6.3760    9.0144 C   0  0  0  0  0  0  0  0  0  0  0  0
   -4.7490    0.2868    1.5172 F   0  0  0  0  0  0  0  0  0  0  0  0
    1.4033    0.2283    1.2160 O   0  0  0  0  0  0  0  0  0  0  0  0
    2.5969   -0.6197   -0.4730 O   0  0  0  0  0  0  0  0  0  0  0  0
   -3.5569   -3.6487    3.2076 H   0  0  0  0  0  0  0  0  0  0  0  0
   -5.1201   -1.8403    2.9493 H   0  0  0  0  0  0  0  0  0  0  0  0
   -2.4425    0.1598    0.3939 H   0  0  0  0  0  0  0  0  0  0  0  0
    1.0056   -4.8077    0.4396 H   0  0  0  0  0  0  0  0  0  0  0  0
    1.6158   -3.3217   -0.2503 H   0  0  0  0  0  0  0  0  0  0  0  0
    1.9318   -3.6797    1.4497 H   0  0  0  0  0  0  0  0  0  0  0  0
   -0.4638   -0.1951   -0.6605 H   0  0  0  0  0  0  0  0  0  0  0  0
    0.3691   -1.5885   -1.2890 H   0  0  0  0  0  0  0  0  0  0  0  0
    0.1790   -5.1642    2.6938 H   0  0  0  0  0  0  0  0  0  0  0  0
   -1.1781   -3.2700    5.0596 H   0  0  0  0  0  0  0  0  0  0  0  0
   -1.8216   -7.0000    3.1765 H   0  0  0  0  0  0  0  0  0  0  0  0
   -3.1306   -7.7169    5.0558 H   0  0  0  0  0  0  0  0  0  0  0  0
   -2.5347   -3.9678    6.9049 H   0  0  0  0  0  0  0  0  0  0  0  0
   -3.3529   -6.7092    9.8928 H   0  0  0  0  0  0  0  0  0  0  0  0
   -2.4284   -5.3682    9.1968 H   0  0  0  0  0  0  0  0  0  0  0  0
   -1.9577   -7.0464    8.8432 H   0  0  0  0  0  0  0  0  0  0  0  0
    3.4166   -0.2211   -0.1082 H   0  0  0  0  0  0  0  0  0  0  0  0
  1  2  2  0  0  0  0 
  2  3  1  0  0  0  0 
  3  4  2  0  0  0  0 
  4  5  1  0  0  0  0 
  5  6  2  0  0  0  0 
  6  1  1  0  0  0  0 
  1  7  1  0  0  0  0 
  7  8  2  0  0  0  0 
  8  9  1  0  0  0  0 
  9  2  1  0  0  0  0 
  8 10  1  0  0  0  0 
 11 12  1  0  0  0  0 
 12  7  1  0  0  0  0 
  9 13  2  0  0  0  0 
 13 14  1  0  0  0  0 
 14 15  2  0  0  0  0 
 14 16  1  0  0  0  0 
 16 17  2  0  0  0  0 
 17 18  1  0  0  0  0 
 18 19  2  0  0  0  0 
 19 15  1  0  0  0  0 
 20 18  1  0  0  0  0 
 20 21  2  0  0  0  0 
 20 22  1  0  0  0  0 
  5 23  1  0  0  0  0 
 11 24  2  0  0  0  0 
 11 25  1  0  0  0  0 
 26  3  1  0  0  0  0 
 27  4  1  0  0  0  0 
 28  6  1  0  0  0  0 
 29 10  1  0  0  0  0 
 30 10  1  0  0  0  0 
 31 10  1  0  0  0  0 
 32 12  1  0  0  0  0 
 33 12  1  0  0  0  0 
 34 13  1  0  0  0  0 
 35 15  1  0  0  0  0 
 36 16  1  0  0  0  0 
 37 17  1  0  0  0  0 
 38 19  1  0  0  0  0 
 39 22  1  0  0  0  0 
 40 22  1  0  0  0  0 
 41 22  1  0  0  0  0 
 42 25  1  0  0  0  0 
M  END
> <cdk:Title>
sulindac

> <Conformer>
1

> <SuperDrugID>
SD002279

$$$$
