promestriene
  CDK     0628171801

 56 59  0  0  0  0  0  0  0  0999 V2000
   -1.3626   -1.0177   -9.3385 C   0  0  0  0  0  0  0  0  0  0  0  0
    0.1318   -0.5554   -9.5452 C   0  0  1  0  0  0  0  0  0  0  0  0
    0.5032    0.8117   -8.8840 C   0  0  2  0  0  0  0  0  0  0  0  0
    1.1016   -1.6277   -8.9510 C   0  0  2  0  0  0  0  0  0  0  0  0
    0.3809   -0.2113  -11.0507 C   0  0  1  0  0  0  0  0  0  0  0  0
    0.3003    0.8030   -7.3332 C   0  0  1  0  0  0  0  0  0  0  0  0
   -0.2137    1.8574   -9.7647 C   0  0  1  0  0  0  0  0  0  0  0  0
    1.0677   -1.6773   -7.3911 C   0  0  2  0  0  0  0  0  0  0  0  0
   -0.2377   -1.1561  -11.9559 O   0  0  0  0  0  0  0  0  0  0  0  0
   -0.1556    1.2437  -11.1875 C   0  0  2  0  0  0  0  0  0  0  0  0
    1.2506   -0.2801   -6.6900 C   0  0  2  0  0  0  0  0  0  0  0  0
    0.5593    2.1842   -6.6765 C   0  0  1  0  0  0  0  0  0  0  0  0
    0.0890   -0.9987  -13.3503 C   0  0  0  0  0  0  0  0  0  0  0  0
    1.1922   -0.2740   -5.1794 C   0  0  0  0  0  0  0  0  0  0  0  0
    0.2736    2.1208   -5.1558 C   0  0  2  0  0  0  0  0  0  0  0  0
    0.7653    0.8900   -4.4676 C   0  0  0  0  0  0  0  0  0  0  0  0
    1.6418   -1.3842   -4.4159 C   0  0  0  0  0  0  0  0  0  0  0  0
    0.8036    0.9072   -3.0499 C   0  0  0  0  0  0  0  0  0  0  0  0
    1.6817   -1.3505   -3.0106 C   0  0  0  0  0  0  0  0  0  0  0  0
    1.2744   -0.1993   -2.3172 C   0  0  0  0  0  0  0  0  0  0  0  0
    1.4278   -0.1454   -0.9541 O   0  0  0  0  0  0  0  0  0  0  0  0
    0.2158   -0.2852   -0.1855 C   0  0  1  0  0  0  0  0  0  0  0  0
    0.5375   -0.1559    1.3254 C   0  0  2  0  0  0  0  0  0  0  0  0
    1.1851    1.1968    1.7052 C   0  0  0  0  0  0  0  0  0  0  0  0
   -0.7390    0.5506   -7.1110 H   0  0  0  0  0  0  0  0  0  0  0  0
    2.2799    0.0233   -6.9121 H   0  0  0  0  0  0  0  0  0  0  0  0
    1.5764    1.0043   -9.0361 H   0  0  0  0  0  0  0  0  0  0  0  0
   -2.0699   -0.2926   -9.7422 H   0  0  0  0  0  0  0  0  0  0  0  0
   -1.5408   -1.9675   -9.8447 H   0  0  0  0  0  0  0  0  0  0  0  0
   -1.6132   -1.1671   -8.2904 H   0  0  0  0  0  0  0  0  0  0  0  0
    2.1289   -1.4079   -9.2576 H   0  0  0  0  0  0  0  0  0  0  0  0
    0.8564   -2.6129   -9.3543 H   0  0  0  0  0  0  0  0  0  0  0  0
    1.4627   -0.2079  -11.2346 H   0  0  0  0  0  0  0  0  0  0  0  0
   -1.2492    1.9973   -9.4416 H   0  0  0  0  0  0  0  0  0  0  0  0
    0.2966    2.8243   -9.7300 H   0  0  0  0  0  0  0  0  0  0  0  0
    1.8766   -2.3483   -7.0980 H   0  0  0  0  0  0  0  0  0  0  0  0
    0.1354   -2.1329   -7.0539 H   0  0  0  0  0  0  0  0  0  0  0  0
   -1.1558    1.2416  -11.6268 H   0  0  0  0  0  0  0  0  0  0  0  0
    0.5040    1.8301  -11.8321 H   0  0  0  0  0  0  0  0  0  0  0  0
    1.5954    2.4918   -6.8448 H   0  0  0  0  0  0  0  0  0  0  0  0
   -0.0901    2.9439   -7.1203 H   0  0  0  0  0  0  0  0  0  0  0  0
   -0.4383   -1.7655  -13.9180 H   0  0  0  0  0  0  0  0  0  0  0  0
    1.1599   -1.1269  -13.5195 H   0  0  0  0  0  0  0  0  0  0  0  0
   -0.2245   -0.0235  -13.7286 H   0  0  0  0  0  0  0  0  0  0  0  0
   -0.8080    2.1846   -4.9983 H   0  0  0  0  0  0  0  0  0  0  0  0
    0.7280    3.0065   -4.7016 H   0  0  0  0  0  0  0  0  0  0  0  0
    1.9687   -2.2371   -4.8680 H   0  0  0  0  0  0  0  0  0  0  0  0
    0.5091    1.7435   -2.5357 H   0  0  0  0  0  0  0  0  0  0  0  0
    2.0311   -2.1628   -2.4949 H   0  0  0  0  0  0  0  0  0  0  0  0
   -0.5142    0.4836   -0.4570 H   0  0  0  0  0  0  0  0  0  0  0  0
   -0.2319   -1.2679   -0.3620 H   0  0  0  0  0  0  0  0  0  0  0  0
    1.2138   -0.9629    1.6211 H   0  0  0  0  0  0  0  0  0  0  0  0
   -0.3875   -0.2719    1.8978 H   0  0  0  0  0  0  0  0  0  0  0  0
    1.3545    1.2376    2.7834 H   0  0  0  0  0  0  0  0  0  0  0  0
    0.5337    2.0266    1.4238 H   0  0  0  0  0  0  0  0  0  0  0  0
    2.1464    1.3138    1.2014 H   0  0  0  0  0  0  0  0  0  0  0  0
  2  1  1  0  0  0  0 
  3  2  1  0  0  0  0 
  2  4  1  0  0  0  0 
  2  5  1  0  0  0  0 
  6  3  1  0  0  0  0 
  3  7  1  0  0  0  0 
  3 27  1  0  0  0  0 
  4  8  1  0  0  0  0 
  5  9  1  0  0  0  0 
  5 10  1  0  0  0  0 
 11  6  1  0  0  0  0 
  6 12  1  0  0  0  0 
  6 25  1  0  0  0  0 
  7 10  1  0  0  0  0 
 11  8  1  0  0  0  0 
  9 13  1  0  0  0  0 
 11 14  1  0  0  0  0 
 11 26  1  0  0  0  0 
 12 15  1  0  0  0  0 
 14 16  2  0  0  0  0 
 14 17  1  0  0  0  0 
 15 16  1  0  0  0  0 
 16 18  1  0  0  0  0 
 17 19  2  0  0  0  0 
 18 20  2  0  0  0  0 
 19 20  1  0  0  0  0 
 20 21  1  0  0  0  0 
 21 22  1  0  0  0  0 
 22 23  1  0  0  0  0 
 23 24  1  0  0  0  0 
  1 28  1  0  0  0  0 
  1 29  1  0  0  0  0 
  1 30  1  0  0  0  0 
  4 31  1  0  0  0  0 
  4 32  1  0  0  0  0 
  5 33  1  0  0  0  0 
  7 34  1  0  0  0  0 
  7 35  1  0  0  0  0 
  8 36  1  0  0  0  0 
  8 37  1  0  0  0  0 
 10 38  1  0  0  0  0 
 10 39  1  0  0  0  0 
 12 40  1  0  0  0  0 
 12 41  1  0  0  0  0 
 13 42  1  0  0  0  0 
 13 43  1  0  0  0  0 
 13 44  1  0  0  0  0 
 15 45  1  0  0  0  0 
 15 46  1  0  0  0  0 
 17 47  1  0  0  0  0 
 18 48  1  0  0  0  0 
 19 49  1  0  0  0  0 
 22 50  1  0  0  0  0 
 22 51  1  0  0  0  0 
 23 52  1  0  0  0  0 
 23 53  1  0  0  0  0 
 24 54  1  0  0  0  0 
 24 55  1  0  0  0  0 
 24 56  1  0  0  0  0 
M  END
> <cdk:Title>
promestriene

> <Conformer>
1

> <SuperDrugID>
SD003329

$$$$
