erythromycin acistrate
  CDK     0628171801

123125  0  0  0  0  0  0  0  0999 V2000
   -1.6442   -1.5165   -5.4920 O   0  0  0  0  0  0  0  0  0  0  0  0
   -2.8409   -1.0899   -4.8053 C   0  0  1  0  0  0  0  0  0  0  0  0
   -0.4320   -0.7062   -5.5095 C   0  0  2  0  0  0  0  0  0  0  0  0
   -3.8266   -2.2979   -4.7995 C   0  0  2  0  0  0  0  0  0  0  0  0
   -2.5017   -0.7040   -3.4555 O   0  0  0  0  0  0  0  0  0  0  0  0
   -0.5887    0.4754   -6.5554 C   0  0  1  0  0  0  0  0  0  0  0  0
    0.8474   -1.6569   -5.6741 C   0  0  2  0  0  0  0  0  0  0  0  0
   -4.2897   -2.5635   -6.1407 O   0  0  0  0  0  0  0  0  0  0  0  0
   -5.0549   -2.0175   -3.8757 C   0  0  1  0  0  0  0  0  0  0  0  0
   -3.6076   -0.3044   -2.6233 C   0  0  1  0  0  0  0  0  0  0  0  0
    0.2977    1.7032   -6.1916 C   0  0  0  0  0  0  0  0  0  0  0  0
   -0.6465    0.0067   -8.0772 C   0  0  2  0  0  0  0  0  0  0  0  0
    1.7359   -1.5907   -4.3886 C   0  0  0  0  0  0  0  0  0  0  0  0
    1.6929   -1.1264   -6.6946 O   0  0  0  0  0  0  0  0  0  0  0  0
    0.5184   -3.1727   -6.0115 C   0  0  1  0  0  0  0  0  0  0  0  0
   -4.5976   -3.7846   -6.6882 C   0  0  0  0  0  0  0  0  0  0  0  0
   -5.9924   -3.1982   -3.8160 N   0  0  1  0  0  0  0  0  0  0  0  0
   -4.5984   -1.4922   -2.4809 C   0  0  2  0  0  0  0  0  0  0  0  0
   -3.0178    0.1374   -1.2623 C   0  0  0  0  0  0  0  0  0  0  0  0
    0.5405   -0.0811   -8.9216 O   0  0  0  0  0  0  0  0  0  0  0  0
   -1.9347    0.4323   -8.8828 C   0  0  1  0  0  0  0  0  0  0  0  0
    1.5194   -3.9868   -6.9178 C   0  0  1  0  0  0  0  0  0  0  0  0
   -5.1638   -3.8720   -8.0397 C   0  0  0  0  0  0  0  0  0  0  0  0
   -4.4203   -4.8520   -6.0577 O   0  0  0  0  0  0  0  0  0  0  0  0
   -5.5758   -4.3800   -2.9993 C   0  0  0  0  0  0  0  0  0  0  0  0
   -7.4281   -2.8477   -3.6114 C   0  0  0  0  0  0  0  0  0  0  0  0
    1.6217    0.8736   -9.0345 C   0  0  1  0  0  0  0  0  0  0  0  0
   -1.7996    1.7563   -9.6759 C   0  0  0  0  0  0  0  0  0  0  0  0
   -2.4290   -0.6728   -9.7561 C   0  0  0  0  0  0  0  0  0  0  0  0
    1.9007   -5.3663   -6.3068 C   0  0  0  0  0  0  0  0  0  0  0  0
    1.0425   -4.1227   -8.3439 C   0  0  0  0  0  0  0  0  0  0  0  0
    2.7619    0.1485   -9.7984 C   0  0  2  0  0  0  0  0  0  0  0  0
    1.2589    2.0758   -9.7417 O   0  0  0  0  0  0  0  0  0  0  0  0
   -3.5754   -1.1356   -9.5660 O   0  0  0  0  0  0  0  0  0  0  0  0
   -1.7162   -1.1259  -10.8269 O   0  0  0  0  0  0  0  0  0  0  0  0
    1.6992   -3.5343   -9.2346 O   0  0  0  0  0  0  0  0  0  0  0  0
   -0.0945   -5.0111   -8.7673 C   0  0  2  0  0  0  0  0  0  0  0  0
    4.0528    1.0267   -9.9423 C   0  0  2  0  0  0  0  0  0  0  0  0
    2.3202    3.0443   -9.9379 C   0  0  2  0  0  0  0  0  0  0  0  0
   -0.7802   -2.2271  -10.9642 C   0  0  2  0  0  0  0  0  0  0  0  0
    0.4616   -6.2437   -9.5439 C   0  0  0  0  0  0  0  0  0  0  0  0
   -1.3719   -4.3406   -9.4167 C   0  0  2  0  0  0  0  0  0  0  0  0
    4.8612    0.2700  -10.8938 O   0  0  0  0  0  0  0  0  0  0  0  0
    4.8277    1.1395   -8.5832 C   0  0  0  0  0  0  0  0  0  0  0  0
    3.6333    2.4237  -10.5347 C   0  0  2  0  0  0  0  0  0  0  0  0
    2.5271    3.9294   -8.6796 C   0  0  0  0  0  0  0  0  0  0  0  0
   -0.0570   -1.8782  -12.3102 C   0  0  1  0  0  0  0  0  0  0  0  0
   -1.3698   -3.6982  -10.8660 C   0  0  1  0  0  0  0  0  0  0  0  0
   -1.9125   -3.4114   -8.4864 O   0  0  0  0  0  0  0  0  0  0  0  0
    6.2086    0.6907  -11.1979 C   0  0  0  0  0  0  0  0  0  0  0  0
    3.4620    2.3029  -11.9505 O   0  0  0  0  0  0  0  0  0  0  0  0
    1.3679   -2.4541  -12.4992 C   0  0  0  0  0  0  0  0  0  0  0  0
   -2.7996   -3.7653  -11.4992 C   0  0  0  0  0  0  0  0  0  0  0  0
   -0.6169   -4.5750  -11.7009 O   0  0  0  0  0  0  0  0  0  0  0  0
    1.9993    1.1090   -8.0538 H   0  0  0  0  0  0  0  0  0  0  0  0
   -3.3021   -0.2536   -5.3392 H   0  0  0  0  0  0  0  0  0  0  0  0
   -0.3606   -0.2239   -4.5312 H   0  0  0  0  0  0  0  0  0  0  0  0
   -3.2720   -3.1600   -4.4197 H   0  0  0  0  0  0  0  0  0  0  0  0
   -1.5754    0.8825   -6.3381 H   0  0  0  0  0  0  0  0  0  0  0  0
   -5.5885   -1.1895   -4.3551 H   0  0  0  0  0  0  0  0  0  0  0  0
   -4.1251    0.5588   -3.0604 H   0  0  0  0  0  0  0  0  0  0  0  0
    0.2665    2.4495   -6.9858 H   0  0  0  0  0  0  0  0  0  0  0  0
    1.3286    1.4108   -5.9944 H   0  0  0  0  0  0  0  0  0  0  0  0
   -0.0649    2.1819   -5.2782 H   0  0  0  0  0  0  0  0  0  0  0  0
   -0.8133   -1.0633   -7.9473 H   0  0  0  0  0  0  0  0  0  0  0  0
    2.0918   -0.5700   -4.2221 H   0  0  0  0  0  0  0  0  0  0  0  0
    2.6109   -2.2412   -4.4729 H   0  0  0  0  0  0  0  0  0  0  0  0
    1.1637   -1.8978   -3.5101 H   0  0  0  0  0  0  0  0  0  0  0  0
    2.5581   -1.5751   -6.6080 H   0  0  0  0  0  0  0  0  0  0  0  0
    0.3660   -3.7012   -5.0664 H   0  0  0  0  0  0  0  0  0  0  0  0
   -0.4433   -3.2318   -6.5024 H   0  0  0  0  0  0  0  0  0  0  0  0
   -4.0945   -2.2938   -1.9372 H   0  0  0  0  0  0  0  0  0  0  0  0
   -5.4712   -1.1741   -1.9048 H   0  0  0  0  0  0  0  0  0  0  0  0
   -3.8161    0.4343   -0.5802 H   0  0  0  0  0  0  0  0  0  0  0  0
   -2.3492    0.9900   -1.4050 H   0  0  0  0  0  0  0  0  0  0  0  0
   -2.4483   -0.6794   -0.8113 H   0  0  0  0  0  0  0  0  0  0  0  0
   -2.7444    0.6161   -8.1684 H   0  0  0  0  0  0  0  0  0  0  0  0
    2.4769   -3.4641   -6.9336 H   0  0  0  0  0  0  0  0  0  0  0  0
   -6.1413   -4.3511   -8.0007 H   0  0  0  0  0  0  0  0  0  0  0  0
   -5.2744   -2.8798   -8.4760 H   0  0  0  0  0  0  0  0  0  0  0  0
   -4.5118   -4.4678   -8.6787 H   0  0  0  0  0  0  0  0  0  0  0  0
   -4.5386   -4.6526   -3.1873 H   0  0  0  0  0  0  0  0  0  0  0  0
   -6.1863   -5.2475   -3.2607 H   0  0  0  0  0  0  0  0  0  0  0  0
   -5.6946   -4.1834   -1.9310 H   0  0  0  0  0  0  0  0  0  0  0  0
   -7.7577   -2.1329   -4.3678 H   0  0  0  0  0  0  0  0  0  0  0  0
   -8.0610   -3.7332   -3.7111 H   0  0  0  0  0  0  0  0  0  0  0  0
   -7.5899   -2.4124   -2.6223 H   0  0  0  0  0  0  0  0  0  0  0  0
   -1.4253    2.5515   -9.0258 H   0  0  0  0  0  0  0  0  0  0  0  0
   -1.1276    1.6404  -10.5259 H   0  0  0  0  0  0  0  0  0  0  0  0
   -2.7745    2.0647  -10.0612 H   0  0  0  0  0  0  0  0  0  0  0  0
    2.6008   -5.8976   -6.9578 H   0  0  0  0  0  0  0  0  0  0  0  0
    2.3853   -5.2270   -5.3382 H   0  0  0  0  0  0  0  0  0  0  0  0
    1.0175   -5.9875   -6.1574 H   0  0  0  0  0  0  0  0  0  0  0  0
    2.3563   -0.0244  -10.8480 H   0  0  0  0  0  0  0  0  0  0  0  0
    3.0368   -0.7784   -9.1977 H   0  0  0  0  0  0  0  0  0  0  0  0
   -0.4915   -5.4559   -7.8494 H   0  0  0  0  0  0  0  0  0  0  0  0
    1.9295    3.7371  -10.6906 H   0  0  0  0  0  0  0  0  0  0  0  0
   -0.0449   -2.1122  -10.1766 H   0  0  0  0  0  0  0  0  0  0  0  0
   -0.3509   -6.8896   -9.8828 H   0  0  0  0  0  0  0  0  0  0  0  0
    1.0506   -5.9380  -10.4094 H   0  0  0  0  0  0  0  0  0  0  0  0
    1.1101   -6.8427   -8.8998 H   0  0  0  0  0  0  0  0  0  0  0  0
   -2.1011   -5.1563   -9.4451 H   0  0  0  0  0  0  0  0  0  0  0  0
    5.6929    1.7967   -8.6855 H   0  0  0  0  0  0  0  0  0  0  0  0
    5.1867    0.1550   -8.2757 H   0  0  0  0  0  0  0  0  0  0  0  0
    4.2137    1.5351   -7.7798 H   0  0  0  0  0  0  0  0  0  0  0  0
    4.4540    3.1332  -10.4088 H   0  0  0  0  0  0  0  0  0  0  0  0
    1.6057    4.4719   -8.4563 H   0  0  0  0  0  0  0  0  0  0  0  0
    3.3188    4.6610   -8.8549 H   0  0  0  0  0  0  0  0  0  0  0  0
    2.7899    3.3386   -7.8051 H   0  0  0  0  0  0  0  0  0  0  0  0
   -0.6791   -2.1984  -13.1462 H   0  0  0  0  0  0  0  0  0  0  0  0
    0.0472   -0.7900  -12.3913 H   0  0  0  0  0  0  0  0  0  0  0  0
   -2.7894   -3.1696   -8.8445 H   0  0  0  0  0  0  0  0  0  0  0  0
    6.5494    0.1345  -12.0712 H   0  0  0  0  0  0  0  0  0  0  0  0
    6.8834    0.4581  -10.3716 H   0  0  0  0  0  0  0  0  0  0  0  0
    6.2662    1.7556  -11.4266 H   0  0  0  0  0  0  0  0  0  0  0  0
    2.7318    1.6616  -12.0731 H   0  0  0  0  0  0  0  0  0  0  0  0
    1.8284   -1.9888  -13.3734 H   0  0  0  0  0  0  0  0  0  0  0  0
    1.3613   -3.5304  -12.6661 H   0  0  0  0  0  0  0  0  0  0  0  0
    1.9866   -2.2465  -11.6266 H   0  0  0  0  0  0  0  0  0  0  0  0
   -2.8195   -3.3000  -12.4860 H   0  0  0  0  0  0  0  0  0  0  0  0
   -3.5371   -3.2672  -10.8737 H   0  0  0  0  0  0  0  0  0  0  0  0
   -3.1255   -4.8023  -11.6149 H   0  0  0  0  0  0  0  0  0  0  0  0
   -1.0514   -5.4504  -11.6297 H   0  0  0  0  0  0  0  0  0  0  0  0
  2  1  1  0  0  0  0 
  4  2  1  0  0  0  0 
  2  5  1  0  0  0  0 
  2 56  1  0  0  0  0 
  3  1  1  0  0  0  0 
  6  3  1  0  0  0  0 
  3  7  1  0  0  0  0 
  4  8  1  0  0  0  0 
  9  4  1  0  0  0  0 
 10  5  1  0  0  0  0 
  6 11  1  0  0  0  0 
 12  6  1  0  0  0  0 
  7 13  1  0  0  0  0 
  7 14  1  0  0  0  0 
  7 15  1  0  0  0  0 
  8 16  1  0  0  0  0 
  9 17  1  0  0  0  0 
  9 18  1  0  0  0  0 
 10 18  1  0  0  0  0 
 10 19  1  0  0  0  0 
 12 20  1  0  0  0  0 
 21 12  1  0  0  0  0 
 22 15  1  0  0  0  0 
 16 23  1  0  0  0  0 
 16 24  2  0  0  0  0 
 17 25  1  0  0  0  0 
 17 26  1  0  0  0  0 
 27 20  1  0  0  0  0 
 21 28  1  0  0  0  0 
 21 29  1  0  0  0  0 
 22 30  1  0  0  0  0 
 22 31  1  0  0  0  0 
 27 32  1  0  0  0  0 
 27 33  1  0  0  0  0 
 27 55  1  0  0  0  0 
 29 34  2  0  0  0  0 
 29 35  1  0  0  0  0 
 31 36  2  0  0  0  0 
 37 31  1  0  0  0  0 
 38 32  1  0  0  0  0 
 39 33  1  0  0  0  0 
 40 35  1  0  0  0  0 
 37 41  1  0  0  0  0 
 42 37  1  0  0  0  0 
 38 43  1  0  0  0  0 
 38 44  1  0  0  0  0 
 45 38  1  0  0  0  0 
 45 39  1  0  0  0  0 
 39 46  1  0  0  0  0 
 40 47  1  0  0  0  0 
 48 40  1  0  0  0  0 
 48 42  1  0  0  0  0 
 42 49  1  0  0  0  0 
 43 50  1  0  0  0  0 
 45 51  1  0  0  0  0 
 47 52  1  0  0  0  0 
 48 53  1  0  0  0  0 
 48 54  1  0  0  0  0 
  3 57  1  0  0  0  0 
  4 58  1  0  0  0  0 
  6 59  1  0  0  0  0 
  9 60  1  0  0  0  0 
 10 61  1  0  0  0  0 
 11 62  1  0  0  0  0 
 11 63  1  0  0  0  0 
 11 64  1  0  0  0  0 
 12 65  1  0  0  0  0 
 13 66  1  0  0  0  0 
 13 67  1  0  0  0  0 
 13 68  1  0  0  0  0 
 14 69  1  0  0  0  0 
 15 70  1  0  0  0  0 
 15 71  1  0  0  0  0 
 18 72  1  0  0  0  0 
 18 73  1  0  0  0  0 
 19 74  1  0  0  0  0 
 19 75  1  0  0  0  0 
 19 76  1  0  0  0  0 
 21 77  1  0  0  0  0 
 22 78  1  0  0  0  0 
 23 79  1  0  0  0  0 
 23 80  1  0  0  0  0 
 23 81  1  0  0  0  0 
 25 82  1  0  0  0  0 
 25 83  1  0  0  0  0 
 25 84  1  0  0  0  0 
 26 85  1  0  0  0  0 
 26 86  1  0  0  0  0 
 26 87  1  0  0  0  0 
 28 88  1  0  0  0  0 
 28 89  1  0  0  0  0 
 28 90  1  0  0  0  0 
 30 91  1  0  0  0  0 
 30 92  1  0  0  0  0 
 30 93  1  0  0  0  0 
 32 94  1  0  0  0  0 
 32 95  1  0  0  0  0 
 37 96  1  0  0  0  0 
 39 97  1  0  0  0  0 
 40 98  1  0  0  0  0 
 41 99  1  0  0  0  0 
 41100  1  0  0  0  0 
 41101  1  0  0  0  0 
 42102  1  0  0  0  0 
 44103  1  0  0  0  0 
 44104  1  0  0  0  0 
 44105  1  0  0  0  0 
 45106  1  0  0  0  0 
 46107  1  0  0  0  0 
 46108  1  0  0  0  0 
 46109  1  0  0  0  0 
 47110  1  0  0  0  0 
 47111  1  0  0  0  0 
 49112  1  0  0  0  0 
 50113  1  0  0  0  0 
 50114  1  0  0  0  0 
 50115  1  0  0  0  0 
 51116  1  0  0  0  0 
 52117  1  0  0  0  0 
 52118  1  0  0  0  0 
 52119  1  0  0  0  0 
 53120  1  0  0  0  0 
 53121  1  0  0  0  0 
 53122  1  0  0  0  0 
 54123  1  0  0  0  0 
M  END
> <cdk:Title>
erythromycin acistrate

> <Conformer>
1

> <SuperDrugID>
SD000935

$$$$
