carumonam
  CDK     0628171802

 44 45  0  0  0  0  0  0  0  0999 V2000
    3.4372    2.0436    0.9910 N   0  0  0  0  0  0  0  0  0  0  0  0
    2.2468    1.3772    0.9892 C   0  0  0  0  0  0  0  0  0  0  0  0
    4.1572    2.4343    2.1639 C   0  0  1  0  0  0  0  0  0  0  0  0
    1.5190    1.1581   -0.1866 C   0  0  0  0  0  0  0  0  0  0  0  0
    1.7808    0.9729    2.0831 O   0  0  0  0  0  0  0  0  0  0  0  0
    5.2432    3.5526    1.9959 C   0  0  1  0  0  0  0  0  0  0  0  0
    3.4547    3.4443    2.9569 C   0  0  0  0  0  0  0  0  0  0  0  0
    0.8005    0.0959   -0.3240 N   0  0  0  0  0  0  0  0  0  0  0  0
    1.4993    2.0818   -1.2467 C   0  0  0  0  0  0  0  0  0  0  0  0
    5.5328    4.0744    0.5647 C   0  0  2  0  0  0  0  0  0  0  0  0
    4.3807    4.3749    2.7749 N   0  0  0  0  0  0  0  0  0  0  0  0
    2.3706    3.4358    3.5836 O   0  0  0  0  0  0  0  0  0  0  0  0
    0.6680   -0.8721    0.5036 O   0  0  0  0  0  0  0  0  0  0  0  0
    2.3415    3.1608   -1.3085 N   0  0  0  0  0  0  0  0  0  0  0  0
    0.6114    2.0078   -2.3414 C   0  0  0  0  0  0  0  0  0  0  0  0
    6.6202    5.0068    0.6180 O   0  0  0  0  0  0  0  0  0  0  0  0
    4.4782    5.9833    3.3434 S   0  0  1  0  0  0  0  0  0  0  0  0
   -0.6182   -1.4836    0.3447 C   0  0  2  0  0  0  0  0  0  0  0  0
    2.2595    3.9898   -2.3705 C   0  0  0  0  0  0  0  0  0  0  0  0
    0.9767    3.3659   -3.3873 S   0  0  0  0  0  0  0  0  0  0  0  0
    7.1645    5.6878   -0.4275 C   0  0  0  0  0  0  0  0  0  0  0  0
    4.9960    5.9899    4.8592 O   0  0  0  0  0  0  0  0  0  0  0  0
    5.4397    6.8776    2.4276 O   0  0  0  0  0  0  0  0  0  0  0  0
    2.9129    6.6702    3.3029 O   0  0  0  0  0  0  0  0  0  0  0  0
   -0.8119   -2.4808    1.4070 C   0  0  0  0  0  0  0  0  0  0  0  0
    3.0184    5.0687   -2.6109 N   0  0  0  0  0  0  0  0  0  0  0  0
    8.1757    6.5375   -0.1870 N   0  0  0  0  0  0  0  0  0  0  0  0
    6.7515    5.5529   -1.6014 O   0  0  0  0  0  0  0  0  0  0  0  0
   -1.1628   -3.7515    1.1056 O   0  0  0  0  0  0  0  0  0  0  0  0
   -0.6768   -2.1601    2.6099 O   0  0  0  0  0  0  0  0  0  0  0  0
    3.8178    2.2830    0.1337 H   0  0  0  0  0  0  0  0  0  0  0  0
    4.5015    1.5876    2.7638 H   0  0  0  0  0  0  0  0  0  0  0  0
    6.1663    3.3116    2.5335 H   0  0  0  0  0  0  0  0  0  0  0  0
    4.6470    4.5630    0.1510 H   0  0  0  0  0  0  0  0  0  0  0  0
    5.8097    3.2360   -0.0779 H   0  0  0  0  0  0  0  0  0  0  0  0
   -0.1144    1.3088   -2.5053 H   0  0  0  0  0  0  0  0  0  0  0  0
   -0.6898   -1.9640   -0.6370 H   0  0  0  0  0  0  0  0  0  0  0  0
   -1.4200   -0.7439    0.4341 H   0  0  0  0  0  0  0  0  0  0  0  0
    2.5931    6.4998    2.3923 H   0  0  0  0  0  0  0  0  0  0  0  0
    2.8811    5.5906   -3.4176 H   0  0  0  0  0  0  0  0  0  0  0  0
    3.7098    5.3258   -1.9827 H   0  0  0  0  0  0  0  0  0  0  0  0
    8.5851    7.0336   -0.9160 H   0  0  0  0  0  0  0  0  0  0  0  0
    8.5015    6.6598    0.7197 H   0  0  0  0  0  0  0  0  0  0  0  0
   -1.3264   -4.4003    1.8207 H   0  0  0  0  0  0  0  0  0  0  0  0
  1  2  1  0  0  0  0 
  2  4  1  0  0  0  0 
  2  5  2  0  0  0  0 
  3  1  1  0  0  0  0 
  3  6  1  0  0  0  0 
  3  7  1  0  0  0  0 
  4  8  2  0  0  0  0 
  4  9  1  0  0  0  0 
  6 10  1  0  0  0  0 
  6 11  1  0  0  0  0 
  7 11  1  0  0  0  0 
  7 12  2  0  0  0  0 
  8 13  1  0  0  0  0 
  9 14  1  0  0  0  0 
  9 15  2  0  0  0  0 
 10 16  1  0  0  0  0 
 11 17  1  0  0  0  0 
 13 18  1  0  0  0  0 
 14 19  2  0  0  0  0 
 15 20  1  0  0  0  0 
 16 21  1  0  0  0  0 
 17 22  2  0  0  0  0 
 17 23  2  0  0  0  0 
 17 24  1  0  0  0  0 
 18 25  1  0  0  0  0 
 19 20  1  0  0  0  0 
 19 26  1  0  0  0  0 
 21 27  1  0  0  0  0 
 21 28  2  0  0  0  0 
 25 29  1  0  0  0  0 
 25 30  2  0  0  0  0 
 31  1  1  0  0  0  0 
  3 32  1  0  0  0  0 
  6 33  1  0  0  0  0 
 34 10  1  0  0  0  0 
 35 10  1  0  0  0  0 
 36 15  1  0  0  0  0 
 37 18  1  0  0  0  0 
 38 18  1  0  0  0  0 
 39 24  1  0  0  0  0 
 40 26  1  0  0  0  0 
 41 26  1  0  0  0  0 
 42 27  1  0  0  0  0 
 43 27  1  0  0  0  0 
 44 29  1  0  0  0  0 
M  END
> <cdk:Title>
carumonam

> <Conformer>
1

> <SuperDrugID>
SD000451

$$$$
