davercin
  CDK     0628171801

118121  0  0  0  0  0  0  0  0999 V2000
    2.0534    8.8072    3.5565 C   0  0  0  0  0  0  0  0  0  0  0  0
    0.6013    8.2603    3.6706 C   0  0  2  0  0  0  0  0  0  0  0  0
    0.3716    7.2310    4.8606 C   0  0  2  0  0  0  0  0  0  0  0  0
    0.0100    7.8023    2.2615 C   0  0  1  0  0  0  0  0  0  0  0  0
   -0.2523    9.3267    4.1130 O   0  0  0  0  0  0  0  0  0  0  0  0
   -0.9620    7.5811    5.2464 O   0  0  0  0  0  0  0  0  0  0  0  0
    1.2397    7.3136    6.1898 C   0  0  1  0  0  0  0  0  0  0  0  0
   -0.1210    8.9702    1.2170 C   0  0  1  0  0  0  0  0  0  0  0  0
    0.7631    6.7464    1.6196 O   0  0  0  0  0  0  0  0  0  0  0  0
   -1.2138    8.8593    4.9276 C   0  0  0  0  0  0  0  0  0  0  0  0
    0.5327    6.6506    7.4164 C   0  0  0  0  0  0  0  0  0  0  0  0
    2.6709    6.8488    6.1046 C   0  0  0  0  0  0  0  0  0  0  0  0
   -1.0926    8.7090    0.0409 C   0  0  0  0  0  0  0  0  0  0  0  0
    0.2832    5.7201    0.8256 C   0  0  0  0  0  0  0  0  0  0  0  0
   -2.2021    9.5124    5.3265 O   0  0  0  0  0  0  0  0  0  0  0  0
    3.5505    7.7452    6.1284 O   0  0  0  0  0  0  0  0  0  0  0  0
    3.1284    5.4126    6.0631 C   0  0  2  0  0  0  0  0  0  0  0  0
   -0.9498    5.5447    0.6770 O   0  0  0  0  0  0  0  0  0  0  0  0
    1.2402    4.8040    0.1345 C   0  0  2  0  0  0  0  0  0  0  0  0
    4.5978    5.2312    6.5551 C   0  0  0  0  0  0  0  0  0  0  0  0
    2.9195    4.7703    4.6420 C   0  0  1  0  0  0  0  0  0  0  0  0
    1.1716    5.1477   -1.3874 C   0  0  0  0  0  0  0  0  0  0  0  0
    1.0394    3.2598    0.4359 C   0  0  1  0  0  0  0  0  0  0  0  0
    1.8549    3.5912    4.4911 C   0  0  1  0  0  0  0  0  0  0  0  0
    1.8556    2.5752   -0.5600 O   0  0  0  0  0  0  0  0  0  0  0  0
    1.4606    2.7283    1.8782 C   0  0  1  0  0  0  0  0  0  0  0  0
    2.5803    2.2459    4.8134 C   0  0  0  0  0  0  0  0  0  0  0  0
    0.8549    3.7018    5.5106 O   0  0  0  0  0  0  0  0  0  0  0  0
    1.0598    3.6426    3.1022 C   0  0  1  0  0  0  0  0  0  0  0  0
    1.4222    1.3392   -1.1748 C   0  0  1  0  0  0  0  0  0  0  0  0
    1.0574    1.2263    2.0762 C   0  0  0  0  0  0  0  0  0  0  0  0
   -0.3468    3.9869    3.2148 O   0  0  0  0  0  0  0  0  0  0  0  0
    1.6837    1.4342   -2.7003 C   0  0  2  0  0  0  0  0  0  0  0  0
    2.2361    0.2957   -0.6049 O   0  0  0  0  0  0  0  0  0  0  0  0
   -1.3424    2.9935    3.5075 C   0  0  1  0  0  0  0  0  0  0  0  0
    1.4508    0.0816   -3.4604 C   0  0  2  0  0  0  0  0  0  0  0  0
    2.0491   -1.0374   -1.1221 C   0  0  2  0  0  0  0  0  0  0  0  0
   -2.5087    3.6552    4.3185 C   0  0  2  0  0  0  0  0  0  0  0  0
   -1.7746    2.4870    2.2264 O   0  0  0  0  0  0  0  0  0  0  0  0
    2.0874    0.0949   -4.7726 O   0  0  0  0  0  0  0  0  0  0  0  0
   -0.0678   -0.2442   -3.6492 C   0  0  0  0  0  0  0  0  0  0  0  0
    2.1901   -1.0706   -2.6807 C   0  0  2  0  0  0  0  0  0  0  0  0
    0.8054   -1.7440   -0.5160 C   0  0  0  0  0  0  0  0  0  0  0  0
   -2.8261    2.8531    5.4605 O   0  0  0  0  0  0  0  0  0  0  0  0
   -3.8052    3.8475    3.4569 C   0  0  1  0  0  0  0  0  0  0  0  0
   -2.9452    1.6515    2.2775 C   0  0  1  0  0  0  0  0  0  0  0  0
    1.7370    1.0900   -5.7533 C   0  0  0  0  0  0  0  0  0  0  0  0
    3.5940   -1.0003   -2.9599 O   0  0  0  0  0  0  0  0  0  0  0  0
   -3.6378    5.0008    2.4781 N   0  0  1  0  0  0  0  0  0  0  0  0
   -4.1688    2.4344    2.8674 C   0  0  1  0  0  0  0  0  0  0  0  0
   -3.1940    1.0802    0.8607 C   0  0  0  0  0  0  0  0  0  0  0  0
   -4.4343    4.9540    1.2128 C   0  0  0  0  0  0  0  0  0  0  0  0
   -3.7962    6.3546    3.1081 C   0  0  0  0  0  0  0  0  0  0  0  0
    0.3618    6.2112    4.4864 H   0  0  0  0  0  0  0  0  0  0  0  0
    0.3583    1.1530   -1.0088 H   0  0  0  0  0  0  0  0  0  0  0  0
   -0.9123    2.1866    4.1058 H   0  0  0  0  0  0  0  0  0  0  0  0
    2.2514    5.0699    0.4564 H   0  0  0  0  0  0  0  0  0  0  0  0
    2.7572    7.9904    3.4008 H   0  0  0  0  0  0  0  0  0  0  0  0
    2.3338    9.3540    4.4576 H   0  0  0  0  0  0  0  0  0  0  0  0
    2.1554    9.5058    2.7281 H   0  0  0  0  0  0  0  0  0  0  0  0
   -0.9975    7.4285    2.4612 H   0  0  0  0  0  0  0  0  0  0  0  0
    1.2680    8.3777    6.4547 H   0  0  0  0  0  0  0  0  0  0  0  0
   -0.4677    9.8816    1.7102 H   0  0  0  0  0  0  0  0  0  0  0  0
    0.8616    9.1869    0.7896 H   0  0  0  0  0  0  0  0  0  0  0  0
    1.1796    6.6542    8.2978 H   0  0  0  0  0  0  0  0  0  0  0  0
   -0.3779    7.1925    7.6855 H   0  0  0  0  0  0  0  0  0  0  0  0
    0.2523    5.6214    7.1931 H   0  0  0  0  0  0  0  0  0  0  0  0
   -2.0848    8.4521    0.4163 H   0  0  0  0  0  0  0  0  0  0  0  0
   -1.1772    9.6087   -0.5725 H   0  0  0  0  0  0  0  0  0  0  0  0
   -0.7283    7.9046   -0.5976 H   0  0  0  0  0  0  0  0  0  0  0  0
    2.5462    4.8754    6.8094 H   0  0  0  0  0  0  0  0  0  0  0  0
    4.8387    4.1710    6.6519 H   0  0  0  0  0  0  0  0  0  0  0  0
    5.3045    5.6808    5.8540 H   0  0  0  0  0  0  0  0  0  0  0  0
    4.7329    5.6988    7.5323 H   0  0  0  0  0  0  0  0  0  0  0  0
    2.6897    5.5951    3.9685 H   0  0  0  0  0  0  0  0  0  0  0  0
    3.8736    4.4082    4.2473 H   0  0  0  0  0  0  0  0  0  0  0  0
    0.2281    4.8085   -1.8209 H   0  0  0  0  0  0  0  0  0  0  0  0
    1.2635    6.2241   -1.5537 H   0  0  0  0  0  0  0  0  0  0  0  0
    1.9903    4.6726   -1.9304 H   0  0  0  0  0  0  0  0  0  0  0  0
   -0.0207    3.0470    0.2682 H   0  0  0  0  0  0  0  0  0  0  0  0
    2.5557    2.7466    1.8671 H   0  0  0  0  0  0  0  0  0  0  0  0
    3.1457    2.3377    5.7428 H   0  0  0  0  0  0  0  0  0  0  0  0
    3.2824    1.9758    4.0243 H   0  0  0  0  0  0  0  0  0  0  0  0
    1.8722    1.4321    4.9591 H   0  0  0  0  0  0  0  0  0  0  0  0
    1.2882    3.4349    6.3462 H   0  0  0  0  0  0  0  0  0  0  0  0
    1.3872    4.5820    2.7223 H   0  0  0  0  0  0  0  0  0  0  0  0
    1.8993    0.5709    1.8512 H   0  0  0  0  0  0  0  0  0  0  0  0
    0.2236    0.9401    1.4368 H   0  0  0  0  0  0  0  0  0  0  0  0
    0.7549    0.9933    3.0898 H   0  0  0  0  0  0  0  0  0  0  0  0
    2.7211    1.7471   -2.8513 H   0  0  0  0  0  0  0  0  0  0  0  0
    1.0445    2.2186   -3.1123 H   0  0  0  0  0  0  0  0  0  0  0  0
    2.8943   -1.6071   -0.7198 H   0  0  0  0  0  0  0  0  0  0  0  0
   -2.1726    4.6058    4.7326 H   0  0  0  0  0  0  0  0  0  0  0  0
   -0.1904   -1.1568   -4.2363 H   0  0  0  0  0  0  0  0  0  0  0  0
   -0.5775   -0.3813   -2.7022 H   0  0  0  0  0  0  0  0  0  0  0  0
   -0.5808    0.5642   -4.1707 H   0  0  0  0  0  0  0  0  0  0  0  0
    1.8675   -2.0469   -3.0538 H   0  0  0  0  0  0  0  0  0  0  0  0
   -0.1080   -1.1751   -0.6652 H   0  0  0  0  0  0  0  0  0  0  0  0
    0.6767   -2.7371   -0.9523 H   0  0  0  0  0  0  0  0  0  0  0  0
    0.9454   -1.8602    0.5608 H   0  0  0  0  0  0  0  0  0  0  0  0
   -1.9973    2.8105    5.9819 H   0  0  0  0  0  0  0  0  0  0  0  0
   -4.6283    4.1086    4.1343 H   0  0  0  0  0  0  0  0  0  0  0  0
   -2.7219    0.7916    2.9201 H   0  0  0  0  0  0  0  0  0  0  0  0
    2.3750    0.9343   -6.6226 H   0  0  0  0  0  0  0  0  0  0  0  0
    1.9080    2.1020   -5.3854 H   0  0  0  0  0  0  0  0  0  0  0  0
    0.7022    0.9852   -6.0770 H   0  0  0  0  0  0  0  0  0  0  0  0
    3.8814   -0.1292   -2.6114 H   0  0  0  0  0  0  0  0  0  0  0  0
   -4.5806    1.8282    3.6805 H   0  0  0  0  0  0  0  0  0  0  0  0
   -4.9804    2.5183    2.1429 H   0  0  0  0  0  0  0  0  0  0  0  0
   -2.3256    0.5080    0.5275 H   0  0  0  0  0  0  0  0  0  0  0  0
   -3.3708    1.8821    0.1436 H   0  0  0  0  0  0  0  0  0  0  0  0
   -4.0609    0.4174    0.8704 H   0  0  0  0  0  0  0  0  0  0  0  0
   -4.1516    4.0909    0.6166 H   0  0  0  0  0  0  0  0  0  0  0  0
   -5.5053    4.9107    1.4256 H   0  0  0  0  0  0  0  0  0  0  0  0
   -4.2421    5.8275    0.5845 H   0  0  0  0  0  0  0  0  0  0  0  0
   -3.1456    6.4770    3.9705 H   0  0  0  0  0  0  0  0  0  0  0  0
   -4.8272    6.5183    3.4342 H   0  0  0  0  0  0  0  0  0  0  0  0
   -3.5319    7.1478    2.4043 H   0  0  0  0  0  0  0  0  0  0  0  0
  2  1  1  0  0  0  0 
  3  2  1  0  0  0  0 
  2  4  1  0  0  0  0 
  2  5  1  0  0  0  0 
  3  6  1  0  0  0  0 
  7  3  1  0  0  0  0 
  3 54  1  0  0  0  0 
  4  8  1  0  0  0  0 
  4  9  1  0  0  0  0 
  5 10  1  0  0  0  0 
  6 10  1  0  0  0  0 
  7 11  1  0  0  0  0 
  7 12  1  0  0  0  0 
  8 13  1  0  0  0  0 
  9 14  1  0  0  0  0 
 10 15  2  0  0  0  0 
 12 16  2  0  0  0  0 
 17 12  1  0  0  0  0 
 14 18  2  0  0  0  0 
 19 14  1  0  0  0  0 
 17 20  1  0  0  0  0 
 17 21  1  0  0  0  0 
 19 22  1  0  0  0  0 
 23 19  1  0  0  0  0 
 19 57  1  0  0  0  0 
 24 21  1  0  0  0  0 
 23 25  1  0  0  0  0 
 26 23  1  0  0  0  0 
 24 27  1  0  0  0  0 
 24 28  1  0  0  0  0 
 29 24  1  0  0  0  0 
 30 25  1  0  0  0  0 
 29 26  1  0  0  0  0 
 26 31  1  0  0  0  0 
 29 32  1  0  0  0  0 
 30 33  1  0  0  0  0 
 30 34  1  0  0  0  0 
 30 55  1  0  0  0  0 
 35 32  1  0  0  0  0 
 36 33  1  0  0  0  0 
 37 34  1  0  0  0  0 
 38 35  1  0  0  0  0 
 35 39  1  0  0  0  0 
 35 56  1  0  0  0  0 
 36 40  1  0  0  0  0 
 36 41  1  0  0  0  0 
 42 36  1  0  0  0  0 
 42 37  1  0  0  0  0 
 37 43  1  0  0  0  0 
 38 44  1  0  0  0  0 
 45 38  1  0  0  0  0 
 46 39  1  0  0  0  0 
 40 47  1  0  0  0  0 
 42 48  1  0  0  0  0 
 45 49  1  0  0  0  0 
 45 50  1  0  0  0  0 
 46 50  1  0  0  0  0 
 46 51  1  0  0  0  0 
 49 52  1  0  0  0  0 
 49 53  1  0  0  0  0 
  1 58  1  0  0  0  0 
  1 59  1  0  0  0  0 
  1 60  1  0  0  0  0 
  4 61  1  0  0  0  0 
  7 62  1  0  0  0  0 
  8 63  1  0  0  0  0 
  8 64  1  0  0  0  0 
 11 65  1  0  0  0  0 
 11 66  1  0  0  0  0 
 11 67  1  0  0  0  0 
 13 68  1  0  0  0  0 
 13 69  1  0  0  0  0 
 13 70  1  0  0  0  0 
 17 71  1  0  0  0  0 
 20 72  1  0  0  0  0 
 20 73  1  0  0  0  0 
 20 74  1  0  0  0  0 
 21 75  1  0  0  0  0 
 21 76  1  0  0  0  0 
 22 77  1  0  0  0  0 
 22 78  1  0  0  0  0 
 22 79  1  0  0  0  0 
 23 80  1  0  0  0  0 
 26 81  1  0  0  0  0 
 27 82  1  0  0  0  0 
 27 83  1  0  0  0  0 
 27 84  1  0  0  0  0 
 28 85  1  0  0  0  0 
 29 86  1  0  0  0  0 
 31 87  1  0  0  0  0 
 31 88  1  0  0  0  0 
 31 89  1  0  0  0  0 
 33 90  1  0  0  0  0 
 33 91  1  0  0  0  0 
 37 92  1  0  0  0  0 
 38 93  1  0  0  0  0 
 41 94  1  0  0  0  0 
 41 95  1  0  0  0  0 
 41 96  1  0  0  0  0 
 42 97  1  0  0  0  0 
 43 98  1  0  0  0  0 
 43 99  1  0  0  0  0 
 43100  1  0  0  0  0 
 44101  1  0  0  0  0 
 45102  1  0  0  0  0 
 46103  1  0  0  0  0 
 47104  1  0  0  0  0 
 47105  1  0  0  0  0 
 47106  1  0  0  0  0 
 48107  1  0  0  0  0 
 50108  1  0  0  0  0 
 50109  1  0  0  0  0 
 51110  1  0  0  0  0 
 51111  1  0  0  0  0 
 51112  1  0  0  0  0 
 52113  1  0  0  0  0 
 52114  1  0  0  0  0 
 52115  1  0  0  0  0 
 53116  1  0  0  0  0 
 53117  1  0  0  0  0 
 53118  1  0  0  0  0 
M  END
> <cdk:Title>
davercin

> <Conformer>
1

> <SuperDrugID>
SD003302

$$$$
