trabectedin
  CDK     0628171802

 97105  0  0  0  0  0  0  0  0999 V2000
    3.8799    8.8487   -0.0344 C   0  0  0  0  0  0  0  0  0  0  0  0
    4.6658    9.7862    0.6519 C   0  0  0  0  0  0  0  0  0  0  0  0
    4.9704    9.5745    2.0050 C   0  0  0  0  0  0  0  0  0  0  0  0
    4.5179    8.4171    2.6860 C   0  0  0  0  0  0  0  0  0  0  0  0
    3.7375    7.4307    1.9993 C   0  0  0  0  0  0  0  0  0  0  0  0
    3.3932    7.7228    0.6547 C   0  0  0  0  0  0  0  0  0  0  0  0
    4.8979    8.3137    4.1175 C   0  0  2  0  0  0  0  0  0  0  0  0
    4.2011    7.0275    4.8371 C   0  0  2  0  0  0  0  0  0  0  0  0
    4.0295    5.8567    3.9186 N   0  0  1  0  0  0  0  0  0  0  0  0
    3.2567    6.1417    2.6633 C   0  0  2  0  0  0  0  0  0  0  0  0
    3.4777    4.8010    1.8632 C   0  0  2  0  0  0  0  0  0  0  0  0
    3.0057    4.4449    0.1337 S   0  0  0  0  0  0  0  0  0  0  0  0
    1.2500    4.3783   -0.3932 C   0  0  2  0  0  0  0  0  0  0  0  0
    0.7749    5.6871   -0.9559 C   0  0  0  0  0  0  0  0  0  0  0  0
   -0.2336    6.4201   -0.2686 C   0  0  0  0  0  0  0  0  0  0  0  0
   -0.9080    5.9151    0.9713 C   0  0  1  0  0  0  0  0  0  0  0  0
   -0.7200    4.4457    1.2928 N   0  0  2  0  0  0  0  0  0  0  0  0
    0.0804    3.6208    0.3272 C   0  0  2  0  0  0  0  0  0  0  0  0
    1.2760    6.1878   -2.2000 C   0  0  0  0  0  0  0  0  0  0  0  0
    0.8676    7.4595   -2.6950 C   0  0  0  0  0  0  0  0  0  0  0  0
   -0.0777    8.1842   -1.9468 C   0  0  0  0  0  0  0  0  0  0  0  0
   -0.6208    7.6759   -0.7826 C   0  0  0  0  0  0  0  0  0  0  0  0
    1.3940    3.7319   -1.2645 H   0  0  0  0  0  0  0  0  0  0  0  0
   -0.6190    3.4802   -0.5139 H   0  0  0  0  0  0  0  0  0  0  0  0
   -1.9747    6.1270    0.8360 H   0  0  0  0  0  0  0  0  0  0  0  0
   -0.5760    9.4049   -2.2381 O   0  0  0  0  0  0  0  0  0  0  0  0
   -1.6145    9.5458   -1.2562 C   0  0  2  0  0  0  0  0  0  0  0  0
   -1.5224    8.5271   -0.2490 O   0  0  0  0  0  0  0  0  0  0  0  0
    1.3683    8.0785   -3.9443 C   0  0  0  0  0  0  0  0  0  0  0  0
    2.1345    5.3823   -2.9059 O   0  0  0  0  0  0  0  0  0  0  0  0
    1.9080    4.8281   -4.1374 C   0  0  0  0  0  0  0  0  0  0  0  0
    0.8477    5.0479   -4.7709 O   0  0  0  0  0  0  0  0  0  0  0  0
    2.8979    3.9172   -4.7282 C   0  0  0  0  0  0  0  0  0  0  0  0
    5.1173   10.8885    0.0020 O   0  0  0  0  0  0  0  0  0  0  0  0
    3.5744    9.0364   -1.3570 O   0  0  0  0  0  0  0  0  0  0  0  0
    4.4935    8.3549   -2.2336 C   0  0  0  0  0  0  0  0  0  0  0  0
   -2.0127    3.7599    1.6665 C   0  0  1  0  0  0  0  0  0  0  0  0
   -2.9464    3.7334    0.5789 O   0  0  0  0  0  0  0  0  0  0  0  0
   -2.4942    4.3037    2.4842 H   0  0  0  0  0  0  0  0  0  0  0  0
   -0.4692    6.7430    2.2084 C   0  0  2  0  0  0  0  0  0  0  0  0
    1.8143    6.1573    3.0130 C   0  0  0  0  0  0  0  0  0  0  0  0
    0.9552    6.7834    2.1820 O   0  0  0  0  0  0  0  0  0  0  0  0
    1.3803    5.5235    4.0072 O   0  0  0  0  0  0  0  0  0  0  0  0
    1.1560    1.7150    4.5286 C   0  0  0  0  0  0  0  0  0  0  0  0
    2.4989    1.2938    4.5017 C   0  0  0  0  0  0  0  0  0  0  0  0
    3.1450    1.1706    3.2469 C   0  0  0  0  0  0  0  0  0  0  0  0
    2.4430    1.4532    2.0486 C   0  0  0  0  0  0  0  0  0  0  0  0
    1.0957    1.8990    2.0787 C   0  0  0  0  0  0  0  0  0  0  0  0
    0.4416    1.9783    3.3410 C   0  0  0  0  0  0  0  0  0  0  0  0
    3.1546    0.9645    5.7954 C   0  0  0  0  0  0  0  0  0  0  0  0
    4.4449    0.7379    3.1841 O   0  0  0  0  0  0  0  0  0  0  0  0
   -1.0240    2.2008    3.4676 C   0  0  2  0  0  0  0  0  0  0  0  0
    3.0709    1.2802    0.8541 O   0  0  0  0  0  0  0  0  0  0  0  0
    5.4022    1.8120    3.2123 C   0  0  0  0  0  0  0  0  0  0  0  0
    0.3057    2.1391    0.8177 C   0  0  1  0  0  0  0  0  0  0  0  0
    0.7689    1.6074   -0.0204 H   0  0  0  0  0  0  0  0  0  0  0  0
   -1.7903    2.2880    2.1130 C   0  0  2  0  0  0  0  0  0  0  0  0
   -1.0710    1.5713    1.0086 N   0  0  2  0  0  0  0  0  0  0  0  0
   -1.1833    0.0846    1.0120 C   0  0  0  0  0  0  0  0  0  0  0  0
   -2.7846    1.8468    2.2522 H   0  0  0  0  0  0  0  0  0  0  0  0
    5.5290   10.2789    2.4957 H   0  0  0  0  0  0  0  0  0  0  0  0
    2.7732    7.1146    0.1424 H   0  0  0  0  0  0  0  0  0  0  0  0
    4.5936    9.2109    4.6624 H   0  0  0  0  0  0  0  0  0  0  0  0
    5.9831    8.2096    4.1942 H   0  0  0  0  0  0  0  0  0  0  0  0
    3.1842    7.2209    5.2672 H   0  0  0  0  0  0  0  0  0  0  0  0
    4.7745    6.6136    5.7061 H   0  0  0  0  0  0  0  0  0  0  0  0
    4.9755    5.5901    3.6349 H   0  0  0  0  0  0  0  0  0  0  0  0
    3.0950    3.9759    2.4599 H   0  0  0  0  0  0  0  0  0  0  0  0
    4.5601    4.6609    1.8143 H   0  0  0  0  0  0  0  0  0  0  0  0
   -2.5869    9.4776   -1.7496 H   0  0  0  0  0  0  0  0  0  0  0  0
   -1.5406   10.5274   -0.7860 H   0  0  0  0  0  0  0  0  0  0  0  0
    0.5385    8.2146   -4.6413 H   0  0  0  0  0  0  0  0  0  0  0  0
    2.1343    7.4819   -4.4355 H   0  0  0  0  0  0  0  0  0  0  0  0
    1.8023    9.0551   -3.7199 H   0  0  0  0  0  0  0  0  0  0  0  0
    3.3085    4.3401   -5.6466 H   0  0  0  0  0  0  0  0  0  0  0  0
    3.7192    3.7273   -4.0347 H   0  0  0  0  0  0  0  0  0  0  0  0
    2.4059    2.9686   -4.9556 H   0  0  0  0  0  0  0  0  0  0  0  0
    5.5097   11.4621    0.6925 H   0  0  0  0  0  0  0  0  0  0  0  0
    4.2111    8.5642   -3.2636 H   0  0  0  0  0  0  0  0  0  0  0  0
    5.5200    8.7031   -2.0952 H   0  0  0  0  0  0  0  0  0  0  0  0
    4.4523    7.2727   -2.0871 H   0  0  0  0  0  0  0  0  0  0  0  0
   -3.2283    4.6604    0.4428 H   0  0  0  0  0  0  0  0  0  0  0  0
   -0.8587    6.2892    3.1239 H   0  0  0  0  0  0  0  0  0  0  0  0
   -0.8462    7.7661    2.1655 H   0  0  0  0  0  0  0  0  0  0  0  0
    0.6741    1.7900    5.4304 H   0  0  0  0  0  0  0  0  0  0  0  0
    4.1748    0.5995    5.6771 H   0  0  0  0  0  0  0  0  0  0  0  0
    3.1806    1.8502    6.4327 H   0  0  0  0  0  0  0  0  0  0  0  0
    2.5847    0.1863    6.3058 H   0  0  0  0  0  0  0  0  0  0  0  0
   -1.2037    3.0904    4.0769 H   0  0  0  0  0  0  0  0  0  0  0  0
   -1.4409    1.3517    4.0181 H   0  0  0  0  0  0  0  0  0  0  0  0
    3.9734    0.9603    1.0568 H   0  0  0  0  0  0  0  0  0  0  0  0
    6.3982    1.3770    3.2914 H   0  0  0  0  0  0  0  0  0  0  0  0
    5.3599    2.3949    2.2922 H   0  0  0  0  0  0  0  0  0  0  0  0
    5.2522    2.4751    4.0682 H   0  0  0  0  0  0  0  0  0  0  0  0
   -2.2316   -0.2047    0.9359 H   0  0  0  0  0  0  0  0  0  0  0  0
   -0.7641   -0.3517    1.9188 H   0  0  0  0  0  0  0  0  0  0  0  0
   -0.6629   -0.3407    0.1528 H   0  0  0  0  0  0  0  0  0  0  0  0
  1  2  2  0  0  0  0 
  2  3  1  0  0  0  0 
  3  4  2  0  0  0  0 
  4  5  1  0  0  0  0 
  5  6  2  0  0  0  0 
  6  1  1  0  0  0  0 
  4  7  1  0  0  0  0 
  7  8  1  0  0  0  0 
  8  9  1  0  0  0  0 
  9 10  1  0  0  0  0 
 10  5  1  0  0  0  0 
 10 11  1  0  0  0  0 
 11 12  1  0  0  0  0 
 13 12  1  0  0  0  0 
 13 14  1  0  0  0  0 
 14 15  2  0  0  0  0 
 15 16  1  0  0  0  0 
 16 17  1  0  0  0  0 
 17 18  1  0  0  0  0 
 18 13  1  0  0  0  0 
 14 19  1  0  0  0  0 
 19 20  2  0  0  0  0 
 20 21  1  0  0  0  0 
 21 22  2  0  0  0  0 
 22 15  1  0  0  0  0 
 13 23  1  0  0  0  0 
 18 24  1  0  0  0  0 
 16 25  1  0  0  0  0 
 21 26  1  0  0  0  0 
 26 27  1  0  0  0  0 
 27 28  1  0  0  0  0 
 28 22  1  0  0  0  0 
 20 29  1  0  0  0  0 
 19 30  1  0  0  0  0 
 30 31  1  0  0  0  0 
 31 32  2  0  0  0  0 
 31 33  1  0  0  0  0 
  2 34  1  0  0  0  0 
  1 35  1  0  0  0  0 
 35 36  1  0  0  0  0 
 17 37  1  0  0  0  0 
 37 38  1  0  0  0  0 
 37 39  1  0  0  0  0 
 16 40  1  0  0  0  0 
 10 41  1  0  0  0  0 
 40 42  1  0  0  0  0 
 41 43  2  0  0  0  0 
 44 45  2  0  0  0  0 
 45 46  1  0  0  0  0 
 46 47  2  0  0  0  0 
 47 48  1  0  0  0  0 
 48 49  2  0  0  0  0 
 49 44  1  0  0  0  0 
 45 50  1  0  0  0  0 
 46 51  1  0  0  0  0 
 49 52  1  0  0  0  0 
 47 53  1  0  0  0  0 
 51 54  1  0  0  0  0 
 18 55  1  0  0  0  0 
 55 56  1  0  0  0  0 
 55 48  1  0  0  0  0 
 42 41  1  0  0  0  0 
 37 57  1  0  0  0  0 
 58 59  1  0  0  0  0 
 57 52  1  0  0  0  0 
 57 60  1  0  0  0  0 
 57 58  1  0  0  0  0 
 58 55  1  0  0  0  0 
  3 61  1  0  0  0  0 
  6 62  1  0  0  0  0 
  7 63  1  0  0  0  0 
  7 64  1  0  0  0  0 
  8 65  1  0  0  0  0 
  8 66  1  0  0  0  0 
  9 67  1  0  0  0  0 
 11 68  1  0  0  0  0 
 11 69  1  0  0  0  0 
 27 70  1  0  0  0  0 
 27 71  1  0  0  0  0 
 29 72  1  0  0  0  0 
 29 73  1  0  0  0  0 
 29 74  1  0  0  0  0 
 33 75  1  0  0  0  0 
 33 76  1  0  0  0  0 
 33 77  1  0  0  0  0 
 34 78  1  0  0  0  0 
 36 79  1  0  0  0  0 
 36 80  1  0  0  0  0 
 36 81  1  0  0  0  0 
 38 82  1  0  0  0  0 
 40 83  1  0  0  0  0 
 40 84  1  0  0  0  0 
 44 85  1  0  0  0  0 
 50 86  1  0  0  0  0 
 50 87  1  0  0  0  0 
 50 88  1  0  0  0  0 
 52 89  1  0  0  0  0 
 52 90  1  0  0  0  0 
 53 91  1  0  0  0  0 
 54 92  1  0  0  0  0 
 54 93  1  0  0  0  0 
 54 94  1  0  0  0  0 
 59 95  1  0  0  0  0 
 59 96  1  0  0  0  0 
 59 97  1  0  0  0  0 
M  END
> <cdk:Title>
trabectedin

> <Conformer>
1

> <SuperDrugID>
SD003672

$$$$
