meprobamate
  CDK     0628171801

 33 32  0  0  0  0  0  0  0  0999 V2000
   -7.0275   -1.8027   10.9004 C   0  0  1  0  0  0  0  0  0  0  0  0
   -6.3576   -0.3820   10.9459 C   0  0  1  0  0  0  0  0  0  0  0  0
   -8.2738   -1.8118   11.8551 C   0  0  1  0  0  0  0  0  0  0  0  0
   -7.5285   -2.1577    9.4466 C   0  0  1  0  0  0  0  0  0  0  0  0
   -6.0107   -2.8811   11.4028 C   0  0  0  0  0  0  0  0  0  0  0  0
   -7.2084    0.6244   10.3749 O   0  0  0  0  0  0  0  0  0  0  0  0
   -7.9471   -1.3698   13.1821 O   0  0  0  0  0  0  0  0  0  0  0  0
   -6.4680   -2.1527    8.3053 C   0  0  2  0  0  0  0  0  0  0  0  0
   -6.9067    1.9435   10.2084 C   0  0  0  0  0  0  0  0  0  0  0  0
   -8.7982   -1.2772   14.2393 C   0  0  0  0  0  0  0  0  0  0  0  0
   -7.0818   -2.3901    6.9062 C   0  0  0  0  0  0  0  0  0  0  0  0
   -7.8254    2.7483    9.6536 N   0  0  0  0  0  0  0  0  0  0  0  0
   -5.8060    2.4311   10.5509 O   0  0  0  0  0  0  0  0  0  0  0  0
   -8.3335   -0.7640   15.3879 N   0  0  0  0  0  0  0  0  0  0  0  0
   -9.9931   -1.6464   14.1719 O   0  0  0  0  0  0  0  0  0  0  0  0
   -6.1245   -0.0980   11.9761 H   0  0  0  0  0  0  0  0  0  0  0  0
   -5.4110   -0.3946   10.4014 H   0  0  0  0  0  0  0  0  0  0  0  0
   -9.0500   -1.1508   11.4570 H   0  0  0  0  0  0  0  0  0  0  0  0
   -8.6911   -2.8216   11.9164 H   0  0  0  0  0  0  0  0  0  0  0  0
   -7.9929   -3.1495    9.4632 H   0  0  0  0  0  0  0  0  0  0  0  0
   -8.3132   -1.4493    9.1650 H   0  0  0  0  0  0  0  0  0  0  0  0
   -5.0990   -2.8779   10.8016 H   0  0  0  0  0  0  0  0  0  0  0  0
   -6.4495   -3.8819   11.3486 H   0  0  0  0  0  0  0  0  0  0  0  0
   -5.7231   -2.6943   12.4401 H   0  0  0  0  0  0  0  0  0  0  0  0
   -5.7248   -2.9324    8.4897 H   0  0  0  0  0  0  0  0  0  0  0  0
   -5.9538   -1.1900    8.2773 H   0  0  0  0  0  0  0  0  0  0  0  0
   -6.2957   -2.3508    6.1496 H   0  0  0  0  0  0  0  0  0  0  0  0
   -7.8199   -1.6188    6.6782 H   0  0  0  0  0  0  0  0  0  0  0  0
   -7.5630   -3.3686    6.8604 H   0  0  0  0  0  0  0  0  0  0  0  0
   -7.6352    3.6937    9.5331 H   0  0  0  0  0  0  0  0  0  0  0  0
   -8.6824    2.3868    9.3731 H   0  0  0  0  0  0  0  0  0  0  0  0
   -8.9216   -0.6738   16.1555 H   0  0  0  0  0  0  0  0  0  0  0  0
   -7.4090   -0.4731   15.4489 H   0  0  0  0  0  0  0  0  0  0  0  0
  1  2  1  0  0  0  0 
  1  3  1  0  0  0  0 
  1  4  1  0  0  0  0 
  1  5  1  0  0  0  0 
  2  6  1  0  0  0  0 
  3  7  1  0  0  0  0 
  4  8  1  0  0  0  0 
  6  9  1  0  0  0  0 
  7 10  1  0  0  0  0 
  8 11  1  0  0  0  0 
  9 12  1  0  0  0  0 
  9 13  2  0  0  0  0 
 10 14  1  0  0  0  0 
 10 15  2  0  0  0  0 
 16  2  1  0  0  0  0 
 17  2  1  0  0  0  0 
 18  3  1  0  0  0  0 
 19  3  1  0  0  0  0 
 20  4  1  0  0  0  0 
 21  4  1  0  0  0  0 
 22  5  1  0  0  0  0 
 23  5  1  0  0  0  0 
 24  5  1  0  0  0  0 
 25  8  1  0  0  0  0 
 26  8  1  0  0  0  0 
 27 11  1  0  0  0  0 
 28 11  1  0  0  0  0 
 29 11  1  0  0  0  0 
 30 12  1  0  0  0  0 
 31 12  1  0  0  0  0 
 32 14  1  0  0  0  0 
 33 14  1  0  0  0  0 
M  END
> <cdk:Title>
meprobamate

> <Conformer>
1

> <SuperDrugID>
SD001507

$$$$
