alanyl glutamine
  CDK     0628171801

 30 29  0  0  0  0  0  0  0  0999 V2000
   -0.9193   -2.0434    0.1736 C   0  0  1  0  0  0  0  0  0  0  0  0
   -0.9993   -0.6141    0.1558 N   0  0  0  0  0  0  0  0  0  0  0  0
   -2.0761   -2.6443    1.0230 C   0  0  2  0  0  0  0  0  0  0  0  0
   -0.9877   -2.5475   -1.2186 C   0  0  0  0  0  0  0  0  0  0  0  0
    0.0094    0.2404   -0.1771 C   0  0  0  0  0  0  0  0  0  0  0  0
   -2.0280   -2.2535    2.5265 C   0  0  2  0  0  0  0  0  0  0  0  0
   -2.0006   -2.1958   -2.0440 O   0  0  0  0  0  0  0  0  0  0  0  0
   -0.1070   -3.3144   -1.6677 O   0  0  0  0  0  0  0  0  0  0  0  0
   -0.2574    1.6947   -0.2666 C   0  0  2  0  0  0  0  0  0  0  0  0
    1.1590   -0.1887   -0.4381 O   0  0  0  0  0  0  0  0  0  0  0  0
   -3.1380   -2.8648    3.2872 C   0  0  0  0  0  0  0  0  0  0  0  0
   -0.7362    2.3062    1.0712 C   0  0  0  0  0  0  0  0  0  0  0  0
   -1.2541    1.9440   -1.3173 N   0  0  1  0  0  0  0  0  0  0  0  0
   -4.4093   -2.4899    3.0550 N   0  0  0  0  0  0  0  0  0  0  0  0
   -2.9177   -3.7390    4.1550 O   0  0  0  0  0  0  0  0  0  0  0  0
    0.0258   -2.3568    0.6314 H   0  0  0  0  0  0  0  0  0  0  0  0
   -1.8619   -0.2216    0.3643 H   0  0  0  0  0  0  0  0  0  0  0  0
   -2.0288   -3.7368    0.9566 H   0  0  0  0  0  0  0  0  0  0  0  0
   -3.0333   -2.3241    0.5997 H   0  0  0  0  0  0  0  0  0  0  0  0
   -2.0917   -1.1684    2.6387 H   0  0  0  0  0  0  0  0  0  0  0  0
   -1.0720   -2.5764    2.9482 H   0  0  0  0  0  0  0  0  0  0  0  0
   -2.0227   -2.5380   -2.9627 H   0  0  0  0  0  0  0  0  0  0  0  0
    0.6559    2.2171   -0.5647 H   0  0  0  0  0  0  0  0  0  0  0  0
    0.0179    2.1604    1.8465 H   0  0  0  0  0  0  0  0  0  0  0  0
   -1.6716    1.8486    1.3986 H   0  0  0  0  0  0  0  0  0  0  0  0
   -0.9014    3.3786    0.9507 H   0  0  0  0  0  0  0  0  0  0  0  0
   -0.8962    1.5269   -2.1795 H   0  0  0  0  0  0  0  0  0  0  0  0
   -2.0993    1.4276   -1.0653 H   0  0  0  0  0  0  0  0  0  0  0  0
   -4.5991   -1.8076    2.3929 H   0  0  0  0  0  0  0  0  0  0  0  0
   -5.1388   -2.9013    3.5431 H   0  0  0  0  0  0  0  0  0  0  0  0
  1  2  1  0  0  0  0 
  1  3  1  0  0  0  0 
  1  4  1  0  0  0  0 
  2  5  1  0  0  0  0 
  3  6  1  0  0  0  0 
  4  7  1  0  0  0  0 
  4  8  2  0  0  0  0 
  9  5  1  0  0  0  0 
  5 10  2  0  0  0  0 
  6 11  1  0  0  0  0 
  9 12  1  0  0  0  0 
  9 13  1  0  0  0  0 
 11 14  1  0  0  0  0 
 11 15  2  0  0  0  0 
  1 16  1  0  0  0  0 
  2 17  1  0  0  0  0 
  3 18  1  0  0  0  0 
  3 19  1  0  0  0  0 
  6 20  1  0  0  0  0 
  6 21  1  0  0  0  0 
  7 22  1  0  0  0  0 
  9 23  1  0  0  0  0 
 12 24  1  0  0  0  0 
 12 25  1  0  0  0  0 
 12 26  1  0  0  0  0 
 13 27  1  0  0  0  0 
 13 28  1  0  0  0  0 
 14 29  1  0  0  0  0 
 14 30  1  0  0  0  0 
M  END
> <cdk:Title>
alanyl glutamine

> <Conformer>
1

> <SuperDrugID>
SD003496

$$$$
