eritrityl tetranitrate
  CDK     0628171801

 26 25  0  0  0  0  0  0  0  0999 V2000
   -2.5599    0.5143   -1.2739 C   0  0  1  0  0  0  0  0  0  0  0  0
   -2.1136    0.0890    0.1712 C   0  0  2  0  0  0  0  0  0  0  0  0
   -2.8423   -0.6907   -2.2096 C   0  0  2  0  0  0  0  0  0  0  0  0
   -3.7598    1.3283   -1.2702 O   0  0  0  0  0  0  0  0  0  0  0  0
   -0.7238   -0.6083    0.2143 C   0  0  1  0  0  0  0  0  0  0  0  0
   -3.0525   -0.8039    0.8201 O   0  0  0  0  0  0  0  0  0  0  0  0
   -3.2664   -0.2003   -3.4981 O   0  0  0  0  0  0  0  0  0  0  0  0
   -3.5869    2.5528   -0.9288 N   0  0  0  0  0  0  0  0  0  0  0  0
    0.2853    0.2367   -0.3794 O   0  0  0  0  0  0  0  0  0  0  0  0
   -4.1163   -0.2507    1.2738 N   0  0  0  0  0  0  0  0  0  0  0  0
   -3.5650   -1.1402   -4.3134 N   0  0  0  0  0  0  0  0  0  0  0  0
   -3.3842    3.3645   -1.7424 O   0  0  0  0  0  0  0  0  0  0  0  0
   -3.7055    2.9147    0.2813 O   0  0  0  0  0  0  0  0  0  0  0  0
    1.4375   -0.3179   -0.4459 N   0  0  0  0  0  0  0  0  0  0  0  0
   -5.1971   -0.3003    0.6148 O   0  0  0  0  0  0  0  0  0  0  0  0
   -4.1226    0.2478    2.3293 O   0  0  0  0  0  0  0  0  0  0  0  0
   -4.6974   -1.7092   -4.2616 O   0  0  0  0  0  0  0  0  0  0  0  0
   -2.8128   -1.4475   -5.1507 O   0  0  0  0  0  0  0  0  0  0  0  0
    2.2678   -0.0340    0.3219 O   0  0  0  0  0  0  0  0  0  0  0  0
    1.7133   -1.1322   -1.3780 O   0  0  0  0  0  0  0  0  0  0  0  0
   -1.7472    1.0829   -1.7407 H   0  0  0  0  0  0  0  0  0  0  0  0
   -1.9991    0.9951    0.7737 H   0  0  0  0  0  0  0  0  0  0  0  0
   -3.6178   -1.3241   -1.7683 H   0  0  0  0  0  0  0  0  0  0  0  0
   -1.9329   -1.2844   -2.3358 H   0  0  0  0  0  0  0  0  0  0  0  0
   -0.4562   -0.8033    1.2578 H   0  0  0  0  0  0  0  0  0  0  0  0
   -0.7801   -1.5720   -0.2988 H   0  0  0  0  0  0  0  0  0  0  0  0
  2  1  1  0  0  0  0 
  1  3  1  0  0  0  0 
  1  4  1  0  0  0  0 
  2  5  1  0  0  0  0 
  2  6  1  0  0  0  0 
  3  7  1  0  0  0  0 
  4  8  1  0  0  0  0 
  5  9  1  0  0  0  0 
  6 10  1  0  0  0  0 
  7 11  1  0  0  0  0 
  8 12  2  0  0  0  0 
  8 13  1  0  0  0  0 
  9 14  1  0  0  0  0 
 10 15  1  0  0  0  0 
 10 16  2  0  0  0  0 
 11 17  1  0  0  0  0 
 11 18  2  0  0  0  0 
 14 19  2  0  0  0  0 
 14 20  1  0  0  0  0 
  1 21  1  0  0  0  0 
  2 22  1  0  0  0  0 
  3 23  1  0  0  0  0 
  3 24  1  0  0  0  0 
  5 25  1  0  0  0  0 
  5 26  1  0  0  0  0 
M  CHG  1   8   1
M  CHG  1  10   1
M  CHG  1  11   1
M  CHG  1  13  -1
M  CHG  1  14   1
M  CHG  1  15  -1
M  CHG  1  17  -1
M  CHG  1  20  -1
M  END
> <cdk:Title>
eritrityl tetranitrate

> <Conformer>
1

> <SuperDrugID>
SD000933

$$$$
