pramiverine
  CDK     0628171801

 49 51  0  0  0  0  0  0  0  0999 V2000
    0.2521    0.7930    4.4232 C   0  0  2  0  0  0  0  0  0  0  0  0
    0.3649    0.2133    5.8633 C   0  0  2  0  0  0  0  0  0  0  0  0
    0.9579   -1.2606    5.9183 C   0  0  1  0  0  0  0  0  0  0  0  0
   -0.0617   -2.0965    5.0468 C   0  0  1  0  0  0  0  0  0  0  0  0
   -0.2721   -1.5641    3.5975 C   0  0  2  0  0  0  0  0  0  0  0  0
   -0.7030   -0.0722    3.5469 C   0  0  2  0  0  0  0  0  0  0  0  0
    2.4041   -1.2462    5.4019 C   0  0  0  0  0  0  0  0  0  0  0  0
    0.9227   -1.9019    7.3117 C   0  0  0  0  0  0  0  0  0  0  0  0
   -0.7222    0.3243    2.1128 N   0  0  2  0  0  0  0  0  0  0  0  0
    3.3506   -0.3047    5.9009 C   0  0  0  0  0  0  0  0  0  0  0  0
    4.6937   -0.2968    5.4798 C   0  0  0  0  0  0  0  0  0  0  0  0
    5.1547   -1.2654    4.5779 C   0  0  0  0  0  0  0  0  0  0  0  0
    4.2624   -2.2286    4.0858 C   0  0  0  0  0  0  0  0  0  0  0  0
    2.9153   -2.2168    4.4938 C   0  0  0  0  0  0  0  0  0  0  0  0
   -0.1236   -1.6447    8.2460 C   0  0  0  0  0  0  0  0  0  0  0  0
   -0.1734   -2.2650    9.5097 C   0  0  0  0  0  0  0  0  0  0  0  0
    0.8206   -3.1817    9.8846 C   0  0  0  0  0  0  0  0  0  0  0  0
    1.8503   -3.4890    8.9851 C   0  0  0  0  0  0  0  0  0  0  0  0
    1.8860   -2.8731    7.7213 C   0  0  0  0  0  0  0  0  0  0  0  0
   -1.2154    1.6671    1.7135 C   0  0  2  0  0  0  0  0  0  0  0  0
   -2.7106    1.9010    2.0562 C   0  0  0  0  0  0  0  0  0  0  0  0
   -0.9799    1.7983    0.1887 C   0  0  0  0  0  0  0  0  0  0  0  0
    1.2386    0.8469    3.9572 H   0  0  0  0  0  0  0  0  0  0  0  0
   -0.1369    1.8115    4.4948 H   0  0  0  0  0  0  0  0  0  0  0  0
   -0.6519    0.2432    6.2592 H   0  0  0  0  0  0  0  0  0  0  0  0
    0.9340    0.9021    6.4877 H   0  0  0  0  0  0  0  0  0  0  0  0
    0.2397   -3.1448    5.0011 H   0  0  0  0  0  0  0  0  0  0  0  0
   -1.0451   -2.0918    5.5306 H   0  0  0  0  0  0  0  0  0  0  0  0
   -1.0387   -2.1747    3.1126 H   0  0  0  0  0  0  0  0  0  0  0  0
    0.6459   -1.6823    3.0211 H   0  0  0  0  0  0  0  0  0  0  0  0
   -1.7199   -0.0059    3.9458 H   0  0  0  0  0  0  0  0  0  0  0  0
   -1.2969   -0.3577    1.6141 H   0  0  0  0  0  0  0  0  0  0  0  0
    3.0832    0.3918    6.5960 H   0  0  0  0  0  0  0  0  0  0  0  0
    5.3396    0.4086    5.8407 H   0  0  0  0  0  0  0  0  0  0  0  0
    6.1358   -1.2789    4.2895 H   0  0  0  0  0  0  0  0  0  0  0  0
    4.5956   -2.9451    3.4374 H   0  0  0  0  0  0  0  0  0  0  0  0
    2.3237   -2.9591    4.1251 H   0  0  0  0  0  0  0  0  0  0  0  0
   -0.8914   -1.0131    8.0245 H   0  0  0  0  0  0  0  0  0  0  0  0
   -0.9390   -2.0562   10.1554 H   0  0  0  0  0  0  0  0  0  0  0  0
    0.7909   -3.6292   10.8041 H   0  0  0  0  0  0  0  0  0  0  0  0
    2.5711   -4.1674    9.2441 H   0  0  0  0  0  0  0  0  0  0  0  0
    2.6372   -3.1707    7.0988 H   0  0  0  0  0  0  0  0  0  0  0  0
   -0.6150    2.4366    2.2052 H   0  0  0  0  0  0  0  0  0  0  0  0
   -2.8578    1.9528    3.1344 H   0  0  0  0  0  0  0  0  0  0  0  0
   -3.0548    2.8458    1.6334 H   0  0  0  0  0  0  0  0  0  0  0  0
   -3.3256    1.0940    1.6547 H   0  0  0  0  0  0  0  0  0  0  0  0
   -1.2616    2.7954   -0.1549 H   0  0  0  0  0  0  0  0  0  0  0  0
    0.0748    1.6397   -0.0454 H   0  0  0  0  0  0  0  0  0  0  0  0
   -1.5736    1.0591   -0.3541 H   0  0  0  0  0  0  0  0  0  0  0  0
  1  2  1  0  0  0  0 
  2  3  1  0  0  0  0 
  3  4  1  0  0  0  0 
  4  5  1  0  0  0  0 
  5  6  1  0  0  0  0 
  1  6  1  0  0  0  0 
  3  7  1  0  0  0  0 
  3  8  1  0  0  0  0 
  6  9  1  0  0  0  0 
 10 11  1  0  0  0  0 
 11 12  2  0  0  0  0 
 12 13  1  0  0  0  0 
 13 14  2  0  0  0  0 
  7 10  2  0  0  0  0 
  7 14  1  0  0  0  0 
 15 16  1  0  0  0  0 
 16 17  2  0  0  0  0 
 17 18  1  0  0  0  0 
 18 19  2  0  0  0  0 
  8 15  2  0  0  0  0 
  8 19  1  0  0  0  0 
  9 20  1  0  0  0  0 
 20 21  1  0  0  0  0 
 20 22  1  0  0  0  0 
  1 23  1  0  0  0  0 
  1 24  1  0  0  0  0 
  2 25  1  0  0  0  0 
  2 26  1  0  0  0  0 
  4 27  1  0  0  0  0 
  4 28  1  0  0  0  0 
  5 29  1  0  0  0  0 
  5 30  1  0  0  0  0 
  6 31  1  0  0  0  0 
  9 32  1  0  0  0  0 
 10 33  1  0  0  0  0 
 11 34  1  0  0  0  0 
 12 35  1  0  0  0  0 
 13 36  1  0  0  0  0 
 14 37  1  0  0  0  0 
 15 38  1  0  0  0  0 
 16 39  1  0  0  0  0 
 17 40  1  0  0  0  0 
 18 41  1  0  0  0  0 
 19 42  1  0  0  0  0 
 20 43  1  0  0  0  0 
 21 44  1  0  0  0  0 
 21 45  1  0  0  0  0 
 21 46  1  0  0  0  0 
 22 47  1  0  0  0  0 
 22 48  1  0  0  0  0 
 22 49  1  0  0  0  0 
M  END
> <cdk:Title>
pramiverine

> <Conformer>
1

> <SuperDrugID>
SD002004

$$$$
