glipizide
  CDK     0628171801

 58 60  0  0  0  0  0  0  0  0999 V2000
    3.9355   -2.4523   -4.9619 S   0  0  2  0  0  0  0  0  0  0  0  0
    4.4697   -0.8759   -5.3944 N   0  0  0  0  0  0  0  0  0  0  0  0
    2.6374   -2.8080   -5.8377 O   0  0  0  0  0  0  0  0  0  0  0  0
    3.5044   -2.4325   -3.4157 O   0  0  0  0  0  0  0  0  0  0  0  0
    5.1637   -3.7020   -5.2251 C   0  0  0  0  0  0  0  0  0  0  0  0
    3.6975    0.2329   -5.2691 C   0  0  0  0  0  0  0  0  0  0  0  0
    4.9809   -4.9816   -4.6608 C   0  0  0  0  0  0  0  0  0  0  0  0
    6.2975   -3.4535   -6.0229 C   0  0  0  0  0  0  0  0  0  0  0  0
    4.2140    1.4327   -5.6547 N   0  0  0  0  0  0  0  0  0  0  0  0
    2.5310    0.1521   -4.8142 O   0  0  0  0  0  0  0  0  0  0  0  0
    5.9152   -6.0054   -4.9019 C   0  0  0  0  0  0  0  0  0  0  0  0
    7.2327   -4.4766   -6.2588 C   0  0  0  0  0  0  0  0  0  0  0  0
    3.5307    2.6971   -5.5939 C   0  0  2  0  0  0  0  0  0  0  0  0
    7.0505   -5.7679   -5.7096 C   0  0  0  0  0  0  0  0  0  0  0  0
    2.4452    2.7944   -6.7100 C   0  0  1  0  0  0  0  0  0  0  0  0
    4.5622    3.8595   -5.7121 C   0  0  2  0  0  0  0  0  0  0  0  0
    8.0122   -6.8652   -6.0034 C   0  0  2  0  0  0  0  0  0  0  0  0
    1.7705    4.1892   -6.7643 C   0  0  2  0  0  0  0  0  0  0  0  0
    3.8672    5.2474   -5.7563 C   0  0  2  0  0  0  0  0  0  0  0  0
    7.4004   -7.9548   -6.9343 C   0  0  2  0  0  0  0  0  0  0  0  0
    2.8200    5.3207   -6.8972 C   0  0  2  0  0  0  0  0  0  0  0  0
    8.3551   -8.3906   -7.9080 N   0  0  0  0  0  0  0  0  0  0  0  0
    8.1121   -9.2914   -8.9028 C   0  0  0  0  0  0  0  0  0  0  0  0
    6.9990   -9.8678   -8.9567 O   0  0  0  0  0  0  0  0  0  0  0  0
    9.0741   -9.5648   -9.9091 C   0  0  0  0  0  0  0  0  0  0  0  0
   10.3883   -9.0421   -9.9040 C   0  0  0  0  0  0  0  0  0  0  0  0
    8.7350  -10.3543  -10.9676 N   0  0  0  0  0  0  0  0  0  0  0  0
   11.2246   -9.3223  -10.9355 N   0  0  0  0  0  0  0  0  0  0  0  0
    9.5726  -10.6480  -11.9959 C   0  0  0  0  0  0  0  0  0  0  0  0
   10.8737  -10.1040  -11.9899 C   0  0  0  0  0  0  0  0  0  0  0  0
   11.8558  -10.3718  -13.0581 C   0  0  0  0  0  0  0  0  0  0  0  0
    5.3674   -0.7750   -5.7462 H   0  0  0  0  0  0  0  0  0  0  0  0
    4.1602   -5.1806   -4.0827 H   0  0  0  0  0  0  0  0  0  0  0  0
    6.4455   -2.5363   -6.4501 H   0  0  0  0  0  0  0  0  0  0  0  0
    5.1148    1.4300   -6.0159 H   0  0  0  0  0  0  0  0  0  0  0  0
    5.7555   -6.9286   -4.4919 H   0  0  0  0  0  0  0  0  0  0  0  0
    8.0420   -4.2731   -6.8493 H   0  0  0  0  0  0  0  0  0  0  0  0
    3.0449    2.7882   -4.6155 H   0  0  0  0  0  0  0  0  0  0  0  0
    2.9049    2.5875   -7.6812 H   0  0  0  0  0  0  0  0  0  0  0  0
    1.6707    2.0427   -6.5367 H   0  0  0  0  0  0  0  0  0  0  0  0
    5.1608    3.7348   -6.6204 H   0  0  0  0  0  0  0  0  0  0  0  0
    5.2441    3.8344   -4.8562 H   0  0  0  0  0  0  0  0  0  0  0  0
    8.3409   -7.3181   -5.0633 H   0  0  0  0  0  0  0  0  0  0  0  0
    8.9100   -6.4452   -6.4665 H   0  0  0  0  0  0  0  0  0  0  0  0
    1.1786    4.3450   -5.8579 H   0  0  0  0  0  0  0  0  0  0  0  0
    1.0908    4.2259   -7.6183 H   0  0  0  0  0  0  0  0  0  0  0  0
    4.6174    6.0291   -5.9027 H   0  0  0  0  0  0  0  0  0  0  0  0
    3.3725    5.4374   -4.7993 H   0  0  0  0  0  0  0  0  0  0  0  0
    6.5325   -7.5587   -7.4732 H   0  0  0  0  0  0  0  0  0  0  0  0
    7.0650   -8.8046   -6.3317 H   0  0  0  0  0  0  0  0  0  0  0  0
    2.3149    6.2893   -6.8731 H   0  0  0  0  0  0  0  0  0  0  0  0
    3.3288    5.2326   -7.8612 H   0  0  0  0  0  0  0  0  0  0  0  0
    9.2364   -7.9847   -7.8780 H   0  0  0  0  0  0  0  0  0  0  0  0
   10.7343   -8.4559   -9.1432 H   0  0  0  0  0  0  0  0  0  0  0  0
    9.2505  -11.2538  -12.7533 H   0  0  0  0  0  0  0  0  0  0  0  0
   11.3920  -10.2877  -14.0420 H   0  0  0  0  0  0  0  0  0  0  0  0
   12.6806   -9.6571  -13.0132 H   0  0  0  0  0  0  0  0  0  0  0  0
   12.2574  -11.3790  -12.9367 H   0  0  0  0  0  0  0  0  0  0  0  0
  1  2  1  0  0  0  0 
  1  3  2  0  0  0  0 
  1  4  2  0  0  0  0 
  1  5  1  0  0  0  0 
  2  6  1  0  0  0  0 
  5  7  2  0  0  0  0 
  5  8  1  0  0  0  0 
  6  9  1  0  0  0  0 
  6 10  2  0  0  0  0 
  7 11  1  0  0  0  0 
  8 12  2  0  0  0  0 
  9 13  1  0  0  0  0 
 11 14  2  0  0  0  0 
 12 14  1  0  0  0  0 
 13 15  1  0  0  0  0 
 13 16  1  0  0  0  0 
 14 17  1  0  0  0  0 
 15 18  1  0  0  0  0 
 16 19  1  0  0  0  0 
 17 20  1  0  0  0  0 
 18 21  1  0  0  0  0 
 19 21  1  0  0  0  0 
 20 22  1  0  0  0  0 
 22 23  1  0  0  0  0 
 23 24  2  0  0  0  0 
 23 25  1  0  0  0  0 
 25 26  2  0  0  0  0 
 25 27  1  0  0  0  0 
 26 28  1  0  0  0  0 
 27 29  2  0  0  0  0 
 28 30  2  0  0  0  0 
 29 30  1  0  0  0  0 
 30 31  1  0  0  0  0 
  2 32  1  0  0  0  0 
  7 33  1  0  0  0  0 
  8 34  1  0  0  0  0 
  9 35  1  0  0  0  0 
 11 36  1  0  0  0  0 
 12 37  1  0  0  0  0 
 13 38  1  0  0  0  0 
 15 39  1  0  0  0  0 
 15 40  1  0  0  0  0 
 16 41  1  0  0  0  0 
 16 42  1  0  0  0  0 
 17 43  1  0  0  0  0 
 17 44  1  0  0  0  0 
 18 45  1  0  0  0  0 
 18 46  1  0  0  0  0 
 19 47  1  0  0  0  0 
 19 48  1  0  0  0  0 
 20 49  1  0  0  0  0 
 20 50  1  0  0  0  0 
 21 51  1  0  0  0  0 
 21 52  1  0  0  0  0 
 22 53  1  0  0  0  0 
 26 54  1  0  0  0  0 
 29 55  1  0  0  0  0 
 31 56  1  0  0  0  0 
 31 57  1  0  0  0  0 
 31 58  1  0  0  0  0 
M  END
> <cdk:Title>
glipizide

> <Conformer>
1

> <SuperDrugID>
SD001157

$$$$
