buthalital
  CDK     0628171801

 32 32  0  0  0  0  0  0  0  0999 V2000
    1.3546   -1.3633   -3.1334 C   0  0  2  0  0  0  0  0  0  0  0  0
    1.0065   -0.6444   -1.7815 C   0  0  1  0  0  0  0  0  0  0  0  0
    2.8437   -1.8086   -3.4086 C   0  0  2  0  0  0  0  0  0  0  0  0
   -0.4030    0.0065   -1.8685 C   0  0  0  0  0  0  0  0  0  0  0  0
    1.0681   -1.5718   -0.5362 C   0  0  0  0  0  0  0  0  0  0  0  0
    3.0581   -2.2123   -4.9189 C   0  0  1  0  0  0  0  0  0  0  0  0
    3.2228   -2.9809   -2.5461 C   0  0  0  0  0  0  0  0  0  0  0  0
    3.7761   -0.6586   -3.1263 C   0  0  0  0  0  0  0  0  0  0  0  0
    2.1629   -3.2471   -5.4284 C   0  0  0  0  0  0  0  0  0  0  0  0
    2.5562   -4.0410   -2.5596 O   0  0  0  0  0  0  0  0  0  0  0  0
    4.2957   -2.9532   -1.7135 N   0  0  0  0  0  0  0  0  0  0  0  0
    3.6212    0.4492   -3.6914 O   0  0  0  0  0  0  0  0  0  0  0  0
    4.8208   -0.7619   -2.2608 N   0  0  0  0  0  0  0  0  0  0  0  0
    2.5443   -4.4962   -5.7254 C   0  0  0  0  0  0  0  0  0  0  0  0
    5.0760   -1.8863   -1.6053 C   0  0  0  0  0  0  0  0  0  0  0  0
    6.4423   -1.9707   -0.5984 S   0  0  0  0  0  0  0  0  0  0  0  0
    1.0789   -0.6813   -3.9448 H   0  0  0  0  0  0  0  0  0  0  0  0
    0.6952   -2.2313   -3.2272 H   0  0  0  0  0  0  0  0  0  0  0  0
    1.7142    0.1726   -1.6194 H   0  0  0  0  0  0  0  0  0  0  0  0
   -1.1723   -0.7601   -1.9947 H   0  0  0  0  0  0  0  0  0  0  0  0
   -0.6206    0.5762   -0.9626 H   0  0  0  0  0  0  0  0  0  0  0  0
   -0.4542    0.6954   -2.7148 H   0  0  0  0  0  0  0  0  0  0  0  0
    0.4197   -2.4408   -0.6653 H   0  0  0  0  0  0  0  0  0  0  0  0
    0.7507   -1.0309    0.3574 H   0  0  0  0  0  0  0  0  0  0  0  0
    2.0849   -1.9139   -0.3570 H   0  0  0  0  0  0  0  0  0  0  0  0
    2.9063   -1.3355   -5.5570 H   0  0  0  0  0  0  0  0  0  0  0  0
    4.1032   -2.5104   -5.0626 H   0  0  0  0  0  0  0  0  0  0  0  0
    1.2071   -3.0065   -5.5682 H   0  0  0  0  0  0  0  0  0  0  0  0
    4.4953   -3.7376   -1.1775 H   0  0  0  0  0  0  0  0  0  0  0  0
    5.3955    0.0076   -2.1173 H   0  0  0  0  0  0  0  0  0  0  0  0
    3.4822   -4.7934   -5.5988 H   0  0  0  0  0  0  0  0  0  0  0  0
    1.8826   -5.1484   -6.0777 H   0  0  0  0  0  0  0  0  0  0  0  0
  1  2  1  0  0  0  0 
  1  3  1  0  0  0  0 
  2  4  1  0  0  0  0 
  2  5  1  0  0  0  0 
  3  6  1  0  0  0  0 
  3  7  1  0  0  0  0 
  3  8  1  0  0  0  0 
  6  9  1  0  0  0  0 
  7 10  2  0  0  0  0 
  7 11  1  0  0  0  0 
  8 12  2  0  0  0  0 
  8 13  1  0  0  0  0 
  9 14  2  0  0  0  0 
 11 15  1  0  0  0  0 
 13 15  1  0  0  0  0 
 15 16  2  0  0  0  0 
 17  1  1  0  0  0  0 
 18  1  1  0  0  0  0 
 19  2  1  0  0  0  0 
 20  4  1  0  0  0  0 
 21  4  1  0  0  0  0 
 22  4  1  0  0  0  0 
 23  5  1  0  0  0  0 
 24  5  1  0  0  0  0 
 25  5  1  0  0  0  0 
 26  6  1  0  0  0  0 
 27  6  1  0  0  0  0 
 28  9  1  0  0  0  0 
 29 11  1  0  0  0  0 
 30 13  1  0  0  0  0 
 31 14  1  0  0  0  0 
 32 14  1  0  0  0  0 
M  END
> <cdk:Title>
buthalital

> <Conformer>
1

> <SuperDrugID>
SD002653

$$$$
