oseltamivir
  CDK     0628171801

 50 50  0  0  0  0  0  0  0  0999 V2000
   -1.5555    5.5957   -1.1326 O   0  0  0  0  0  0  0  0  0  0  0  0
   -0.1623    5.6477   -1.5515 C   0  0  1  0  0  0  0  0  0  0  0  0
   -2.0006    5.0972    0.1573 C   0  0  1  0  0  0  0  0  0  0  0  0
    0.7777    6.4461   -0.5990 C   0  0  1  0  0  0  0  0  0  0  0  0
    0.4568    4.2762   -1.9677 C   0  0  1  0  0  0  0  0  0  0  0  0
   -3.5395    5.3489    0.2475 C   0  0  2  0  0  0  0  0  0  0  0  0
   -1.6792    3.6888    0.3511 C   0  0  0  0  0  0  0  0  0  0  0  0
    0.3484    7.9192   -0.4162 C   0  0  0  0  0  0  0  0  0  0  0  0
   -0.4054    3.4825   -2.9767 C   0  0  0  0  0  0  0  0  0  0  0  0
   -3.9933    5.1681    1.6016 N   0  0  0  0  0  0  0  0  0  0  0  0
   -4.2831    4.3745   -0.7196 C   0  0  1  0  0  0  0  0  0  0  0  0
   -2.4922    2.6592    0.0191 C   0  0  0  0  0  0  0  0  0  0  0  0
   -5.1967    5.5710    2.0979 C   0  0  0  0  0  0  0  0  0  0  0  0
   -4.0863    4.7496   -2.1324 N   0  0  1  0  0  0  0  0  0  0  0  0
   -3.8661    2.8908   -0.4607 C   0  0  2  0  0  0  0  0  0  0  0  0
   -2.0214    1.3450    0.1284 C   0  0  0  0  0  0  0  0  0  0  0  0
   -5.5526    5.2269    3.4840 C   0  0  0  0  0  0  0  0  0  0  0  0
   -6.0116    6.2167    1.3966 O   0  0  0  0  0  0  0  0  0  0  0  0
   -0.6740    1.0953    0.1147 O   0  0  0  0  0  0  0  0  0  0  0  0
   -2.8150    0.3761    0.1957 O   0  0  0  0  0  0  0  0  0  0  0  0
   -0.0129   -0.1743    0.1310 C   0  0  1  0  0  0  0  0  0  0  0  0
    1.5083    0.0528    0.0510 C   0  0  0  0  0  0  0  0  0  0  0  0
   -0.2015    6.2235   -2.4824 H   0  0  0  0  0  0  0  0  0  0  0  0
   -1.5247    5.6850    0.9470 H   0  0  0  0  0  0  0  0  0  0  0  0
    0.8219    5.9558    0.3764 H   0  0  0  0  0  0  0  0  0  0  0  0
    1.7915    6.4485   -1.0135 H   0  0  0  0  0  0  0  0  0  0  0  0
    1.4273    4.4560   -2.4423 H   0  0  0  0  0  0  0  0  0  0  0  0
    0.6471    3.6570   -1.0900 H   0  0  0  0  0  0  0  0  0  0  0  0
   -3.7354    6.3864   -0.0486 H   0  0  0  0  0  0  0  0  0  0  0  0
   -0.7853    3.5021    0.7453 H   0  0  0  0  0  0  0  0  0  0  0  0
    1.0575    8.4299    0.2363 H   0  0  0  0  0  0  0  0  0  0  0  0
    0.3345    8.4316   -1.3805 H   0  0  0  0  0  0  0  0  0  0  0  0
   -0.6442    7.9800    0.0314 H   0  0  0  0  0  0  0  0  0  0  0  0
    0.0898    2.5426   -3.2257 H   0  0  0  0  0  0  0  0  0  0  0  0
   -1.3833    3.2537   -2.5569 H   0  0  0  0  0  0  0  0  0  0  0  0
   -0.5431    4.0586   -3.8933 H   0  0  0  0  0  0  0  0  0  0  0  0
   -3.4012    4.6961    2.2086 H   0  0  0  0  0  0  0  0  0  0  0  0
   -5.3603    4.4636   -0.5650 H   0  0  0  0  0  0  0  0  0  0  0  0
   -4.2768    5.7517   -2.2131 H   0  0  0  0  0  0  0  0  0  0  0  0
   -3.1027    4.6117   -2.3633 H   0  0  0  0  0  0  0  0  0  0  0  0
   -4.0271    2.3215   -1.3806 H   0  0  0  0  0  0  0  0  0  0  0  0
   -4.5487    2.4785    0.2889 H   0  0  0  0  0  0  0  0  0  0  0  0
   -4.7977    5.6151    4.1670 H   0  0  0  0  0  0  0  0  0  0  0  0
   -5.6044    4.1414    3.5886 H   0  0  0  0  0  0  0  0  0  0  0  0
   -6.5235    5.6434    3.7624 H   0  0  0  0  0  0  0  0  0  0  0  0
   -0.2559   -0.7146    1.0483 H   0  0  0  0  0  0  0  0  0  0  0  0
   -0.3351   -0.7662   -0.7284 H   0  0  0  0  0  0  0  0  0  0  0  0
    2.0289   -0.9046    0.0286 H   0  0  0  0  0  0  0  0  0  0  0  0
    1.7569    0.6104   -0.8524 H   0  0  0  0  0  0  0  0  0  0  0  0
    1.8476    0.6189    0.9182 H   0  0  0  0  0  0  0  0  0  0  0  0
  1  2  1  0  0  0  0 
  2  4  1  0  0  0  0 
  2  5  1  0  0  0  0 
  3  1  1  0  0  0  0 
  6  3  1  0  0  0  0 
  3  7  1  0  0  0  0 
  4  8  1  0  0  0  0 
  5  9  1  0  0  0  0 
  6 10  1  0  0  0  0 
 11  6  1  0  0  0  0 
  7 12  2  0  0  0  0 
 10 13  1  0  0  0  0 
 11 14  1  0  0  0  0 
 11 15  1  0  0  0  0 
 12 15  1  0  0  0  0 
 12 16  1  0  0  0  0 
 13 17  1  0  0  0  0 
 13 18  2  0  0  0  0 
 16 19  1  0  0  0  0 
 16 20  2  0  0  0  0 
 19 21  1  0  0  0  0 
 21 22  1  0  0  0  0 
  2 23  1  0  0  0  0 
  3 24  1  0  0  0  0 
  4 25  1  0  0  0  0 
  4 26  1  0  0  0  0 
  5 27  1  0  0  0  0 
  5 28  1  0  0  0  0 
  6 29  1  0  0  0  0 
  7 30  1  0  0  0  0 
  8 31  1  0  0  0  0 
  8 32  1  0  0  0  0 
  8 33  1  0  0  0  0 
  9 34  1  0  0  0  0 
  9 35  1  0  0  0  0 
  9 36  1  0  0  0  0 
 10 37  1  0  0  0  0 
 11 38  1  0  0  0  0 
 14 39  1  0  0  0  0 
 14 40  1  0  0  0  0 
 15 41  1  0  0  0  0 
 15 42  1  0  0  0  0 
 17 43  1  0  0  0  0 
 17 44  1  0  0  0  0 
 17 45  1  0  0  0  0 
 21 46  1  0  0  0  0 
 21 47  1  0  0  0  0 
 22 48  1  0  0  0  0 
 22 49  1  0  0  0  0 
 22 50  1  0  0  0  0 
M  END
> <cdk:Title>
oseltamivir

> <Conformer>
1

> <SuperDrugID>
SD001790

$$$$
