pemafibrate
  Mrv0541 09131710093D             102.19470

 66 69  0  0  0  0            999 V2000
    4.6452    9.6576    9.1978 C   0  0  0  0  0  0  0  0  0  0  0  0
    3.9131    9.3517   10.5271 C   0  0  2  0  0  0  0  0  0  0  0  0
    3.2315    7.9465   10.6020 C   0  0  1  0  0  0  0  0  0  0  0  0
    4.1423    6.8936   11.0005 O   0  0  0  0  0  0  0  0  0  0  0  0
    5.1403    6.5240   10.1378 C   0  0  0  0  0  0  0  0  0  0  0  0
    6.4768    6.6848   10.5561 C   0  0  0  0  0  0  0  0  0  0  0  0
    7.5340    6.2302    9.7497 C   0  0  0  0  0  0  0  0  0  0  0  0
    7.2571    5.5947    8.5265 C   0  0  0  0  0  0  0  0  0  0  0  0
    5.9224    5.4311    8.0805 C   0  0  0  0  0  0  0  0  0  0  0  0
    5.6198    4.6871    6.8228 C   0  0  2  0  0  0  0  0  0  0  0  0
    5.4221    5.4140    5.5744 N   0  0  0  0  0  0  0  0  0  0  0  0
    4.6464    4.8412    4.4770 C   0  0  1  0  0  0  0  0  0  0  0  0
    3.7649    3.5769    4.6985 C   0  0  1  0  0  0  0  0  0  0  0  0
    3.2276    3.0054    3.3660 C   0  0  1  0  0  0  0  0  0  0  0  0
    2.4138    1.8465    3.6374 O   0  0  0  0  0  0  0  0  0  0  0  0
    2.2130    1.0674    2.5296 C   0  0  0  0  0  0  0  0  0  0  0  0
    3.0793   -0.0181    2.2849 C   0  0  0  0  0  0  0  0  0  0  0  0
    2.9179   -0.8076    1.1322 C   0  0  0  0  0  0  0  0  0  0  0  0
    1.8923   -0.5137    0.2098 C   0  0  0  0  0  0  0  0  0  0  0  0
    1.7645   -1.2541   -0.9348 O   0  0  0  0  0  0  0  0  0  0  0  0
    2.5253   -0.7161   -2.0321 C   0  0  0  0  0  0  0  0  0  0  0  0
    0.9928    0.5388    0.4820 C   0  0  0  0  0  0  0  0  0  0  0  0
    1.1547    1.3298    1.6353 C   0  0  0  0  0  0  0  0  0  0  0  0
    6.1035    6.5901    5.2945 C   0  0  0  0  0  0  0  0  0  0  0  0
    6.1551    7.1788    4.0734 N   0  0  0  0  0  0  0  0  0  0  0  0
    6.9126    8.2745    4.1790 C   0  0  0  0  0  0  0  0  0  0  0  0
    7.3348    8.3731    5.4965 C   0  0  0  0  0  0  0  0  0  0  0  0
    6.8330    7.3246    6.1766 O   0  0  0  0  0  0  0  0  0  0  0  0
    8.1461    9.4369    5.9221 C   0  0  0  0  0  0  0  0  0  0  0  0
    8.5245   10.4109    4.9712 C   0  0  0  0  0  0  0  0  0  0  0  0
    8.0973   10.3056    3.6264 C   0  0  0  0  0  0  0  0  0  0  0  0
    7.2841    9.2276    3.2150 C   0  0  0  0  0  0  0  0  0  0  0  0
    4.8709    5.9209    8.8906 C   0  0  0  0  0  0  0  0  0  0  0  0
    2.1221    7.9650   11.5891 C   0  0  0  0  0  0  0  0  0  0  0  0
    1.0144    8.7064   11.3541 O   0  0  0  0  0  0  0  0  0  0  0  0
    2.1544    7.3023   12.6518 O   0  0  0  0  0  0  0  0  0  0  0  0
    3.9660    9.5362    8.3519 H   0  0  0  0  0  0  0  0  0  0  0  0
    4.9974   10.6900    9.2119 H   0  0  0  0  0  0  0  0  0  0  0  0
    5.5117    9.0115    9.0574 H   0  0  0  0  0  0  0  0  0  0  0  0
    3.1609   10.1373   10.6504 H   0  0  0  0  0  0  0  0  0  0  0  0
    4.6228    9.4434   11.3534 H   0  0  0  0  0  0  0  0  0  0  0  0
    2.7726    7.6979    9.6400 H   0  0  0  0  0  0  0  0  0  0  0  0
    6.6816    7.1268   11.4562 H   0  0  0  0  0  0  0  0  0  0  0  0
    8.5007    6.3451   10.0594 H   0  0  0  0  0  0  0  0  0  0  0  0
    8.0372    5.2459    7.9617 H   0  0  0  0  0  0  0  0  0  0  0  0
    4.7366    4.0926    7.0577 H   0  0  0  0  0  0  0  0  0  0  0  0
    6.4136    3.9582    6.6402 H   0  0  0  0  0  0  0  0  0  0  0  0
    3.9732    5.6154    4.0895 H   0  0  0  0  0  0  0  0  0  0  0  0
    5.3637    4.5940    3.6859 H   0  0  0  0  0  0  0  0  0  0  0  0
    4.3555    2.7906    5.1748 H   0  0  0  0  0  0  0  0  0  0  0  0
    2.9212    3.8294    5.3467 H   0  0  0  0  0  0  0  0  0  0  0  0
    2.6282    3.7598    2.8496 H   0  0  0  0  0  0  0  0  0  0  0  0
    4.0866    2.7515    2.7343 H   0  0  0  0  0  0  0  0  0  0  0  0
    3.8363   -0.2269    2.9404 H   0  0  0  0  0  0  0  0  0  0  0  0
    3.5550   -1.5889    0.9595 H   0  0  0  0  0  0  0  0  0  0  0  0
    2.3793   -1.3603   -2.8982 H   0  0  0  0  0  0  0  0  0  0  0  0
    2.1866    0.2887   -2.2943 H   0  0  0  0  0  0  0  0  0  0  0  0
    3.5934   -0.6914   -1.8033 H   0  0  0  0  0  0  0  0  0  0  0  0
    0.2265    0.7375   -0.1655 H   0  0  0  0  0  0  0  0  0  0  0  0
    0.5098    2.1019    1.8175 H   0  0  0  0  0  0  0  0  0  0  0  0
    8.4498    9.5024    6.8951 H   0  0  0  0  0  0  0  0  0  0  0  0
    9.1104   11.1973    5.2579 H   0  0  0  0  0  0  0  0  0  0  0  0
    8.3780   11.0155    2.9472 H   0  0  0  0  0  0  0  0  0  0  0  0
    6.9708    9.1424    2.2446 H   0  0  0  0  0  0  0  0  0  0  0  0
    3.9006    5.8121    8.5864 H   0  0  0  0  0  0  0  0  0  0  0  0
    0.2861    8.7279   12.0076 H   0  0  0  0  0  0  0  0  0  0  0  0
  1  2  1  0  0  0  0
  3  2  1  0  0  0  0
  3  4  1  0  0  0  0
  4  5  1  0  0  0  0
  5  6  2  0  0  0  0
  6  7  1  0  0  0  0
  7  8  2  0  0  0  0
  8  9  1  0  0  0  0
  9 10  1  0  0  0  0
 10 11  1  0  0  0  0
 11 12  1  0  0  0  0
 12 13  1  0  0  0  0
 13 14  1  0  0  0  0
 14 15  1  0  0  0  0
 15 16  1  0  0  0  0
 16 17  2  0  0  0  0
 17 18  1  0  0  0  0
 18 19  2  0  0  0  0
 19 20  1  0  0  0  0
 20 21  1  0  0  0  0
 19 22  1  0  0  0  0
 22 23  2  0  0  0  0
 11 24  1  0  0  0  0
 24 25  2  0  0  0  0
 25 26  1  0  0  0  0
 26 27  2  0  0  0  0
 27 28  1  0  0  0  0
 27 29  1  0  0  0  0
 29 30  2  0  0  0  0
 30 31  1  0  0  0  0
 31 32  2  0  0  0  0
  9 33  2  0  0  0  0
  3 34  1  0  0  0  0
 34 35  1  0  0  0  0
 34 36  2  0  0  0  0
 33  5  1  0  0  0  0
 23 16  1  0  0  0  0
 28 24  1  0  0  0  0
 32 26  1  0  0  0  0
  1 37  1  0  0  0  0
  1 38  1  0  0  0  0
  1 39  1  0  0  0  0
  2 40  1  0  0  0  0
  2 41  1  0  0  0  0
  3 42  1  0  0  0  0
  6 43  1  0  0  0  0
  7 44  1  0  0  0  0
  8 45  1  0  0  0  0
 10 46  1  0  0  0  0
 10 47  1  0  0  0  0
 12 48  1  0  0  0  0
 12 49  1  0  0  0  0
 13 50  1  0  0  0  0
 13 51  1  0  0  0  0
 14 52  1  0  0  0  0
 14 53  1  0  0  0  0
 17 54  1  0  0  0  0
 18 55  1  0  0  0  0
 21 56  1  0  0  0  0
 21 57  1  0  0  0  0
 21 58  1  0  0  0  0
 22 59  1  0  0  0  0
 23 60  1  0  0  0  0
 29 61  1  0  0  0  0
 30 62  1  0  0  0  0
 31 63  1  0  0  0  0
 32 64  1  0  0  0  0
 33 65  1  0  0  0  0
 35 66  1  0  0  0  0
M  END
>  <SuperDrugID>
SD006011

>  <_MOLCOUNT>
1

$$$$
