cloxotestosterone
  CDK     0628171801

 56 59  0  0  0  0  0  0  0  0999 V2000
   -3.4989   -0.1106   -0.0910 C   0  0  0  0  0  0  0  0  0  0  0  0
   -2.3384    0.2565   -1.0851 C   0  0  1  0  0  0  0  0  0  0  0  0
   -2.9032    0.7150   -2.5084 C   0  0  2  0  0  0  0  0  0  0  0  0
   -1.5408    1.3595   -0.4532 C   0  0  0  0  0  0  0  0  0  0  0  0
   -1.4250   -1.0223   -1.2854 C   0  0  1  0  0  0  0  0  0  0  0  0
   -3.5476    2.1541   -2.4859 C   0  0  2  0  0  0  0  0  0  0  0  0
   -3.8436   -0.3208   -3.2340 C   0  0  1  0  0  0  0  0  0  0  0  0
   -2.0620    2.7353   -0.4924 C   0  0  2  0  0  0  0  0  0  0  0  0
   -0.3848    1.1268    0.2143 C   0  0  0  0  0  0  0  0  0  0  0  0
   -0.5531   -1.3479   -0.0463 C   0  0  1  0  0  0  0  0  0  0  0  0
   -4.0247    2.5515   -3.9218 C   0  0  1  0  0  0  0  0  0  0  0  0
   -2.5265    3.1683   -1.9011 C   0  0  2  0  0  0  0  0  0  0  0  0
   -4.4344    0.1652   -4.5971 C   0  0  1  0  0  0  0  0  0  0  0  0
    0.1606   -0.1343    0.3988 C   0  0  0  0  0  0  0  0  0  0  0  0
   -5.1049    1.5759   -4.4901 C   0  0  1  0  0  0  0  0  0  0  0  0
   -4.6184    3.9550   -4.1719 C   0  0  1  0  0  0  0  0  0  0  0  0
    1.2640   -0.2582    0.9797 O   0  0  0  0  0  0  0  0  0  0  0  0
   -6.4358    1.4696   -3.6452 C   0  0  0  0  0  0  0  0  0  0  0  0
   -5.4169    2.2794   -5.8535 C   0  0  2  0  0  0  0  0  0  0  0  0
   -5.4293    3.7942   -5.4833 C   0  0  2  0  0  0  0  0  0  0  0  0
   -6.6598    1.8148   -6.4249 O   0  0  0  0  0  0  0  0  0  0  0  0
   -7.0319    2.3126   -7.7276 C   0  0  2  0  0  0  0  0  0  0  0  0
   -8.5647    2.1439   -7.8973 C   0  0  2  0  0  0  0  0  0  0  0  0
   -6.3140    1.5797   -8.7201 O   0  0  0  0  0  0  0  0  0  0  0  0
   -9.0570    0.4541   -7.7997 Cl  0  0  0  0  0  0  0  0  0  0  0  0
   -9.1155    2.7837   -9.4427 Cl  0  0  0  0  0  0  0  0  0  0  0  0
   -9.4314    3.0293   -6.6428 Cl  0  0  0  0  0  0  0  0  0  0  0  0
   -3.9815   -1.0484   -0.3728 H   0  0  0  0  0  0  0  0  0  0  0  0
   -4.2646    0.6640   -0.0660 H   0  0  0  0  0  0  0  0  0  0  0  0
   -3.1253   -0.2326    0.9283 H   0  0  0  0  0  0  0  0  0  0  0  0
   -2.0315    0.8010   -3.1678 H   0  0  0  0  0  0  0  0  0  0  0  0
   -2.0248   -1.9052   -1.5197 H   0  0  0  0  0  0  0  0  0  0  0  0
   -0.7416   -0.8650   -2.1283 H   0  0  0  0  0  0  0  0  0  0  0  0
   -4.4165    2.1614   -1.8261 H   0  0  0  0  0  0  0  0  0  0  0  0
   -3.2899   -1.2396   -3.4326 H   0  0  0  0  0  0  0  0  0  0  0  0
   -4.6724   -0.5917   -2.5825 H   0  0  0  0  0  0  0  0  0  0  0  0
   -1.3294    3.4759   -0.1564 H   0  0  0  0  0  0  0  0  0  0  0  0
   -2.9070    2.7990    0.1979 H   0  0  0  0  0  0  0  0  0  0  0  0
    0.1108    1.8884    0.6206 H   0  0  0  0  0  0  0  0  0  0  0  0
   -1.1772   -1.7071    0.7751 H   0  0  0  0  0  0  0  0  0  0  0  0
    0.1568   -2.1412   -0.2976 H   0  0  0  0  0  0  0  0  0  0  0  0
   -3.1282    2.5038   -4.5587 H   0  0  0  0  0  0  0  0  0  0  0  0
   -2.9910    4.1553   -1.8221 H   0  0  0  0  0  0  0  0  0  0  0  0
   -1.6579    3.2561   -2.5616 H   0  0  0  0  0  0  0  0  0  0  0  0
   -3.6270    0.1902   -5.3356 H   0  0  0  0  0  0  0  0  0  0  0  0
   -5.1667   -0.5651   -4.9538 H   0  0  0  0  0  0  0  0  0  0  0  0
   -5.2703    4.2516   -3.3465 H   0  0  0  0  0  0  0  0  0  0  0  0
   -3.8336    4.7091   -4.2841 H   0  0  0  0  0  0  0  0  0  0  0  0
   -6.2664    1.1167   -2.6310 H   0  0  0  0  0  0  0  0  0  0  0  0
   -6.9482    2.4292   -3.5686 H   0  0  0  0  0  0  0  0  0  0  0  0
   -7.1256    0.7669   -4.1174 H   0  0  0  0  0  0  0  0  0  0  0  0
   -4.6013    2.0884   -6.5626 H   0  0  0  0  0  0  0  0  0  0  0  0
   -4.9908    4.3905   -6.2883 H   0  0  0  0  0  0  0  0  0  0  0  0
   -6.4542    4.1416   -5.3233 H   0  0  0  0  0  0  0  0  0  0  0  0
   -6.7909    3.3736   -7.8442 H   0  0  0  0  0  0  0  0  0  0  0  0
   -6.6106    1.9473   -9.5796 H   0  0  0  0  0  0  0  0  0  0  0  0
  2  1  1  0  0  0  0 
  3  2  1  0  0  0  0 
  2  4  1  0  0  0  0 
  2  5  1  0  0  0  0 
  3  6  1  0  0  0  0 
  3  7  1  0  0  0  0 
  4  8  1  0  0  0  0 
  4  9  2  0  0  0  0 
  5 10  1  0  0  0  0 
  6 11  1  0  0  0  0 
  6 12  1  0  0  0  0 
  7 13  1  0  0  0  0 
  8 12  1  0  0  0  0 
  9 14  1  0  0  0  0 
 10 14  1  0  0  0  0 
 11 15  1  0  0  0  0 
 11 16  1  0  0  0  0 
 15 13  1  0  0  0  0 
 14 17  2  0  0  0  0 
 15 18  1  0  0  0  0 
 15 19  1  0  0  0  0 
 16 20  1  0  0  0  0 
 19 20  1  0  0  0  0 
 19 21  1  0  0  0  0 
 21 22  1  0  0  0  0 
 22 23  1  0  0  0  0 
 22 24  1  0  0  0  0 
 23 25  1  0  0  0  0 
 23 26  1  0  0  0  0 
 23 27  1  0  0  0  0 
 28  1  1  0  0  0  0 
 29  1  1  0  0  0  0 
 30  1  1  0  0  0  0 
  3 31  1  0  0  0  0 
 32  5  1  0  0  0  0 
 33  5  1  0  0  0  0 
  6 34  1  0  0  0  0 
 35  7  1  0  0  0  0 
 36  7  1  0  0  0  0 
 37  8  1  0  0  0  0 
 38  8  1  0  0  0  0 
 39  9  1  0  0  0  0 
 40 10  1  0  0  0  0 
 41 10  1  0  0  0  0 
 11 42  1  0  0  0  0 
 43 12  1  0  0  0  0 
 44 12  1  0  0  0  0 
 45 13  1  0  0  0  0 
 46 13  1  0  0  0  0 
 47 16  1  0  0  0  0 
 48 16  1  0  0  0  0 
 49 18  1  0  0  0  0 
 50 18  1  0  0  0  0 
 51 18  1  0  0  0  0 
 19 52  1  0  0  0  0 
 53 20  1  0  0  0  0 
 54 20  1  0  0  0  0 
 55 22  1  0  0  0  0 
 56 24  1  0  0  0  0 
M  END
> <cdk:Title>
cloxotestosterone

> <Conformer>
1

> <SuperDrugID>
SD002700

$$$$
