carboprost
  CDK     0628171802

 62 62  0  0  0  0  0  0  0  0999 V2000
   -4.8242    1.6151   -0.3065 C   0  0  2  0  0  0  0  0  0  0  0  0
   -4.7962    0.6026   -1.3583 C   0  0  0  0  0  0  0  0  0  0  0  0
   -3.3910    1.9956    0.2088 C   0  0  2  0  0  0  0  0  0  0  0  0
   -4.5877    0.8232   -2.6711 C   0  0  0  0  0  0  0  0  0  0  0  0
   -2.6849    0.8292    0.9934 C   0  0  1  0  0  0  0  0  0  0  0  0
   -3.3724    3.1811    1.2112 C   0  0  1  0  0  0  0  0  0  0  0  0
   -4.3878    2.1308   -3.2843 C   0  0  2  0  0  0  0  0  0  0  0  0
   -1.3124    0.5437    0.5608 C   0  0  0  0  0  0  0  0  0  0  0  0
   -2.7514    1.2330    2.5021 C   0  0  1  0  0  0  0  0  0  0  0  0
   -4.3228    4.2141    0.9534 O   0  0  0  0  0  0  0  0  0  0  0  0
   -3.5860    2.5253    2.5820 C   0  0  1  0  0  0  0  0  0  0  0  0
   -4.1715    2.1051   -4.8252 C   0  0  2  0  0  0  0  0  0  0  0  0
   -0.6214   -0.5334    0.9807 C   0  0  0  0  0  0  0  0  0  0  0  0
   -3.3226    0.2067    3.3118 O   0  0  0  0  0  0  0  0  0  0  0  0
   -4.0099    3.5377   -5.4043 C   0  0  2  0  0  0  0  0  0  0  0  0
    0.7852   -0.8172    0.6596 C   0  0  1  0  0  0  0  0  0  0  0  0
   -3.8291    3.5622   -6.8676 C   0  0  0  0  0  0  0  0  0  0  0  0
    1.6805   -0.6006    1.9292 C   0  0  2  0  0  0  0  0  0  0  0  0
    0.9045   -2.2775    0.1304 C   0  0  0  0  0  0  0  0  0  0  0  0
    1.2901    0.0188   -0.3916 O   0  0  0  0  0  0  0  0  0  0  0  0
   -2.6721    4.0099   -7.4098 O   0  0  0  0  0  0  0  0  0  0  0  0
   -4.7546    3.2046   -7.6302 O   0  0  0  0  0  0  0  0  0  0  0  0
    1.6431    0.8446    2.5113 C   0  0  1  0  0  0  0  0  0  0  0  0
    2.5219    1.0334    3.7772 C   0  0  1  0  0  0  0  0  0  0  0  0
    2.4109    2.4709    4.3591 C   0  0  2  0  0  0  0  0  0  0  0  0
    3.2806    2.6863    5.6180 C   0  0  0  0  0  0  0  0  0  0  0  0
   -5.4250    1.2384    0.5276 H   0  0  0  0  0  0  0  0  0  0  0  0
   -5.3426    2.5040   -0.6732 H   0  0  0  0  0  0  0  0  0  0  0  0
   -4.9207   -0.3419   -1.0708 H   0  0  0  0  0  0  0  0  0  0  0  0
   -2.8015    2.3069   -0.6595 H   0  0  0  0  0  0  0  0  0  0  0  0
   -4.5778    0.0255   -3.2642 H   0  0  0  0  0  0  0  0  0  0  0  0
   -3.2507   -0.0973    0.8487 H   0  0  0  0  0  0  0  0  0  0  0  0
   -2.3825    3.6475    1.1884 H   0  0  0  0  0  0  0  0  0  0  0  0
   -3.5168    2.6085   -2.8326 H   0  0  0  0  0  0  0  0  0  0  0  0
   -5.2647    2.7482   -3.0718 H   0  0  0  0  0  0  0  0  0  0  0  0
   -0.8604    1.1952   -0.0345 H   0  0  0  0  0  0  0  0  0  0  0  0
   -1.7565    1.4437    2.9068 H   0  0  0  0  0  0  0  0  0  0  0  0
   -4.1246    4.9113    1.6177 H   0  0  0  0  0  0  0  0  0  0  0  0
   -3.2489    3.1746    3.3926 H   0  0  0  0  0  0  0  0  0  0  0  0
   -4.6454    2.2938    2.7313 H   0  0  0  0  0  0  0  0  0  0  0  0
   -5.0255    1.6129   -5.3004 H   0  0  0  0  0  0  0  0  0  0  0  0
   -3.2743    1.5215   -5.0497 H   0  0  0  0  0  0  0  0  0  0  0  0
   -1.0827   -1.1778    1.5843 H   0  0  0  0  0  0  0  0  0  0  0  0
   -3.3276    0.5801    4.2174 H   0  0  0  0  0  0  0  0  0  0  0  0
   -3.1471    4.0157   -4.9326 H   0  0  0  0  0  0  0  0  0  0  0  0
   -4.8942    4.1343   -5.1634 H   0  0  0  0  0  0  0  0  0  0  0  0
    2.7161   -0.8351    1.6691 H   0  0  0  0  0  0  0  0  0  0  0  0
    1.3735   -1.3041    2.7089 H   0  0  0  0  0  0  0  0  0  0  0  0
    1.9394   -2.5077   -0.1290 H   0  0  0  0  0  0  0  0  0  0  0  0
    0.2944   -2.4113   -0.7665 H   0  0  0  0  0  0  0  0  0  0  0  0
    0.5748   -2.9970    0.8824 H   0  0  0  0  0  0  0  0  0  0  0  0
    2.2228   -0.2534   -0.5148 H   0  0  0  0  0  0  0  0  0  0  0  0
   -2.5707    4.0533   -8.3832 H   0  0  0  0  0  0  0  0  0  0  0  0
    1.9731    1.5471    1.7413 H   0  0  0  0  0  0  0  0  0  0  0  0
    0.6162    1.0949    2.7811 H   0  0  0  0  0  0  0  0  0  0  0  0
    2.2064    0.3159    4.5410 H   0  0  0  0  0  0  0  0  0  0  0  0
    3.5644    0.8254    3.5207 H   0  0  0  0  0  0  0  0  0  0  0  0
    1.3689    2.6764    4.6225 H   0  0  0  0  0  0  0  0  0  0  0  0
    2.7168    3.1957    3.5992 H   0  0  0  0  0  0  0  0  0  0  0  0
    3.1689    3.7133    5.9723 H   0  0  0  0  0  0  0  0  0  0  0  0
    2.9700    2.0077    6.4151 H   0  0  0  0  0  0  0  0  0  0  0  0
    4.3328    2.5101    5.3865 H   0  0  0  0  0  0  0  0  0  0  0  0
  1  2  1  0  0  0  0 
  2  4  2  0  0  0  0 
  3  1  1  0  0  0  0 
  5  3  1  0  0  0  0 
  3  6  1  0  0  0  0 
  4  7  1  0  0  0  0 
  5  8  1  0  0  0  0 
  9  5  1  0  0  0  0 
  6 10  1  0  0  0  0 
  6 11  1  0  0  0  0 
  7 12  1  0  0  0  0 
  8 13  2  0  0  0  0 
  9 11  1  0  0  0  0 
  9 14  1  0  0  0  0 
 12 15  1  0  0  0  0 
 16 13  1  0  0  0  0 
 15 17  1  0  0  0  0 
 16 18  1  0  0  0  0 
 16 19  1  0  0  0  0 
 16 20  1  0  0  0  0 
 17 21  1  0  0  0  0 
 17 22  2  0  0  0  0 
 18 23  1  0  0  0  0 
 23 24  1  0  0  0  0 
 24 25  1  0  0  0  0 
 25 26  1  0  0  0  0 
  1 27  1  0  0  0  0 
  1 28  1  0  0  0  0 
  2 29  1  0  0  0  0 
  3 30  1  0  0  0  0 
  4 31  1  0  0  0  0 
  5 32  1  0  0  0  0 
  6 33  1  0  0  0  0 
  7 34  1  0  0  0  0 
  7 35  1  0  0  0  0 
  8 36  1  0  0  0  0 
  9 37  1  0  0  0  0 
 10 38  1  0  0  0  0 
 11 39  1  0  0  0  0 
 11 40  1  0  0  0  0 
 12 41  1  0  0  0  0 
 12 42  1  0  0  0  0 
 13 43  1  0  0  0  0 
 14 44  1  0  0  0  0 
 15 45  1  0  0  0  0 
 15 46  1  0  0  0  0 
 18 47  1  0  0  0  0 
 18 48  1  0  0  0  0 
 19 49  1  0  0  0  0 
 19 50  1  0  0  0  0 
 19 51  1  0  0  0  0 
 20 52  1  0  0  0  0 
 21 53  1  0  0  0  0 
 23 54  1  0  0  0  0 
 23 55  1  0  0  0  0 
 24 56  1  0  0  0  0 
 24 57  1  0  0  0  0 
 25 58  1  0  0  0  0 
 25 59  1  0  0  0  0 
 26 60  1  0  0  0  0 
 26 61  1  0  0  0  0 
 26 62  1  0  0  0  0 
M  END
> <cdk:Title>
carboprost

> <Conformer>
1

> <SuperDrugID>
SD000432

$$$$
