tybamate
  CDK     0628171801

 45 44  0  0  0  0  0  0  0  0999 V2000
   -2.3829    1.9492    0.8828 C   0  0  1  0  0  0  0  0  0  0  0  0
   -1.1269    1.1027    0.4671 C   0  0  1  0  0  0  0  0  0  0  0  0
   -3.5635    0.9888    1.2813 C   0  0  1  0  0  0  0  0  0  0  0  0
   -2.0740    2.8797    2.1216 C   0  0  1  0  0  0  0  0  0  0  0  0
   -2.8549    2.8204   -0.3280 C   0  0  0  0  0  0  0  0  0  0  0  0
   -0.5229    0.4903    1.6177 O   0  0  0  0  0  0  0  0  0  0  0  0
   -4.0069    0.1715    0.1857 O   0  0  0  0  0  0  0  0  0  0  0  0
   -0.8877    3.8807    1.9830 C   0  0  2  0  0  0  0  0  0  0  0  0
    0.6176   -0.2511    1.6632 C   0  0  0  0  0  0  0  0  0  0  0  0
   -5.1067   -0.6350    0.1609 C   0  0  0  0  0  0  0  0  0  0  0  0
   -0.5553    4.6216    3.2983 C   0  0  0  0  0  0  0  0  0  0  0  0
    0.9901   -0.7202    2.8814 N   0  0  0  0  0  0  0  0  0  0  0  0
    1.2803   -0.4772    0.6229 O   0  0  0  0  0  0  0  0  0  0  0  0
   -5.3429   -1.3502   -0.9494 N   0  0  0  0  0  0  0  0  0  0  0  0
   -5.9020   -0.7223    1.1247 O   0  0  0  0  0  0  0  0  0  0  0  0
    2.0916   -1.5932    3.1465 C   0  0  1  0  0  0  0  0  0  0  0  0
    3.3364   -0.8304    3.6766 C   0  0  1  0  0  0  0  0  0  0  0  0
    4.4256   -1.7968    4.2241 C   0  0  1  0  0  0  0  0  0  0  0  0
    5.7418   -1.0942    4.6275 C   0  0  0  0  0  0  0  0  0  0  0  0
   -1.4056    0.3224   -0.2471 H   0  0  0  0  0  0  0  0  0  0  0  0
   -0.3866    1.7405   -0.0237 H   0  0  0  0  0  0  0  0  0  0  0  0
   -3.2607    0.3281    2.0995 H   0  0  0  0  0  0  0  0  0  0  0  0
   -4.4167    1.5847    1.6241 H   0  0  0  0  0  0  0  0  0  0  0  0
   -2.9701    3.4622    2.3579 H   0  0  0  0  0  0  0  0  0  0  0  0
   -1.8776    2.2484    2.9930 H   0  0  0  0  0  0  0  0  0  0  0  0
   -2.0702    3.5056   -0.6474 H   0  0  0  0  0  0  0  0  0  0  0  0
   -3.7352    3.4090   -0.0596 H   0  0  0  0  0  0  0  0  0  0  0  0
   -3.1115    2.1968   -1.1856 H   0  0  0  0  0  0  0  0  0  0  0  0
   -1.1250    4.6278    1.2227 H   0  0  0  0  0  0  0  0  0  0  0  0
    0.0156    3.3541    1.6717 H   0  0  0  0  0  0  0  0  0  0  0  0
    0.2519    5.3353    3.1195 H   0  0  0  0  0  0  0  0  0  0  0  0
   -1.4272    5.1655    3.6686 H   0  0  0  0  0  0  0  0  0  0  0  0
   -0.2266    3.9120    4.0613 H   0  0  0  0  0  0  0  0  0  0  0  0
    0.4434   -0.4552    3.6411 H   0  0  0  0  0  0  0  0  0  0  0  0
   -4.7287   -1.3002   -1.6995 H   0  0  0  0  0  0  0  0  0  0  0  0
   -6.1259   -1.9193   -1.0057 H   0  0  0  0  0  0  0  0  0  0  0  0
    1.7494   -2.3063    3.9013 H   0  0  0  0  0  0  0  0  0  0  0  0
    2.3686   -2.1691    2.2575 H   0  0  0  0  0  0  0  0  0  0  0  0
    3.7517   -0.2349    2.8566 H   0  0  0  0  0  0  0  0  0  0  0  0
    3.0333   -0.1460    4.4750 H   0  0  0  0  0  0  0  0  0  0  0  0
    4.0357   -2.3202    5.1017 H   0  0  0  0  0  0  0  0  0  0  0  0
    4.6558   -2.5479    3.4633 H   0  0  0  0  0  0  0  0  0  0  0  0
    6.4580   -1.8395    4.9810 H   0  0  0  0  0  0  0  0  0  0  0  0
    6.1745   -0.5755    3.7698 H   0  0  0  0  0  0  0  0  0  0  0  0
    5.5655   -0.3750    5.4294 H   0  0  0  0  0  0  0  0  0  0  0  0
  1  2  1  0  0  0  0 
  1  3  1  0  0  0  0 
  1  4  1  0  0  0  0 
  1  5  1  0  0  0  0 
  2  6  1  0  0  0  0 
  3  7  1  0  0  0  0 
  4  8  1  0  0  0  0 
  6  9  1  0  0  0  0 
  7 10  1  0  0  0  0 
  8 11  1  0  0  0  0 
  9 12  1  0  0  0  0 
  9 13  2  0  0  0  0 
 10 14  1  0  0  0  0 
 10 15  2  0  0  0  0 
 12 16  1  0  0  0  0 
 16 17  1  0  0  0  0 
 17 18  1  0  0  0  0 
 18 19  1  0  0  0  0 
 20  2  1  0  0  0  0 
 21  2  1  0  0  0  0 
 22  3  1  0  0  0  0 
 23  3  1  0  0  0  0 
 24  4  1  0  0  0  0 
 25  4  1  0  0  0  0 
 26  5  1  0  0  0  0 
 27  5  1  0  0  0  0 
 28  5  1  0  0  0  0 
 29  8  1  0  0  0  0 
 30  8  1  0  0  0  0 
 31 11  1  0  0  0  0 
 32 11  1  0  0  0  0 
 33 11  1  0  0  0  0 
 34 12  1  0  0  0  0 
 35 14  1  0  0  0  0 
 36 14  1  0  0  0  0 
 37 16  1  0  0  0  0 
 38 16  1  0  0  0  0 
 39 17  1  0  0  0  0 
 40 17  1  0  0  0  0 
 41 18  1  0  0  0  0 
 42 18  1  0  0  0  0 
 43 19  1  0  0  0  0 
 44 19  1  0  0  0  0 
 45 19  1  0  0  0  0 
M  END
> <cdk:Title>
tybamate

> <Conformer>
1

> <SuperDrugID>
SD002512

$$$$
