nipradilol
  CDK     0628171801

 45 46  0  0  0  0  0  0  0  0999 V2000
    1.3449    0.5960    0.0202 O   0  0  0  0  0  0  0  0  0  0  0  0
    2.4290    1.4958    0.3321 C   0  0  2  0  0  0  0  0  0  0  0  0
    1.0139   -0.2260    1.0641 C   0  0  0  0  0  0  0  0  0  0  0  0
    2.6270    2.5154   -0.8169 C   0  0  2  0  0  0  0  0  0  0  0  0
    0.0132    0.1699    1.9808 C   0  0  0  0  0  0  0  0  0  0  0  0
    1.6510   -1.4762    1.2065 C   0  0  0  0  0  0  0  0  0  0  0  0
    1.3937    3.4265   -1.0404 C   0  0  2  0  0  0  0  0  0  0  0  0
    2.9434    1.8219   -2.0235 O   0  0  0  0  0  0  0  0  0  0  0  0
   -0.3113   -0.6788    3.0720 C   0  0  0  0  0  0  0  0  0  0  0  0
   -0.6398    1.3670    1.7438 O   0  0  0  0  0  0  0  0  0  0  0  0
    1.3102   -2.3283    2.2712 C   0  0  0  0  0  0  0  0  0  0  0  0
    1.5941    4.2842   -2.2323 N   0  0  1  0  0  0  0  0  0  0  0  0
   -1.2987   -0.2281    4.0864 C   0  0  1  0  0  0  0  0  0  0  0  0
    0.3357   -1.9295    3.2027 C   0  0  0  0  0  0  0  0  0  0  0  0
   -1.3432    1.9691    2.8523 C   0  0  2  0  0  0  0  0  0  0  0  0
    0.5109    5.2539   -2.5391 C   0  0  1  0  0  0  0  0  0  0  0  0
   -2.2182    0.9269    3.6016 C   0  0  2  0  0  0  0  0  0  0  0  0
    1.0460    6.2369   -3.6095 C   0  0  0  0  0  0  0  0  0  0  0  0
   -0.7817    4.5466   -3.0265 C   0  0  0  0  0  0  0  0  0  0  0  0
   -2.9038    1.4758    4.7522 O   0  0  0  0  0  0  0  0  0  0  0  0
   -3.9256    2.1925    4.4578 N   0  0  0  0  0  0  0  0  0  0  0  0
   -4.9629    1.6947    4.2620 O   0  0  0  0  0  0  0  0  0  0  0  0
   -3.8384    3.4567    4.4326 O   0  0  0  0  0  0  0  0  0  0  0  0
    3.3525    0.9226    0.4566 H   0  0  0  0  0  0  0  0  0  0  0  0
    2.2403    2.0447    1.2618 H   0  0  0  0  0  0  0  0  0  0  0  0
    3.4785    3.1494   -0.5629 H   0  0  0  0  0  0  0  0  0  0  0  0
    2.3648   -1.7688    0.5356 H   0  0  0  0  0  0  0  0  0  0  0  0
    1.2433    4.0548   -0.1592 H   0  0  0  0  0  0  0  0  0  0  0  0
    0.5103    2.8009   -1.1762 H   0  0  0  0  0  0  0  0  0  0  0  0
    3.8135    1.4009   -1.8552 H   0  0  0  0  0  0  0  0  0  0  0  0
    1.7752   -3.2365    2.3709 H   0  0  0  0  0  0  0  0  0  0  0  0
    2.4395    4.8322   -2.0551 H   0  0  0  0  0  0  0  0  0  0  0  0
   -1.9296   -1.0678    4.3878 H   0  0  0  0  0  0  0  0  0  0  0  0
   -0.7367    0.1016    4.9658 H   0  0  0  0  0  0  0  0  0  0  0  0
    0.0971   -2.5602    3.9716 H   0  0  0  0  0  0  0  0  0  0  0  0
   -1.9784    2.7642    2.4556 H   0  0  0  0  0  0  0  0  0  0  0  0
   -0.6216    2.4232    3.5377 H   0  0  0  0  0  0  0  0  0  0  0  0
    0.2784    5.8374   -1.6442 H   0  0  0  0  0  0  0  0  0  0  0  0
   -2.9440    0.5027    2.8950 H   0  0  0  0  0  0  0  0  0  0  0  0
    0.2967    6.9969   -3.8403 H   0  0  0  0  0  0  0  0  0  0  0  0
    1.3005    5.7044   -4.5289 H   0  0  0  0  0  0  0  0  0  0  0  0
    1.9400    6.7454   -3.2424 H   0  0  0  0  0  0  0  0  0  0  0  0
   -1.5019    5.2741   -3.4082 H   0  0  0  0  0  0  0  0  0  0  0  0
   -1.2524    4.0033   -2.2042 H   0  0  0  0  0  0  0  0  0  0  0  0
   -0.5458    3.8370   -3.8219 H   0  0  0  0  0  0  0  0  0  0  0  0
  1  2  1  0  0  0  0 
  1  3  1  0  0  0  0 
  2  4  1  0  0  0  0 
  3  5  2  0  0  0  0 
  3  6  1  0  0  0  0 
  4  7  1  0  0  0  0 
  4  8  1  0  0  0  0 
  5  9  1  0  0  0  0 
  5 10  1  0  0  0  0 
  6 11  2  0  0  0  0 
  7 12  1  0  0  0  0 
  9 13  1  0  0  0  0 
  9 14  2  0  0  0  0 
 10 15  1  0  0  0  0 
 11 14  1  0  0  0  0 
 12 16  1  0  0  0  0 
 13 17  1  0  0  0  0 
 15 17  1  0  0  0  0 
 16 18  1  0  0  0  0 
 16 19  1  0  0  0  0 
 17 20  1  0  0  0  0 
 20 21  1  0  0  0  0 
 21 22  2  0  0  0  0 
 21 23  1  0  0  0  0 
  2 24  1  0  0  0  0 
  2 25  1  0  0  0  0 
  4 26  1  0  0  0  0 
  6 27  1  0  0  0  0 
  7 28  1  0  0  0  0 
  7 29  1  0  0  0  0 
  8 30  1  0  0  0  0 
 11 31  1  0  0  0  0 
 12 32  1  0  0  0  0 
 13 33  1  0  0  0  0 
 13 34  1  0  0  0  0 
 14 35  1  0  0  0  0 
 15 36  1  0  0  0  0 
 15 37  1  0  0  0  0 
 16 38  1  0  0  0  0 
 17 39  1  0  0  0  0 
 18 40  1  0  0  0  0 
 18 41  1  0  0  0  0 
 18 42  1  0  0  0  0 
 19 43  1  0  0  0  0 
 19 44  1  0  0  0  0 
 19 45  1  0  0  0  0 
M  CHG  1  21   1
M  CHG  1  23  -1
M  END
> <cdk:Title>
nipradilol

> <Conformer>
1

> <SuperDrugID>
SD001734

$$$$
