megestrol acetate
  CDK     0628171801

 60 63  0  0  0  0  0  0  0  0999 V2000
   -3.4652   -1.5086   -2.6778 C   0  0  0  0  0  0  0  0  0  0  0  0
   -2.2234   -1.1551   -1.7644 C   0  0  2  0  0  0  0  0  0  0  0  0
   -1.4260    0.1241   -2.2089 C   0  0  2  0  0  0  0  0  0  0  0  0
   -1.1001   -2.2597   -1.9261 C   0  0  2  0  0  0  0  0  0  0  0  0
   -2.7432   -0.8867   -0.3033 C   0  0  2  0  0  0  0  0  0  0  0  0
   -2.3098    1.4164   -2.2161 C   0  0  1  0  0  0  0  0  0  0  0  0
   -0.6874   -0.3182   -3.4891 C   0  0  1  0  0  0  0  0  0  0  0  0
   -1.5811   -3.6826   -1.8416 C   0  0  0  0  0  0  0  0  0  0  0  0
   -0.1557   -2.0957   -0.8431 O   0  0  0  0  0  0  0  0  0  0  0  0
   -0.4188   -1.8301   -3.2748 C   0  0  1  0  0  0  0  0  0  0  0  0
   -3.5529    0.4411   -0.1573 C   0  0  2  0  0  0  0  0  0  0  0  0
   -2.8198    1.6923   -0.7570 C   0  0  2  0  0  0  0  0  0  0  0  0
   -1.6805    2.6017   -2.7909 C   0  0  0  0  0  0  0  0  0  0  0  0
   -1.2322   -4.7475   -2.8080 C   0  0  0  0  0  0  0  0  0  0  0  0
   -2.2646   -4.0243   -0.8473 O   0  0  0  0  0  0  0  0  0  0  0  0
   -3.5795    3.0848   -0.6851 C   0  0  2  0  0  0  0  0  0  0  0  0
   -1.8825    3.8699   -2.3545 C   0  0  0  0  0  0  0  0  0  0  0  0
   -4.8771    3.1216   -1.5678 C   0  0  0  0  0  0  0  0  0  0  0  0
   -2.6369    4.1333   -1.1989 C   0  0  0  0  0  0  0  0  0  0  0  0
   -3.9981    3.3467    0.8143 C   0  0  1  0  0  0  0  0  0  0  0  0
   -1.3015    4.9528   -3.1666 C   0  0  0  0  0  0  0  0  0  0  0  0
   -2.5236    5.3216   -0.5463 C   0  0  0  0  0  0  0  0  0  0  0  0
   -4.3376    4.8252    1.1073 C   0  0  1  0  0  0  0  0  0  0  0  0
   -3.3070    5.7088    0.5313 C   0  0  0  0  0  0  0  0  0  0  0  0
   -3.1761    6.8618    1.0069 O   0  0  0  0  0  0  0  0  0  0  0  0
    1.0317   -2.7169   -0.5828 C   0  0  0  0  0  0  0  0  0  0  0  0
    1.7643   -2.2866    0.6083 C   0  0  0  0  0  0  0  0  0  0  0  0
    1.4995   -3.6135   -1.3208 O   0  0  0  0  0  0  0  0  0  0  0  0
   -3.9334   -2.4348   -2.3439 H   0  0  0  0  0  0  0  0  0  0  0  0
   -3.1798   -1.6411   -3.7208 H   0  0  0  0  0  0  0  0  0  0  0  0
   -4.2410   -0.7475   -2.6491 H   0  0  0  0  0  0  0  0  0  0  0  0
   -0.6225    0.3237   -1.4850 H   0  0  0  0  0  0  0  0  0  0  0  0
   -1.9003   -0.8274    0.3896 H   0  0  0  0  0  0  0  0  0  0  0  0
   -3.3724   -1.7150    0.0320 H   0  0  0  0  0  0  0  0  0  0  0  0
   -3.1597    1.2205   -2.8682 H   0  0  0  0  0  0  0  0  0  0  0  0
   -1.3117   -0.1545   -4.3707 H   0  0  0  0  0  0  0  0  0  0  0  0
    0.2497    0.2322   -3.6168 H   0  0  0  0  0  0  0  0  0  0  0  0
    0.6558   -2.0235   -3.2615 H   0  0  0  0  0  0  0  0  0  0  0  0
   -0.8390   -2.3774   -4.1211 H   0  0  0  0  0  0  0  0  0  0  0  0
   -3.7216    0.5931    0.9117 H   0  0  0  0  0  0  0  0  0  0  0  0
   -4.5320    0.3275   -0.6210 H   0  0  0  0  0  0  0  0  0  0  0  0
   -1.9211    1.8074   -0.1332 H   0  0  0  0  0  0  0  0  0  0  0  0
   -1.1130    2.4499   -3.5958 H   0  0  0  0  0  0  0  0  0  0  0  0
   -1.4263   -5.7399   -2.3976 H   0  0  0  0  0  0  0  0  0  0  0  0
   -0.1762   -4.7019   -3.0662 H   0  0  0  0  0  0  0  0  0  0  0  0
   -1.8234   -4.6315   -3.7153 H   0  0  0  0  0  0  0  0  0  0  0  0
   -5.3744    4.0901   -1.4936 H   0  0  0  0  0  0  0  0  0  0  0  0
   -4.6629    2.9611   -2.6236 H   0  0  0  0  0  0  0  0  0  0  0  0
   -5.5862    2.3571   -1.2493 H   0  0  0  0  0  0  0  0  0  0  0  0
   -4.8570    2.7301    1.0924 H   0  0  0  0  0  0  0  0  0  0  0  0
   -3.1741    3.0723    1.4811 H   0  0  0  0  0  0  0  0  0  0  0  0
   -0.3346    5.2391   -2.7490 H   0  0  0  0  0  0  0  0  0  0  0  0
   -1.9559    5.8263   -3.1879 H   0  0  0  0  0  0  0  0  0  0  0  0
   -1.1562    4.6740   -4.2131 H   0  0  0  0  0  0  0  0  0  0  0  0
   -1.8508    5.9898   -0.8437 H   0  0  0  0  0  0  0  0  0  0  0  0
   -5.3121    5.0870    0.6884 H   0  0  0  0  0  0  0  0  0  0  0  0
   -4.3885    4.9670    2.1897 H   0  0  0  0  0  0  0  0  0  0  0  0
    1.1416   -2.5883    1.5038 H   0  0  0  0  0  0  0  0  0  0  0  0
    2.0078   -1.1888    0.4663 H   0  0  0  0  0  0  0  0  0  0  0  0
    2.7100   -2.8291    0.6784 H   0  0  0  0  0  0  0  0  0  0  0  0
  2  1  1  0  0  0  0 
  2  3  1  0  0  0  0 
  2  4  1  0  0  0  0 
  2  5  1  0  0  0  0 
  3  6  1  0  0  0  0 
  3  7  1  0  0  0  0 
  4  8  1  0  0  0  0 
  4  9  1  0  0  0  0 
  4 10  1  0  0  0  0 
  5 11  1  0  0  0  0 
  6 12  1  0  0  0  0 
  6 13  1  0  0  0  0 
  7 10  1  0  0  0  0 
  8 14  1  0  0  0  0 
  8 15  2  0  0  0  0 
 12 11  1  0  0  0  0 
 12 16  1  0  0  0  0 
 13 17  2  0  0  0  0 
 16 18  1  0  0  0  0 
 16 19  1  0  0  0  0 
 16 20  1  0  0  0  0 
 17 19  1  0  0  0  0 
 17 21  1  0  0  0  0 
 19 22  2  0  0  0  0 
 20 23  1  0  0  0  0 
 22 24  1  0  0  0  0 
 23 24  1  0  0  0  0 
 24 25  2  0  0  0  0 
  9 26  1  0  0  0  0 
 26 27  1  0  0  0  0 
 26 28  2  0  0  0  0 
 29  1  1  0  0  0  0 
 30  1  1  0  0  0  0 
 31  1  1  0  0  0  0 
  3 32  1  0  0  0  0 
 33  5  1  0  0  0  0 
 34  5  1  0  0  0  0 
  6 35  1  0  0  0  0 
 36  7  1  0  0  0  0 
 37  7  1  0  0  0  0 
 38 10  1  0  0  0  0 
 39 10  1  0  0  0  0 
 40 11  1  0  0  0  0 
 41 11  1  0  0  0  0 
 12 42  1  0  0  0  0 
 43 13  1  0  0  0  0 
 44 14  1  0  0  0  0 
 45 14  1  0  0  0  0 
 46 14  1  0  0  0  0 
 47 18  1  0  0  0  0 
 48 18  1  0  0  0  0 
 49 18  1  0  0  0  0 
 50 20  1  0  0  0  0 
 51 20  1  0  0  0  0 
 52 21  1  0  0  0  0 
 53 21  1  0  0  0  0 
 54 21  1  0  0  0  0 
 55 22  1  0  0  0  0 
 56 23  1  0  0  0  0 
 57 23  1  0  0  0  0 
 58 27  1  0  0  0  0 
 59 27  1  0  0  0  0 
 60 27  1  0  0  0  0 
M  END
> <cdk:Title>
megestrol acetate

> <Conformer>
1

> <SuperDrugID>
SD001476

$$$$
