adapalene
  CDK     0628171802

 59 64  0  0  0  0  0  0  0  0999 V2000
   -1.5187    0.4375    1.7341 C   0  0  0  0  0  0  0  0  0  0  0  0
   -0.1845    0.2034    1.3327 C   0  0  0  0  0  0  0  0  0  0  0  0
    0.1422   -0.0669   -0.0349 C   0  0  0  0  0  0  0  0  0  0  0  0
   -0.9372    0.0530   -0.9624 C   0  0  0  0  0  0  0  0  0  0  0  0
   -2.2686    0.3440   -0.5789 C   0  0  0  0  0  0  0  0  0  0  0  0
   -2.5493    0.5099    0.7902 C   0  0  0  0  0  0  0  0  0  0  0  0
    0.7386    0.2584    2.3449 O   0  0  0  0  0  0  0  0  0  0  0  0
    1.0839    1.6051    2.7370 C   0  0  0  0  0  0  0  0  0  0  0  0
   -3.3107    0.4756   -1.5393 C   0  0  0  0  0  0  0  0  0  0  0  0
   -4.4568   -0.3497   -1.4807 C   0  0  0  0  0  0  0  0  0  0  0  0
   -5.5064   -0.2075   -2.4175 C   0  0  0  0  0  0  0  0  0  0  0  0
   -5.4174    0.7859   -3.4298 C   0  0  0  0  0  0  0  0  0  0  0  0
   -4.2710    1.6096   -3.4893 C   0  0  0  0  0  0  0  0  0  0  0  0
   -3.2289    1.4521   -2.5572 C   0  0  0  0  0  0  0  0  0  0  0  0
   -6.6436   -1.0403   -2.3636 C   0  0  0  0  0  0  0  0  0  0  0  0
   -7.6832   -0.8881   -3.2961 C   0  0  0  0  0  0  0  0  0  0  0  0
   -7.6233    0.0990   -4.3096 C   0  0  0  0  0  0  0  0  0  0  0  0
   -6.4744    0.9287   -4.3599 C   0  0  0  0  0  0  0  0  0  0  0  0
   -8.6908    0.2458   -5.2413 C   0  0  0  0  0  0  0  0  0  0  0  0
   -9.7900   -0.5499   -5.1916 O   0  0  0  0  0  0  0  0  0  0  0  0
   -8.6745    1.1112   -6.1466 O   0  0  0  0  0  0  0  0  0  0  0  0
    2.0648    0.6877   -1.5135 C   0  0  2  0  0  0  0  0  0  0  0  0
    3.4510    0.3166   -2.1356 C   0  0  2  0  0  0  0  0  0  0  0  0
    3.3147   -1.0049   -2.9562 C   0  0  1  0  0  0  0  0  0  0  0  0
    4.5080    0.1173   -1.0065 C   0  0  1  0  0  0  0  0  0  0  0  0
    1.4755   -1.8077   -1.3724 C   0  0  2  0  0  0  0  0  0  0  0  0
    2.8580   -2.1636   -2.0125 C   0  0  2  0  0  0  0  0  0  0  0  0
    3.9180   -2.3671   -0.8904 C   0  0  2  0  0  0  0  0  0  0  0  0
    4.0440   -1.0462   -0.0755 C   0  0  2  0  0  0  0  0  0  0  0  0
    2.6549   -0.6750    0.5361 C   0  0  2  0  0  0  0  0  0  0  0  0
    1.5344   -0.4508   -0.5594 C   0  0  2  0  0  0  0  0  0  0  0  0
   -1.7455    0.5776    2.7238 H   0  0  0  0  0  0  0  0  0  0  0  0
   -0.7591   -0.0807   -1.9593 H   0  0  0  0  0  0  0  0  0  0  0  0
   -3.5010    0.7073    1.1107 H   0  0  0  0  0  0  0  0  0  0  0  0
    1.9342    1.5531    3.4184 H   0  0  0  0  0  0  0  0  0  0  0  0
    1.3669    2.2248    1.8791 H   0  0  0  0  0  0  0  0  0  0  0  0
    0.2572    2.0803    3.2688 H   0  0  0  0  0  0  0  0  0  0  0  0
   -4.5269   -1.0627   -0.7488 H   0  0  0  0  0  0  0  0  0  0  0  0
   -4.1833    2.3331   -4.2070 H   0  0  0  0  0  0  0  0  0  0  0  0
   -2.4160    2.0700   -2.6183 H   0  0  0  0  0  0  0  0  0  0  0  0
   -6.7289   -1.7682   -1.6481 H   0  0  0  0  0  0  0  0  0  0  0  0
   -8.4890   -1.5140   -3.2220 H   0  0  0  0  0  0  0  0  0  0  0  0
   -6.4023    1.6482   -5.0842 H   0  0  0  0  0  0  0  0  0  0  0  0
  -10.5164   -0.4333   -5.8397 H   0  0  0  0  0  0  0  0  0  0  0  0
    1.3661    0.8642   -2.3349 H   0  0  0  0  0  0  0  0  0  0  0  0
    2.1494    1.6286   -0.9602 H   0  0  0  0  0  0  0  0  0  0  0  0
    3.7785    1.1250   -2.7963 H   0  0  0  0  0  0  0  0  0  0  0  0
    2.5914   -0.8728   -3.7661 H   0  0  0  0  0  0  0  0  0  0  0  0
    4.2744   -1.2558   -3.4189 H   0  0  0  0  0  0  0  0  0  0  0  0
    5.4838   -0.1148   -1.4439 H   0  0  0  0  0  0  0  0  0  0  0  0
    4.6229    1.0387   -0.4279 H   0  0  0  0  0  0  0  0  0  0  0  0
    1.1553   -2.6245   -0.7161 H   0  0  0  0  0  0  0  0  0  0  0  0
    0.7481   -1.7592   -2.1846 H   0  0  0  0  0  0  0  0  0  0  0  0
    2.7670   -3.0886   -2.5920 H   0  0  0  0  0  0  0  0  0  0  0  0
    4.8826   -2.6344   -1.3328 H   0  0  0  0  0  0  0  0  0  0  0  0
    3.6239   -3.1913   -0.2330 H   0  0  0  0  0  0  0  0  0  0  0  0
    4.7782   -1.1834    0.7244 H   0  0  0  0  0  0  0  0  0  0  0  0
    2.8143    0.2370    1.1079 H   0  0  0  0  0  0  0  0  0  0  0  0
    2.3493   -1.4634    1.2317 H   0  0  0  0  0  0  0  0  0  0  0  0
  1  2  2  0  0  0  0 
  1  6  1  0  0  0  0 
  2  3  1  0  0  0  0 
  3  4  2  0  0  0  0 
  4  5  1  0  0  0  0 
  5  6  2  0  0  0  0 
  2  7  1  0  0  0  0 
  7  8  1  0  0  0  0 
  5  9  1  0  0  0  0 
 10 11  2  0  0  0  0 
 11 12  1  0  0  0  0 
 12 13  2  0  0  0  0 
 13 14  1  0  0  0  0 
  9 10  1  0  0  0  0 
  9 14  2  0  0  0  0 
 15 16  2  0  0  0  0 
 16 17  1  0  0  0  0 
 17 18  2  0  0  0  0 
 11 15  1  0  0  0  0 
 12 18  1  0  0  0  0 
 17 19  1  0  0  0  0 
 19 20  1  0  0  0  0 
 19 21  2  0  0  0  0 
 22 23  1  0  0  0  0 
 23 24  1  0  0  0  0 
 23 25  1  0  0  0  0 
 26 27  1  0  0  0  0 
 27 28  1  0  0  0  0 
 28 29  1  0  0  0  0 
 29 30  1  0  0  0  0 
 25 29  1  0  0  0  0 
 27 24  1  0  0  0  0 
 22 31  1  0  0  0  0 
 30 31  1  0  0  0  0 
 26 31  1  0  0  0  0 
 31  3  1  0  0  0  0 
  1 32  1  0  0  0  0 
  4 33  1  0  0  0  0 
  6 34  1  0  0  0  0 
  8 35  1  0  0  0  0 
  8 36  1  0  0  0  0 
  8 37  1  0  0  0  0 
 10 38  1  0  0  0  0 
 13 39  1  0  0  0  0 
 14 40  1  0  0  0  0 
 15 41  1  0  0  0  0 
 16 42  1  0  0  0  0 
 18 43  1  0  0  0  0 
 20 44  1  0  0  0  0 
 22 45  1  0  0  0  0 
 22 46  1  0  0  0  0 
 23 47  1  0  0  0  0 
 24 48  1  0  0  0  0 
 24 49  1  0  0  0  0 
 25 50  1  0  0  0  0 
 25 51  1  0  0  0  0 
 26 52  1  0  0  0  0 
 26 53  1  0  0  0  0 
 27 54  1  0  0  0  0 
 28 55  1  0  0  0  0 
 28 56  1  0  0  0  0 
 29 57  1  0  0  0  0 
 30 58  1  0  0  0  0 
 30 59  1  0  0  0  0 
M  END
> <cdk:Title>
adapalene

> <Conformer>
1

> <SuperDrugID>
SD000062

$$$$
