sulfachrysoidine
  CDK     0628171801

 36 37  0  0  0  0  0  0  0  0999 V2000
   -5.6167    1.2543    2.6445 N   0  0  0  0  0  0  0  0  0  0  0  0
   -4.4643    1.3625    3.0504 N   0  0  0  0  0  0  0  0  0  0  0  0
   -6.7837    1.4092    3.2678 C   0  0  0  0  0  0  0  0  0  0  0  0
   -3.3679    1.2031    2.3163 C   0  0  0  0  0  0  0  0  0  0  0  0
   -6.9780    2.0382    4.5356 C   0  0  0  0  0  0  0  0  0  0  0  0
   -7.9037    0.8709    2.5823 C   0  0  0  0  0  0  0  0  0  0  0  0
   -3.3876    0.9666    0.9200 C   0  0  0  0  0  0  0  0  0  0  0  0
   -2.1189    1.2847    2.9692 C   0  0  0  0  0  0  0  0  0  0  0  0
   -5.9385    2.6391    5.2854 C   0  0  0  0  0  0  0  0  0  0  0  0
   -8.2836    2.0925    5.0829 C   0  0  0  0  0  0  0  0  0  0  0  0
   -7.7796    0.2470    1.3861 N   0  0  0  0  0  0  0  0  0  0  0  0
   -9.1921    0.9511    3.1440 C   0  0  0  0  0  0  0  0  0  0  0  0
   -2.1896    0.8207    0.1991 C   0  0  0  0  0  0  0  0  0  0  0  0
   -0.9181    1.1347    2.2488 C   0  0  0  0  0  0  0  0  0  0  0  0
   -5.8275    2.4209    6.6187 O   0  0  0  0  0  0  0  0  0  0  0  0
   -5.1180    3.4210    4.7533 O   0  0  0  0  0  0  0  0  0  0  0  0
   -9.3875    1.5642    4.3913 C   0  0  0  0  0  0  0  0  0  0  0  0
   -0.9480    0.8989    0.8600 C   0  0  0  0  0  0  0  0  0  0  0  0
  -10.6273    1.6440    4.9175 N   0  0  0  0  0  0  0  0  0  0  0  0
    0.5410    0.6852   -0.0697 S   0  0  1  0  0  0  0  0  0  0  0  0
    0.5239   -0.9071   -0.8167 N   0  0  2  0  0  0  0  0  0  0  0  0
    0.6277    1.7830   -1.2368 O   0  0  0  0  0  0  0  0  0  0  0  0
    1.8459    0.7952    0.8570 O   0  0  0  0  0  0  0  0  0  0  0  0
   -4.2742    0.8994    0.4149 H   0  0  0  0  0  0  0  0  0  0  0  0
   -2.0717    1.4502    3.9786 H   0  0  0  0  0  0  0  0  0  0  0  0
   -8.4461    2.5336    5.9930 H   0  0  0  0  0  0  0  0  0  0  0  0
   -8.5625   -0.1049    0.9330 H   0  0  0  0  0  0  0  0  0  0  0  0
   -6.9050    0.1431    0.9795 H   0  0  0  0  0  0  0  0  0  0  0  0
   -9.9933    0.5561    2.6434 H   0  0  0  0  0  0  0  0  0  0  0  0
   -2.2309    0.6546   -0.8097 H   0  0  0  0  0  0  0  0  0  0  0  0
   -0.0263    1.1955    2.7463 H   0  0  0  0  0  0  0  0  0  0  0  0
   -5.1164    2.8571    7.1330 H   0  0  0  0  0  0  0  0  0  0  0  0
  -11.3870    1.2859    4.4297 H   0  0  0  0  0  0  0  0  0  0  0  0
  -10.7631    2.0560    5.7858 H   0  0  0  0  0  0  0  0  0  0  0  0
    1.3950   -1.0023   -1.3419 H   0  0  0  0  0  0  0  0  0  0  0  0
   -0.2380   -0.9059   -1.4981 H   0  0  0  0  0  0  0  0  0  0  0  0
  1  2  2  0  0  0  0 
  1  3  1  0  0  0  0 
  2  4  1  0  0  0  0 
  3  5  2  0  0  0  0 
  3  6  1  0  0  0  0 
  4  7  2  0  0  0  0 
  4  8  1  0  0  0  0 
  5  9  1  0  0  0  0 
  5 10  1  0  0  0  0 
  6 11  1  0  0  0  0 
  6 12  2  0  0  0  0 
  7 13  1  0  0  0  0 
  8 14  2  0  0  0  0 
  9 15  1  0  0  0  0 
  9 16  2  0  0  0  0 
 10 17  2  0  0  0  0 
 12 17  1  0  0  0  0 
 13 18  2  0  0  0  0 
 14 18  1  0  0  0  0 
 17 19  1  0  0  0  0 
 18 20  1  0  0  0  0 
 20 21  1  0  0  0  0 
 20 22  2  0  0  0  0 
 20 23  2  0  0  0  0 
  7 24  1  0  0  0  0 
  8 25  1  0  0  0  0 
 10 26  1  0  0  0  0 
 11 27  1  0  0  0  0 
 11 28  1  0  0  0  0 
 12 29  1  0  0  0  0 
 13 30  1  0  0  0  0 
 14 31  1  0  0  0  0 
 15 32  1  0  0  0  0 
 19 33  1  0  0  0  0 
 19 34  1  0  0  0  0 
 21 35  1  0  0  0  0 
 21 36  1  0  0  0  0 
M  END
> <cdk:Title>
sulfachrysoidine

> <Conformer>
1

> <SuperDrugID>
SD003060

$$$$
