bucricaine
  CDK     0628171801

 41 43  0  0  0  0  0  0  0  0999 V2000
   -0.4131    0.6117   -0.8121 N   0  0  0  0  0  0  0  0  0  0  0  0
   -1.5391    0.1852   -0.0337 C   0  0  2  0  0  0  0  0  0  0  0  0
    0.7667   -0.0767   -0.8786 C   0  0  0  0  0  0  0  0  0  0  0  0
   -2.8024    1.0434   -0.2926 C   0  0  2  0  0  0  0  0  0  0  0  0
    1.9335    0.5218   -0.3229 C   0  0  0  0  0  0  0  0  0  0  0  0
    0.8495   -1.3641   -1.4806 C   0  0  0  0  0  0  0  0  0  0  0  0
   -3.2283    1.0951   -1.7840 C   0  0  1  0  0  0  0  0  0  0  0  0
    3.1324   -0.2420   -0.2918 C   0  0  0  0  0  0  0  0  0  0  0  0
    1.9191    1.9279    0.1956 C   0  0  1  0  0  0  0  0  0  0  0  0
    2.0680   -2.0876   -1.3625 C   0  0  0  0  0  0  0  0  0  0  0  0
   -0.2062   -1.9617   -2.2135 C   0  0  0  0  0  0  0  0  0  0  0  0
   -4.5194    1.9116   -2.0128 C   0  0  0  0  0  0  0  0  0  0  0  0
    3.1372   -1.5080   -0.7747 N   0  0  0  0  0  0  0  0  0  0  0  0
    4.4122    0.2670    0.2585 C   0  0  1  0  0  0  0  0  0  0  0  0
    3.1703    2.3509    1.0124 C   0  0  1  0  0  0  0  0  0  0  0  0
    2.1942   -3.3955   -1.8708 C   0  0  0  0  0  0  0  0  0  0  0  0
   -0.0735   -3.2598   -2.7425 C   0  0  0  0  0  0  0  0  0  0  0  0
    4.4644    1.8106    0.3637 C   0  0  2  0  0  0  0  0  0  0  0  0
    1.1209   -3.9792   -2.5650 C   0  0  0  0  0  0  0  0  0  0  0  0
   -0.4425    1.4992   -1.2046 H   0  0  0  0  0  0  0  0  0  0  0  0
   -1.2715    0.2756    1.0218 H   0  0  0  0  0  0  0  0  0  0  0  0
   -1.7816   -0.8624   -0.2163 H   0  0  0  0  0  0  0  0  0  0  0  0
   -2.6179    2.0594    0.0664 H   0  0  0  0  0  0  0  0  0  0  0  0
   -3.6245    0.6278    0.2972 H   0  0  0  0  0  0  0  0  0  0  0  0
   -2.4264    1.5493   -2.3712 H   0  0  0  0  0  0  0  0  0  0  0  0
   -3.3863    0.0788   -2.1550 H   0  0  0  0  0  0  0  0  0  0  0  0
    1.8270    2.5952   -0.6656 H   0  0  0  0  0  0  0  0  0  0  0  0
    1.0461    2.0850    0.8338 H   0  0  0  0  0  0  0  0  0  0  0  0
   -1.0789   -1.4566   -2.3847 H   0  0  0  0  0  0  0  0  0  0  0  0
   -4.7372    1.9574   -3.0826 H   0  0  0  0  0  0  0  0  0  0  0  0
   -4.4011    2.9302   -1.6376 H   0  0  0  0  0  0  0  0  0  0  0  0
   -5.3633    1.4398   -1.5049 H   0  0  0  0  0  0  0  0  0  0  0  0
    4.5556   -0.1733    1.2485 H   0  0  0  0  0  0  0  0  0  0  0  0
    5.2417   -0.0566   -0.3763 H   0  0  0  0  0  0  0  0  0  0  0  0
    3.2188    3.4416    1.0716 H   0  0  0  0  0  0  0  0  0  0  0  0
    3.0911    1.9658    2.0337 H   0  0  0  0  0  0  0  0  0  0  0  0
    3.0649   -3.9222   -1.7461 H   0  0  0  0  0  0  0  0  0  0  0  0
   -0.8493   -3.6825   -3.2551 H   0  0  0  0  0  0  0  0  0  0  0  0
    4.5724    2.2417   -0.6363 H   0  0  0  0  0  0  0  0  0  0  0  0
    5.3333    2.1084    0.9565 H   0  0  0  0  0  0  0  0  0  0  0  0
    1.2130   -4.9242   -2.9467 H   0  0  0  0  0  0  0  0  0  0  0  0
  1  2  1  0  0  0  0 
  1  3  1  0  0  0  0 
  2  4  1  0  0  0  0 
  3  5  1  0  0  0  0 
  3  6  2  0  0  0  0 
  4  7  1  0  0  0  0 
  5  8  2  0  0  0  0 
  5  9  1  0  0  0  0 
  6 10  1  0  0  0  0 
  6 11  1  0  0  0  0 
  7 12  1  0  0  0  0 
  8 13  1  0  0  0  0 
  8 14  1  0  0  0  0 
  9 15  1  0  0  0  0 
 10 13  2  0  0  0  0 
 10 16  1  0  0  0  0 
 11 17  2  0  0  0  0 
 14 18  1  0  0  0  0 
 15 18  1  0  0  0  0 
 16 19  2  0  0  0  0 
 17 19  1  0  0  0  0 
  1 20  1  0  0  0  0 
  2 21  1  0  0  0  0 
  2 22  1  0  0  0  0 
  4 23  1  0  0  0  0 
  4 24  1  0  0  0  0 
  7 25  1  0  0  0  0 
  7 26  1  0  0  0  0 
  9 27  1  0  0  0  0 
  9 28  1  0  0  0  0 
 11 29  1  0  0  0  0 
 12 30  1  0  0  0  0 
 12 31  1  0  0  0  0 
 12 32  1  0  0  0  0 
 14 33  1  0  0  0  0 
 14 34  1  0  0  0  0 
 15 35  1  0  0  0  0 
 15 36  1  0  0  0  0 
 16 37  1  0  0  0  0 
 17 38  1  0  0  0  0 
 18 39  1  0  0  0  0 
 18 40  1  0  0  0  0 
 19 41  1  0  0  0  0 
M  END
> <cdk:Title>
bucricaine

> <Conformer>
1

> <SuperDrugID>
SD003292

$$$$
