pyrithione
  CDK     0628171801

 13 13  0  0  0  0  0  0  0  0999 V2000
   -1.4015    0.8797   -0.8401 O   0  0  0  0  0  0  0  0  0  0  0  0
   -1.0987   -0.1379   -0.0764 N   0  0  0  0  0  0  0  0  0  0  0  0
   -2.1232   -0.9217    0.3662 C   0  0  0  0  0  0  0  0  0  0  0  0
   -1.8641   -2.0309    1.1905 C   0  0  0  0  0  0  0  0  0  0  0  0
   -0.5363   -2.3168    1.5489 C   0  0  0  0  0  0  0  0  0  0  0  0
    0.5064   -1.4969    1.0825 C   0  0  0  0  0  0  0  0  0  0  0  0
    0.2039   -0.3933    0.2573 C   0  0  0  0  0  0  0  0  0  0  0  0
    1.5049    0.6194   -0.3172 S   0  0  0  0  0  0  0  0  0  0  0  0
   -3.0901   -0.7103    0.1029 H   0  0  0  0  0  0  0  0  0  0  0  0
   -2.6299   -2.6212    1.5244 H   0  0  0  0  0  0  0  0  0  0  0  0
   -0.3281   -3.1193    2.1476 H   0  0  0  0  0  0  0  0  0  0  0  0
    1.4712   -1.7098    1.3467 H   0  0  0  0  0  0  0  0  0  0  0  0
    2.4818   -0.0957    0.3079 H   0  0  0  0  0  0  0  0  0  0  0  0
  1  2  1  0  0  0  0 
  2  3  2  0  0  0  0 
  3  4  1  0  0  0  0 
  4  5  2  0  0  0  0 
  5  6  1  0  0  0  0 
  6  7  2  0  0  0  0 
  2  7  1  0  0  0  0 
  7  8  1  0  0  0  0 
  3  9  1  0  0  0  0 
  4 10  1  0  0  0  0 
  5 11  1  0  0  0  0 
  6 12  1  0  0  0  0 
  8 13  1  0  0  0  0 
M  CHG  1   1  -1
M  CHG  1   2   1
M  END
> <cdk:Title>
pyrithione

> <Conformer>
1

> <SuperDrugID>
SD003021

$$$$
