etozolin
  CDK     0628171801

 39 40  0  0  0  0  0  0  0  0999 V2000
   -1.7623    0.6935   -3.3159 O   0  0  0  0  0  0  0  0  0  0  0  0
   -2.3101    0.7787   -2.1911 C   0  0  0  0  0  0  0  0  0  0  0  0
   -1.4314    0.9449   -1.0168 C   0  0  1  0  0  0  0  0  0  0  0  0
   -3.6800    0.7144   -2.0059 N   0  0  0  0  0  0  0  0  0  0  0  0
   -2.7020    1.0290    0.2903 S   0  0  0  0  0  0  0  0  0  0  0  0
   -4.5859    0.4827   -3.1119 C   0  0  0  0  0  0  0  0  0  0  0  0
   -4.0965    0.8771   -0.7264 C   0  0  0  0  0  0  0  0  0  0  0  0
   -5.3775    0.9181   -0.2981 C   0  0  0  0  0  0  0  0  0  0  0  0
   -0.3934   -0.1255   -0.8377 N   0  0  2  0  0  0  0  0  0  0  0  0
   -0.8842   -1.5435   -0.8952 C   0  0  2  0  0  0  0  0  0  0  0  0
    0.2925   -2.5522   -0.9023 C   0  0  1  0  0  0  0  0  0  0  0  0
    1.2196   -2.3205    0.3145 C   0  0  1  0  0  0  0  0  0  0  0  0
    1.7185   -0.8553    0.3420 C   0  0  2  0  0  0  0  0  0  0  0  0
    0.5284    0.1365    0.3156 C   0  0  2  0  0  0  0  0  0  0  0  0
   -5.8586    1.0896    0.9913 C   0  0  0  0  0  0  0  0  0  0  0  0
   -5.0497    1.2858    2.0745 O   0  0  0  0  0  0  0  0  0  0  0  0
   -7.1029    1.0828    1.1614 O   0  0  0  0  0  0  0  0  0  0  0  0
   -5.5037    1.5356    3.4109 C   0  0  2  0  0  0  0  0  0  0  0  0
   -4.3091    1.7577    4.3533 C   0  0  0  0  0  0  0  0  0  0  0  0
   -0.9496    1.9210   -1.1038 H   0  0  0  0  0  0  0  0  0  0  0  0
   -5.2585    1.3358   -3.2252 H   0  0  0  0  0  0  0  0  0  0  0  0
   -4.0775    0.3371   -4.0670 H   0  0  0  0  0  0  0  0  0  0  0  0
   -5.1797   -0.4149   -2.9215 H   0  0  0  0  0  0  0  0  0  0  0  0
   -6.0835    0.8252   -0.9891 H   0  0  0  0  0  0  0  0  0  0  0  0
   -1.4563   -1.7128   -1.8115 H   0  0  0  0  0  0  0  0  0  0  0  0
   -1.5404   -1.7529   -0.0440 H   0  0  0  0  0  0  0  0  0  0  0  0
   -0.0939   -3.5737   -0.8812 H   0  0  0  0  0  0  0  0  0  0  0  0
    0.8696   -2.4310   -1.8238 H   0  0  0  0  0  0  0  0  0  0  0  0
    0.6735   -2.5385    1.2373 H   0  0  0  0  0  0  0  0  0  0  0  0
    2.0748   -2.9983    0.2602 H   0  0  0  0  0  0  0  0  0  0  0  0
    2.3590   -0.6738   -0.5256 H   0  0  0  0  0  0  0  0  0  0  0  0
    2.3152   -0.6863    1.2417 H   0  0  0  0  0  0  0  0  0  0  0  0
   -0.0175    0.0613    1.2615 H   0  0  0  0  0  0  0  0  0  0  0  0
    0.9400    1.1474    0.2440 H   0  0  0  0  0  0  0  0  0  0  0  0
   -6.0996    0.6888    3.7649 H   0  0  0  0  0  0  0  0  0  0  0  0
   -6.1272    2.4338    3.4116 H   0  0  0  0  0  0  0  0  0  0  0  0
   -3.7369    0.8329    4.4627 H   0  0  0  0  0  0  0  0  0  0  0  0
   -4.6728    2.0695    5.3349 H   0  0  0  0  0  0  0  0  0  0  0  0
   -3.6580    2.5369    3.9513 H   0  0  0  0  0  0  0  0  0  0  0  0
  1  2  2  0  0  0  0 
  3  2  1  0  0  0  0 
  2  4  1  0  0  0  0 
  3  5  1  0  0  0  0 
  4  6  1  0  0  0  0 
  4  7  1  0  0  0  0 
  5  7  1  0  0  0  0 
  7  8  2  0  0  0  0 
  3  9  1  0  0  0  0 
 10 11  1  0  0  0  0 
 11 12  1  0  0  0  0 
 12 13  1  0  0  0  0 
 13 14  1  0  0  0  0 
  9 10  1  0  0  0  0 
  9 14  1  0  0  0  0 
  8 15  1  0  0  0  0 
 15 16  1  0  0  0  0 
 15 17  2  0  0  0  0 
 16 18  1  0  0  0  0 
 18 19  1  0  0  0  0 
  3 20  1  0  0  0  0 
  6 21  1  0  0  0  0 
  6 22  1  0  0  0  0 
  6 23  1  0  0  0  0 
  8 24  1  0  0  0  0 
 10 25  1  0  0  0  0 
 10 26  1  0  0  0  0 
 11 27  1  0  0  0  0 
 11 28  1  0  0  0  0 
 12 29  1  0  0  0  0 
 12 30  1  0  0  0  0 
 13 31  1  0  0  0  0 
 13 32  1  0  0  0  0 
 14 33  1  0  0  0  0 
 14 34  1  0  0  0  0 
 18 35  1  0  0  0  0 
 18 36  1  0  0  0  0 
 19 37  1  0  0  0  0 
 19 38  1  0  0  0  0 
 19 39  1  0  0  0  0 
M  END
> <cdk:Title>
etozolin

> <Conformer>
1

> <SuperDrugID>
SD000995

$$$$
