bumetanide
  CDK     0628171801

 45 46  0  0  0  0  0  0  0  0999 V2000
    0.0498   -2.6728   -1.0283 O   0  0  0  0  0  0  0  0  0  0  0  0
   -0.2094   -2.3318    0.2801 C   0  0  0  0  0  0  0  0  0  0  0  0
    0.8226   -1.8058   -1.7638 C   0  0  0  0  0  0  0  0  0  0  0  0
   -1.1518   -1.3184    0.6066 C   0  0  0  0  0  0  0  0  0  0  0  0
    0.4219   -3.0687    1.3131 C   0  0  0  0  0  0  0  0  0  0  0  0
    2.1803   -1.5322   -1.4751 C   0  0  0  0  0  0  0  0  0  0  0  0
    0.2384   -1.2208   -2.9077 C   0  0  0  0  0  0  0  0  0  0  0  0
   -1.7491   -0.6258   -0.4145 N   0  0  0  0  0  0  0  0  0  0  0  0
   -1.4543   -1.0743    1.9679 C   0  0  0  0  0  0  0  0  0  0  0  0
    1.6249   -4.3480    1.0201 S   0  0  2  0  0  0  0  0  0  0  0  0
    0.0943   -2.7969    2.6580 C   0  0  0  0  0  0  0  0  0  0  0  0
    2.9307   -0.6827   -2.3121 C   0  0  0  0  0  0  0  0  0  0  0  0
    0.9785   -0.3511   -3.7291 C   0  0  0  0  0  0  0  0  0  0  0  0
   -2.4675    0.6126   -0.3521 C   0  0  2  0  0  0  0  0  0  0  0  0
   -0.8504   -1.8086    3.0138 C   0  0  0  0  0  0  0  0  0  0  0  0
    1.6269   -4.9696   -0.6241 N   0  0  2  0  0  0  0  0  0  0  0  0
    1.3420   -5.5921    1.9927 O   0  0  0  0  0  0  0  0  0  0  0  0
    3.0940   -3.7914    1.3451 O   0  0  0  0  0  0  0  0  0  0  0  0
    2.3281   -0.0880   -3.4364 C   0  0  0  0  0  0  0  0  0  0  0  0
   -1.6108    1.8280    0.0961 C   0  0  2  0  0  0  0  0  0  0  0  0
   -1.1873   -1.5711    4.3765 C   0  0  0  0  0  0  0  0  0  0  0  0
   -0.4094    2.1254   -0.8386 C   0  0  1  0  0  0  0  0  0  0  0  0
   -0.6088   -2.2593    5.3908 O   0  0  0  0  0  0  0  0  0  0  0  0
   -2.0370   -0.7136    4.7106 O   0  0  0  0  0  0  0  0  0  0  0  0
    0.4644    3.2957   -0.3345 C   0  0  0  0  0  0  0  0  0  0  0  0
    2.6294   -1.9521   -0.6614 H   0  0  0  0  0  0  0  0  0  0  0  0
   -0.7330   -1.4300   -3.1493 H   0  0  0  0  0  0  0  0  0  0  0  0
   -1.6508   -1.0021   -1.2994 H   0  0  0  0  0  0  0  0  0  0  0  0
   -2.1422   -0.3583    2.2055 H   0  0  0  0  0  0  0  0  0  0  0  0
    0.5557   -3.3384    3.3925 H   0  0  0  0  0  0  0  0  0  0  0  0
    3.9156   -0.4964   -2.1036 H   0  0  0  0  0  0  0  0  0  0  0  0
    0.5361    0.0872   -4.5391 H   0  0  0  0  0  0  0  0  0  0  0  0
   -3.3333    0.5150    0.3069 H   0  0  0  0  0  0  0  0  0  0  0  0
   -2.8557    0.8109   -1.3540 H   0  0  0  0  0  0  0  0  0  0  0  0
    2.3362   -5.7065   -0.6567 H   0  0  0  0  0  0  0  0  0  0  0  0
    1.9618   -4.2174   -1.2294 H   0  0  0  0  0  0  0  0  0  0  0  0
    2.8716    0.5332   -4.0404 H   0  0  0  0  0  0  0  0  0  0  0  0
   -1.2414    1.6578    1.1075 H   0  0  0  0  0  0  0  0  0  0  0  0
   -2.2560    2.7097    0.1309 H   0  0  0  0  0  0  0  0  0  0  0  0
    0.2232    1.2364   -0.9155 H   0  0  0  0  0  0  0  0  0  0  0  0
   -0.7798    2.3746   -1.8385 H   0  0  0  0  0  0  0  0  0  0  0  0
   -0.8705   -2.0728    6.3182 H   0  0  0  0  0  0  0  0  0  0  0  0
    1.3533    3.3860   -0.9628 H   0  0  0  0  0  0  0  0  0  0  0  0
    0.7837    3.1197    0.6950 H   0  0  0  0  0  0  0  0  0  0  0  0
   -0.0920    4.2334   -0.3792 H   0  0  0  0  0  0  0  0  0  0  0  0
  1  2  1  0  0  0  0 
  1  3  1  0  0  0  0 
  2  4  2  0  0  0  0 
  2  5  1  0  0  0  0 
  3  6  2  0  0  0  0 
  3  7  1  0  0  0  0 
  4  8  1  0  0  0  0 
  4  9  1  0  0  0  0 
  5 10  1  0  0  0  0 
  5 11  2  0  0  0  0 
  6 12  1  0  0  0  0 
  7 13  2  0  0  0  0 
  8 14  1  0  0  0  0 
  9 15  2  0  0  0  0 
 10 16  1  0  0  0  0 
 10 17  2  0  0  0  0 
 10 18  2  0  0  0  0 
 11 15  1  0  0  0  0 
 12 19  2  0  0  0  0 
 13 19  1  0  0  0  0 
 14 20  1  0  0  0  0 
 15 21  1  0  0  0  0 
 20 22  1  0  0  0  0 
 21 23  1  0  0  0  0 
 21 24  2  0  0  0  0 
 22 25  1  0  0  0  0 
  6 26  1  0  0  0  0 
  7 27  1  0  0  0  0 
  8 28  1  0  0  0  0 
  9 29  1  0  0  0  0 
 11 30  1  0  0  0  0 
 12 31  1  0  0  0  0 
 13 32  1  0  0  0  0 
 14 33  1  0  0  0  0 
 14 34  1  0  0  0  0 
 16 35  1  0  0  0  0 
 16 36  1  0  0  0  0 
 19 37  1  0  0  0  0 
 20 38  1  0  0  0  0 
 20 39  1  0  0  0  0 
 22 40  1  0  0  0  0 
 22 41  1  0  0  0  0 
 23 42  1  0  0  0  0 
 25 43  1  0  0  0  0 
 25 44  1  0  0  0  0 
 25 45  1  0  0  0  0 
M  END
> <cdk:Title>
bumetanide

> <Conformer>
1

> <SuperDrugID>
SD000369

$$$$
