isometheptene
  CDK     0628171801

 29 28  0  0  0  0  0  0  0  0999 V2000
   -0.4017   -4.3057   -5.4473 C   0  0  0  0  0  0  0  0  0  0  0  0
   -0.2804   -3.8502   -4.0471 N   0  0  1  0  0  0  0  0  0  0  0  0
    1.0639   -3.3871   -3.6068 C   0  0  2  0  0  0  0  0  0  0  0  0
    2.0887   -4.5563   -3.5714 C   0  0  0  0  0  0  0  0  0  0  0  0
    0.9390   -2.7267   -2.1992 C   0  0  2  0  0  0  0  0  0  0  0  0
    0.0211   -1.4684   -2.1477 C   0  0  2  0  0  0  0  0  0  0  0  0
    0.0772   -0.7984   -0.8526 C   0  0  0  0  0  0  0  0  0  0  0  0
    0.9657    0.1512   -0.4739 C   0  0  0  0  0  0  0  0  0  0  0  0
    0.9310    0.6987    0.8840 C   0  0  0  0  0  0  0  0  0  0  0  0
    1.9869    0.6712   -1.3820 C   0  0  0  0  0  0  0  0  0  0  0  0
    0.1021   -5.2635   -5.5834 H   0  0  0  0  0  0  0  0  0  0  0  0
   -1.4599   -4.4434   -5.6731 H   0  0  0  0  0  0  0  0  0  0  0  0
    0.0115   -3.5678   -6.1389 H   0  0  0  0  0  0  0  0  0  0  0  0
   -0.9050   -3.0461   -3.9656 H   0  0  0  0  0  0  0  0  0  0  0  0
    1.4337   -2.6286   -4.3053 H   0  0  0  0  0  0  0  0  0  0  0  0
    3.0492   -4.2154   -3.1824 H   0  0  0  0  0  0  0  0  0  0  0  0
    2.2628   -4.9462   -4.5742 H   0  0  0  0  0  0  0  0  0  0  0  0
    1.7172   -5.3652   -2.9398 H   0  0  0  0  0  0  0  0  0  0  0  0
    1.9403   -2.4440   -1.8649 H   0  0  0  0  0  0  0  0  0  0  0  0
    0.5565   -3.4707   -1.4934 H   0  0  0  0  0  0  0  0  0  0  0  0
   -1.0099   -1.7832   -2.3230 H   0  0  0  0  0  0  0  0  0  0  0  0
    0.2764   -0.7821   -2.9570 H   0  0  0  0  0  0  0  0  0  0  0  0
   -0.6004   -1.0990   -0.1893 H   0  0  0  0  0  0  0  0  0  0  0  0
    1.8863    0.5076    1.3772 H   0  0  0  0  0  0  0  0  0  0  0  0
    0.1464    0.2663    1.5096 H   0  0  0  0  0  0  0  0  0  0  0  0
    0.7664    1.7776    0.8448 H   0  0  0  0  0  0  0  0  0  0  0  0
    2.6281    1.4157   -0.9041 H   0  0  0  0  0  0  0  0  0  0  0  0
    1.5161    1.1517   -2.2409 H   0  0  0  0  0  0  0  0  0  0  0  0
    2.6314   -0.1346   -1.7328 H   0  0  0  0  0  0  0  0  0  0  0  0
  1  2  1  0  0  0  0 
  3  2  1  0  0  0  0 
  3  4  1  0  0  0  0 
  3  5  1  0  0  0  0 
  5  6  1  0  0  0  0 
  6  7  1  0  0  0  0 
  7  8  2  0  0  0  0 
  8  9  1  0  0  0  0 
  8 10  1  0  0  0  0 
  1 11  1  0  0  0  0 
  1 12  1  0  0  0  0 
  1 13  1  0  0  0  0 
  2 14  1  0  0  0  0 
  3 15  1  0  0  0  0 
  4 16  1  0  0  0  0 
  4 17  1  0  0  0  0 
  4 18  1  0  0  0  0 
  5 19  1  0  0  0  0 
  5 20  1  0  0  0  0 
  6 21  1  0  0  0  0 
  6 22  1  0  0  0  0 
  7 23  1  0  0  0  0 
  9 24  1  0  0  0  0 
  9 25  1  0  0  0  0 
  9 26  1  0  0  0  0 
 10 27  1  0  0  0  0 
 10 28  1  0  0  0  0 
 10 29  1  0  0  0  0 
M  END
> <cdk:Title>
isometheptene

> <Conformer>
1

> <SuperDrugID>
SD001326

$$$$
