sulfadiasulfone
  CDK     0628171802

 39 40  0  0  0  0  0  0  0  0999 V2000
   -1.7977    2.1800   -1.3785 S   0  0  1  0  0  0  0  0  0  0  0  0
   -2.6071    3.5040   -1.8028 O   0  0  0  0  0  0  0  0  0  0  0  0
   -1.6567    2.2310    0.2191 O   0  0  0  0  0  0  0  0  0  0  0  0
   -2.6723    0.7413   -1.9768 C   0  0  0  0  0  0  0  0  0  0  0  0
   -0.1977    2.2437   -2.1475 C   0  0  0  0  0  0  0  0  0  0  0  0
   -2.7614   -0.5237   -1.3228 C   0  0  0  0  0  0  0  0  0  0  0  0
   -3.2874    0.9014   -3.2415 C   0  0  0  0  0  0  0  0  0  0  0  0
    0.9760    1.9786   -1.4109 C   0  0  0  0  0  0  0  0  0  0  0  0
   -0.0972    2.5289   -3.5264 C   0  0  0  0  0  0  0  0  0  0  0  0
   -2.0344   -0.9099    0.2553 S   0  0  2  0  0  0  0  0  0  0  0  0
   -3.4749   -1.5700   -1.9535 C   0  0  0  0  0  0  0  0  0  0  0  0
   -3.9721   -0.1554   -3.8596 C   0  0  0  0  0  0  0  0  0  0  0  0
    2.2271    1.9457   -2.0552 C   0  0  0  0  0  0  0  0  0  0  0  0
    1.1539    2.5134   -4.1681 C   0  0  0  0  0  0  0  0  0  0  0  0
   -0.3310   -0.6972    0.1923 N   0  0  0  0  0  0  0  0  0  0  0  0
   -2.3350   -2.4340    0.6660 O   0  0  0  0  0  0  0  0  0  0  0  0
   -2.6701    0.0189    1.3989 O   0  0  0  0  0  0  0  0  0  0  0  0
   -4.0732   -1.3947   -3.2121 C   0  0  0  0  0  0  0  0  0  0  0  0
    2.3203    2.2150   -3.4362 C   0  0  0  0  0  0  0  0  0  0  0  0
    0.5464   -1.2229    1.0861 C   0  0  0  0  0  0  0  0  0  0  0  0
   -4.7421   -2.4093   -3.7923 N   0  0  0  0  0  0  0  0  0  0  0  0
    3.5143    2.1915   -4.0587 N   0  0  0  0  0  0  0  0  0  0  0  0
    1.9892   -0.9685    0.9328 C   0  0  0  0  0  0  0  0  0  0  0  0
    0.1506   -1.9174    2.0522 O   0  0  0  0  0  0  0  0  0  0  0  0
   -3.2428    1.7952   -3.7393 H   0  0  0  0  0  0  0  0  0  0  0  0
    0.9291    1.8003   -0.4059 H   0  0  0  0  0  0  0  0  0  0  0  0
   -0.9324    2.7444   -4.0759 H   0  0  0  0  0  0  0  0  0  0  0  0
   -3.5714   -2.4809   -1.5020 H   0  0  0  0  0  0  0  0  0  0  0  0
   -4.3969   -0.0152   -4.7793 H   0  0  0  0  0  0  0  0  0  0  0  0
    3.0671    1.7244   -1.5123 H   0  0  0  0  0  0  0  0  0  0  0  0
    1.2089    2.7181   -5.1694 H   0  0  0  0  0  0  0  0  0  0  0  0
    0.0262   -0.1694   -0.5361 H   0  0  0  0  0  0  0  0  0  0  0  0
   -5.1615   -2.2810   -4.6570 H   0  0  0  0  0  0  0  0  0  0  0  0
   -4.8049   -3.2679   -3.3447 H   0  0  0  0  0  0  0  0  0  0  0  0
    4.3228    1.9968   -3.5579 H   0  0  0  0  0  0  0  0  0  0  0  0
    3.5662    2.3680   -5.0114 H   0  0  0  0  0  0  0  0  0  0  0  0
    2.5691   -1.5398    1.6604 H   0  0  0  0  0  0  0  0  0  0  0  0
    2.3171   -1.2592   -0.0647 H   0  0  0  0  0  0  0  0  0  0  0  0
    2.1952    0.0915    1.0816 H   0  0  0  0  0  0  0  0  0  0  0  0
  1  2  2  0  0  0  0 
  1  3  2  0  0  0  0 
  1  4  1  0  0  0  0 
  1  5  1  0  0  0  0 
  4  6  2  0  0  0  0 
  4  7  1  0  0  0  0 
  5  8  2  0  0  0  0 
  5  9  1  0  0  0  0 
  6 10  1  0  0  0  0 
  6 11  1  0  0  0  0 
  7 12  2  0  0  0  0 
  8 13  1  0  0  0  0 
  9 14  2  0  0  0  0 
 10 15  1  0  0  0  0 
 10 16  2  0  0  0  0 
 10 17  2  0  0  0  0 
 11 18  2  0  0  0  0 
 12 18  1  0  0  0  0 
 13 19  2  0  0  0  0 
 14 19  1  0  0  0  0 
 15 20  1  0  0  0  0 
 18 21  1  0  0  0  0 
 19 22  1  0  0  0  0 
 20 23  1  0  0  0  0 
 20 24  2  0  0  0  0 
  7 25  1  0  0  0  0 
  8 26  1  0  0  0  0 
  9 27  1  0  0  0  0 
 11 28  1  0  0  0  0 
 12 29  1  0  0  0  0 
 13 30  1  0  0  0  0 
 14 31  1  0  0  0  0 
 15 32  1  0  0  0  0 
 21 33  1  0  0  0  0 
 21 34  1  0  0  0  0 
 22 35  1  0  0  0  0 
 22 36  1  0  0  0  0 
 23 37  1  0  0  0  0 
 23 38  1  0  0  0  0 
 23 39  1  0  0  0  0 
M  END
> <cdk:Title>
sulfadiasulfone

> <Conformer>
1

> <SuperDrugID>
SD000038

$$$$
