efaproxiral
  CDK     0628171801

 48 49  0  0  0  0  0  0  0  0999 V2000
   -6.3541    0.8579    5.5895 O   0  0  0  0  0  0  0  0  0  0  0  0
   -6.5595    2.1210    6.2858 C   0  0  2  0  0  0  0  0  0  0  0  0
   -6.1655    0.8418    4.2283 C   0  0  0  0  0  0  0  0  0  0  0  0
   -6.7163    1.7667    7.7288 C   0  0  0  0  0  0  0  0  0  0  0  0
   -7.8646    2.8265    5.8057 C   0  0  0  0  0  0  0  0  0  0  0  0
   -5.3310    3.0744    6.1511 C   0  0  0  0  0  0  0  0  0  0  0  0
   -4.8618    0.8987    3.6980 C   0  0  0  0  0  0  0  0  0  0  0  0
   -7.2565    0.6746    3.3498 C   0  0  0  0  0  0  0  0  0  0  0  0
   -6.6364    0.4866    8.1678 O   0  0  0  0  0  0  0  0  0  0  0  0
   -6.9262    2.6437    8.5985 O   0  0  0  0  0  0  0  0  0  0  0  0
   -4.6515    0.7980    2.3105 C   0  0  0  0  0  0  0  0  0  0  0  0
   -7.0478    0.5751    1.9605 C   0  0  0  0  0  0  0  0  0  0  0  0
   -5.7401    0.6217    1.4224 C   0  0  0  0  0  0  0  0  0  0  0  0
   -5.5160    0.4289   -0.0370 C   0  0  1  0  0  0  0  0  0  0  0  0
   -5.9956    1.5364   -0.8952 C   0  0  0  0  0  0  0  0  0  0  0  0
   -6.8597    1.2584   -1.9198 N   0  0  0  0  0  0  0  0  0  0  0  0
   -5.5545    2.6889   -0.6731 O   0  0  0  0  0  0  0  0  0  0  0  0
   -7.3022    2.0607   -2.9407 C   0  0  0  0  0  0  0  0  0  0  0  0
   -8.4808    1.6482   -3.6015 C   0  0  0  0  0  0  0  0  0  0  0  0
   -6.6409    3.2213   -3.4127 C   0  0  0  0  0  0  0  0  0  0  0  0
   -9.0020    2.3644   -4.7030 C   0  0  0  0  0  0  0  0  0  0  0  0
   -7.1323    3.9537   -4.5173 C   0  0  0  0  0  0  0  0  0  0  0  0
  -10.2518    1.9065   -5.3539 C   0  0  0  0  0  0  0  0  0  0  0  0
   -8.3100    3.5085   -5.1569 C   0  0  0  0  0  0  0  0  0  0  0  0
   -6.4132    5.1607   -4.9906 C   0  0  0  0  0  0  0  0  0  0  0  0
   -8.7141    2.1436    5.8801 H   0  0  0  0  0  0  0  0  0  0  0  0
   -7.7699    3.1451    4.7670 H   0  0  0  0  0  0  0  0  0  0  0  0
   -8.0781    3.7156    6.4039 H   0  0  0  0  0  0  0  0  0  0  0  0
   -4.4182    2.5700    6.4766 H   0  0  0  0  0  0  0  0  0  0  0  0
   -5.1982    3.3907    5.1162 H   0  0  0  0  0  0  0  0  0  0  0  0
   -5.4634    3.9761    6.7547 H   0  0  0  0  0  0  0  0  0  0  0  0
   -4.0573    1.0002    4.3223 H   0  0  0  0  0  0  0  0  0  0  0  0
   -8.2073    0.6093    3.7213 H   0  0  0  0  0  0  0  0  0  0  0  0
   -6.7452    0.2855    9.1209 H   0  0  0  0  0  0  0  0  0  0  0  0
   -3.6921    0.8395    1.9577 H   0  0  0  0  0  0  0  0  0  0  0  0
   -7.8570    0.4459    1.3465 H   0  0  0  0  0  0  0  0  0  0  0  0
   -4.4510    0.3073   -0.2478 H   0  0  0  0  0  0  0  0  0  0  0  0
   -5.9946   -0.5112   -0.3257 H   0  0  0  0  0  0  0  0  0  0  0  0
   -7.2072    0.3510   -1.9293 H   0  0  0  0  0  0  0  0  0  0  0  0
   -8.9683    0.8071   -3.2778 H   0  0  0  0  0  0  0  0  0  0  0  0
   -5.7745    3.5309   -2.9714 H   0  0  0  0  0  0  0  0  0  0  0  0
  -10.1411    0.8707   -5.6789 H   0  0  0  0  0  0  0  0  0  0  0  0
  -10.5100    2.5086   -6.2284 H   0  0  0  0  0  0  0  0  0  0  0  0
  -11.0788    1.9672   -4.6435 H   0  0  0  0  0  0  0  0  0  0  0  0
   -8.6663    4.0236   -5.9646 H   0  0  0  0  0  0  0  0  0  0  0  0
   -6.8638    5.5821   -5.8913 H   0  0  0  0  0  0  0  0  0  0  0  0
   -6.4317    5.9281   -4.2156 H   0  0  0  0  0  0  0  0  0  0  0  0
   -5.3752    4.9118   -5.2185 H   0  0  0  0  0  0  0  0  0  0  0  0
  1  2  1  0  0  0  0 
  1  3  1  0  0  0  0 
  2  4  1  0  0  0  0 
  2  5  1  0  0  0  0 
  2  6  1  0  0  0  0 
  3  7  2  0  0  0  0 
  3  8  1  0  0  0  0 
  4  9  1  0  0  0  0 
  4 10  2  0  0  0  0 
  7 11  1  0  0  0  0 
  8 12  2  0  0  0  0 
 11 13  2  0  0  0  0 
 12 13  1  0  0  0  0 
 13 14  1  0  0  0  0 
 14 15  1  0  0  0  0 
 15 16  1  0  0  0  0 
 15 17  2  0  0  0  0 
 16 18  1  0  0  0  0 
 18 19  2  0  0  0  0 
 18 20  1  0  0  0  0 
 19 21  1  0  0  0  0 
 20 22  2  0  0  0  0 
 21 23  1  0  0  0  0 
 21 24  2  0  0  0  0 
 22 24  1  0  0  0  0 
 22 25  1  0  0  0  0 
  5 26  1  0  0  0  0 
  5 27  1  0  0  0  0 
  5 28  1  0  0  0  0 
  6 29  1  0  0  0  0 
  6 30  1  0  0  0  0 
  6 31  1  0  0  0  0 
  7 32  1  0  0  0  0 
  8 33  1  0  0  0  0 
  9 34  1  0  0  0  0 
 11 35  1  0  0  0  0 
 12 36  1  0  0  0  0 
 14 37  1  0  0  0  0 
 14 38  1  0  0  0  0 
 16 39  1  0  0  0  0 
 19 40  1  0  0  0  0 
 20 41  1  0  0  0  0 
 23 42  1  0  0  0  0 
 23 43  1  0  0  0  0 
 23 44  1  0  0  0  0 
 24 45  1  0  0  0  0 
 25 46  1  0  0  0  0 
 25 47  1  0  0  0  0 
 25 48  1  0  0  0  0 
M  END
> <cdk:Title>
efaproxiral

> <Conformer>
1

> <SuperDrugID>
SD003581

$$$$
