nifekalant
  CDK     0628171801

 56 57  0  0  0  0  0  0  0  0999 V2000
    0.9949   -0.3201   -1.2597 N   0  0  0  0  0  0  0  0  0  0  0  0
    0.5473   -0.4176    0.0993 C   0  0  2  0  0  0  0  0  0  0  0  0
    0.2621   -0.5092   -2.4131 C   0  0  0  0  0  0  0  0  0  0  0  0
    1.6699   -0.0828    1.1260 C   0  0  1  0  0  0  0  0  0  0  0  0
    0.9033   -0.7043   -3.6207 N   0  0  0  0  0  0  0  0  0  0  0  0
   -1.1472   -0.4922   -2.3793 C   0  0  0  0  0  0  0  0  0  0  0  0
    1.5758    1.3171    1.6823 N   0  0  1  0  0  0  0  0  0  0  0  0
    2.3551   -0.8236   -3.6449 C   0  0  0  0  0  0  0  0  0  0  0  0
    0.1605   -0.7969   -4.7811 C   0  0  0  0  0  0  0  0  0  0  0  0
   -1.8665   -0.6248   -3.5733 C   0  0  0  0  0  0  0  0  0  0  0  0
    2.2609    1.5091    3.0112 C   0  0  1  0  0  0  0  0  0  0  0  0
    1.9536    2.3570    0.6605 C   0  0  1  0  0  0  0  0  0  0  0  0
    0.7453   -0.9134   -5.8883 O   0  0  0  0  0  0  0  0  0  0  0  0
   -1.2168   -0.7528   -4.7720 N   0  0  0  0  0  0  0  0  0  0  0  0
   -3.1173   -0.6049   -3.4787 O   0  0  0  0  0  0  0  0  0  0  0  0
    1.7268    0.6709    4.2086 C   0  0  1  0  0  0  0  0  0  0  0  0
    1.6158    3.8219    1.0372 C   0  0  2  0  0  0  0  0  0  0  0  0
   -1.9613   -0.8318   -6.0166 C   0  0  0  0  0  0  0  0  0  0  0  0
    0.1862    0.7395    4.3969 C   0  0  1  0  0  0  0  0  0  0  0  0
    1.6217    4.6517   -0.1223 O   0  0  0  0  0  0  0  0  0  0  0  0
   -0.2673   -0.1393    5.5094 C   0  0  0  0  0  0  0  0  0  0  0  0
   -0.1436    0.2728    6.8540 C   0  0  0  0  0  0  0  0  0  0  0  0
   -0.8185   -1.4120    5.2474 C   0  0  0  0  0  0  0  0  0  0  0  0
   -0.5823   -0.5558    7.9034 C   0  0  0  0  0  0  0  0  0  0  0  0
   -1.2515   -2.2394    6.2983 C   0  0  0  0  0  0  0  0  0  0  0  0
   -1.1448   -1.8351    7.6534 C   0  0  0  0  0  0  0  0  0  0  0  0
   -1.5555   -2.6394    8.6535 N   0  0  0  0  0  0  0  0  0  0  0  0
   -2.0319   -3.8017    8.4499 O   0  0  0  0  0  0  0  0  0  0  0  0
   -1.5024   -2.3318    9.7801 O   0  0  0  0  0  0  0  0  0  0  0  0
    1.9392   -0.1367   -1.3825 H   0  0  0  0  0  0  0  0  0  0  0  0
    0.2013   -1.4426    0.2587 H   0  0  0  0  0  0  0  0  0  0  0  0
   -0.2939    0.2541    0.2767 H   0  0  0  0  0  0  0  0  0  0  0  0
    1.5622   -0.8142    1.9260 H   0  0  0  0  0  0  0  0  0  0  0  0
    2.6596   -0.2589    0.6922 H   0  0  0  0  0  0  0  0  0  0  0  0
   -1.6559   -0.3759   -1.5008 H   0  0  0  0  0  0  0  0  0  0  0  0
    2.7720   -1.0910   -4.6182 H   0  0  0  0  0  0  0  0  0  0  0  0
    2.6787   -1.5995   -2.9453 H   0  0  0  0  0  0  0  0  0  0  0  0
    2.8080    0.1237   -3.3485 H   0  0  0  0  0  0  0  0  0  0  0  0
    3.3310    1.3143    2.8984 H   0  0  0  0  0  0  0  0  0  0  0  0
    2.1573    2.5476    3.3311 H   0  0  0  0  0  0  0  0  0  0  0  0
    3.0220    2.2923    0.4400 H   0  0  0  0  0  0  0  0  0  0  0  0
    1.4200    2.1572   -0.2707 H   0  0  0  0  0  0  0  0  0  0  0  0
    2.0396   -0.3707    4.0974 H   0  0  0  0  0  0  0  0  0  0  0  0
    2.2068    1.0423    5.1199 H   0  0  0  0  0  0  0  0  0  0  0  0
    2.3570    4.2149    1.7351 H   0  0  0  0  0  0  0  0  0  0  0  0
    0.6297    3.8713    1.5026 H   0  0  0  0  0  0  0  0  0  0  0  0
   -1.6877    0.0087   -6.6580 H   0  0  0  0  0  0  0  0  0  0  0  0
   -1.7231   -1.7621   -6.5385 H   0  0  0  0  0  0  0  0  0  0  0  0
   -3.0465   -0.7972   -5.8921 H   0  0  0  0  0  0  0  0  0  0  0  0
   -0.1208    1.7705    4.5938 H   0  0  0  0  0  0  0  0  0  0  0  0
   -0.3050    0.4428    3.4670 H   0  0  0  0  0  0  0  0  0  0  0  0
    1.3865    5.5482    0.1984 H   0  0  0  0  0  0  0  0  0  0  0  0
    0.2683    1.1823    7.0775 H   0  0  0  0  0  0  0  0  0  0  0  0
   -0.9027   -1.7504    4.2860 H   0  0  0  0  0  0  0  0  0  0  0  0
   -0.4831   -0.2107    8.8610 H   0  0  0  0  0  0  0  0  0  0  0  0
   -1.6477   -3.1499    6.0566 H   0  0  0  0  0  0  0  0  0  0  0  0
  1  2  1  0  0  0  0 
  1  3  1  0  0  0  0 
  2  4  1  0  0  0  0 
  3  5  1  0  0  0  0 
  3  6  2  0  0  0  0 
  4  7  1  0  0  0  0 
  5  8  1  0  0  0  0 
  5  9  1  0  0  0  0 
  6 10  1  0  0  0  0 
  7 11  1  0  0  0  0 
  7 12  1  0  0  0  0 
  9 13  2  0  0  0  0 
  9 14  1  0  0  0  0 
 10 14  1  0  0  0  0 
 10 15  2  0  0  0  0 
 11 16  1  0  0  0  0 
 12 17  1  0  0  0  0 
 14 18  1  0  0  0  0 
 16 19  1  0  0  0  0 
 17 20  1  0  0  0  0 
 19 21  1  0  0  0  0 
 21 22  2  0  0  0  0 
 21 23  1  0  0  0  0 
 22 24  1  0  0  0  0 
 23 25  2  0  0  0  0 
 24 26  2  0  0  0  0 
 25 26  1  0  0  0  0 
 26 27  1  0  0  0  0 
 27 28  1  0  0  0  0 
 27 29  2  0  0  0  0 
  1 30  1  0  0  0  0 
  2 31  1  0  0  0  0 
  2 32  1  0  0  0  0 
  4 33  1  0  0  0  0 
  4 34  1  0  0  0  0 
  6 35  1  0  0  0  0 
  8 36  1  0  0  0  0 
  8 37  1  0  0  0  0 
  8 38  1  0  0  0  0 
 11 39  1  0  0  0  0 
 11 40  1  0  0  0  0 
 12 41  1  0  0  0  0 
 12 42  1  0  0  0  0 
 16 43  1  0  0  0  0 
 16 44  1  0  0  0  0 
 17 45  1  0  0  0  0 
 17 46  1  0  0  0  0 
 18 47  1  0  0  0  0 
 18 48  1  0  0  0  0 
 18 49  1  0  0  0  0 
 19 50  1  0  0  0  0 
 19 51  1  0  0  0  0 
 20 52  1  0  0  0  0 
 22 53  1  0  0  0  0 
 23 54  1  0  0  0  0 
 24 55  1  0  0  0  0 
 25 56  1  0  0  0  0 
M  CHG  1  27   1
M  CHG  1  28  -1
M  END
> <cdk:Title>
nifekalant

> <Conformer>
1

> <SuperDrugID>
SD001718

$$$$
