tenidap
  CDK     0628171802

 30 32  0  0  0  0  0  0  0  0999 V2000
    2.7144    1.5621    0.8081 C   0  0  0  0  0  0  0  0  0  0  0  0
    3.7608    1.5070    1.4942 O   0  0  0  0  0  0  0  0  0  0  0  0
    2.2184    2.8370    0.4418 C   0  0  0  0  0  0  0  0  0  0  0  0
    2.1007    0.3461    0.4493 C   0  0  0  0  0  0  0  0  0  0  0  0
    0.9036    3.2948    0.4561 C   0  0  0  0  0  0  0  0  0  0  0  0
    2.9808    3.9241    0.0093 C   0  0  0  0  0  0  0  0  0  0  0  0
    1.2899    0.0839   -0.6652 C   0  0  0  0  0  0  0  0  0  0  0  0
    2.2309   -1.1708    1.3270 S   0  0  0  0  0  0  0  0  0  0  0  0
    0.9135    4.6288    0.0298 C   0  0  0  0  0  0  0  0  0  0  0  0
   -0.2910    2.6427    0.8282 C   0  0  0  0  0  0  0  0  0  0  0  0
    4.3310    3.8520   -0.1163 O   0  0  0  0  0  0  0  0  0  0  0  0
    2.1923    4.9997   -0.2612 N   0  0  0  0  0  0  0  0  0  0  0  0
    0.8035   -1.2309   -0.7719 C   0  0  0  0  0  0  0  0  0  0  0  0
    1.2088   -2.0958    0.2460 C   0  0  0  0  0  0  0  0  0  0  0  0
   -0.3098    5.3366   -0.0340 C   0  0  0  0  0  0  0  0  0  0  0  0
   -1.5104    3.3425    0.7331 C   0  0  0  0  0  0  0  0  0  0  0  0
    2.6261    6.2183   -0.7527 C   0  0  0  0  0  0  0  0  0  0  0  0
   -1.5138    4.6877    0.3101 C   0  0  0  0  0  0  0  0  0  0  0  0
   -2.9706    2.5771    1.1200 Cl  0  0  0  0  0  0  0  0  0  0  0  0
    3.8993    6.4871   -1.1120 N   0  0  0  0  0  0  0  0  0  0  0  0
    1.8475    7.1815   -0.9295 O   0  0  0  0  0  0  0  0  0  0  0  0
    1.0662    0.7956   -1.3624 H   0  0  0  0  0  0  0  0  0  0  0  0
   -0.2798    1.6767    1.1622 H   0  0  0  0  0  0  0  0  0  0  0  0
    4.6666    4.6867    0.2709 H   0  0  0  0  0  0  0  0  0  0  0  0
    0.1995   -1.5336   -1.5386 H   0  0  0  0  0  0  0  0  0  0  0  0
    0.9641   -3.0808    0.3427 H   0  0  0  0  0  0  0  0  0  0  0  0
   -0.3479    6.3124   -0.3247 H   0  0  0  0  0  0  0  0  0  0  0  0
   -2.3947    5.2033    0.2487 H   0  0  0  0  0  0  0  0  0  0  0  0
    4.1262    7.3651   -1.4565 H   0  0  0  0  0  0  0  0  0  0  0  0
    4.5901    5.8132   -1.0467 H   0  0  0  0  0  0  0  0  0  0  0  0
  1  2  2  0  0  0  0 
  1  3  1  0  0  0  0 
  1  4  1  0  0  0  0 
  3  5  1  0  0  0  0 
  3  6  2  0  0  0  0 
  4  7  2  0  0  0  0 
  4  8  1  0  0  0  0 
  5  9  1  0  0  0  0 
  5 10  2  0  0  0  0 
  6 11  1  0  0  0  0 
  6 12  1  0  0  0  0 
  7 13  1  0  0  0  0 
  8 14  1  0  0  0  0 
  9 12  1  0  0  0  0 
  9 15  2  0  0  0  0 
 10 16  1  0  0  0  0 
 12 17  1  0  0  0  0 
 13 14  2  0  0  0  0 
 15 18  1  0  0  0  0 
 16 18  2  0  0  0  0 
 16 19  1  0  0  0  0 
 17 20  1  0  0  0  0 
 17 21  2  0  0  0  0 
 22  7  1  0  0  0  0 
 23 10  1  0  0  0  0 
 24 11  1  0  0  0  0 
 25 13  1  0  0  0  0 
 26 14  1  0  0  0  0 
 27 15  1  0  0  0  0 
 28 18  1  0  0  0  0 
 29 20  1  0  0  0  0 
 30 20  1  0  0  0  0 
M  END
> <cdk:Title>
tenidap

> <Conformer>
1

> <SuperDrugID>
SD003732

$$$$
