zipeprol
  CDK     0628171801

 60 62  0  0  0  0  0  0  0  0999 V2000
   -0.1575    2.9870    3.2993 C   0  0  1  0  0  0  0  0  0  0  0  0
   -0.8936    1.6025    3.3415 C   0  0  2  0  0  0  0  0  0  0  0  0
   -1.0458    4.1329    3.2829 O   0  0  0  0  0  0  0  0  0  0  0  0
    0.7290    3.2244    4.4827 C   0  0  0  0  0  0  0  0  0  0  0  0
    0.0306    0.3564    3.5124 C   0  0  1  0  0  0  0  0  0  0  0  0
   -1.5849    1.3972    2.1086 O   0  0  0  0  0  0  0  0  0  0  0  0
   -1.8731    4.3427    2.1307 C   0  0  0  0  0  0  0  0  0  0  0  0
    0.1797    3.5225    5.7560 C   0  0  0  0  0  0  0  0  0  0  0  0
    2.1403    3.1758    4.3605 C   0  0  0  0  0  0  0  0  0  0  0  0
    0.7519    0.2643    4.8204 N   0  0  1  0  0  0  0  0  0  0  0  0
    1.0099    3.7947    6.8586 C   0  0  0  0  0  0  0  0  0  0  0  0
    2.9725    3.4302    5.4669 C   0  0  0  0  0  0  0  0  0  0  0  0
   -0.1235   -0.0354    5.9939 C   0  0  2  0  0  0  0  0  0  0  0  0
    1.9151   -0.6726    4.7819 C   0  0  1  0  0  0  0  0  0  0  0  0
    2.4070    3.7425    6.7156 C   0  0  0  0  0  0  0  0  0  0  0  0
    0.6811    0.0867    7.3100 C   0  0  2  0  0  0  0  0  0  0  0  0
    2.7342   -0.5772    6.0911 C   0  0  2  0  0  0  0  0  0  0  0  0
    1.8917   -0.7925    7.3114 N   0  0  1  0  0  0  0  0  0  0  0  0
    2.7061   -0.7020    8.5727 C   0  0  1  0  0  0  0  0  0  0  0  0
    2.0016   -1.1668    9.8873 C   0  0  2  0  0  0  0  0  0  0  0  0
    2.9475   -1.5150   10.9256 O   0  0  0  0  0  0  0  0  0  0  0  0
    1.1700   -2.3942    9.7066 C   0  0  0  0  0  0  0  0  0  0  0  0
    3.6778   -0.4390   11.5390 C   0  0  0  0  0  0  0  0  0  0  0  0
   -0.2043   -2.4012   10.0540 C   0  0  0  0  0  0  0  0  0  0  0  0
    1.7444   -3.5922    9.2126 C   0  0  0  0  0  0  0  0  0  0  0  0
   -0.9740   -3.5723    9.9245 C   0  0  0  0  0  0  0  0  0  0  0  0
    0.9727   -4.7597    9.0752 C   0  0  0  0  0  0  0  0  0  0  0  0
   -0.3842   -4.7532    9.4411 C   0  0  0  0  0  0  0  0  0  0  0  0
    0.4500    3.0114    2.3887 H   0  0  0  0  0  0  0  0  0  0  0  0
   -1.6544    1.6240    4.1231 H   0  0  0  0  0  0  0  0  0  0  0  0
   -0.5609   -0.5538    3.3753 H   0  0  0  0  0  0  0  0  0  0  0  0
    0.7575    0.3937    2.6942 H   0  0  0  0  0  0  0  0  0  0  0  0
   -2.0860    0.5628    2.2293 H   0  0  0  0  0  0  0  0  0  0  0  0
   -1.3044    4.2567    1.2035 H   0  0  0  0  0  0  0  0  0  0  0  0
   -2.2819    5.3495    2.1957 H   0  0  0  0  0  0  0  0  0  0  0  0
   -2.7092    3.6443    2.1245 H   0  0  0  0  0  0  0  0  0  0  0  0
   -0.8340    3.5500    5.8872 H   0  0  0  0  0  0  0  0  0  0  0  0
    2.5754    2.9575    3.4623 H   0  0  0  0  0  0  0  0  0  0  0  0
    0.5977    4.0227    7.7667 H   0  0  0  0  0  0  0  0  0  0  0  0
    3.9887    3.3845    5.3660 H   0  0  0  0  0  0  0  0  0  0  0  0
   -0.5436   -1.0436    5.9127 H   0  0  0  0  0  0  0  0  0  0  0  0
   -0.9550    0.6673    6.0535 H   0  0  0  0  0  0  0  0  0  0  0  0
    1.5706   -1.7017    4.6383 H   0  0  0  0  0  0  0  0  0  0  0  0
    2.5820   -0.4123    3.9542 H   0  0  0  0  0  0  0  0  0  0  0  0
    3.0115    3.9342    7.5191 H   0  0  0  0  0  0  0  0  0  0  0  0
    0.0122   -0.1817    8.1293 H   0  0  0  0  0  0  0  0  0  0  0  0
    0.9761    1.1267    7.4533 H   0  0  0  0  0  0  0  0  0  0  0  0
    3.2144    0.4070    6.1325 H   0  0  0  0  0  0  0  0  0  0  0  0
    3.5188   -1.3375    6.0460 H   0  0  0  0  0  0  0  0  0  0  0  0
    3.5955   -1.3278    8.4573 H   0  0  0  0  0  0  0  0  0  0  0  0
    3.0561    0.3272    8.7074 H   0  0  0  0  0  0  0  0  0  0  0  0
    1.3716   -0.3434   10.2428 H   0  0  0  0  0  0  0  0  0  0  0  0
    4.3116   -0.8693   12.3136 H   0  0  0  0  0  0  0  0  0  0  0  0
    3.0038    0.2788   12.0082 H   0  0  0  0  0  0  0  0  0  0  0  0
    4.3171    0.0678   10.8143 H   0  0  0  0  0  0  0  0  0  0  0  0
   -0.6551   -1.5542   10.4119 H   0  0  0  0  0  0  0  0  0  0  0  0
    2.7344   -3.6238    8.9531 H   0  0  0  0  0  0  0  0  0  0  0  0
   -1.9623   -3.5651   10.1854 H   0  0  0  0  0  0  0  0  0  0  0  0
    1.4008   -5.6146    8.7121 H   0  0  0  0  0  0  0  0  0  0  0  0
   -0.9410   -5.6055    9.3557 H   0  0  0  0  0  0  0  0  0  0  0  0
  1  2  1  0  0  0  0 
  1  3  1  0  0  0  0 
  1  4  1  0  0  0  0 
  2  5  1  0  0  0  0 
  2  6  1  0  0  0  0 
  3  7  1  0  0  0  0 
  4  8  2  0  0  0  0 
  4  9  1  0  0  0  0 
  5 10  1  0  0  0  0 
  8 11  1  0  0  0  0 
  9 12  2  0  0  0  0 
 10 13  1  0  0  0  0 
 10 14  1  0  0  0  0 
 11 15  2  0  0  0  0 
 12 15  1  0  0  0  0 
 13 16  1  0  0  0  0 
 14 17  1  0  0  0  0 
 16 18  1  0  0  0  0 
 17 18  1  0  0  0  0 
 18 19  1  0  0  0  0 
 19 20  1  0  0  0  0 
 20 21  1  0  0  0  0 
 20 22  1  0  0  0  0 
 21 23  1  0  0  0  0 
 22 24  2  0  0  0  0 
 22 25  1  0  0  0  0 
 24 26  1  0  0  0  0 
 25 27  2  0  0  0  0 
 26 28  2  0  0  0  0 
 27 28  1  0  0  0  0 
  1 29  1  0  0  0  0 
  2 30  1  0  0  0  0 
  5 31  1  0  0  0  0 
  5 32  1  0  0  0  0 
  6 33  1  0  0  0  0 
  7 34  1  0  0  0  0 
  7 35  1  0  0  0  0 
  7 36  1  0  0  0  0 
  8 37  1  0  0  0  0 
  9 38  1  0  0  0  0 
 11 39  1  0  0  0  0 
 12 40  1  0  0  0  0 
 13 41  1  0  0  0  0 
 13 42  1  0  0  0  0 
 14 43  1  0  0  0  0 
 14 44  1  0  0  0  0 
 15 45  1  0  0  0  0 
 16 46  1  0  0  0  0 
 16 47  1  0  0  0  0 
 17 48  1  0  0  0  0 
 17 49  1  0  0  0  0 
 19 50  1  0  0  0  0 
 19 51  1  0  0  0  0 
 20 52  1  0  0  0  0 
 23 53  1  0  0  0  0 
 23 54  1  0  0  0  0 
 23 55  1  0  0  0  0 
 24 56  1  0  0  0  0 
 25 57  1  0  0  0  0 
 26 58  1  0  0  0  0 
 27 59  1  0  0  0  0 
 28 60  1  0  0  0  0 
M  END
> <cdk:Title>
zipeprol

> <Conformer>
1

> <SuperDrugID>
SD002581

$$$$
