cefaloridine
  CDK     0628171802

 45 48  0  0  0  0  0  0  0  0999 V2000
   -4.6068    1.5669    1.0591 C   0  0  0  0  0  0  0  0  0  0  0  0
   -3.7121    2.1869    1.8632 O   0  0  0  0  0  0  0  0  0  0  0  0
   -5.8165    1.6247    1.3758 O   0  0  0  0  0  0  0  0  0  0  0  0
   -4.2180    0.9278   -0.1121 C   0  0  0  0  0  0  0  0  0  0  0  0
   -4.7778    1.3994   -1.2472 N   0  0  0  0  0  0  0  0  0  0  0  0
   -3.3168   -0.0981   -0.1572 C   0  0  0  0  0  0  0  0  0  0  0  0
   -4.9369    0.8113   -2.5296 C   0  0  1  0  0  0  0  0  0  0  0  0
   -5.2250    2.5997   -1.6458 C   0  0  0  0  0  0  0  0  0  0  0  0
   -2.6732   -0.6770    1.0450 C   0  0  1  0  0  0  0  0  0  0  0  0
   -2.9403   -0.7675   -1.4224 C   0  0  2  0  0  0  0  0  0  0  0  0
   -5.3902    2.2101   -3.0445 C   0  0  1  0  0  0  0  0  0  0  0  0
   -3.2992    0.1485   -2.9632 S   0  0  0  0  0  0  0  0  0  0  0  0
   -5.3644    3.7006   -1.0652 O   0  0  0  0  0  0  0  0  0  0  0  0
   -1.2279   -0.5289    1.0755 N   0  0  0  0  0  0  0  0  0  0  0  0
   -4.4416    2.8906   -3.8610 N   0  0  0  0  0  0  0  0  0  0  0  0
   -0.4119   -1.6304    1.1756 C   0  0  0  0  0  0  0  0  0  0  0  0
   -0.6713    0.7269    1.0345 C   0  0  0  0  0  0  0  0  0  0  0  0
   -4.6997    3.8374   -4.7988 C   0  0  0  0  0  0  0  0  0  0  0  0
    0.9864   -1.4951    1.2608 C   0  0  0  0  0  0  0  0  0  0  0  0
    0.7210    0.9132    1.0935 C   0  0  0  0  0  0  0  0  0  0  0  0
   -3.5561    4.5202   -5.4453 C   0  0  2  0  0  0  0  0  0  0  0  0
   -5.8725    4.1509   -5.1119 O   0  0  0  0  0  0  0  0  0  0  0  0
    1.5524   -0.2105    1.2171 C   0  0  0  0  0  0  0  0  0  0  0  0
   -2.7445    5.2631   -4.4583 C   0  0  0  0  0  0  0  0  0  0  0  0
   -1.9224    4.7244   -3.4552 C   0  0  0  0  0  0  0  0  0  0  0  0
   -2.6844    7.0062   -4.2571 S   0  0  0  0  0  0  0  0  0  0  0  0
   -1.3308    5.6557   -2.5833 C   0  0  0  0  0  0  0  0  0  0  0  0
   -1.6226    6.9926   -2.8614 C   0  0  0  0  0  0  0  0  0  0  0  0
   -5.7235    0.0511   -2.5425 H   0  0  0  0  0  0  0  0  0  0  0  0
   -3.0444   -0.2525    1.9790 H   0  0  0  0  0  0  0  0  0  0  0  0
   -2.9725   -1.7297    1.0928 H   0  0  0  0  0  0  0  0  0  0  0  0
   -3.4785   -1.7167   -1.4773 H   0  0  0  0  0  0  0  0  0  0  0  0
   -1.8716   -0.9855   -1.4569 H   0  0  0  0  0  0  0  0  0  0  0  0
   -6.4331    2.2499   -3.3730 H   0  0  0  0  0  0  0  0  0  0  0  0
   -3.5085    2.6859   -3.7002 H   0  0  0  0  0  0  0  0  0  0  0  0
   -0.8036   -2.5770    1.2009 H   0  0  0  0  0  0  0  0  0  0  0  0
   -1.2605    1.5592    0.9614 H   0  0  0  0  0  0  0  0  0  0  0  0
    1.5825   -2.3205    1.3582 H   0  0  0  0  0  0  0  0  0  0  0  0
    1.1212    1.8541    1.0534 H   0  0  0  0  0  0  0  0  0  0  0  0
   -3.9141    5.2149   -6.2106 H   0  0  0  0  0  0  0  0  0  0  0  0
   -2.9233    3.7793   -5.9392 H   0  0  0  0  0  0  0  0  0  0  0  0
    2.5662   -0.0930    1.2768 H   0  0  0  0  0  0  0  0  0  0  0  0
   -1.7660    3.7182   -3.3513 H   0  0  0  0  0  0  0  0  0  0  0  0
   -0.7325    5.3736   -1.8036 H   0  0  0  0  0  0  0  0  0  0  0  0
   -1.2832    7.8088   -2.3496 H   0  0  0  0  0  0  0  0  0  0  0  0
  1  2  1  0  0  0  0 
  1  3  2  0  0  0  0 
  1  4  1  0  0  0  0 
  4  5  1  0  0  0  0 
  4  6  2  0  0  0  0 
  7  5  1  0  0  0  0 
  5  8  1  0  0  0  0 
  6  9  1  0  0  0  0 
  6 10  1  0  0  0  0 
 11  7  1  0  0  0  0 
  7 12  1  0  0  0  0 
  7 29  1  0  0  0  0 
 11  8  1  0  0  0  0 
  8 13  2  0  0  0  0 
  9 14  1  0  0  0  0 
 10 12  1  0  0  0  0 
 11 15  1  0  0  0  0 
 14 16  2  0  0  0  0 
 14 17  1  0  0  0  0 
 15 18  1  0  0  0  0 
 16 19  1  0  0  0  0 
 17 20  2  0  0  0  0 
 18 21  1  0  0  0  0 
 18 22  2  0  0  0  0 
 19 23  2  0  0  0  0 
 20 23  1  0  0  0  0 
 21 24  1  0  0  0  0 
 24 25  2  0  0  0  0 
 24 26  1  0  0  0  0 
 25 27  1  0  0  0  0 
 26 28  1  0  0  0  0 
 27 28  2  0  0  0  0 
  9 30  1  0  0  0  0 
  9 31  1  0  0  0  0 
 10 32  1  0  0  0  0 
 10 33  1  0  0  0  0 
 11 34  1  0  0  0  0 
 15 35  1  0  0  0  0 
 16 36  1  0  0  0  0 
 17 37  1  0  0  0  0 
 19 38  1  0  0  0  0 
 20 39  1  0  0  0  0 
 21 40  1  0  0  0  0 
 21 41  1  0  0  0  0 
 23 42  1  0  0  0  0 
 25 43  1  0  0  0  0 
 27 44  1  0  0  0  0 
 28 45  1  0  0  0  0 
M  CHG  1   2  -1
M  CHG  1  14   1
M  END
> <cdk:Title>
cefaloridine

> <Conformer>
1

> <SuperDrugID>
SD000500

$$$$
