nateglinide
  CDK     0628171801

 50 51  0  0  0  0  0  0  0  0999 V2000
    1.7715   -3.3928    0.3764 C   0  0  0  0  0  0  0  0  0  0  0  0
    0.7469   -2.5784   -0.0195 N   0  0  0  0  0  0  0  0  0  0  0  0
    1.5423   -4.3970    1.0922 O   0  0  0  0  0  0  0  0  0  0  0  0
    3.1734   -3.1516   -0.0575 C   0  0  1  0  0  0  0  0  0  0  0  0
   -0.6511   -2.8273    0.2113 C   0  0  2  0  0  0  0  0  0  0  0  0
    3.3023   -2.9484   -1.5990 C   0  0  2  0  0  0  0  0  0  0  0  0
    3.8273   -1.9660    0.7101 C   0  0  1  0  0  0  0  0  0  0  0  0
   -1.2692   -3.6306   -0.9776 C   0  0  2  0  0  0  0  0  0  0  0  0
   -1.3456   -1.5311    0.3943 C   0  0  0  0  0  0  0  0  0  0  0  0
    4.7774   -2.7341   -2.0343 C   0  0  2  0  0  0  0  0  0  0  0  0
    5.3057   -1.7582    0.2762 C   0  0  2  0  0  0  0  0  0  0  0  0
   -0.6039   -4.9445   -1.2070 C   0  0  0  0  0  0  0  0  0  0  0  0
   -1.3577   -0.5930   -0.5829 O   0  0  0  0  0  0  0  0  0  0  0  0
   -1.9469   -1.2663    1.4606 O   0  0  0  0  0  0  0  0  0  0  0  0
    5.4603   -1.5542   -1.2674 C   0  0  1  0  0  0  0  0  0  0  0  0
   -0.7951   -6.0182   -0.3043 C   0  0  0  0  0  0  0  0  0  0  0  0
    0.2638   -5.1340   -2.3098 C   0  0  0  0  0  0  0  0  0  0  0  0
    6.9486   -1.2572   -1.6981 C   0  0  2  0  0  0  0  0  0  0  0  0
   -0.1220   -7.2401   -0.4872 C   0  0  0  0  0  0  0  0  0  0  0  0
    0.9387   -6.3539   -2.4908 C   0  0  0  0  0  0  0  0  0  0  0  0
    7.0520   -0.6806   -3.1400 C   0  0  0  0  0  0  0  0  0  0  0  0
    7.9467   -2.4422   -1.5321 C   0  0  0  0  0  0  0  0  0  0  0  0
    0.7446   -7.4071   -1.5816 C   0  0  0  0  0  0  0  0  0  0  0  0
    0.9780   -1.7930   -0.5417 H   0  0  0  0  0  0  0  0  0  0  0  0
    3.7528   -4.0496    0.1925 H   0  0  0  0  0  0  0  0  0  0  0  0
   -0.7863   -3.4034    1.1342 H   0  0  0  0  0  0  0  0  0  0  0  0
    2.7150   -2.0815   -1.9172 H   0  0  0  0  0  0  0  0  0  0  0  0
    2.9089   -3.8255   -2.1182 H   0  0  0  0  0  0  0  0  0  0  0  0
    3.2674   -1.0433    0.5321 H   0  0  0  0  0  0  0  0  0  0  0  0
    3.8045   -2.1698    1.7859 H   0  0  0  0  0  0  0  0  0  0  0  0
   -1.2069   -3.0198   -1.8841 H   0  0  0  0  0  0  0  0  0  0  0  0
   -2.3328   -3.8093   -0.7944 H   0  0  0  0  0  0  0  0  0  0  0  0
    4.7916   -2.5401   -3.1095 H   0  0  0  0  0  0  0  0  0  0  0  0
    5.3226   -3.6629   -1.8538 H   0  0  0  0  0  0  0  0  0  0  0  0
    5.8805   -2.6321    0.5947 H   0  0  0  0  0  0  0  0  0  0  0  0
    5.7031   -0.8875    0.8051 H   0  0  0  0  0  0  0  0  0  0  0  0
   -1.8394    0.2503   -0.4407 H   0  0  0  0  0  0  0  0  0  0  0  0
    4.8856   -0.6519   -1.5052 H   0  0  0  0  0  0  0  0  0  0  0  0
   -1.4191   -5.9130    0.4988 H   0  0  0  0  0  0  0  0  0  0  0  0
    0.4258   -4.3794   -2.9810 H   0  0  0  0  0  0  0  0  0  0  0  0
    7.3120   -0.4610   -1.0403 H   0  0  0  0  0  0  0  0  0  0  0  0
   -0.2587   -8.0034    0.1791 H   0  0  0  0  0  0  0  0  0  0  0  0
    1.5739   -6.4727   -3.2822 H   0  0  0  0  0  0  0  0  0  0  0  0
    6.3778    0.1681   -3.2651 H   0  0  0  0  0  0  0  0  0  0  0  0
    8.0672   -0.3310   -3.3359 H   0  0  0  0  0  0  0  0  0  0  0  0
    6.8035   -1.4382   -3.8842 H   0  0  0  0  0  0  0  0  0  0  0  0
    7.9670   -2.8017   -0.5040 H   0  0  0  0  0  0  0  0  0  0  0  0
    8.9596   -2.1201   -1.7825 H   0  0  0  0  0  0  0  0  0  0  0  0
    7.6863   -3.2728   -2.1891 H   0  0  0  0  0  0  0  0  0  0  0  0
    1.2333   -8.2932   -1.7157 H   0  0  0  0  0  0  0  0  0  0  0  0
  1  2  1  0  0  0  0 
  1  3  2  0  0  0  0 
  5  2  1  0  0  0  0 
  4  1  1  0  0  0  0 
  4  6  1  0  0  0  0 
  4  7  1  0  0  0  0 
  5  8  1  0  0  0  0 
  5  9  1  0  0  0  0 
  6 10  1  0  0  0  0 
  7 11  1  0  0  0  0 
  8 12  1  0  0  0  0 
  9 13  1  0  0  0  0 
  9 14  2  0  0  0  0 
 15 10  1  0  0  0  0 
 15 11  1  0  0  0  0 
 12 16  2  0  0  0  0 
 12 17  1  0  0  0  0 
 15 18  1  0  0  0  0 
 16 19  1  0  0  0  0 
 17 20  2  0  0  0  0 
 18 21  1  0  0  0  0 
 18 22  1  0  0  0  0 
 19 23  2  0  0  0  0 
 20 23  1  0  0  0  0 
  2 24  1  0  0  0  0 
  4 25  1  0  0  0  0 
  5 26  1  0  0  0  0 
  6 27  1  0  0  0  0 
  6 28  1  0  0  0  0 
  7 29  1  0  0  0  0 
  7 30  1  0  0  0  0 
  8 31  1  0  0  0  0 
  8 32  1  0  0  0  0 
 10 33  1  0  0  0  0 
 10 34  1  0  0  0  0 
 11 35  1  0  0  0  0 
 11 36  1  0  0  0  0 
 13 37  1  0  0  0  0 
 15 38  1  0  0  0  0 
 16 39  1  0  0  0  0 
 17 40  1  0  0  0  0 
 18 41  1  0  0  0  0 
 19 42  1  0  0  0  0 
 20 43  1  0  0  0  0 
 21 44  1  0  0  0  0 
 21 45  1  0  0  0  0 
 21 46  1  0  0  0  0 
 22 47  1  0  0  0  0 
 22 48  1  0  0  0  0 
 22 49  1  0  0  0  0 
 23 50  1  0  0  0  0 
M  END
> <cdk:Title>
nateglinide

> <Conformer>
1

> <SuperDrugID>
SD001682

$$$$
