phenacemide
  CDK     0628171801

 23 23  0  0  0  0  0  0  0  0999 V2000
    0.3081   -2.1831    3.5853 N   0  0  0  0  0  0  0  0  0  0  0  0
    1.4909   -2.0431    2.9684 C   0  0  0  0  0  0  0  0  0  0  0  0
    2.5304   -2.2222    3.6446 O   0  0  0  0  0  0  0  0  0  0  0  0
    1.4899   -1.7114    1.6506 N   0  0  0  0  0  0  0  0  0  0  0  0
    2.5673   -1.5174    0.8416 C   0  0  0  0  0  0  0  0  0  0  0  0
    3.7461   -1.6401    1.2555 O   0  0  0  0  0  0  0  0  0  0  0  0
    2.3561   -1.1342   -0.5719 C   0  0  1  0  0  0  0  0  0  0  0  0
    2.8026   -2.2102   -1.4958 C   0  0  0  0  0  0  0  0  0  0  0  0
    1.9608   -3.3126   -1.7763 C   0  0  0  0  0  0  0  0  0  0  0  0
    2.3911   -4.3430   -2.6348 C   0  0  0  0  0  0  0  0  0  0  0  0
    3.6680   -4.2837   -3.2199 C   0  0  0  0  0  0  0  0  0  0  0  0
    4.5137   -3.1923   -2.9536 C   0  0  0  0  0  0  0  0  0  0  0  0
    4.0817   -2.1595   -2.1014 C   0  0  0  0  0  0  0  0  0  0  0  0
    0.2717   -2.4179    4.5263 H   0  0  0  0  0  0  0  0  0  0  0  0
   -0.5172   -2.0466    3.0924 H   0  0  0  0  0  0  0  0  0  0  0  0
    0.6185   -1.6020    1.2385 H   0  0  0  0  0  0  0  0  0  0  0  0
    1.3014   -0.9094   -0.7578 H   0  0  0  0  0  0  0  0  0  0  0  0
    2.9057   -0.2092   -0.7640 H   0  0  0  0  0  0  0  0  0  0  0  0
    1.0276   -3.3713   -1.3587 H   0  0  0  0  0  0  0  0  0  0  0  0
    1.7749   -5.1344   -2.8355 H   0  0  0  0  0  0  0  0  0  0  0  0
    3.9828   -5.0344   -3.8388 H   0  0  0  0  0  0  0  0  0  0  0  0
    5.4410   -3.1505   -3.3814 H   0  0  0  0  0  0  0  0  0  0  0  0
    4.7094   -1.3723   -1.9208 H   0  0  0  0  0  0  0  0  0  0  0  0
  1  2  1  0  0  0  0 
  2  3  2  0  0  0  0 
  2  4  1  0  0  0  0 
  4  5  1  0  0  0  0 
  5  6  2  0  0  0  0 
  5  7  1  0  0  0  0 
  7  8  1  0  0  0  0 
  8  9  2  0  0  0  0 
  9 10  1  0  0  0  0 
 10 11  2  0  0  0  0 
 11 12  1  0  0  0  0 
 12 13  2  0  0  0  0 
  8 13  1  0  0  0  0 
  1 14  1  0  0  0  0 
  1 15  1  0  0  0  0 
  4 16  1  0  0  0  0 
  7 17  1  0  0  0  0 
  7 18  1  0  0  0  0 
  9 19  1  0  0  0  0 
 10 20  1  0  0  0  0 
 11 21  1  0  0  0  0 
 12 22  1  0  0  0  0 
 13 23  1  0  0  0  0 
M  END
> <cdk:Title>
phenacemide

> <Conformer>
1

> <SuperDrugID>
SD001895

$$$$
