oleandrin
  CDK     0628171801

 89 94  0  0  0  0  0  0  0  0999 V2000
    0.5642   14.9161   19.0471 O   0  0  0  0  0  0  0  0  0  0  0  0
   -0.0864   16.1467   18.6909 C   0  0  2  0  0  0  0  0  0  0  0  0
   -1.5952   15.8566   18.3406 C   0  0  1  0  0  0  0  0  0  0  0  0
    0.7593   16.7602   17.4978 C   0  0  1  0  0  0  0  0  0  0  0  0
   -0.1303   17.0088   19.9952 C   0  0  2  0  0  0  0  0  0  0  0  0
   -1.7917   14.5599   17.4713 C   0  0  0  0  0  0  0  0  0  0  0  0
   -2.2976   15.7652   19.7527 C   0  0  2  0  0  0  0  0  0  0  0  0
   -2.2112   17.0747   17.5435 C   0  0  2  0  0  0  0  0  0  0  0  0
    0.0759   18.0006   16.8005 C   0  0  2  0  0  0  0  0  0  0  0  0
    2.2376   17.0389   17.9185 C   0  0  1  0  0  0  0  0  0  0  0  0
   -1.5136   16.7653   20.6548 C   0  0  1  0  0  0  0  0  0  0  0  0
   -2.4986   14.4254   20.3325 C   0  0  0  0  0  0  0  0  0  0  0  0
   -1.3586   17.5682   16.3500 C   0  0  2  0  0  0  0  0  0  0  0  0
    0.9540   18.7078   15.6707 C   0  0  2  0  0  0  0  0  0  0  0  0
    3.0806   17.6798   16.7926 C   0  0  2  0  0  0  0  0  0  0  0  0
   -1.3962   16.3517   22.0303 O   0  0  0  0  0  0  0  0  0  0  0  0
   -1.5792   13.6147   20.8646 C   0  0  0  0  0  0  0  0  0  0  0  0
   -3.7904   13.7706   20.3886 C   0  0  2  0  0  0  0  0  0  0  0  0
    1.0139   17.8219   14.3699 C   0  0  0  0  0  0  0  0  0  0  0  0
    2.4255   18.9677   16.2087 C   0  0  2  0  0  0  0  0  0  0  0  0
    0.3543   20.1024   15.2155 C   0  0  1  0  0  0  0  0  0  0  0  0
   -1.2056   17.1589   23.1161 C   0  0  0  0  0  0  0  0  0  0  0  0
   -2.1670   12.4567   21.2492 C   0  0  0  0  0  0  0  0  0  0  0  0
   -3.4846   12.5099   20.9791 O   0  0  0  0  0  0  0  0  0  0  0  0
    2.5290   20.1586   17.2257 C   0  0  2  0  0  0  0  0  0  0  0  0
    0.4702   21.2476   16.2562 C   0  0  2  0  0  0  0  0  0  0  0  0
   -1.0652   16.5666   24.4532 C   0  0  0  0  0  0  0  0  0  0  0  0
   -1.1545   18.4060   22.9993 O   0  0  0  0  0  0  0  0  0  0  0  0
   -1.5899   11.4829   21.7806 O   0  0  0  0  0  0  0  0  0  0  0  0
    1.9510   21.4845   16.6645 C   0  0  2  0  0  0  0  0  0  0  0  0
    2.8164   21.8999   15.5771 O   0  0  0  0  0  0  0  0  0  0  0  0
    2.6999   23.2508   15.0829 C   0  0  1  0  0  0  0  0  0  0  0  0
    3.9706   23.5553   14.2457 C   0  0  2  0  0  0  0  0  0  0  0  0
    1.5197   23.3575   14.2556 O   0  0  0  0  0  0  0  0  0  0  0  0
    3.8736   24.9302   13.5215 C   0  0  2  0  0  0  0  0  0  0  0  0
    1.2953   24.6253   13.6003 C   0  0  2  0  0  0  0  0  0  0  0  0
    3.9505   26.0453   14.4418 O   0  0  0  0  0  0  0  0  0  0  0  0
    2.5311   25.0359   12.7404 C   0  0  2  0  0  0  0  0  0  0  0  0
    0.7787   25.7165   14.5766 C   0  0  0  0  0  0  0  0  0  0  0  0
    5.2676   26.4616   14.8472 C   0  0  0  0  0  0  0  0  0  0  0  0
    2.5874   24.2053   11.5783 O   0  0  0  0  0  0  0  0  0  0  0  0
    0.8189   15.9748   16.7382 H   0  0  0  0  0  0  0  0  0  0  0  0
   -0.0684   18.7512   17.5740 H   0  0  0  0  0  0  0  0  0  0  0  0
    3.0546   19.2563   15.3582 H   0  0  0  0  0  0  0  0  0  0  0  0
    2.6569   23.9488   15.9244 H   0  0  0  0  0  0  0  0  0  0  0  0
    0.5944   14.3832   18.2262 H   0  0  0  0  0  0  0  0  0  0  0  0
   -0.0955   18.1094   19.7166 H   0  0  0  0  0  0  0  0  0  0  0  0
    0.6805   16.6449   20.7081 H   0  0  0  0  0  0  0  0  0  0  0  0
   -2.8512   14.3913   17.2678 H   0  0  0  0  0  0  0  0  0  0  0  0
   -1.4112   13.6711   17.9744 H   0  0  0  0  0  0  0  0  0  0  0  0
   -1.2679   14.6322   16.5190 H   0  0  0  0  0  0  0  0  0  0  0  0
   -3.3133   16.1691   19.6554 H   0  0  0  0  0  0  0  0  0  0  0  0
   -2.3510   17.9333   18.2061 H   0  0  0  0  0  0  0  0  0  0  0  0
   -3.2071   16.8115   17.1744 H   0  0  0  0  0  0  0  0  0  0  0  0
    2.2683   17.6833   18.7986 H   0  0  0  0  0  0  0  0  0  0  0  0
    2.7216   16.0974   18.1934 H   0  0  0  0  0  0  0  0  0  0  0  0
   -2.0693   17.7112   20.6495 H   0  0  0  0  0  0  0  0  0  0  0  0
   -1.8952   18.4028   15.8995 H   0  0  0  0  0  0  0  0  0  0  0  0
   -1.3029   16.7799   15.5980 H   0  0  0  0  0  0  0  0  0  0  0  0
    3.2226   16.9461   15.9960 H   0  0  0  0  0  0  0  0  0  0  0  0
    4.0775   17.9090   17.1809 H   0  0  0  0  0  0  0  0  0  0  0  0
   -0.6155   13.8177   20.9757 H   0  0  0  0  0  0  0  0  0  0  0  0
   -4.2165   13.6402   19.3911 H   0  0  0  0  0  0  0  0  0  0  0  0
   -4.4834   14.3250   21.0261 H   0  0  0  0  0  0  0  0  0  0  0  0
    1.3203   16.7986   14.5837 H   0  0  0  0  0  0  0  0  0  0  0  0
    0.0406   17.7827   13.8752 H   0  0  0  0  0  0  0  0  0  0  0  0
    1.7237   18.2305   13.6463 H   0  0  0  0  0  0  0  0  0  0  0  0
    0.8720   20.4470   14.3139 H   0  0  0  0  0  0  0  0  0  0  0  0
   -0.6948   20.0061   14.9348 H   0  0  0  0  0  0  0  0  0  0  0  0
    3.5776   20.3249   17.4928 H   0  0  0  0  0  0  0  0  0  0  0  0
    1.9991   19.9175   18.1493 H   0  0  0  0  0  0  0  0  0  0  0  0
   -0.1227   21.0112   17.1422 H   0  0  0  0  0  0  0  0  0  0  0  0
    0.0413   22.1617   15.8434 H   0  0  0  0  0  0  0  0  0  0  0  0
   -1.8896   16.8963   25.0901 H   0  0  0  0  0  0  0  0  0  0  0  0
   -1.0736   15.4761   24.3968 H   0  0  0  0  0  0  0  0  0  0  0  0
   -0.1209   16.8855   24.8957 H   0  0  0  0  0  0  0  0  0  0  0  0
    1.9854   22.2282   17.4684 H   0  0  0  0  0  0  0  0  0  0  0  0
    4.0993   22.7686   13.4963 H   0  0  0  0  0  0  0  0  0  0  0  0
    4.8486   23.5301   14.8945 H   0  0  0  0  0  0  0  0  0  0  0  0
    4.6828   24.9996   12.7850 H   0  0  0  0  0  0  0  0  0  0  0  0
    0.4680   24.4478   12.9069 H   0  0  0  0  0  0  0  0  0  0  0  0
    2.4032   26.0588   12.3783 H   0  0  0  0  0  0  0  0  0  0  0  0
    1.5120   25.9494   15.3482 H   0  0  0  0  0  0  0  0  0  0  0  0
    0.5480   26.6326   14.0287 H   0  0  0  0  0  0  0  0  0  0  0  0
   -0.1355   25.3696   15.0642 H   0  0  0  0  0  0  0  0  0  0  0  0
    5.1644   27.3254   15.5047 H   0  0  0  0  0  0  0  0  0  0  0  0
    5.8685   26.7636   13.9867 H   0  0  0  0  0  0  0  0  0  0  0  0
    5.7835   25.6727   15.3955 H   0  0  0  0  0  0  0  0  0  0  0  0
    2.6508   23.2894   11.9188 H   0  0  0  0  0  0  0  0  0  0  0  0
  2  1  1  0  0  0  0 
  2  3  1  0  0  0  0 
  4  2  1  0  0  0  0 
  2  5  1  0  0  0  0 
  3  6  1  0  0  0  0 
  3  7  1  0  0  0  0 
  3  8  1  0  0  0  0 
  9  4  1  0  0  0  0 
  4 10  1  0  0  0  0 
  4 42  1  0  0  0  0 
 11  5  1  0  0  0  0 
  7 11  1  0  0  0  0 
  7 12  1  0  0  0  0 
  8 13  1  0  0  0  0 
  9 13  1  0  0  0  0 
 14  9  1  0  0  0  0 
  9 43  1  0  0  0  0 
 10 15  1  0  0  0  0 
 11 16  1  0  0  0  0 
 12 17  2  0  0  0  0 
 12 18  1  0  0  0  0 
 14 19  1  0  0  0  0 
 20 14  1  0  0  0  0 
 14 21  1  0  0  0  0 
 20 15  1  0  0  0  0 
 16 22  1  0  0  0  0 
 17 23  1  0  0  0  0 
 18 24  1  0  0  0  0 
 20 25  1  0  0  0  0 
 20 44  1  0  0  0  0 
 21 26  1  0  0  0  0 
 22 27  1  0  0  0  0 
 22 28  2  0  0  0  0 
 23 24  1  0  0  0  0 
 23 29  2  0  0  0  0 
 30 25  1  0  0  0  0 
 30 26  1  0  0  0  0 
 30 31  1  0  0  0  0 
 32 31  1  0  0  0  0 
 32 33  1  0  0  0  0 
 32 34  1  0  0  0  0 
 32 45  1  0  0  0  0 
 35 33  1  0  0  0  0 
 36 34  1  0  0  0  0 
 35 37  1  0  0  0  0 
 38 35  1  0  0  0  0 
 36 38  1  0  0  0  0 
 36 39  1  0  0  0  0 
 37 40  1  0  0  0  0 
 38 41  1  0  0  0  0 
  1 46  1  0  0  0  0 
  5 47  1  0  0  0  0 
  5 48  1  0  0  0  0 
  6 49  1  0  0  0  0 
  6 50  1  0  0  0  0 
  6 51  1  0  0  0  0 
  7 52  1  0  0  0  0 
  8 53  1  0  0  0  0 
  8 54  1  0  0  0  0 
 10 55  1  0  0  0  0 
 10 56  1  0  0  0  0 
 11 57  1  0  0  0  0 
 13 58  1  0  0  0  0 
 13 59  1  0  0  0  0 
 15 60  1  0  0  0  0 
 15 61  1  0  0  0  0 
 17 62  1  0  0  0  0 
 18 63  1  0  0  0  0 
 18 64  1  0  0  0  0 
 19 65  1  0  0  0  0 
 19 66  1  0  0  0  0 
 19 67  1  0  0  0  0 
 21 68  1  0  0  0  0 
 21 69  1  0  0  0  0 
 25 70  1  0  0  0  0 
 25 71  1  0  0  0  0 
 26 72  1  0  0  0  0 
 26 73  1  0  0  0  0 
 27 74  1  0  0  0  0 
 27 75  1  0  0  0  0 
 27 76  1  0  0  0  0 
 30 77  1  0  0  0  0 
 33 78  1  0  0  0  0 
 33 79  1  0  0  0  0 
 35 80  1  0  0  0  0 
 36 81  1  0  0  0  0 
 38 82  1  0  0  0  0 
 39 83  1  0  0  0  0 
 39 84  1  0  0  0  0 
 39 85  1  0  0  0  0 
 40 86  1  0  0  0  0 
 40 87  1  0  0  0  0 
 40 88  1  0  0  0  0 
 41 89  1  0  0  0  0 
M  END
> <cdk:Title>
oleandrin

> <Conformer>
1

> <SuperDrugID>
SD002925

$$$$
