methyldopate
  CDK     0628171801

 34 34  0  0  0  0  0  0  0  0999 V2000
   -2.2164    5.8800    1.2285 C   0  0  0  0  0  0  0  0  0  0  0  0
   -2.6185    7.2297    1.2691 C   0  0  0  0  0  0  0  0  0  0  0  0
   -2.6207    7.9932    0.0848 C   0  0  0  0  0  0  0  0  0  0  0  0
   -2.2837    7.3930   -1.1407 C   0  0  0  0  0  0  0  0  0  0  0  0
   -1.9223    6.0363   -1.1817 C   0  0  0  0  0  0  0  0  0  0  0  0
   -1.8559    5.2670    0.0042 C   0  0  0  0  0  0  0  0  0  0  0  0
   -1.3822    3.8530   -0.0302 C   0  0  1  0  0  0  0  0  0  0  0  0
   -2.9676    9.3003    0.1050 O   0  0  0  0  0  0  0  0  0  0  0  0
   -3.0112    7.7849    2.4415 O   0  0  0  0  0  0  0  0  0  0  0  0
   -2.4909    2.7419   -0.0150 C   0  0  2  0  0  0  0  0  0  0  0  0
   -1.8965    1.3707    0.0347 C   0  0  0  0  0  0  0  0  0  0  0  0
   -3.4260    2.8485   -1.2572 C   0  0  0  0  0  0  0  0  0  0  0  0
   -0.5415    1.1766   -0.0331 O   0  0  0  0  0  0  0  0  0  0  0  0
   -2.6532    0.3750    0.1307 O   0  0  0  0  0  0  0  0  0  0  0  0
    0.1878   -0.0598   -0.0010 C   0  0  1  0  0  0  0  0  0  0  0  0
    0.0707   -0.7860    1.3550 C   0  0  0  0  0  0  0  0  0  0  0  0
   -3.3272    2.8895    1.1911 N   0  0  2  0  0  0  0  0  0  0  0  0
   -2.1890    5.3454    2.1009 H   0  0  0  0  0  0  0  0  0  0  0  0
   -2.3037    7.9401   -2.0050 H   0  0  0  0  0  0  0  0  0  0  0  0
   -1.7092    5.6119   -2.0876 H   0  0  0  0  0  0  0  0  0  0  0  0
   -0.7571    3.7104   -0.9177 H   0  0  0  0  0  0  0  0  0  0  0  0
   -0.7172    3.7082    0.8268 H   0  0  0  0  0  0  0  0  0  0  0  0
   -3.9284    9.2925    0.3018 H   0  0  0  0  0  0  0  0  0  0  0  0
   -3.4492    7.0566    2.9329 H   0  0  0  0  0  0  0  0  0  0  0  0
   -4.2037    2.0808   -1.2264 H   0  0  0  0  0  0  0  0  0  0  0  0
   -2.8608    2.7254   -2.1849 H   0  0  0  0  0  0  0  0  0  0  0  0
   -3.9275    3.8174   -1.2844 H   0  0  0  0  0  0  0  0  0  0  0  0
   -0.1514   -0.7161   -0.8062 H   0  0  0  0  0  0  0  0  0  0  0  0
    1.2395    0.1798   -0.1776 H   0  0  0  0  0  0  0  0  0  0  0  0
    0.7647   -1.6272    1.3858 H   0  0  0  0  0  0  0  0  0  0  0  0
    0.3137   -0.1004    2.1682 H   0  0  0  0  0  0  0  0  0  0  0  0
   -0.9420   -1.1644    1.5008 H   0  0  0  0  0  0  0  0  0  0  0  0
   -3.7676    3.8117    1.1451 H   0  0  0  0  0  0  0  0  0  0  0  0
   -2.7015    2.8953    1.9996 H   0  0  0  0  0  0  0  0  0  0  0  0
  1  2  2  0  0  0  0 
  1  6  1  0  0  0  0 
  2  3  1  0  0  0  0 
  3  4  2  0  0  0  0 
  4  5  1  0  0  0  0 
  5  6  2  0  0  0  0 
  6  7  1  0  0  0  0 
  3  8  1  0  0  0  0 
  2  9  1  0  0  0  0 
  7 10  1  0  0  0  0 
 10 11  1  0  0  0  0 
 10 12  1  0  0  0  0 
 11 13  1  0  0  0  0 
 11 14  2  0  0  0  0 
 13 15  1  0  0  0  0 
 15 16  1  0  0  0  0 
 10 17  1  0  0  0  0 
  1 18  1  0  0  0  0 
  4 19  1  0  0  0  0 
  5 20  1  0  0  0  0 
  7 21  1  0  0  0  0 
  7 22  1  0  0  0  0 
  8 23  1  0  0  0  0 
  9 24  1  0  0  0  0 
 12 25  1  0  0  0  0 
 12 26  1  0  0  0  0 
 12 27  1  0  0  0  0 
 15 28  1  0  0  0  0 
 15 29  1  0  0  0  0 
 16 30  1  0  0  0  0 
 16 31  1  0  0  0  0 
 16 32  1  0  0  0  0 
 17 33  1  0  0  0  0 
 17 34  1  0  0  0  0 
M  END
> <cdk:Title>
methyldopate

> <Conformer>
1

> <SuperDrugID>
SD003431

$$$$
