kojic acid
  CDK     0628171801

 16 16  0  0  0  0  0  0  0  0999 V2000
   -1.8693   -1.4647   -0.6353 O   0  0  0  0  0  0  0  0  0  0  0  0
   -0.9828   -0.4644   -0.1531 C   0  0  2  0  0  0  0  0  0  0  0  0
   -0.7973    0.5644   -1.1915 C   0  0  0  0  0  0  0  0  0  0  0  0
    0.2173    0.4697   -2.1662 C   0  0  0  0  0  0  0  0  0  0  0  0
    0.3389    1.4853   -3.1325 C   0  0  0  0  0  0  0  0  0  0  0  0
    1.2376    1.4037   -4.0003 O   0  0  0  0  0  0  0  0  0  0  0  0
   -0.5414    2.5850   -3.1288 C   0  0  0  0  0  0  0  0  0  0  0  0
   -0.4333    3.5796   -4.0432 O   0  0  0  0  0  0  0  0  0  0  0  0
   -1.5464    2.6435   -2.1484 C   0  0  0  0  0  0  0  0  0  0  0  0
   -1.6389    1.6418   -1.2235 O   0  0  0  0  0  0  0  0  0  0  0  0
   -1.9276   -2.1171    0.0943 H   0  0  0  0  0  0  0  0  0  0  0  0
   -0.0312   -0.9313    0.1104 H   0  0  0  0  0  0  0  0  0  0  0  0
   -1.4086   -0.0203    0.7484 H   0  0  0  0  0  0  0  0  0  0  0  0
    0.8584   -0.3279   -2.1735 H   0  0  0  0  0  0  0  0  0  0  0  0
   -0.9714    3.2768   -4.8049 H   0  0  0  0  0  0  0  0  0  0  0  0
   -2.2054    3.4238   -2.1206 H   0  0  0  0  0  0  0  0  0  0  0  0
  1  2  1  0  0  0  0 
  2  3  1  0  0  0  0 
  3  4  2  0  0  0  0 
  4  5  1  0  0  0  0 
  5  6  2  0  0  0  0 
  5  7  1  0  0  0  0 
  7  8  1  0  0  0  0 
  7  9  2  0  0  0  0 
  9 10  1  0  0  0  0 
  3 10  1  0  0  0  0 
  1 11  1  0  0  0  0 
  2 12  1  0  0  0  0 
  2 13  1  0  0  0  0 
  4 14  1  0  0  0  0 
  8 15  1  0  0  0  0 
  9 16  1  0  0  0  0 
M  END
> <cdk:Title>
kojic acid

> <Conformer>
1

> <SuperDrugID>
SD003313

$$$$
