aminaphthone
  CDK     0628171801

 38 40  0  0  0  0  0  0  0  0999 V2000
    0.6421    0.1032    0.2736 O   0  0  0  0  0  0  0  0  0  0  0  0
    0.4045    0.3992    1.5789 C   0  0  0  0  0  0  0  0  0  0  0  0
    0.7269   -0.5284    2.5998 C   0  0  0  0  0  0  0  0  0  0  0  0
   -0.2104    1.6334    1.8942 C   0  0  0  0  0  0  0  0  0  0  0  0
    0.3656   -0.2382    3.9483 C   0  0  0  0  0  0  0  0  0  0  0  0
    1.4099   -1.7379    2.3143 C   0  0  0  0  0  0  0  0  0  0  0  0
   -0.4652    2.6118    0.9600 O   0  0  0  0  0  0  0  0  0  0  0  0
   -0.6179    1.9015    3.2261 C   0  0  0  0  0  0  0  0  0  0  0  0
   -0.3036    0.9733    4.2506 C   0  0  0  0  0  0  0  0  0  0  0  0
    0.6861   -1.1707    4.9657 C   0  0  0  0  0  0  0  0  0  0  0  0
    1.7292   -2.6435    3.3383 C   0  0  0  0  0  0  0  0  0  0  0  0
    0.2472    3.0624   -0.1200 C   0  0  0  0  0  0  0  0  0  0  0  0
   -1.3610    3.1599    3.5178 C   0  0  0  0  0  0  0  0  0  0  0  0
   -0.6291    1.2447    5.5460 O   0  0  0  0  0  0  0  0  0  0  0  0
    1.3643   -2.3630    4.6630 C   0  0  0  0  0  0  0  0  0  0  0  0
    1.4036    2.6232   -0.3283 O   0  0  0  0  0  0  0  0  0  0  0  0
   -0.2926    4.0871   -0.9491 C   0  0  0  0  0  0  0  0  0  0  0  0
    0.3787    4.5239   -2.1203 C   0  0  0  0  0  0  0  0  0  0  0  0
   -1.5210    4.7158   -0.6204 C   0  0  0  0  0  0  0  0  0  0  0  0
   -0.1517    5.5492   -2.9255 C   0  0  0  0  0  0  0  0  0  0  0  0
   -2.0592    5.7351   -1.4273 C   0  0  0  0  0  0  0  0  0  0  0  0
   -1.3710    6.1595   -2.5787 C   0  0  0  0  0  0  0  0  0  0  0  0
   -1.8764    7.1471   -3.3415 N   0  0  0  0  0  0  0  0  0  0  0  0
    0.3886   -0.8380    0.1695 H   0  0  0  0  0  0  0  0  0  0  0  0
    1.6920   -1.9715    1.3606 H   0  0  0  0  0  0  0  0  0  0  0  0
    0.4327   -0.9944    5.9412 H   0  0  0  0  0  0  0  0  0  0  0  0
    2.2312   -3.5082    3.1213 H   0  0  0  0  0  0  0  0  0  0  0  0
   -2.2332    3.2318    2.8648 H   0  0  0  0  0  0  0  0  0  0  0  0
   -1.7265    3.2170    4.5433 H   0  0  0  0  0  0  0  0  0  0  0  0
   -0.7126    4.0206    3.3372 H   0  0  0  0  0  0  0  0  0  0  0  0
   -0.3748    2.1810    5.6937 H   0  0  0  0  0  0  0  0  0  0  0  0
    1.5925   -3.0249    5.4071 H   0  0  0  0  0  0  0  0  0  0  0  0
    1.2679    4.1031   -2.4007 H   0  0  0  0  0  0  0  0  0  0  0  0
   -2.0409    4.4447    0.2168 H   0  0  0  0  0  0  0  0  0  0  0  0
    0.3567    5.8483   -3.7630 H   0  0  0  0  0  0  0  0  0  0  0  0
   -2.9506    6.1668   -1.1692 H   0  0  0  0  0  0  0  0  0  0  0  0
   -2.7180    7.5666   -3.1012 H   0  0  0  0  0  0  0  0  0  0  0  0
   -1.3982    7.4451   -4.1293 H   0  0  0  0  0  0  0  0  0  0  0  0
  1  2  1  0  0  0  0 
  2  3  2  0  0  0  0 
  2  4  1  0  0  0  0 
  3  5  1  0  0  0  0 
  3  6  1  0  0  0  0 
  4  7  1  0  0  0  0 
  4  8  2  0  0  0  0 
  5  9  2  0  0  0  0 
  5 10  1  0  0  0  0 
  6 11  2  0  0  0  0 
  7 12  1  0  0  0  0 
  8  9  1  0  0  0  0 
  8 13  1  0  0  0  0 
  9 14  1  0  0  0  0 
 10 15  2  0  0  0  0 
 11 15  1  0  0  0  0 
 12 16  2  0  0  0  0 
 12 17  1  0  0  0  0 
 17 18  2  0  0  0  0 
 17 19  1  0  0  0  0 
 18 20  1  0  0  0  0 
 19 21  2  0  0  0  0 
 20 22  2  0  0  0  0 
 21 22  1  0  0  0  0 
 22 23  1  0  0  0  0 
  1 24  1  0  0  0  0 
  6 25  1  0  0  0  0 
 10 26  1  0  0  0  0 
 11 27  1  0  0  0  0 
 13 28  1  0  0  0  0 
 13 29  1  0  0  0  0 
 13 30  1  0  0  0  0 
 14 31  1  0  0  0  0 
 15 32  1  0  0  0  0 
 18 33  1  0  0  0  0 
 19 34  1  0  0  0  0 
 20 35  1  0  0  0  0 
 21 36  1  0  0  0  0 
 23 37  1  0  0  0  0 
 23 38  1  0  0  0  0 
M  END
> <cdk:Title>
aminaphthone

> <Conformer>
1

> <SuperDrugID>
SD000125

$$$$
