caroxazone
  CDK     0628171801

 25 26  0  0  0  0  0  0  0  0999 V2000
   -1.7019   -0.9973    0.0469 C   0  0  1  0  0  0  0  0  0  0  0  0
   -2.6229   -1.7613    0.9142 C   0  0  0  0  0  0  0  0  0  0  0  0
   -0.5203   -1.7657   -0.2857 N   0  0  0  0  0  0  0  0  0  0  0  0
   -3.8899   -2.0123    0.5377 N   0  0  0  0  0  0  0  0  0  0  0  0
   -2.2335   -2.1844    2.0265 O   0  0  0  0  0  0  0  0  0  0  0  0
    0.7392   -1.4293    0.3543 C   0  0  2  0  0  0  0  0  0  0  0  0
   -0.5934   -2.8215   -1.1731 C   0  0  0  0  0  0  0  0  0  0  0  0
    1.9050   -2.2854    0.0099 C   0  0  0  0  0  0  0  0  0  0  0  0
   -1.6526   -3.1405   -1.7613 O   0  0  0  0  0  0  0  0  0  0  0  0
    0.5030   -3.5822   -1.4486 O   0  0  0  0  0  0  0  0  0  0  0  0
    1.7243   -3.3594   -0.8909 C   0  0  0  0  0  0  0  0  0  0  0  0
    3.1862   -2.0512    0.5590 C   0  0  0  0  0  0  0  0  0  0  0  0
    2.8007   -4.2023   -1.2209 C   0  0  0  0  0  0  0  0  0  0  0  0
    4.2664   -2.8891    0.2196 C   0  0  0  0  0  0  0  0  0  0  0  0
    4.0698   -3.9692   -0.6617 C   0  0  0  0  0  0  0  0  0  0  0  0
   -2.2080   -0.6848   -0.8729 H   0  0  0  0  0  0  0  0  0  0  0  0
   -1.4416   -0.0769    0.5773 H   0  0  0  0  0  0  0  0  0  0  0  0
   -4.4837   -2.5049    1.1251 H   0  0  0  0  0  0  0  0  0  0  0  0
   -4.2133   -1.6963   -0.3211 H   0  0  0  0  0  0  0  0  0  0  0  0
    0.5970   -1.4791    1.4375 H   0  0  0  0  0  0  0  0  0  0  0  0
    0.9919   -0.3974    0.0951 H   0  0  0  0  0  0  0  0  0  0  0  0
    3.3368   -1.2720    1.2056 H   0  0  0  0  0  0  0  0  0  0  0  0
    2.6604   -4.9820   -1.8678 H   0  0  0  0  0  0  0  0  0  0  0  0
    5.1938   -2.7135    0.6153 H   0  0  0  0  0  0  0  0  0  0  0  0
    4.8502   -4.5844   -0.8987 H   0  0  0  0  0  0  0  0  0  0  0  0
  1  2  1  0  0  0  0 
  1  3  1  0  0  0  0 
  2  4  1  0  0  0  0 
  2  5  2  0  0  0  0 
  3  6  1  0  0  0  0 
  3  7  1  0  0  0  0 
  6  8  1  0  0  0  0 
  7  9  2  0  0  0  0 
  7 10  1  0  0  0  0 
  8 11  2  0  0  0  0 
  8 12  1  0  0  0  0 
 10 11  1  0  0  0  0 
 11 13  1  0  0  0  0 
 12 14  2  0  0  0  0 
 13 15  2  0  0  0  0 
 14 15  1  0  0  0  0 
  1 16  1  0  0  0  0 
  1 17  1  0  0  0  0 
  4 18  1  0  0  0  0 
  4 19  1  0  0  0  0 
  6 20  1  0  0  0  0 
  6 21  1  0  0  0  0 
 12 22  1  0  0  0  0 
 13 23  1  0  0  0  0 
 14 24  1  0  0  0  0 
 15 25  1  0  0  0  0 
M  END
> <cdk:Title>
caroxazone

> <Conformer>
1

> <SuperDrugID>
SD003165

$$$$
