racepinefrine
  CDK     0628171801

 26 26  0  0  0  0  0  0  0  0999 V2000
   -0.5248    2.4023   -0.9866 C   0  0  1  0  0  0  0  0  0  0  0  0
    0.2609    1.1298   -1.3994 C   0  0  2  0  0  0  0  0  0  0  0  0
   -1.8105    2.0381   -0.4808 O   0  0  0  0  0  0  0  0  0  0  0  0
    0.2449    3.2294   -0.0113 C   0  0  0  0  0  0  0  0  0  0  0  0
    0.5602    0.2819   -0.2212 N   0  0  2  0  0  0  0  0  0  0  0  0
    0.1242    3.0221    1.3856 C   0  0  0  0  0  0  0  0  0  0  0  0
    1.1589    4.2077   -0.4734 C   0  0  0  0  0  0  0  0  0  0  0  0
    1.3194   -0.9462   -0.5171 C   0  0  0  0  0  0  0  0  0  0  0  0
    0.8952    3.7690    2.2955 C   0  0  0  0  0  0  0  0  0  0  0  0
    1.9317    4.9545    0.4344 C   0  0  0  0  0  0  0  0  0  0  0  0
    0.7670    3.5467    3.6255 O   0  0  0  0  0  0  0  0  0  0  0  0
    1.7963    4.7409    1.8188 C   0  0  0  0  0  0  0  0  0  0  0  0
    2.5369    5.4727    2.6848 O   0  0  0  0  0  0  0  0  0  0  0  0
   -0.7194    2.9932   -1.8866 H   0  0  0  0  0  0  0  0  0  0  0  0
    1.1926    1.4251   -1.8906 H   0  0  0  0  0  0  0  0  0  0  0  0
   -0.3369    0.5650   -2.1199 H   0  0  0  0  0  0  0  0  0  0  0  0
   -2.2258    1.5037   -1.1910 H   0  0  0  0  0  0  0  0  0  0  0  0
   -0.3332   -0.0062    0.1830 H   0  0  0  0  0  0  0  0  0  0  0  0
   -0.5201    2.3159    1.7513 H   0  0  0  0  0  0  0  0  0  0  0  0
    1.2774    4.3786   -1.4778 H   0  0  0  0  0  0  0  0  0  0  0  0
    1.4741   -1.4870    0.4164 H   0  0  0  0  0  0  0  0  0  0  0  0
    0.7678   -1.5886   -1.2062 H   0  0  0  0  0  0  0  0  0  0  0  0
    2.2950   -0.7026   -0.9414 H   0  0  0  0  0  0  0  0  0  0  0  0
    2.5959    5.6500    0.0831 H   0  0  0  0  0  0  0  0  0  0  0  0
    0.0009    4.0961    3.8938 H   0  0  0  0  0  0  0  0  0  0  0  0
    1.9692    6.2390    2.9137 H   0  0  0  0  0  0  0  0  0  0  0  0
  1  2  1  0  0  0  0 
  1  3  1  0  0  0  0 
  1  4  1  0  0  0  0 
  2  5  1  0  0  0  0 
  4  6  2  0  0  0  0 
  4  7  1  0  0  0  0 
  5  8  1  0  0  0  0 
  6  9  1  0  0  0  0 
  7 10  2  0  0  0  0 
  9 11  1  0  0  0  0 
  9 12  2  0  0  0  0 
 10 12  1  0  0  0  0 
 12 13  1  0  0  0  0 
  1 14  1  0  0  0  0 
  2 15  1  0  0  0  0 
  2 16  1  0  0  0  0 
  3 17  1  0  0  0  0 
  5 18  1  0  0  0  0 
  6 19  1  0  0  0  0 
  7 20  1  0  0  0  0 
  8 21  1  0  0  0  0 
  8 22  1  0  0  0  0 
  8 23  1  0  0  0  0 
 10 24  1  0  0  0  0 
 11 25  1  0  0  0  0 
 13 26  1  0  0  0  0 
M  END
> <cdk:Title>
racepinefrine

> <Conformer>
1

> <SuperDrugID>
SD003604

$$$$
