tipiracil
  CDK     0628171802

 27 28  0  0  0  0  0  0  0  0999 V2000
    3.9424    0.7854   -0.1791 C   0  0  0  0  0  0  0  0  0  0  0  0
    2.7615    0.5340    0.4375 N   0  0  0  0  0  0  0  0  0  0  0  0
    1.8610    1.5227    0.7036 C   0  0  0  0  0  0  0  0  0  0  0  0
    2.1792    2.8602    0.3492 C   0  0  0  0  0  0  0  0  0  0  0  0
    3.4056    3.0822   -0.3116 C   0  0  0  0  0  0  0  0  0  0  0  0
    4.2521    2.0504   -0.5530 N   0  0  0  0  0  0  0  0  0  0  0  0
    1.1580    4.1735    0.6988 Cl  0  0  0  0  0  0  0  0  0  0  0  0
    3.7543    4.2212   -0.6964 O   0  0  0  0  0  0  0  0  0  0  0  0
    4.7410   -0.1494   -0.4074 O   0  0  0  0  0  0  0  0  0  0  0  0
    0.5650    1.1289    1.3166 C   0  0  2  0  0  0  0  0  0  0  0  0
   -0.5123    1.2392    0.3603 N   0  0  0  0  0  0  0  0  0  0  0  0
   -0.5951    0.4167   -0.8082 C   0  0  2  0  0  0  0  0  0  0  0  0
   -1.5775    1.1757   -1.7170 C   0  0  2  0  0  0  0  0  0  0  0  0
   -2.3968    2.0208   -0.7268 C   0  0  2  0  0  0  0  0  0  0  0  0
   -1.5597    2.0588    0.4401 C   0  0  0  0  0  0  0  0  0  0  0  0
   -1.8475    2.8012    1.4430 N   0  0  0  0  0  0  0  0  0  0  0  0
    2.5475   -0.3799    0.6874 H   0  0  0  0  0  0  0  0  0  0  0  0
    5.0944    2.2217   -1.0044 H   0  0  0  0  0  0  0  0  0  0  0  0
    0.3971    1.7434    2.2053 H   0  0  0  0  0  0  0  0  0  0  0  0
    0.6030    0.0928    1.6643 H   0  0  0  0  0  0  0  0  0  0  0  0
   -0.9956   -0.5662   -0.5384 H   0  0  0  0  0  0  0  0  0  0  0  0
    0.3666    0.2862   -1.3094 H   0  0  0  0  0  0  0  0  0  0  0  0
   -2.2065    0.4949   -2.2964 H   0  0  0  0  0  0  0  0  0  0  0  0
   -1.0274    1.8301   -2.4041 H   0  0  0  0  0  0  0  0  0  0  0  0
   -3.3509    1.5438   -0.4880 H   0  0  0  0  0  0  0  0  0  0  0  0
   -2.5701    3.0222   -1.1250 H   0  0  0  0  0  0  0  0  0  0  0  0
   -2.6138    3.3380    1.4249 H   0  0  0  0  0  0  0  0  0  0  0  0
  1  2  1  0  0  0  0 
  1  6  1  0  0  0  0 
  2  3  1  0  0  0  0 
  3  4  2  0  0  0  0 
  4  5  1  0  0  0  0 
  5  6  1  0  0  0  0 
  4  7  1  0  0  0  0 
  5  8  2  0  0  0  0 
  1  9  2  0  0  0  0 
  3 10  1  0  0  0  0 
 10 11  1  0  0  0  0 
 12 13  1  0  0  0  0 
 13 14  1  0  0  0  0 
 14 15  1  0  0  0  0 
 11 12  1  0  0  0  0 
 11 15  1  0  0  0  0 
 15 16  2  0  0  0  0 
 17  2  1  0  0  0  0 
 18  6  1  0  0  0  0 
 19 10  1  0  0  0  0 
 20 10  1  0  0  0  0 
 21 12  1  0  0  0  0 
 22 12  1  0  0  0  0 
 23 13  1  0  0  0  0 
 24 13  1  0  0  0  0 
 25 14  1  0  0  0  0 
 26 14  1  0  0  0  0 
 27 16  1  0  0  0  0 
M  END
> <cdk:Title>
tipiracil

> <Conformer>
1

> <SuperDrugID>
SD003831

$$$$
