sobrerol
  CDK     0628171801

 30 30  0  0  0  0  0  0  0  0999 V2000
    1.4811   -1.9105    0.7635 C   0  0  0  0  0  0  0  0  0  0  0  0
    0.0399   -1.7033    0.6250 C   0  0  0  0  0  0  0  0  0  0  0  0
   -0.8336   -2.6777    0.9532 C   0  0  0  0  0  0  0  0  0  0  0  0
   -2.2795   -2.5796    0.8169 C   0  0  2  0  0  0  0  0  0  0  0  0
   -2.8678   -1.1616    0.4956 C   0  0  1  0  0  0  0  0  0  0  0  0
   -1.8690   -0.4197   -0.4499 C   0  0  2  0  0  0  0  0  0  0  0  0
   -0.4213   -0.4070    0.1220 C   0  0  1  0  0  0  0  0  0  0  0  0
   -0.3111    0.5331    1.1910 O   0  0  0  0  0  0  0  0  0  0  0  0
   -4.3554   -1.2120   -0.0469 C   0  0  1  0  0  0  0  0  0  0  0  0
   -5.3129   -1.9998    0.9029 C   0  0  0  0  0  0  0  0  0  0  0  0
   -4.9569    0.2080   -0.2902 C   0  0  0  0  0  0  0  0  0  0  0  0
   -4.3713   -1.8887   -1.3079 O   0  0  0  0  0  0  0  0  0  0  0  0
    1.7379   -2.8925    1.1689 H   0  0  0  0  0  0  0  0  0  0  0  0
    1.9599   -1.8210   -0.2138 H   0  0  0  0  0  0  0  0  0  0  0  0
    1.9040   -1.1550    1.4271 H   0  0  0  0  0  0  0  0  0  0  0  0
   -0.4867   -3.5422    1.3023 H   0  0  0  0  0  0  0  0  0  0  0  0
   -2.7220   -2.9362    1.7514 H   0  0  0  0  0  0  0  0  0  0  0  0
   -2.5612   -3.2792    0.0259 H   0  0  0  0  0  0  0  0  0  0  0  0
   -2.8868   -0.5986    1.4355 H   0  0  0  0  0  0  0  0  0  0  0  0
   -2.1758    0.6170   -0.6055 H   0  0  0  0  0  0  0  0  0  0  0  0
   -1.8550   -0.9162   -1.4253 H   0  0  0  0  0  0  0  0  0  0  0  0
    0.2459   -0.0664   -0.6768 H   0  0  0  0  0  0  0  0  0  0  0  0
   -0.4284    1.4146    0.7774 H   0  0  0  0  0  0  0  0  0  0  0  0
   -6.3358   -1.9908    0.5210 H   0  0  0  0  0  0  0  0  0  0  0  0
   -5.3163   -1.5624    1.9021 H   0  0  0  0  0  0  0  0  0  0  0  0
   -5.0112   -3.0442    0.9818 H   0  0  0  0  0  0  0  0  0  0  0  0
   -4.4228    0.7267   -1.0868 H   0  0  0  0  0  0  0  0  0  0  0  0
   -4.9044    0.8125    0.6164 H   0  0  0  0  0  0  0  0  0  0  0  0
   -6.0037    0.1418   -0.5966 H   0  0  0  0  0  0  0  0  0  0  0  0
   -5.3122   -1.8898   -1.5890 H   0  0  0  0  0  0  0  0  0  0  0  0
  1  2  1  0  0  0  0 
  2  3  2  0  0  0  0 
  3  4  1  0  0  0  0 
  5  4  1  0  0  0  0 
  5  6  1  0  0  0  0 
  7  6  1  0  0  0  0 
  7  2  1  0  0  0  0 
  7  8  1  0  0  0  0 
  5  9  1  0  0  0  0 
  9 10  1  0  0  0  0 
  9 11  1  0  0  0  0 
  9 12  1  0  0  0  0 
  1 13  1  0  0  0  0 
  1 14  1  0  0  0  0 
  1 15  1  0  0  0  0 
  3 16  1  0  0  0  0 
  4 17  1  0  0  0  0 
  4 18  1  0  0  0  0 
  5 19  1  0  0  0  0 
  6 20  1  0  0  0  0 
  6 21  1  0  0  0  0 
  7 22  1  0  0  0  0 
  8 23  1  0  0  0  0 
 10 24  1  0  0  0  0 
 10 25  1  0  0  0  0 
 10 26  1  0  0  0  0 
 11 27  1  0  0  0  0 
 11 28  1  0  0  0  0 
 11 29  1  0  0  0  0 
 12 30  1  0  0  0  0 
M  END
> <cdk:Title>
sobrerol

> <Conformer>
1

> <SuperDrugID>
SD002204

$$$$
