adipiodone
  CDK     0628171801

 48 49  0  0  0  0  0  0  0  0999 V2000
    2.9609   -3.6182   -6.1491 N   0  0  0  0  0  0  0  0  0  0  0  0
    2.0521   -4.4383   -6.7542 C   0  0  0  0  0  0  0  0  0  0  0  0
    3.3829   -2.3986   -6.5670 C   0  0  0  0  0  0  0  0  0  0  0  0
    1.4075   -4.2788   -8.0891 C   0  0  2  0  0  0  0  0  0  0  0  0
    1.7640   -5.4566   -6.0844 O   0  0  0  0  0  0  0  0  0  0  0  0
    4.1806   -2.1882   -7.7207 C   0  0  0  0  0  0  0  0  0  0  0  0
    2.9805   -1.2945   -5.7860 C   0  0  0  0  0  0  0  0  0  0  0  0
    0.6882   -2.9308   -8.3855 C   0  0  1  0  0  0  0  0  0  0  0  0
    4.9783   -3.8114   -8.7142 I   0  0  0  0  0  0  0  0  0  0  0  0
    4.4405   -0.8663   -8.1700 C   0  0  0  0  0  0  0  0  0  0  0  0
    1.9111   -1.5264   -4.0442 I   0  0  0  0  0  0  0  0  0  0  0  0
    3.2872    0.0099   -6.1995 C   0  0  0  0  0  0  0  0  0  0  0  0
    0.1058   -2.9026   -9.8299 C   0  0  2  0  0  0  0  0  0  0  0  0
    5.1479   -0.6355   -9.3643 C   0  0  0  0  0  0  0  0  0  0  0  0
    3.9845    0.2316   -7.3988 C   0  0  0  0  0  0  0  0  0  0  0  0
   -0.2439   -1.4817  -10.3641 C   0  0  1  0  0  0  0  0  0  0  0  0
    6.4348   -1.0356   -9.4861 O   0  0  0  0  0  0  0  0  0  0  0  0
    4.5975   -0.0502  -10.3249 O   0  0  0  0  0  0  0  0  0  0  0  0
    4.3281    2.1918   -7.9289 I   0  0  0  0  0  0  0  0  0  0  0  0
   -0.2946   -1.4825  -11.8446 C   0  0  0  0  0  0  0  0  0  0  0  0
    0.7951   -1.0445  -12.5376 N   0  0  0  0  0  0  0  0  0  0  0  0
   -1.2927   -1.9799  -12.4195 O   0  0  0  0  0  0  0  0  0  0  0  0
    0.9866   -1.1427  -13.8810 C   0  0  0  0  0  0  0  0  0  0  0  0
    0.1597   -0.5150  -14.8479 C   0  0  0  0  0  0  0  0  0  0  0  0
    2.0943   -1.9071  -14.3022 C   0  0  0  0  0  0  0  0  0  0  0  0
   -1.3335    0.7531  -14.1948 I   0  0  0  0  0  0  0  0  0  0  0  0
    0.4097   -0.7017  -16.2364 C   0  0  0  0  0  0  0  0  0  0  0  0
    3.3521   -2.8252  -12.9546 I   0  0  0  0  0  0  0  0  0  0  0  0
    2.3529   -2.0751  -15.6703 C   0  0  0  0  0  0  0  0  0  0  0  0
   -0.4352   -0.1228  -17.2074 C   0  0  0  0  0  0  0  0  0  0  0  0
    1.5208   -1.4872  -16.6364 C   0  0  0  0  0  0  0  0  0  0  0  0
   -1.7747   -0.3053  -17.1492 O   0  0  0  0  0  0  0  0  0  0  0  0
    0.0223    0.5612  -18.1511 O   0  0  0  0  0  0  0  0  0  0  0  0
    2.0009   -1.8730  -18.6016 I   0  0  0  0  0  0  0  0  0  0  0  0
    3.2704   -3.8959   -5.2722 H   0  0  0  0  0  0  0  0  0  0  0  0
    0.6748   -5.0810   -8.2221 H   0  0  0  0  0  0  0  0  0  0  0  0
    2.1748   -4.4357   -8.8446 H   0  0  0  0  0  0  0  0  0  0  0  0
   -0.1119   -2.7701   -7.6581 H   0  0  0  0  0  0  0  0  0  0  0  0
    1.4006   -2.1128   -8.2911 H   0  0  0  0  0  0  0  0  0  0  0  0
    2.9955    0.8042   -5.6260 H   0  0  0  0  0  0  0  0  0  0  0  0
   -0.7907   -3.5295   -9.8621 H   0  0  0  0  0  0  0  0  0  0  0  0
    0.8427   -3.3521  -10.5041 H   0  0  0  0  0  0  0  0  0  0  0  0
   -1.2053   -1.1529   -9.9584 H   0  0  0  0  0  0  0  0  0  0  0  0
    0.5123   -0.7608  -10.0366 H   0  0  0  0  0  0  0  0  0  0  0  0
    6.9296   -0.8675  -10.3152 H   0  0  0  0  0  0  0  0  0  0  0  0
    1.5470   -0.7233  -12.0136 H   0  0  0  0  0  0  0  0  0  0  0  0
    3.1480   -2.6447  -15.9638 H   0  0  0  0  0  0  0  0  0  0  0  0
   -2.3564    0.0902  -17.8316 H   0  0  0  0  0  0  0  0  0  0  0  0
  1  2  1  0  0  0  0 
  1  3  1  0  0  0  0 
  2  4  1  0  0  0  0 
  2  5  2  0  0  0  0 
  3  6  2  0  0  0  0 
  3  7  1  0  0  0  0 
  4  8  1  0  0  0  0 
  6  9  1  0  0  0  0 
  6 10  1  0  0  0  0 
  7 11  1  0  0  0  0 
  7 12  2  0  0  0  0 
  8 13  1  0  0  0  0 
 10 14  1  0  0  0  0 
 10 15  2  0  0  0  0 
 12 15  1  0  0  0  0 
 13 16  1  0  0  0  0 
 14 17  1  0  0  0  0 
 14 18  2  0  0  0  0 
 15 19  1  0  0  0  0 
 16 20  1  0  0  0  0 
 20 21  1  0  0  0  0 
 20 22  2  0  0  0  0 
 21 23  1  0  0  0  0 
 23 24  2  0  0  0  0 
 23 25  1  0  0  0  0 
 24 26  1  0  0  0  0 
 24 27  1  0  0  0  0 
 25 28  1  0  0  0  0 
 25 29  2  0  0  0  0 
 27 30  1  0  0  0  0 
 27 31  2  0  0  0  0 
 29 31  1  0  0  0  0 
 30 32  1  0  0  0  0 
 30 33  2  0  0  0  0 
 31 34  1  0  0  0  0 
  1 35  1  0  0  0  0 
  4 36  1  0  0  0  0 
  4 37  1  0  0  0  0 
  8 38  1  0  0  0  0 
  8 39  1  0  0  0  0 
 12 40  1  0  0  0  0 
 13 41  1  0  0  0  0 
 13 42  1  0  0  0  0 
 16 43  1  0  0  0  0 
 16 44  1  0  0  0  0 
 17 45  1  0  0  0  0 
 21 46  1  0  0  0  0 
 29 47  1  0  0  0  0 
 32 48  1  0  0  0  0 
M  END
> <cdk:Title>
adipiodone

> <Conformer>
1

> <SuperDrugID>
SD001289

$$$$
