nialamide
  CDK     0628171801

 40 41  0  0  0  0  0  0  0  0999 V2000
   -2.5359    1.8309    0.7229 C   0  0  0  0  0  0  0  0  0  0  0  0
   -2.4233    0.7400   -0.0819 N   0  0  0  0  0  0  0  0  0  0  0  0
   -3.6835    2.1909    1.0844 O   0  0  0  0  0  0  0  0  0  0  0  0
   -1.3975    2.5863    1.1313 C   0  0  0  0  0  0  0  0  0  0  0  0
   -3.4926    0.1177   -0.6333 N   0  0  2  0  0  0  0  0  0  0  0  0
   -1.4783    3.4972    2.2164 C   0  0  0  0  0  0  0  0  0  0  0  0
   -0.1592    2.4909    0.4453 C   0  0  0  0  0  0  0  0  0  0  0  0
   -3.7342   -1.2494   -0.1372 C   0  0  2  0  0  0  0  0  0  0  0  0
   -0.3639    4.2814    2.5672 C   0  0  0  0  0  0  0  0  0  0  0  0
    0.9261    3.2986    0.8335 C   0  0  0  0  0  0  0  0  0  0  0  0
   -4.9992   -1.8245   -0.8202 C   0  0  2  0  0  0  0  0  0  0  0  0
    0.7927    4.1601    1.8710 N   0  0  0  0  0  0  0  0  0  0  0  0
   -5.4873   -3.0509   -0.1555 C   0  0  0  0  0  0  0  0  0  0  0  0
   -6.4460   -2.9375    0.8041 N   0  0  0  0  0  0  0  0  0  0  0  0
   -5.0067   -4.1622   -0.4828 O   0  0  0  0  0  0  0  0  0  0  0  0
   -7.0875   -4.0196    1.4796 C   0  0  2  0  0  0  0  0  0  0  0  0
   -7.8825   -3.5341    2.6408 C   0  0  0  0  0  0  0  0  0  0  0  0
   -8.8710   -2.5325    2.4727 C   0  0  0  0  0  0  0  0  0  0  0  0
   -7.6890   -4.0785    3.9339 C   0  0  0  0  0  0  0  0  0  0  0  0
   -9.6486   -2.0968    3.5629 C   0  0  0  0  0  0  0  0  0  0  0  0
   -8.4753   -3.6518    5.0208 C   0  0  0  0  0  0  0  0  0  0  0  0
   -9.4561   -2.6616    4.8361 C   0  0  0  0  0  0  0  0  0  0  0  0
   -1.5406    0.4091   -0.3021 H   0  0  0  0  0  0  0  0  0  0  0  0
   -3.3642    0.1011   -1.6473 H   0  0  0  0  0  0  0  0  0  0  0  0
   -2.3419    3.6010    2.7554 H   0  0  0  0  0  0  0  0  0  0  0  0
   -0.0361    1.8561   -0.3469 H   0  0  0  0  0  0  0  0  0  0  0  0
   -3.8743   -1.2188    0.9486 H   0  0  0  0  0  0  0  0  0  0  0  0
   -2.8748   -1.8861   -0.3666 H   0  0  0  0  0  0  0  0  0  0  0  0
   -0.4197    4.9459    3.3425 H   0  0  0  0  0  0  0  0  0  0  0  0
    1.8172    3.2473    0.3366 H   0  0  0  0  0  0  0  0  0  0  0  0
   -4.7789   -2.0394   -1.8690 H   0  0  0  0  0  0  0  0  0  0  0  0
   -5.7937   -1.0721   -0.8110 H   0  0  0  0  0  0  0  0  0  0  0  0
   -6.7493   -2.0415    1.0175 H   0  0  0  0  0  0  0  0  0  0  0  0
   -6.3341   -4.7477    1.7978 H   0  0  0  0  0  0  0  0  0  0  0  0
   -7.7645   -4.5212    0.7835 H   0  0  0  0  0  0  0  0  0  0  0  0
   -9.0311   -2.1119    1.5532 H   0  0  0  0  0  0  0  0  0  0  0  0
   -6.9796   -4.7979    4.0922 H   0  0  0  0  0  0  0  0  0  0  0  0
  -10.3584   -1.3726    3.4296 H   0  0  0  0  0  0  0  0  0  0  0  0
   -8.3370   -4.0661    5.9452 H   0  0  0  0  0  0  0  0  0  0  0  0
  -10.0290   -2.3549    5.6258 H   0  0  0  0  0  0  0  0  0  0  0  0
  1  2  1  0  0  0  0 
  1  3  2  0  0  0  0 
  1  4  1  0  0  0  0 
  2  5  1  0  0  0  0 
  4  6  2  0  0  0  0 
  4  7  1  0  0  0  0 
  5  8  1  0  0  0  0 
  6  9  1  0  0  0  0 
  7 10  2  0  0  0  0 
  8 11  1  0  0  0  0 
  9 12  2  0  0  0  0 
 10 12  1  0  0  0  0 
 11 13  1  0  0  0  0 
 13 14  1  0  0  0  0 
 13 15  2  0  0  0  0 
 14 16  1  0  0  0  0 
 16 17  1  0  0  0  0 
 17 18  2  0  0  0  0 
 17 19  1  0  0  0  0 
 18 20  1  0  0  0  0 
 19 21  2  0  0  0  0 
 20 22  2  0  0  0  0 
 21 22  1  0  0  0  0 
  2 23  1  0  0  0  0 
  5 24  1  0  0  0  0 
  6 25  1  0  0  0  0 
  7 26  1  0  0  0  0 
  8 27  1  0  0  0  0 
  8 28  1  0  0  0  0 
  9 29  1  0  0  0  0 
 10 30  1  0  0  0  0 
 11 31  1  0  0  0  0 
 11 32  1  0  0  0  0 
 14 33  1  0  0  0  0 
 16 34  1  0  0  0  0 
 16 35  1  0  0  0  0 
 18 36  1  0  0  0  0 
 19 37  1  0  0  0  0 
 20 38  1  0  0  0  0 
 21 39  1  0  0  0  0 
 22 40  1  0  0  0  0 
M  END
> <cdk:Title>
nialamide

> <Conformer>
1

> <SuperDrugID>
SD001702

$$$$
