ancitabine
  CDK     0628171801

 27 29  0  0  0  0  0  0  0  0999 V2000
   -6.0449   -2.8171    1.1704 O   0  0  0  0  0  0  0  0  0  0  0  0
   -5.1717   -1.6965    1.2747 C   0  0  1  0  0  0  0  0  0  0  0  0
   -4.4366   -1.3936   -0.0419 C   0  0  1  0  0  0  0  0  0  0  0  0
   -5.9182   -0.3729    1.5307 C   0  0  1  0  0  0  0  0  0  0  0  0
   -4.3154    0.1442   -0.0281 C   0  0  1  0  0  0  0  0  0  0  0  0
   -3.1196   -1.9692   -0.0866 O   0  0  0  0  0  0  0  0  0  0  0  0
   -6.4102   -0.2019    2.9867 C   0  0  2  0  0  0  0  0  0  0  0  0
   -4.9571    0.6291    1.1648 O   0  0  0  0  0  0  0  0  0  0  0  0
   -2.9140    0.3059   -0.0133 N   0  0  0  0  0  0  0  0  0  0  0  0
   -2.2976   -0.8929   -0.0456 C   0  0  0  0  0  0  0  0  0  0  0  0
   -7.0877    1.0404    3.1361 O   0  0  0  0  0  0  0  0  0  0  0  0
   -2.1975    1.4649    0.0135 C   0  0  0  0  0  0  0  0  0  0  0  0
   -0.9425   -0.9626   -0.0399 N   0  0  0  0  0  0  0  0  0  0  0  0
   -0.7886    1.3917    0.0119 C   0  0  0  0  0  0  0  0  0  0  0  0
   -0.1959    0.1403   -0.0032 C   0  0  0  0  0  0  0  0  0  0  0  0
    1.0753    0.0176    0.0154 N   0  0  0  0  0  0  0  0  0  0  0  0
   -4.7573    0.5963   -0.9228 H   0  0  0  0  0  0  0  0  0  0  0  0
   -5.0220   -1.7275   -0.9060 H   0  0  0  0  0  0  0  0  0  0  0  0
   -5.4526   -3.5768    0.9864 H   0  0  0  0  0  0  0  0  0  0  0  0
   -4.4453   -1.8791    2.0732 H   0  0  0  0  0  0  0  0  0  0  0  0
   -6.7896   -0.3020    0.8674 H   0  0  0  0  0  0  0  0  0  0  0  0
   -5.5702   -0.2298    3.6833 H   0  0  0  0  0  0  0  0  0  0  0  0
   -7.1057   -1.0053    3.2404 H   0  0  0  0  0  0  0  0  0  0  0  0
   -7.3831    1.0518    4.0706 H   0  0  0  0  0  0  0  0  0  0  0  0
   -2.6653    2.3742    0.0305 H   0  0  0  0  0  0  0  0  0  0  0  0
   -0.2259    2.2468    0.0156 H   0  0  0  0  0  0  0  0  0  0  0  0
    1.4679   -0.8314    0.0015 H   0  0  0  0  0  0  0  0  0  0  0  0
  2  1  1  0  0  0  0 
  3  2  1  0  0  0  0 
  2  4  1  0  0  0  0 
  5  3  1  0  0  0  0 
  3  6  1  0  0  0  0 
  3 18  1  0  0  0  0 
  4  7  1  0  0  0  0 
  4  8  1  0  0  0  0 
  5  8  1  0  0  0  0 
  5  9  1  0  0  0  0 
  5 17  1  0  0  0  0 
  6 10  1  0  0  0  0 
  7 11  1  0  0  0  0 
  9 10  1  0  0  0  0 
  9 12  1  0  0  0  0 
 10 13  2  0  0  0  0 
 12 14  2  0  0  0  0 
 13 15  1  0  0  0  0 
 14 15  1  0  0  0  0 
 15 16  2  0  0  0  0 
  1 19  1  0  0  0  0 
  2 20  1  0  0  0  0 
  4 21  1  0  0  0  0 
  7 22  1  0  0  0  0 
  7 23  1  0  0  0  0 
 11 24  1  0  0  0  0 
 12 25  1  0  0  0  0 
 14 26  1  0  0  0  0 
 16 27  1  0  0  0  0 
M  END
> <cdk:Title>
ancitabine

> <Conformer>
1

> <SuperDrugID>
SD000175

$$$$
