neratinib
  Mrv0541 09131710093D             124.18394

 69 72  0  0  0  0            999 V2000
    2.4973   -1.6490    2.0943 C   0  0  0  0  0  0  0  0  0  0  0  0
    2.8469   -0.2717    1.5072 C   0  0  2  0  0  0  0  0  0  0  0  0
    2.4197    0.7582    2.4259 O   0  0  0  0  0  0  0  0  0  0  0  0
    2.5001    2.0085    1.8722 C   0  0  0  0  0  0  0  0  0  0  0  0
    3.6840    2.7602    2.0226 C   0  0  0  0  0  0  0  0  0  0  0  0
    3.8285    3.9943    1.3604 C   0  0  0  0  0  0  0  0  0  0  0  0
    4.9782    4.6976    1.5045 N   0  0  0  0  0  0  0  0  0  0  0  0
    5.2006    5.8724    0.8709 C   0  0  0  0  0  0  0  0  0  0  0  0
    4.2339    6.3969   -0.0131 C   0  0  0  0  0  0  0  0  0  0  0  0
    4.4830    7.5351   -0.6053 C   0  0  0  0  0  0  0  0  0  0  0  0
    4.6987    8.5377   -1.1211 N   0  0  0  0  0  0  0  0  0  0  0  0
    3.0411    5.6630   -0.2517 C   0  0  0  0  0  0  0  0  0  0  0  0
    2.1867    6.0929   -1.2496 N   0  0  0  0  0  0  0  0  0  0  0  0
    1.5333    5.3043   -2.1617 C   0  0  0  0  0  0  0  0  0  0  0  0
    0.2477    5.6973   -2.5866 C   0  0  0  0  0  0  0  0  0  0  0  0
   -0.5426    4.8335   -3.3682 C   0  0  0  0  0  0  0  0  0  0  0  0
   -0.0499    3.5712   -3.7593 C   0  0  0  0  0  0  0  0  0  0  0  0
   -0.8675    2.6906   -4.4214 O   0  0  0  0  0  0  0  0  0  0  0  0
   -0.8986    2.8726   -5.8478 C   0  0  1  0  0  0  0  0  0  0  0  0
   -1.7643    1.8229   -6.4244 C   0  0  0  0  0  0  0  0  0  0  0  0
   -3.0999    2.0772   -6.8114 C   0  0  0  0  0  0  0  0  0  0  0  0
   -3.8606    1.0434   -7.3892 C   0  0  0  0  0  0  0  0  0  0  0  0
   -3.2936   -0.2313   -7.5666 C   0  0  0  0  0  0  0  0  0  0  0  0
   -1.9701   -0.4501   -7.1446 C   0  0  0  0  0  0  0  0  0  0  0  0
   -1.2594    0.5691   -6.5946 N   0  0  0  0  0  0  0  0  0  0  0  0
    1.2671    3.2039   -3.4058 C   0  0  0  0  0  0  0  0  0  0  0  0
    1.9124    1.7061   -3.8653 Cl  0  0  0  0  0  0  0  0  0  0  0  0
    2.0585    4.0777   -2.6339 C   0  0  0  0  0  0  0  0  0  0  0  0
    2.7905    4.4920    0.5278 C   0  0  0  0  0  0  0  0  0  0  0  0
    1.5647    3.7827    0.5098 C   0  0  0  0  0  0  0  0  0  0  0  0
    1.4035    2.5349    1.1506 C   0  0  0  0  0  0  0  0  0  0  0  0
    0.2720    1.7696    1.0181 N   0  0  0  0  0  0  0  0  0  0  0  0
   -1.0106    2.1542    0.7179 C   0  0  0  0  0  0  0  0  0  0  0  0
   -1.3672    3.3530    0.8073 O   0  0  0  0  0  0  0  0  0  0  0  0
   -1.9679    1.2503    0.2772 C   0  0  0  0  0  0  0  0  0  0  0  0
   -1.7039   -0.0139   -0.0990 C   0  0  0  0  0  0  0  0  0  0  0  0
   -2.6719   -0.9224   -0.7020 C   0  0  2  0  0  0  0  0  0  0  0  0
   -2.6562   -0.8025   -2.2286 N   0  0  1  0  0  0  0  0  0  0  0  0
   -3.2345    0.4479   -2.8013 C   0  0  0  0  0  0  0  0  0  0  0  0
   -1.3670   -1.2027   -2.8624 C   0  0  0  0  0  0  0  0  0  0  0  0
    1.4151   -1.7438    2.1975 H   0  0  0  0  0  0  0  0  0  0  0  0
    2.8568   -2.4367    1.4305 H   0  0  0  0  0  0  0  0  0  0  0  0
    2.9620   -1.7751    3.0731 H   0  0  0  0  0  0  0  0  0  0  0  0
    2.3493   -0.1852    0.5343 H   0  0  0  0  0  0  0  0  0  0  0  0
    3.9277   -0.2110    1.3523 H   0  0  0  0  0  0  0  0  0  0  0  0
    4.4527    2.3917    2.5913 H   0  0  0  0  0  0  0  0  0  0  0  0
    6.0891    6.3521    1.0397 H   0  0  0  0  0  0  0  0  0  0  0  0
    2.0358    7.0498   -1.3165 H   0  0  0  0  0  0  0  0  0  0  0  0
   -0.1337    6.6005   -2.2964 H   0  0  0  0  0  0  0  0  0  0  0  0
   -1.4862    5.1205   -3.6369 H   0  0  0  0  0  0  0  0  0  0  0  0
   -1.2846    3.8675   -6.0963 H   0  0  0  0  0  0  0  0  0  0  0  0
    0.1033    2.7805   -6.2804 H   0  0  0  0  0  0  0  0  0  0  0  0
   -3.5140    3.0044   -6.6819 H   0  0  0  0  0  0  0  0  0  0  0  0
   -4.8243    1.2213   -7.6808 H   0  0  0  0  0  0  0  0  0  0  0  0
   -3.8349   -0.9863   -7.9939 H   0  0  0  0  0  0  0  0  0  0  0  0
   -1.5387   -1.3682   -7.2527 H   0  0  0  0  0  0  0  0  0  0  0  0
    3.0127    3.8090   -2.3842 H   0  0  0  0  0  0  0  0  0  0  0  0
    0.7788    4.1628   -0.0064 H   0  0  0  0  0  0  0  0  0  0  0  0
    0.4075    0.8157    1.1307 H   0  0  0  0  0  0  0  0  0  0  0  0
   -2.9033    1.5792    0.1817 H   0  0  0  0  0  0  0  0  0  0  0  0
   -0.7781   -0.3613   -0.0091 H   0  0  0  0  0  0  0  0  0  0  0  0
   -3.7159   -0.6081   -0.3745 H   0  0  0  0  0  0  0  0  0  0  0  0
   -2.3471   -1.9766   -0.3254 H   0  0  0  0  0  0  0  0  0  0  0  0
   -2.5668    1.2988   -2.6482 H   0  0  0  0  0  0  0  0  0  0  0  0
   -4.1980    0.6774   -2.3378 H   0  0  0  0  0  0  0  0  0  0  0  0
   -3.4086    0.3256   -3.8733 H   0  0  0  0  0  0  0  0  0  0  0  0
   -0.5841   -0.4649   -2.6678 H   0  0  0  0  0  0  0  0  0  0  0  0
   -1.4909   -1.3056   -3.9411 H   0  0  0  0  0  0  0  0  0  0  0  0
   -1.0350   -2.1673   -2.4748 H   0  0  0  0  0  0  0  0  0  0  0  0
  1  2  1  0  0  0  0
  2  3  1  0  0  0  0
  3  4  1  0  0  0  0
  4  5  2  0  0  0  0
  5  6  1  0  0  0  0
  6  7  2  0  0  0  0
  7  8  1  0  0  0  0
  8  9  2  0  0  0  0
  9 10  1  0  0  0  0
 10 11  3  0  0  0  0
  9 12  1  0  0  0  0
 12 13  1  0  0  0  0
 13 14  1  0  0  0  0
 14 15  2  0  0  0  0
 15 16  1  0  0  0  0
 16 17  2  0  0  0  0
 17 18  1  0  0  0  0
 18 19  1  0  0  0  0
 19 20  1  0  0  0  0
 20 21  2  0  0  0  0
 21 22  1  0  0  0  0
 22 23  2  0  0  0  0
 23 24  1  0  0  0  0
 24 25  2  0  0  0  0
 17 26  1  0  0  0  0
 26 27  1  0  0  0  0
 26 28  2  0  0  0  0
 12 29  2  0  0  0  0
 29 30  1  0  0  0  0
 30 31  2  0  0  0  0
 31 32  1  0  0  0  0
 32 33  1  0  0  0  0
 33 34  2  0  0  0  0
 33 35  1  0  0  0  0
 35 36  2  0  0  0  0
 36 37  1  0  0  0  0
 37 38  1  0  0  0  0
 38 39  1  0  0  0  0
 38 40  1  0  0  0  0
 31  4  1  0  0  0  0
 29  6  1  0  0  0  0
 28 14  1  0  0  0  0
 25 20  1  0  0  0  0
  1 41  1  0  0  0  0
  1 42  1  0  0  0  0
  1 43  1  0  0  0  0
  2 44  1  0  0  0  0
  2 45  1  0  0  0  0
  5 46  1  0  0  0  0
  8 47  1  0  0  0  0
 13 48  1  0  0  0  0
 15 49  1  0  0  0  0
 16 50  1  0  0  0  0
 19 51  1  0  0  0  0
 19 52  1  0  0  0  0
 21 53  1  0  0  0  0
 22 54  1  0  0  0  0
 23 55  1  0  0  0  0
 24 56  1  0  0  0  0
 28 57  1  0  0  0  0
 30 58  1  0  0  0  0
 32 59  1  0  0  0  0
 35 60  1  0  0  0  0
 36 61  1  0  0  0  0
 37 62  1  0  0  0  0
 37 63  1  0  0  0  0
 39 64  1  0  0  0  0
 39 65  1  0  0  0  0
 39 66  1  0  0  0  0
 40 67  1  0  0  0  0
 40 68  1  0  0  0  0
 40 69  1  0  0  0  0
M  END
>  <SuperDrugID>
SD006015

>  <_MOLCOUNT>
1

$$$$
