halometasone
  CDK     0628171801

 57 60  0  0  0  0  0  0  0  0999 V2000
    3.5513   -1.4293   -5.1038 F   0  0  0  0  0  0  0  0  0  0  0  0
    4.0371   -0.3546   -4.3678 C   0  0  2  0  0  0  0  0  0  0  0  0
    3.0733    0.8732   -4.6473 C   0  0  2  0  0  0  0  0  0  0  0  0
    5.5253   -0.1107   -4.9180 C   0  0  2  0  0  0  0  0  0  0  0  0
    3.8973   -0.8078   -2.8605 C   0  0  1  0  0  0  0  0  0  0  0  0
    1.6109    0.5454   -4.1839 C   0  0  1  0  0  0  0  0  0  0  0  0
    3.1231    1.2847   -6.1489 C   0  0  1  0  0  0  0  0  0  0  0  0
    6.3571    0.9650   -4.1244 C   0  0  0  0  0  0  0  0  0  0  0  0
    5.4181    0.3564   -6.3445 C   0  0  0  0  0  0  0  0  0  0  0  0
    6.3375   -1.3509   -4.7900 C   0  0  0  0  0  0  0  0  0  0  0  0
    4.5621    0.0936   -1.9813 O   0  0  0  0  0  0  0  0  0  0  0  0
    2.4141   -1.0062   -2.3811 C   0  0  1  0  0  0  0  0  0  0  0  0
    1.4653    0.2220   -2.6591 C   0  0  1  0  0  0  0  0  0  0  0  0
    0.4751    1.5451   -4.4794 C   0  0  2  0  0  0  0  0  0  0  0  0
    4.5730    1.5322   -6.6317 C   0  0  1  0  0  0  0  0  0  0  0  0
    6.0515   -0.3031   -7.3427 C   0  0  0  0  0  0  0  0  0  0  0  0
    6.9395   -1.9596   -5.8283 C   0  0  0  0  0  0  0  0  0  0  0  0
    1.8535    1.4141   -1.6978 C   0  0  0  0  0  0  0  0  0  0  0  0
   -0.1000   -0.0277   -2.5886 C   0  0  2  0  0  0  0  0  0  0  0  0
   -0.6776    1.1164   -3.5217 C   0  0  2  0  0  0  0  0  0  0  0  0
    4.5078    1.9195   -7.9555 F   0  0  0  0  0  0  0  0  0  0  0  0
    6.8094   -1.4382   -7.1084 C   0  0  0  0  0  0  0  0  0  0  0  0
    7.8489   -3.3360   -5.5612 Cl  0  0  0  0  0  0  0  0  0  0  0  0
   -0.7197   -0.0627   -1.2154 C   0  0  0  0  0  0  0  0  0  0  0  0
   -0.3995   -1.3060   -3.1771 O   0  0  0  0  0  0  0  0  0  0  0  0
   -2.0005    0.7624   -4.2578 C   0  0  0  0  0  0  0  0  0  0  0  0
    7.3671   -1.9935   -8.0860 O   0  0  0  0  0  0  0  0  0  0  0  0
   -0.5923   -1.1959   -0.2730 C   0  0  2  0  0  0  0  0  0  0  0  0
   -1.4537    0.8757   -0.8217 O   0  0  0  0  0  0  0  0  0  0  0  0
   -0.0908   -0.7369    0.9774 O   0  0  0  0  0  0  0  0  0  0  0  0
    3.4210    1.7392   -4.0832 H   0  0  0  0  0  0  0  0  0  0  0  0
    1.3300   -0.3467   -4.7589 H   0  0  0  0  0  0  0  0  0  0  0  0
    4.4023   -1.7690   -2.7319 H   0  0  0  0  0  0  0  0  0  0  0  0
    2.6602    0.5052   -6.7615 H   0  0  0  0  0  0  0  0  0  0  0  0
    2.5482    2.2032   -6.2972 H   0  0  0  0  0  0  0  0  0  0  0  0
    5.7895    1.8800   -3.9637 H   0  0  0  0  0  0  0  0  0  0  0  0
    6.6718    0.6067   -3.1419 H   0  0  0  0  0  0  0  0  0  0  0  0
    7.2715    1.2280   -4.6654 H   0  0  0  0  0  0  0  0  0  0  0  0
    6.4630   -1.7406   -3.8829 H   0  0  0  0  0  0  0  0  0  0  0  0
    4.4500   -0.2869   -1.0869 H   0  0  0  0  0  0  0  0  0  0  0  0
    2.0271   -1.8942   -2.8870 H   0  0  0  0  0  0  0  0  0  0  0  0
    2.4156   -1.2422   -1.3148 H   0  0  0  0  0  0  0  0  0  0  0  0
    0.1824    1.5038   -5.5317 H   0  0  0  0  0  0  0  0  0  0  0  0
    0.8033    2.5662   -4.2652 H   0  0  0  0  0  0  0  0  0  0  0  0
    4.9726    2.3987   -6.1022 H   0  0  0  0  0  0  0  0  0  0  0  0
    5.9790    0.0137   -8.2828 H   0  0  0  0  0  0  0  0  0  0  0  0
    1.8101    1.0879   -0.6565 H   0  0  0  0  0  0  0  0  0  0  0  0
    1.1850    2.2675   -1.8005 H   0  0  0  0  0  0  0  0  0  0  0  0
    2.8517    1.7962   -1.8820 H   0  0  0  0  0  0  0  0  0  0  0  0
   -0.9081    2.0050   -2.9226 H   0  0  0  0  0  0  0  0  0  0  0  0
   -1.3668   -1.4314   -3.0779 H   0  0  0  0  0  0  0  0  0  0  0  0
   -1.8423   -0.0472   -4.9727 H   0  0  0  0  0  0  0  0  0  0  0  0
   -2.7617    0.4542   -3.5384 H   0  0  0  0  0  0  0  0  0  0  0  0
   -2.3753    1.6342   -4.7983 H   0  0  0  0  0  0  0  0  0  0  0  0
    0.0659   -1.9752   -0.6571 H   0  0  0  0  0  0  0  0  0  0  0  0
   -1.5791   -1.6329   -0.1075 H   0  0  0  0  0  0  0  0  0  0  0  0
   -0.1327   -1.5167    1.5683 H   0  0  0  0  0  0  0  0  0  0  0  0
  2  1  1  0  0  0  0 
  3  2  1  0  0  0  0 
  2  4  1  0  0  0  0 
  2  5  1  0  0  0  0 
  6  3  1  0  0  0  0 
  3  7  1  0  0  0  0 
  3 31  1  0  0  0  0 
  4  8  1  0  0  0  0 
  4  9  1  0  0  0  0 
  4 10  1  0  0  0  0 
  5 11  1  0  0  0  0 
  5 12  1  0  0  0  0 
 13  6  1  0  0  0  0 
  6 14  1  0  0  0  0 
  6 32  1  0  0  0  0 
 15  7  1  0  0  0  0 
 15  9  1  0  0  0  0 
  9 16  2  0  0  0  0 
 10 17  2  0  0  0  0 
 13 12  1  0  0  0  0 
 13 18  1  0  0  0  0 
 13 19  1  0  0  0  0 
 20 14  1  0  0  0  0 
 15 21  1  0  0  0  0 
 16 22  1  0  0  0  0 
 17 22  1  0  0  0  0 
 17 23  1  0  0  0  0 
 19 20  1  0  0  0  0 
 19 24  1  0  0  0  0 
 19 25  1  0  0  0  0 
 20 26  1  0  0  0  0 
 22 27  2  0  0  0  0 
 24 28  1  0  0  0  0 
 24 29  2  0  0  0  0 
 28 30  1  0  0  0  0 
  5 33  1  0  0  0  0 
  7 34  1  0  0  0  0 
  7 35  1  0  0  0  0 
  8 36  1  0  0  0  0 
  8 37  1  0  0  0  0 
  8 38  1  0  0  0  0 
 10 39  1  0  0  0  0 
 11 40  1  0  0  0  0 
 12 41  1  0  0  0  0 
 12 42  1  0  0  0  0 
 14 43  1  0  0  0  0 
 14 44  1  0  0  0  0 
 15 45  1  0  0  0  0 
 16 46  1  0  0  0  0 
 18 47  1  0  0  0  0 
 18 48  1  0  0  0  0 
 18 49  1  0  0  0  0 
 20 50  1  0  0  0  0 
 25 51  1  0  0  0  0 
 26 52  1  0  0  0  0 
 26 53  1  0  0  0  0 
 26 54  1  0  0  0  0 
 28 55  1  0  0  0  0 
 28 56  1  0  0  0  0 
 30 57  1  0  0  0  0 
M  END
> <cdk:Title>
halometasone

> <Conformer>
1

> <SuperDrugID>
SD001199

$$$$
