medibazine
  CDK     0628171801

 55 59  0  0  0  0  0  0  0  0999 V2000
    2.8154    1.2577   -8.8713 C   0  0  1  0  0  0  0  0  0  0  0  0
    1.7527    1.0246   -7.8188 N   0  0  1  0  0  0  0  0  0  0  0  0
    2.9457    2.6952   -9.2913 C   0  0  0  0  0  0  0  0  0  0  0  0
    4.1834    0.7564   -8.5032 C   0  0  0  0  0  0  0  0  0  0  0  0
    0.3883    1.4791   -8.2557 C   0  0  2  0  0  0  0  0  0  0  0  0
    1.6738   -0.3886   -7.3121 C   0  0  1  0  0  0  0  0  0  0  0  0
    3.1070    3.0317  -10.6584 C   0  0  0  0  0  0  0  0  0  0  0  0
    2.8956    3.7541   -8.3485 C   0  0  0  0  0  0  0  0  0  0  0  0
    4.8560    1.2182   -7.3433 C   0  0  0  0  0  0  0  0  0  0  0  0
    4.8406   -0.2078   -9.3100 C   0  0  0  0  0  0  0  0  0  0  0  0
   -0.6228    1.3876   -7.0946 C   0  0  2  0  0  0  0  0  0  0  0  0
    0.6165   -0.5531   -6.1879 C   0  0  2  0  0  0  0  0  0  0  0  0
    3.2142    4.3737  -11.0673 C   0  0  0  0  0  0  0  0  0  0  0  0
    2.9959    5.0967   -8.7574 C   0  0  0  0  0  0  0  0  0  0  0  0
    6.1411    0.7496   -7.0137 C   0  0  0  0  0  0  0  0  0  0  0  0
    6.1180   -0.6912   -8.9705 C   0  0  0  0  0  0  0  0  0  0  0  0
   -0.7253   -0.0113   -6.5722 N   0  0  1  0  0  0  0  0  0  0  0  0
    3.1573    5.4075  -10.1175 C   0  0  0  0  0  0  0  0  0  0  0  0
    6.7722   -0.2088   -7.8246 C   0  0  0  0  0  0  0  0  0  0  0  0
   -1.7279   -0.1590   -5.4665 C   0  0  2  0  0  0  0  0  0  0  0  0
   -3.1073    0.1812   -5.9065 C   0  0  0  0  0  0  0  0  0  0  0  0
   -3.7165    1.3936   -5.4960 C   0  0  0  0  0  0  0  0  0  0  0  0
   -3.8100   -0.6766   -6.7911 C   0  0  0  0  0  0  0  0  0  0  0  0
   -4.9961    1.7179   -5.9727 C   0  0  0  0  0  0  0  0  0  0  0  0
   -5.0988   -0.3392   -7.2545 C   0  0  0  0  0  0  0  0  0  0  0  0
   -5.6754    0.8699   -6.8326 C   0  0  0  0  0  0  0  0  0  0  0  0
   -5.7070    2.8285   -5.7051 O   0  0  0  0  0  0  0  0  0  0  0  0
   -6.8791    1.3735   -7.1675 O   0  0  0  0  0  0  0  0  0  0  0  0
   -6.7504    2.7281   -6.6916 C   0  0  1  0  0  0  0  0  0  0  0  0
    2.4691    0.6894   -9.7437 H   0  0  0  0  0  0  0  0  0  0  0  0
    0.0320    0.8777   -9.0988 H   0  0  0  0  0  0  0  0  0  0  0  0
    0.3953    2.5208   -8.5810 H   0  0  0  0  0  0  0  0  0  0  0  0
    1.4354   -1.0709   -8.1343 H   0  0  0  0  0  0  0  0  0  0  0  0
    2.6336   -0.6940   -6.8899 H   0  0  0  0  0  0  0  0  0  0  0  0
    3.1466    2.2991  -11.3704 H   0  0  0  0  0  0  0  0  0  0  0  0
    2.7704    3.5596   -7.3523 H   0  0  0  0  0  0  0  0  0  0  0  0
    4.4166    1.8989   -6.7218 H   0  0  0  0  0  0  0  0  0  0  0  0
    4.3947   -0.5713  -10.1560 H   0  0  0  0  0  0  0  0  0  0  0  0
   -1.5875    1.7214   -7.4831 H   0  0  0  0  0  0  0  0  0  0  0  0
   -0.3205    2.0743   -6.2973 H   0  0  0  0  0  0  0  0  0  0  0  0
    0.9826   -0.0533   -5.2845 H   0  0  0  0  0  0  0  0  0  0  0  0
    0.5254   -1.6206   -5.9673 H   0  0  0  0  0  0  0  0  0  0  0  0
    3.3360    4.5977  -12.0568 H   0  0  0  0  0  0  0  0  0  0  0  0
    2.9501    5.8468   -8.0640 H   0  0  0  0  0  0  0  0  0  0  0  0
    6.6172    1.1071   -6.1829 H   0  0  0  0  0  0  0  0  0  0  0  0
    6.5724   -1.3923   -9.5594 H   0  0  0  0  0  0  0  0  0  0  0  0
    3.2342    6.3826  -10.4140 H   0  0  0  0  0  0  0  0  0  0  0  0
    7.7038   -0.5542   -7.5815 H   0  0  0  0  0  0  0  0  0  0  0  0
   -1.4223    0.4641   -4.6190 H   0  0  0  0  0  0  0  0  0  0  0  0
   -1.7369   -1.1924   -5.1071 H   0  0  0  0  0  0  0  0  0  0  0  0
   -3.2325    2.0503   -4.8798 H   0  0  0  0  0  0  0  0  0  0  0  0
   -3.3848   -1.5509   -7.1068 H   0  0  0  0  0  0  0  0  0  0  0  0
   -5.6043   -0.9596   -7.8900 H   0  0  0  0  0  0  0  0  0  0  0  0
   -7.6940    3.0618   -6.2588 H   0  0  0  0  0  0  0  0  0  0  0  0
   -6.5145    3.3870   -7.5339 H   0  0  0  0  0  0  0  0  0  0  0  0
  1  2  1  0  0  0  0 
  1  3  1  0  0  0  0 
  1  4  1  0  0  0  0 
  2  5  1  0  0  0  0 
  2  6  1  0  0  0  0 
  3  7  2  0  0  0  0 
  3  8  1  0  0  0  0 
  4  9  2  0  0  0  0 
  4 10  1  0  0  0  0 
  5 11  1  0  0  0  0 
  6 12  1  0  0  0  0 
  7 13  1  0  0  0  0 
  8 14  2  0  0  0  0 
  9 15  1  0  0  0  0 
 10 16  2  0  0  0  0 
 11 17  1  0  0  0  0 
 12 17  1  0  0  0  0 
 13 18  2  0  0  0  0 
 14 18  1  0  0  0  0 
 15 19  2  0  0  0  0 
 16 19  1  0  0  0  0 
 17 20  1  0  0  0  0 
 20 21  1  0  0  0  0 
 21 22  2  0  0  0  0 
 21 23  1  0  0  0  0 
 22 24  1  0  0  0  0 
 23 25  2  0  0  0  0 
 24 26  2  0  0  0  0 
 24 27  1  0  0  0  0 
 25 26  1  0  0  0  0 
 26 28  1  0  0  0  0 
 27 29  1  0  0  0  0 
 28 29  1  0  0  0  0 
  1 30  1  0  0  0  0 
  5 31  1  0  0  0  0 
  5 32  1  0  0  0  0 
  6 33  1  0  0  0  0 
  6 34  1  0  0  0  0 
  7 35  1  0  0  0  0 
  8 36  1  0  0  0  0 
  9 37  1  0  0  0  0 
 10 38  1  0  0  0  0 
 11 39  1  0  0  0  0 
 11 40  1  0  0  0  0 
 12 41  1  0  0  0  0 
 12 42  1  0  0  0  0 
 13 43  1  0  0  0  0 
 14 44  1  0  0  0  0 
 15 45  1  0  0  0  0 
 16 46  1  0  0  0  0 
 18 47  1  0  0  0  0 
 19 48  1  0  0  0  0 
 20 49  1  0  0  0  0 
 20 50  1  0  0  0  0 
 22 51  1  0  0  0  0 
 23 52  1  0  0  0  0 
 25 53  1  0  0  0  0 
 29 54  1  0  0  0  0 
 29 55  1  0  0  0  0 
M  END
> <cdk:Title>
medibazine

> <Conformer>
1

> <SuperDrugID>
SD003217

$$$$
