metandienone
  CDK     0628171801

 50 53  0  0  0  0  0  0  0  0999 V2000
   -3.2040   -1.1342   -1.0634 C   0  0  0  0  0  0  0  0  0  0  0  0
   -2.5752   -0.4685    0.2151 C   0  0  1  0  0  0  0  0  0  0  0  0
   -3.6057   -0.2602    1.4115 C   0  0  2  0  0  0  0  0  0  0  0  0
   -1.4738   -1.3570    0.7143 C   0  0  0  0  0  0  0  0  0  0  0  0
   -2.0700    0.8454   -0.2538 C   0  0  0  0  0  0  0  0  0  0  0  0
   -4.0791   -1.6385    2.0246 C   0  0  2  0  0  0  0  0  0  0  0  0
   -4.8046    0.7162    1.1189 C   0  0  1  0  0  0  0  0  0  0  0  0
   -1.8262   -2.6553    1.3074 C   0  0  2  0  0  0  0  0  0  0  0  0
   -0.1789   -0.9671    0.6649 C   0  0  0  0  0  0  0  0  0  0  0  0
   -0.7680    1.1706   -0.2719 C   0  0  0  0  0  0  0  0  0  0  0  0
   -5.0916   -1.4001    3.1903 C   0  0  1  0  0  0  0  0  0  0  0  0
   -2.8367   -2.4722    2.4682 C   0  0  2  0  0  0  0  0  0  0  0  0
   -5.8572    0.8097    2.2683 C   0  0  1  0  0  0  0  0  0  0  0  0
    0.1868    0.2765    0.1733 C   0  0  0  0  0  0  0  0  0  0  0  0
   -6.3603   -0.5978    2.7518 C   0  0  1  0  0  0  0  0  0  0  0  0
   -5.6478   -2.6225    3.9571 C   0  0  1  0  0  0  0  0  0  0  0  0
    1.3959    0.6026    0.1444 O   0  0  0  0  0  0  0  0  0  0  0  0
   -7.1827   -1.2687    1.5793 C   0  0  0  0  0  0  0  0  0  0  0  0
   -7.2206   -0.6686    4.0791 C   0  0  1  0  0  0  0  0  0  0  0  0
   -6.9854   -2.1353    4.5715 C   0  0  2  0  0  0  0  0  0  0  0  0
   -6.8582    0.3578    5.2013 C   0  0  0  0  0  0  0  0  0  0  0  0
   -8.6235   -0.4729    3.8500 O   0  0  0  0  0  0  0  0  0  0  0  0
   -4.5877   -2.2290    1.2636 H   0  0  0  0  0  0  0  0  0  0  0  0
   -3.0437    0.2411    2.2115 H   0  0  0  0  0  0  0  0  0  0  0  0
   -4.5352   -0.8141    3.9349 H   0  0  0  0  0  0  0  0  0  0  0  0
   -3.9589   -0.4961   -1.5263 H   0  0  0  0  0  0  0  0  0  0  0  0
   -3.6842   -2.0867   -0.8456 H   0  0  0  0  0  0  0  0  0  0  0  0
   -2.4323   -1.3283   -1.8144 H   0  0  0  0  0  0  0  0  0  0  0  0
   -2.7118    1.5208   -0.6008 H   0  0  0  0  0  0  0  0  0  0  0  0
   -4.4174    1.7268    0.9679 H   0  0  0  0  0  0  0  0  0  0  0  0
   -5.3027    0.4330    0.1932 H   0  0  0  0  0  0  0  0  0  0  0  0
   -0.9576   -3.1934    1.6970 H   0  0  0  0  0  0  0  0  0  0  0  0
   -2.2632   -3.3041    0.5460 H   0  0  0  0  0  0  0  0  0  0  0  0
    0.5404   -1.5702    0.9949 H   0  0  0  0  0  0  0  0  0  0  0  0
   -0.4885    2.0610   -0.6172 H   0  0  0  0  0  0  0  0  0  0  0  0
   -3.1517   -3.4612    2.8087 H   0  0  0  0  0  0  0  0  0  0  0  0
   -2.3333   -1.9789    3.3056 H   0  0  0  0  0  0  0  0  0  0  0  0
   -5.3808    1.3485    3.0912 H   0  0  0  0  0  0  0  0  0  0  0  0
   -6.7011    1.4203    1.9351 H   0  0  0  0  0  0  0  0  0  0  0  0
   -5.8197   -3.4604    3.2759 H   0  0  0  0  0  0  0  0  0  0  0  0
   -4.9518   -2.9457    4.7383 H   0  0  0  0  0  0  0  0  0  0  0  0
   -6.6205   -1.3459    0.6521 H   0  0  0  0  0  0  0  0  0  0  0  0
   -7.5046   -2.2773    1.8347 H   0  0  0  0  0  0  0  0  0  0  0  0
   -8.0785   -0.6854    1.3586 H   0  0  0  0  0  0  0  0  0  0  0  0
   -6.9623   -2.2111    5.6624 H   0  0  0  0  0  0  0  0  0  0  0  0
   -7.7949   -2.7861    4.2283 H   0  0  0  0  0  0  0  0  0  0  0  0
   -7.0083    1.3803    4.8538 H   0  0  0  0  0  0  0  0  0  0  0  0
   -7.5076    0.2087    6.0675 H   0  0  0  0  0  0  0  0  0  0  0  0
   -5.8262    0.2499    5.5370 H   0  0  0  0  0  0  0  0  0  0  0  0
   -8.7051    0.4465    3.5226 H   0  0  0  0  0  0  0  0  0  0  0  0
  2  1  1  0  0  0  0 
  3  2  1  0  0  0  0 
  2  4  1  0  0  0  0 
  2  5  1  0  0  0  0 
  6  3  1  0  0  0  0 
  3  7  1  0  0  0  0 
  3 24  1  0  0  0  0 
  4  8  1  0  0  0  0 
  4  9  2  0  0  0  0 
  5 10  2  0  0  0  0 
 11  6  1  0  0  0  0 
  6 12  1  0  0  0  0 
  6 23  1  0  0  0  0 
  7 13  1  0  0  0  0 
  8 12  1  0  0  0  0 
  9 14  1  0  0  0  0 
 10 14  1  0  0  0  0 
 15 11  1  0  0  0  0 
 11 16  1  0  0  0  0 
 11 25  1  0  0  0  0 
 15 13  1  0  0  0  0 
 14 17  2  0  0  0  0 
 15 18  1  0  0  0  0 
 15 19  1  0  0  0  0 
 16 20  1  0  0  0  0 
 19 20  1  0  0  0  0 
 19 21  1  0  0  0  0 
 19 22  1  0  0  0  0 
  1 26  1  0  0  0  0 
  1 27  1  0  0  0  0 
  1 28  1  0  0  0  0 
  5 29  1  0  0  0  0 
  7 30  1  0  0  0  0 
  7 31  1  0  0  0  0 
  8 32  1  0  0  0  0 
  8 33  1  0  0  0  0 
  9 34  1  0  0  0  0 
 10 35  1  0  0  0  0 
 12 36  1  0  0  0  0 
 12 37  1  0  0  0  0 
 13 38  1  0  0  0  0 
 13 39  1  0  0  0  0 
 16 40  1  0  0  0  0 
 16 41  1  0  0  0  0 
 18 42  1  0  0  0  0 
 18 43  1  0  0  0  0 
 18 44  1  0  0  0  0 
 20 45  1  0  0  0  0 
 20 46  1  0  0  0  0 
 21 47  1  0  0  0  0 
 21 48  1  0  0  0  0 
 21 49  1  0  0  0  0 
 22 50  1  0  0  0  0 
M  END
> <cdk:Title>
metandienone

> <Conformer>
1

> <SuperDrugID>
SD001534

$$$$
