cargutocin
  CDK     0628171801

130131  0  0  0  0  0  0  0  0999 V2000
   -7.6536    1.0128   -2.1119 C   0  0  0  0  0  0  0  0  0  0  0  0
   -7.6655    1.9406   -1.1048 N   0  0  0  0  0  0  0  0  0  0  0  0
   -6.3461    1.1879    1.5287 N   0  0  0  0  0  0  0  0  0  0  0  0
   -3.4256    0.8216    2.3349 N   0  0  0  0  0  0  0  0  0  0  0  0
   -0.4940    0.1587    1.2513 N   0  0  0  0  0  0  0  0  0  0  0  0
   -1.1974   -1.9357   -0.8566 N   0  0  0  0  0  0  0  0  0  0  0  0
   -1.5078   -2.9709    1.9348 N   0  0  0  0  0  0  0  0  0  0  0  0
   -0.6167   -2.7130    5.3503 N   0  0  0  0  0  0  0  0  0  0  0  0
   -1.2108   -2.7251    8.7043 N   0  0  0  0  0  0  0  0  0  0  0  0
   -0.0619   -1.5705   11.7266 N   0  0  0  0  0  0  0  0  0  0  0  0
   -2.4469   -2.2394   -0.2146 C   0  0  2  0  0  0  0  0  0  0  0  0
   -2.2352   -3.2878    0.8229 C   0  0  0  0  0  0  0  0  0  0  0  0
   -2.7519   -4.4257    0.7106 O   0  0  0  0  0  0  0  0  0  0  0  0
   -8.7811    0.5940   -2.4605 O   0  0  0  0  0  0  0  0  0  0  0  0
   -6.4608    0.4737   -2.8257 C   0  0  1  0  0  0  0  0  0  0  0  0
   -6.2876   -1.0636   -2.6554 C   0  0  2  0  0  0  0  0  0  0  0  0
   -3.5032   -2.5954   -1.3137 C   0  0  1  0  0  0  0  0  0  0  0  0
   -4.9768   -1.6399   -3.2706 C   0  0  1  0  0  0  0  0  0  0  0  0
   -3.7097   -1.4720   -2.3765 C   0  0  2  0  0  0  0  0  0  0  0  0
   -2.8460   -1.3805    0.3237 H   0  0  0  0  0  0  0  0  0  0  0  0
   -5.7965    1.6252    0.3535 C   0  0  0  0  0  0  0  0  0  0  0  0
   -6.9524    3.8476    0.3222 C   0  0  1  0  0  0  0  0  0  0  0  0
   -7.7647    4.8402   -0.4339 C   0  0  0  0  0  0  0  0  0  0  0  0
   -9.1319    5.0346   -0.1226 C   0  0  0  0  0  0  0  0  0  0  0  0
   -9.9018    5.9788   -0.8227 C   0  0  0  0  0  0  0  0  0  0  0  0
   -9.3140    6.7430   -1.8492 C   0  0  0  0  0  0  0  0  0  0  0  0
  -10.0436    7.6548   -2.5399 O   0  0  0  0  0  0  0  0  0  0  0  0
   -7.9535    6.5650   -2.1622 C   0  0  0  0  0  0  0  0  0  0  0  0
   -7.1835    5.6196   -1.4611 C   0  0  0  0  0  0  0  0  0  0  0  0
   -6.5364    2.5885   -0.5013 C   0  0  2  0  0  0  0  0  0  0  0  0
   -4.6778    1.2338   -0.0488 O   0  0  0  0  0  0  0  0  0  0  0  0
   -4.5624    0.7575    3.0837 C   0  0  0  0  0  0  0  0  0  0  0  0
   -5.8489   -1.2249    1.8997 C   0  0  2  0  0  0  0  0  0  0  0  0
   -4.9507   -2.1992    2.7061 C   0  0  0  0  0  0  0  0  0  0  0  0
   -5.8298    0.2411    2.4769 C   0  0  2  0  0  0  0  0  0  0  0  0
   -8.3439   -1.0899    1.0037 C   0  0  0  0  0  0  0  0  0  0  0  0
   -7.2902   -1.8515    1.8382 C   0  0  2  0  0  0  0  0  0  0  0  0
   -4.5903    1.1557    4.2724 O   0  0  0  0  0  0  0  0  0  0  0  0
   -1.0809    0.5549    2.4177 C   0  0  0  0  0  0  0  0  0  0  0  0
   -2.0680    2.4744    3.7828 C   0  0  1  0  0  0  0  0  0  0  0  0
   -0.8294    3.4194    3.7365 C   0  0  1  0  0  0  0  0  0  0  0  0
   -0.5682    4.0832    5.0319 C   0  0  0  0  0  0  0  0  0  0  0  0
   -1.4589    4.9423    5.5622 N   0  0  0  0  0  0  0  0  0  0  0  0
    0.4893    3.8599    5.6653 O   0  0  0  0  0  0  0  0  0  0  0  0
   -2.1954    1.5300    2.5438 C   0  0  2  0  0  0  0  0  0  0  0  0
   -0.6078    0.0329    3.4532 O   0  0  0  0  0  0  0  0  0  0  0  0
   -0.5205   -0.7463   -0.8851 C   0  0  0  0  0  0  0  0  0  0  0  0
   -0.2141    1.8008   -0.5900 C   0  0  1  0  0  0  0  0  0  0  0  0
   -0.8162    2.3294   -1.8389 C   0  0  0  0  0  0  0  0  0  0  0  0
   -0.0911    2.5421   -2.9537 N   0  0  0  0  0  0  0  0  0  0  0  0
   -2.0354    2.6155   -1.8784 O   0  0  0  0  0  0  0  0  0  0  0  0
   -0.8780    0.4713   -0.0966 C   0  0  2  0  0  0  0  0  0  0  0  0
    0.4987   -0.7463   -1.6150 O   0  0  0  0  0  0  0  0  0  0  0  0
   -0.4171   -3.1369    4.0592 C   0  0  0  0  0  0  0  0  0  0  0  0
   -1.3029   -3.8124    3.0745 C   0  0  2  0  0  0  0  0  0  0  0  0
    0.7440   -2.8960    3.6538 O   0  0  0  0  0  0  0  0  0  0  0  0
   -1.2021   -3.3982    7.5202 C   0  0  0  0  0  0  0  0  0  0  0  0
   -5.4917   -3.9535    6.6003 C   0  0  0  0  0  0  0  0  0  0  0  0
   -3.1045   -3.2966    5.8977 C   0  0  2  0  0  0  0  0  0  0  0  0
   -1.7066   -2.7315    6.2930 C   0  0  2  0  0  0  0  0  0  0  0  0
   -4.7080   -1.5518    6.9874 C   0  0  0  0  0  0  0  0  0  0  0  0
   -4.2706   -3.0450    6.9190 C   0  0  1  0  0  0  0  0  0  0  0  0
   -0.7945   -4.5832    7.4546 O   0  0  0  0  0  0  0  0  0  0  0  0
   -1.0892   -2.1386   11.0126 C   0  0  0  0  0  0  0  0  0  0  0  0
   -0.7893   -3.2504    9.9660 C   0  0  2  0  0  0  0  0  0  0  0  0
   -2.2637   -1.7551   11.2158 O   0  0  0  0  0  0  0  0  0  0  0  0
   -8.5378    2.1788   -0.7511 H   0  0  0  0  0  0  0  0  0  0  0  0
   -7.2139    1.5546    1.7511 H   0  0  0  0  0  0  0  0  0  0  0  0
   -3.4757    0.3571    1.4875 H   0  0  0  0  0  0  0  0  0  0  0  0
    0.2750   -0.4265    1.3488 H   0  0  0  0  0  0  0  0  0  0  0  0
   -0.8014   -2.6637   -1.3610 H   0  0  0  0  0  0  0  0  0  0  0  0
   -1.1180   -2.0850    1.9665 H   0  0  0  0  0  0  0  0  0  0  0  0
    0.1731   -2.2871    5.7241 H   0  0  0  0  0  0  0  0  0  0  0  0
   -1.5393   -1.8117    8.6870 H   0  0  0  0  0  0  0  0  0  0  0  0
    0.8723   -1.8511   11.5910 H   0  0  0  0  0  0  0  0  0  0  0  0
   -0.2302   -0.8666   12.3943 H   0  0  0  0  0  0  0  0  0  0  0  0
   -6.5736    0.6963   -3.8905 H   0  0  0  0  0  0  0  0  0  0  0  0
   -5.5510    0.9683   -2.4965 H   0  0  0  0  0  0  0  0  0  0  0  0
   -7.1384   -1.5517   -3.1394 H   0  0  0  0  0  0  0  0  0  0  0  0
   -6.3209   -1.3254   -1.5985 H   0  0  0  0  0  0  0  0  0  0  0  0
   -3.1933   -3.5042   -1.8386 H   0  0  0  0  0  0  0  0  0  0  0  0
   -4.4584   -2.8085   -0.8252 H   0  0  0  0  0  0  0  0  0  0  0  0
   -5.1251   -2.7041   -3.4807 H   0  0  0  0  0  0  0  0  0  0  0  0
   -4.7978   -1.1526   -4.2344 H   0  0  0  0  0  0  0  0  0  0  0  0
   -2.8303   -1.4566   -3.0255 H   0  0  0  0  0  0  0  0  0  0  0  0
   -3.7446   -0.5049   -1.8771 H   0  0  0  0  0  0  0  0  0  0  0  0
   -6.0502    4.3494    0.6880 H   0  0  0  0  0  0  0  0  0  0  0  0
   -7.5082    3.5294    1.2094 H   0  0  0  0  0  0  0  0  0  0  0  0
   -9.5792    4.4934    0.6209 H   0  0  0  0  0  0  0  0  0  0  0  0
  -10.8872    6.1079   -0.5785 H   0  0  0  0  0  0  0  0  0  0  0  0
  -10.9223    7.6734   -2.1054 H   0  0  0  0  0  0  0  0  0  0  0  0
   -7.5218    7.1293   -2.8962 H   0  0  0  0  0  0  0  0  0  0  0  0
   -6.1950    5.5128   -1.6978 H   0  0  0  0  0  0  0  0  0  0  0  0
   -5.8813    2.9438   -1.3023 H   0  0  0  0  0  0  0  0  0  0  0  0
   -5.4441   -1.2018    0.8852 H   0  0  0  0  0  0  0  0  0  0  0  0
   -4.9622   -3.1974    2.2634 H   0  0  0  0  0  0  0  0  0  0  0  0
   -3.9193   -1.8528    2.7187 H   0  0  0  0  0  0  0  0  0  0  0  0
   -5.3122   -2.2665    3.7301 H   0  0  0  0  0  0  0  0  0  0  0  0
   -6.5678    0.2478    3.2864 H   0  0  0  0  0  0  0  0  0  0  0  0
   -9.2579   -1.6831    0.9195 H   0  0  0  0  0  0  0  0  0  0  0  0
   -7.9590   -0.9079    0.0043 H   0  0  0  0  0  0  0  0  0  0  0  0
   -8.6051   -0.1396    1.4711 H   0  0  0  0  0  0  0  0  0  0  0  0
   -7.6854   -1.9571    2.8525 H   0  0  0  0  0  0  0  0  0  0  0  0
   -7.2232   -2.8572    1.4124 H   0  0  0  0  0  0  0  0  0  0  0  0
   -2.0351    1.8702    4.6933 H   0  0  0  0  0  0  0  0  0  0  0  0
   -2.9606    3.1052    3.8282 H   0  0  0  0  0  0  0  0  0  0  0  0
    0.0604    2.8576    3.4435 H   0  0  0  0  0  0  0  0  0  0  0  0
   -0.9930    4.1902    2.9790 H   0  0  0  0  0  0  0  0  0  0  0  0
   -1.2838    5.3605    6.4216 H   0  0  0  0  0  0  0  0  0  0  0  0
   -2.2779    5.1477    5.0838 H   0  0  0  0  0  0  0  0  0  0  0  0
   -2.1490    2.2005    1.6870 H   0  0  0  0  0  0  0  0  0  0  0  0
    0.8621    1.6528   -0.7126 H   0  0  0  0  0  0  0  0  0  0  0  0
   -0.3293    2.5758    0.1705 H   0  0  0  0  0  0  0  0  0  0  0  0
    0.8588    2.3460   -2.9689 H   0  0  0  0  0  0  0  0  0  0  0  0
   -0.5218    2.8928   -3.7507 H   0  0  0  0  0  0  0  0  0  0  0  0
   -1.9589    0.6112   -0.1564 H   0  0  0  0  0  0  0  0  0  0  0  0
   -0.8186   -4.7372    2.7501 H   0  0  0  0  0  0  0  0  0  0  0  0
   -2.2661   -4.0806    3.4898 H   0  0  0  0  0  0  0  0  0  0  0  0
   -5.8467   -3.7878    5.5828 H   0  0  0  0  0  0  0  0  0  0  0  0
   -6.3123   -3.7532    7.2915 H   0  0  0  0  0  0  0  0  0  0  0  0
   -5.2170   -5.0049    6.7035 H   0  0  0  0  0  0  0  0  0  0  0  0
   -3.0053   -4.3728    5.7246 H   0  0  0  0  0  0  0  0  0  0  0  0
   -3.3891   -2.8293    4.9610 H   0  0  0  0  0  0  0  0  0  0  0  0
   -1.8507   -1.6711    6.5091 H   0  0  0  0  0  0  0  0  0  0  0  0
   -5.0393   -1.1994    6.0104 H   0  0  0  0  0  0  0  0  0  0  0  0
   -5.5287   -1.4257    7.6951 H   0  0  0  0  0  0  0  0  0  0  0  0
   -3.8880   -0.9187    7.3246 H   0  0  0  0  0  0  0  0  0  0  0  0
   -3.9279   -3.3301    7.9179 H   0  0  0  0  0  0  0  0  0  0  0  0
    0.2938   -3.5455    9.8339 H   0  0  0  0  0  0  0  0  0  0  0  0
   -1.3223   -4.2378   10.1144 H   0  0  0  0  0  0  0  0  0  0  0  0
  1  2  1  0  0  0  0 
 21  3  1  0  0  0  0 
 32  4  1  0  0  0  0 
 39  5  1  0  0  0  0 
 47  6  1  0  0  0  0 
 12  7  1  0  0  0  0 
 54  8  1  0  0  0  0 
 57  9  1  0  0  0  0 
  6 11  1  0  0  0  0 
 11 12  1  0  0  0  0 
 64 10  1  0  0  0  0 
 12 13  2  0  0  0  0 
  1 14  2  0  0  0  0 
  1 15  1  0  0  0  0 
 15 16  1  0  0  0  0 
 11 17  1  0  0  0  0 
 16 18  1  0  0  0  0 
 18 19  1  0  0  0  0 
 19 17  1  0  0  0  0 
 11 20  1  0  0  0  0 
 30  2  1  0  0  0  0 
 30 22  1  0  0  0  0 
 22 23  1  0  0  0  0 
 23 24  2  0  0  0  0 
 24 25  1  0  0  0  0 
 25 26  2  0  0  0  0 
 26 27  1  0  0  0  0 
 26 28  1  0  0  0  0 
 28 29  2  0  0  0  0 
 23 29  1  0  0  0  0 
 30 21  1  0  0  0  0 
 21 31  2  0  0  0  0 
 36 37  1  0  0  0  0 
 37 33  1  0  0  0  0 
 33 34  1  0  0  0  0 
 33 35  1  0  0  0  0 
 35  3  1  0  0  0  0 
 35 32  1  0  0  0  0 
 32 38  2  0  0  0  0 
 45  4  1  0  0  0  0 
 45 40  1  0  0  0  0 
 40 41  1  0  0  0  0 
 41 42  1  0  0  0  0 
 42 43  1  0  0  0  0 
 42 44  2  0  0  0  0 
 45 39  1  0  0  0  0 
 39 46  2  0  0  0  0 
 52  5  1  0  0  0  0 
 52 48  1  0  0  0  0 
 48 49  1  0  0  0  0 
 49 50  1  0  0  0  0 
 49 51  2  0  0  0  0 
 52 47  1  0  0  0  0 
 47 53  2  0  0  0  0 
  7 55  1  0  0  0  0 
 55 54  1  0  0  0  0 
 54 56  2  0  0  0  0 
 61 62  1  0  0  0  0 
 62 58  1  0  0  0  0 
 62 59  1  0  0  0  0 
 59 60  1  0  0  0  0 
 60  8  1  0  0  0  0 
 60 57  1  0  0  0  0 
 57 63  2  0  0  0  0 
  9 65  1  0  0  0  0 
 65 64  1  0  0  0  0 
 64 66  2  0  0  0  0 
  2 67  1  0  0  0  0 
  3 68  1  0  0  0  0 
  4 69  1  0  0  0  0 
  5 70  1  0  0  0  0 
  6 71  1  0  0  0  0 
  7 72  1  0  0  0  0 
  8 73  1  0  0  0  0 
  9 74  1  0  0  0  0 
 10 75  1  0  0  0  0 
 10 76  1  0  0  0  0 
 15 77  1  0  0  0  0 
 15 78  1  0  0  0  0 
 16 79  1  0  0  0  0 
 16 80  1  0  0  0  0 
 17 81  1  0  0  0  0 
 17 82  1  0  0  0  0 
 18 83  1  0  0  0  0 
 18 84  1  0  0  0  0 
 19 85  1  0  0  0  0 
 19 86  1  0  0  0  0 
 22 87  1  0  0  0  0 
 22 88  1  0  0  0  0 
 24 89  1  0  0  0  0 
 25 90  1  0  0  0  0 
 27 91  1  0  0  0  0 
 28 92  1  0  0  0  0 
 29 93  1  0  0  0  0 
 30 94  1  0  0  0  0 
 33 95  1  0  0  0  0 
 34 96  1  0  0  0  0 
 34 97  1  0  0  0  0 
 34 98  1  0  0  0  0 
 35 99  1  0  0  0  0 
 36100  1  0  0  0  0 
 36101  1  0  0  0  0 
 36102  1  0  0  0  0 
 37103  1  0  0  0  0 
 37104  1  0  0  0  0 
 40105  1  0  0  0  0 
 40106  1  0  0  0  0 
 41107  1  0  0  0  0 
 41108  1  0  0  0  0 
 43109  1  0  0  0  0 
 43110  1  0  0  0  0 
 45111  1  0  0  0  0 
 48112  1  0  0  0  0 
 48113  1  0  0  0  0 
 50114  1  0  0  0  0 
 50115  1  0  0  0  0 
 52116  1  0  0  0  0 
 55117  1  0  0  0  0 
 55118  1  0  0  0  0 
 58119  1  0  0  0  0 
 58120  1  0  0  0  0 
 58121  1  0  0  0  0 
 59122  1  0  0  0  0 
 59123  1  0  0  0  0 
 60124  1  0  0  0  0 
 61125  1  0  0  0  0 
 61126  1  0  0  0  0 
 61127  1  0  0  0  0 
 62128  1  0  0  0  0 
 65129  1  0  0  0  0 
 65130  1  0  0  0  0 
M  END
> <cdk:Title>
cargutocin

> <Conformer>
1

> <SuperDrugID>
SD002665

$$$$
