propenidazole
  CDK     0628171801

 32 32  0  0  0  0  0  0  0  0999 V2000
   -3.8410    3.0326   -0.2044 C   0  0  0  0  0  0  0  0  0  0  0  0
   -2.5203    2.9964    0.0999 C   0  0  0  0  0  0  0  0  0  0  0  0
   -4.7231    4.1080   -0.0759 C   0  0  0  0  0  0  0  0  0  0  0  0
   -1.7829    1.8145   -0.0387 C   0  0  0  0  0  0  0  0  0  0  0  0
   -1.8514    4.0992    0.6194 C   0  0  0  0  0  0  0  0  0  0  0  0
   -6.0797    4.0729    0.0689 N   0  0  0  0  0  0  0  0  0  0  0  0
   -4.3173    5.3881   -0.0845 N   0  0  0  0  0  0  0  0  0  0  0  0
   -2.4244    0.6040   -0.0338 O   0  0  0  0  0  0  0  0  0  0  0  0
   -0.5306    1.8355   -0.1358 O   0  0  0  0  0  0  0  0  0  0  0  0
   -1.2425    5.1419   -0.2308 C   0  0  0  0  0  0  0  0  0  0  0  0
   -1.7465    4.1972    1.8647 O   0  0  0  0  0  0  0  0  0  0  0  0
   -6.9190    2.9026    0.1372 C   0  0  0  0  0  0  0  0  0  0  0  0
   -6.5227    5.3562    0.1699 C   0  0  0  0  0  0  0  0  0  0  0  0
   -5.3909    6.1593    0.0687 C   0  0  0  0  0  0  0  0  0  0  0  0
   -1.8342   -0.6923   -0.1700 C   0  0  1  0  0  0  0  0  0  0  0  0
   -7.7622    5.8313    0.3387 N   0  0  0  0  0  0  0  0  0  0  0  0
   -2.9216   -1.7708   -0.0273 C   0  0  0  0  0  0  0  0  0  0  0  0
   -7.9902    7.0701    0.5152 O   0  0  0  0  0  0  0  0  0  0  0  0
   -8.7060    5.1473    0.3347 O   0  0  0  0  0  0  0  0  0  0  0  0
   -4.2485    2.1989   -0.5541 H   0  0  0  0  0  0  0  0  0  0  0  0
   -0.1617    5.1375   -0.0850 H   0  0  0  0  0  0  0  0  0  0  0  0
   -1.4535    4.9770   -1.2902 H   0  0  0  0  0  0  0  0  0  0  0  0
   -1.6310    6.1228    0.0518 H   0  0  0  0  0  0  0  0  0  0  0  0
   -7.4662    2.8900    1.0815 H   0  0  0  0  0  0  0  0  0  0  0  0
   -6.3667    1.9679    0.0843 H   0  0  0  0  0  0  0  0  0  0  0  0
   -7.6301    2.9081   -0.6912 H   0  0  0  0  0  0  0  0  0  0  0  0
   -5.3653    7.1801    0.1020 H   0  0  0  0  0  0  0  0  0  0  0  0
   -1.3653   -0.7732   -1.1525 H   0  0  0  0  0  0  0  0  0  0  0  0
   -1.0780   -0.8371    0.6041 H   0  0  0  0  0  0  0  0  0  0  0  0
   -2.4816   -2.7634   -0.1398 H   0  0  0  0  0  0  0  0  0  0  0  0
   -3.3888   -1.7048    0.9574 H   0  0  0  0  0  0  0  0  0  0  0  0
   -3.6841   -1.6320   -0.7965 H   0  0  0  0  0  0  0  0  0  0  0  0
  1  2  2  0  0  0  0 
  1  3  1  0  0  0  0 
  2  4  1  0  0  0  0 
  2  5  1  0  0  0  0 
  3  6  1  0  0  0  0 
  3  7  2  0  0  0  0 
  4  8  1  0  0  0  0 
  4  9  2  0  0  0  0 
  5 10  1  0  0  0  0 
  5 11  2  0  0  0  0 
  6 12  1  0  0  0  0 
  6 13  1  0  0  0  0 
  7 14  1  0  0  0  0 
  8 15  1  0  0  0  0 
 13 14  2  0  0  0  0 
 13 16  1  0  0  0  0 
 15 17  1  0  0  0  0 
 16 18  1  0  0  0  0 
 16 19  2  0  0  0  0 
  1 20  1  0  0  0  0 
 21 10  1  0  0  0  0 
 22 10  1  0  0  0  0 
 23 10  1  0  0  0  0 
 24 12  1  0  0  0  0 
 25 12  1  0  0  0  0 
 26 12  1  0  0  0  0 
 27 14  1  0  0  0  0 
 28 15  1  0  0  0  0 
 29 15  1  0  0  0  0 
 30 17  1  0  0  0  0 
 31 17  1  0  0  0  0 
 32 17  1  0  0  0  0 
M  CHG  1  16   1
M  CHG  1  18  -1
M  END
> <cdk:Title>
propenidazole

> <Conformer>
1

> <SuperDrugID>
SD003331

$$$$
