reboxetine
  CDK     0628171801

 46 48  0  0  0  0  0  0  0  0999 V2000
   -1.1418   -0.2040    0.9041 C   0  0  2  0  0  0  0  0  0  0  0  0
   -2.1995   -0.1414   -0.0857 O   0  0  0  0  0  0  0  0  0  0  0  0
    0.1227   -0.0957    0.1158 C   0  0  0  0  0  0  0  0  0  0  0  0
   -1.1759   -1.4936    1.7966 C   0  0  1  0  0  0  0  0  0  0  0  0
   -3.4846    0.0287    0.3513 C   0  0  0  0  0  0  0  0  0  0  0  0
    0.3876   -0.9935   -0.9485 C   0  0  0  0  0  0  0  0  0  0  0  0
    1.0988    0.8836    0.4233 C   0  0  0  0  0  0  0  0  0  0  0  0
    0.1383   -1.7439    2.6047 C   0  0  2  0  0  0  0  0  0  0  0  0
   -2.2855   -1.3664    2.7198 O   0  0  0  0  0  0  0  0  0  0  0  0
   -3.9990    1.3164    0.6323 C   0  0  0  0  0  0  0  0  0  0  0  0
   -4.3321   -1.0944    0.4467 C   0  0  0  0  0  0  0  0  0  0  0  0
    1.5813   -0.9107   -1.6864 C   0  0  0  0  0  0  0  0  0  0  0  0
    2.2998    0.9623   -0.3074 C   0  0  0  0  0  0  0  0  0  0  0  0
   -0.0261   -2.8668    3.5538 N   0  0  2  0  0  0  0  0  0  0  0  0
   -2.4586   -2.4724    3.6287 C   0  0  1  0  0  0  0  0  0  0  0  0
   -3.2076    2.4232    0.5017 O   0  0  0  0  0  0  0  0  0  0  0  0
   -5.3376    1.4612    1.0558 C   0  0  0  0  0  0  0  0  0  0  0  0
   -5.6720   -0.9424    0.8457 C   0  0  0  0  0  0  0  0  0  0  0  0
    2.5393    0.0670   -1.3650 C   0  0  0  0  0  0  0  0  0  0  0  0
   -1.1762   -2.6892    4.4626 C   0  0  1  0  0  0  0  0  0  0  0  0
   -3.4068    3.1139   -0.7497 C   0  0  1  0  0  0  0  0  0  0  0  0
   -6.1746    0.3349    1.1499 C   0  0  0  0  0  0  0  0  0  0  0  0
   -2.5162    4.3690   -0.7672 C   0  0  0  0  0  0  0  0  0  0  0  0
   -1.2214    0.6627    1.5696 H   0  0  0  0  0  0  0  0  0  0  0  0
   -1.3507   -2.3592    1.1487 H   0  0  0  0  0  0  0  0  0  0  0  0
   -0.2920   -1.7162   -1.1962 H   0  0  0  0  0  0  0  0  0  0  0  0
    0.9514    1.5453    1.1882 H   0  0  0  0  0  0  0  0  0  0  0  0
    0.4238   -0.8414    3.1510 H   0  0  0  0  0  0  0  0  0  0  0  0
    0.9533   -2.0102    1.9286 H   0  0  0  0  0  0  0  0  0  0  0  0
   -3.9742   -2.0258    0.2205 H   0  0  0  0  0  0  0  0  0  0  0  0
    1.7522   -1.5615   -2.4552 H   0  0  0  0  0  0  0  0  0  0  0  0
    2.9996    1.6692   -0.0699 H   0  0  0  0  0  0  0  0  0  0  0  0
    0.8179   -2.9095    4.1295 H   0  0  0  0  0  0  0  0  0  0  0  0
   -3.2877   -2.2393    4.2983 H   0  0  0  0  0  0  0  0  0  0  0  0
   -2.7113   -3.3843    3.0792 H   0  0  0  0  0  0  0  0  0  0  0  0
   -5.7082    2.3886    1.2805 H   0  0  0  0  0  0  0  0  0  0  0  0
   -6.2820   -1.7607    0.9122 H   0  0  0  0  0  0  0  0  0  0  0  0
    3.4100    0.1236   -1.8964 H   0  0  0  0  0  0  0  0  0  0  0  0
   -1.2821   -3.5816    5.0790 H   0  0  0  0  0  0  0  0  0  0  0  0
   -1.0031   -1.8337    5.1206 H   0  0  0  0  0  0  0  0  0  0  0  0
   -3.1360    2.4742   -1.5966 H   0  0  0  0  0  0  0  0  0  0  0  0
   -4.4483    3.4326   -0.8664 H   0  0  0  0  0  0  0  0  0  0  0  0
   -7.1496    0.4474    1.4352 H   0  0  0  0  0  0  0  0  0  0  0  0
   -1.4649    4.0825   -0.7022 H   0  0  0  0  0  0  0  0  0  0  0  0
   -2.6731    4.9294   -1.6909 H   0  0  0  0  0  0  0  0  0  0  0  0
   -2.7641    5.0126    0.0792 H   0  0  0  0  0  0  0  0  0  0  0  0
  1  2  1  0  0  0  0 
  1  3  1  0  0  0  0 
  4  1  1  0  0  0  0 
  1 24  1  0  0  0  0 
  2  5  1  0  0  0  0 
  3  6  2  0  0  0  0 
  3  7  1  0  0  0  0 
  4  8  1  0  0  0  0 
  4  9  1  0  0  0  0 
  4 25  1  0  0  0  0 
  5 10  2  0  0  0  0 
  5 11  1  0  0  0  0 
  6 12  1  0  0  0  0 
  7 13  2  0  0  0  0 
  8 14  1  0  0  0  0 
  9 15  1  0  0  0  0 
 10 16  1  0  0  0  0 
 10 17  1  0  0  0  0 
 11 18  2  0  0  0  0 
 12 19  2  0  0  0  0 
 13 19  1  0  0  0  0 
 14 20  1  0  0  0  0 
 15 20  1  0  0  0  0 
 16 21  1  0  0  0  0 
 17 22  2  0  0  0  0 
 18 22  1  0  0  0  0 
 21 23  1  0  0  0  0 
  6 26  1  0  0  0  0 
  7 27  1  0  0  0  0 
  8 28  1  0  0  0  0 
  8 29  1  0  0  0  0 
 11 30  1  0  0  0  0 
 12 31  1  0  0  0  0 
 13 32  1  0  0  0  0 
 14 33  1  0  0  0  0 
 15 34  1  0  0  0  0 
 15 35  1  0  0  0  0 
 17 36  1  0  0  0  0 
 18 37  1  0  0  0  0 
 19 38  1  0  0  0  0 
 20 39  1  0  0  0  0 
 20 40  1  0  0  0  0 
 21 41  1  0  0  0  0 
 21 42  1  0  0  0  0 
 22 43  1  0  0  0  0 
 23 44  1  0  0  0  0 
 23 45  1  0  0  0  0 
 23 46  1  0  0  0  0 
M  END
> <cdk:Title>
reboxetine

> <Conformer>
1

> <SuperDrugID>
SD002124

$$$$
