ramosetron
  CDK     0628171801

 38 41  0  0  0  0  0  0  0  0999 V2000
    0.0373    0.0259    0.0710 C   0  0  0  0  0  0  0  0  0  0  0  0
   -0.6576   -1.0109   -0.0504 O   0  0  0  0  0  0  0  0  0  0  0  0
   -0.6408    1.2670    0.2548 C   0  0  0  0  0  0  0  0  0  0  0  0
    1.5282   -0.1022   -0.0009 C   0  0  1  0  0  0  0  0  0  0  0  0
   -1.9729    1.4761    0.6281 C   0  0  0  0  0  0  0  0  0  0  0  0
   -0.1184    2.5565    0.0894 C   0  0  0  0  0  0  0  0  0  0  0  0
    2.2097    0.3437    1.3408 C   0  0  2  0  0  0  0  0  0  0  0  0
    2.0230   -1.5381   -0.4025 C   0  0  1  0  0  0  0  0  0  0  0  0
   -2.1869    2.8579    0.6885 C   0  0  0  0  0  0  0  0  0  0  0  0
   -3.0177    0.5762    0.9301 C   0  0  0  0  0  0  0  0  0  0  0  0
   -1.0496    3.5000    0.3503 N   0  0  0  0  0  0  0  0  0  0  0  0
    3.6467    0.0026    1.3765 C   0  0  0  0  0  0  0  0  0  0  0  0
    3.5689   -1.6335   -0.5546 C   0  0  2  0  0  0  0  0  0  0  0  0
   -3.4415    3.3777    1.0642 C   0  0  0  0  0  0  0  0  0  0  0  0
   -4.2795    1.0912    1.2891 C   0  0  0  0  0  0  0  0  0  0  0  0
   -0.8585    4.9187    0.2629 C   0  0  0  0  0  0  0  0  0  0  0  0
    4.2681   -0.8935    0.5126 C   0  0  0  0  0  0  0  0  0  0  0  0
    4.5911    0.4596    2.2060 N   0  0  0  0  0  0  0  0  0  0  0  0
   -4.4892    2.4840    1.3624 C   0  0  0  0  0  0  0  0  0  0  0  0
    5.5745   -0.9443    0.8182 N   0  0  0  0  0  0  0  0  0  0  0  0
    5.7542   -0.1106    1.8581 C   0  0  0  0  0  0  0  0  0  0  0  0
    1.8708    0.5703   -0.7950 H   0  0  0  0  0  0  0  0  0  0  0  0
    0.8412    2.7636   -0.1920 H   0  0  0  0  0  0  0  0  0  0  0  0
    1.7299   -0.1431    2.1937 H   0  0  0  0  0  0  0  0  0  0  0  0
    2.1122    1.4236    1.4709 H   0  0  0  0  0  0  0  0  0  0  0  0
    1.7040   -2.2509    0.3655 H   0  0  0  0  0  0  0  0  0  0  0  0
    1.5648   -1.8422   -1.3459 H   0  0  0  0  0  0  0  0  0  0  0  0
   -2.8802   -0.4353    0.8949 H   0  0  0  0  0  0  0  0  0  0  0  0
    3.8731   -1.2225   -1.5205 H   0  0  0  0  0  0  0  0  0  0  0  0
    3.8639   -2.6842   -0.5166 H   0  0  0  0  0  0  0  0  0  0  0  0
   -3.5947    4.3853    1.1266 H   0  0  0  0  0  0  0  0  0  0  0  0
   -5.0452    0.4476    1.5005 H   0  0  0  0  0  0  0  0  0  0  0  0
   -1.4593    5.3175   -0.5584 H   0  0  0  0  0  0  0  0  0  0  0  0
    0.1881    5.1751    0.0790 H   0  0  0  0  0  0  0  0  0  0  0  0
   -1.1657    5.4037    1.1929 H   0  0  0  0  0  0  0  0  0  0  0  0
    4.4592    1.0936    2.9275 H   0  0  0  0  0  0  0  0  0  0  0  0
   -5.4045    2.8438    1.6378 H   0  0  0  0  0  0  0  0  0  0  0  0
    6.6498    0.0644    2.3142 H   0  0  0  0  0  0  0  0  0  0  0  0
  1  2  2  0  0  0  0 
  1  3  1  0  0  0  0 
  3  5  1  0  0  0  0 
  3  6  2  0  0  0  0 
  4  1  1  0  0  0  0 
  4  7  1  0  0  0  0 
  4  8  1  0  0  0  0 
  5  9  1  0  0  0  0 
  5 10  2  0  0  0  0 
  6 11  1  0  0  0  0 
  7 12  1  0  0  0  0 
  8 13  1  0  0  0  0 
  9 11  1  0  0  0  0 
  9 14  2  0  0  0  0 
 10 15  1  0  0  0  0 
 11 16  1  0  0  0  0 
 12 17  2  0  0  0  0 
 12 18  1  0  0  0  0 
 13 17  1  0  0  0  0 
 14 19  1  0  0  0  0 
 15 19  2  0  0  0  0 
 17 20  1  0  0  0  0 
 18 21  1  0  0  0  0 
 20 21  2  0  0  0  0 
  4 22  1  0  0  0  0 
 23  6  1  0  0  0  0 
 24  7  1  0  0  0  0 
 25  7  1  0  0  0  0 
 26  8  1  0  0  0  0 
 27  8  1  0  0  0  0 
 28 10  1  0  0  0  0 
 29 13  1  0  0  0  0 
 30 13  1  0  0  0  0 
 31 14  1  0  0  0  0 
 32 15  1  0  0  0  0 
 33 16  1  0  0  0  0 
 34 16  1  0  0  0  0 
 35 16  1  0  0  0  0 
 36 18  1  0  0  0  0 
 37 19  1  0  0  0  0 
 38 21  1  0  0  0  0 
M  END
> <cdk:Title>
ramosetron

> <Conformer>
1

> <SuperDrugID>
SD002120

$$$$
