nicocodine
  CDK     0628171801

 54 59  0  0  0  0  0  0  0  0999 V2000
    0.9458   -0.6111   -0.4556 O   0  0  0  0  0  0  0  0  0  0  0  0
    1.7890   -1.5370    0.0888 C   0  0  0  0  0  0  0  0  0  0  0  0
   -0.4331   -0.3585   -0.1250 C   0  0  2  0  0  0  0  0  0  0  0  0
    1.3436   -2.3771    0.9072 O   0  0  0  0  0  0  0  0  0  0  0  0
    3.1514   -1.5660   -0.2977 C   0  0  0  0  0  0  0  0  0  0  0  0
   -1.3887   -0.9805   -1.2133 C   0  0  1  0  0  0  0  0  0  0  0  0
   -0.5124    1.0805    0.0900 C   0  0  0  0  0  0  0  0  0  0  0  0
    3.7994   -0.4197   -0.8226 C   0  0  0  0  0  0  0  0  0  0  0  0
    3.9237   -2.7456   -0.1634 C   0  0  0  0  0  0  0  0  0  0  0  0
   -2.3175    0.0574   -1.9172 C   0  0  2  0  0  0  0  0  0  0  0  0
   -0.6588   -1.6473   -2.2831 O   0  0  0  0  0  0  0  0  0  0  0  0
   -1.4803    1.8770   -0.3860 C   0  0  0  0  0  0  0  0  0  0  0  0
    5.1558   -0.4692   -1.1942 C   0  0  0  0  0  0  0  0  0  0  0  0
    5.2282   -2.7646   -0.5394 N   0  0  0  0  0  0  0  0  0  0  0  0
   -1.4343    0.3421   -3.0466 C   0  0  0  0  0  0  0  0  0  0  0  0
   -2.6230    1.3748   -1.1344 C   0  0  1  0  0  0  0  0  0  0  0  0
   -3.6725   -0.5515   -2.4137 C   0  0  1  0  0  0  0  0  0  0  0  0
   -0.5566   -0.7066   -3.2592 C   0  0  0  0  0  0  0  0  0  0  0  0
    5.8592   -1.6767   -1.0482 C   0  0  0  0  0  0  0  0  0  0  0  0
   -1.4042    1.5299   -3.8000 C   0  0  0  0  0  0  0  0  0  0  0  0
   -3.2335    2.3764   -2.1868 C   0  0  1  0  0  0  0  0  0  0  0  0
   -4.4742    0.4474   -3.2970 C   0  0  1  0  0  0  0  0  0  0  0  0
    0.3058   -0.6834   -4.3721 C   0  0  0  0  0  0  0  0  0  0  0  0
   -2.2381    2.6858   -3.3655 C   0  0  2  0  0  0  0  0  0  0  0  0
   -0.5159    1.5760   -4.8981 C   0  0  0  0  0  0  0  0  0  0  0  0
   -4.5348    1.8392   -2.7342 N   0  0  1  0  0  0  0  0  0  0  0  0
    1.1134   -1.7511   -4.6517 O   0  0  0  0  0  0  0  0  0  0  0  0
    0.3218    0.4741   -5.1878 C   0  0  0  0  0  0  0  0  0  0  0  0
   -5.7400    2.1108   -1.8962 C   0  0  0  0  0  0  0  0  0  0  0  0
    0.4621   -2.7163   -5.5013 C   0  0  0  0  0  0  0  0  0  0  0  0
   -3.3792    1.1658   -0.3709 H   0  0  0  0  0  0  0  0  0  0  0  0
   -2.0033   -1.7445   -0.7272 H   0  0  0  0  0  0  0  0  0  0  0  0
   -3.4314    3.3311   -1.6876 H   0  0  0  0  0  0  0  0  0  0  0  0
   -0.6817   -0.8140    0.8399 H   0  0  0  0  0  0  0  0  0  0  0  0
    0.2067    1.5033    0.6315 H   0  0  0  0  0  0  0  0  0  0  0  0
    3.3015    0.4697   -0.9256 H   0  0  0  0  0  0  0  0  0  0  0  0
    3.5126   -3.6071    0.2087 H   0  0  0  0  0  0  0  0  0  0  0  0
   -1.4331    2.8486   -0.1802 H   0  0  0  0  0  0  0  0  0  0  0  0
    5.6243    0.3626   -1.5626 H   0  0  0  0  0  0  0  0  0  0  0  0
   -3.4970   -1.4719   -2.9804 H   0  0  0  0  0  0  0  0  0  0  0  0
   -4.2772   -0.8158   -1.5414 H   0  0  0  0  0  0  0  0  0  0  0  0
    6.8403   -1.7414   -1.3251 H   0  0  0  0  0  0  0  0  0  0  0  0
   -3.9996    0.5006   -4.2791 H   0  0  0  0  0  0  0  0  0  0  0  0
   -5.4743    0.0436   -3.4779 H   0  0  0  0  0  0  0  0  0  0  0  0
   -2.7975    3.0746   -4.2201 H   0  0  0  0  0  0  0  0  0  0  0  0
   -1.5478    3.4709   -3.0435 H   0  0  0  0  0  0  0  0  0  0  0  0
   -0.4717    2.4118   -5.4848 H   0  0  0  0  0  0  0  0  0  0  0  0
    0.9503    0.5174   -5.9927 H   0  0  0  0  0  0  0  0  0  0  0  0
   -6.6527    1.8710   -2.4480 H   0  0  0  0  0  0  0  0  0  0  0  0
   -5.7276    1.5257   -0.9737 H   0  0  0  0  0  0  0  0  0  0  0  0
   -5.7929    3.1711   -1.6400 H   0  0  0  0  0  0  0  0  0  0  0  0
    1.1645   -3.5254   -5.7009 H   0  0  0  0  0  0  0  0  0  0  0  0
   -0.4194   -3.1448   -5.0159 H   0  0  0  0  0  0  0  0  0  0  0  0
    0.1711   -2.2769   -6.4599 H   0  0  0  0  0  0  0  0  0  0  0  0
  1  2  1  0  0  0  0 
  2  4  2  0  0  0  0 
  2  5  1  0  0  0  0 
  3  1  1  0  0  0  0 
  6  3  1  0  0  0  0 
  3  7  1  0  0  0  0 
  5  8  2  0  0  0  0 
  5  9  1  0  0  0  0 
 10  6  1  0  0  0  0 
  6 11  1  0  0  0  0 
  6 32  1  0  0  0  0 
  7 12  2  0  0  0  0 
  8 13  1  0  0  0  0 
  9 14  2  0  0  0  0 
 10 15  1  0  0  0  0 
 10 16  1  0  0  0  0 
 10 17  1  0  0  0  0 
 11 18  1  0  0  0  0 
 16 12  1  0  0  0  0 
 13 19  2  0  0  0  0 
 14 19  1  0  0  0  0 
 15 18  2  0  0  0  0 
 15 20  1  0  0  0  0 
 16 21  1  0  0  0  0 
 16 31  1  0  0  0  0 
 17 22  1  0  0  0  0 
 18 23  1  0  0  0  0 
 20 24  1  0  0  0  0 
 20 25  2  0  0  0  0 
 21 24  1  0  0  0  0 
 21 26  1  0  0  0  0 
 21 33  1  0  0  0  0 
 22 26  1  0  0  0  0 
 23 27  1  0  0  0  0 
 23 28  2  0  0  0  0 
 25 28  1  0  0  0  0 
 26 29  1  0  0  0  0 
 27 30  1  0  0  0  0 
  3 34  1  0  0  0  0 
  7 35  1  0  0  0  0 
  8 36  1  0  0  0  0 
  9 37  1  0  0  0  0 
 12 38  1  0  0  0  0 
 13 39  1  0  0  0  0 
 17 40  1  0  0  0  0 
 17 41  1  0  0  0  0 
 19 42  1  0  0  0  0 
 22 43  1  0  0  0  0 
 22 44  1  0  0  0  0 
 24 45  1  0  0  0  0 
 24 46  1  0  0  0  0 
 25 47  1  0  0  0  0 
 28 48  1  0  0  0  0 
 29 49  1  0  0  0  0 
 29 50  1  0  0  0  0 
 29 51  1  0  0  0  0 
 30 52  1  0  0  0  0 
 30 53  1  0  0  0  0 
 30 54  1  0  0  0  0 
M  END
> <cdk:Title>
nicocodine

> <Conformer>
1

> <SuperDrugID>
SD001709

$$$$
