celiprolol
  CDK     0628171802

 60 60  0  0  0  0  0  0  0  0999 V2000
    3.2111   -2.0064   -1.3570 O   0  0  0  0  0  0  0  0  0  0  0  0
    4.2191   -1.0923   -0.8730 C   0  0  1  0  0  0  0  0  0  0  0  0
    2.1205   -2.1055   -0.5286 C   0  0  0  0  0  0  0  0  0  0  0  0
    5.3277   -0.9160   -1.9403 C   0  0  2  0  0  0  0  0  0  0  0  0
    0.9865   -1.2526   -0.6577 C   0  0  0  0  0  0  0  0  0  0  0  0
    2.1605   -3.0976    0.4717 C   0  0  0  0  0  0  0  0  0  0  0  0
    6.0565   -2.2430   -2.2852 C   0  0  2  0  0  0  0  0  0  0  0  0
    6.2638    0.0535   -1.4662 O   0  0  0  0  0  0  0  0  0  0  0  0
    0.9011   -0.2498   -1.6835 C   0  0  0  0  0  0  0  0  0  0  0  0
   -0.0674   -1.4229    0.2793 C   0  0  0  0  0  0  0  0  0  0  0  0
    1.0956   -3.2472    1.3763 C   0  0  0  0  0  0  0  0  0  0  0  0
    7.3121   -1.9533   -3.0197 N   0  0  1  0  0  0  0  0  0  0  0  0
   -0.1052    0.8371   -1.6893 C   0  0  0  0  0  0  0  0  0  0  0  0
    1.6999   -0.2540   -2.6501 O   0  0  0  0  0  0  0  0  0  0  0  0
   -0.0359   -2.4151    1.2859 C   0  0  0  0  0  0  0  0  0  0  0  0
    8.2557   -3.0481   -3.3940 C   0  0  2  0  0  0  0  0  0  0  0  0
   -1.0379   -2.5833    2.2029 N   0  0  0  0  0  0  0  0  0  0  0  0
    7.7005   -3.8522   -4.6080 C   0  0  0  0  0  0  0  0  0  0  0  0
    8.5789   -4.0141   -2.2102 C   0  0  0  0  0  0  0  0  0  0  0  0
    9.5626   -2.3059   -3.8091 C   0  0  0  0  0  0  0  0  0  0  0  0
   -2.3904   -2.4552    2.0014 C   0  0  0  0  0  0  0  0  0  0  0  0
   -3.3098   -2.5404    3.0393 N   0  0  0  0  0  0  0  0  0  0  0  0
   -2.8068   -2.2709    0.8311 O   0  0  0  0  0  0  0  0  0  0  0  0
   -2.8901   -2.8019    4.4056 C   0  0  2  0  0  0  0  0  0  0  0  0
   -4.7319   -2.3747    2.7789 C   0  0  2  0  0  0  0  0  0  0  0  0
   -2.5076   -1.5122    5.1641 C   0  0  0  0  0  0  0  0  0  0  0  0
   -5.3596   -3.6476    2.1717 C   0  0  0  0  0  0  0  0  0  0  0  0
    3.7876   -0.1062   -0.6642 H   0  0  0  0  0  0  0  0  0  0  0  0
    4.6691   -1.4755    0.0487 H   0  0  0  0  0  0  0  0  0  0  0  0
    4.8756   -0.5139   -2.8512 H   0  0  0  0  0  0  0  0  0  0  0  0
    2.9772   -3.7101    0.5487 H   0  0  0  0  0  0  0  0  0  0  0  0
    5.4021   -2.8633   -2.9013 H   0  0  0  0  0  0  0  0  0  0  0  0
    6.2751   -2.7783   -1.3591 H   0  0  0  0  0  0  0  0  0  0  0  0
    5.7474    0.8840   -1.3796 H   0  0  0  0  0  0  0  0  0  0  0  0
   -0.8801   -0.8060    0.2492 H   0  0  0  0  0  0  0  0  0  0  0  0
    1.1484   -3.9687    2.1026 H   0  0  0  0  0  0  0  0  0  0  0  0
    7.0577   -1.4607   -3.8804 H   0  0  0  0  0  0  0  0  0  0  0  0
    0.0714    1.5489   -2.4996 H   0  0  0  0  0  0  0  0  0  0  0  0
   -1.1033    0.4147   -1.8233 H   0  0  0  0  0  0  0  0  0  0  0  0
   -0.0612    1.3846   -0.7448 H   0  0  0  0  0  0  0  0  0  0  0  0
   -0.7541   -2.8370    3.0929 H   0  0  0  0  0  0  0  0  0  0  0  0
    7.5080   -3.1908   -5.4558 H   0  0  0  0  0  0  0  0  0  0  0  0
    6.7658   -4.3512   -4.3469 H   0  0  0  0  0  0  0  0  0  0  0  0
    8.4154   -4.6159   -4.9247 H   0  0  0  0  0  0  0  0  0  0  0  0
    7.7101   -4.6267   -1.9611 H   0  0  0  0  0  0  0  0  0  0  0  0
    9.3977   -4.6899   -2.4697 H   0  0  0  0  0  0  0  0  0  0  0  0
    8.8694   -3.4502   -1.3210 H   0  0  0  0  0  0  0  0  0  0  0  0
   10.3357   -3.0130   -4.1183 H   0  0  0  0  0  0  0  0  0  0  0  0
    9.3736   -1.6227   -4.6408 H   0  0  0  0  0  0  0  0  0  0  0  0
    9.9537   -1.7178   -2.9743 H   0  0  0  0  0  0  0  0  0  0  0  0
   -2.0477   -3.4977    4.4419 H   0  0  0  0  0  0  0  0  0  0  0  0
   -3.6904   -3.2928    4.9666 H   0  0  0  0  0  0  0  0  0  0  0  0
   -4.9041   -1.5295    2.1076 H   0  0  0  0  0  0  0  0  0  0  0  0
   -5.2780   -2.1325    3.6949 H   0  0  0  0  0  0  0  0  0  0  0  0
   -2.2714   -1.8026    6.2362 H   0  0  0  0  0  0  0  0  0  0  0  0
   -1.7116   -0.9647    4.5704 H   0  0  0  0  0  0  0  0  0  0  0  0
   -3.3758   -0.8513    5.2055 H   0  0  0  0  0  0  0  0  0  0  0  0
   -6.4478   -3.5862    2.2267 H   0  0  0  0  0  0  0  0  0  0  0  0
   -5.0348   -4.5287    2.7270 H   0  0  0  0  0  0  0  0  0  0  0  0
   -5.0669   -3.7591    1.1251 H   0  0  0  0  0  0  0  0  0  0  0  0
  1  2  1  0  0  0  0 
  1  3  1  0  0  0  0 
  4  2  1  0  0  0  0 
  3  5  2  0  0  0  0 
  3  6  1  0  0  0  0 
  4  7  1  0  0  0  0 
  4  8  1  0  0  0  0 
  5  9  1  0  0  0  0 
  5 10  1  0  0  0  0 
  6 11  2  0  0  0  0 
  7 12  1  0  0  0  0 
  9 13  1  0  0  0  0 
  9 14  2  0  0  0  0 
 10 15  2  0  0  0  0 
 11 15  1  0  0  0  0 
 12 16  1  0  0  0  0 
 15 17  1  0  0  0  0 
 16 18  1  0  0  0  0 
 16 19  1  0  0  0  0 
 16 20  1  0  0  0  0 
 17 21  1  0  0  0  0 
 21 22  1  0  0  0  0 
 21 23  2  0  0  0  0 
 22 24  1  0  0  0  0 
 22 25  1  0  0  0  0 
 24 26  1  0  0  0  0 
 25 27  1  0  0  0  0 
 28  2  1  0  0  0  0 
 29  2  1  0  0  0  0 
 30  4  1  0  0  0  0 
 31  6  1  0  0  0  0 
 32  7  1  0  0  0  0 
 33  7  1  0  0  0  0 
 34  8  1  0  0  0  0 
 35 10  1  0  0  0  0 
 36 11  1  0  0  0  0 
 37 12  1  0  0  0  0 
 38 13  1  0  0  0  0 
 39 13  1  0  0  0  0 
 40 13  1  0  0  0  0 
 41 17  1  0  0  0  0 
 42 18  1  0  0  0  0 
 43 18  1  0  0  0  0 
 44 18  1  0  0  0  0 
 45 19  1  0  0  0  0 
 46 19  1  0  0  0  0 
 47 19  1  0  0  0  0 
 48 20  1  0  0  0  0 
 49 20  1  0  0  0  0 
 50 20  1  0  0  0  0 
 51 24  1  0  0  0  0 
 52 24  1  0  0  0  0 
 53 25  1  0  0  0  0 
 54 25  1  0  0  0  0 
 55 26  1  0  0  0  0 
 56 26  1  0  0  0  0 
 57 26  1  0  0  0  0 
 58 27  1  0  0  0  0 
 59 27  1  0  0  0  0 
 60 27  1  0  0  0  0 
M  END
> <cdk:Title>
celiprolol

> <Conformer>
1

> <SuperDrugID>
SD000496

$$$$
