tofisopam
  CDK     0628171801

 54 56  0  0  0  0  0  0  0  0999 V2000
    5.0169    1.6691    4.4053 C   0  0  1  0  0  0  0  0  0  0  0  0
    4.8331    2.7993    5.4470 C   0  0  0  0  0  0  0  0  0  0  0  0
    5.3529    0.2718    5.0264 C   0  0  2  0  0  0  0  0  0  0  0  0
    5.6898   -0.7705    3.9942 C   0  0  0  0  0  0  0  0  0  0  0  0
    4.2882   -0.2531    5.8959 C   0  0  0  0  0  0  0  0  0  0  0  0
    4.7016   -1.3291    3.1224 C   0  0  0  0  0  0  0  0  0  0  0  0
    7.0250   -1.2436    3.9152 C   0  0  0  0  0  0  0  0  0  0  0  0
    4.4989   -0.3897    7.3264 C   0  0  0  0  0  0  0  0  0  0  0  0
    3.1433   -0.6178    5.4261 N   0  0  0  0  0  0  0  0  0  0  0  0
    3.3507   -0.9101    3.1380 C   0  0  0  0  0  0  0  0  0  0  0  0
    5.0887   -2.3781    2.2491 C   0  0  0  0  0  0  0  0  0  0  0  0
    7.3946   -2.2666    3.0248 C   0  0  0  0  0  0  0  0  0  0  0  0
    2.7464   -0.6265    4.2458 N   0  0  0  0  0  0  0  0  0  0  0  0
    2.5884   -0.7366    1.9643 C   0  0  0  0  0  0  0  0  0  0  0  0
    6.4095   -2.8585    2.2119 C   0  0  0  0  0  0  0  0  0  0  0  0
    8.6866   -2.7277    2.9951 O   0  0  0  0  0  0  0  0  0  0  0  0
    3.1800   -0.2240    0.7803 C   0  0  0  0  0  0  0  0  0  0  0  0
    1.1994   -1.0264    1.9243 C   0  0  0  0  0  0  0  0  0  0  0  0
    6.7290   -3.9007    1.3847 O   0  0  0  0  0  0  0  0  0  0  0  0
    9.5436   -1.9808    2.1124 C   0  0  0  0  0  0  0  0  0  0  0  0
    2.4268   -0.0188   -0.3944 C   0  0  0  0  0  0  0  0  0  0  0  0
    0.4375   -0.8069    0.7610 C   0  0  0  0  0  0  0  0  0  0  0  0
    6.5976   -5.1773    2.0339 C   0  0  0  0  0  0  0  0  0  0  0  0
    3.0453    0.4509   -1.5236 O   0  0  0  0  0  0  0  0  0  0  0  0
    1.0479   -0.3147   -0.4068 C   0  0  0  0  0  0  0  0  0  0  0  0
    3.1097    1.8861   -1.5837 C   0  0  0  0  0  0  0  0  0  0  0  0
    0.3037   -0.0586   -1.5282 O   0  0  0  0  0  0  0  0  0  0  0  0
    0.0527   -1.2131   -2.3474 C   0  0  0  0  0  0  0  0  0  0  0  0
    4.1089    1.6264    3.8017 H   0  0  0  0  0  0  0  0  0  0  0  0
    5.8325    1.9631    3.7403 H   0  0  0  0  0  0  0  0  0  0  0  0
    4.6275    3.7402    4.9320 H   0  0  0  0  0  0  0  0  0  0  0  0
    5.7386    2.9195    6.0462 H   0  0  0  0  0  0  0  0  0  0  0  0
    3.9939    2.5833    6.1106 H   0  0  0  0  0  0  0  0  0  0  0  0
    6.2399    0.4500    5.6462 H   0  0  0  0  0  0  0  0  0  0  0  0
    7.7519   -0.8586    4.5231 H   0  0  0  0  0  0  0  0  0  0  0  0
    4.9525    0.5152    7.7339 H   0  0  0  0  0  0  0  0  0  0  0  0
    3.5663   -0.5710    7.8665 H   0  0  0  0  0  0  0  0  0  0  0  0
    5.1716   -1.2292    7.5072 H   0  0  0  0  0  0  0  0  0  0  0  0
    4.4001   -2.8229    1.6362 H   0  0  0  0  0  0  0  0  0  0  0  0
    4.1733    0.0250    0.7648 H   0  0  0  0  0  0  0  0  0  0  0  0
    0.7212   -1.3984    2.7482 H   0  0  0  0  0  0  0  0  0  0  0  0
   10.5253   -2.4547    2.1078 H   0  0  0  0  0  0  0  0  0  0  0  0
    9.1660   -1.9800    1.0867 H   0  0  0  0  0  0  0  0  0  0  0  0
    9.6682   -0.9515    2.4574 H   0  0  0  0  0  0  0  0  0  0  0  0
   -0.5676   -0.9987    0.7673 H   0  0  0  0  0  0  0  0  0  0  0  0
    6.8735   -5.9432    1.3107 H   0  0  0  0  0  0  0  0  0  0  0  0
    7.2680   -5.2626    2.8946 H   0  0  0  0  0  0  0  0  0  0  0  0
    5.5682   -5.3622    2.3556 H   0  0  0  0  0  0  0  0  0  0  0  0
    3.6340    2.1660   -2.4978 H   0  0  0  0  0  0  0  0  0  0  0  0
    2.1106    2.3278   -1.6202 H   0  0  0  0  0  0  0  0  0  0  0  0
    3.6612    2.3003   -0.7354 H   0  0  0  0  0  0  0  0  0  0  0  0
   -0.4396   -0.8651   -3.2561 H   0  0  0  0  0  0  0  0  0  0  0  0
    0.9774   -1.7215   -2.6354 H   0  0  0  0  0  0  0  0  0  0  0  0
   -0.6152   -1.9203   -1.8473 H   0  0  0  0  0  0  0  0  0  0  0  0
  1  2  1  0  0  0  0 
  3  1  1  0  0  0  0 
  3  4  1  0  0  0  0 
  3  5  1  0  0  0  0 
  4  6  2  0  0  0  0 
  4  7  1  0  0  0  0 
  5  8  1  0  0  0  0 
  5  9  2  0  0  0  0 
  6 10  1  0  0  0  0 
  6 11  1  0  0  0  0 
  7 12  2  0  0  0  0 
  9 13  1  0  0  0  0 
 10 13  2  0  0  0  0 
 10 14  1  0  0  0  0 
 11 15  2  0  0  0  0 
 12 15  1  0  0  0  0 
 12 16  1  0  0  0  0 
 14 17  2  0  0  0  0 
 14 18  1  0  0  0  0 
 15 19  1  0  0  0  0 
 16 20  1  0  0  0  0 
 17 21  1  0  0  0  0 
 18 22  2  0  0  0  0 
 19 23  1  0  0  0  0 
 21 24  1  0  0  0  0 
 21 25  2  0  0  0  0 
 22 25  1  0  0  0  0 
 24 26  1  0  0  0  0 
 25 27  1  0  0  0  0 
 27 28  1  0  0  0  0 
 29  1  1  0  0  0  0 
 30  1  1  0  0  0  0 
 31  2  1  0  0  0  0 
 32  2  1  0  0  0  0 
 33  2  1  0  0  0  0 
 34  3  1  0  0  0  0 
 35  7  1  0  0  0  0 
 36  8  1  0  0  0  0 
 37  8  1  0  0  0  0 
 38  8  1  0  0  0  0 
 39 11  1  0  0  0  0 
 40 17  1  0  0  0  0 
 41 18  1  0  0  0  0 
 42 20  1  0  0  0  0 
 43 20  1  0  0  0  0 
 44 20  1  0  0  0  0 
 45 22  1  0  0  0  0 
 46 23  1  0  0  0  0 
 47 23  1  0  0  0  0 
 48 23  1  0  0  0  0 
 49 26  1  0  0  0  0 
 50 26  1  0  0  0  0 
 51 26  1  0  0  0  0 
 52 28  1  0  0  0  0 
 53 28  1  0  0  0  0 
 54 28  1  0  0  0  0 
M  END
> <cdk:Title>
tofisopam

> <Conformer>
1

> <SuperDrugID>
SD002424

$$$$
