scopolamine
  CDK     0628171801

 43 46  0  0  0  0  0  0  0  0999 V2000
   -0.9175    1.2975    1.0492 C   0  0  0  0  0  0  0  0  0  0  0  0
   -0.1360    0.2453    0.3516 N   0  0  1  0  0  0  0  0  0  0  0  0
    1.3385    0.3528    0.2801 C   0  0  2  0  0  0  0  0  0  0  0  0
   -0.3398   -1.1748    0.7203 C   0  0  1  0  0  0  0  0  0  0  0  0
    1.6828   -0.8821   -0.5869 C   0  0  1  0  0  0  0  0  0  0  0  0
    1.9896    0.2706    1.7004 C   0  0  2  0  0  0  0  0  0  0  0  0
    0.5793   -1.8823   -0.3041 C   0  0  2  0  0  0  0  0  0  0  0  0
    0.1050   -1.4658    2.1906 C   0  0  1  0  0  0  0  0  0  0  0  0
    0.7812   -1.3248   -1.6129 O   0  0  0  0  0  0  0  0  0  0  0  0
    1.5744   -1.0214    2.4813 C   0  0  2  0  0  0  0  0  0  0  0  0
    1.7220   -0.8185    3.9000 O   0  0  0  0  0  0  0  0  0  0  0  0
    2.3339   -1.6225    4.8251 C   0  0  0  0  0  0  0  0  0  0  0  0
    2.4205   -1.1531    6.2334 C   0  0  2  0  0  0  0  0  0  0  0  0
    2.8315   -2.7232    4.4841 O   0  0  0  0  0  0  0  0  0  0  0  0
    3.8929   -0.8481    6.6266 C   0  0  1  0  0  0  0  0  0  0  0  0
    1.7543   -2.0603    7.2291 C   0  0  0  0  0  0  0  0  0  0  0  0
    3.9535   -0.2863    7.9357 O   0  0  0  0  0  0  0  0  0  0  0  0
    2.2053   -3.3869    7.4479 C   0  0  0  0  0  0  0  0  0  0  0  0
    0.6808   -1.5866    8.0254 C   0  0  0  0  0  0  0  0  0  0  0  0
    1.6224   -4.1997    8.4383 C   0  0  0  0  0  0  0  0  0  0  0  0
    0.0960   -2.3984    9.0164 C   0  0  0  0  0  0  0  0  0  0  0  0
    0.5669   -3.7048    9.2237 C   0  0  0  0  0  0  0  0  0  0  0  0
   -0.6478    2.2794    0.6571 H   0  0  0  0  0  0  0  0  0  0  0  0
   -1.9808    1.1359    0.8626 H   0  0  0  0  0  0  0  0  0  0  0  0
   -0.7448    1.2931    2.1251 H   0  0  0  0  0  0  0  0  0  0  0  0
    1.6402    1.2645   -0.2384 H   0  0  0  0  0  0  0  0  0  0  0  0
   -1.3776   -1.4747    0.5618 H   0  0  0  0  0  0  0  0  0  0  0  0
    2.6835   -1.3215   -0.5597 H   0  0  0  0  0  0  0  0  0  0  0  0
    1.6951    1.1572    2.2684 H   0  0  0  0  0  0  0  0  0  0  0  0
    3.0781    0.2996    1.5993 H   0  0  0  0  0  0  0  0  0  0  0  0
    0.9525   -2.8917   -0.1112 H   0  0  0  0  0  0  0  0  0  0  0  0
   -0.5782   -0.9466    2.8661 H   0  0  0  0  0  0  0  0  0  0  0  0
    0.0061   -2.5361    2.3931 H   0  0  0  0  0  0  0  0  0  0  0  0
    2.2376   -1.8287    2.1513 H   0  0  0  0  0  0  0  0  0  0  0  0
    1.9145   -0.1815    6.2553 H   0  0  0  0  0  0  0  0  0  0  0  0
    4.5093   -1.7507    6.6007 H   0  0  0  0  0  0  0  0  0  0  0  0
    4.3179   -0.1194    5.9314 H   0  0  0  0  0  0  0  0  0  0  0  0
    4.8956   -0.0573    8.0730 H   0  0  0  0  0  0  0  0  0  0  0  0
    2.9746   -3.7696    6.8952 H   0  0  0  0  0  0  0  0  0  0  0  0
    0.3226   -0.6364    7.9007 H   0  0  0  0  0  0  0  0  0  0  0  0
    1.9708   -5.1481    8.5927 H   0  0  0  0  0  0  0  0  0  0  0  0
   -0.6673   -2.0355    9.5913 H   0  0  0  0  0  0  0  0  0  0  0  0
    0.1441   -4.2940    9.9446 H   0  0  0  0  0  0  0  0  0  0  0  0
  1  2  1  0  0  0  0 
  3  2  1  0  0  0  0 
  5  3  1  0  0  0  0 
  3  6  1  0  0  0  0 
  4  2  1  0  0  0  0 
  7  4  1  0  0  0  0 
  4  8  1  0  0  0  0 
  7  5  1  0  0  0  0 
  5  9  1  0  0  0  0 
 10  6  1  0  0  0  0 
  7  9  1  0  0  0  0 
 10  8  1  0  0  0  0 
 10 11  1  0  0  0  0 
 11 12  1  0  0  0  0 
 13 12  1  0  0  0  0 
 12 14  2  0  0  0  0 
 13 15  1  0  0  0  0 
 13 16  1  0  0  0  0 
 15 17  1  0  0  0  0 
 16 18  2  0  0  0  0 
 16 19  1  0  0  0  0 
 18 20  1  0  0  0  0 
 19 21  2  0  0  0  0 
 20 22  2  0  0  0  0 
 21 22  1  0  0  0  0 
  1 23  1  0  0  0  0 
  1 24  1  0  0  0  0 
  1 25  1  0  0  0  0 
  3 26  1  0  0  0  0 
  4 27  1  0  0  0  0 
  5 28  1  0  0  0  0 
  6 29  1  0  0  0  0 
  6 30  1  0  0  0  0 
  7 31  1  0  0  0  0 
  8 32  1  0  0  0  0 
  8 33  1  0  0  0  0 
 10 34  1  0  0  0  0 
 13 35  1  0  0  0  0 
 15 36  1  0  0  0  0 
 15 37  1  0  0  0  0 
 17 38  1  0  0  0  0 
 18 39  1  0  0  0  0 
 19 40  1  0  0  0  0 
 20 41  1  0  0  0  0 
 21 42  1  0  0  0  0 
 22 43  1  0  0  0  0 
M  END
> <cdk:Title>
scopolamine

> <Conformer>
1

> <SuperDrugID>
SD002181

$$$$
