almotriptan
  CDK     0628171801

 48 50  0  0  0  0  0  0  0  0999 V2000
   -6.0697    5.7715   -7.0928 C   0  0  1  0  0  0  0  0  0  0  0  0
   -6.4242    4.8186   -8.2635 C   0  0  2  0  0  0  0  0  0  0  0  0
   -6.5381    5.2642   -5.7833 C   0  0  0  0  0  0  0  0  0  0  0  0
   -5.7132    3.5025   -8.1264 N   0  0  2  0  0  0  0  0  0  0  0  0
   -5.8859    4.3937   -4.9077 C   0  0  0  0  0  0  0  0  0  0  0  0
   -7.7578    5.5680   -5.1735 C   0  0  0  0  0  0  0  0  0  0  0  0
   -4.4989    3.3485   -8.9802 C   0  0  0  0  0  0  0  0  0  0  0  0
   -6.6013    2.3075   -8.1604 C   0  0  0  0  0  0  0  0  0  0  0  0
   -6.7332    4.1955   -3.8191 C   0  0  0  0  0  0  0  0  0  0  0  0
   -4.6340    3.7546   -4.9713 C   0  0  0  0  0  0  0  0  0  0  0  0
   -7.8462    4.9230   -3.9971 N   0  0  0  0  0  0  0  0  0  0  0  0
   -6.3747    3.3427   -2.7655 C   0  0  0  0  0  0  0  0  0  0  0  0
   -4.2396    2.8910   -3.9151 C   0  0  0  0  0  0  0  0  0  0  0  0
   -5.1309    2.6809   -2.8282 C   0  0  0  0  0  0  0  0  0  0  0  0
   -2.9160    2.2118   -3.9558 C   0  0  1  0  0  0  0  0  0  0  0  0
   -1.5271    3.4046   -3.8624 S   0  0  1  0  0  0  0  0  0  0  0  0
   -1.3996    4.1992   -5.2485 O   0  0  0  0  0  0  0  0  0  0  0  0
   -1.8006    4.4697   -2.6950 O   0  0  0  0  0  0  0  0  0  0  0  0
    0.0267    2.6098   -3.5477 N   0  0  2  0  0  0  0  0  0  0  0  0
    0.4001    1.5601   -4.5204 C   0  0  1  0  0  0  0  0  0  0  0  0
    0.1681    1.9983   -2.2065 C   0  0  1  0  0  0  0  0  0  0  0  0
    0.0091    0.2128   -3.8865 C   0  0  1  0  0  0  0  0  0  0  0  0
    0.0026    0.4722   -2.3691 C   0  0  1  0  0  0  0  0  0  0  0  0
   -4.9902    5.9328   -7.0623 H   0  0  0  0  0  0  0  0  0  0  0  0
   -6.5361    6.7422   -7.2821 H   0  0  0  0  0  0  0  0  0  0  0  0
   -6.1647    5.3092   -9.2088 H   0  0  0  0  0  0  0  0  0  0  0  0
   -7.5130    4.6918   -8.2783 H   0  0  0  0  0  0  0  0  0  0  0  0
   -8.4783    6.1812   -5.5585 H   0  0  0  0  0  0  0  0  0  0  0  0
   -4.7757    3.2168  -10.0301 H   0  0  0  0  0  0  0  0  0  0  0  0
   -3.9220    2.4792   -8.6575 H   0  0  0  0  0  0  0  0  0  0  0  0
   -3.8531    4.2253   -8.8959 H   0  0  0  0  0  0  0  0  0  0  0  0
   -7.4022    2.4079   -7.4231 H   0  0  0  0  0  0  0  0  0  0  0  0
   -7.0457    2.1836   -9.1518 H   0  0  0  0  0  0  0  0  0  0  0  0
   -6.0390    1.4040   -7.9123 H   0  0  0  0  0  0  0  0  0  0  0  0
   -4.0211    3.9166   -5.7738 H   0  0  0  0  0  0  0  0  0  0  0  0
   -8.5954    4.9680   -3.3818 H   0  0  0  0  0  0  0  0  0  0  0  0
   -7.0005    3.2027   -1.9704 H   0  0  0  0  0  0  0  0  0  0  0  0
   -4.8780    2.0456   -2.0667 H   0  0  0  0  0  0  0  0  0  0  0  0
   -2.8112    1.5175   -3.1203 H   0  0  0  0  0  0  0  0  0  0  0  0
   -2.8308    1.6361   -4.8804 H   0  0  0  0  0  0  0  0  0  0  0  0
   -0.0686    1.6910   -5.4995 H   0  0  0  0  0  0  0  0  0  0  0  0
    1.4851    1.5965   -4.6631 H   0  0  0  0  0  0  0  0  0  0  0  0
    1.1762    2.2216   -1.8437 H   0  0  0  0  0  0  0  0  0  0  0  0
   -0.5381    2.3968   -1.4728 H   0  0  0  0  0  0  0  0  0  0  0  0
   -0.9843   -0.0921   -4.2260 H   0  0  0  0  0  0  0  0  0  0  0  0
    0.7232   -0.5692   -4.1563 H   0  0  0  0  0  0  0  0  0  0  0  0
    0.8247   -0.0584   -1.8801 H   0  0  0  0  0  0  0  0  0  0  0  0
   -0.9386    0.1364   -1.9268 H   0  0  0  0  0  0  0  0  0  0  0  0
  1  2  1  0  0  0  0 
  1  3  1  0  0  0  0 
  2  4  1  0  0  0  0 
  3  5  1  0  0  0  0 
  3  6  2  0  0  0  0 
  4  7  1  0  0  0  0 
  4  8  1  0  0  0  0 
  5  9  1  0  0  0  0 
  5 10  2  0  0  0  0 
  6 11  1  0  0  0  0 
  9 11  1  0  0  0  0 
  9 12  2  0  0  0  0 
 10 13  1  0  0  0  0 
 12 14  1  0  0  0  0 
 13 14  2  0  0  0  0 
 13 15  1  0  0  0  0 
 15 16  1  0  0  0  0 
 16 17  2  0  0  0  0 
 16 18  2  0  0  0  0 
 16 19  1  0  0  0  0 
 19 20  1  0  0  0  0 
 19 21  1  0  0  0  0 
 20 22  1  0  0  0  0 
 21 23  1  0  0  0  0 
 22 23  1  0  0  0  0 
  1 24  1  0  0  0  0 
  1 25  1  0  0  0  0 
  2 26  1  0  0  0  0 
  2 27  1  0  0  0  0 
  6 28  1  0  0  0  0 
  7 29  1  0  0  0  0 
  7 30  1  0  0  0  0 
  7 31  1  0  0  0  0 
  8 32  1  0  0  0  0 
  8 33  1  0  0  0  0 
  8 34  1  0  0  0  0 
 10 35  1  0  0  0  0 
 11 36  1  0  0  0  0 
 12 37  1  0  0  0  0 
 14 38  1  0  0  0  0 
 15 39  1  0  0  0  0 
 15 40  1  0  0  0  0 
 20 41  1  0  0  0  0 
 20 42  1  0  0  0  0 
 21 43  1  0  0  0  0 
 21 44  1  0  0  0  0 
 22 45  1  0  0  0  0 
 22 46  1  0  0  0  0 
 23 47  1  0  0  0  0 
 23 48  1  0  0  0  0 
M  END
> <cdk:Title>
almotriptan

> <Conformer>
1

> <SuperDrugID>
SD000098

$$$$
