mephenesin carbamate
  CDK     0628171801

 31 31  0  0  0  0  0  0  0  0999 V2000
    2.2710   -2.5265   -3.2695 O   0  0  0  0  0  0  0  0  0  0  0  0
    1.5694   -1.3790   -3.8008 C   0  0  2  0  0  0  0  0  0  0  0  0
    3.3755   -2.8557   -4.0100 C   0  0  0  0  0  0  0  0  0  0  0  0
    0.4294   -0.9488   -2.8470 C   0  0  2  0  0  0  0  0  0  0  0  0
    4.6678   -2.3995   -3.6378 C   0  0  0  0  0  0  0  0  0  0  0  0
    3.2075   -3.6662   -5.1515 C   0  0  0  0  0  0  0  0  0  0  0  0
    0.9325   -0.6469   -1.4136 C   0  0  1  0  0  0  0  0  0  0  0  0
   -0.5757   -1.9597   -2.7961 O   0  0  0  0  0  0  0  0  0  0  0  0
    4.8651   -1.6022   -2.3998 C   0  0  0  0  0  0  0  0  0  0  0  0
    5.7658   -2.7248   -4.4699 C   0  0  0  0  0  0  0  0  0  0  0  0
    4.3115   -3.9926   -5.9574 C   0  0  0  0  0  0  0  0  0  0  0  0
   -0.1394   -0.1244   -0.6185 O   0  0  0  0  0  0  0  0  0  0  0  0
    5.5889   -3.5144   -5.6220 C   0  0  0  0  0  0  0  0  0  0  0  0
   -0.0356    0.2830    0.6772 C   0  0  0  0  0  0  0  0  0  0  0  0
   -1.1209    0.7795    1.2869 N   0  0  0  0  0  0  0  0  0  0  0  0
    1.0395    0.2188    1.3163 O   0  0  0  0  0  0  0  0  0  0  0  0
    1.1358   -1.6196   -4.7762 H   0  0  0  0  0  0  0  0  0  0  0  0
    2.2441   -0.5262   -3.9315 H   0  0  0  0  0  0  0  0  0  0  0  0
   -0.0307   -0.0428   -3.2532 H   0  0  0  0  0  0  0  0  0  0  0  0
    2.2781   -4.0129   -5.4035 H   0  0  0  0  0  0  0  0  0  0  0  0
    1.3182   -1.5588   -0.9477 H   0  0  0  0  0  0  0  0  0  0  0  0
    1.7370    0.0929   -1.4551 H   0  0  0  0  0  0  0  0  0  0  0  0
   -0.9154   -2.0310   -3.7132 H   0  0  0  0  0  0  0  0  0  0  0  0
    4.5670   -2.1907   -1.5305 H   0  0  0  0  0  0  0  0  0  0  0  0
    5.9059   -1.3057   -2.2630 H   0  0  0  0  0  0  0  0  0  0  0  0
    4.2618   -0.6942   -2.4308 H   0  0  0  0  0  0  0  0  0  0  0  0
    6.7064   -2.3917   -4.2442 H   0  0  0  0  0  0  0  0  0  0  0  0
    4.1830   -4.5749   -6.7890 H   0  0  0  0  0  0  0  0  0  0  0  0
    6.3911   -3.7470   -6.2136 H   0  0  0  0  0  0  0  0  0  0  0  0
   -1.0659    1.0766    2.2080 H   0  0  0  0  0  0  0  0  0  0  0  0
   -1.9613    0.8435    0.8077 H   0  0  0  0  0  0  0  0  0  0  0  0
  1  2  1  0  0  0  0 
  1  3  1  0  0  0  0 
  4  2  1  0  0  0  0 
  3  5  2  0  0  0  0 
  3  6  1  0  0  0  0 
  4  7  1  0  0  0  0 
  4  8  1  0  0  0  0 
  5  9  1  0  0  0  0 
  5 10  1  0  0  0  0 
  6 11  2  0  0  0  0 
  7 12  1  0  0  0  0 
 10 13  2  0  0  0  0 
 11 13  1  0  0  0  0 
 12 14  1  0  0  0  0 
 14 15  1  0  0  0  0 
 14 16  2  0  0  0  0 
 17  2  1  0  0  0  0 
 18  2  1  0  0  0  0 
 19  4  1  0  0  0  0 
 20  6  1  0  0  0  0 
 21  7  1  0  0  0  0 
 22  7  1  0  0  0  0 
 23  8  1  0  0  0  0 
 24  9  1  0  0  0  0 
 25  9  1  0  0  0  0 
 26  9  1  0  0  0  0 
 27 10  1  0  0  0  0 
 28 11  1  0  0  0  0 
 29 13  1  0  0  0  0 
 30 15  1  0  0  0  0 
 31 15  1  0  0  0  0 
M  END
> <cdk:Title>
mephenesin carbamate

> <Conformer>
1

> <SuperDrugID>
SD001496

$$$$
