esomeprazole
  CDK     0628171801

 43 45  0  0  0  0  0  0  0  0999 V2000
   -0.0121    0.4588    0.5564 S   0  0  2  0  0  0  0  0  0  0  0  0
    0.1739   -1.2138    1.2869 C   0  0  2  0  0  0  0  0  0  0  0  0
    0.2493    0.2527   -1.0136 O   0  0  0  0  0  0  0  0  0  0  0  0
    1.3450    1.4079    1.1498 C   0  0  0  0  0  0  0  0  0  0  0  0
   -1.0047   -2.0285    0.9129 C   0  0  0  0  0  0  0  0  0  0  0  0
    1.2106    2.5604    1.8288 N   0  0  0  0  0  0  0  0  0  0  0  0
    2.6444    1.0870    0.9838 N   0  0  0  0  0  0  0  0  0  0  0  0
   -2.2552   -2.0175    1.5955 C   0  0  0  0  0  0  0  0  0  0  0  0
   -0.8520   -2.8082   -0.1881 N   0  0  0  0  0  0  0  0  0  0  0  0
    2.4422    3.0023    2.0961 C   0  0  0  0  0  0  0  0  0  0  0  0
    3.3380    2.0741    1.5722 C   0  0  0  0  0  0  0  0  0  0  0  0
   -2.4908   -1.1545    2.7902 C   0  0  0  0  0  0  0  0  0  0  0  0
   -3.2850   -2.8732    1.1093 C   0  0  0  0  0  0  0  0  0  0  0  0
   -1.8295   -3.5884   -0.6941 C   0  0  0  0  0  0  0  0  0  0  0  0
    2.8870    4.1616    2.7516 C   0  0  0  0  0  0  0  0  0  0  0  0
    4.7254    2.2615    1.6978 C   0  0  0  0  0  0  0  0  0  0  0  0
   -4.4912   -2.9452    1.7657 O   0  0  0  0  0  0  0  0  0  0  0  0
   -3.0914   -3.6417   -0.0677 C   0  0  0  0  0  0  0  0  0  0  0  0
    4.2789    4.3845    2.8547 C   0  0  0  0  0  0  0  0  0  0  0  0
    5.1904    3.4279    2.3450 C   0  0  0  0  0  0  0  0  0  0  0  0
   -4.5177   -3.9554    2.7922 C   0  0  0  0  0  0  0  0  0  0  0  0
   -4.1527   -4.5005   -0.6494 C   0  0  0  0  0  0  0  0  0  0  0  0
    4.7425    5.5246    3.4512 O   0  0  0  0  0  0  0  0  0  0  0  0
    4.8933    6.6132    2.5200 C   0  0  0  0  0  0  0  0  0  0  0  0
    0.2698   -1.1425    2.3703 H   0  0  0  0  0  0  0  0  0  0  0  0
    1.0949   -1.6598    0.9051 H   0  0  0  0  0  0  0  0  0  0  0  0
    0.3746    2.9931    2.0721 H   0  0  0  0  0  0  0  0  0  0  0  0
   -2.1207   -1.6600    3.6834 H   0  0  0  0  0  0  0  0  0  0  0  0
   -3.5488   -0.9314    2.9325 H   0  0  0  0  0  0  0  0  0  0  0  0
   -1.9834   -0.1943    2.6982 H   0  0  0  0  0  0  0  0  0  0  0  0
   -1.6310   -4.1354   -1.5353 H   0  0  0  0  0  0  0  0  0  0  0  0
    2.2161    4.8335    3.1284 H   0  0  0  0  0  0  0  0  0  0  0  0
    5.3840    1.5754    1.3222 H   0  0  0  0  0  0  0  0  0  0  0  0
    6.1955    3.5871    2.4357 H   0  0  0  0  0  0  0  0  0  0  0  0
   -5.4969   -3.9304    3.2703 H   0  0  0  0  0  0  0  0  0  0  0  0
   -4.3699   -4.9529    2.3737 H   0  0  0  0  0  0  0  0  0  0  0  0
   -3.7626   -3.7706    3.5595 H   0  0  0  0  0  0  0  0  0  0  0  0
   -5.1421   -4.0794   -0.4665 H   0  0  0  0  0  0  0  0  0  0  0  0
   -4.0322   -4.5948   -1.7312 H   0  0  0  0  0  0  0  0  0  0  0  0
   -4.0993   -5.4955   -0.2047 H   0  0  0  0  0  0  0  0  0  0  0  0
    5.2501    7.4847    3.0694 H   0  0  0  0  0  0  0  0  0  0  0  0
    5.6270    6.3778    1.7444 H   0  0  0  0  0  0  0  0  0  0  0  0
    3.9420    6.8770    2.0497 H   0  0  0  0  0  0  0  0  0  0  0  0
  1  2  1  0  0  0  0 
  1  3  2  0  0  0  0 
  1  4  1  0  0  0  0 
  2  5  1  0  0  0  0 
  4  6  1  0  0  0  0 
  4  7  2  0  0  0  0 
  5  8  2  0  0  0  0 
  5  9  1  0  0  0  0 
  6 10  1  0  0  0  0 
  7 11  1  0  0  0  0 
  8 12  1  0  0  0  0 
  8 13  1  0  0  0  0 
  9 14  2  0  0  0  0 
 10 11  1  0  0  0  0 
 10 15  2  0  0  0  0 
 11 16  2  0  0  0  0 
 13 17  1  0  0  0  0 
 13 18  2  0  0  0  0 
 14 18  1  0  0  0  0 
 15 19  1  0  0  0  0 
 16 20  1  0  0  0  0 
 17 21  1  0  0  0  0 
 18 22  1  0  0  0  0 
 19 20  2  0  0  0  0 
 19 23  1  0  0  0  0 
 23 24  1  0  0  0  0 
 25  2  1  0  0  0  0 
 26  2  1  0  0  0  0 
 27  6  1  0  0  0  0 
 28 12  1  0  0  0  0 
 29 12  1  0  0  0  0 
 30 12  1  0  0  0  0 
 31 14  1  0  0  0  0 
 32 15  1  0  0  0  0 
 33 16  1  0  0  0  0 
 34 20  1  0  0  0  0 
 35 21  1  0  0  0  0 
 36 21  1  0  0  0  0 
 37 21  1  0  0  0  0 
 38 22  1  0  0  0  0 
 39 22  1  0  0  0  0 
 40 22  1  0  0  0  0 
 41 24  1  0  0  0  0 
 42 24  1  0  0  0  0 
 43 24  1  0  0  0  0 
M  END
> <cdk:Title>
esomeprazole

> <Conformer>
1

> <SuperDrugID>
SD000940

$$$$
