ornidazole
  CDK     0628171801

 24 24  0  0  0  0  0  0  0  0999 V2000
    0.8584   -1.3388    1.9218 N   0  0  0  0  0  0  0  0  0  0  0  0
    1.1181   -2.2210    0.9167 C   0  0  0  0  0  0  0  0  0  0  0  0
    1.7666   -1.5730    2.9079 C   0  0  0  0  0  0  0  0  0  0  0  0
    0.5259   -2.3838   -0.2710 N   0  0  0  0  0  0  0  0  0  0  0  0
    2.2083   -2.9760    1.3449 C   0  0  0  0  0  0  0  0  0  0  0  0
    1.8970   -0.8910    4.2115 C   0  0  0  0  0  0  0  0  0  0  0  0
    2.5916   -2.5705    2.5558 N   0  0  0  0  0  0  0  0  0  0  0  0
   -0.2626   -1.6394   -0.6953 O   0  0  0  0  0  0  0  0  0  0  0  0
    0.8082   -3.3639   -1.0284 O   0  0  0  0  0  0  0  0  0  0  0  0
   -0.1594   -0.3116    1.9454 C   0  0  2  0  0  0  0  0  0  0  0  0
   -1.6310   -0.8130    2.0546 C   0  0  1  0  0  0  0  0  0  0  0  0
   -2.0049   -1.4667    3.4105 C   0  0  2  0  0  0  0  0  0  0  0  0
   -2.4873    0.3128    1.8650 O   0  0  0  0  0  0  0  0  0  0  0  0
   -1.3234   -3.0789    3.6055 Cl  0  0  0  0  0  0  0  0  0  0  0  0
    2.6627   -3.7242    0.8213 H   0  0  0  0  0  0  0  0  0  0  0  0
    0.9723   -0.9989    4.7773 H   0  0  0  0  0  0  0  0  0  0  0  0
    2.1097    0.1679    4.0622 H   0  0  0  0  0  0  0  0  0  0  0  0
    2.7108   -1.3277    4.7938 H   0  0  0  0  0  0  0  0  0  0  0  0
   -0.0507    0.2850    1.0356 H   0  0  0  0  0  0  0  0  0  0  0  0
    0.0058    0.3841    2.7711 H   0  0  0  0  0  0  0  0  0  0  0  0
   -1.8586   -1.5177    1.2528 H   0  0  0  0  0  0  0  0  0  0  0  0
   -3.0906   -1.5681    3.4728 H   0  0  0  0  0  0  0  0  0  0  0  0
   -1.6779   -0.8398    4.2415 H   0  0  0  0  0  0  0  0  0  0  0  0
   -2.2638    0.6549    0.9740 H   0  0  0  0  0  0  0  0  0  0  0  0
  1  2  1  0  0  0  0 
  1  3  1  0  0  0  0 
  2  4  1  0  0  0  0 
  2  5  2  0  0  0  0 
  3  6  1  0  0  0  0 
  3  7  2  0  0  0  0 
  4  8  2  0  0  0  0 
  4  9  1  0  0  0  0 
  5  7  1  0  0  0  0 
  1 10  1  0  0  0  0 
 11 10  1  0  0  0  0 
 11 12  1  0  0  0  0 
 11 13  1  0  0  0  0 
 12 14  1  0  0  0  0 
  5 15  1  0  0  0  0 
  6 16  1  0  0  0  0 
  6 17  1  0  0  0  0 
  6 18  1  0  0  0  0 
 10 19  1  0  0  0  0 
 10 20  1  0  0  0  0 
 11 21  1  0  0  0  0 
 12 22  1  0  0  0  0 
 12 23  1  0  0  0  0 
 13 24  1  0  0  0  0 
M  CHG  1   4   1
M  CHG  1   9  -1
M  END
> <cdk:Title>
ornidazole

> <Conformer>
1

> <SuperDrugID>
SD001786

$$$$
