linagliptin
  CDK     0628171801

 63 67  0  0  0  0  0  0  0  0999 V2000
   -6.9566    4.5408   -1.3223 C   0  0  0  0  0  0  0  0  0  0  0  0
   -8.1731    5.1454   -0.9587 C   0  0  0  0  0  0  0  0  0  0  0  0
   -8.9694    5.7666   -1.9363 C   0  0  0  0  0  0  0  0  0  0  0  0
   -8.5536    5.7871   -3.2806 C   0  0  0  0  0  0  0  0  0  0  0  0
   -7.3372    5.1752   -3.6700 C   0  0  0  0  0  0  0  0  0  0  0  0
   -6.5390    4.5532   -2.6686 C   0  0  0  0  0  0  0  0  0  0  0  0
   -5.3675    3.9636   -3.0116 N   0  0  0  0  0  0  0  0  0  0  0  0
   -6.8568    5.1328   -5.0066 C   0  0  0  0  0  0  0  0  0  0  0  0
   -5.6755    4.5100   -5.2621 N   0  0  0  0  0  0  0  0  0  0  0  0
   -4.9233    3.9290   -4.2932 C   0  0  0  0  0  0  0  0  0  0  0  0
   -7.5749    5.7317   -6.1511 C   0  0  0  0  0  0  0  0  0  0  0  0
   -3.6444    3.2636   -4.6160 C   0  0  2  0  0  0  0  0  0  0  0  0
   -3.6467    1.8791   -4.1401 N   0  0  0  0  0  0  0  0  0  0  0  0
   -3.1931    1.6098   -2.8632 C   0  0  0  0  0  0  0  0  0  0  0  0
   -4.1228    0.8563   -4.9440 C   0  0  0  0  0  0  0  0  0  0  0  0
   -4.1096   -0.4625   -4.4556 N   0  0  0  0  0  0  0  0  0  0  0  0
   -3.1992    0.2964   -2.3432 C   0  0  0  0  0  0  0  0  0  0  0  0
   -2.8105   -0.2420   -1.1493 N   0  0  0  0  0  0  0  0  0  0  0  0
   -3.6475   -0.7197   -3.1749 C   0  0  0  0  0  0  0  0  0  0  0  0
   -3.4835   -1.8697   -2.4666 N   0  0  0  0  0  0  0  0  0  0  0  0
   -2.9502   -1.6024   -1.2588 C   0  0  0  0  0  0  0  0  0  0  0  0
   -2.7572    2.5404   -2.1460 O   0  0  0  0  0  0  0  0  0  0  0  0
   -4.5560    1.1968   -6.1040 O   0  0  0  0  0  0  0  0  0  0  0  0
   -4.5556   -1.5398   -5.3017 C   0  0  0  0  0  0  0  0  0  0  0  0
   -2.3017    0.4966   -0.0124 C   0  0  2  0  0  0  0  0  0  0  0  0
   -0.9402    0.4106    0.0978 C   0  0  0  0  0  0  0  0  0  0  0  0
    0.2491    0.3424    0.1964 C   0  0  0  0  0  0  0  0  0  0  0  0
    1.6077    0.2676    0.3108 C   0  0  0  0  0  0  0  0  0  0  0  0
   -2.6038   -2.6551   -0.4059 N   0  0  0  0  0  0  0  0  0  0  0  0
   -2.0474   -3.8617   -1.0117 C   0  0  2  0  0  0  0  0  0  0  0  0
   -2.6180   -2.5031    1.0368 C   0  0  2  0  0  0  0  0  0  0  0  0
   -2.6091   -3.8031    1.8875 C   0  0  1  0  0  0  0  0  0  0  0  0
   -1.5855   -4.8142    1.3258 C   0  0  1  0  0  0  0  0  0  0  0  0
   -1.9649   -5.1389   -0.1314 C   0  0  1  0  0  0  0  0  0  0  0  0
   -2.3024   -3.5130    3.2978 N   0  0  2  0  0  0  0  0  0  0  0  0
   -6.3825    4.0916   -0.6039 H   0  0  0  0  0  0  0  0  0  0  0  0
   -8.4790    5.1322    0.0179 H   0  0  0  0  0  0  0  0  0  0  0  0
   -9.8537    6.2030   -1.6682 H   0  0  0  0  0  0  0  0  0  0  0  0
   -9.1541    6.2510   -3.9653 H   0  0  0  0  0  0  0  0  0  0  0  0
   -7.6669    6.8087   -6.0059 H   0  0  0  0  0  0  0  0  0  0  0  0
   -7.0458    5.5612   -7.0899 H   0  0  0  0  0  0  0  0  0  0  0  0
   -8.5698    5.2928   -6.2372 H   0  0  0  0  0  0  0  0  0  0  0  0
   -2.8361    3.8515   -4.1721 H   0  0  0  0  0  0  0  0  0  0  0  0
   -3.4505    3.3210   -5.6922 H   0  0  0  0  0  0  0  0  0  0  0  0
   -5.5631   -1.3400   -5.6747 H   0  0  0  0  0  0  0  0  0  0  0  0
   -3.8802   -1.6350   -6.1558 H   0  0  0  0  0  0  0  0  0  0  0  0
   -4.5810   -2.5034   -4.7858 H   0  0  0  0  0  0  0  0  0  0  0  0
   -2.7713    0.1696    0.9093 H   0  0  0  0  0  0  0  0  0  0  0  0
   -2.5435    1.5522   -0.0529 H   0  0  0  0  0  0  0  0  0  0  0  0
    2.0672    1.1301   -0.1764 H   0  0  0  0  0  0  0  0  0  0  0  0
    1.8916    0.2550    1.3652 H   0  0  0  0  0  0  0  0  0  0  0  0
    1.9608   -0.6457   -0.1703 H   0  0  0  0  0  0  0  0  0  0  0  0
   -1.0358   -3.6202   -1.3435 H   0  0  0  0  0  0  0  0  0  0  0  0
   -2.6137   -4.1491   -1.9033 H   0  0  0  0  0  0  0  0  0  0  0  0
   -3.5097   -1.9446    1.3349 H   0  0  0  0  0  0  0  0  0  0  0  0
   -1.7327   -1.9318    1.3189 H   0  0  0  0  0  0  0  0  0  0  0  0
   -3.6080   -4.2486    1.8611 H   0  0  0  0  0  0  0  0  0  0  0  0
   -0.5704   -4.4030    1.3695 H   0  0  0  0  0  0  0  0  0  0  0  0
   -1.6053   -5.7294    1.9242 H   0  0  0  0  0  0  0  0  0  0  0  0
   -2.9318   -5.6510   -0.1408 H   0  0  0  0  0  0  0  0  0  0  0  0
   -1.2273   -5.8278   -0.5504 H   0  0  0  0  0  0  0  0  0  0  0  0
   -1.3265   -3.2100    3.3396 H   0  0  0  0  0  0  0  0  0  0  0  0
   -2.3526   -4.4023    3.8010 H   0  0  0  0  0  0  0  0  0  0  0  0
  1  2  1  0  0  0  0 
  1  6  2  0  0  0  0 
  2  3  2  0  0  0  0 
  3  4  1  0  0  0  0 
  4  5  2  0  0  0  0 
  5  8  1  0  0  0  0 
  6  5  1  0  0  0  0 
  7  6  1  0  0  0  0 
  7 10  2  0  0  0  0 
  8  9  2  0  0  0  0 
  9 10  1  0  0  0  0 
  8 11  1  0  0  0  0 
 10 12  1  0  0  0  0 
 12 13  1  0  0  0  0 
 14 13  1  0  0  0  0 
 13 15  1  0  0  0  0 
 14 17  1  0  0  0  0 
 15 16  1  0  0  0  0 
 16 19  1  0  0  0  0 
 18 17  1  0  0  0  0 
 18 21  1  0  0  0  0 
 19 20  1  0  0  0  0 
 20 21  2  0  0  0  0 
 17 19  2  0  0  0  0 
 14 22  2  0  0  0  0 
 15 23  2  0  0  0  0 
 16 24  1  0  0  0  0 
 18 25  1  0  0  0  0 
 25 26  1  0  0  0  0 
 26 27  3  0  0  0  0 
 27 28  1  0  0  0  0 
 21 29  1  0  0  0  0 
 30 29  1  0  0  0  0 
 29 31  1  0  0  0  0 
 30 34  1  0  0  0  0 
 31 32  1  0  0  0  0 
 32 33  1  0  0  0  0 
 33 34  1  0  0  0  0 
 32 35  1  0  0  0  0 
  1 36  1  0  0  0  0 
  2 37  1  0  0  0  0 
  3 38  1  0  0  0  0 
  4 39  1  0  0  0  0 
 11 40  1  0  0  0  0 
 11 41  1  0  0  0  0 
 11 42  1  0  0  0  0 
 12 43  1  0  0  0  0 
 12 44  1  0  0  0  0 
 24 45  1  0  0  0  0 
 24 46  1  0  0  0  0 
 24 47  1  0  0  0  0 
 25 48  1  0  0  0  0 
 25 49  1  0  0  0  0 
 28 50  1  0  0  0  0 
 28 51  1  0  0  0  0 
 28 52  1  0  0  0  0 
 30 53  1  0  0  0  0 
 30 54  1  0  0  0  0 
 31 55  1  0  0  0  0 
 31 56  1  0  0  0  0 
 32 57  1  0  0  0  0 
 33 58  1  0  0  0  0 
 33 59  1  0  0  0  0 
 34 60  1  0  0  0  0 
 34 61  1  0  0  0  0 
 35 62  1  0  0  0  0 
 35 63  1  0  0  0  0 
M  END
> <cdk:Title>
linagliptin

> <Conformer>
1

> <SuperDrugID>
SD003406

$$$$
