amosulalol
  CDK     0628171801

 50 51  0  0  0  0  0  0  0  0999 V2000
    6.1828   -8.4722   -6.1356 S   0  0  1  0  0  0  0  0  0  0  0  0
    5.0043   -8.1568   -7.4020 N   0  0  1  0  0  0  0  0  0  0  0  0
    6.0468  -10.0270   -5.7676 O   0  0  0  0  0  0  0  0  0  0  0  0
    7.6462   -8.1981   -6.7339 O   0  0  0  0  0  0  0  0  0  0  0  0
    5.8895   -7.4105   -4.7366 C   0  0  0  0  0  0  0  0  0  0  0  0
    5.2367   -6.1810   -4.9856 C   0  0  0  0  0  0  0  0  0  0  0  0
    6.3061   -7.7242   -3.4117 C   0  0  0  0  0  0  0  0  0  0  0  0
    4.9690   -5.2552   -3.9513 C   0  0  0  0  0  0  0  0  0  0  0  0
    7.0153   -8.9884   -3.0781 C   0  0  0  0  0  0  0  0  0  0  0  0
    6.0343   -6.7969   -2.3764 C   0  0  0  0  0  0  0  0  0  0  0  0
    4.2438   -3.9754   -4.2138 C   0  0  2  0  0  0  0  0  0  0  0  0
    5.3755   -5.5845   -2.6410 C   0  0  0  0  0  0  0  0  0  0  0  0
    2.7036   -4.1608   -4.1886 C   0  0  1  0  0  0  0  0  0  0  0  0
    4.6499   -3.4075   -5.4605 O   0  0  0  0  0  0  0  0  0  0  0  0
    2.2665   -4.6507   -2.8612 N   0  0  2  0  0  0  0  0  0  0  0  0
    0.8160   -4.8959   -2.7115 C   0  0  1  0  0  0  0  0  0  0  0  0
    0.5261   -5.4177   -1.2868 C   0  0  1  0  0  0  0  0  0  0  0  0
   -0.8912   -5.6348   -1.1228 O   0  0  0  0  0  0  0  0  0  0  0  0
   -1.2218   -6.1096    0.1206 C   0  0  0  0  0  0  0  0  0  0  0  0
   -1.2717   -7.5013    0.3707 C   0  0  0  0  0  0  0  0  0  0  0  0
   -1.5359   -5.2035    1.1557 C   0  0  0  0  0  0  0  0  0  0  0  0
   -0.9772   -8.3982   -0.6201 O   0  0  0  0  0  0  0  0  0  0  0  0
   -1.5899   -7.9701    1.6627 C   0  0  0  0  0  0  0  0  0  0  0  0
   -1.8617   -5.6773    2.4404 C   0  0  0  0  0  0  0  0  0  0  0  0
   -2.1208   -8.7633   -1.4132 C   0  0  0  0  0  0  0  0  0  0  0  0
   -1.8797   -7.0604    2.6963 C   0  0  0  0  0  0  0  0  0  0  0  0
    5.1978   -8.8113   -8.1621 H   0  0  0  0  0  0  0  0  0  0  0  0
    4.0958   -8.4228   -7.0172 H   0  0  0  0  0  0  0  0  0  0  0  0
    4.9498   -5.9496   -5.9395 H   0  0  0  0  0  0  0  0  0  0  0  0
    6.3269   -9.8313   -3.1631 H   0  0  0  0  0  0  0  0  0  0  0  0
    7.4181   -8.9848   -2.0639 H   0  0  0  0  0  0  0  0  0  0  0  0
    7.8565   -9.1388   -3.7544 H   0  0  0  0  0  0  0  0  0  0  0  0
    6.3124   -6.9965   -1.4117 H   0  0  0  0  0  0  0  0  0  0  0  0
    4.5082   -3.2382   -3.4499 H   0  0  0  0  0  0  0  0  0  0  0  0
    5.1806   -4.9456   -1.8644 H   0  0  0  0  0  0  0  0  0  0  0  0
    2.2252   -3.1993   -4.3912 H   0  0  0  0  0  0  0  0  0  0  0  0
    2.4044   -4.8655   -4.9684 H   0  0  0  0  0  0  0  0  0  0  0  0
    4.1558   -2.5645   -5.5389 H   0  0  0  0  0  0  0  0  0  0  0  0
    2.5215   -3.9319   -2.1807 H   0  0  0  0  0  0  0  0  0  0  0  0
    0.2629   -3.9687   -2.8795 H   0  0  0  0  0  0  0  0  0  0  0  0
    0.4876   -5.6405   -3.4408 H   0  0  0  0  0  0  0  0  0  0  0  0
    1.0792   -6.3510   -1.1367 H   0  0  0  0  0  0  0  0  0  0  0  0
    0.8850   -4.6797   -0.5620 H   0  0  0  0  0  0  0  0  0  0  0  0
   -1.5188   -4.1965    0.9782 H   0  0  0  0  0  0  0  0  0  0  0  0
   -1.6160   -8.9745    1.8522 H   0  0  0  0  0  0  0  0  0  0  0  0
   -2.0811   -5.0165    3.1904 H   0  0  0  0  0  0  0  0  0  0  0  0
   -1.7907   -9.4596   -2.1835 H   0  0  0  0  0  0  0  0  0  0  0  0
   -2.8827   -9.2626   -0.8103 H   0  0  0  0  0  0  0  0  0  0  0  0
   -2.5609   -7.8958   -1.9107 H   0  0  0  0  0  0  0  0  0  0  0  0
   -2.1039   -7.4033    3.6342 H   0  0  0  0  0  0  0  0  0  0  0  0
  1  2  1  0  0  0  0 
  1  3  2  0  0  0  0 
  1  4  2  0  0  0  0 
  1  5  1  0  0  0  0 
  5  6  2  0  0  0  0 
  5  7  1  0  0  0  0 
  6  8  1  0  0  0  0 
  7  9  1  0  0  0  0 
  7 10  2  0  0  0  0 
 11  8  1  0  0  0  0 
  8 12  2  0  0  0  0 
 10 12  1  0  0  0  0 
 11 13  1  0  0  0  0 
 11 14  1  0  0  0  0 
 13 15  1  0  0  0  0 
 15 16  1  0  0  0  0 
 16 17  1  0  0  0  0 
 17 18  1  0  0  0  0 
 18 19  1  0  0  0  0 
 19 20  2  0  0  0  0 
 19 21  1  0  0  0  0 
 20 22  1  0  0  0  0 
 20 23  1  0  0  0  0 
 21 24  2  0  0  0  0 
 22 25  1  0  0  0  0 
 23 26  2  0  0  0  0 
 24 26  1  0  0  0  0 
  2 27  1  0  0  0  0 
  2 28  1  0  0  0  0 
  6 29  1  0  0  0  0 
  9 30  1  0  0  0  0 
  9 31  1  0  0  0  0 
  9 32  1  0  0  0  0 
 10 33  1  0  0  0  0 
 11 34  1  0  0  0  0 
 12 35  1  0  0  0  0 
 13 36  1  0  0  0  0 
 13 37  1  0  0  0  0 
 14 38  1  0  0  0  0 
 15 39  1  0  0  0  0 
 16 40  1  0  0  0  0 
 16 41  1  0  0  0  0 
 17 42  1  0  0  0  0 
 17 43  1  0  0  0  0 
 21 44  1  0  0  0  0 
 23 45  1  0  0  0  0 
 24 46  1  0  0  0  0 
 25 47  1  0  0  0  0 
 25 48  1  0  0  0  0 
 25 49  1  0  0  0  0 
 26 50  1  0  0  0  0 
M  END
> <cdk:Title>
amosulalol

> <Conformer>
1

> <SuperDrugID>
SD000155

$$$$
