cloridarol
  CDK     0628171801

 29 31  0  0  0  0  0  0  0  0999 V2000
   -1.7469    1.4051   -0.1801 C   0  0  1  0  0  0  0  0  0  0  0  0
   -2.0649    2.5970   -0.8955 O   0  0  0  0  0  0  0  0  0  0  0  0
   -0.2860    1.3149    0.0192 C   0  0  0  0  0  0  0  0  0  0  0  0
   -2.4495    1.3932    1.1327 C   0  0  0  0  0  0  0  0  0  0  0  0
    0.4612    0.1404    0.1501 C   0  0  0  0  0  0  0  0  0  0  0  0
    0.5339    2.3900    0.1589 O   0  0  0  0  0  0  0  0  0  0  0  0
   -2.2208    2.4210    2.0802 C   0  0  0  0  0  0  0  0  0  0  0  0
   -3.3536    0.3573    1.4675 C   0  0  0  0  0  0  0  0  0  0  0  0
    1.7724    0.5294    0.3716 C   0  0  0  0  0  0  0  0  0  0  0  0
    1.7827    1.9221    0.3792 C   0  0  0  0  0  0  0  0  0  0  0  0
   -2.8698    2.4101    3.3280 C   0  0  0  0  0  0  0  0  0  0  0  0
   -4.0117    0.3505    2.7123 C   0  0  0  0  0  0  0  0  0  0  0  0
    2.9513   -0.2124    0.5687 C   0  0  0  0  0  0  0  0  0  0  0  0
    2.9731    2.6353    0.5984 C   0  0  0  0  0  0  0  0  0  0  0  0
   -3.7726    1.3781    3.6447 C   0  0  0  0  0  0  0  0  0  0  0  0
    4.1578    0.4935    0.7704 C   0  0  0  0  0  0  0  0  0  0  0  0
    4.1671    1.9080    0.7883 C   0  0  0  0  0  0  0  0  0  0  0  0
   -4.5646    1.3737    5.1415 Cl  0  0  0  0  0  0  0  0  0  0  0  0
   -2.0605    0.5679   -0.8098 H   0  0  0  0  0  0  0  0  0  0  0  0
   -3.0375    2.5743   -1.0149 H   0  0  0  0  0  0  0  0  0  0  0  0
    0.1081   -0.8170    0.1015 H   0  0  0  0  0  0  0  0  0  0  0  0
   -1.5731    3.1844    1.8671 H   0  0  0  0  0  0  0  0  0  0  0  0
   -3.5390   -0.4018    0.8065 H   0  0  0  0  0  0  0  0  0  0  0  0
   -2.6806    3.1556    4.0010 H   0  0  0  0  0  0  0  0  0  0  0  0
   -4.6628   -0.4057    2.9349 H   0  0  0  0  0  0  0  0  0  0  0  0
    2.9389   -1.2329    0.5626 H   0  0  0  0  0  0  0  0  0  0  0  0
    2.9696    3.6564    0.6189 H   0  0  0  0  0  0  0  0  0  0  0  0
    5.0310   -0.0198    0.9054 H   0  0  0  0  0  0  0  0  0  0  0  0
    5.0449    2.4089    0.9415 H   0  0  0  0  0  0  0  0  0  0  0  0
  1  2  1  0  0  0  0 
  1  3  1  0  0  0  0 
  1  4  1  0  0  0  0 
  3  5  2  0  0  0  0 
  3  6  1  0  0  0  0 
  4  7  2  0  0  0  0 
  4  8  1  0  0  0  0 
  5  9  1  0  0  0  0 
  6 10  1  0  0  0  0 
  7 11  1  0  0  0  0 
  8 12  2  0  0  0  0 
  9 10  1  0  0  0  0 
  9 13  2  0  0  0  0 
 10 14  2  0  0  0  0 
 11 15  2  0  0  0  0 
 12 15  1  0  0  0  0 
 13 16  1  0  0  0  0 
 14 17  1  0  0  0  0 
 15 18  1  0  0  0  0 
 16 17  2  0  0  0  0 
  1 19  1  0  0  0  0 
  2 20  1  0  0  0  0 
  5 21  1  0  0  0  0 
  7 22  1  0  0  0  0 
  8 23  1  0  0  0  0 
 11 24  1  0  0  0  0 
 12 25  1  0  0  0  0 
 13 26  1  0  0  0  0 
 14 27  1  0  0  0  0 
 16 28  1  0  0  0  0 
 17 29  1  0  0  0  0 
M  END
> <cdk:Title>
cloridarol

> <Conformer>
1

> <SuperDrugID>
SD002694

$$$$
