sivelestat
  CDK     0628171801

 52 53  0  0  0  0  0  0  0  0999 V2000
    2.6248   -1.5705    2.7850 C   0  0  0  0  0  0  0  0  0  0  0  0
    2.7174   -2.5235    1.8109 N   0  0  0  0  0  0  0  0  0  0  0  0
    1.5374   -1.4465    3.3990 O   0  0  0  0  0  0  0  0  0  0  0  0
    3.7382   -0.7339    3.1145 C   0  0  0  0  0  0  0  0  0  0  0  0
    1.6488   -3.3693    1.3834 C   0  0  2  0  0  0  0  0  0  0  0  0
    3.5886    0.5822    3.6500 C   0  0  0  0  0  0  0  0  0  0  0  0
    5.0515   -1.2350    2.9202 C   0  0  0  0  0  0  0  0  0  0  0  0
    2.1816   -4.4765    0.5780 C   0  0  0  0  0  0  0  0  0  0  0  0
    2.3407    1.1072    3.8186 N   0  0  0  0  0  0  0  0  0  0  0  0
    4.7389    1.3545    3.9408 C   0  0  0  0  0  0  0  0  0  0  0  0
    6.1837   -0.4632    3.2275 C   0  0  0  0  0  0  0  0  0  0  0  0
    1.9671   -5.7601    0.9512 O   0  0  0  0  0  0  0  0  0  0  0  0
    2.8312   -4.2452   -0.4673 O   0  0  0  0  0  0  0  0  0  0  0  0
    1.7761    2.0438    5.1462 S   0  0  1  0  0  0  0  0  0  0  0  0
    6.0269    0.8349    3.7341 C   0  0  0  0  0  0  0  0  0  0  0  0
    2.9461    2.3048    6.2118 O   0  0  0  0  0  0  0  0  0  0  0  0
    1.2609    3.4526    4.5778 O   0  0  0  0  0  0  0  0  0  0  0  0
    0.4200    1.2011    5.9254 C   0  0  0  0  0  0  0  0  0  0  0  0
    0.2793    1.2278    7.3278 C   0  0  0  0  0  0  0  0  0  0  0  0
   -0.5220    0.4879    5.1552 C   0  0  0  0  0  0  0  0  0  0  0  0
   -0.7613    0.5208    7.9550 C   0  0  0  0  0  0  0  0  0  0  0  0
   -1.5540   -0.2347    5.7838 C   0  0  0  0  0  0  0  0  0  0  0  0
   -1.6852   -0.2242    7.1881 C   0  0  0  0  0  0  0  0  0  0  0  0
   -2.6707   -0.9909    7.7581 O   0  0  0  0  0  0  0  0  0  0  0  0
   -3.3020   -0.8542    8.9689 C   0  0  0  0  0  0  0  0  0  0  0  0
   -3.9056   -2.0639    9.6130 C   0  0  2  0  0  0  0  0  0  0  0  0
   -3.3777    0.2803    9.4997 O   0  0  0  0  0  0  0  0  0  0  0  0
   -2.7553   -3.0954    9.8531 C   0  0  0  0  0  0  0  0  0  0  0  0
   -4.9863   -2.6727    8.6649 C   0  0  0  0  0  0  0  0  0  0  0  0
   -4.5679   -1.7322   10.9925 C   0  0  0  0  0  0  0  0  0  0  0  0
    3.5660   -2.6107    1.3459 H   0  0  0  0  0  0  0  0  0  0  0  0
    0.9513   -2.7866    0.7775 H   0  0  0  0  0  0  0  0  0  0  0  0
    1.1089   -3.7719    2.2456 H   0  0  0  0  0  0  0  0  0  0  0  0
    5.2047   -2.1803    2.5611 H   0  0  0  0  0  0  0  0  0  0  0  0
    1.6760    0.8649    3.1561 H   0  0  0  0  0  0  0  0  0  0  0  0
    4.6551    2.3128    4.2854 H   0  0  0  0  0  0  0  0  0  0  0  0
    7.1216   -0.8469    3.0822 H   0  0  0  0  0  0  0  0  0  0  0  0
    2.3124   -6.4979    0.4043 H   0  0  0  0  0  0  0  0  0  0  0  0
    6.8513    1.4025    3.9482 H   0  0  0  0  0  0  0  0  0  0  0  0
    0.9390    1.7530    7.9061 H   0  0  0  0  0  0  0  0  0  0  0  0
   -0.4618    0.4817    4.1343 H   0  0  0  0  0  0  0  0  0  0  0  0
   -0.8255    0.5358    8.9749 H   0  0  0  0  0  0  0  0  0  0  0  0
   -2.2112   -0.7712    5.2117 H   0  0  0  0  0  0  0  0  0  0  0  0
   -3.1287   -3.9877   10.3608 H   0  0  0  0  0  0  0  0  0  0  0  0
   -2.3010   -3.4133    8.9108 H   0  0  0  0  0  0  0  0  0  0  0  0
   -1.9667   -2.6588   10.4731 H   0  0  0  0  0  0  0  0  0  0  0  0
   -5.4632   -3.5412    9.1262 H   0  0  0  0  0  0  0  0  0  0  0  0
   -5.7640   -1.9386    8.4393 H   0  0  0  0  0  0  0  0  0  0  0  0
   -4.5426   -2.9980    7.7210 H   0  0  0  0  0  0  0  0  0  0  0  0
   -5.0210   -2.6225   11.4348 H   0  0  0  0  0  0  0  0  0  0  0  0
   -5.3490   -0.9773   10.8791 H   0  0  0  0  0  0  0  0  0  0  0  0
   -3.8253   -1.3493   11.6966 H   0  0  0  0  0  0  0  0  0  0  0  0
  1  2  1  0  0  0  0 
  1  3  2  0  0  0  0 
  1  4  1  0  0  0  0 
  2  5  1  0  0  0  0 
  4  6  2  0  0  0  0 
  4  7  1  0  0  0  0 
  5  8  1  0  0  0  0 
  6  9  1  0  0  0  0 
  6 10  1  0  0  0  0 
  7 11  2  0  0  0  0 
  8 12  1  0  0  0  0 
  8 13  2  0  0  0  0 
  9 14  1  0  0  0  0 
 10 15  2  0  0  0  0 
 11 15  1  0  0  0  0 
 14 16  2  0  0  0  0 
 14 17  2  0  0  0  0 
 14 18  1  0  0  0  0 
 18 19  2  0  0  0  0 
 18 20  1  0  0  0  0 
 19 21  1  0  0  0  0 
 20 22  2  0  0  0  0 
 21 23  2  0  0  0  0 
 22 23  1  0  0  0  0 
 23 24  1  0  0  0  0 
 24 25  1  0  0  0  0 
 25 26  1  0  0  0  0 
 25 27  2  0  0  0  0 
 26 28  1  0  0  0  0 
 26 29  1  0  0  0  0 
 26 30  1  0  0  0  0 
  2 31  1  0  0  0  0 
  5 32  1  0  0  0  0 
  5 33  1  0  0  0  0 
  7 34  1  0  0  0  0 
  9 35  1  0  0  0  0 
 10 36  1  0  0  0  0 
 11 37  1  0  0  0  0 
 12 38  1  0  0  0  0 
 15 39  1  0  0  0  0 
 19 40  1  0  0  0  0 
 20 41  1  0  0  0  0 
 21 42  1  0  0  0  0 
 22 43  1  0  0  0  0 
 28 44  1  0  0  0  0 
 28 45  1  0  0  0  0 
 28 46  1  0  0  0  0 
 29 47  1  0  0  0  0 
 29 48  1  0  0  0  0 
 29 49  1  0  0  0  0 
 30 50  1  0  0  0  0 
 30 51  1  0  0  0  0 
 30 52  1  0  0  0  0 
M  END
> <cdk:Title>
sivelestat

> <Conformer>
1

> <SuperDrugID>
SD002203

$$$$
