benidipine
  CDK     0628171801

 68 71  0  0  0  0  0  0  0  0999 V2000
    1.8090   -1.3660   -2.1722 C   0  0  0  0  0  0  0  0  0  0  0  0
    1.7186    0.0031   -2.1590 O   0  0  0  0  0  0  0  0  0  0  0  0
    1.3999   -1.9791   -1.1547 O   0  0  0  0  0  0  0  0  0  0  0  0
    2.3261   -2.0903   -3.2640 C   0  0  0  0  0  0  0  0  0  0  0  0
    1.2540    0.8204   -1.0733 C   0  0  1  0  0  0  0  0  0  0  0  0
    2.8430   -3.4628   -3.0161 C   0  0  1  0  0  0  0  0  0  0  0  0
    2.3710   -1.6103   -4.5334 C   0  0  0  0  0  0  0  0  0  0  0  0
    2.3553    0.9863    0.0066 C   0  0  1  0  0  0  0  0  0  0  0  0
    0.8049    2.2185   -1.5693 C   0  0  1  0  0  0  0  0  0  0  0  0
    3.1657   -4.3004   -4.2042 C   0  0  0  0  0  0  0  0  0  0  0  0
    4.0436   -3.3686   -2.1110 C   0  0  0  0  0  0  0  0  0  0  0  0
    1.9175   -0.2882   -4.9595 C   0  0  0  0  0  0  0  0  0  0  0  0
    2.8412   -2.3880   -5.5155 N   0  0  0  0  0  0  0  0  0  0  0  0
    1.8710    1.7856    1.1817 N   0  0  2  0  0  0  0  0  0  0  0  0
    0.3408    3.1040   -0.3792 C   0  0  2  0  0  0  0  0  0  0  0  0
    3.4705   -5.6664   -3.9924 C   0  0  0  0  0  0  0  0  0  0  0  0
    3.1691   -3.6857   -5.4180 C   0  0  0  0  0  0  0  0  0  0  0  0
    5.2901   -2.9038   -2.5979 C   0  0  0  0  0  0  0  0  0  0  0  0
    3.9578   -3.7318   -0.7480 C   0  0  0  0  0  0  0  0  0  0  0  0
    0.9409    1.0777    2.1264 C   0  0  2  0  0  0  0  0  0  0  0  0
    1.4031    3.1473    0.7567 C   0  0  2  0  0  0  0  0  0  0  0  0
    4.0083   -6.4732   -4.9562 O   0  0  0  0  0  0  0  0  0  0  0  0
    3.2579   -6.1957   -2.8737 O   0  0  0  0  0  0  0  0  0  0  0  0
    3.5158   -4.3164   -6.6860 C   0  0  0  0  0  0  0  0  0  0  0  0
    6.4516   -2.8374   -1.7842 C   0  0  0  0  0  0  0  0  0  0  0  0
    5.0713   -3.6105    0.0983 C   0  0  0  0  0  0  0  0  0  0  0  0
    1.4892   -0.2140    2.6267 C   0  0  0  0  0  0  0  0  0  0  0  0
    4.4194   -7.8378   -4.8207 C   0  0  0  0  0  0  0  0  0  0  0  0
    7.6462   -2.4781   -2.2926 N   0  0  0  0  0  0  0  0  0  0  0  0
    6.3059   -3.1771   -0.4147 C   0  0  0  0  0  0  0  0  0  0  0  0
    0.9057   -1.4499    2.2548 C   0  0  0  0  0  0  0  0  0  0  0  0
    2.6400   -0.2250    3.4488 C   0  0  0  0  0  0  0  0  0  0  0  0
    7.8156   -2.2523   -3.4275 O   0  0  0  0  0  0  0  0  0  0  0  0
    8.6921   -2.3753   -1.5758 O   0  0  0  0  0  0  0  0  0  0  0  0
    1.4733   -2.6663    2.6778 C   0  0  0  0  0  0  0  0  0  0  0  0
    3.2023   -1.4426    3.8771 C   0  0  0  0  0  0  0  0  0  0  0  0
    2.6236   -2.6630    3.4873 C   0  0  0  0  0  0  0  0  0  0  0  0
    0.3841    0.3294   -0.6290 H   0  0  0  0  0  0  0  0  0  0  0  0
    2.0285   -3.9966   -2.5117 H   0  0  0  0  0  0  0  0  0  0  0  0
    2.7153    0.0057    0.3127 H   0  0  0  0  0  0  0  0  0  0  0  0
    3.2172    1.4931   -0.4317 H   0  0  0  0  0  0  0  0  0  0  0  0
    1.6328    2.7107   -2.0883 H   0  0  0  0  0  0  0  0  0  0  0  0
   -0.0176    2.1034   -2.2815 H   0  0  0  0  0  0  0  0  0  0  0  0
    2.5562    0.4839   -4.5274 H   0  0  0  0  0  0  0  0  0  0  0  0
    0.8827   -0.1252   -4.6490 H   0  0  0  0  0  0  0  0  0  0  0  0
    1.9543   -0.1643   -6.0446 H   0  0  0  0  0  0  0  0  0  0  0  0
    2.9284   -1.9790   -6.3917 H   0  0  0  0  0  0  0  0  0  0  0  0
   -0.5971    2.7066    0.0207 H   0  0  0  0  0  0  0  0  0  0  0  0
    0.1436    4.1184   -0.7377 H   0  0  0  0  0  0  0  0  0  0  0  0
    5.3515   -2.6149   -3.5769 H   0  0  0  0  0  0  0  0  0  0  0  0
    3.0772   -4.0765   -0.3572 H   0  0  0  0  0  0  0  0  0  0  0  0
   -0.0297    0.9238    1.6457 H   0  0  0  0  0  0  0  0  0  0  0  0
    0.7554    1.7166    2.9962 H   0  0  0  0  0  0  0  0  0  0  0  0
    2.2692    3.7120    0.4010 H   0  0  0  0  0  0  0  0  0  0  0  0
    0.9997    3.7045    1.6074 H   0  0  0  0  0  0  0  0  0  0  0  0
    4.5618   -4.6312   -6.6662 H   0  0  0  0  0  0  0  0  0  0  0  0
    3.4014   -3.6390   -7.5373 H   0  0  0  0  0  0  0  0  0  0  0  0
    2.8708   -5.1780   -6.8723 H   0  0  0  0  0  0  0  0  0  0  0  0
    4.9837   -3.8468    1.0891 H   0  0  0  0  0  0  0  0  0  0  0  0
    3.5906   -8.4553   -4.4739 H   0  0  0  0  0  0  0  0  0  0  0  0
    5.2443   -7.9010   -4.1114 H   0  0  0  0  0  0  0  0  0  0  0  0
    4.7529   -8.2013   -5.7920 H   0  0  0  0  0  0  0  0  0  0  0  0
    7.1009   -3.1153    0.2264 H   0  0  0  0  0  0  0  0  0  0  0  0
    0.0714   -1.4739    1.6639 H   0  0  0  0  0  0  0  0  0  0  0  0
    3.0781    0.6532    3.7368 H   0  0  0  0  0  0  0  0  0  0  0  0
    1.0541   -3.5534    2.3930 H   0  0  0  0  0  0  0  0  0  0  0  0
    4.0344   -1.4410    4.4694 H   0  0  0  0  0  0  0  0  0  0  0  0
    3.0394   -3.5475    3.7916 H   0  0  0  0  0  0  0  0  0  0  0  0
  1  2  1  0  0  0  0 
  1  3  2  0  0  0  0 
  1  4  1  0  0  0  0 
  6  4  1  0  0  0  0 
  4  7  2  0  0  0  0 
  5  2  1  0  0  0  0 
  5  8  1  0  0  0  0 
  5  9  1  0  0  0  0 
  6 10  1  0  0  0  0 
  6 11  1  0  0  0  0 
  7 12  1  0  0  0  0 
  7 13  1  0  0  0  0 
  8 14  1  0  0  0  0 
  9 15  1  0  0  0  0 
 10 16  1  0  0  0  0 
 10 17  2  0  0  0  0 
 11 18  2  0  0  0  0 
 11 19  1  0  0  0  0 
 13 17  1  0  0  0  0 
 14 20  1  0  0  0  0 
 14 21  1  0  0  0  0 
 15 21  1  0  0  0  0 
 16 22  1  0  0  0  0 
 16 23  2  0  0  0  0 
 17 24  1  0  0  0  0 
 18 25  1  0  0  0  0 
 19 26  2  0  0  0  0 
 20 27  1  0  0  0  0 
 22 28  1  0  0  0  0 
 25 29  1  0  0  0  0 
 25 30  2  0  0  0  0 
 26 30  1  0  0  0  0 
 27 31  2  0  0  0  0 
 27 32  1  0  0  0  0 
 29 33  2  0  0  0  0 
 29 34  1  0  0  0  0 
 31 35  1  0  0  0  0 
 32 36  2  0  0  0  0 
 35 37  2  0  0  0  0 
 36 37  1  0  0  0  0 
  5 38  1  0  0  0  0 
 39  6  1  0  0  0  0 
 40  8  1  0  0  0  0 
 41  8  1  0  0  0  0 
 42  9  1  0  0  0  0 
 43  9  1  0  0  0  0 
 44 12  1  0  0  0  0 
 45 12  1  0  0  0  0 
 46 12  1  0  0  0  0 
 47 13  1  0  0  0  0 
 48 15  1  0  0  0  0 
 49 15  1  0  0  0  0 
 50 18  1  0  0  0  0 
 51 19  1  0  0  0  0 
 52 20  1  0  0  0  0 
 53 20  1  0  0  0  0 
 54 21  1  0  0  0  0 
 55 21  1  0  0  0  0 
 56 24  1  0  0  0  0 
 57 24  1  0  0  0  0 
 58 24  1  0  0  0  0 
 59 26  1  0  0  0  0 
 60 28  1  0  0  0  0 
 61 28  1  0  0  0  0 
 62 28  1  0  0  0  0 
 63 30  1  0  0  0  0 
 64 31  1  0  0  0  0 
 65 32  1  0  0  0  0 
 66 35  1  0  0  0  0 
 67 36  1  0  0  0  0 
 68 37  1  0  0  0  0 
M  CHG  1  29   1
M  CHG  1  34  -1
M  END
> <cdk:Title>
benidipine

> <Conformer>
1

> <SuperDrugID>
SD003289

$$$$
