dabrafenib
  CDK     0628171802

 55 58  0  0  0  0  0  0  0  0999 V2000
   -3.6996   -1.5749   -2.3885 F   0  0  0  0  0  0  0  0  0  0  0  0
   -2.4224   -1.4279   -2.1309 C   0  0  0  0  0  0  0  0  0  0  0  0
   -1.4635   -1.5279   -3.1711 C   0  0  0  0  0  0  0  0  0  0  0  0
   -2.0217   -1.1811   -0.7989 C   0  0  0  0  0  0  0  0  0  0  0  0
   -1.8634   -1.8028   -4.5039 C   0  0  0  0  0  0  0  0  0  0  0  0
   -0.0945   -1.3616   -2.8539 C   0  0  0  0  0  0  0  0  0  0  0  0
   -2.9732   -1.1799    0.1699 N   0  0  0  0  0  0  0  0  0  0  0  0
   -0.6530   -0.9736   -0.5188 C   0  0  0  0  0  0  0  0  0  0  0  0
   -1.4400   -1.0850   -5.6413 C   0  0  0  0  0  0  0  0  0  0  0  0
   -2.7234   -2.8310   -4.7528 N   0  0  0  0  0  0  0  0  0  0  0  0
    0.3051   -1.0660   -1.5410 C   0  0  0  0  0  0  0  0  0  0  0  0
   -2.7743   -1.9066    1.7121 S   0  0  1  0  0  0  0  0  0  0  0  0
   -2.2049   -1.8897   -6.9973 S   0  0  0  0  0  0  0  0  0  0  0  0
   -0.6359    0.0710   -5.7211 C   0  0  0  0  0  0  0  0  0  0  0  0
   -3.0780   -3.0700   -6.0343 C   0  0  0  0  0  0  0  0  0  0  0  0
   -2.3395   -0.7795    2.7666 O   0  0  0  0  0  0  0  0  0  0  0  0
   -4.2106   -2.4730    2.1531 O   0  0  0  0  0  0  0  0  0  0  0  0
   -1.6229   -3.2600    1.6154 C   0  0  0  0  0  0  0  0  0  0  0  0
   -0.7966    1.0505   -4.7902 N   0  0  0  0  0  0  0  0  0  0  0  0
    0.3259    0.2490   -6.7379 C   0  0  0  0  0  0  0  0  0  0  0  0
   -4.0149   -4.1171   -6.5370 C   0  0  1  0  0  0  0  0  0  0  0  0
   -1.9146   -4.3583    0.7691 C   0  0  0  0  0  0  0  0  0  0  0  0
   -0.4171   -3.2695    2.3584 C   0  0  0  0  0  0  0  0  0  0  0  0
   -0.0648    2.1923   -4.8077 C   0  0  0  0  0  0  0  0  0  0  0  0
    1.0898    1.4285   -6.7261 C   0  0  0  0  0  0  0  0  0  0  0  0
   -5.2226   -3.4215   -7.2424 C   0  0  0  0  0  0  0  0  0  0  0  0
   -3.2414   -5.0247   -7.5441 C   0  0  0  0  0  0  0  0  0  0  0  0
   -4.5619   -5.0038   -5.3700 C   0  0  0  0  0  0  0  0  0  0  0  0
   -2.9896   -4.3857    0.0242 F   0  0  0  0  0  0  0  0  0  0  0  0
   -1.0396   -5.4596    0.7052 C   0  0  0  0  0  0  0  0  0  0  0  0
   -0.0667   -2.2704    3.1201 F   0  0  0  0  0  0  0  0  0  0  0  0
    0.4547   -4.3737    2.2896 C   0  0  0  0  0  0  0  0  0  0  0  0
   -0.2738    3.1419   -3.8839 N   0  0  0  0  0  0  0  0  0  0  0  0
    0.8734    2.3676   -5.7710 N   0  0  0  0  0  0  0  0  0  0  0  0
    0.1367   -5.4724    1.4739 C   0  0  0  0  0  0  0  0  0  0  0  0
    0.6268   -1.4580   -3.5722 H   0  0  0  0  0  0  0  0  0  0  0  0
   -3.8501   -0.8293   -0.0535 H   0  0  0  0  0  0  0  0  0  0  0  0
   -0.3432   -0.7576    0.4303 H   0  0  0  0  0  0  0  0  0  0  0  0
    1.2964   -0.9291   -1.3288 H   0  0  0  0  0  0  0  0  0  0  0  0
    0.4837   -0.4565   -7.4602 H   0  0  0  0  0  0  0  0  0  0  0  0
    1.8100    1.5830   -7.4330 H   0  0  0  0  0  0  0  0  0  0  0  0
   -5.9285   -4.1644   -7.6214 H   0  0  0  0  0  0  0  0  0  0  0  0
   -4.8925   -2.8126   -8.0875 H   0  0  0  0  0  0  0  0  0  0  0  0
   -5.7569   -2.7711   -6.5441 H   0  0  0  0  0  0  0  0  0  0  0  0
   -3.8766   -5.8372   -7.9020 H   0  0  0  0  0  0  0  0  0  0  0  0
   -2.3600   -5.4645   -7.0696 H   0  0  0  0  0  0  0  0  0  0  0  0
   -2.9082   -4.4542   -8.4140 H   0  0  0  0  0  0  0  0  0  0  0  0
   -5.2336   -5.7754   -5.7546 H   0  0  0  0  0  0  0  0  0  0  0  0
   -3.7459   -5.5004   -4.8398 H   0  0  0  0  0  0  0  0  0  0  0  0
   -5.1203   -4.4013   -4.6494 H   0  0  0  0  0  0  0  0  0  0  0  0
   -1.2537   -6.2558    0.0995 H   0  0  0  0  0  0  0  0  0  0  0  0
    1.3226   -4.3813    2.8332 H   0  0  0  0  0  0  0  0  0  0  0  0
    0.2536    3.9559   -3.8922 H   0  0  0  0  0  0  0  0  0  0  0  0
   -0.9572    3.0160   -3.2083 H   0  0  0  0  0  0  0  0  0  0  0  0
    0.7610   -6.2809    1.4377 H   0  0  0  0  0  0  0  0  0  0  0  0
  1  2  1  0  0  0  0 
  2  3  2  0  0  0  0 
  2  4  1  0  0  0  0 
  3  5  1  0  0  0  0 
  3  6  1  0  0  0  0 
  4  7  1  0  0  0  0 
  4  8  2  0  0  0  0 
  5  9  2  0  0  0  0 
  5 10  1  0  0  0  0 
  6 11  2  0  0  0  0 
  7 12  1  0  0  0  0 
  8 11  1  0  0  0  0 
  9 13  1  0  0  0  0 
  9 14  1  0  0  0  0 
 10 15  2  0  0  0  0 
 12 16  2  0  0  0  0 
 12 17  2  0  0  0  0 
 12 18  1  0  0  0  0 
 13 15  1  0  0  0  0 
 14 19  2  0  0  0  0 
 14 20  1  0  0  0  0 
 15 21  1  0  0  0  0 
 18 22  2  0  0  0  0 
 18 23  1  0  0  0  0 
 19 24  1  0  0  0  0 
 20 25  2  0  0  0  0 
 21 26  1  0  0  0  0 
 21 27  1  0  0  0  0 
 21 28  1  0  0  0  0 
 22 29  1  0  0  0  0 
 22 30  1  0  0  0  0 
 23 31  1  0  0  0  0 
 23 32  2  0  0  0  0 
 24 33  1  0  0  0  0 
 24 34  2  0  0  0  0 
 25 34  1  0  0  0  0 
 30 35  2  0  0  0  0 
 32 35  1  0  0  0  0 
  6 36  1  0  0  0  0 
  7 37  1  0  0  0  0 
  8 38  1  0  0  0  0 
 11 39  1  0  0  0  0 
 20 40  1  0  0  0  0 
 25 41  1  0  0  0  0 
 26 42  1  0  0  0  0 
 26 43  1  0  0  0  0 
 26 44  1  0  0  0  0 
 27 45  1  0  0  0  0 
 27 46  1  0  0  0  0 
 27 47  1  0  0  0  0 
 28 48  1  0  0  0  0 
 28 49  1  0  0  0  0 
 28 50  1  0  0  0  0 
 30 51  1  0  0  0  0 
 32 52  1  0  0  0  0 
 33 53  1  0  0  0  0 
 33 54  1  0  0  0  0 
 35 55  1  0  0  0  0 
M  END
> <cdk:Title>
dabrafenib

> <Conformer>
1

> <SuperDrugID>
SD003764

$$$$
