nabumetone
  CDK     0628171801

 33 34  0  0  0  0  0  0  0  0999 V2000
   -0.5788   -1.5470    1.2391 C   0  0  1  0  0  0  0  0  0  0  0  0
   -0.4018   -0.7212   -0.0647 C   0  0  2  0  0  0  0  0  0  0  0  0
    0.5950   -2.4105    1.5570 C   0  0  0  0  0  0  0  0  0  0  0  0
    0.7899    0.1625   -0.0800 C   0  0  0  0  0  0  0  0  0  0  0  0
    1.6801   -1.8898    2.2993 C   0  0  0  0  0  0  0  0  0  0  0  0
    0.6608   -3.7515    1.1140 C   0  0  0  0  0  0  0  0  0  0  0  0
    0.8182    1.4376    0.6627 C   0  0  0  0  0  0  0  0  0  0  0  0
    1.7948   -0.1766   -0.7503 O   0  0  0  0  0  0  0  0  0  0  0  0
    2.8163   -2.6778    2.5881 C   0  0  0  0  0  0  0  0  0  0  0  0
    1.7783   -4.5537    1.4081 C   0  0  0  0  0  0  0  0  0  0  0  0
    2.8636   -4.0291    2.1434 C   0  0  0  0  0  0  0  0  0  0  0  0
    3.9035   -2.1427    3.3137 C   0  0  0  0  0  0  0  0  0  0  0  0
    3.9965   -4.8182    2.4427 C   0  0  0  0  0  0  0  0  0  0  0  0
    5.0281   -2.9370    3.5951 C   0  0  0  0  0  0  0  0  0  0  0  0
    5.0759   -4.2788    3.1700 C   0  0  0  0  0  0  0  0  0  0  0  0
    6.1733   -5.0456    3.4482 O   0  0  0  0  0  0  0  0  0  0  0  0
    6.0694   -5.7171    4.7160 C   0  0  0  0  0  0  0  0  0  0  0  0
   -0.7847   -0.8743    2.0778 H   0  0  0  0  0  0  0  0  0  0  0  0
   -1.4728   -2.1683    1.1269 H   0  0  0  0  0  0  0  0  0  0  0  0
   -1.2920   -0.1052   -0.2097 H   0  0  0  0  0  0  0  0  0  0  0  0
   -0.3532   -1.4128   -0.9103 H   0  0  0  0  0  0  0  0  0  0  0  0
    1.6430   -0.9205    2.6263 H   0  0  0  0  0  0  0  0  0  0  0  0
   -0.1058   -4.1556    0.5694 H   0  0  0  0  0  0  0  0  0  0  0  0
    1.7878    1.9303    0.5623 H   0  0  0  0  0  0  0  0  0  0  0  0
    0.6295    1.2583    1.7215 H   0  0  0  0  0  0  0  0  0  0  0  0
    0.0472    2.1038    0.2727 H   0  0  0  0  0  0  0  0  0  0  0  0
    1.7947   -5.5228    1.0790 H   0  0  0  0  0  0  0  0  0  0  0  0
    3.8875   -1.1730    3.6449 H   0  0  0  0  0  0  0  0  0  0  0  0
    4.0419   -5.7933    2.1360 H   0  0  0  0  0  0  0  0  0  0  0  0
    5.8128   -2.5381    4.1128 H   0  0  0  0  0  0  0  0  0  0  0  0
    6.9789   -6.2976    4.8708 H   0  0  0  0  0  0  0  0  0  0  0  0
    5.9777   -5.0045    5.5404 H   0  0  0  0  0  0  0  0  0  0  0  0
    5.2196   -6.4047    4.7313 H   0  0  0  0  0  0  0  0  0  0  0  0
  1  2  1  0  0  0  0 
  1  3  1  0  0  0  0 
  2  4  1  0  0  0  0 
  3  5  1  0  0  0  0 
  3  6  2  0  0  0  0 
  4  7  1  0  0  0  0 
  4  8  2  0  0  0  0 
  5  9  2  0  0  0  0 
  6 10  1  0  0  0  0 
  9 11  1  0  0  0  0 
  9 12  1  0  0  0  0 
 10 11  2  0  0  0  0 
 11 13  1  0  0  0  0 
 12 14  2  0  0  0  0 
 13 15  2  0  0  0  0 
 14 15  1  0  0  0  0 
 15 16  1  0  0  0  0 
 16 17  1  0  0  0  0 
  1 18  1  0  0  0  0 
  1 19  1  0  0  0  0 
  2 20  1  0  0  0  0 
  2 21  1  0  0  0  0 
  5 22  1  0  0  0  0 
  6 23  1  0  0  0  0 
  7 24  1  0  0  0  0 
  7 25  1  0  0  0  0 
  7 26  1  0  0  0  0 
 10 27  1  0  0  0  0 
 12 28  1  0  0  0  0 
 13 29  1  0  0  0  0 
 14 30  1  0  0  0  0 
 17 31  1  0  0  0  0 
 17 32  1  0  0  0  0 
 17 33  1  0  0  0  0 
M  END
> <cdk:Title>
nabumetone

> <Conformer>
1

> <SuperDrugID>
SD001659

$$$$
