propizepine
  CDK     0628171801

 42 44  0  0  0  0  0  0  0  0999 V2000
    0.2459   -1.3775   -0.9714 C   0  0  2  0  0  0  0  0  0  0  0  0
    0.4790   -2.2033    0.3486 C   0  0  1  0  0  0  0  0  0  0  0  0
    0.8347   -0.0298   -1.0580 N   0  0  0  0  0  0  0  0  0  0  0  0
    0.0372   -3.6457    0.2660 N   0  0  2  0  0  0  0  0  0  0  0  0
    1.9030   -2.0908    0.9627 C   0  0  0  0  0  0  0  0  0  0  0  0
    1.8323    0.2032   -2.0133 C   0  0  0  0  0  0  0  0  0  0  0  0
    0.3244    0.9782   -0.2301 C   0  0  0  0  0  0  0  0  0  0  0  0
    0.8217   -4.5789   -0.6004 C   0  0  0  0  0  0  0  0  0  0  0  0
   -1.4376   -3.8664    0.1931 C   0  0  0  0  0  0  0  0  0  0  0  0
    1.8752    1.3656   -2.8379 C   0  0  0  0  0  0  0  0  0  0  0  0
    2.8445   -0.7723   -2.2382 C   0  0  0  0  0  0  0  0  0  0  0  0
   -0.5141    0.6624    0.6503 O   0  0  0  0  0  0  0  0  0  0  0  0
    0.5751    2.3845   -0.2991 C   0  0  0  0  0  0  0  0  0  0  0  0
    1.0648    2.4424   -2.7045 N   0  0  0  0  0  0  0  0  0  0  0  0
    2.8392    1.4904   -3.8659 C   0  0  0  0  0  0  0  0  0  0  0  0
    3.8167   -0.6335   -3.2382 C   0  0  0  0  0  0  0  0  0  0  0  0
    0.8080    3.0481   -1.5281 C   0  0  0  0  0  0  0  0  0  0  0  0
    0.4914    3.2035    0.8598 C   0  0  0  0  0  0  0  0  0  0  0  0
    3.8155    0.5012   -4.0563 C   0  0  0  0  0  0  0  0  0  0  0  0
    0.8178    4.4068   -1.5830 N   0  0  0  0  0  0  0  0  0  0  0  0
    0.5370    4.6066    0.7684 C   0  0  0  0  0  0  0  0  0  0  0  0
    0.6777    5.1988   -0.4946 C   0  0  0  0  0  0  0  0  0  0  0  0
   -0.8332   -1.2715   -1.1213 H   0  0  0  0  0  0  0  0  0  0  0  0
    0.5595   -1.9923   -1.8132 H   0  0  0  0  0  0  0  0  0  0  0  0
   -0.1531   -1.7479    1.1143 H   0  0  0  0  0  0  0  0  0  0  0  0
    1.9227   -2.5895    1.9350 H   0  0  0  0  0  0  0  0  0  0  0  0
    2.6560   -2.5572    0.3319 H   0  0  0  0  0  0  0  0  0  0  0  0
    2.1822   -1.0462    1.1126 H   0  0  0  0  0  0  0  0  0  0  0  0
    1.8572   -4.6307   -0.2701 H   0  0  0  0  0  0  0  0  0  0  0  0
    0.4336   -5.5972   -0.5308 H   0  0  0  0  0  0  0  0  0  0  0  0
    0.7998   -4.2747   -1.6474 H   0  0  0  0  0  0  0  0  0  0  0  0
   -1.9527   -3.2722    0.9510 H   0  0  0  0  0  0  0  0  0  0  0  0
   -1.6764   -4.9141    0.3932 H   0  0  0  0  0  0  0  0  0  0  0  0
   -1.8304   -3.6025   -0.7916 H   0  0  0  0  0  0  0  0  0  0  0  0
    2.8904   -1.6215   -1.6825 H   0  0  0  0  0  0  0  0  0  0  0  0
    0.8179    2.9208   -3.5124 H   0  0  0  0  0  0  0  0  0  0  0  0
    2.8583    2.3184   -4.4701 H   0  0  0  0  0  0  0  0  0  0  0  0
    4.5212   -1.3630   -3.3695 H   0  0  0  0  0  0  0  0  0  0  0  0
    0.3826    2.7848    1.7876 H   0  0  0  0  0  0  0  0  0  0  0  0
    4.5271    0.6088   -4.7810 H   0  0  0  0  0  0  0  0  0  0  0  0
    0.4565    5.1863    1.6050 H   0  0  0  0  0  0  0  0  0  0  0  0
    0.6888    6.2150   -0.5995 H   0  0  0  0  0  0  0  0  0  0  0  0
  2  1  1  0  0  0  0 
  1  3  1  0  0  0  0 
  2  4  1  0  0  0  0 
  2  5  1  0  0  0  0 
  3  6  1  0  0  0  0 
  3  7  1  0  0  0  0 
  4  8  1  0  0  0  0 
  4  9  1  0  0  0  0 
  6 10  2  0  0  0  0 
  6 11  1  0  0  0  0 
  7 12  2  0  0  0  0 
  7 13  1  0  0  0  0 
 10 14  1  0  0  0  0 
 10 15  1  0  0  0  0 
 11 16  2  0  0  0  0 
 13 17  2  0  0  0  0 
 13 18  1  0  0  0  0 
 14 17  1  0  0  0  0 
 15 19  2  0  0  0  0 
 16 19  1  0  0  0  0 
 17 20  1  0  0  0  0 
 18 21  2  0  0  0  0 
 20 22  2  0  0  0  0 
 21 22  1  0  0  0  0 
  1 23  1  0  0  0  0 
  1 24  1  0  0  0  0 
  2 25  1  0  0  0  0 
  5 26  1  0  0  0  0 
  5 27  1  0  0  0  0 
  5 28  1  0  0  0  0 
  8 29  1  0  0  0  0 
  8 30  1  0  0  0  0 
  8 31  1  0  0  0  0 
  9 32  1  0  0  0  0 
  9 33  1  0  0  0  0 
  9 34  1  0  0  0  0 
 11 35  1  0  0  0  0 
 14 36  1  0  0  0  0 
 15 37  1  0  0  0  0 
 16 38  1  0  0  0  0 
 18 39  1  0  0  0  0 
 19 40  1  0  0  0  0 
 21 41  1  0  0  0  0 
 22 42  1  0  0  0  0 
M  END
> <cdk:Title>
propizepine

> <Conformer>
1

> <SuperDrugID>
SD002066

$$$$
