fenbutrazate
  CDK     0628171801

 56 58  0  0  0  0  0  0  0  0999 V2000
   -0.3139   -0.1625    0.8405 C   0  0  0  0  0  0  0  0  0  0  0  0
   -0.8769   -1.3642    1.6511 C   0  0  1  0  0  0  0  0  0  0  0  0
   -0.0410   -2.6905    1.5085 C   0  0  1  0  0  0  0  0  0  0  0  0
   -1.1347   -1.0488    3.1127 N   0  0  2  0  0  0  0  0  0  0  0  0
   -0.7000   -3.7778    2.2040 O   0  0  0  0  0  0  0  0  0  0  0  0
    0.1770   -3.1390    0.1024 C   0  0  0  0  0  0  0  0  0  0  0  0
    0.0725   -0.5518    3.8782 C   0  0  2  0  0  0  0  0  0  0  0  0
   -1.8638   -2.2123    3.7214 C   0  0  2  0  0  0  0  0  0  0  0  0
   -1.0539   -3.5255    3.5787 C   0  0  2  0  0  0  0  0  0  0  0  0
    1.4595   -3.0691   -0.4975 C   0  0  0  0  0  0  0  0  0  0  0  0
   -0.8935   -3.6734   -0.6537 C   0  0  0  0  0  0  0  0  0  0  0  0
   -0.0728   -0.1716    5.3814 C   0  0  1  0  0  0  0  0  0  0  0  0
    1.6689   -3.5426   -1.8057 C   0  0  0  0  0  0  0  0  0  0  0  0
   -0.6811   -4.1545   -1.9584 C   0  0  0  0  0  0  0  0  0  0  0  0
    1.1950   -0.4236    5.9935 O   0  0  0  0  0  0  0  0  0  0  0  0
    0.5998   -4.0928   -2.5326 C   0  0  0  0  0  0  0  0  0  0  0  0
    1.5424   -0.3371    7.3069 C   0  0  0  0  0  0  0  0  0  0  0  0
    2.8961   -0.7983    7.6969 C   0  0  1  0  0  0  0  0  0  0  0  0
    0.7383    0.0962    8.1668 O   0  0  0  0  0  0  0  0  0  0  0  0
    3.1355   -2.2679    7.2187 C   0  0  2  0  0  0  0  0  0  0  0  0
    3.9395    0.1560    7.2025 C   0  0  0  0  0  0  0  0  0  0  0  0
    4.4902   -2.8677    7.6595 C   0  0  0  0  0  0  0  0  0  0  0  0
    4.7027    0.9134    8.1257 C   0  0  0  0  0  0  0  0  0  0  0  0
    4.2206    0.3092    5.8198 C   0  0  0  0  0  0  0  0  0  0  0  0
    5.7332    1.7642    7.6869 C   0  0  0  0  0  0  0  0  0  0  0  0
    5.2554    1.1537    5.3811 C   0  0  0  0  0  0  0  0  0  0  0  0
    6.0155    1.8777    6.3153 C   0  0  0  0  0  0  0  0  0  0  0  0
   -0.8919    0.7357    1.0708 H   0  0  0  0  0  0  0  0  0  0  0  0
   -0.3969   -0.3529   -0.2319 H   0  0  0  0  0  0  0  0  0  0  0  0
    0.7387    0.0185    1.0674 H   0  0  0  0  0  0  0  0  0  0  0  0
   -1.8567   -1.5532    1.1982 H   0  0  0  0  0  0  0  0  0  0  0  0
    0.9378   -2.5478    1.9721 H   0  0  0  0  0  0  0  0  0  0  0  0
    0.4470    0.3514    3.3945 H   0  0  0  0  0  0  0  0  0  0  0  0
    0.8737   -1.2874    3.7971 H   0  0  0  0  0  0  0  0  0  0  0  0
   -2.8213   -2.3372    3.2070 H   0  0  0  0  0  0  0  0  0  0  0  0
   -2.1214   -2.0480    4.7644 H   0  0  0  0  0  0  0  0  0  0  0  0
   -0.1548   -3.4943    4.1985 H   0  0  0  0  0  0  0  0  0  0  0  0
   -1.6711   -4.3562    3.9248 H   0  0  0  0  0  0  0  0  0  0  0  0
    2.2556   -2.6788    0.0137 H   0  0  0  0  0  0  0  0  0  0  0  0
   -1.8316   -3.7337   -0.2514 H   0  0  0  0  0  0  0  0  0  0  0  0
   -0.3447    0.8807    5.4993 H   0  0  0  0  0  0  0  0  0  0  0  0
   -0.8099   -0.7794    5.9015 H   0  0  0  0  0  0  0  0  0  0  0  0
    2.6009   -3.4924   -2.2224 H   0  0  0  0  0  0  0  0  0  0  0  0
   -1.4586   -4.5573   -2.4845 H   0  0  0  0  0  0  0  0  0  0  0  0
    0.7557   -4.4509   -3.4772 H   0  0  0  0  0  0  0  0  0  0  0  0
    2.9243   -0.8318    8.7927 H   0  0  0  0  0  0  0  0  0  0  0  0
    3.0871   -2.3253    6.1276 H   0  0  0  0  0  0  0  0  0  0  0  0
    2.3368   -2.9058    7.6094 H   0  0  0  0  0  0  0  0  0  0  0  0
    4.5345   -3.9199    7.3709 H   0  0  0  0  0  0  0  0  0  0  0  0
    4.6138   -2.7947    8.7412 H   0  0  0  0  0  0  0  0  0  0  0  0
    5.3108   -2.3404    7.1702 H   0  0  0  0  0  0  0  0  0  0  0  0
    4.5216    0.8480    9.1298 H   0  0  0  0  0  0  0  0  0  0  0  0
    3.6882   -0.2008    5.1111 H   0  0  0  0  0  0  0  0  0  0  0  0
    6.2808    2.2969    8.3667 H   0  0  0  0  0  0  0  0  0  0  0  0
    5.4549    1.2332    4.3816 H   0  0  0  0  0  0  0  0  0  0  0  0
    6.7731    2.4864    5.9976 H   0  0  0  0  0  0  0  0  0  0  0  0
  1  2  1  0  0  0  0 
  2  3  1  0  0  0  0 
  2  4  1  0  0  0  0 
  3  5  1  0  0  0  0 
  3  6  1  0  0  0  0 
  4  7  1  0  0  0  0 
  4  8  1  0  0  0  0 
  5  9  1  0  0  0  0 
  6 10  2  0  0  0  0 
  6 11  1  0  0  0  0 
  7 12  1  0  0  0  0 
  8  9  1  0  0  0  0 
 10 13  1  0  0  0  0 
 11 14  2  0  0  0  0 
 12 15  1  0  0  0  0 
 13 16  2  0  0  0  0 
 14 16  1  0  0  0  0 
 15 17  1  0  0  0  0 
 17 18  1  0  0  0  0 
 17 19  2  0  0  0  0 
 18 20  1  0  0  0  0 
 18 21  1  0  0  0  0 
 20 22  1  0  0  0  0 
 21 23  2  0  0  0  0 
 21 24  1  0  0  0  0 
 23 25  1  0  0  0  0 
 24 26  2  0  0  0  0 
 25 27  2  0  0  0  0 
 26 27  1  0  0  0  0 
  1 28  1  0  0  0  0 
  1 29  1  0  0  0  0 
  1 30  1  0  0  0  0 
  2 31  1  0  0  0  0 
  3 32  1  0  0  0  0 
  7 33  1  0  0  0  0 
  7 34  1  0  0  0  0 
  8 35  1  0  0  0  0 
  8 36  1  0  0  0  0 
  9 37  1  0  0  0  0 
  9 38  1  0  0  0  0 
 10 39  1  0  0  0  0 
 11 40  1  0  0  0  0 
 12 41  1  0  0  0  0 
 12 42  1  0  0  0  0 
 13 43  1  0  0  0  0 
 14 44  1  0  0  0  0 
 16 45  1  0  0  0  0 
 18 46  1  0  0  0  0 
 20 47  1  0  0  0  0 
 20 48  1  0  0  0  0 
 22 49  1  0  0  0  0 
 22 50  1  0  0  0  0 
 22 51  1  0  0  0  0 
 23 52  1  0  0  0  0 
 24 53  1  0  0  0  0 
 25 54  1  0  0  0  0 
 26 55  1  0  0  0  0 
 27 56  1  0  0  0  0 
M  END
> <cdk:Title>
fenbutrazate

> <Conformer>
1

> <SuperDrugID>
SD002789

$$$$
