prulifloxacin
  CDK     0628171801

 52 56  0  0  0  0  0  0  0  0999 V2000
    3.0284   -5.2117   -0.8583 C   0  0  0  0  0  0  0  0  0  0  0  0
    2.3597   -4.0079   -1.5643 C   0  0  1  0  0  0  0  0  0  0  0  0
    1.0907   -3.6422   -1.0394 N   0  0  0  0  0  0  0  0  0  0  0  0
    3.0611   -2.4106   -1.0248 S   0  0  0  0  0  0  0  0  0  0  0  0
   -0.1494   -4.1917   -0.9843 C   0  0  0  0  0  0  0  0  0  0  0  0
    1.4080   -2.4569   -0.5237 C   0  0  0  0  0  0  0  0  0  0  0  0
   -1.1423   -3.4706   -0.2598 C   0  0  0  0  0  0  0  0  0  0  0  0
   -0.4627   -5.4186   -1.6054 C   0  0  0  0  0  0  0  0  0  0  0  0
    0.5036   -1.6470    0.1874 C   0  0  0  0  0  0  0  0  0  0  0  0
   -0.8017   -2.2108    0.3248 C   0  0  0  0  0  0  0  0  0  0  0  0
   -2.4288   -4.0449   -0.1464 C   0  0  0  0  0  0  0  0  0  0  0  0
   -1.7539   -5.9853   -1.4988 C   0  0  0  0  0  0  0  0  0  0  0  0
    0.9085   -0.3828    0.7028 C   0  0  0  0  0  0  0  0  0  0  0  0
   -1.6780   -1.5871    0.9708 O   0  0  0  0  0  0  0  0  0  0  0  0
   -2.7272   -5.2869   -0.7401 C   0  0  0  0  0  0  0  0  0  0  0  0
   -2.0401   -7.1869   -2.1224 N   0  0  0  0  0  0  0  0  0  0  0  0
    2.1853    0.0617    0.5921 O   0  0  0  0  0  0  0  0  0  0  0  0
    0.1103    0.3917    1.2768 O   0  0  0  0  0  0  0  0  0  0  0  0
   -3.9260   -5.7782   -0.5579 F   0  0  0  0  0  0  0  0  0  0  0  0
   -1.2049   -8.3547   -1.9516 C   0  0  2  0  0  0  0  0  0  0  0  0
   -3.1924   -7.3448   -2.9825 C   0  0  1  0  0  0  0  0  0  0  0  0
   -0.7130   -8.8626   -3.3315 C   0  0  2  0  0  0  0  0  0  0  0  0
   -2.7864   -7.9378   -4.3569 C   0  0  2  0  0  0  0  0  0  0  0  0
   -1.8643   -9.1191   -4.2596 N   0  0  1  0  0  0  0  0  0  0  0  0
   -1.4596   -9.6000   -5.6241 C   0  0  2  0  0  0  0  0  0  0  0  0
   -0.7764  -10.9086   -5.6629 C   0  0  0  0  0  0  0  0  0  0  0  0
   -1.3067  -12.1754   -5.4021 C   0  0  0  0  0  0  0  0  0  0  0  0
    0.5139  -11.0641   -6.0354 O   0  0  0  0  0  0  0  0  0  0  0  0
   -2.6773  -12.5158   -4.9850 C   0  0  0  0  0  0  0  0  0  0  0  0
   -0.3311  -13.0852   -5.6208 O   0  0  0  0  0  0  0  0  0  0  0  0
    0.7637  -12.3911   -6.0038 C   0  0  0  0  0  0  0  0  0  0  0  0
    1.8612  -12.9099   -6.3052 O   0  0  0  0  0  0  0  0  0  0  0  0
    2.9534   -5.1186    0.2292 H   0  0  0  0  0  0  0  0  0  0  0  0
    4.0846   -5.2583   -1.1335 H   0  0  0  0  0  0  0  0  0  0  0  0
    2.5485   -6.1441   -1.1602 H   0  0  0  0  0  0  0  0  0  0  0  0
    2.3486   -4.0999   -2.6531 H   0  0  0  0  0  0  0  0  0  0  0  0
    0.2521   -5.8988   -2.1564 H   0  0  0  0  0  0  0  0  0  0  0  0
   -3.1612   -3.5588    0.3759 H   0  0  0  0  0  0  0  0  0  0  0  0
    2.4457    0.9383    0.9459 H   0  0  0  0  0  0  0  0  0  0  0  0
   -1.7926   -9.1384   -1.4658 H   0  0  0  0  0  0  0  0  0  0  0  0
   -0.3401   -8.1630   -1.3090 H   0  0  0  0  0  0  0  0  0  0  0  0
   -3.9076   -8.0148   -2.4978 H   0  0  0  0  0  0  0  0  0  0  0  0
   -3.7112   -6.3976   -3.1701 H   0  0  0  0  0  0  0  0  0  0  0  0
   -0.1450   -9.7829   -3.1715 H   0  0  0  0  0  0  0  0  0  0  0  0
   -0.0337   -8.1180   -3.7579 H   0  0  0  0  0  0  0  0  0  0  0  0
   -2.3172   -7.1488   -4.9541 H   0  0  0  0  0  0  0  0  0  0  0  0
   -3.7071   -8.2442   -4.8617 H   0  0  0  0  0  0  0  0  0  0  0  0
   -0.8062   -8.8600   -6.0933 H   0  0  0  0  0  0  0  0  0  0  0  0
   -2.3396   -9.6947   -6.2656 H   0  0  0  0  0  0  0  0  0  0  0  0
   -3.3894  -12.1688   -5.7348 H   0  0  0  0  0  0  0  0  0  0  0  0
   -2.7813  -13.5981   -4.8791 H   0  0  0  0  0  0  0  0  0  0  0  0
   -2.9061  -12.0490   -4.0261 H   0  0  0  0  0  0  0  0  0  0  0  0
  2  1  1  0  0  0  0 
  2  3  1  0  0  0  0 
  2  4  1  0  0  0  0 
  3  5  1  0  0  0  0 
  3  6  1  0  0  0  0 
  4  6  1  0  0  0  0 
  5  7  1  0  0  0  0 
  5  8  2  0  0  0  0 
  6  9  2  0  0  0  0 
  7 10  1  0  0  0  0 
  7 11  2  0  0  0  0 
  8 12  1  0  0  0  0 
  9 10  1  0  0  0  0 
  9 13  1  0  0  0  0 
 10 14  2  0  0  0  0 
 11 15  1  0  0  0  0 
 12 15  2  0  0  0  0 
 12 16  1  0  0  0  0 
 13 17  1  0  0  0  0 
 13 18  2  0  0  0  0 
 15 19  1  0  0  0  0 
 16 20  1  0  0  0  0 
 16 21  1  0  0  0  0 
 20 22  1  0  0  0  0 
 21 23  1  0  0  0  0 
 22 24  1  0  0  0  0 
 23 24  1  0  0  0  0 
 24 25  1  0  0  0  0 
 25 26  1  0  0  0  0 
 26 27  2  0  0  0  0 
 26 28  1  0  0  0  0 
 27 29  1  0  0  0  0 
 27 30  1  0  0  0  0 
 28 31  1  0  0  0  0 
 30 31  1  0  0  0  0 
 31 32  2  0  0  0  0 
  1 33  1  0  0  0  0 
  1 34  1  0  0  0  0 
  1 35  1  0  0  0  0 
  2 36  1  0  0  0  0 
  8 37  1  0  0  0  0 
 11 38  1  0  0  0  0 
 17 39  1  0  0  0  0 
 20 40  1  0  0  0  0 
 20 41  1  0  0  0  0 
 21 42  1  0  0  0  0 
 21 43  1  0  0  0  0 
 22 44  1  0  0  0  0 
 22 45  1  0  0  0  0 
 23 46  1  0  0  0  0 
 23 47  1  0  0  0  0 
 25 48  1  0  0  0  0 
 25 49  1  0  0  0  0 
 29 50  1  0  0  0  0 
 29 51  1  0  0  0  0 
 29 52  1  0  0  0  0 
M  END
> <cdk:Title>
prulifloxacin

> <Conformer>
1

> <SuperDrugID>
SD002089

$$$$
