betadex
  CDK     0628171801

147154  0  0  0  0  0  0  0  0999 V2000
  -37.1394  -43.1988    0.1935 C   0  0  1  0  0  0  0  0  0  0  0  0
  -37.4105  -42.7354   -1.1257 O   0  0  0  0  0  0  0  0  0  0  0  0
  -36.5548  -44.6349    0.1746 C   0  0  2  0  0  0  0  0  0  0  0  0
  -36.4799  -45.2669    1.6013 C   0  0  2  0  0  0  0  0  0  0  0  0
  -36.0363  -46.7509    1.4171 C   0  0  2  0  0  0  0  0  0  0  0  0
  -35.9485  -47.4435    2.6608 O   0  0  0  0  0  0  0  0  0  0  0  0
  -34.6694  -46.8276    0.6825 C   0  0  2  0  0  0  0  0  0  0  0  0
  -34.5957  -45.9133   -0.5768 C   0  0  2  0  0  0  0  0  0  0  0  0
  -35.2049  -44.6119   -0.3712 O   0  0  0  0  0  0  0  0  0  0  0  0
  -35.2092  -46.5069   -1.7354 O   0  0  0  0  0  0  0  0  0  0  0  0
  -34.5385  -46.4341   -3.0248 C   0  0  2  0  0  0  0  0  0  0  0  0
  -34.1603  -45.0028   -3.5742 C   0  0  1  0  0  0  0  0  0  0  0  0
  -32.8231  -44.4070   -3.0475 C   0  0  1  0  0  0  0  0  0  0  0  0
  -32.4718  -43.2126   -3.7434 O   0  0  0  0  0  0  0  0  0  0  0  0
  -33.9463  -45.0221   -5.0052 O   0  0  0  0  0  0  0  0  0  0  0  0
  -35.0499  -45.4708   -5.8029 C   0  0  1  0  0  0  0  0  0  0  0  0
  -35.2416  -46.9725   -5.4762 C   0  0  1  0  0  0  0  0  0  0  0  0
  -35.5477  -47.1643   -3.9687 C   0  0  1  0  0  0  0  0  0  0  0  0
  -35.5763  -48.5600   -3.6630 O   0  0  0  0  0  0  0  0  0  0  0  0
  -36.2745  -47.5340   -6.2868 O   0  0  0  0  0  0  0  0  0  0  0  0
  -36.2413  -44.7028   -5.5116 O   0  0  0  0  0  0  0  0  0  0  0  0
  -36.6533  -43.6339   -6.3974 C   0  0  2  0  0  0  0  0  0  0  0  0
  -35.8708  -42.2799   -6.2679 C   0  0  1  0  0  0  0  0  0  0  0  0
  -34.4366  -42.3076   -6.8579 C   0  0  1  0  0  0  0  0  0  0  0  0
  -33.8479  -41.0103   -6.8316 O   0  0  0  0  0  0  0  0  0  0  0  0
  -36.5506  -41.2303   -7.0005 O   0  0  0  0  0  0  0  0  0  0  0  0
  -37.9078  -40.9326   -6.6163 C   0  0  1  0  0  0  0  0  0  0  0  0
  -38.7715  -42.2106   -6.7823 C   0  0  1  0  0  0  0  0  0  0  0  0
  -38.1466  -43.4082   -6.0220 C   0  0  1  0  0  0  0  0  0  0  0  0
  -38.8985  -44.5939   -6.2867 O   0  0  0  0  0  0  0  0  0  0  0  0
  -40.1076  -41.9777   -6.3385 O   0  0  0  0  0  0  0  0  0  0  0  0
  -37.9939  -40.4249   -5.2663 O   0  0  0  0  0  0  0  0  0  0  0  0
  -37.8174  -39.0040   -5.0114 C   0  0  2  0  0  0  0  0  0  0  0  0
  -36.3151  -38.5372   -5.1097 C   0  0  1  0  0  0  0  0  0  0  0  0
  -35.8912  -38.0505   -6.5210 C   0  0  1  0  0  0  0  0  0  0  0  0
  -34.4972  -37.7568   -6.5544 O   0  0  0  0  0  0  0  0  0  0  0  0
  -35.9878  -37.3758   -4.2348 O   0  0  0  0  0  0  0  0  0  0  0  0
  -36.4460  -37.1877   -2.8425 C   0  0  1  0  0  0  0  0  0  0  0  0
  -38.0609  -37.4135   -2.9466 C   0  0  1  0  0  0  0  0  0  0  0  0
  -38.4594  -38.8017   -3.6004 C   0  0  1  0  0  0  0  0  0  0  0  0
  -39.8800  -38.9455   -3.6726 O   0  0  0  0  0  0  0  0  0  0  0  0
  -38.7625  -37.3341   -1.6762 O   0  0  0  0  0  0  0  0  0  0  0  0
  -35.9348  -38.1684   -1.9235 O   0  0  0  0  0  0  0  0  0  0  0  0
  -34.5062  -38.3611   -1.8344 C   0  0  1  0  0  0  0  0  0  0  0  0
  -33.8490  -37.3703   -0.8331 C   0  0  1  0  0  0  0  0  0  0  0  0
  -32.3953  -37.7903   -0.4795 C   0  0  2  0  0  0  0  0  0  0  0  0
  -32.2978  -39.2800   -0.0444 C   0  0  1  0  0  0  0  0  0  0  0  0
  -32.9296  -39.4906    1.2384 O   0  0  0  0  0  0  0  0  0  0  0  0
  -32.3936  -40.4583    2.1817 C   0  0  1  0  0  0  0  0  0  0  0  0
  -33.1211  -40.0919    3.5151 C   0  0  1  0  0  0  0  0  0  0  0  0
  -32.8764  -41.1142    4.6564 C   0  0  2  0  0  0  0  0  0  0  0  0
  -33.1951  -42.5446    4.1588 C   0  0  1  0  0  0  0  0  0  0  0  0
  -34.5719  -42.7178    3.7756 O   0  0  0  0  0  0  0  0  0  0  0  0
  -35.5625  -43.2367    4.6907 C   0  0  1  0  0  0  0  0  0  0  0  0
  -36.8953  -42.6859    4.0937 C   0  0  1  0  0  0  0  0  0  0  0  0
  -38.1041  -43.6176    4.2883 C   0  0  2  0  0  0  0  0  0  0  0  0
  -37.7633  -45.0404    3.7805 C   0  0  1  0  0  0  0  0  0  0  0  0
  -37.7322  -45.1686    2.3260 O   0  0  0  0  0  0  0  0  0  0  0  0
  -36.6783  -45.5810    4.5602 O   0  0  0  0  0  0  0  0  0  0  0  0
  -35.4702  -44.8106    4.7908 C   0  0  2  0  0  0  0  0  0  0  0  0
  -34.9530  -45.2819    6.1759 C   0  0  2  0  0  0  0  0  0  0  0  0
  -34.7201  -46.6890    6.2143 O   0  0  0  0  0  0  0  0  0  0  0  0
  -38.6174  -45.6583    4.0663 H   0  0  0  0  0  0  0  0  0  0  0  0
  -39.2356  -43.0963    3.5958 O   0  0  0  0  0  0  0  0  0  0  0  0
  -37.1796  -41.3928    4.6297 O   0  0  0  0  0  0  0  0  0  0  0  0
  -35.4303  -42.7891    5.6816 H   0  0  0  0  0  0  0  0  0  0  0  0
  -32.3835  -42.8084    2.9993 O   0  0  0  0  0  0  0  0  0  0  0  0
  -32.6246  -41.9754    1.8339 C   0  0  2  0  0  0  0  0  0  0  0  0
  -31.6874  -42.5631    0.7406 C   0  0  1  0  0  0  0  0  0  0  0  0
  -31.7487  -43.9887    0.7071 O   0  0  0  0  0  0  0  0  0  0  0  0
  -32.9025  -43.2661    4.9211 H   0  0  0  0  0  0  0  0  0  0  0  0
  -33.6559  -40.7921    5.8059 O   0  0  0  0  0  0  0  0  0  0  0  0
  -32.7135  -38.7949    3.9499 O   0  0  0  0  0  0  0  0  0  0  0  0
  -31.3215  -40.2891    2.3316 H   0  0  0  0  0  0  0  0  0  0  0  0
  -32.9060  -40.0970   -1.0637 O   0  0  0  0  0  0  0  0  0  0  0  0
  -34.2999  -39.8197   -1.3319 C   0  0  2  0  0  0  0  0  0  0  0  0
  -34.7783  -40.8584   -2.3687 C   0  0  1  0  0  0  0  0  0  0  0  0
  -34.6050  -42.1616   -1.8384 O   0  0  0  0  0  0  0  0  0  0  0  0
  -31.2342  -39.5322    0.0066 H   0  0  0  0  0  0  0  0  0  0  0  0
  -31.8832  -36.9399    0.5409 O   0  0  0  0  0  0  0  0  0  0  0  0
  -33.8246  -36.0577   -1.3886 O   0  0  0  0  0  0  0  0  0  0  0  0
  -34.0182  -38.2650   -2.8115 H   0  0  0  0  0  0  0  0  0  0  0  0
  -36.2282  -36.1722   -2.5066 H   0  0  0  0  0  0  0  0  0  0  0  0
  -38.4201  -38.4154   -5.7106 H   0  0  0  0  0  0  0  0  0  0  0  0
  -38.2980  -40.1894   -7.3168 H   0  0  0  0  0  0  0  0  0  0  0  0
  -36.6177  -43.9731   -7.4385 H   0  0  0  0  0  0  0  0  0  0  0  0
  -34.7636  -45.3894   -6.8563 H   0  0  0  0  0  0  0  0  0  0  0  0
  -33.6257  -47.0373   -2.9800 H   0  0  0  0  0  0  0  0  0  0  0  0
  -33.5268  -45.7893   -0.7453 H   0  0  0  0  0  0  0  0  0  0  0  0
  -34.3564  -48.1774    0.3349 O   0  0  0  0  0  0  0  0  0  0  0  0
  -35.7069  -44.6992    2.1126 H   0  0  0  0  0  0  0  0  0  0  0  0
  -36.4364  -42.5143    0.6707 H   0  0  0  0  0  0  0  0  0  0  0  0
  -38.0830  -43.1769    0.7449 H   0  0  0  0  0  0  0  0  0  0  0  0
  -37.8171  -41.8508   -1.0054 H   0  0  0  0  0  0  0  0  0  0  0  0
  -37.2108  -45.2305   -0.4730 H   0  0  0  0  0  0  0  0  0  0  0  0
  -36.7932  -47.2774    0.8276 H   0  0  0  0  0  0  0  0  0  0  0  0
  -35.2109  -47.0185    3.1462 H   0  0  0  0  0  0  0  0  0  0  0  0
  -33.9015  -46.4932    1.3875 H   0  0  0  0  0  0  0  0  0  0  0  0
  -34.9667  -44.3035   -3.3349 H   0  0  0  0  0  0  0  0  0  0  0  0
  -32.8896  -44.1339   -1.9996 H   0  0  0  0  0  0  0  0  0  0  0  0
  -32.0120  -45.1274   -3.1739 H   0  0  0  0  0  0  0  0  0  0  0  0
  -31.6141  -42.9396   -3.3563 H   0  0  0  0  0  0  0  0  0  0  0  0
  -34.3137  -47.5025   -5.7122 H   0  0  0  0  0  0  0  0  0  0  0  0
  -36.5553  -46.7777   -3.7835 H   0  0  0  0  0  0  0  0  0  0  0  0
  -34.6719  -48.8849   -3.8595 H   0  0  0  0  0  0  0  0  0  0  0  0
  -37.0841  -47.0272   -6.0663 H   0  0  0  0  0  0  0  0  0  0  0  0
  -35.7952  -42.0050   -5.2116 H   0  0  0  0  0  0  0  0  0  0  0  0
  -33.7884  -42.9558   -6.2791 H   0  0  0  0  0  0  0  0  0  0  0  0
  -34.4564  -42.6625   -7.8906 H   0  0  0  0  0  0  0  0  0  0  0  0
  -32.9516  -41.1314   -7.2101 H   0  0  0  0  0  0  0  0  0  0  0  0
  -38.8208  -42.4597   -7.8459 H   0  0  0  0  0  0  0  0  0  0  0  0
  -38.2206  -43.2155   -4.9468 H   0  0  0  0  0  0  0  0  0  0  0  0
  -38.8277  -44.7349   -7.2548 H   0  0  0  0  0  0  0  0  0  0  0  0
  -40.0321  -41.7714   -5.3831 H   0  0  0  0  0  0  0  0  0  0  0  0
  -35.6736  -39.3678   -4.8148 H   0  0  0  0  0  0  0  0  0  0  0  0
  -36.0913  -38.7993   -7.2809 H   0  0  0  0  0  0  0  0  0  0  0  0
  -36.4404  -37.1435   -6.7851 H   0  0  0  0  0  0  0  0  0  0  0  0
  -34.3226  -37.4596   -7.4725 H   0  0  0  0  0  0  0  0  0  0  0  0
  -38.5861  -36.6432   -3.5737 H   0  0  0  0  0  0  0  0  0  0  0  0
  -38.1015  -39.5907   -2.9338 H   0  0  0  0  0  0  0  0  0  0  0  0
  -40.1843  -38.2330   -4.2728 H   0  0  0  0  0  0  0  0  0  0  0  0
  -38.4242  -38.0848   -1.1438 H   0  0  0  0  0  0  0  0  0  0  0  0
  -34.4496  -37.3372    0.0804 H   0  0  0  0  0  0  0  0  0  0  0  0
  -31.7689  -37.6542   -1.3671 H   0  0  0  0  0  0  0  0  0  0  0  0
  -34.1980  -40.0410    3.3253 H   0  0  0  0  0  0  0  0  0  0  0  0
  -31.8244  -41.0709    4.9512 H   0  0  0  0  0  0  0  0  0  0  0  0
  -36.7905  -42.5416    3.0181 H   0  0  0  0  0  0  0  0  0  0  0  0
  -38.3519  -43.6587    5.3547 H   0  0  0  0  0  0  0  0  0  0  0  0
  -34.7274  -45.1573    4.0704 H   0  0  0  0  0  0  0  0  0  0  0  0
  -35.6771  -45.0303    6.9543 H   0  0  0  0  0  0  0  0  0  0  0  0
  -34.0093  -44.7893    6.4100 H   0  0  0  0  0  0  0  0  0  0  0  0
  -35.5992  -47.1060    6.0911 H   0  0  0  0  0  0  0  0  0  0  0  0
  -39.9672  -43.7061    3.8195 H   0  0  0  0  0  0  0  0  0  0  0  0
  -37.3208  -41.5377    5.5889 H   0  0  0  0  0  0  0  0  0  0  0  0
  -33.6557  -42.1076    1.4890 H   0  0  0  0  0  0  0  0  0  0  0  0
  -31.9624  -42.2161   -0.2523 H   0  0  0  0  0  0  0  0  0  0  0  0
  -30.6531  -42.2785    0.9363 H   0  0  0  0  0  0  0  0  0  0  0  0
  -32.7002  -44.2003    0.5924 H   0  0  0  0  0  0  0  0  0  0  0  0
  -33.4020  -41.4620    6.4765 H   0  0  0  0  0  0  0  0  0  0  0  0
  -31.7658  -38.8906    4.1829 H   0  0  0  0  0  0  0  0  0  0  0  0
  -34.8904  -39.9710   -0.4206 H   0  0  0  0  0  0  0  0  0  0  0  0
  -35.8335  -40.7167   -2.6058 H   0  0  0  0  0  0  0  0  0  0  0  0
  -34.1958  -40.7743   -3.2873 H   0  0  0  0  0  0  0  0  0  0  0  0
  -35.0892  -42.1614   -0.9867 H   0  0  0  0  0  0  0  0  0  0  0  0
  -30.9441  -37.2031    0.6246 H   0  0  0  0  0  0  0  0  0  0  0  0
  -33.2474  -36.1318   -2.1789 H   0  0  0  0  0  0  0  0  0  0  0  0
  -33.4411  -48.1476   -0.0189 H   0  0  0  0  0  0  0  0  0  0  0  0
  1  2  1  0  0  0  0 
  3  1  1  0  0  0  0 
  4  3  1  0  0  0  0 
  3  9  1  0  0  0  0 
  5  4  1  0  0  0  0 
  4 58  1  0  0  0  0 
  4 91  1  0  0  0  0 
  5  6  1  0  0  0  0 
  7  5  1  0  0  0  0 
  7 90  1  0  0  0  0 
  8  7  1  0  0  0  0 
  8 10  1  0  0  0  0 
  8 89  1  0  0  0  0 
  8  9  1  0  0  0  0 
 11 10  1  0  0  0  0 
 11 12  1  0  0  0  0 
 18 11  1  0  0  0  0 
 11 88  1  0  0  0  0 
 12 13  1  0  0  0  0 
 12 15  1  0  0  0  0 
 13 14  1  0  0  0  0 
 16 15  1  0  0  0  0 
 16 21  1  0  0  0  0 
 16 87  1  0  0  0  0 
 17 16  1  0  0  0  0 
 17 20  1  0  0  0  0 
 18 17  1  0  0  0  0 
 18 19  1  0  0  0  0 
 22 21  1  0  0  0  0 
 22 23  1  0  0  0  0 
 29 22  1  0  0  0  0 
 22 86  1  0  0  0  0 
 23 24  1  0  0  0  0 
 23 26  1  0  0  0  0 
 24 25  1  0  0  0  0 
 27 26  1  0  0  0  0 
 27 32  1  0  0  0  0 
 27 85  1  0  0  0  0 
 28 27  1  0  0  0  0 
 28 31  1  0  0  0  0 
 29 28  1  0  0  0  0 
 29 30  1  0  0  0  0 
 33 32  1  0  0  0  0 
 33 34  1  0  0  0  0 
 40 33  1  0  0  0  0 
 33 84  1  0  0  0  0 
 34 35  1  0  0  0  0 
 34 37  1  0  0  0  0 
 35 36  1  0  0  0  0 
 38 37  1  0  0  0  0 
 38 83  1  0  0  0  0 
 39 38  1  0  0  0  0 
 39 42  1  0  0  0  0 
 40 39  1  0  0  0  0 
 40 41  1  0  0  0  0 
 38 43  1  0  0  0  0 
 44 43  1  0  0  0  0 
 44 82  1  0  0  0  0 
 44 45  1  0  0  0  0 
 45 81  1  0  0  0  0 
 45 46  1  0  0  0  0 
 46 80  1  0  0  0  0 
 46 47  1  0  0  0  0 
 47 75  1  0  0  0  0 
 47 79  1  0  0  0  0 
 47 48  1  0  0  0  0 
 49 48  1  0  0  0  0 
 49 74  1  0  0  0  0 
 49 50  1  0  0  0  0 
 50 73  1  0  0  0  0 
 50 51  1  0  0  0  0 
 51 72  1  0  0  0  0 
 51 52  1  0  0  0  0 
 52 67  1  0  0  0  0 
 52 71  1  0  0  0  0 
 52 53  1  0  0  0  0 
 54 53  1  0  0  0  0 
 54 66  1  0  0  0  0 
 54 55  1  0  0  0  0 
 55 65  1  0  0  0  0 
 55 56  1  0  0  0  0 
 56 64  1  0  0  0  0 
 56 57  1  0  0  0  0 
 57 59  1  0  0  0  0 
 57 63  1  0  0  0  0 
 57 58  1  0  0  0  0 
 60 59  1  0  0  0  0 
 60 54  1  0  0  0  0 
 60 61  1  0  0  0  0 
 61 62  1  0  0  0  0 
 68 67  1  0  0  0  0 
 68 49  1  0  0  0  0 
 68 69  1  0  0  0  0 
 69 70  1  0  0  0  0 
 76 75  1  0  0  0  0 
 76 44  1  0  0  0  0 
 76 77  1  0  0  0  0 
 77 78  1  0  0  0  0 
  1 92  1  0  0  0  0 
  1 93  1  0  0  0  0 
  2 94  1  0  0  0  0 
  3 95  1  0  0  0  0 
  5 96  1  0  0  0  0 
  6 97  1  0  0  0  0 
  7 98  1  0  0  0  0 
 12 99  1  0  0  0  0 
 13100  1  0  0  0  0 
 13101  1  0  0  0  0 
 14102  1  0  0  0  0 
 17103  1  0  0  0  0 
 18104  1  0  0  0  0 
 19105  1  0  0  0  0 
 20106  1  0  0  0  0 
 23107  1  0  0  0  0 
 24108  1  0  0  0  0 
 24109  1  0  0  0  0 
 25110  1  0  0  0  0 
 28111  1  0  0  0  0 
 29112  1  0  0  0  0 
 30113  1  0  0  0  0 
 31114  1  0  0  0  0 
 34115  1  0  0  0  0 
 35116  1  0  0  0  0 
 35117  1  0  0  0  0 
 36118  1  0  0  0  0 
 39119  1  0  0  0  0 
 40120  1  0  0  0  0 
 41121  1  0  0  0  0 
 42122  1  0  0  0  0 
 45123  1  0  0  0  0 
 46124  1  0  0  0  0 
 50125  1  0  0  0  0 
 51126  1  0  0  0  0 
 55127  1  0  0  0  0 
 56128  1  0  0  0  0 
 60129  1  0  0  0  0 
 61130  1  0  0  0  0 
 61131  1  0  0  0  0 
 62132  1  0  0  0  0 
 64133  1  0  0  0  0 
 65134  1  0  0  0  0 
 68135  1  0  0  0  0 
 69136  1  0  0  0  0 
 69137  1  0  0  0  0 
 70138  1  0  0  0  0 
 72139  1  0  0  0  0 
 73140  1  0  0  0  0 
 76141  1  0  0  0  0 
 77142  1  0  0  0  0 
 77143  1  0  0  0  0 
 78144  1  0  0  0  0 
 80145  1  0  0  0  0 
 81146  1  0  0  0  0 
 90147  1  0  0  0  0 
M  END
> <cdk:Title>
betadex

> <Conformer>
1

> <SuperDrugID>
SD002605

$$$$
