sorafenib
  CDK     0628171801

 48 50  0  0  0  0  0  0  0  0999 V2000
   -9.8602    2.5430  -10.8998 C   0  0  0  0  0  0  0  0  0  0  0  0
   -8.8064    2.4464   -9.9459 N   0  0  0  0  0  0  0  0  0  0  0  0
   -8.0188    3.4847   -9.5444 C   0  0  0  0  0  0  0  0  0  0  0  0
   -8.1926    4.6222  -10.0472 O   0  0  0  0  0  0  0  0  0  0  0  0
   -7.0188    3.2882   -8.5557 C   0  0  0  0  0  0  0  0  0  0  0  0
   -6.2554    4.3591   -8.0309 C   0  0  0  0  0  0  0  0  0  0  0  0
   -5.3062    4.1247   -7.0135 C   0  0  0  0  0  0  0  0  0  0  0  0
   -4.6250    5.1818   -6.4626 O   0  0  0  0  0  0  0  0  0  0  0  0
   -5.2967    5.6447   -5.3602 C   0  0  0  0  0  0  0  0  0  0  0  0
   -6.3521    6.5737   -5.4859 C   0  0  0  0  0  0  0  0  0  0  0  0
   -7.1076    6.9441   -4.3582 C   0  0  0  0  0  0  0  0  0  0  0  0
   -6.7970    6.4317   -3.0800 C   0  0  0  0  0  0  0  0  0  0  0  0
   -7.6221    6.7661   -2.0456 N   0  0  0  0  0  0  0  0  0  0  0  0
   -7.2962    6.9460   -0.7376 C   0  0  0  0  0  0  0  0  0  0  0  0
   -6.1040    6.9650   -0.3486 O   0  0  0  0  0  0  0  0  0  0  0  0
   -8.3269    7.1006    0.1346 N   0  0  0  0  0  0  0  0  0  0  0  0
   -8.2370    7.3917    1.4631 C   0  0  0  0  0  0  0  0  0  0  0  0
   -9.0358    6.6587    2.3595 C   0  0  0  0  0  0  0  0  0  0  0  0
   -9.0062    6.9445    3.7330 C   0  0  0  0  0  0  0  0  0  0  0  0
   -8.1828    7.9717    4.2339 C   0  0  0  0  0  0  0  0  0  0  0  0
   -8.2336    8.2356    5.9111 Cl  0  0  0  0  0  0  0  0  0  0  0  0
   -7.3663    8.7356    3.3509 C   0  0  0  0  0  0  0  0  0  0  0  0
   -7.4140    8.4232    1.9664 C   0  0  0  0  0  0  0  0  0  0  0  0
   -6.4945    9.8446    3.8530 C   0  0  1  0  0  0  0  0  0  0  0  0
   -5.7659   10.4919    2.8832 F   0  0  0  0  0  0  0  0  0  0  0  0
   -7.2570   10.8097    4.4653 F   0  0  0  0  0  0  0  0  0  0  0  0
   -5.5761    9.3577    4.7522 F   0  0  0  0  0  0  0  0  0  0  0  0
   -5.6900    5.5591   -2.9494 C   0  0  0  0  0  0  0  0  0  0  0  0
   -4.9470    5.1730   -4.0797 C   0  0  0  0  0  0  0  0  0  0  0  0
   -5.0799    2.8031   -6.5745 C   0  0  0  0  0  0  0  0  0  0  0  0
   -5.8468    1.7612   -7.1227 C   0  0  0  0  0  0  0  0  0  0  0  0
   -6.7771    2.0359   -8.0725 N   0  0  0  0  0  0  0  0  0  0  0  0
  -10.3068    1.5576  -11.0362 H   0  0  0  0  0  0  0  0  0  0  0  0
  -10.6331    3.2267  -10.5413 H   0  0  0  0  0  0  0  0  0  0  0  0
   -9.4796    2.8947  -11.8615 H   0  0  0  0  0  0  0  0  0  0  0  0
   -8.6485    1.5790   -9.5395 H   0  0  0  0  0  0  0  0  0  0  0  0
   -6.3943    5.3146   -8.3658 H   0  0  0  0  0  0  0  0  0  0  0  0
   -6.5886    6.9638   -6.4010 H   0  0  0  0  0  0  0  0  0  0  0  0
   -7.8915    7.5890   -4.4798 H   0  0  0  0  0  0  0  0  0  0  0  0
   -8.5545    6.9066   -2.2766 H   0  0  0  0  0  0  0  0  0  0  0  0
   -9.2200    6.9547   -0.2191 H   0  0  0  0  0  0  0  0  0  0  0  0
   -9.6419    5.9064    2.0201 H   0  0  0  0  0  0  0  0  0  0  0  0
   -9.5967    6.3993    4.3635 H   0  0  0  0  0  0  0  0  0  0  0  0
   -6.8615    8.9625    1.2973 H   0  0  0  0  0  0  0  0  0  0  0  0
   -5.4336    5.1702   -2.0399 H   0  0  0  0  0  0  0  0  0  0  0  0
   -4.1620    4.5271   -3.9781 H   0  0  0  0  0  0  0  0  0  0  0  0
   -4.3787    2.6020   -5.8587 H   0  0  0  0  0  0  0  0  0  0  0  0
   -5.7123    0.7987   -6.8071 H   0  0  0  0  0  0  0  0  0  0  0  0
  1  2  1  0  0  0  0 
  2  3  1  0  0  0  0 
  3  4  2  0  0  0  0 
  3  5  1  0  0  0  0 
  5  6  2  0  0  0  0 
  6  7  1  0  0  0  0 
  7  8  1  0  0  0  0 
  8  9  1  0  0  0  0 
  9 10  2  0  0  0  0 
 10 11  1  0  0  0  0 
 11 12  2  0  0  0  0 
 12 13  1  0  0  0  0 
 13 14  1  0  0  0  0 
 14 15  2  0  0  0  0 
 14 16  1  0  0  0  0 
 16 17  1  0  0  0  0 
 17 18  2  0  0  0  0 
 18 19  1  0  0  0  0 
 19 20  2  0  0  0  0 
 20 21  1  0  0  0  0 
 20 22  1  0  0  0  0 
 22 23  2  0  0  0  0 
 17 23  1  0  0  0  0 
 22 24  1  0  0  0  0 
 24 25  1  0  0  0  0 
 24 26  1  0  0  0  0 
 24 27  1  0  0  0  0 
 12 28  1  0  0  0  0 
 28 29  2  0  0  0  0 
  9 29  1  0  0  0  0 
  7 30  2  0  0  0  0 
 30 31  1  0  0  0  0 
 31 32  2  0  0  0  0 
  5 32  1  0  0  0  0 
  1 33  1  0  0  0  0 
  1 34  1  0  0  0  0 
  1 35  1  0  0  0  0 
  2 36  1  0  0  0  0 
  6 37  1  0  0  0  0 
 10 38  1  0  0  0  0 
 11 39  1  0  0  0  0 
 13 40  1  0  0  0  0 
 16 41  1  0  0  0  0 
 18 42  1  0  0  0  0 
 19 43  1  0  0  0  0 
 23 44  1  0  0  0  0 
 28 45  1  0  0  0  0 
 29 46  1  0  0  0  0 
 30 47  1  0  0  0  0 
 31 48  1  0  0  0  0 
M  END
> <cdk:Title>
sorafenib

> <Conformer>
1

> <SuperDrugID>
SD002208

$$$$
