mebhydrolin
  CDK     0628171801

 41 44  0  0  0  0  0  0  0  0999 V2000
   -0.4554   -1.2902    0.0094 C   0  0  2  0  0  0  0  0  0  0  0  0
   -0.9132   -1.7056    1.3129 N   0  0  0  0  0  0  0  0  0  0  0  0
   -0.5737    0.1792   -0.1905 C   0  0  0  0  0  0  0  0  0  0  0  0
   -2.2080   -1.6801    1.7314 C   0  0  0  0  0  0  0  0  0  0  0  0
   -0.1605   -2.2123    2.3271 C   0  0  0  0  0  0  0  0  0  0  0  0
   -1.4449    0.7224   -1.1658 C   0  0  0  0  0  0  0  0  0  0  0  0
    0.1994    1.0661    0.5954 C   0  0  0  0  0  0  0  0  0  0  0  0
   -2.2819   -2.1550    3.0418 C   0  0  0  0  0  0  0  0  0  0  0  0
   -3.4131   -1.2304    0.9887 C   0  0  2  0  0  0  0  0  0  0  0  0
   -0.9938   -2.5131    3.4086 C   0  0  0  0  0  0  0  0  0  0  0  0
    1.2289   -2.4555    2.4328 C   0  0  0  0  0  0  0  0  0  0  0  0
   -1.5458    2.1139   -1.3466 C   0  0  0  0  0  0  0  0  0  0  0  0
    0.1174    2.4582    0.3987 C   0  0  0  0  0  0  0  0  0  0  0  0
   -3.5365   -2.2351    3.8225 C   0  0  2  0  0  0  0  0  0  0  0  0
   -4.7332   -1.5990    1.7277 C   0  0  2  0  0  0  0  0  0  0  0  0
   -0.4985   -3.0698    4.6019 C   0  0  0  0  0  0  0  0  0  0  0  0
    1.7409   -3.0340    3.6157 C   0  0  0  0  0  0  0  0  0  0  0  0
   -0.7521    2.9804   -0.5746 C   0  0  0  0  0  0  0  0  0  0  0  0
   -4.6349   -1.4107    3.2123 N   0  0  2  0  0  0  0  0  0  0  0  0
    0.8817   -3.3434    4.6909 C   0  0  0  0  0  0  0  0  0  0  0  0
   -4.6240    0.0210    3.6369 C   0  0  0  0  0  0  0  0  0  0  0  0
   -1.0263   -1.8426   -0.7419 H   0  0  0  0  0  0  0  0  0  0  0  0
    0.5881   -1.5651   -0.1595 H   0  0  0  0  0  0  0  0  0  0  0  0
   -2.0173    0.1071   -1.7479 H   0  0  0  0  0  0  0  0  0  0  0  0
    0.8340    0.7039    1.3110 H   0  0  0  0  0  0  0  0  0  0  0  0
   -3.4260   -1.6830   -0.0048 H   0  0  0  0  0  0  0  0  0  0  0  0
   -3.3619   -0.1479    0.8681 H   0  0  0  0  0  0  0  0  0  0  0  0
    1.8649   -2.2182    1.6715 H   0  0  0  0  0  0  0  0  0  0  0  0
   -2.1927    2.4959   -2.0426 H   0  0  0  0  0  0  0  0  0  0  0  0
    0.6882    3.0906    0.9652 H   0  0  0  0  0  0  0  0  0  0  0  0
   -3.3453   -1.9217    4.8522 H   0  0  0  0  0  0  0  0  0  0  0  0
   -3.8509   -3.2817    3.8542 H   0  0  0  0  0  0  0  0  0  0  0  0
   -4.9652   -2.6487    1.5287 H   0  0  0  0  0  0  0  0  0  0  0  0
   -5.5609   -1.0144    1.3148 H   0  0  0  0  0  0  0  0  0  0  0  0
   -1.1196   -3.2753    5.3876 H   0  0  0  0  0  0  0  0  0  0  0  0
    2.7410   -3.2286    3.6958 H   0  0  0  0  0  0  0  0  0  0  0  0
   -0.8076    3.9902   -0.7210 H   0  0  0  0  0  0  0  0  0  0  0  0
    1.2601   -3.7671    5.5409 H   0  0  0  0  0  0  0  0  0  0  0  0
   -3.6860    0.5113    3.3662 H   0  0  0  0  0  0  0  0  0  0  0  0
   -4.7507    0.0878    4.7189 H   0  0  0  0  0  0  0  0  0  0  0  0
   -5.4505    0.5668    3.1758 H   0  0  0  0  0  0  0  0  0  0  0  0
  1  2  1  0  0  0  0 
  1  3  1  0  0  0  0 
  2  4  1  0  0  0  0 
  2  5  1  0  0  0  0 
  3  6  2  0  0  0  0 
  3  7  1  0  0  0  0 
  4  8  2  0  0  0  0 
  4  9  1  0  0  0  0 
  5 10  1  0  0  0  0 
  5 11  2  0  0  0  0 
  6 12  1  0  0  0  0 
  7 13  2  0  0  0  0 
  8 10  1  0  0  0  0 
  8 14  1  0  0  0  0 
  9 15  1  0  0  0  0 
 10 16  2  0  0  0  0 
 11 17  1  0  0  0  0 
 12 18  2  0  0  0  0 
 13 18  1  0  0  0  0 
 14 19  1  0  0  0  0 
 15 19  1  0  0  0  0 
 16 20  1  0  0  0  0 
 17 20  2  0  0  0  0 
 19 21  1  0  0  0  0 
  1 22  1  0  0  0  0 
  1 23  1  0  0  0  0 
  6 24  1  0  0  0  0 
  7 25  1  0  0  0  0 
  9 26  1  0  0  0  0 
  9 27  1  0  0  0  0 
 11 28  1  0  0  0  0 
 12 29  1  0  0  0  0 
 13 30  1  0  0  0  0 
 14 31  1  0  0  0  0 
 14 32  1  0  0  0  0 
 15 33  1  0  0  0  0 
 15 34  1  0  0  0  0 
 16 35  1  0  0  0  0 
 17 36  1  0  0  0  0 
 18 37  1  0  0  0  0 
 20 38  1  0  0  0  0 
 21 39  1  0  0  0  0 
 21 40  1  0  0  0  0 
 21 41  1  0  0  0  0 
M  END
> <cdk:Title>
mebhydrolin

> <Conformer>
1

> <SuperDrugID>
SD001453

$$$$
