olanexidine
  CDK     0628171802

 51 51  0  0  0  0  0  0  0  0999 V2000
    8.3994   -0.2598   -2.2370 C   0  0  0  0  0  0  0  0  0  0  0  0
    9.1110    0.9203   -2.5277 C   0  0  0  0  0  0  0  0  0  0  0  0
    8.3976    2.1011   -2.8428 C   0  0  0  0  0  0  0  0  0  0  0  0
    6.9858    2.0831   -2.8577 C   0  0  0  0  0  0  0  0  0  0  0  0
    6.2662    0.8983   -2.5684 C   0  0  0  0  0  0  0  0  0  0  0  0
    6.9938   -0.2726   -2.2591 C   0  0  0  0  0  0  0  0  0  0  0  0
   10.8079    0.8617   -2.4903 Cl  0  0  0  0  0  0  0  0  0  0  0  0
    9.1899    3.5544   -3.2181 Cl  0  0  0  0  0  0  0  0  0  0  0  0
    4.7805    0.8562   -2.6029 C   0  0  2  0  0  0  0  0  0  0  0  0
    4.3765    0.1934   -3.7614 N   0  0  0  0  0  0  0  0  0  0  0  0
    3.1919   -0.0436   -4.1985 C   0  0  0  0  0  0  0  0  0  0  0  0
    3.1093   -0.6736   -5.3648 N   0  0  0  0  0  0  0  0  0  0  0  0
    2.1020    0.3131   -3.5403 N   0  0  0  0  0  0  0  0  0  0  0  0
    2.3302   -0.3478   -6.3982 C   0  0  0  0  0  0  0  0  0  0  0  0
    1.6835    0.7663   -6.4349 N   0  0  0  0  0  0  0  0  0  0  0  0
    2.2958   -1.2123   -7.3946 N   0  0  0  0  0  0  0  0  0  0  0  0
    0.8751    1.2912   -7.4406 C   0  0  1  0  0  0  0  0  0  0  0  0
    0.2975    2.6579   -6.9954 C   0  0  1  0  0  0  0  0  0  0  0  0
   -0.5768    3.3234   -8.0905 C   0  0  2  0  0  0  0  0  0  0  0  0
   -1.3812    4.5406   -7.5551 C   0  0  2  0  0  0  0  0  0  0  0  0
   -2.1385    5.3390   -8.6509 C   0  0  1  0  0  0  0  0  0  0  0  0
   -3.2487    4.5405   -9.3908 C   0  0  1  0  0  0  0  0  0  0  0  0
   -3.9894    5.4024  -10.4457 C   0  0  2  0  0  0  0  0  0  0  0  0
   -4.9923    4.5933  -11.2977 C   0  0  0  0  0  0  0  0  0  0  0  0
    8.8985   -1.1227   -2.0113 H   0  0  0  0  0  0  0  0  0  0  0  0
    6.4783    2.9414   -3.0911 H   0  0  0  0  0  0  0  0  0  0  0  0
    6.5029   -1.1462   -2.0498 H   0  0  0  0  0  0  0  0  0  0  0  0
    4.3638    1.8677   -2.5990 H   0  0  0  0  0  0  0  0  0  0  0  0
    4.4005    0.3363   -1.7186 H   0  0  0  0  0  0  0  0  0  0  0  0
    3.7140   -1.4205   -5.4905 H   0  0  0  0  0  0  0  0  0  0  0  0
    1.2225    0.1422   -3.9162 H   0  0  0  0  0  0  0  0  0  0  0  0
    2.1824    0.7334   -2.6716 H   0  0  0  0  0  0  0  0  0  0  0  0
    1.7631   -1.0284   -8.1833 H   0  0  0  0  0  0  0  0  0  0  0  0
    2.8025   -2.0379   -7.3381 H   0  0  0  0  0  0  0  0  0  0  0  0
    1.4729    1.4281   -8.3450 H   0  0  0  0  0  0  0  0  0  0  0  0
    0.0552    0.5990   -7.6566 H   0  0  0  0  0  0  0  0  0  0  0  0
   -0.3059    2.4996   -6.0967 H   0  0  0  0  0  0  0  0  0  0  0  0
    1.1162    3.3392   -6.7423 H   0  0  0  0  0  0  0  0  0  0  0  0
   -1.2729    2.5761   -8.4774 H   0  0  0  0  0  0  0  0  0  0  0  0
    0.0687    3.6501   -8.9119 H   0  0  0  0  0  0  0  0  0  0  0  0
   -0.6859    5.2286   -7.0645 H   0  0  0  0  0  0  0  0  0  0  0  0
   -2.0975    4.2010   -6.8008 H   0  0  0  0  0  0  0  0  0  0  0  0
   -2.5949    6.2117   -8.1746 H   0  0  0  0  0  0  0  0  0  0  0  0
   -1.4106    5.7061   -9.3798 H   0  0  0  0  0  0  0  0  0  0  0  0
   -2.7989    3.6870   -9.9022 H   0  0  0  0  0  0  0  0  0  0  0  0
   -3.9720    4.1647   -8.6613 H   0  0  0  0  0  0  0  0  0  0  0  0
   -3.2555    5.8546  -11.1185 H   0  0  0  0  0  0  0  0  0  0  0  0
   -4.5309    6.2046   -9.9374 H   0  0  0  0  0  0  0  0  0  0  0  0
   -5.4591    5.2503  -12.0334 H   0  0  0  0  0  0  0  0  0  0  0  0
   -4.4822    3.7874  -11.8295 H   0  0  0  0  0  0  0  0  0  0  0  0
   -5.7724    4.1669  -10.6644 H   0  0  0  0  0  0  0  0  0  0  0  0
  1  2  2  0  0  0  0 
  1  6  1  0  0  0  0 
  2  3  1  0  0  0  0 
  3  4  2  0  0  0  0 
  4  5  1  0  0  0  0 
  5  6  2  0  0  0  0 
  2  7  1  0  0  0  0 
  3  8  1  0  0  0  0 
  5  9  1  0  0  0  0 
 10  9  1  0  0  0  0 
 10 11  2  0  0  0  0 
 11 12  1  0  0  0  0 
 11 13  1  0  0  0  0 
 12 14  1  0  0  0  0 
 14 15  2  0  0  0  0 
 14 16  1  0  0  0  0 
 15 17  1  0  0  0  0 
 17 18  1  0  0  0  0 
 18 19  1  0  0  0  0 
 19 20  1  0  0  0  0 
 20 21  1  0  0  0  0 
 21 22  1  0  0  0  0 
 22 23  1  0  0  0  0 
 23 24  1  0  0  0  0 
 25  1  1  0  0  0  0 
 26  4  1  0  0  0  0 
 27  6  1  0  0  0  0 
 28  9  1  0  0  0  0 
 29  9  1  0  0  0  0 
 30 12  1  0  0  0  0 
 31 13  1  0  0  0  0 
 32 13  1  0  0  0  0 
 33 16  1  0  0  0  0 
 34 16  1  0  0  0  0 
 35 17  1  0  0  0  0 
 36 17  1  0  0  0  0 
 37 18  1  0  0  0  0 
 38 18  1  0  0  0  0 
 39 19  1  0  0  0  0 
 40 19  1  0  0  0  0 
 41 20  1  0  0  0  0 
 42 20  1  0  0  0  0 
 43 21  1  0  0  0  0 
 44 21  1  0  0  0  0 
 45 22  1  0  0  0  0 
 46 22  1  0  0  0  0 
 47 23  1  0  0  0  0 
 48 23  1  0  0  0  0 
 49 24  1  0  0  0  0 
 50 24  1  0  0  0  0 
 51 24  1  0  0  0  0 
M  END
> <cdk:Title>
olanexidine

> <Conformer>
1

> <SuperDrugID>
SD003877

$$$$
