guaiapate
  CDK     0628171801

 52 53  0  0  0  0  0  0  0  0999 V2000
   12.0977   -7.5907   -7.6373 O   0  0  0  0  0  0  0  0  0  0  0  0
   10.6919   -7.4408   -7.3562 C   0  0  1  0  0  0  0  0  0  0  0  0
   12.3292   -8.1840   -8.8501 C   0  0  0  0  0  0  0  0  0  0  0  0
   10.5121   -6.7964   -5.9707 C   0  0  1  0  0  0  0  0  0  0  0  0
   12.4355   -9.5913   -8.9511 C   0  0  0  0  0  0  0  0  0  0  0  0
   12.4781   -7.3858  -10.0032 C   0  0  0  0  0  0  0  0  0  0  0  0
    9.1032   -6.6446   -5.7236 O   0  0  0  0  0  0  0  0  0  0  0  0
   12.3013  -10.3812   -7.8391 O   0  0  0  0  0  0  0  0  0  0  0  0
   12.6365  -10.1873  -10.2122 C   0  0  0  0  0  0  0  0  0  0  0  0
   12.6999   -7.9845  -11.2566 C   0  0  0  0  0  0  0  0  0  0  0  0
    8.7838   -6.0348   -4.4618 C   0  0  1  0  0  0  0  0  0  0  0  0
   13.5411  -10.5953   -7.1411 C   0  0  0  0  0  0  0  0  0  0  0  0
   12.7630   -9.3876  -11.3640 C   0  0  0  0  0  0  0  0  0  0  0  0
    7.2558   -5.9080   -4.3467 C   0  0  1  0  0  0  0  0  0  0  0  0
    6.9394   -5.3063   -3.0808 O   0  0  0  0  0  0  0  0  0  0  0  0
    5.5442   -5.0003   -2.9060 C   0  0  2  0  0  0  0  0  0  0  0  0
    5.3184   -4.5067   -1.4604 C   0  0  1  0  0  0  0  0  0  0  0  0
    5.8674   -5.3934   -0.3790 N   0  0  2  0  0  0  0  0  0  0  0  0
    5.3296   -6.7949   -0.3902 C   0  0  2  0  0  0  0  0  0  0  0  0
    5.7472   -4.7336    0.9624 C   0  0  1  0  0  0  0  0  0  0  0  0
    5.9388   -7.6698    0.7348 C   0  0  2  0  0  0  0  0  0  0  0  0
    6.3576   -5.5781    2.1062 C   0  0  1  0  0  0  0  0  0  0  0  0
    5.7657   -7.0057    2.1206 C   0  0  1  0  0  0  0  0  0  0  0  0
   10.2165   -6.7956   -8.1033 H   0  0  0  0  0  0  0  0  0  0  0  0
   10.1884   -8.4140   -7.3516 H   0  0  0  0  0  0  0  0  0  0  0  0
   10.9674   -7.4412   -5.2139 H   0  0  0  0  0  0  0  0  0  0  0  0
   11.0108   -5.8232   -5.9629 H   0  0  0  0  0  0  0  0  0  0  0  0
   12.4190   -6.3685   -9.9329 H   0  0  0  0  0  0  0  0  0  0  0  0
   12.6903  -11.2043  -10.2961 H   0  0  0  0  0  0  0  0  0  0  0  0
   12.8110   -7.4031  -12.0899 H   0  0  0  0  0  0  0  0  0  0  0  0
    9.1558   -6.6470   -3.6350 H   0  0  0  0  0  0  0  0  0  0  0  0
    9.2249   -5.0358   -4.3957 H   0  0  0  0  0  0  0  0  0  0  0  0
   13.3323  -11.2116   -6.2663 H   0  0  0  0  0  0  0  0  0  0  0  0
   14.2634  -11.1258   -7.7666 H   0  0  0  0  0  0  0  0  0  0  0  0
   13.9773   -9.6542   -6.7957 H   0  0  0  0  0  0  0  0  0  0  0  0
   12.9024   -9.8235  -12.2777 H   0  0  0  0  0  0  0  0  0  0  0  0
    6.8889   -5.2939   -5.1740 H   0  0  0  0  0  0  0  0  0  0  0  0
    6.8060   -6.9023   -4.4104 H   0  0  0  0  0  0  0  0  0  0  0  0
    4.9104   -5.8717   -3.0994 H   0  0  0  0  0  0  0  0  0  0  0  0
    5.2460   -4.2063   -3.6000 H   0  0  0  0  0  0  0  0  0  0  0  0
    5.8065   -3.5297   -1.3964 H   0  0  0  0  0  0  0  0  0  0  0  0
    4.2457   -4.3515   -1.3141 H   0  0  0  0  0  0  0  0  0  0  0  0
    5.5766   -7.2853   -1.3345 H   0  0  0  0  0  0  0  0  0  0  0  0
    4.2390   -6.7863   -0.2956 H   0  0  0  0  0  0  0  0  0  0  0  0
    6.2722   -3.7758    0.9494 H   0  0  0  0  0  0  0  0  0  0  0  0
    4.6961   -4.5358    1.1888 H   0  0  0  0  0  0  0  0  0  0  0  0
    7.0045   -7.8169    0.5348 H   0  0  0  0  0  0  0  0  0  0  0  0
    5.4548   -8.6488    0.7374 H   0  0  0  0  0  0  0  0  0  0  0  0
    7.4422   -5.6311    1.9792 H   0  0  0  0  0  0  0  0  0  0  0  0
    6.1506   -5.0909    3.0622 H   0  0  0  0  0  0  0  0  0  0  0  0
    4.7028   -6.9642    2.3788 H   0  0  0  0  0  0  0  0  0  0  0  0
    6.2759   -7.6066    2.8767 H   0  0  0  0  0  0  0  0  0  0  0  0
  1  2  1  0  0  0  0 
  1  3  1  0  0  0  0 
  2  4  1  0  0  0  0 
  3  5  2  0  0  0  0 
  3  6  1  0  0  0  0 
  4  7  1  0  0  0  0 
  5  8  1  0  0  0  0 
  5  9  1  0  0  0  0 
  6 10  2  0  0  0  0 
  7 11  1  0  0  0  0 
  8 12  1  0  0  0  0 
  9 13  2  0  0  0  0 
 10 13  1  0  0  0  0 
 11 14  1  0  0  0  0 
 14 15  1  0  0  0  0 
 15 16  1  0  0  0  0 
 16 17  1  0  0  0  0 
 17 18  1  0  0  0  0 
 18 19  1  0  0  0  0 
 18 20  1  0  0  0  0 
 19 21  1  0  0  0  0 
 20 22  1  0  0  0  0 
 21 23  1  0  0  0  0 
 22 23  1  0  0  0  0 
  2 24  1  0  0  0  0 
  2 25  1  0  0  0  0 
  4 26  1  0  0  0  0 
  4 27  1  0  0  0  0 
  6 28  1  0  0  0  0 
  9 29  1  0  0  0  0 
 10 30  1  0  0  0  0 
 11 31  1  0  0  0  0 
 11 32  1  0  0  0  0 
 12 33  1  0  0  0  0 
 12 34  1  0  0  0  0 
 12 35  1  0  0  0  0 
 13 36  1  0  0  0  0 
 14 37  1  0  0  0  0 
 14 38  1  0  0  0  0 
 16 39  1  0  0  0  0 
 16 40  1  0  0  0  0 
 17 41  1  0  0  0  0 
 17 42  1  0  0  0  0 
 19 43  1  0  0  0  0 
 19 44  1  0  0  0  0 
 20 45  1  0  0  0  0 
 20 46  1  0  0  0  0 
 21 47  1  0  0  0  0 
 21 48  1  0  0  0  0 
 22 49  1  0  0  0  0 
 22 50  1  0  0  0  0 
 23 51  1  0  0  0  0 
 23 52  1  0  0  0  0 
M  END
> <cdk:Title>
guaiapate

> <Conformer>
1

> <SuperDrugID>
SD002975

$$$$
