quingestanol acetate
  CDK     0628171801

 66 70  0  0  0  0  0  0  0  0999 V2000
    2.1262   -0.4490   -1.2801 O   0  0  0  0  0  0  0  0  0  0  0  0
    3.2009   -1.2964   -1.2140 C   0  0  0  0  0  0  0  0  0  0  0  0
    1.7698    0.5196   -2.2945 C   0  0  2  0  0  0  0  0  0  0  0  0
    3.3179   -2.2229   -0.0845 C   0  0  0  0  0  0  0  0  0  0  0  0
    4.0829   -1.3081   -2.1041 O   0  0  0  0  0  0  0  0  0  0  0  0
    2.7800    1.4737   -2.2842 C   0  0  0  0  0  0  0  0  0  0  0  0
    0.3190    1.1189   -2.0553 C   0  0  2  0  0  0  0  0  0  0  0  0
    1.6474   -0.1658   -3.7016 C   0  0  2  0  0  0  0  0  0  0  0  0
    3.6674    2.2735   -2.2487 C   0  0  0  0  0  0  0  0  0  0  0  0
   -0.6077   -0.0062   -1.4464 C   0  0  0  0  0  0  0  0  0  0  0  0
   -0.0583    1.5542   -3.5085 C   0  0  1  0  0  0  0  0  0  0  0  0
    0.1715    2.3990   -1.1536 C   0  0  2  0  0  0  0  0  0  0  0  0
    0.3569    0.3567   -4.3781 C   0  0  1  0  0  0  0  0  0  0  0  0
   -1.5104    2.1160   -3.6513 C   0  0  1  0  0  0  0  0  0  0  0  0
   -1.2236    3.0962   -1.2690 C   0  0  2  0  0  0  0  0  0  0  0  0
   -1.6673    3.3861   -2.7459 C   0  0  2  0  0  0  0  0  0  0  0  0
   -1.8678    2.4572   -5.1281 C   0  0  1  0  0  0  0  0  0  0  0  0
   -3.1354    3.9421   -2.8918 C   0  0  2  0  0  0  0  0  0  0  0  0
   -2.9927    3.3580   -5.2960 C   0  0  0  0  0  0  0  0  0  0  0  0
   -3.5874    4.0598   -4.3039 C   0  0  0  0  0  0  0  0  0  0  0  0
   -3.3105    5.3104   -2.1551 C   0  0  1  0  0  0  0  0  0  0  0  0
   -4.6244    4.9119   -4.6255 C   0  0  0  0  0  0  0  0  0  0  0  0
   -4.7167    5.9216   -2.3925 C   0  0  1  0  0  0  0  0  0  0  0  0
   -5.1655    5.8015   -3.7722 C   0  0  0  0  0  0  0  0  0  0  0  0
   -6.1023    6.6596   -4.2188 O   0  0  0  0  0  0  0  0  0  0  0  0
   -7.4652    6.1751   -4.2638 C   0  0  1  0  0  0  0  0  0  0  0  0
   -8.1983    6.1804   -2.9042 C   0  0  2  0  0  0  0  0  0  0  0  0
   -8.3081    7.1463   -5.1134 C   0  0  2  0  0  0  0  0  0  0  0  0
   -9.6936    6.3974   -3.2265 C   0  0  2  0  0  0  0  0  0  0  0  0
   -9.7639    6.8866   -4.6901 C   0  0  2  0  0  0  0  0  0  0  0  0
   -2.2269    1.3564   -3.3254 H   0  0  0  0  0  0  0  0  0  0  0  0
   -0.9828    4.1520   -3.1339 H   0  0  0  0  0  0  0  0  0  0  0  0
    0.6095    2.3743   -3.8128 H   0  0  0  0  0  0  0  0  0  0  0  0
   -3.8103    3.2254   -2.4093 H   0  0  0  0  0  0  0  0  0  0  0  0
    2.4645   -2.1126    0.5859 H   0  0  0  0  0  0  0  0  0  0  0  0
    3.3516   -3.2504   -0.4475 H   0  0  0  0  0  0  0  0  0  0  0  0
    4.2361   -2.0095    0.4641 H   0  0  0  0  0  0  0  0  0  0  0  0
    1.5717   -1.2522   -3.5932 H   0  0  0  0  0  0  0  0  0  0  0  0
    2.5103    0.0347   -4.3448 H   0  0  0  0  0  0  0  0  0  0  0  0
    4.3554    2.8855   -2.2122 H   0  0  0  0  0  0  0  0  0  0  0  0
   -1.6536    0.2874   -1.4016 H   0  0  0  0  0  0  0  0  0  0  0  0
   -0.2980   -0.2377   -0.4242 H   0  0  0  0  0  0  0  0  0  0  0  0
   -0.5544   -0.9310   -2.0224 H   0  0  0  0  0  0  0  0  0  0  0  0
    0.9172    3.1430   -1.4392 H   0  0  0  0  0  0  0  0  0  0  0  0
    0.3627    2.1411   -0.1090 H   0  0  0  0  0  0  0  0  0  0  0  0
    0.5455    0.6616   -5.4111 H   0  0  0  0  0  0  0  0  0  0  0  0
   -0.4273   -0.4050   -4.3749 H   0  0  0  0  0  0  0  0  0  0  0  0
   -1.1507    4.0418   -0.7268 H   0  0  0  0  0  0  0  0  0  0  0  0
   -1.9880    2.4981   -0.7684 H   0  0  0  0  0  0  0  0  0  0  0  0
   -1.0110    2.9249   -5.6218 H   0  0  0  0  0  0  0  0  0  0  0  0
   -2.0926    1.5259   -5.6575 H   0  0  0  0  0  0  0  0  0  0  0  0
   -3.3147    3.4611   -6.2339 H   0  0  0  0  0  0  0  0  0  0  0  0
   -3.1720    5.1882   -1.0790 H   0  0  0  0  0  0  0  0  0  0  0  0
   -2.5529    6.0114   -2.5183 H   0  0  0  0  0  0  0  0  0  0  0  0
   -4.9945    4.9047   -5.5515 H   0  0  0  0  0  0  0  0  0  0  0  0
   -5.4441    5.4183   -1.7532 H   0  0  0  0  0  0  0  0  0  0  0  0
   -4.6856    6.9762   -2.1066 H   0  0  0  0  0  0  0  0  0  0  0  0
   -7.5261    5.1763   -4.7190 H   0  0  0  0  0  0  0  0  0  0  0  0
   -7.8292    7.0064   -2.2906 H   0  0  0  0  0  0  0  0  0  0  0  0
   -8.0446    5.2427   -2.3659 H   0  0  0  0  0  0  0  0  0  0  0  0
   -8.1663    6.9684   -6.1820 H   0  0  0  0  0  0  0  0  0  0  0  0
   -8.0374    8.1822   -4.8869 H   0  0  0  0  0  0  0  0  0  0  0  0
  -10.1264    7.1373   -2.5463 H   0  0  0  0  0  0  0  0  0  0  0  0
  -10.2510    5.4614   -3.1207 H   0  0  0  0  0  0  0  0  0  0  0  0
  -10.1962    6.1069   -5.3254 H   0  0  0  0  0  0  0  0  0  0  0  0
  -10.3703    7.7925   -4.7845 H   0  0  0  0  0  0  0  0  0  0  0  0
  1  2  1  0  0  0  0 
  3  1  1  0  0  0  0 
  2  4  1  0  0  0  0 
  2  5  2  0  0  0  0 
  3  6  1  0  0  0  0 
  7  3  1  0  0  0  0 
  3  8  1  0  0  0  0 
  6  9  3  0  0  0  0 
  7 10  1  0  0  0  0 
 11  7  1  0  0  0  0 
  7 12  1  0  0  0  0 
  8 13  1  0  0  0  0 
 11 13  1  0  0  0  0 
 14 11  1  0  0  0  0 
 11 33  1  0  0  0  0 
 12 15  1  0  0  0  0 
 14 16  1  0  0  0  0 
 14 17  1  0  0  0  0 
 14 31  1  0  0  0  0 
 16 15  1  0  0  0  0 
 16 18  1  0  0  0  0 
 16 32  1  0  0  0  0 
 17 19  1  0  0  0  0 
 18 20  1  0  0  0  0 
 18 21  1  0  0  0  0 
 18 34  1  0  0  0  0 
 19 20  2  0  0  0  0 
 20 22  1  0  0  0  0 
 21 23  1  0  0  0  0 
 22 24  2  0  0  0  0 
 23 24  1  0  0  0  0 
 24 25  1  0  0  0  0 
 25 26  1  0  0  0  0 
 26 27  1  0  0  0  0 
 26 28  1  0  0  0  0 
 27 29  1  0  0  0  0 
 28 30  1  0  0  0  0 
 29 30  1  0  0  0  0 
  4 35  1  0  0  0  0 
  4 36  1  0  0  0  0 
  4 37  1  0  0  0  0 
  8 38  1  0  0  0  0 
  8 39  1  0  0  0  0 
  9 40  1  0  0  0  0 
 10 41  1  0  0  0  0 
 10 42  1  0  0  0  0 
 10 43  1  0  0  0  0 
 12 44  1  0  0  0  0 
 12 45  1  0  0  0  0 
 13 46  1  0  0  0  0 
 13 47  1  0  0  0  0 
 15 48  1  0  0  0  0 
 15 49  1  0  0  0  0 
 17 50  1  0  0  0  0 
 17 51  1  0  0  0  0 
 19 52  1  0  0  0  0 
 21 53  1  0  0  0  0 
 21 54  1  0  0  0  0 
 22 55  1  0  0  0  0 
 23 56  1  0  0  0  0 
 23 57  1  0  0  0  0 
 26 58  1  0  0  0  0 
 27 59  1  0  0  0  0 
 27 60  1  0  0  0  0 
 28 61  1  0  0  0  0 
 28 62  1  0  0  0  0 
 29 63  1  0  0  0  0 
 29 64  1  0  0  0  0 
 30 65  1  0  0  0  0 
 30 66  1  0  0  0  0 
M  END
> <cdk:Title>
quingestanol acetate

> <Conformer>
1

> <SuperDrugID>
SD002109

$$$$
