oxycinchophen
  CDK     0628171801

 31 33  0  0  0  0  0  0  0  0999 V2000
    4.3998    3.1004    0.0950 C   0  0  0  0  0  0  0  0  0  0  0  0
    4.9745    2.9639    1.3117 O   0  0  0  0  0  0  0  0  0  0  0  0
    4.6483    4.1642   -0.5157 O   0  0  0  0  0  0  0  0  0  0  0  0
    3.5202    2.1175   -0.4365 C   0  0  0  0  0  0  0  0  0  0  0  0
    3.4769    1.7956   -1.8285 C   0  0  0  0  0  0  0  0  0  0  0  0
    2.6093    1.4741    0.4487 C   0  0  0  0  0  0  0  0  0  0  0  0
    2.4603    0.9042   -2.2781 C   0  0  0  0  0  0  0  0  0  0  0  0
    4.3756    2.3017   -2.8074 C   0  0  0  0  0  0  0  0  0  0  0  0
    2.5805    1.7731    1.7755 O   0  0  0  0  0  0  0  0  0  0  0  0
    1.6595    0.5579   -0.0552 C   0  0  0  0  0  0  0  0  0  0  0  0
    1.6175    0.3301   -1.3898 N   0  0  0  0  0  0  0  0  0  0  0  0
    2.2972    0.6038   -3.6448 C   0  0  0  0  0  0  0  0  0  0  0  0
    4.2183    1.9946   -4.1726 C   0  0  0  0  0  0  0  0  0  0  0  0
    0.7071   -0.1217    0.7445 C   0  0  0  0  0  0  0  0  0  0  0  0
    3.1701    1.1599   -4.5934 C   0  0  0  0  0  0  0  0  0  0  0  0
    1.0997   -0.9346    1.8354 C   0  0  0  0  0  0  0  0  0  0  0  0
   -0.6705   -0.0169    0.4328 C   0  0  0  0  0  0  0  0  0  0  0  0
    0.1386   -1.6541    2.5718 C   0  0  0  0  0  0  0  0  0  0  0  0
   -1.6297   -0.7317    1.1727 C   0  0  0  0  0  0  0  0  0  0  0  0
   -1.2249   -1.5579    2.2367 C   0  0  0  0  0  0  0  0  0  0  0  0
    5.5413    3.6809    1.6625 H   0  0  0  0  0  0  0  0  0  0  0  0
    5.1618    2.8985   -2.5478 H   0  0  0  0  0  0  0  0  0  0  0  0
    2.1551    2.6565    1.8186 H   0  0  0  0  0  0  0  0  0  0  0  0
    1.5402   -0.0140   -3.9534 H   0  0  0  0  0  0  0  0  0  0  0  0
    4.8671    2.3775   -4.8637 H   0  0  0  0  0  0  0  0  0  0  0  0
    3.0475    0.9507   -5.5879 H   0  0  0  0  0  0  0  0  0  0  0  0
    2.0871   -1.0233    2.0926 H   0  0  0  0  0  0  0  0  0  0  0  0
   -0.9856    0.5843   -0.3348 H   0  0  0  0  0  0  0  0  0  0  0  0
    0.4296   -2.2523    3.3485 H   0  0  0  0  0  0  0  0  0  0  0  0
   -2.6218   -0.6509    0.9362 H   0  0  0  0  0  0  0  0  0  0  0  0
   -1.9221   -2.0869    2.7668 H   0  0  0  0  0  0  0  0  0  0  0  0
  1  2  1  0  0  0  0 
  1  3  2  0  0  0  0 
  1  4  1  0  0  0  0 
  4  5  2  0  0  0  0 
  4  6  1  0  0  0  0 
  5  7  1  0  0  0  0 
  5  8  1  0  0  0  0 
  6  9  1  0  0  0  0 
  6 10  2  0  0  0  0 
  7 11  2  0  0  0  0 
  7 12  1  0  0  0  0 
  8 13  2  0  0  0  0 
 10 11  1  0  0  0  0 
 10 14  1  0  0  0  0 
 12 15  2  0  0  0  0 
 13 15  1  0  0  0  0 
 14 16  2  0  0  0  0 
 14 17  1  0  0  0  0 
 16 18  1  0  0  0  0 
 17 19  2  0  0  0  0 
 18 20  2  0  0  0  0 
 19 20  1  0  0  0  0 
  2 21  1  0  0  0  0 
  8 22  1  0  0  0  0 
  9 23  1  0  0  0  0 
 12 24  1  0  0  0  0 
 13 25  1  0  0  0  0 
 15 26  1  0  0  0  0 
 16 27  1  0  0  0  0 
 17 28  1  0  0  0  0 
 18 29  1  0  0  0  0 
 19 30  1  0  0  0  0 
 20 31  1  0  0  0  0 
M  END
> <cdk:Title>
oxycinchophen

> <Conformer>
1

> <SuperDrugID>
SD002939

$$$$
