docosanoic acid
  CDK     0628171801

 68 67  0  0  0  0  0  0  0  0999 V2000
    3.6405   -4.2936   -1.1313 C   0  0  1  0  0  0  0  0  0  0  0  0
    3.0919   -3.0077   -0.4605 C   0  0  2  0  0  0  0  0  0  0  0  0
    4.5811   -5.1092   -0.2033 C   0  0  1  0  0  0  0  0  0  0  0  0
    2.1586   -2.1982   -1.4006 C   0  0  1  0  0  0  0  0  0  0  0  0
    5.1252   -6.3857   -0.9017 C   0  0  2  0  0  0  0  0  0  0  0  0
    1.6189   -0.9140   -0.7182 C   0  0  2  0  0  0  0  0  0  0  0  0
    6.0772   -7.2204   -0.0043 C   0  0  2  0  0  0  0  0  0  0  0  0
    0.6872   -0.1088   -1.6606 C   0  0  2  0  0  0  0  0  0  0  0  0
    6.6138   -8.4891   -0.7228 C   0  0  1  0  0  0  0  0  0  0  0  0
    0.1479    1.1741   -0.9771 C   0  0  1  0  0  0  0  0  0  0  0  0
    7.5298   -9.3452    0.1918 C   0  0  2  0  0  0  0  0  0  0  0  0
   -0.7865    1.9904   -1.9075 C   0  0  1  0  0  0  0  0  0  0  0  0
    8.0318  -10.6434   -0.4917 C   0  0  1  0  0  0  0  0  0  0  0  0
   -1.3301    3.2764   -1.2288 C   0  0  1  0  0  0  0  0  0  0  0  0
    8.8338  -11.4642    0.4334 C   0  0  0  0  0  0  0  0  0  0  0  0
   -2.2648    4.0904   -2.1632 C   0  0  1  0  0  0  0  0  0  0  0  0
    8.3710  -12.6521    0.8854 O   0  0  0  0  0  0  0  0  0  0  0  0
    9.9524  -11.0645    0.8283 O   0  0  0  0  0  0  0  0  0  0  0  0
   -2.8097    5.3772   -1.4861 C   0  0  1  0  0  0  0  0  0  0  0  0
   -3.7456    6.1972   -2.4143 C   0  0  1  0  0  0  0  0  0  0  0  0
   -4.2927    7.4858   -1.7397 C   0  0  2  0  0  0  0  0  0  0  0  0
   -5.2279    8.2996   -2.6757 C   0  0  2  0  0  0  0  0  0  0  0  0
   -5.7785    9.5889   -2.0081 C   0  0  1  0  0  0  0  0  0  0  0  0
   -6.7090   10.3976   -2.9409 C   0  0  0  0  0  0  0  0  0  0  0  0
    2.7991   -4.9266   -1.4268 H   0  0  0  0  0  0  0  0  0  0  0  0
    4.1899   -4.0148   -2.0348 H   0  0  0  0  0  0  0  0  0  0  0  0
    3.9323   -2.3752   -0.1635 H   0  0  0  0  0  0  0  0  0  0  0  0
    2.5374   -3.2843    0.4398 H   0  0  0  0  0  0  0  0  0  0  0  0
    5.4225   -4.4791    0.0989 H   0  0  0  0  0  0  0  0  0  0  0  0
    4.0331   -5.4000    0.6976 H   0  0  0  0  0  0  0  0  0  0  0  0
    2.7122   -1.9211   -2.3035 H   0  0  0  0  0  0  0  0  0  0  0  0
    1.3156   -2.8294   -1.6995 H   0  0  0  0  0  0  0  0  0  0  0  0
    5.6614   -6.0912   -1.8083 H   0  0  0  0  0  0  0  0  0  0  0  0
    4.2790   -7.0132   -1.1957 H   0  0  0  0  0  0  0  0  0  0  0  0
    2.5165   -0.2543   -0.4977 H   0  0  0  0  0  0  0  0  0  0  0  0
    0.9876   -1.2487    0.1643 H   0  0  0  0  0  0  0  0  0  0  0  0
    5.5395   -7.5242    0.8979 H   0  0  0  0  0  0  0  0  0  0  0  0
    6.9241   -6.5976    0.2964 H   0  0  0  0  0  0  0  0  0  0  0  0
   -0.1572   -0.7371   -1.9587 H   0  0  0  0  0  0  0  0  0  0  0  0
    1.2388    0.1715   -2.5626 H   0  0  0  0  0  0  0  0  0  0  0  0
    5.7672   -9.0999   -1.0491 H   0  0  0  0  0  0  0  0  0  0  0  0
    7.1759   -8.1861   -1.6104 H   0  0  0  0  0  0  0  0  0  0  0  0
   -0.4044    0.8952   -0.0758 H   0  0  0  0  0  0  0  0  0  0  0  0
    0.9909    1.8036   -0.6800 H   0  0  0  0  0  0  0  0  0  0  0  0
    6.9751   -9.6157    1.0955 H   0  0  0  0  0  0  0  0  0  0  0  0
    8.3930   -8.7447    0.4898 H   0  0  0  0  0  0  0  0  0  0  0  0
   -0.2351    2.2713   -2.8103 H   0  0  0  0  0  0  0  0  0  0  0  0
   -1.6315    1.3620   -2.2057 H   0  0  0  0  0  0  0  0  0  0  0  0
    7.1737  -11.2250   -0.8389 H   0  0  0  0  0  0  0  0  0  0  0  0
    8.6421  -10.3922   -1.3624 H   0  0  0  0  0  0  0  0  0  0  0  0
   -1.8814    2.9961   -0.3261 H   0  0  0  0  0  0  0  0  0  0  0  0
   -0.4857    3.9050   -0.9303 H   0  0  0  0  0  0  0  0  0  0  0  0
   -1.7111    4.3667   -3.0646 H   0  0  0  0  0  0  0  0  0  0  0  0
   -3.1059    3.4583   -2.4607 H   0  0  0  0  0  0  0  0  0  0  0  0
    8.9063  -13.1798    1.5143 H   0  0  0  0  0  0  0  0  0  0  0  0
   -3.3604    5.0960   -0.5843 H   0  0  0  0  0  0  0  0  0  0  0  0
   -1.9652    6.0047   -1.1884 H   0  0  0  0  0  0  0  0  0  0  0  0
   -3.1941    6.4769   -3.3164 H   0  0  0  0  0  0  0  0  0  0  0  0
   -4.5893    5.5683   -2.7123 H   0  0  0  0  0  0  0  0  0  0  0  0
   -3.4507    8.1171   -1.4417 H   0  0  0  0  0  0  0  0  0  0  0  0
   -4.8457    7.2086   -0.8376 H   0  0  0  0  0  0  0  0  0  0  0  0
   -6.0700    7.6684   -2.9736 H   0  0  0  0  0  0  0  0  0  0  0  0
   -4.6749    8.5770   -3.5776 H   0  0  0  0  0  0  0  0  0  0  0  0
   -6.3380    9.3212   -1.1072 H   0  0  0  0  0  0  0  0  0  0  0  0
   -4.9432   10.2296   -1.7111 H   0  0  0  0  0  0  0  0  0  0  0  0
   -7.5726    9.7964   -3.2330 H   0  0  0  0  0  0  0  0  0  0  0  0
   -6.1719   10.7085   -3.8394 H   0  0  0  0  0  0  0  0  0  0  0  0
   -7.0659   11.2901   -2.4228 H   0  0  0  0  0  0  0  0  0  0  0  0
  1  2  1  0  0  0  0 
  1  3  1  0  0  0  0 
  2  4  1  0  0  0  0 
  3  5  1  0  0  0  0 
  4  6  1  0  0  0  0 
  5  7  1  0  0  0  0 
  6  8  1  0  0  0  0 
  7  9  1  0  0  0  0 
  8 10  1  0  0  0  0 
  9 11  1  0  0  0  0 
 10 12  1  0  0  0  0 
 11 13  1  0  0  0  0 
 12 14  1  0  0  0  0 
 13 15  1  0  0  0  0 
 14 16  1  0  0  0  0 
 15 17  1  0  0  0  0 
 15 18  2  0  0  0  0 
 16 19  1  0  0  0  0 
 19 20  1  0  0  0  0 
 20 21  1  0  0  0  0 
 21 22  1  0  0  0  0 
 22 23  1  0  0  0  0 
 23 24  1  0  0  0  0 
  1 25  1  0  0  0  0 
  1 26  1  0  0  0  0 
  2 27  1  0  0  0  0 
  2 28  1  0  0  0  0 
  3 29  1  0  0  0  0 
  3 30  1  0  0  0  0 
  4 31  1  0  0  0  0 
  4 32  1  0  0  0  0 
  5 33  1  0  0  0  0 
  5 34  1  0  0  0  0 
  6 35  1  0  0  0  0 
  6 36  1  0  0  0  0 
  7 37  1  0  0  0  0 
  7 38  1  0  0  0  0 
  8 39  1  0  0  0  0 
  8 40  1  0  0  0  0 
  9 41  1  0  0  0  0 
  9 42  1  0  0  0  0 
 10 43  1  0  0  0  0 
 10 44  1  0  0  0  0 
 11 45  1  0  0  0  0 
 11 46  1  0  0  0  0 
 12 47  1  0  0  0  0 
 12 48  1  0  0  0  0 
 13 49  1  0  0  0  0 
 13 50  1  0  0  0  0 
 14 51  1  0  0  0  0 
 14 52  1  0  0  0  0 
 16 53  1  0  0  0  0 
 16 54  1  0  0  0  0 
 17 55  1  0  0  0  0 
 19 56  1  0  0  0  0 
 19 57  1  0  0  0  0 
 20 58  1  0  0  0  0 
 20 59  1  0  0  0  0 
 21 60  1  0  0  0  0 
 21 61  1  0  0  0  0 
 22 62  1  0  0  0  0 
 22 63  1  0  0  0  0 
 23 64  1  0  0  0  0 
 23 65  1  0  0  0  0 
 24 66  1  0  0  0  0 
 24 67  1  0  0  0  0 
 24 68  1  0  0  0  0 
M  END
> <cdk:Title>
docosanoic acid

> <Conformer>
1

> <SuperDrugID>
SD003285

$$$$
