bisdequalinium chloride
  CDK     0628171801

102106  0  0  0  0  0  0  0  0999 V2000
  -15.8512   21.2985  -15.2573 C   0  0  0  0  0  0  0  0  0  0  0  0
  -15.3340   22.0750  -16.4224 C   0  0  0  0  0  0  0  0  0  0  0  0
  -14.7430   21.5329  -17.5523 N   0  0  0  0  0  0  0  0  0  0  0  0
  -15.4490   23.4767  -16.3192 C   0  0  0  0  0  0  0  0  0  0  0  0
  -14.7098   22.2832  -18.7243 C   0  0  0  0  0  0  0  0  0  0  0  0
  -14.0975   20.2205  -17.4529 C   0  0  1  0  0  0  0  0  0  0  0  0
  -15.1155   24.3026  -17.4029 C   0  0  0  0  0  0  0  0  0  0  0  0
  -14.8727   23.7057  -18.6606 C   0  0  0  0  0  0  0  0  0  0  0  0
  -14.5188   21.7111  -20.0145 C   0  0  0  0  0  0  0  0  0  0  0  0
  -12.9541   20.1539  -16.3902 C   0  0  1  0  0  0  0  0  0  0  0  0
  -15.0106   25.6498  -17.2049 N   0  0  0  0  0  0  0  0  0  0  0  0
  -14.7710   24.4912  -19.8368 C   0  0  0  0  0  0  0  0  0  0  0  0
  -14.4246   22.4986  -21.1723 C   0  0  0  0  0  0  0  0  0  0  0  0
  -11.8156   21.2178  -16.5513 C   0  0  1  0  0  0  0  0  0  0  0  0
  -13.9641   26.2026  -16.3998 C   0  0  2  0  0  0  0  0  0  0  0  0
  -14.5489   23.8901  -21.0842 C   0  0  0  0  0  0  0  0  0  0  0  0
  -11.8569   22.4186  -15.5519 C   0  0  2  0  0  0  0  0  0  0  0  0
  -14.0960   27.8103  -16.3958 C   0  0  1  0  0  0  0  0  0  0  0  0
  -10.5247   23.2245  -15.5074 C   0  0  2  0  0  0  0  0  0  0  0  0
  -12.8091   28.4270  -15.5812 C   0  0  2  0  0  0  0  0  0  0  0  0
  -10.4859   24.3280  -14.4072 C   0  0  1  0  0  0  0  0  0  0  0  0
  -12.6728   30.0021  -15.5398 C   0  0  2  0  0  0  0  0  0  0  0  0
   -9.1165   25.0708  -14.3492 C   0  0  1  0  0  0  0  0  0  0  0  0
  -11.3633   30.4739  -14.8479 C   0  0  2  0  0  0  0  0  0  0  0  0
   -8.9481   26.0239  -13.1275 C   0  0  1  0  0  0  0  0  0  0  0  0
  -11.1277   32.0156  -14.8818 C   0  0  2  0  0  0  0  0  0  0  0  0
   -7.5386   26.6869  -13.0571 C   0  0  2  0  0  0  0  0  0  0  0  0
  -10.0314   32.4168  -13.8588 C   0  0  2  0  0  0  0  0  0  0  0  0
   -7.1863   27.4228  -11.7239 C   0  0  2  0  0  0  0  0  0  0  0  0
   -9.6839   33.9280  -13.7599 C   0  0  1  0  0  0  0  0  0  0  0  0
   -7.7075   28.7897  -11.5810 N   0  0  0  0  0  0  0  0  0  0  0  0
   -8.3639   34.2230  -12.9811 C   0  0  1  0  0  0  0  0  0  0  0  0
   -8.9243   29.0508  -10.9483 C   0  0  0  0  0  0  0  0  0  0  0  0
   -6.9427   29.8485  -12.0551 C   0  0  0  0  0  0  0  0  0  0  0  0
   -8.3555   34.0066  -11.4352 C   0  0  1  0  0  0  0  0  0  0  0  0
   -9.3671   30.4038  -10.7425 C   0  0  0  0  0  0  0  0  0  0  0  0
   -9.7952   28.0221  -10.4801 C   0  0  0  0  0  0  0  0  0  0  0  0
   -5.7113   29.7554  -12.9038 C   0  0  0  0  0  0  0  0  0  0  0  0
   -7.3125   31.1762  -11.7569 C   0  0  0  0  0  0  0  0  0  0  0  0
   -8.9124   32.7901  -10.9195 N   0  0  0  0  0  0  0  0  0  0  0  0
   -8.5244   31.4820  -11.1225 C   0  0  0  0  0  0  0  0  0  0  0  0
  -10.6487   30.6520  -10.1748 C   0  0  0  0  0  0  0  0  0  0  0  0
  -11.0459   28.2854   -9.9043 C   0  0  0  0  0  0  0  0  0  0  0  0
  -11.4809   29.6038   -9.7641 C   0  0  0  0  0  0  0  0  0  0  0  0
  -16.8911   21.5794  -15.0782 H   0  0  0  0  0  0  0  0  0  0  0  0
  -15.8441   20.2230  -15.4192 H   0  0  0  0  0  0  0  0  0  0  0  0
  -15.2693   21.5202  -14.3610 H   0  0  0  0  0  0  0  0  0  0  0  0
  -15.7610   23.9051  -15.4434 H   0  0  0  0  0  0  0  0  0  0  0  0
  -14.8395   19.4423  -17.2556 H   0  0  0  0  0  0  0  0  0  0  0  0
  -13.6019   19.9153  -18.3705 H   0  0  0  0  0  0  0  0  0  0  0  0
  -14.4684   20.7034  -20.1484 H   0  0  0  0  0  0  0  0  0  0  0  0
  -13.3688   20.2053  -15.3838 H   0  0  0  0  0  0  0  0  0  0  0  0
  -12.5023   19.1578  -16.4690 H   0  0  0  0  0  0  0  0  0  0  0  0
  -15.5880   26.2538  -17.7002 H   0  0  0  0  0  0  0  0  0  0  0  0
  -14.8697   25.5082  -19.8035 H   0  0  0  0  0  0  0  0  0  0  0  0
  -14.2729   22.0566  -22.0812 H   0  0  0  0  0  0  0  0  0  0  0  0
  -10.8646   20.6940  -16.4141 H   0  0  0  0  0  0  0  0  0  0  0  0
  -11.8154   21.6100  -17.5724 H   0  0  0  0  0  0  0  0  0  0  0  0
  -13.0053   25.8082  -16.8404 H   0  0  0  0  0  0  0  0  0  0  0  0
  -14.0226   25.7205  -15.3859 H   0  0  0  0  0  0  0  0  0  0  0  0
  -14.4866   24.4644  -21.9298 H   0  0  0  0  0  0  0  0  0  0  0  0
  -12.0749   22.0480  -14.5454 H   0  0  0  0  0  0  0  0  0  0  0  0
  -12.6590   23.0983  -15.8439 H   0  0  0  0  0  0  0  0  0  0  0  0
  -14.0933   28.1837  -17.4217 H   0  0  0  0  0  0  0  0  0  0  0  0
  -15.0237   28.1091  -15.9037 H   0  0  0  0  0  0  0  0  0  0  0  0
  -10.3618   23.6825  -16.4877 H   0  0  0  0  0  0  0  0  0  0  0  0
   -9.7042   22.5253  -15.3181 H   0  0  0  0  0  0  0  0  0  0  0  0
  -11.8233   28.0688  -15.9850 H   0  0  0  0  0  0  0  0  0  0  0  0
  -12.7742   28.1138  -14.5025 H   0  0  0  0  0  0  0  0  0  0  0  0
  -11.2835   25.0528  -14.5935 H   0  0  0  0  0  0  0  0  0  0  0  0
  -10.6755   23.8573  -13.4382 H   0  0  0  0  0  0  0  0  0  0  0  0
  -13.5312   30.4116  -14.9982 H   0  0  0  0  0  0  0  0  0  0  0  0
  -12.7005   30.3846  -16.5630 H   0  0  0  0  0  0  0  0  0  0  0  0
   -8.3208   24.3207  -14.3057 H   0  0  0  0  0  0  0  0  0  0  0  0
   -8.9883   25.6466  -15.2698 H   0  0  0  0  0  0  0  0  0  0  0  0
  -10.5087   29.9884  -15.3304 H   0  0  0  0  0  0  0  0  0  0  0  0
  -11.3959   30.1278  -13.8095 H   0  0  0  0  0  0  0  0  0  0  0  0
   -9.7109   26.8065  -13.1741 H   0  0  0  0  0  0  0  0  0  0  0  0
   -9.1070   25.4339  -12.2204 H   0  0  0  0  0  0  0  0  0  0  0  0
  -12.0549   32.5404  -14.6339 H   0  0  0  0  0  0  0  0  0  0  0  0
  -10.8207   32.3110  -15.8904 H   0  0  0  0  0  0  0  0  0  0  0  0
   -7.4311   27.3795  -13.8956 H   0  0  0  0  0  0  0  0  0  0  0  0
   -6.7930   25.8964  -13.1909 H   0  0  0  0  0  0  0  0  0  0  0  0
   -9.1208   31.8518  -14.0865 H   0  0  0  0  0  0  0  0  0  0  0  0
  -10.4090   32.1093  -12.8857 H   0  0  0  0  0  0  0  0  0  0  0  0
   -6.0990   27.4349  -11.6216 H   0  0  0  0  0  0  0  0  0  0  0  0
   -7.4509   26.7889  -10.8804 H   0  0  0  0  0  0  0  0  0  0  0  0
   -9.5655   34.3208  -14.7751 H   0  0  0  0  0  0  0  0  0  0  0  0
  -10.5132   34.4646  -13.2905 H   0  0  0  0  0  0  0  0  0  0  0  0
   -7.5598   33.6399  -13.4332 H   0  0  0  0  0  0  0  0  0  0  0  0
   -8.1095   35.2750  -13.1534 H   0  0  0  0  0  0  0  0  0  0  0  0
   -7.3346   34.1140  -11.0601 H   0  0  0  0  0  0  0  0  0  0  0  0
   -8.9360   34.8141  -10.9864 H   0  0  0  0  0  0  0  0  0  0  0  0
   -9.5546   27.0393  -10.5453 H   0  0  0  0  0  0  0  0  0  0  0  0
   -5.4953   28.7592  -13.2772 H   0  0  0  0  0  0  0  0  0  0  0  0
   -5.8291   30.3896  -13.7870 H   0  0  0  0  0  0  0  0  0  0  0  0
   -4.8445   30.1049  -12.3385 H   0  0  0  0  0  0  0  0  0  0  0  0
   -6.6886   31.9398  -12.0267 H   0  0  0  0  0  0  0  0  0  0  0  0
   -9.6938   32.9185  -10.3665 H   0  0  0  0  0  0  0  0  0  0  0  0
  -11.0137   31.5978  -10.0530 H   0  0  0  0  0  0  0  0  0  0  0  0
  -11.6400   27.5146   -9.5886 H   0  0  0  0  0  0  0  0  0  0  0  0
  -12.4003   29.7987   -9.3607 H   0  0  0  0  0  0  0  0  0  0  0  0
  1  2  1  0  0  0  0 
  2  3  1  0  0  0  0 
  2  4  2  0  0  0  0 
  3  5  1  0  0  0  0 
  3  6  1  0  0  0  0 
  4  7  1  0  0  0  0 
  5  8  1  0  0  0  0 
  5  9  2  0  0  0  0 
  6 10  1  0  0  0  0 
  7  8  1  0  0  0  0 
  7 11  1  0  0  0  0 
  8 12  2  0  0  0  0 
  9 13  1  0  0  0  0 
 10 14  1  0  0  0  0 
 11 15  1  0  0  0  0 
 12 16  1  0  0  0  0 
 13 16  2  0  0  0  0 
 14 17  1  0  0  0  0 
 15 18  1  0  0  0  0 
 17 19  1  0  0  0  0 
 18 20  1  0  0  0  0 
 19 21  1  0  0  0  0 
 20 22  1  0  0  0  0 
 21 23  1  0  0  0  0 
 22 24  1  0  0  0  0 
 23 25  1  0  0  0  0 
 24 26  1  0  0  0  0 
 25 27  1  0  0  0  0 
 26 28  1  0  0  0  0 
 27 29  1  0  0  0  0 
 28 30  1  0  0  0  0 
 29 31  1  0  0  0  0 
 30 32  1  0  0  0  0 
 31 33  1  0  0  0  0 
 31 34  1  0  0  0  0 
 32 35  1  0  0  0  0 
 33 36  1  0  0  0  0 
 33 37  2  0  0  0  0 
 34 38  1  0  0  0  0 
 34 39  2  0  0  0  0 
 35 40  1  0  0  0  0 
 36 41  1  0  0  0  0 
 36 42  2  0  0  0  0 
 37 43  1  0  0  0  0 
 39 41  1  0  0  0  0 
 40 41  1  0  0  0  0 
 42 44  1  0  0  0  0 
 43 44  2  0  0  0  0 
  1 45  1  0  0  0  0 
  1 46  1  0  0  0  0 
  1 47  1  0  0  0  0 
  4 48  1  0  0  0  0 
  6 49  1  0  0  0  0 
  6 50  1  0  0  0  0 
  9 51  1  0  0  0  0 
 10 52  1  0  0  0  0 
 10 53  1  0  0  0  0 
 11 54  1  0  0  0  0 
 12 55  1  0  0  0  0 
 13 56  1  0  0  0  0 
 14 57  1  0  0  0  0 
 14 58  1  0  0  0  0 
 15 59  1  0  0  0  0 
 15 60  1  0  0  0  0 
 16 61  1  0  0  0  0 
 17 62  1  0  0  0  0 
 17 63  1  0  0  0  0 
 18 64  1  0  0  0  0 
 18 65  1  0  0  0  0 
 19 66  1  0  0  0  0 
 19 67  1  0  0  0  0 
 20 68  1  0  0  0  0 
 20 69  1  0  0  0  0 
 21 70  1  0  0  0  0 
 21 71  1  0  0  0  0 
 22 72  1  0  0  0  0 
 22 73  1  0  0  0  0 
 23 74  1  0  0  0  0 
 23 75  1  0  0  0  0 
 24 76  1  0  0  0  0 
 24 77  1  0  0  0  0 
 25 78  1  0  0  0  0 
 25 79  1  0  0  0  0 
 26 80  1  0  0  0  0 
 26 81  1  0  0  0  0 
 27 82  1  0  0  0  0 
 27 83  1  0  0  0  0 
 28 84  1  0  0  0  0 
 28 85  1  0  0  0  0 
 29 86  1  0  0  0  0 
 29 87  1  0  0  0  0 
 30 88  1  0  0  0  0 
 30 89  1  0  0  0  0 
 32 90  1  0  0  0  0 
 32 91  1  0  0  0  0 
 35 92  1  0  0  0  0 
 35 93  1  0  0  0  0 
 37 94  1  0  0  0  0 
 38 95  1  0  0  0  0 
 38 96  1  0  0  0  0 
 38 97  1  0  0  0  0 
 39 98  1  0  0  0  0 
 40 99  1  0  0  0  0 
 42100  1  0  0  0  0 
 43101  1  0  0  0  0 
 44102  1  0  0  0  0 
M  CHG  1   7   1
M  CHG  1  41   1
M  END
> <cdk:Title>
bisdequalinium chloride

> <Conformer>
1

> <SuperDrugID>
SD002632

$$$$
