idelalisib
  CDK     0628171802

 49 53  0  0  0  0  0  0  0  0999 V2000
    6.4055    1.2196   -0.9022 C   0  0  0  0  0  0  0  0  0  0  0  0
    7.5997    0.9601   -1.5937 C   0  0  0  0  0  0  0  0  0  0  0  0
    7.9317   -0.3587   -1.9489 C   0  0  0  0  0  0  0  0  0  0  0  0
    7.0839   -1.4284   -1.5992 C   0  0  0  0  0  0  0  0  0  0  0  0
    5.8795   -1.1859   -0.8858 C   0  0  0  0  0  0  0  0  0  0  0  0
    5.5508    0.1542   -0.5566 C   0  0  0  0  0  0  0  0  0  0  0  0
    4.4000    0.4192    0.0947 N   0  0  0  0  0  0  0  0  0  0  0  0
    4.9642   -2.1859   -0.4683 C   0  0  0  0  0  0  0  0  0  0  0  0
    3.8046   -1.8561    0.2044 N   0  0  0  0  0  0  0  0  0  0  0  0
    3.5128   -0.5335    0.4781 C   0  0  0  0  0  0  0  0  0  0  0  0
    5.2295   -3.3885   -0.7254 O   0  0  0  0  0  0  0  0  0  0  0  0
    2.9658   -2.8789    0.5859 C   0  0  0  0  0  0  0  0  0  0  0  0
    7.4551   -2.6297   -1.9580 F   0  0  0  0  0  0  0  0  0  0  0  0
    2.2749   -0.0020    1.1341 C   0  0  2  0  0  0  0  0  0  0  0  0
    1.4317    0.8813    0.1628 C   0  0  1  0  0  0  0  0  0  0  0  0
    2.6263    0.8250    2.2585 N   0  0  0  0  0  0  0  0  0  0  0  0
    2.0666    0.7940    3.4978 C   0  0  0  0  0  0  0  0  0  0  0  0
    1.6763    1.8351    5.6482 C   0  0  0  0  0  0  0  0  0  0  0  0
    2.2744    1.8597    4.3926 C   0  0  0  0  0  0  0  0  0  0  0  0
    1.2647   -0.2245    3.9276 N   0  0  0  0  0  0  0  0  0  0  0  0
    0.6809   -0.2325    5.1598 C   0  0  0  0  0  0  0  0  0  0  0  0
    0.8882    0.7987    6.0250 N   0  0  0  0  0  0  0  0  0  0  0  0
    2.9591    3.0046    4.3057 N   0  0  0  0  0  0  0  0  0  0  0  0
    2.7957    3.6528    5.4720 C   0  0  0  0  0  0  0  0  0  0  0  0
    2.0119    2.9502    6.3147 N   0  0  0  0  0  0  0  0  0  0  0  0
    0.9622    0.1557   -1.1214 C   0  0  0  0  0  0  0  0  0  0  0  0
    3.1650   -3.5336    1.8231 C   0  0  0  0  0  0  0  0  0  0  0  0
    2.3511   -4.6205    2.1957 C   0  0  0  0  0  0  0  0  0  0  0  0
    1.3337   -5.0683    1.3327 C   0  0  0  0  0  0  0  0  0  0  0  0
    1.1248   -4.4213    0.1008 C   0  0  0  0  0  0  0  0  0  0  0  0
    1.9425   -3.3380   -0.2751 C   0  0  0  0  0  0  0  0  0  0  0  0
    6.1638    2.1842   -0.6542 H   0  0  0  0  0  0  0  0  0  0  0  0
    8.2270    1.7272   -1.8448 H   0  0  0  0  0  0  0  0  0  0  0  0
    8.7958   -0.5348   -2.4663 H   0  0  0  0  0  0  0  0  0  0  0  0
    1.6332   -0.8251    1.4531 H   0  0  0  0  0  0  0  0  0  0  0  0
    0.5409    1.2366    0.6929 H   0  0  0  0  0  0  0  0  0  0  0  0
    2.0047    1.7673   -0.1291 H   0  0  0  0  0  0  0  0  0  0  0  0
    3.2948    1.5098    2.1040 H   0  0  0  0  0  0  0  0  0  0  0  0
    0.0839   -1.0129    5.4316 H   0  0  0  0  0  0  0  0  0  0  0  0
    3.4732    3.3136    3.5433 H   0  0  0  0  0  0  0  0  0  0  0  0
    3.2091    4.5589    5.6927 H   0  0  0  0  0  0  0  0  0  0  0  0
    0.3748   -0.7271   -0.8648 H   0  0  0  0  0  0  0  0  0  0  0  0
    0.3366    0.8274   -1.7118 H   0  0  0  0  0  0  0  0  0  0  0  0
    1.8137   -0.1482   -1.7360 H   0  0  0  0  0  0  0  0  0  0  0  0
    3.9145   -3.2274    2.4483 H   0  0  0  0  0  0  0  0  0  0  0  0
    2.5066   -5.0921    3.0894 H   0  0  0  0  0  0  0  0  0  0  0  0
    0.7514   -5.8676    1.5968 H   0  0  0  0  0  0  0  0  0  0  0  0
    0.3834   -4.7456   -0.5237 H   0  0  0  0  0  0  0  0  0  0  0  0
    1.7970   -2.8939   -1.1847 H   0  0  0  0  0  0  0  0  0  0  0  0
  1  2  1  0  0  0  0 
  1  6  2  0  0  0  0 
  2  3  2  0  0  0  0 
  3  4  1  0  0  0  0 
  4  5  2  0  0  0  0 
  5  6  1  0  0  0  0 
  8  9  1  0  0  0  0 
  9 10  1  0  0  0  0 
  7 10  2  0  0  0  0 
  5  8  1  0  0  0  0 
  7  6  1  0  0  0  0 
  8 11  2  0  0  0  0 
  9 12  1  0  0  0  0 
  4 13  1  0  0  0  0 
 14 10  1  0  0  0  0 
 14 15  1  0  0  0  0 
 14 16  1  0  0  0  0 
 16 17  1  0  0  0  0 
 18 19  1  0  0  0  0 
 20 21  2  0  0  0  0 
 21 22  1  0  0  0  0 
 18 22  2  0  0  0  0 
 19 17  2  0  0  0  0 
 17 20  1  0  0  0  0 
 23 24  1  0  0  0  0 
 24 25  2  0  0  0  0 
 18 25  1  0  0  0  0 
 19 23  1  0  0  0  0 
 15 26  1  0  0  0  0 
 27 28  1  0  0  0  0 
 28 29  2  0  0  0  0 
 29 30  1  0  0  0  0 
 30 31  2  0  0  0  0 
 12 27  2  0  0  0  0 
 12 31  1  0  0  0  0 
 32  1  1  0  0  0  0 
 33  2  1  0  0  0  0 
 34  3  1  0  0  0  0 
 14 35  1  0  0  0  0 
 36 15  1  0  0  0  0 
 37 15  1  0  0  0  0 
 38 16  1  0  0  0  0 
 39 21  1  0  0  0  0 
 40 23  1  0  0  0  0 
 41 24  1  0  0  0  0 
 42 26  1  0  0  0  0 
 43 26  1  0  0  0  0 
 44 26  1  0  0  0  0 
 45 27  1  0  0  0  0 
 46 28  1  0  0  0  0 
 47 29  1  0  0  0  0 
 48 30  1  0  0  0  0 
 49 31  1  0  0  0  0 
M  END
> <cdk:Title>
idelalisib

> <Conformer>
1

> <SuperDrugID>
SD003820

$$$$
