desvenlafaxine
  CDK     0628171801

 44 45  0  0  0  0  0  0  0  0999 V2000
    1.5261   -1.3786    2.6056 C   0  0  0  0  0  0  0  0  0  0  0  0
    0.9916   -2.0276    3.7362 C   0  0  0  0  0  0  0  0  0  0  0  0
    0.3159   -1.2887    4.7225 C   0  0  0  0  0  0  0  0  0  0  0  0
    0.1972    0.1057    4.5814 C   0  0  0  0  0  0  0  0  0  0  0  0
    0.7214    0.7510    3.4442 C   0  0  0  0  0  0  0  0  0  0  0  0
    1.3928    0.0227    2.4281 C   0  0  0  0  0  0  0  0  0  0  0  0
   -0.2275   -1.9089    5.8018 O   0  0  0  0  0  0  0  0  0  0  0  0
    1.9438    0.7268    1.2112 C   0  0  1  0  0  0  0  0  0  0  0  0
    3.5299    0.8420    1.2226 C   0  0  2  0  0  0  0  0  0  0  0  0
    1.3382    0.1235   -0.1047 C   0  0  1  0  0  0  0  0  0  0  0  0
   -0.1487   -0.1094   -0.0807 N   0  0  1  0  0  0  0  0  0  0  0  0
   -0.9554    1.1480   -0.1101 C   0  0  0  0  0  0  0  0  0  0  0  0
   -0.6012   -1.0895   -1.1130 C   0  0  0  0  0  0  0  0  0  0  0  0
    4.4205    3.7690    1.3270 C   0  0  1  0  0  0  0  0  0  0  0  0
    3.8388    3.0596    2.5753 C   0  0  1  0  0  0  0  0  0  0  0  0
    4.0805    1.5257    2.5262 C   0  0  1  0  0  0  0  0  0  0  0  0
    4.1520    1.6040   -0.0050 C   0  0  2  0  0  0  0  0  0  0  0  0
    3.8921    3.1353    0.0148 C   0  0  2  0  0  0  0  0  0  0  0  0
    4.0973   -0.4721    1.1696 O   0  0  0  0  0  0  0  0  0  0  0  0
    2.0099   -1.9500    1.9108 H   0  0  0  0  0  0  0  0  0  0  0  0
    1.0936   -3.0409    3.8395 H   0  0  0  0  0  0  0  0  0  0  0  0
   -0.2756    0.6542    5.3039 H   0  0  0  0  0  0  0  0  0  0  0  0
    0.6095    1.7651    3.3646 H   0  0  0  0  0  0  0  0  0  0  0  0
   -0.3365   -2.8475    5.5390 H   0  0  0  0  0  0  0  0  0  0  0  0
    1.5774    1.7533    1.2289 H   0  0  0  0  0  0  0  0  0  0  0  0
    1.5636    0.7828   -0.9469 H   0  0  0  0  0  0  0  0  0  0  0  0
    1.8537   -0.8199   -0.2997 H   0  0  0  0  0  0  0  0  0  0  0  0
   -0.8160    1.6980    0.8204 H   0  0  0  0  0  0  0  0  0  0  0  0
   -2.0246    0.9394   -0.2027 H   0  0  0  0  0  0  0  0  0  0  0  0
   -0.6603    1.7875   -0.9456 H   0  0  0  0  0  0  0  0  0  0  0  0
   -0.0830   -2.0418   -0.9849 H   0  0  0  0  0  0  0  0  0  0  0  0
   -1.6700   -1.2946   -1.0150 H   0  0  0  0  0  0  0  0  0  0  0  0
   -0.4080   -0.7174   -2.1223 H   0  0  0  0  0  0  0  0  0  0  0  0
    4.1529    4.8275    1.3547 H   0  0  0  0  0  0  0  0  0  0  0  0
    5.5127    3.7022    1.3499 H   0  0  0  0  0  0  0  0  0  0  0  0
    4.3109    3.4686    3.4716 H   0  0  0  0  0  0  0  0  0  0  0  0
    2.7690    3.2676    2.6463 H   0  0  0  0  0  0  0  0  0  0  0  0
    3.6439    1.0695    3.4165 H   0  0  0  0  0  0  0  0  0  0  0  0
    5.1588    1.3538    2.5921 H   0  0  0  0  0  0  0  0  0  0  0  0
    3.8008    1.1865   -0.9495 H   0  0  0  0  0  0  0  0  0  0  0  0
    5.2381    1.4602   -0.0010 H   0  0  0  0  0  0  0  0  0  0  0  0
    4.3981    3.6045   -0.8332 H   0  0  0  0  0  0  0  0  0  0  0  0
    2.8228    3.3358   -0.0897 H   0  0  0  0  0  0  0  0  0  0  0  0
    3.8677   -0.8915    2.0236 H   0  0  0  0  0  0  0  0  0  0  0  0
  1  2  2  0  0  0  0 
  2  3  1  0  0  0  0 
  3  4  2  0  0  0  0 
  4  5  1  0  0  0  0 
  5  6  2  0  0  0  0 
  1  6  1  0  0  0  0 
  3  7  1  0  0  0  0 
  8  6  1  0  0  0  0 
  8  9  1  0  0  0  0 
  8 10  1  0  0  0  0 
 10 11  1  0  0  0  0 
 11 12  1  0  0  0  0 
 11 13  1  0  0  0  0 
 16  9  1  0  0  0  0 
  9 17  1  0  0  0  0 
 14 15  1  0  0  0  0 
 15 16  1  0  0  0  0 
 17 18  1  0  0  0  0 
 14 18  1  0  0  0  0 
  9 19  1  0  0  0  0 
  1 20  1  0  0  0  0 
  2 21  1  0  0  0  0 
  4 22  1  0  0  0  0 
  5 23  1  0  0  0  0 
  7 24  1  0  0  0  0 
  8 25  1  0  0  0  0 
 10 26  1  0  0  0  0 
 10 27  1  0  0  0  0 
 12 28  1  0  0  0  0 
 12 29  1  0  0  0  0 
 12 30  1  0  0  0  0 
 13 31  1  0  0  0  0 
 13 32  1  0  0  0  0 
 13 33  1  0  0  0  0 
 14 34  1  0  0  0  0 
 14 35  1  0  0  0  0 
 15 36  1  0  0  0  0 
 15 37  1  0  0  0  0 
 16 38  1  0  0  0  0 
 16 39  1  0  0  0  0 
 17 40  1  0  0  0  0 
 17 41  1  0  0  0  0 
 18 42  1  0  0  0  0 
 18 43  1  0  0  0  0 
 19 44  1  0  0  0  0 
M  END
> <cdk:Title>
desvenlafaxine

> <Conformer>
1

> <SuperDrugID>
SD003533

$$$$
