levosalbutamol
  CDK     0628171801

 38 38  0  0  0  0  0  0  0  0999 V2000
    1.3843   -0.1320   -0.9547 C   0  0  2  0  0  0  0  0  0  0  0  0
    2.3658    0.8682   -0.2857 C   0  0  1  0  0  0  0  0  0  0  0  0
    1.4895   -1.4075   -0.3205 O   0  0  0  0  0  0  0  0  0  0  0  0
    1.6029   -0.2612   -2.4268 C   0  0  0  0  0  0  0  0  0  0  0  0
    2.2075    2.2292   -0.8562 N   0  0  2  0  0  0  0  0  0  0  0  0
    2.5954   -1.1220   -2.9543 C   0  0  0  0  0  0  0  0  0  0  0  0
    0.8251    0.4948   -3.3339 C   0  0  0  0  0  0  0  0  0  0  0  0
    3.0735    3.3530   -0.3813 C   0  0  2  0  0  0  0  0  0  0  0  0
    2.8232   -1.2294   -4.3477 C   0  0  0  0  0  0  0  0  0  0  0  0
    1.0456    0.4103   -4.7187 C   0  0  0  0  0  0  0  0  0  0  0  0
    4.5786    3.0928   -0.7066 C   0  0  0  0  0  0  0  0  0  0  0  0
    2.8882    3.6299    1.1447 C   0  0  0  0  0  0  0  0  0  0  0  0
    2.5912    4.6008   -1.1862 C   0  0  0  0  0  0  0  0  0  0  0  0
    3.8727   -2.1443   -4.8613 C   0  0  2  0  0  0  0  0  0  0  0  0
    2.0487   -0.4345   -5.2277 C   0  0  0  0  0  0  0  0  0  0  0  0
    5.0952   -1.4295   -4.9823 O   0  0  0  0  0  0  0  0  0  0  0  0
    2.2417   -0.4563   -6.5713 O   0  0  0  0  0  0  0  0  0  0  0  0
    0.3630    0.2092   -0.7627 H   0  0  0  0  0  0  0  0  0  0  0  0
    2.1467    0.9022    0.7827 H   0  0  0  0  0  0  0  0  0  0  0  0
    3.3895    0.5141   -0.4167 H   0  0  0  0  0  0  0  0  0  0  0  0
    1.3726   -1.2306    0.6366 H   0  0  0  0  0  0  0  0  0  0  0  0
    1.2390    2.5055   -0.6836 H   0  0  0  0  0  0  0  0  0  0  0  0
    3.1610   -1.6805   -2.3122 H   0  0  0  0  0  0  0  0  0  0  0  0
    0.0957    1.1254   -2.9908 H   0  0  0  0  0  0  0  0  0  0  0  0
    0.4781    0.9727   -5.3583 H   0  0  0  0  0  0  0  0  0  0  0  0
    4.7108    2.8434   -1.7617 H   0  0  0  0  0  0  0  0  0  0  0  0
    4.9724    2.2675   -0.1123 H   0  0  0  0  0  0  0  0  0  0  0  0
    5.1819    3.9764   -0.4859 H   0  0  0  0  0  0  0  0  0  0  0  0
    3.2886    2.8086    1.7419 H   0  0  0  0  0  0  0  0  0  0  0  0
    3.4122    4.5428    1.4391 H   0  0  0  0  0  0  0  0  0  0  0  0
    1.8305    3.7473    1.3927 H   0  0  0  0  0  0  0  0  0  0  0  0
    3.1638    5.4912   -0.9149 H   0  0  0  0  0  0  0  0  0  0  0  0
    2.7067    4.4381   -2.2613 H   0  0  0  0  0  0  0  0  0  0  0  0
    1.5353    4.8054   -0.9888 H   0  0  0  0  0  0  0  0  0  0  0  0
    3.5995   -2.5543   -5.8349 H   0  0  0  0  0  0  0  0  0  0  0  0
    4.0278   -2.9887   -4.1876 H   0  0  0  0  0  0  0  0  0  0  0  0
    5.7511   -2.0962   -5.2774 H   0  0  0  0  0  0  0  0  0  0  0  0
    3.0171    0.1244   -6.7252 H   0  0  0  0  0  0  0  0  0  0  0  0
  1  2  1  0  0  0  0 
  1  3  1  0  0  0  0 
  1  4  1  0  0  0  0 
  2  5  1  0  0  0  0 
  4  6  2  0  0  0  0 
  4  7  1  0  0  0  0 
  5  8  1  0  0  0  0 
  6  9  1  0  0  0  0 
  7 10  2  0  0  0  0 
  8 11  1  0  0  0  0 
  8 12  1  0  0  0  0 
  8 13  1  0  0  0  0 
  9 14  1  0  0  0  0 
  9 15  2  0  0  0  0 
 10 15  1  0  0  0  0 
 14 16  1  0  0  0  0 
 15 17  1  0  0  0  0 
  1 18  1  0  0  0  0 
  2 19  1  0  0  0  0 
  2 20  1  0  0  0  0 
  3 21  1  0  0  0  0 
  5 22  1  0  0  0  0 
  6 23  1  0  0  0  0 
  7 24  1  0  0  0  0 
 10 25  1  0  0  0  0 
 11 26  1  0  0  0  0 
 11 27  1  0  0  0  0 
 11 28  1  0  0  0  0 
 12 29  1  0  0  0  0 
 12 30  1  0  0  0  0 
 12 31  1  0  0  0  0 
 13 32  1  0  0  0  0 
 13 33  1  0  0  0  0 
 13 34  1  0  0  0  0 
 14 35  1  0  0  0  0 
 14 36  1  0  0  0  0 
 16 37  1  0  0  0  0 
 17 38  1  0  0  0  0 
M  END
> <cdk:Title>
levosalbutamol

> <Conformer>
1

> <SuperDrugID>
SD001390

$$$$
