cinnamaverine
  CDK     0628171802

 49 50  0  0  0  0  0  0  0  0999 V2000
   -2.2682   -0.8507    2.0946 C   0  0  0  0  0  0  0  0  0  0  0  0
   -2.0320   -1.7177    3.1926 C   0  0  0  0  0  0  0  0  0  0  0  0
   -2.4837   -1.3919    4.4848 C   0  0  0  0  0  0  0  0  0  0  0  0
   -3.1721   -0.1868    4.7085 C   0  0  0  0  0  0  0  0  0  0  0  0
   -3.4080    0.6925    3.6380 C   0  0  0  0  0  0  0  0  0  0  0  0
   -2.9645    0.3613    2.3432 C   0  0  0  0  0  0  0  0  0  0  0  0
   -1.8151   -1.1934    0.8034 C   0  0  0  0  0  0  0  0  0  0  0  0
   -2.1960   -2.4386    0.2690 C   0  0  0  0  0  0  0  0  0  0  0  0
   -1.0155   -0.3061    0.1643 C   0  0  0  0  0  0  0  0  0  0  0  0
   -0.4698   -0.4238   -1.1009 C   0  0  0  0  0  0  0  0  0  0  0  0
   -0.5827    0.0137   -3.5055 C   0  0  0  0  0  0  0  0  0  0  0  0
    0.7188   -0.4964   -3.6616 C   0  0  0  0  0  0  0  0  0  0  0  0
    1.4191   -0.9930   -2.5480 C   0  0  0  0  0  0  0  0  0  0  0  0
    0.8279   -0.9581   -1.2710 C   0  0  0  0  0  0  0  0  0  0  0  0
   -1.1764    0.0501   -2.2294 C   0  0  0  0  0  0  0  0  0  0  0  0
   -3.1773   -3.0550    0.7587 O   0  0  0  0  0  0  0  0  0  0  0  0
   -1.5357   -3.0281   -0.7786 O   0  0  0  0  0  0  0  0  0  0  0  0
   -1.7873   -4.3442   -1.2960 C   0  0  1  0  0  0  0  0  0  0  0  0
   -0.9182   -4.6534   -2.5394 C   0  0  2  0  0  0  0  0  0  0  0  0
   -1.1849   -3.7926   -3.7379 N   0  0  0  0  0  0  0  0  0  0  0  0
   -2.5777   -3.7868   -4.2979 C   0  0  1  0  0  0  0  0  0  0  0  0
   -0.0647   -3.7012   -4.7327 C   0  0  1  0  0  0  0  0  0  0  0  0
    0.1857   -4.9568   -5.5996 C   0  0  0  0  0  0  0  0  0  0  0  0
   -3.1981   -5.1677   -4.6291 C   0  0  0  0  0  0  0  0  0  0  0  0
   -1.5268   -2.5986    3.0606 H   0  0  0  0  0  0  0  0  0  0  0  0
   -2.3110   -2.0336    5.2625 H   0  0  0  0  0  0  0  0  0  0  0  0
   -3.4968    0.0506    5.6486 H   0  0  0  0  0  0  0  0  0  0  0  0
   -3.9052    1.5718    3.8007 H   0  0  0  0  0  0  0  0  0  0  0  0
   -3.1590    1.0146    1.5801 H   0  0  0  0  0  0  0  0  0  0  0  0
   -0.7669    0.5403    0.6255 H   0  0  0  0  0  0  0  0  0  0  0  0
   -1.0940    0.3642   -4.3188 H   0  0  0  0  0  0  0  0  0  0  0  0
    1.1554   -0.5125   -4.5861 H   0  0  0  0  0  0  0  0  0  0  0  0
    2.3584   -1.3784   -2.6656 H   0  0  0  0  0  0  0  0  0  0  0  0
    1.3561   -1.3146   -0.4694 H   0  0  0  0  0  0  0  0  0  0  0  0
   -2.1188    0.4360   -2.1293 H   0  0  0  0  0  0  0  0  0  0  0  0
   -1.5471   -5.0736   -0.5169 H   0  0  0  0  0  0  0  0  0  0  0  0
   -2.8450   -4.4575   -1.5387 H   0  0  0  0  0  0  0  0  0  0  0  0
   -1.0621   -5.7001   -2.8112 H   0  0  0  0  0  0  0  0  0  0  0  0
    0.1235   -4.5453   -2.2259 H   0  0  0  0  0  0  0  0  0  0  0  0
   -3.2267   -3.2834   -3.5790 H   0  0  0  0  0  0  0  0  0  0  0  0
   -2.6104   -3.1729   -5.2017 H   0  0  0  0  0  0  0  0  0  0  0  0
   -0.2420   -2.8554   -5.4017 H   0  0  0  0  0  0  0  0  0  0  0  0
    0.8615   -3.4707   -4.2012 H   0  0  0  0  0  0  0  0  0  0  0  0
    1.1717   -4.8936   -6.0614 H   0  0  0  0  0  0  0  0  0  0  0  0
   -0.5564   -5.0214   -6.3953 H   0  0  0  0  0  0  0  0  0  0  0  0
    0.1469   -5.8641   -4.9945 H   0  0  0  0  0  0  0  0  0  0  0  0
   -2.5633   -5.7369   -5.3065 H   0  0  0  0  0  0  0  0  0  0  0  0
   -4.1686   -5.0322   -5.1067 H   0  0  0  0  0  0  0  0  0  0  0  0
   -3.3502   -5.7537   -3.7220 H   0  0  0  0  0  0  0  0  0  0  0  0
  1  2  2  0  0  0  0 
  2  3  1  0  0  0  0 
  3  4  2  0  0  0  0 
  4  5  1  0  0  0  0 
  5  6  2  0  0  0  0 
  1  6  1  0  0  0  0 
  1  7  1  0  0  0  0 
  7  8  1  0  0  0  0 
  7  9  2  0  0  0  0 
  9 10  1  0  0  0  0 
 11 12  1  0  0  0  0 
 12 13  2  0  0  0  0 
 13 14  1  0  0  0  0 
 11 15  2  0  0  0  0 
 14 10  2  0  0  0  0 
 10 15  1  0  0  0  0 
  8 16  2  0  0  0  0 
  8 17  1  0  0  0  0 
 17 18  1  0  0  0  0 
 18 19  1  0  0  0  0 
 19 20  1  0  0  0  0 
 20 21  1  0  0  0  0 
 20 22  1  0  0  0  0 
 22 23  1  0  0  0  0 
 21 24  1  0  0  0  0 
  2 25  1  0  0  0  0 
  3 26  1  0  0  0  0 
  4 27  1  0  0  0  0 
  5 28  1  0  0  0  0 
  6 29  1  0  0  0  0 
  9 30  1  0  0  0  0 
 11 31  1  0  0  0  0 
 12 32  1  0  0  0  0 
 13 33  1  0  0  0  0 
 14 34  1  0  0  0  0 
 15 35  1  0  0  0  0 
 18 36  1  0  0  0  0 
 18 37  1  0  0  0  0 
 19 38  1  0  0  0  0 
 19 39  1  0  0  0  0 
 21 40  1  0  0  0  0 
 21 41  1  0  0  0  0 
 22 42  1  0  0  0  0 
 22 43  1  0  0  0  0 
 23 44  1  0  0  0  0 
 23 45  1  0  0  0  0 
 23 46  1  0  0  0  0 
 24 47  1  0  0  0  0 
 24 48  1  0  0  0  0 
 24 49  1  0  0  0  0 
M  END
> <cdk:Title>
cinnamaverine

> <Conformer>
1

> <SuperDrugID>
SD000573

$$$$
