bucolome
  CDK     0628171801

 41 42  0  0  0  0  0  0  0  0999 V2000
   -2.4336    5.1736    2.4569 O   0  0  0  0  0  0  0  0  0  0  0  0
   -1.8979    4.8765    1.3646 C   0  0  0  0  0  0  0  0  0  0  0  0
   -2.6332    4.7826    0.1793 N   0  0  0  0  0  0  0  0  0  0  0  0
   -0.4269    4.5958    1.4548 C   0  0  2  0  0  0  0  0  0  0  0  0
   -1.9396    4.3662   -0.9572 C   0  0  0  0  0  0  0  0  0  0  0  0
   -4.0780    5.0599    0.0567 C   0  0  2  0  0  0  0  0  0  0  0  0
    0.4208    5.7958    2.0081 C   0  0  1  0  0  0  0  0  0  0  0  0
    0.1192    4.0723    0.1806 C   0  0  0  0  0  0  0  0  0  0  0  0
   -2.4735    4.2817   -2.0891 O   0  0  0  0  0  0  0  0  0  0  0  0
   -0.6328    4.0077   -0.9365 N   0  0  0  0  0  0  0  0  0  0  0  0
   -4.7873    5.9622    1.1261 C   0  0  1  0  0  0  0  0  0  0  0  0
   -4.8945    3.7333   -0.0889 C   0  0  2  0  0  0  0  0  0  0  0  0
    0.7928    6.9604    1.0386 C   0  0  1  0  0  0  0  0  0  0  0  0
    1.3042    3.6725    0.1116 O   0  0  0  0  0  0  0  0  0  0  0  0
   -6.2700    6.2626    0.7637 C   0  0  2  0  0  0  0  0  0  0  0  0
   -6.3797    3.9979   -0.4548 C   0  0  2  0  0  0  0  0  0  0  0  0
   -0.3849    7.7673    0.4273 C   0  0  2  0  0  0  0  0  0  0  0  0
   -7.0718    4.9525    0.5503 C   0  0  2  0  0  0  0  0  0  0  0  0
   -1.1881    8.6290    1.4292 C   0  0  0  0  0  0  0  0  0  0  0  0
   -0.3244    3.7757    2.1730 H   0  0  0  0  0  0  0  0  0  0  0  0
   -4.1977    5.6263   -0.8754 H   0  0  0  0  0  0  0  0  0  0  0  0
   -0.0714    6.2168    2.8869 H   0  0  0  0  0  0  0  0  0  0  0  0
    1.3683    5.3851    2.3711 H   0  0  0  0  0  0  0  0  0  0  0  0
   -0.2234    3.6872   -1.7570 H   0  0  0  0  0  0  0  0  0  0  0  0
   -4.8002    5.4614    2.0976 H   0  0  0  0  0  0  0  0  0  0  0  0
   -4.2475    6.9076    1.2352 H   0  0  0  0  0  0  0  0  0  0  0  0
   -4.8390    3.1691    0.8468 H   0  0  0  0  0  0  0  0  0  0  0  0
   -4.4642    3.1040   -0.8704 H   0  0  0  0  0  0  0  0  0  0  0  0
    1.4431    7.6544    1.5804 H   0  0  0  0  0  0  0  0  0  0  0  0
    1.3933    6.5598    0.2162 H   0  0  0  0  0  0  0  0  0  0  0  0
   -6.3208    6.8795   -0.1389 H   0  0  0  0  0  0  0  0  0  0  0  0
   -6.7330    6.8315    1.5755 H   0  0  0  0  0  0  0  0  0  0  0  0
   -6.9190    3.0494   -0.4776 H   0  0  0  0  0  0  0  0  0  0  0  0
   -6.4298    4.4332   -1.4558 H   0  0  0  0  0  0  0  0  0  0  0  0
   -1.0631    7.0875   -0.0844 H   0  0  0  0  0  0  0  0  0  0  0  0
    0.0198    8.4338   -0.3387 H   0  0  0  0  0  0  0  0  0  0  0  0
   -8.0770    5.1922    0.1931 H   0  0  0  0  0  0  0  0  0  0  0  0
   -7.1740    4.4419    1.5110 H   0  0  0  0  0  0  0  0  0  0  0  0
   -2.0273    9.0932    0.9086 H   0  0  0  0  0  0  0  0  0  0  0  0
   -1.5856    8.0247    2.2461 H   0  0  0  0  0  0  0  0  0  0  0  0
   -0.5601    9.4203    1.8441 H   0  0  0  0  0  0  0  0  0  0  0  0
  1  2  2  0  0  0  0 
  2  3  1  0  0  0  0 
  4  2  1  0  0  0  0 
  3  5  1  0  0  0  0 
  3  6  1  0  0  0  0 
  4  7  1  0  0  0  0 
  4  8  1  0  0  0  0 
  5  9  2  0  0  0  0 
  5 10  1  0  0  0  0 
  6 11  1  0  0  0  0 
  6 12  1  0  0  0  0 
  7 13  1  0  0  0  0 
  8 10  1  0  0  0  0 
  8 14  2  0  0  0  0 
 11 15  1  0  0  0  0 
 12 16  1  0  0  0  0 
 13 17  1  0  0  0  0 
 15 18  1  0  0  0  0 
 16 18  1  0  0  0  0 
 17 19  1  0  0  0  0 
  4 20  1  0  0  0  0 
  6 21  1  0  0  0  0 
  7 22  1  0  0  0  0 
  7 23  1  0  0  0  0 
 10 24  1  0  0  0  0 
 11 25  1  0  0  0  0 
 11 26  1  0  0  0  0 
 12 27  1  0  0  0  0 
 12 28  1  0  0  0  0 
 13 29  1  0  0  0  0 
 13 30  1  0  0  0  0 
 15 31  1  0  0  0  0 
 15 32  1  0  0  0  0 
 16 33  1  0  0  0  0 
 16 34  1  0  0  0  0 
 17 35  1  0  0  0  0 
 17 36  1  0  0  0  0 
 18 37  1  0  0  0  0 
 18 38  1  0  0  0  0 
 19 39  1  0  0  0  0 
 19 40  1  0  0  0  0 
 19 41  1  0  0  0  0 
M  END
> <cdk:Title>
bucolome

> <Conformer>
1

> <SuperDrugID>
SD002643

$$$$
