clomacran
  CDK     0628171801

 42 44  0  0  0  0  0  0  0  0999 V2000
   -0.1608   -2.5864   -1.2521 C   0  0  0  0  0  0  0  0  0  0  0  0
   -0.8425   -1.2808   -1.0041 N   0  0  1  0  0  0  0  0  0  0  0  0
   -2.2913   -1.4616   -0.6895 C   0  0  0  0  0  0  0  0  0  0  0  0
   -0.1511   -0.3754   -0.0218 C   0  0  2  0  0  0  0  0  0  0  0  0
    1.2293    0.1642   -0.4817 C   0  0  1  0  0  0  0  0  0  0  0  0
    1.2007    0.8259   -1.8892 C   0  0  2  0  0  0  0  0  0  0  0  0
    2.6116    1.1826   -2.4702 C   0  0  1  0  0  0  0  0  0  0  0  0
    3.2889    2.2485   -1.6557 C   0  0  0  0  0  0  0  0  0  0  0  0
    2.7337    3.5457   -1.5329 C   0  0  0  0  0  0  0  0  0  0  0  0
    3.3636    4.5309   -0.7516 C   0  0  0  0  0  0  0  0  0  0  0  0
    4.5592    4.2334   -0.0751 C   0  0  0  0  0  0  0  0  0  0  0  0
    5.1305    2.9535   -0.1911 C   0  0  0  0  0  0  0  0  0  0  0  0
    4.5121    1.9704   -0.9909 C   0  0  0  0  0  0  0  0  0  0  0  0
    5.1194    0.7628   -1.1303 N   0  0  0  0  0  0  0  0  0  0  0  0
    4.6576   -0.2196   -1.9472 C   0  0  0  0  0  0  0  0  0  0  0  0
    3.4410   -0.0581   -2.6603 C   0  0  0  0  0  0  0  0  0  0  0  0
    3.0224   -1.0979   -3.5264 C   0  0  0  0  0  0  0  0  0  0  0  0
    3.7734   -2.2828   -3.6533 C   0  0  0  0  0  0  0  0  0  0  0  0
    3.2420   -3.5229   -4.6763 Cl  0  0  0  0  0  0  0  0  0  0  0  0
    4.9692   -2.4333   -2.9269 C   0  0  0  0  0  0  0  0  0  0  0  0
    5.4122   -1.4020   -2.0812 C   0  0  0  0  0  0  0  0  0  0  0  0
   -0.6913   -3.1639   -2.0139 H   0  0  0  0  0  0  0  0  0  0  0  0
    0.8454   -2.4235   -1.6300 H   0  0  0  0  0  0  0  0  0  0  0  0
   -0.1039   -3.1846   -0.3398 H   0  0  0  0  0  0  0  0  0  0  0  0
   -2.4287   -1.9594    0.2756 H   0  0  0  0  0  0  0  0  0  0  0  0
   -2.7917   -0.4916   -0.6579 H   0  0  0  0  0  0  0  0  0  0  0  0
   -2.7893   -2.0527   -1.4610 H   0  0  0  0  0  0  0  0  0  0  0  0
   -0.0230   -0.8879    0.9360 H   0  0  0  0  0  0  0  0  0  0  0  0
   -0.7772    0.5043    0.1629 H   0  0  0  0  0  0  0  0  0  0  0  0
    1.5695    0.9131    0.2401 H   0  0  0  0  0  0  0  0  0  0  0  0
    1.9501   -0.6533   -0.4560 H   0  0  0  0  0  0  0  0  0  0  0  0
    0.5850    1.7263   -1.8291 H   0  0  0  0  0  0  0  0  0  0  0  0
    0.6945    0.1616   -2.5912 H   0  0  0  0  0  0  0  0  0  0  0  0
    2.4721    1.6086   -3.4684 H   0  0  0  0  0  0  0  0  0  0  0  0
    1.8641    3.7857   -2.0144 H   0  0  0  0  0  0  0  0  0  0  0  0
    2.9521    5.4649   -0.6764 H   0  0  0  0  0  0  0  0  0  0  0  0
    5.0147    4.9485    0.4971 H   0  0  0  0  0  0  0  0  0  0  0  0
    6.0016    2.7455    0.3038 H   0  0  0  0  0  0  0  0  0  0  0  0
    5.9458    0.6045   -0.6468 H   0  0  0  0  0  0  0  0  0  0  0  0
    2.1581   -0.9998   -4.0647 H   0  0  0  0  0  0  0  0  0  0  0  0
    5.5213   -3.2911   -3.0104 H   0  0  0  0  0  0  0  0  0  0  0  0
    6.2885   -1.5179   -1.5661 H   0  0  0  0  0  0  0  0  0  0  0  0
  1  2  1  0  0  0  0 
  2  3  1  0  0  0  0 
  2  4  1  0  0  0  0 
  4  5  1  0  0  0  0 
  5  6  1  0  0  0  0 
  7  6  1  0  0  0  0 
  7  8  1  0  0  0  0 
  8  9  2  0  0  0  0 
  9 10  1  0  0  0  0 
 10 11  2  0  0  0  0 
 11 12  1  0  0  0  0 
 12 13  2  0  0  0  0 
  8 13  1  0  0  0  0 
 13 14  1  0  0  0  0 
 14 15  1  0  0  0  0 
 15 16  2  0  0  0  0 
  7 16  1  0  0  0  0 
 16 17  1  0  0  0  0 
 17 18  2  0  0  0  0 
 18 19  1  0  0  0  0 
 18 20  1  0  0  0  0 
 20 21  2  0  0  0  0 
 15 21  1  0  0  0  0 
  1 22  1  0  0  0  0 
  1 23  1  0  0  0  0 
  1 24  1  0  0  0  0 
  3 25  1  0  0  0  0 
  3 26  1  0  0  0  0 
  3 27  1  0  0  0  0 
  4 28  1  0  0  0  0 
  4 29  1  0  0  0  0 
  5 30  1  0  0  0  0 
  5 31  1  0  0  0  0 
  6 32  1  0  0  0  0 
  6 33  1  0  0  0  0 
  7 34  1  0  0  0  0 
  9 35  1  0  0  0  0 
 10 36  1  0  0  0  0 
 11 37  1  0  0  0  0 
 12 38  1  0  0  0  0 
 14 39  1  0  0  0  0 
 17 40  1  0  0  0  0 
 20 41  1  0  0  0  0 
 21 42  1  0  0  0  0 
M  END
> <cdk:Title>
clomacran

> <Conformer>
1

> <SuperDrugID>
SD003177

$$$$
