boceprevir
  CDK     0628171801

 82 84  0  0  0  0  0  0  0  0999 V2000
    0.0246    4.2802   -0.5891 C   0  0  2  0  0  0  0  0  0  0  0  0
   -1.0661    3.4350   -1.2648 C   0  0  1  0  0  0  0  0  0  0  0  0
   -1.8663    2.7559   -0.1413 C   0  0  1  0  0  0  0  0  0  0  0  0
   -1.1463    3.1677    1.1663 C   0  0  2  0  0  0  0  0  0  0  0  0
   -0.0516    4.0467    0.8193 N   0  0  0  0  0  0  0  0  0  0  0  0
   -2.5730    3.7469   -1.0994 C   0  0  1  0  0  0  0  0  0  0  0  0
   -3.0394    5.1239   -0.5489 C   0  0  0  0  0  0  0  0  0  0  0  0
   -3.4848    3.1307   -2.1962 C   0  0  0  0  0  0  0  0  0  0  0  0
   -0.8117    2.0070    2.0476 C   0  0  0  0  0  0  0  0  0  0  0  0
   -1.2987    2.0052    3.2027 O   0  0  0  0  0  0  0  0  0  0  0  0
   -0.0338    0.9187    1.7935 N   0  0  0  0  0  0  0  0  0  0  0  0
    0.6479    0.5119    0.6009 C   0  0  1  0  0  0  0  0  0  0  0  0
    1.9979    1.1319    0.4713 C   0  0  0  0  0  0  0  0  0  0  0  0
    0.7676   -1.0448    0.5968 C   0  0  1  0  0  0  0  0  0  0  0  0
   -0.5979   -1.7930    0.5211 C   0  0  2  0  0  0  0  0  0  0  0  0
   -0.4925   -3.3340    0.6034 C   0  0  2  0  0  0  0  0  0  0  0  0
   -1.1243   -3.4592   -0.7942 C   0  0  2  0  0  0  0  0  0  0  0  0
   -1.2363   -1.9261   -0.8828 C   0  0  1  0  0  0  0  0  0  0  0  0
    2.2773    1.6571   -0.6343 O   0  0  0  0  0  0  0  0  0  0  0  0
    3.0056    1.1004    1.4711 C   0  0  0  0  0  0  0  0  0  0  0  0
    4.1908    1.3865    1.1829 O   0  0  0  0  0  0  0  0  0  0  0  0
    2.7752    0.7667    2.7560 N   0  0  0  0  0  0  0  0  0  0  0  0
    0.7509    4.6933    1.7587 C   0  0  0  0  0  0  0  0  0  0  0  0
    0.6355    4.3442    2.9599 O   0  0  0  0  0  0  0  0  0  0  0  0
    1.6734    5.8548    1.4891 C   0  0  1  0  0  0  0  0  0  0  0  0
    1.1685    6.9302    2.3058 N   0  0  0  0  0  0  0  0  0  0  0  0
    0.7166    8.1498    1.8943 C   0  0  0  0  0  0  0  0  0  0  0  0
    0.2076    8.8603    2.7908 O   0  0  0  0  0  0  0  0  0  0  0  0
    0.8048    8.5772    0.5978 N   0  0  0  0  0  0  0  0  0  0  0  0
    0.3042    9.7913   -0.0019 C   0  0  2  0  0  0  0  0  0  0  0  0
    0.6264   11.0870    0.8146 C   0  0  0  0  0  0  0  0  0  0  0  0
   -1.2319    9.6457   -0.2192 C   0  0  0  0  0  0  0  0  0  0  0  0
    1.0125    9.9023   -1.3884 C   0  0  0  0  0  0  0  0  0  0  0  0
    3.2309    5.6126    1.6925 C   0  0  2  0  0  0  0  0  0  0  0  0
    3.5585    4.8977    3.0443 C   0  0  0  0  0  0  0  0  0  0  0  0
    4.0291    6.9669    1.6588 C   0  0  0  0  0  0  0  0  0  0  0  0
    3.7764    4.7313    0.5199 C   0  0  0  0  0  0  0  0  0  0  0  0
   -0.1556    5.3286   -0.8330 H   0  0  0  0  0  0  0  0  0  0  0  0
    1.0035    3.9928   -0.9734 H   0  0  0  0  0  0  0  0  0  0  0  0
   -0.7578    2.7171   -2.0316 H   0  0  0  0  0  0  0  0  0  0  0  0
   -2.0713    1.6971   -0.3223 H   0  0  0  0  0  0  0  0  0  0  0  0
   -1.8694    3.7826    1.7143 H   0  0  0  0  0  0  0  0  0  0  0  0
   -3.0937    5.8429   -1.3672 H   0  0  0  0  0  0  0  0  0  0  0  0
   -4.0344    5.0196   -0.1125 H   0  0  0  0  0  0  0  0  0  0  0  0
   -2.3787    5.5331    0.2131 H   0  0  0  0  0  0  0  0  0  0  0  0
   -3.5407    3.8118   -3.0469 H   0  0  0  0  0  0  0  0  0  0  0  0
   -3.1142    2.1680   -2.5530 H   0  0  0  0  0  0  0  0  0  0  0  0
   -4.4906    2.9841   -1.8002 H   0  0  0  0  0  0  0  0  0  0  0  0
    0.0657    0.3121    2.5450 H   0  0  0  0  0  0  0  0  0  0  0  0
    0.0519    0.7722   -0.2757 H   0  0  0  0  0  0  0  0  0  0  0  0
    1.3879   -1.3661   -0.2465 H   0  0  0  0  0  0  0  0  0  0  0  0
    1.2731   -1.3675    1.5109 H   0  0  0  0  0  0  0  0  0  0  0  0
   -1.3161   -1.4150    1.2554 H   0  0  0  0  0  0  0  0  0  0  0  0
   -1.1148   -3.7621    1.3934 H   0  0  0  0  0  0  0  0  0  0  0  0
    0.5321   -3.7157    0.6386 H   0  0  0  0  0  0  0  0  0  0  0  0
   -2.0939   -3.9638   -0.7834 H   0  0  0  0  0  0  0  0  0  0  0  0
   -0.4412   -3.8828   -1.5354 H   0  0  0  0  0  0  0  0  0  0  0  0
   -2.2729   -1.5791   -0.9214 H   0  0  0  0  0  0  0  0  0  0  0  0
   -0.6351   -1.5051   -1.6936 H   0  0  0  0  0  0  0  0  0  0  0  0
    3.5079    0.7567    3.3935 H   0  0  0  0  0  0  0  0  0  0  0  0
    1.8832    0.5385    3.0558 H   0  0  0  0  0  0  0  0  0  0  0  0
    1.5614    6.1373    0.4452 H   0  0  0  0  0  0  0  0  0  0  0  0
    1.1205    6.7506    3.2584 H   0  0  0  0  0  0  0  0  0  0  0  0
    1.2327    7.9642   -0.0196 H   0  0  0  0  0  0  0  0  0  0  0  0
    1.6826   11.1164    1.0953 H   0  0  0  0  0  0  0  0  0  0  0  0
    0.0270   11.1497    1.7241 H   0  0  0  0  0  0  0  0  0  0  0  0
    0.4072   11.9803    0.2240 H   0  0  0  0  0  0  0  0  0  0  0  0
   -1.4496    8.7744   -0.8413 H   0  0  0  0  0  0  0  0  0  0  0  0
   -1.7458    9.5183    0.7363 H   0  0  0  0  0  0  0  0  0  0  0  0
   -1.6375   10.5315   -0.7135 H   0  0  0  0  0  0  0  0  0  0  0  0
    2.0932   10.0000   -1.2562 H   0  0  0  0  0  0  0  0  0  0  0  0
    0.8241    9.0150   -1.9952 H   0  0  0  0  0  0  0  0  0  0  0  0
    0.6521   10.7734   -1.9386 H   0  0  0  0  0  0  0  0  0  0  0  0
    3.1852    3.8710    3.0444 H   0  0  0  0  0  0  0  0  0  0  0  0
    4.6369    4.8529    3.2161 H   0  0  0  0  0  0  0  0  0  0  0  0
    3.1013    5.4313    3.8805 H   0  0  0  0  0  0  0  0  0  0  0  0
    3.7374    7.5363    0.7734 H   0  0  0  0  0  0  0  0  0  0  0  0
    5.1378    6.7460    1.5310 H   0  0  0  0  0  0  0  0  0  0  0  0
    3.7303    7.6004    2.5525 H   0  0  0  0  0  0  0  0  0  0  0  0
    3.6954    5.2538   -0.4357 H   0  0  0  0  0  0  0  0  0  0  0  0
    4.8249    4.4695    0.6737 H   0  0  0  0  0  0  0  0  0  0  0  0
    3.2086    3.8107    0.4454 H   0  0  0  0  0  0  0  0  0  0  0  0
  2  1  1  0  0  0  0 
  3  2  1  0  0  0  0 
  3  4  1  0  0  0  0 
  4  5  1  0  0  0  0 
  1  5  1  0  0  0  0 
  2  6  1  0  0  0  0 
  3  6  1  0  0  0  0 
  6  7  1  0  0  0  0 
  6  8  1  0  0  0  0 
  4  9  1  0  0  0  0 
  9 10  2  0  0  0  0 
  9 11  1  0  0  0  0 
 11 12  1  0  0  0  0 
 12 13  1  0  0  0  0 
 12 14  1  0  0  0  0 
 14 15  1  0  0  0  0 
 15 16  1  0  0  0  0 
 16 17  1  0  0  0  0 
 15 18  1  0  0  0  0 
 18 17  1  0  0  0  0 
 13 19  2  0  0  0  0 
 13 20  1  0  0  0  0 
 20 21  2  0  0  0  0 
 20 22  1  0  0  0  0 
  5 23  1  0  0  0  0 
 23 24  2  0  0  0  0 
 25 23  1  0  0  0  0 
 25 26  1  0  0  0  0 
 26 27  1  0  0  0  0 
 27 28  2  0  0  0  0 
 27 29  1  0  0  0  0 
 29 30  1  0  0  0  0 
 30 31  1  0  0  0  0 
 30 32  1  0  0  0  0 
 30 33  1  0  0  0  0 
 25 34  1  0  0  0  0 
 34 35  1  0  0  0  0 
 34 36  1  0  0  0  0 
 34 37  1  0  0  0  0 
 38  1  1  0  0  0  0 
 39  1  1  0  0  0  0 
  2 40  1  0  0  0  0 
  3 41  1  0  0  0  0 
  4 42  1  0  0  0  0 
 43  7  1  0  0  0  0 
 44  7  1  0  0  0  0 
 45  7  1  0  0  0  0 
 46  8  1  0  0  0  0 
 47  8  1  0  0  0  0 
 48  8  1  0  0  0  0 
 49 11  1  0  0  0  0 
 50 12  1  0  0  0  0 
 51 14  1  0  0  0  0 
 52 14  1  0  0  0  0 
 53 15  1  0  0  0  0 
 54 16  1  0  0  0  0 
 55 16  1  0  0  0  0 
 56 17  1  0  0  0  0 
 57 17  1  0  0  0  0 
 58 18  1  0  0  0  0 
 59 18  1  0  0  0  0 
 60 22  1  0  0  0  0 
 61 22  1  0  0  0  0 
 25 62  1  0  0  0  0 
 63 26  1  0  0  0  0 
 64 29  1  0  0  0  0 
 65 31  1  0  0  0  0 
 66 31  1  0  0  0  0 
 67 31  1  0  0  0  0 
 68 32  1  0  0  0  0 
 69 32  1  0  0  0  0 
 70 32  1  0  0  0  0 
 71 33  1  0  0  0  0 
 72 33  1  0  0  0  0 
 73 33  1  0  0  0  0 
 74 35  1  0  0  0  0 
 75 35  1  0  0  0  0 
 76 35  1  0  0  0  0 
 77 36  1  0  0  0  0 
 78 36  1  0  0  0  0 
 79 36  1  0  0  0  0 
 80 37  1  0  0  0  0 
 81 37  1  0  0  0  0 
 82 37  1  0  0  0  0 
M  END
> <cdk:Title>
boceprevir

> <Conformer>
1

> <SuperDrugID>
SD003403

$$$$
