pyrrocaine
  CDK     0628171801

 37 38  0  0  0  0  0  0  0  0999 V2000
    0.2779    0.0914   -0.2012 N   0  0  0  0  0  0  0  0  0  0  0  0
   -0.1887    1.3326    0.0977 C   0  0  0  0  0  0  0  0  0  0  0  0
   -0.4773   -1.0039   -0.4879 C   0  0  0  0  0  0  0  0  0  0  0  0
    0.8023    2.3322    0.5291 C   0  0  1  0  0  0  0  0  0  0  0  0
   -1.4088    1.6217    0.0664 O   0  0  0  0  0  0  0  0  0  0  0  0
   -0.4729   -2.0690    0.4563 C   0  0  0  0  0  0  0  0  0  0  0  0
   -1.2209   -1.1132   -1.6966 C   0  0  0  0  0  0  0  0  0  0  0  0
    1.8599    2.5029   -0.5119 N   0  0  2  0  0  0  0  0  0  0  0  0
    0.3387   -1.9883    1.7006 C   0  0  0  0  0  0  0  0  0  0  0  0
   -1.2677   -3.2110    0.2083 C   0  0  0  0  0  0  0  0  0  0  0  0
   -1.1577   -0.0721   -2.7564 C   0  0  0  0  0  0  0  0  0  0  0  0
   -2.0173   -2.2635   -1.9017 C   0  0  0  0  0  0  0  0  0  0  0  0
    3.2045    2.9370   -0.0537 C   0  0  1  0  0  0  0  0  0  0  0  0
    1.4811    3.3164   -1.6987 C   0  0  1  0  0  0  0  0  0  0  0  0
   -2.0402   -3.3026   -0.9586 C   0  0  0  0  0  0  0  0  0  0  0  0
    3.4729    4.2837   -0.7358 C   0  0  1  0  0  0  0  0  0  0  0  0
    2.7215    4.1485   -2.0667 C   0  0  1  0  0  0  0  0  0  0  0  0
    1.2348   -0.0488   -0.1254 H   0  0  0  0  0  0  0  0  0  0  0  0
    0.3231    3.2868    0.7644 H   0  0  0  0  0  0  0  0  0  0  0  0
    1.2400    1.9491    1.4539 H   0  0  0  0  0  0  0  0  0  0  0  0
    0.2691   -2.8897    2.3121 H   0  0  0  0  0  0  0  0  0  0  0  0
    1.3905   -1.8369    1.4492 H   0  0  0  0  0  0  0  0  0  0  0  0
   -0.0063   -1.1474    2.3040 H   0  0  0  0  0  0  0  0  0  0  0  0
   -1.2990   -3.9854    0.8777 H   0  0  0  0  0  0  0  0  0  0  0  0
   -1.6090    0.8554   -2.4060 H   0  0  0  0  0  0  0  0  0  0  0  0
   -1.6911   -0.3702   -3.6606 H   0  0  0  0  0  0  0  0  0  0  0  0
   -0.1179    0.1142   -3.0328 H   0  0  0  0  0  0  0  0  0  0  0  0
   -2.5913   -2.3570   -2.7435 H   0  0  0  0  0  0  0  0  0  0  0  0
    3.3036    3.0231    1.0307 H   0  0  0  0  0  0  0  0  0  0  0  0
    3.9345    2.2034   -0.4022 H   0  0  0  0  0  0  0  0  0  0  0  0
    1.1906    2.6640   -2.5243 H   0  0  0  0  0  0  0  0  0  0  0  0
    0.6496    3.9942   -1.4869 H   0  0  0  0  0  0  0  0  0  0  0  0
   -2.6200   -4.1299   -1.1220 H   0  0  0  0  0  0  0  0  0  0  0  0
    3.0541    5.0933   -0.1316 H   0  0  0  0  0  0  0  0  0  0  0  0
    4.5403    4.4615   -0.8859 H   0  0  0  0  0  0  0  0  0  0  0  0
    3.3382    3.6103   -2.7914 H   0  0  0  0  0  0  0  0  0  0  0  0
    2.4505    5.1227   -2.4806 H   0  0  0  0  0  0  0  0  0  0  0  0
  1  2  1  0  0  0  0 
  1  3  1  0  0  0  0 
  2  4  1  0  0  0  0 
  2  5  2  0  0  0  0 
  3  6  2  0  0  0  0 
  3  7  1  0  0  0  0 
  4  8  1  0  0  0  0 
  6  9  1  0  0  0  0 
  6 10  1  0  0  0  0 
  7 11  1  0  0  0  0 
  7 12  2  0  0  0  0 
  8 13  1  0  0  0  0 
  8 14  1  0  0  0  0 
 10 15  2  0  0  0  0 
 12 15  1  0  0  0  0 
 13 16  1  0  0  0  0 
 14 17  1  0  0  0  0 
 16 17  1  0  0  0  0 
  1 18  1  0  0  0  0 
  4 19  1  0  0  0  0 
  4 20  1  0  0  0  0 
  9 21  1  0  0  0  0 
  9 22  1  0  0  0  0 
  9 23  1  0  0  0  0 
 10 24  1  0  0  0  0 
 11 25  1  0  0  0  0 
 11 26  1  0  0  0  0 
 11 27  1  0  0  0  0 
 12 28  1  0  0  0  0 
 13 29  1  0  0  0  0 
 13 30  1  0  0  0  0 
 14 31  1  0  0  0  0 
 14 32  1  0  0  0  0 
 15 33  1  0  0  0  0 
 16 34  1  0  0  0  0 
 16 35  1  0  0  0  0 
 17 36  1  0  0  0  0 
 17 37  1  0  0  0  0 
M  END
> <cdk:Title>
pyrrocaine

> <Conformer>
1

> <SuperDrugID>
SD003024

$$$$
