oxiglutatione
  CDK     0628171802

 72 71  0  0  0  0  0  0  0  0999 V2000
    0.2707    2.6300    6.4558 C   0  0  2  0  0  0  0  0  0  0  0  0
    1.6208    2.2957    5.7534 C   0  0  2  0  0  0  0  0  0  0  0  0
    1.5004    1.1426    4.8293 C   0  0  0  0  0  0  0  0  0  0  0  0
    0.6355    1.2214    3.7800 N   0  0  0  0  0  0  0  0  0  0  0  0
    2.1831    0.1108    5.0343 O   0  0  0  0  0  0  0  0  0  0  0  0
    0.3394    0.1896    2.8258 C   0  0  2  0  0  0  0  0  0  0  0  0
    0.2033    0.8838    1.4820 C   0  0  0  0  0  0  0  0  0  0  0  0
   -0.8753   -0.6778    3.3798 C   0  0  2  0  0  0  0  0  0  0  0  0
    1.0272    0.5490    0.4513 N   0  0  0  0  0  0  0  0  0  0  0  0
   -0.6994    1.7436    1.3409 O   0  0  0  0  0  0  0  0  0  0  0  0
    0.9928    1.1370   -0.8515 C   0  0  1  0  0  0  0  0  0  0  0  0
    1.7339    0.2997   -1.8123 C   0  0  0  0  0  0  0  0  0  0  0  0
    1.1142   -0.2085   -2.9050 O   0  0  0  0  0  0  0  0  0  0  0  0
    2.9513    0.0562   -1.6456 O   0  0  0  0  0  0  0  0  0  0  0  0
   -0.3531   -1.9777    4.5441 S   0  0  0  0  0  0  0  0  0  0  0  0
   -2.1337   -2.5015    5.5262 S   0  0  0  0  0  0  0  0  0  0  0  0
   -3.0935   -3.3751    4.2463 C   0  0  2  0  0  0  0  0  0  0  0  0
   -4.5121   -3.7861    4.7322 C   0  0  2  0  0  0  0  0  0  0  0  0
    0.3786    3.6979    7.5835 C   0  0  1  0  0  0  0  0  0  0  0  0
   -0.9506    4.1855    8.0098 C   0  0  0  0  0  0  0  0  0  0  0  0
    1.0474    3.1295    8.7627 N   0  0  2  0  0  0  0  0  0  0  0  0
   -1.8628    3.3309    8.5317 O   0  0  0  0  0  0  0  0  0  0  0  0
   -1.2608    5.3942    7.9063 O   0  0  0  0  0  0  0  0  0  0  0  0
   -5.2596   -4.3159    3.6283 N   0  0  0  0  0  0  0  0  0  0  0  0
   -5.2832   -2.6388    5.2756 C   0  0  0  0  0  0  0  0  0  0  0  0
   -5.7376   -2.7000    6.4439 O   0  0  0  0  0  0  0  0  0  0  0  0
   -5.4987   -1.5430    4.4916 N   0  0  0  0  0  0  0  0  0  0  0  0
   -6.3141   -0.4252    4.8330 C   0  0  2  0  0  0  0  0  0  0  0  0
   -7.7398   -0.7892    4.7697 C   0  0  0  0  0  0  0  0  0  0  0  0
   -8.2568   -1.2756    3.6174 O   0  0  0  0  0  0  0  0  0  0  0  0
   -8.4871   -0.6628    5.7659 O   0  0  0  0  0  0  0  0  0  0  0  0
   -6.3207   -5.1685    3.7076 C   0  0  0  0  0  0  0  0  0  0  0  0
   -7.1405   -5.4357    2.5054 C   0  0  2  0  0  0  0  0  0  0  0  0
   -6.6548   -5.6963    4.7953 O   0  0  0  0  0  0  0  0  0  0  0  0
   -6.9477   -6.8671    1.9289 C   0  0  2  0  0  0  0  0  0  0  0  0
   -7.8283   -7.1375    0.6702 C   0  0  1  0  0  0  0  0  0  0  0  0
   -7.4623   -8.3862   -0.0369 C   0  0  0  0  0  0  0  0  0  0  0  0
   -9.2530   -7.2055    1.0319 N   0  0  1  0  0  0  0  0  0  0  0  0
   -7.4460   -9.5771    0.6019 O   0  0  0  0  0  0  0  0  0  0  0  0
   -7.1616   -8.3743   -1.2524 O   0  0  0  0  0  0  0  0  0  0  0  0
   -0.1526    1.7126    6.8802 H   0  0  0  0  0  0  0  0  0  0  0  0
   -0.4216    2.9955    5.6920 H   0  0  0  0  0  0  0  0  0  0  0  0
    2.3797    2.0830    6.5121 H   0  0  0  0  0  0  0  0  0  0  0  0
    1.9616    3.1640    5.1806 H   0  0  0  0  0  0  0  0  0  0  0  0
    0.1481    2.0560    3.6891 H   0  0  0  0  0  0  0  0  0  0  0  0
    1.2000   -0.4824    2.7366 H   0  0  0  0  0  0  0  0  0  0  0  0
   -1.3646   -1.1666    2.5372 H   0  0  0  0  0  0  0  0  0  0  0  0
   -1.6109   -0.0300    3.8596 H   0  0  0  0  0  0  0  0  0  0  0  0
    1.7064   -0.1241    0.6230 H   0  0  0  0  0  0  0  0  0  0  0  0
   -0.0406    1.2611   -1.1908 H   0  0  0  0  0  0  0  0  0  0  0  0
    1.4560    2.1247   -0.8125 H   0  0  0  0  0  0  0  0  0  0  0  0
    1.6179   -0.7459   -3.5535 H   0  0  0  0  0  0  0  0  0  0  0  0
   -2.5349   -4.2658    3.9498 H   0  0  0  0  0  0  0  0  0  0  0  0
   -3.1800   -2.7235    3.3749 H   0  0  0  0  0  0  0  0  0  0  0  0
   -4.3883   -4.5562    5.5018 H   0  0  0  0  0  0  0  0  0  0  0  0
    0.9770    4.5415    7.2268 H   0  0  0  0  0  0  0  0  0  0  0  0
    1.1092    3.8677    9.4684 H   0  0  0  0  0  0  0  0  0  0  0  0
    2.0055    2.9055    8.4863 H   0  0  0  0  0  0  0  0  0  0  0  0
   -1.6701    2.3696    8.5765 H   0  0  0  0  0  0  0  0  0  0  0  0
   -5.0287   -3.9861    2.7463 H   0  0  0  0  0  0  0  0  0  0  0  0
   -5.0873   -1.5334    3.6128 H   0  0  0  0  0  0  0  0  0  0  0  0
   -6.1391    0.3684    4.1034 H   0  0  0  0  0  0  0  0  0  0  0  0
   -6.0361   -0.0464    5.8210 H   0  0  0  0  0  0  0  0  0  0  0  0
   -9.2015   -1.5274    3.5676 H   0  0  0  0  0  0  0  0  0  0  0  0
   -6.8964   -4.7034    1.7290 H   0  0  0  0  0  0  0  0  0  0  0  0
   -8.1896   -5.2777    2.7727 H   0  0  0  0  0  0  0  0  0  0  0  0
   -7.1857   -7.6076    2.7002 H   0  0  0  0  0  0  0  0  0  0  0  0
   -5.8920   -6.9867    1.6627 H   0  0  0  0  0  0  0  0  0  0  0  0
   -7.7094   -6.3019   -0.0254 H   0  0  0  0  0  0  0  0  0  0  0  0
   -9.3512   -7.9287    1.7475 H   0  0  0  0  0  0  0  0  0  0  0  0
   -9.4994   -6.3178    1.4767 H   0  0  0  0  0  0  0  0  0  0  0  0
   -7.1968  -10.3907    0.1144 H   0  0  0  0  0  0  0  0  0  0  0  0
  1  2  1  0  0  0  0 
  2  3  1  0  0  0  0 
  3  4  1  0  0  0  0 
  3  5  2  0  0  0  0 
  4  6  1  0  0  0  0 
  6  7  1  0  0  0  0 
  6  8  1  0  0  0  0 
  7  9  1  0  0  0  0 
  7 10  2  0  0  0  0 
  9 11  1  0  0  0  0 
 11 12  1  0  0  0  0 
 12 13  1  0  0  0  0 
 12 14  2  0  0  0  0 
  8 15  1  0  0  0  0 
 15 16  1  0  0  0  0 
 16 17  1  0  0  0  0 
 18 17  1  0  0  0  0 
  1 19  1  0  0  0  0 
 19 20  1  0  0  0  0 
 19 21  1  0  0  0  0 
 20 22  1  0  0  0  0 
 20 23  2  0  0  0  0 
 18 24  1  0  0  0  0 
 18 25  1  0  0  0  0 
 25 26  2  0  0  0  0 
 25 27  1  0  0  0  0 
 27 28  1  0  0  0  0 
 28 29  1  0  0  0  0 
 29 30  1  0  0  0  0 
 29 31  2  0  0  0  0 
 24 32  1  0  0  0  0 
 32 33  1  0  0  0  0 
 32 34  2  0  0  0  0 
 33 35  1  0  0  0  0 
 35 36  1  0  0  0  0 
 36 37  1  0  0  0  0 
 36 38  1  0  0  0  0 
 37 39  1  0  0  0  0 
 37 40  2  0  0  0  0 
  1 41  1  0  0  0  0 
  1 42  1  0  0  0  0 
  2 43  1  0  0  0  0 
  2 44  1  0  0  0  0 
  4 45  1  0  0  0  0 
  6 46  1  0  0  0  0 
  8 47  1  0  0  0  0 
  8 48  1  0  0  0  0 
  9 49  1  0  0  0  0 
 11 50  1  0  0  0  0 
 11 51  1  0  0  0  0 
 13 52  1  0  0  0  0 
 17 53  1  0  0  0  0 
 17 54  1  0  0  0  0 
 18 55  1  0  0  0  0 
 19 56  1  0  0  0  0 
 21 57  1  0  0  0  0 
 21 58  1  0  0  0  0 
 22 59  1  0  0  0  0 
 24 60  1  0  0  0  0 
 27 61  1  0  0  0  0 
 28 62  1  0  0  0  0 
 28 63  1  0  0  0  0 
 30 64  1  0  0  0  0 
 33 65  1  0  0  0  0 
 33 66  1  0  0  0  0 
 35 67  1  0  0  0  0 
 35 68  1  0  0  0  0 
 36 69  1  0  0  0  0 
 38 70  1  0  0  0  0 
 38 71  1  0  0  0  0 
 39 72  1  0  0  0  0 
M  END
> <cdk:Title>
oxiglutatione

> <Conformer>
1

> <SuperDrugID>
SD003914

$$$$
