benserazide
  CDK     0628171801

 33 33  0  0  0  0  0  0  0  0999 V2000
    0.0108    0.1444    0.4144 C   0  0  1  0  0  0  0  0  0  0  0  0
   -0.8118   -1.0806    0.4592 N   0  0  2  0  0  0  0  0  0  0  0  0
    0.1946    0.7055    1.7800 C   0  0  0  0  0  0  0  0  0  0  0  0
   -0.9747   -1.6248   -0.7705 N   0  0  0  0  0  0  0  0  0  0  0  0
    0.9553    0.0202    2.7651 C   0  0  0  0  0  0  0  0  0  0  0  0
   -0.3781    1.9559    2.1149 C   0  0  0  0  0  0  0  0  0  0  0  0
   -0.4496   -2.8237   -1.1294 C   0  0  0  0  0  0  0  0  0  0  0  0
    1.5344   -1.1855    2.5130 O   0  0  0  0  0  0  0  0  0  0  0  0
    1.1416    0.5855    4.0473 C   0  0  0  0  0  0  0  0  0  0  0  0
   -0.1935    2.5154    3.3904 C   0  0  0  0  0  0  0  0  0  0  0  0
   -0.6284   -3.3223   -2.5132 C   0  0  2  0  0  0  0  0  0  0  0  0
    0.2116   -3.5015   -0.3065 O   0  0  0  0  0  0  0  0  0  0  0  0
    1.8711   -0.0526    5.0013 O   0  0  0  0  0  0  0  0  0  0  0  0
    0.5655    1.8347    4.3578 C   0  0  0  0  0  0  0  0  0  0  0  0
    0.1097   -2.4208   -3.5349 C   0  0  2  0  0  0  0  0  0  0  0  0
   -2.0610   -3.4049   -2.8340 N   0  0  2  0  0  0  0  0  0  0  0  0
    0.7269    2.4123    5.5764 O   0  0  0  0  0  0  0  0  0  0  0  0
   -0.0584   -2.9113   -4.8617 O   0  0  0  0  0  0  0  0  0  0  0  0
    0.9925   -0.0818   -0.0093 H   0  0  0  0  0  0  0  0  0  0  0  0
   -0.4709    0.8667   -0.2496 H   0  0  0  0  0  0  0  0  0  0  0  0
   -1.7365   -0.8633    0.8377 H   0  0  0  0  0  0  0  0  0  0  0  0
   -1.4830   -1.1260   -1.4301 H   0  0  0  0  0  0  0  0  0  0  0  0
   -0.9338    2.4741    1.4300 H   0  0  0  0  0  0  0  0  0  0  0  0
    1.1098   -1.5427    1.7071 H   0  0  0  0  0  0  0  0  0  0  0  0
   -0.6108    3.4231    3.6102 H   0  0  0  0  0  0  0  0  0  0  0  0
   -0.2186   -4.3330   -2.5967 H   0  0  0  0  0  0  0  0  0  0  0  0
    2.3296   -0.7923    4.5528 H   0  0  0  0  0  0  0  0  0  0  0  0
    1.1796   -2.4011   -3.3086 H   0  0  0  0  0  0  0  0  0  0  0  0
   -0.2737   -1.3984   -3.4956 H   0  0  0  0  0  0  0  0  0  0  0  0
   -2.4796   -4.0718   -2.1826 H   0  0  0  0  0  0  0  0  0  0  0  0
   -2.1380   -3.8180   -3.7662 H   0  0  0  0  0  0  0  0  0  0  0  0
    1.3611    1.8475    6.0649 H   0  0  0  0  0  0  0  0  0  0  0  0
    0.4269   -2.2725   -5.4250 H   0  0  0  0  0  0  0  0  0  0  0  0
  1  2  1  0  0  0  0 
  1  3  1  0  0  0  0 
  2  4  1  0  0  0  0 
  3  5  2  0  0  0  0 
  3  6  1  0  0  0  0 
  4  7  1  0  0  0  0 
  5  8  1  0  0  0  0 
  5  9  1  0  0  0  0 
  6 10  2  0  0  0  0 
 11  7  1  0  0  0  0 
  7 12  2  0  0  0  0 
  9 13  1  0  0  0  0 
  9 14  2  0  0  0  0 
 10 14  1  0  0  0  0 
 11 15  1  0  0  0  0 
 11 16  1  0  0  0  0 
 14 17  1  0  0  0  0 
 15 18  1  0  0  0  0 
 19  1  1  0  0  0  0 
 20  1  1  0  0  0  0 
 21  2  1  0  0  0  0 
 22  4  1  0  0  0  0 
 23  6  1  0  0  0  0 
 24  8  1  0  0  0  0 
 25 10  1  0  0  0  0 
 26 11  1  0  0  0  0 
 27 13  1  0  0  0  0 
 28 15  1  0  0  0  0 
 29 15  1  0  0  0  0 
 30 16  1  0  0  0  0 
 31 16  1  0  0  0  0 
 32 17  1  0  0  0  0 
 33 18  1  0  0  0  0 
M  END
> <cdk:Title>
benserazide

> <Conformer>
1

> <SuperDrugID>
SD000263

$$$$
