letosteine
  CDK     0628171801

 34 34  0  0  0  0  0  0  0  0999 V2000
   -5.0616    4.7957    2.7315 C   0  0  1  0  0  0  0  0  0  0  0  0
   -4.1478    4.5701    1.5038 C   0  0  1  0  0  0  0  0  0  0  0  0
   -5.7385    6.1876    2.7513 C   0  0  1  0  0  0  0  0  0  0  0  0
   -3.3694    2.9255    1.5932 S   0  0  0  0  0  0  0  0  0  0  0  0
   -6.6499    6.4051    1.6075 N   0  0  1  0  0  0  0  0  0  0  0  0
   -6.8322    6.3839    4.2007 S   0  0  0  0  0  0  0  0  0  0  0  0
   -2.4379    2.7744    0.0361 C   0  0  2  0  0  0  0  0  0  0  0  0
   -7.6446    7.4494    1.9453 C   0  0  2  0  0  0  0  0  0  0  0  0
   -8.2568    7.0871    3.3176 C   0  0  1  0  0  0  0  0  0  0  0  0
   -1.9158    1.4040   -0.0759 C   0  0  0  0  0  0  0  0  0  0  0  0
   -8.6368    7.5763    0.8615 C   0  0  0  0  0  0  0  0  0  0  0  0
   -0.5694    1.1762   -0.0176 O   0  0  0  0  0  0  0  0  0  0  0  0
   -2.7229    0.4569   -0.2290 O   0  0  0  0  0  0  0  0  0  0  0  0
   -8.7632    8.7436    0.1891 O   0  0  0  0  0  0  0  0  0  0  0  0
   -9.3629    6.6131    0.5310 O   0  0  0  0  0  0  0  0  0  0  0  0
    0.0561   -0.1127   -0.0191 C   0  0  1  0  0  0  0  0  0  0  0  0
    1.5885    0.0290   -0.0026 C   0  0  0  0  0  0  0  0  0  0  0  0
   -5.8328    4.0220    2.7491 H   0  0  0  0  0  0  0  0  0  0  0  0
   -4.4641    4.6907    3.6404 H   0  0  0  0  0  0  0  0  0  0  0  0
   -4.7367    4.6280    0.5864 H   0  0  0  0  0  0  0  0  0  0  0  0
   -3.3661    5.3318    1.4694 H   0  0  0  0  0  0  0  0  0  0  0  0
   -4.9808    6.9770    2.7729 H   0  0  0  0  0  0  0  0  0  0  0  0
   -6.0934    6.7380    0.8182 H   0  0  0  0  0  0  0  0  0  0  0  0
   -1.6234    3.5010    0.0386 H   0  0  0  0  0  0  0  0  0  0  0  0
   -3.0929    2.9847   -0.8107 H   0  0  0  0  0  0  0  0  0  0  0  0
   -7.1212    8.4062    2.0447 H   0  0  0  0  0  0  0  0  0  0  0  0
   -9.0279    6.3209    3.2324 H   0  0  0  0  0  0  0  0  0  0  0  0
   -8.6511    7.9610    3.8385 H   0  0  0  0  0  0  0  0  0  0  0  0
   -9.4033    8.8260   -0.5469 H   0  0  0  0  0  0  0  0  0  0  0  0
   -0.2609   -0.6625    0.8701 H   0  0  0  0  0  0  0  0  0  0  0  0
   -0.2421   -0.6753   -0.9071 H   0  0  0  0  0  0  0  0  0  0  0  0
    2.0492   -0.9604    0.0030 H   0  0  0  0  0  0  0  0  0  0  0  0
    1.9259    0.5703   -0.8888 H   0  0  0  0  0  0  0  0  0  0  0  0
    1.9065    0.5711    0.8902 H   0  0  0  0  0  0  0  0  0  0  0  0
  1  2  1  0  0  0  0 
  1  3  1  0  0  0  0 
  2  4  1  0  0  0  0 
  3  5  1  0  0  0  0 
  3  6  1  0  0  0  0 
  4  7  1  0  0  0  0 
  5  8  1  0  0  0  0 
  6  9  1  0  0  0  0 
  7 10  1  0  0  0  0 
  8  9  1  0  0  0  0 
  8 11  1  0  0  0  0 
 10 12  1  0  0  0  0 
 10 13  2  0  0  0  0 
 11 14  1  0  0  0  0 
 11 15  2  0  0  0  0 
 12 16  1  0  0  0  0 
 16 17  1  0  0  0  0 
  1 18  1  0  0  0  0 
  1 19  1  0  0  0  0 
  2 20  1  0  0  0  0 
  2 21  1  0  0  0  0 
  3 22  1  0  0  0  0 
  5 23  1  0  0  0  0 
  7 24  1  0  0  0  0 
  7 25  1  0  0  0  0 
  8 26  1  0  0  0  0 
  9 27  1  0  0  0  0 
  9 28  1  0  0  0  0 
 14 29  1  0  0  0  0 
 16 30  1  0  0  0  0 
 16 31  1  0  0  0  0 
 17 32  1  0  0  0  0 
 17 33  1  0  0  0  0 
 17 34  1  0  0  0  0 
M  END
> <cdk:Title>
letosteine

> <Conformer>
1

> <SuperDrugID>
SD001373

$$$$
