fludrocortisone acetate
  CDK     0628171801

 61 64  0  0  0  0  0  0  0  0999 V2000
   -1.7807   -6.9624   -1.4617 F   0  0  0  0  0  0  0  0  0  0  0  0
   -0.4889   -6.6105   -1.8346 C   0  0  2  0  0  0  0  0  0  0  0  0
   -0.6070   -5.1308   -2.3829 C   0  0  2  0  0  0  0  0  0  0  0  0
   -0.0542   -7.6489   -2.9836 C   0  0  2  0  0  0  0  0  0  0  0  0
    0.3124   -6.6769   -0.4683 C   0  0  1  0  0  0  0  0  0  0  0  0
   -1.0715   -4.1544   -1.2523 C   0  0  1  0  0  0  0  0  0  0  0  0
   -1.5636   -5.0857   -3.6116 C   0  0  2  0  0  0  0  0  0  0  0  0
    1.4264   -7.4538   -3.4887 C   0  0  0  0  0  0  0  0  0  0  0  0
   -0.9249   -7.4578   -4.1931 C   0  0  0  0  0  0  0  0  0  0  0  0
   -0.1774   -9.1323   -2.4313 C   0  0  1  0  0  0  0  0  0  0  0  0
    1.7255   -6.6690   -0.6446 O   0  0  0  0  0  0  0  0  0  0  0  0
   -0.0702   -5.5649    0.5722 C   0  0  1  0  0  0  0  0  0  0  0  0
   -0.1073   -4.1077   -0.0220 C   0  0  1  0  0  0  0  0  0  0  0  0
   -1.3305   -2.6743   -1.5980 C   0  0  1  0  0  0  0  0  0  0  0  0
   -1.1466   -6.0946   -4.7059 C   0  0  2  0  0  0  0  0  0  0  0  0
   -1.4657   -8.4980   -4.8714 C   0  0  0  0  0  0  0  0  0  0  0  0
   -0.2199  -10.2028   -3.5489 C   0  0  1  0  0  0  0  0  0  0  0  0
    1.3625   -3.6438   -0.3636 C   0  0  0  0  0  0  0  0  0  0  0  0
   -0.8332   -3.0013    0.8448 C   0  0  2  0  0  0  0  0  0  0  0  0
   -1.3269   -1.9575   -0.2234 C   0  0  2  0  0  0  0  0  0  0  0  0
   -1.2272   -9.8243   -4.5593 C   0  0  0  0  0  0  0  0  0  0  0  0
   -0.0115   -2.4025    1.9531 C   0  0  0  0  0  0  0  0  0  0  0  0
   -2.0229   -3.5510    1.4338 O   0  0  0  0  0  0  0  0  0  0  0  0
   -1.8434  -10.7289   -5.1704 O   0  0  0  0  0  0  0  0  0  0  0  0
    0.0151   -2.9451    3.3285 C   0  0  1  0  0  0  0  0  0  0  0  0
    0.7443   -1.4275    1.7249 O   0  0  0  0  0  0  0  0  0  0  0  0
   -1.2287   -2.6463    3.9747 O   0  0  0  0  0  0  0  0  0  0  0  0
   -1.4425   -1.8666    5.0758 C   0  0  0  0  0  0  0  0  0  0  0  0
   -2.8229   -1.7484    5.5618 C   0  0  0  0  0  0  0  0  0  0  0  0
   -0.5068   -1.2598    5.6501 O   0  0  0  0  0  0  0  0  0  0  0  0
    0.3631   -4.7898   -2.7425 H   0  0  0  0  0  0  0  0  0  0  0  0
    0.0976   -7.6403    0.0048 H   0  0  0  0  0  0  0  0  0  0  0  0
   -2.0497   -4.5364   -0.9249 H   0  0  0  0  0  0  0  0  0  0  0  0
   -1.5560   -4.0845   -4.0527 H   0  0  0  0  0  0  0  0  0  0  0  0
   -2.5904   -5.3012   -3.3010 H   0  0  0  0  0  0  0  0  0  0  0  0
    1.6638   -6.4074   -3.6732 H   0  0  0  0  0  0  0  0  0  0  0  0
    2.1565   -7.8341   -2.7755 H   0  0  0  0  0  0  0  0  0  0  0  0
    1.6024   -7.9909   -4.4243 H   0  0  0  0  0  0  0  0  0  0  0  0
    0.6423   -9.3655   -1.7461 H   0  0  0  0  0  0  0  0  0  0  0  0
   -1.1025   -9.2557   -1.8611 H   0  0  0  0  0  0  0  0  0  0  0  0
    2.0970   -6.8275    0.2499 H   0  0  0  0  0  0  0  0  0  0  0  0
   -1.0494   -5.8236    0.9828 H   0  0  0  0  0  0  0  0  0  0  0  0
    0.6276   -5.6062    1.4113 H   0  0  0  0  0  0  0  0  0  0  0  0
   -0.5392   -2.2839   -2.2454 H   0  0  0  0  0  0  0  0  0  0  0  0
   -2.2898   -2.5548   -2.1107 H   0  0  0  0  0  0  0  0  0  0  0  0
   -0.2180   -5.7506   -5.1685 H   0  0  0  0  0  0  0  0  0  0  0  0
   -1.9128   -6.0539   -5.4887 H   0  0  0  0  0  0  0  0  0  0  0  0
   -2.0505   -8.3257   -5.6570 H   0  0  0  0  0  0  0  0  0  0  0  0
    0.7561  -10.2870   -4.0329 H   0  0  0  0  0  0  0  0  0  0  0  0
   -0.4646  -11.1743   -3.1094 H   0  0  0  0  0  0  0  0  0  0  0  0
    1.9929   -3.7080    0.5244 H   0  0  0  0  0  0  0  0  0  0  0  0
    1.3900   -2.6142   -0.7155 H   0  0  0  0  0  0  0  0  0  0  0  0
    1.8292   -4.2487   -1.1333 H   0  0  0  0  0  0  0  0  0  0  0  0
   -2.3302   -1.5880    0.0120 H   0  0  0  0  0  0  0  0  0  0  0  0
   -0.6739   -1.0827   -0.2895 H   0  0  0  0  0  0  0  0  0  0  0  0
   -2.4853   -2.7895    1.8422 H   0  0  0  0  0  0  0  0  0  0  0  0
    0.1373   -4.0263    3.3010 H   0  0  0  0  0  0  0  0  0  0  0  0
    0.8576   -2.5351    3.8919 H   0  0  0  0  0  0  0  0  0  0  0  0
   -2.8477   -0.9984    6.4105 H   0  0  0  0  0  0  0  0  0  0  0  0
   -3.3945   -1.2554    4.7201 H   0  0  0  0  0  0  0  0  0  0  0  0
   -3.1447   -2.8391    5.8361 H   0  0  0  0  0  0  0  0  0  0  0  0
  2  1  1  0  0  0  0 
  2  3  1  0  0  0  0 
  2  4  1  0  0  0  0 
  2  5  1  0  0  0  0 
  3  6  1  0  0  0  0 
  3  7  1  0  0  0  0 
  4  8  1  0  0  0  0 
  4  9  1  0  0  0  0 
  4 10  1  0  0  0  0 
  5 11  1  0  0  0  0 
  5 12  1  0  0  0  0 
  6 13  1  0  0  0  0 
  6 14  1  0  0  0  0 
  7 15  1  0  0  0  0 
  9 15  1  0  0  0  0 
  9 16  2  0  0  0  0 
 10 17  1  0  0  0  0 
 13 12  1  0  0  0  0 
 13 18  1  0  0  0  0 
 13 19  1  0  0  0  0 
 14 20  1  0  0  0  0 
 16 21  1  0  0  0  0 
 17 21  1  0  0  0  0 
 19 20  1  0  0  0  0 
 19 22  1  0  0  0  0 
 19 23  1  0  0  0  0 
 21 24  2  0  0  0  0 
 22 25  1  0  0  0  0 
 22 26  2  0  0  0  0 
 25 27  1  0  0  0  0 
 27 28  1  0  0  0  0 
 28 29  1  0  0  0  0 
 28 30  2  0  0  0  0 
  3 31  1  0  0  0  0 
  5 32  1  0  0  0  0 
  6 33  1  0  0  0  0 
 34  7  1  0  0  0  0 
 35  7  1  0  0  0  0 
 36  8  1  0  0  0  0 
 37  8  1  0  0  0  0 
 38  8  1  0  0  0  0 
 39 10  1  0  0  0  0 
 40 10  1  0  0  0  0 
 41 11  1  0  0  0  0 
 42 12  1  0  0  0  0 
 43 12  1  0  0  0  0 
 44 14  1  0  0  0  0 
 45 14  1  0  0  0  0 
 46 15  1  0  0  0  0 
 47 15  1  0  0  0  0 
 48 16  1  0  0  0  0 
 49 17  1  0  0  0  0 
 50 17  1  0  0  0  0 
 51 18  1  0  0  0  0 
 52 18  1  0  0  0  0 
 53 18  1  0  0  0  0 
 54 20  1  0  0  0  0 
 55 20  1  0  0  0  0 
 56 23  1  0  0  0  0 
 57 25  1  0  0  0  0 
 58 25  1  0  0  0  0 
 59 29  1  0  0  0  0 
 60 29  1  0  0  0  0 
 61 29  1  0  0  0  0 
M  END
> <cdk:Title>
fludrocortisone acetate

> <Conformer>
1

> <SuperDrugID>
SD001066

$$$$
