pirmenol
  CDK     0628171801

 55 57  0  0  0  0  0  0  0  0999 V2000
   -0.6024   -0.9951    0.2189 C   0  0  1  0  0  0  0  0  0  0  0  0
   -1.9012   -0.2749   -0.2999 C   0  0  1  0  0  0  0  0  0  0  0  0
   -0.4422   -2.1294   -0.6504 O   0  0  0  0  0  0  0  0  0  0  0  0
    0.6807   -0.2039    0.1571 C   0  0  0  0  0  0  0  0  0  0  0  0
   -0.8241   -1.4555    1.6259 C   0  0  0  0  0  0  0  0  0  0  0  0
   -3.1438   -1.2133   -0.4121 C   0  0  2  0  0  0  0  0  0  0  0  0
    0.7128    1.2151    0.1875 C   0  0  0  0  0  0  0  0  0  0  0  0
    1.9302   -0.8804    0.1082 C   0  0  0  0  0  0  0  0  0  0  0  0
   -0.9938   -0.5525    2.7060 C   0  0  0  0  0  0  0  0  0  0  0  0
   -0.9228   -2.7903    1.8844 N   0  0  0  0  0  0  0  0  0  0  0  0
   -4.4901   -0.4911   -0.6868 C   0  0  2  0  0  0  0  0  0  0  0  0
    1.9286    1.9223    0.1628 C   0  0  0  0  0  0  0  0  0  0  0  0
    3.1467   -0.1745    0.0732 C   0  0  0  0  0  0  0  0  0  0  0  0
   -1.2798   -1.0512    3.9898 C   0  0  0  0  0  0  0  0  0  0  0  0
   -1.1919   -3.3045    3.1088 C   0  0  0  0  0  0  0  0  0  0  0  0
   -5.7263   -1.3485   -0.5572 N   0  0  0  0  0  0  0  0  0  0  0  0
    3.1484    1.2290    0.1083 C   0  0  0  0  0  0  0  0  0  0  0  0
   -1.3872   -2.4382    4.1971 C   0  0  0  0  0  0  0  0  0  0  0  0
   -6.3298   -1.6325    0.8043 C   0  0  2  0  0  0  0  0  0  0  0  0
   -5.9685   -2.4701   -1.5417 C   0  0  1  0  0  0  0  0  0  0  0  0
   -6.2044   -0.5099    1.8709 C   0  0  0  0  0  0  0  0  0  0  0  0
   -5.8628   -3.0029    1.3903 C   0  0  1  0  0  0  0  0  0  0  0  0
   -5.5210   -2.2159   -3.0066 C   0  0  0  0  0  0  0  0  0  0  0  0
   -5.4211   -3.8255   -0.9973 C   0  0  2  0  0  0  0  0  0  0  0  0
   -6.0489   -4.1604    0.3774 C   0  0  2  0  0  0  0  0  0  0  0  0
   -2.1567    0.5508    0.3686 H   0  0  0  0  0  0  0  0  0  0  0  0
   -1.6969    0.1540   -1.2859 H   0  0  0  0  0  0  0  0  0  0  0  0
   -0.3057   -1.7571   -1.5468 H   0  0  0  0  0  0  0  0  0  0  0  0
   -3.2431   -1.7758    0.5136 H   0  0  0  0  0  0  0  0  0  0  0  0
   -2.9527   -1.9239   -1.2166 H   0  0  0  0  0  0  0  0  0  0  0  0
   -0.1482    1.7598    0.2379 H   0  0  0  0  0  0  0  0  0  0  0  0
    1.9659   -1.9029    0.0943 H   0  0  0  0  0  0  0  0  0  0  0  0
   -0.9158    0.4587    2.5664 H   0  0  0  0  0  0  0  0  0  0  0  0
   -4.4538   -0.0612   -1.6904 H   0  0  0  0  0  0  0  0  0  0  0  0
   -4.5703    0.3682   -0.0209 H   0  0  0  0  0  0  0  0  0  0  0  0
    1.9280    2.9431    0.1878 H   0  0  0  0  0  0  0  0  0  0  0  0
    4.0328   -0.6802    0.0245 H   0  0  0  0  0  0  0  0  0  0  0  0
   -1.4140   -0.4051    4.7725 H   0  0  0  0  0  0  0  0  0  0  0  0
   -1.2583   -4.3164    3.2286 H   0  0  0  0  0  0  0  0  0  0  0  0
    4.0314    1.7451    0.0948 H   0  0  0  0  0  0  0  0  0  0  0  0
   -1.6004   -2.8111    5.1244 H   0  0  0  0  0  0  0  0  0  0  0  0
   -7.4098   -1.7188    0.6368 H   0  0  0  0  0  0  0  0  0  0  0  0
   -7.0570   -2.5794   -1.6184 H   0  0  0  0  0  0  0  0  0  0  0  0
   -5.1675   -0.3936    2.1909 H   0  0  0  0  0  0  0  0  0  0  0  0
   -6.5591    0.4377    1.4619 H   0  0  0  0  0  0  0  0  0  0  0  0
   -6.8122   -0.7481    2.7487 H   0  0  0  0  0  0  0  0  0  0  0  0
   -4.8131   -2.9508    1.6849 H   0  0  0  0  0  0  0  0  0  0  0  0
   -6.4418   -3.2392    2.2884 H   0  0  0  0  0  0  0  0  0  0  0  0
   -5.8884   -3.0154   -3.6561 H   0  0  0  0  0  0  0  0  0  0  0  0
   -4.4351   -2.1789   -3.0905 H   0  0  0  0  0  0  0  0  0  0  0  0
   -5.9351   -1.2713   -3.3634 H   0  0  0  0  0  0  0  0  0  0  0  0
   -4.3360   -3.7854   -0.8913 H   0  0  0  0  0  0  0  0  0  0  0  0
   -5.6543   -4.6358   -1.6935 H   0  0  0  0  0  0  0  0  0  0  0  0
   -7.1170   -4.3628    0.2471 H   0  0  0  0  0  0  0  0  0  0  0  0
   -5.5877   -5.0677    0.7749 H   0  0  0  0  0  0  0  0  0  0  0  0
  1  2  1  0  0  0  0 
  1  3  1  0  0  0  0 
  1  4  1  0  0  0  0 
  1  5  1  0  0  0  0 
  2  6  1  0  0  0  0 
  4  7  2  0  0  0  0 
  4  8  1  0  0  0  0 
  5  9  2  0  0  0  0 
  5 10  1  0  0  0  0 
  6 11  1  0  0  0  0 
  7 12  1  0  0  0  0 
  8 13  2  0  0  0  0 
  9 14  1  0  0  0  0 
 10 15  2  0  0  0  0 
 11 16  1  0  0  0  0 
 12 17  2  0  0  0  0 
 13 17  1  0  0  0  0 
 14 18  2  0  0  0  0 
 15 18  1  0  0  0  0 
 19 16  1  0  0  0  0 
 20 16  1  0  0  0  0 
 19 21  1  0  0  0  0 
 19 22  1  0  0  0  0 
 20 23  1  0  0  0  0 
 20 24  1  0  0  0  0 
 22 25  1  0  0  0  0 
 24 25  1  0  0  0  0 
  2 26  1  0  0  0  0 
  2 27  1  0  0  0  0 
  3 28  1  0  0  0  0 
  6 29  1  0  0  0  0 
  6 30  1  0  0  0  0 
  7 31  1  0  0  0  0 
  8 32  1  0  0  0  0 
  9 33  1  0  0  0  0 
 11 34  1  0  0  0  0 
 11 35  1  0  0  0  0 
 12 36  1  0  0  0  0 
 13 37  1  0  0  0  0 
 14 38  1  0  0  0  0 
 15 39  1  0  0  0  0 
 17 40  1  0  0  0  0 
 18 41  1  0  0  0  0 
 19 42  1  0  0  0  0 
 20 43  1  0  0  0  0 
 21 44  1  0  0  0  0 
 21 45  1  0  0  0  0 
 21 46  1  0  0  0  0 
 22 47  1  0  0  0  0 
 22 48  1  0  0  0  0 
 23 49  1  0  0  0  0 
 23 50  1  0  0  0  0 
 23 51  1  0  0  0  0 
 24 52  1  0  0  0  0 
 24 53  1  0  0  0  0 
 25 54  1  0  0  0  0 
 25 55  1  0  0  0  0 
M  END
> <cdk:Title>
pirmenol

> <Conformer>
1

> <SuperDrugID>
SD001981

$$$$
