butizide
  CDK     0628171801

 37 38  0  0  0  0  0  0  0  0999 V2000
   -5.1340    1.7627    3.2876 O   0  0  0  0  0  0  0  0  0  0  0  0
   -3.6252    1.5470    3.7814 S   0  0  2  0  0  0  0  0  0  0  0  0
   -3.0368    2.9128    4.3807 O   0  0  0  0  0  0  0  0  0  0  0  0
   -2.5852    0.9351    2.4971 C   0  0  0  0  0  0  0  0  0  0  0  0
   -3.5901    0.3013    5.0257 N   0  0  2  0  0  0  0  0  0  0  0  0
   -1.5707    0.0263    2.8669 C   0  0  0  0  0  0  0  0  0  0  0  0
   -2.7594    1.3203    1.1535 C   0  0  0  0  0  0  0  0  0  0  0  0
   -2.1966   -0.1196    5.3081 C   0  0  2  0  0  0  0  0  0  0  0  0
   -1.4026   -0.4359    4.1454 N   0  0  0  0  0  0  0  0  0  0  0  0
   -0.6881   -0.4329    1.8695 C   0  0  0  0  0  0  0  0  0  0  0  0
   -1.8985    0.8249    0.1501 C   0  0  0  0  0  0  0  0  0  0  0  0
   -2.2128   -1.3741    6.2329 C   0  0  1  0  0  0  0  0  0  0  0  0
   -0.8371   -0.0360    0.5237 C   0  0  0  0  0  0  0  0  0  0  0  0
   -2.1860    1.2807   -1.5416 S   0  0  1  0  0  0  0  0  0  0  0  0
   -3.0127   -1.2436    7.5725 C   0  0  1  0  0  0  0  0  0  0  0  0
    0.2902   -0.6378   -0.5934 Cl  0  0  0  0  0  0  0  0  0  0  0  0
   -0.8055    2.1792   -2.1504 N   0  0  2  0  0  0  0  0  0  0  0  0
   -2.3704   -0.0284   -2.4503 O   0  0  0  0  0  0  0  0  0  0  0  0
   -3.4921    2.1979   -1.6989 O   0  0  0  0  0  0  0  0  0  0  0  0
   -3.0324   -2.6042    8.3299 C   0  0  0  0  0  0  0  0  0  0  0  0
   -2.4814   -0.1060    8.4939 C   0  0  0  0  0  0  0  0  0  0  0  0
   -4.0644   -0.5114    4.6295 H   0  0  0  0  0  0  0  0  0  0  0  0
   -3.5150    1.9646    0.9127 H   0  0  0  0  0  0  0  0  0  0  0  0
   -1.6856    0.6956    5.8281 H   0  0  0  0  0  0  0  0  0  0  0  0
   -0.6523   -1.0349    4.2897 H   0  0  0  0  0  0  0  0  0  0  0  0
    0.0669   -1.0744    2.1274 H   0  0  0  0  0  0  0  0  0  0  0  0
   -2.6413   -2.2035    5.6591 H   0  0  0  0  0  0  0  0  0  0  0  0
   -1.1787   -1.6445    6.4707 H   0  0  0  0  0  0  0  0  0  0  0  0
   -4.0550   -1.0087    7.3311 H   0  0  0  0  0  0  0  0  0  0  0  0
   -1.0175    2.4158   -3.1224 H   0  0  0  0  0  0  0  0  0  0  0  0
   -0.0168    1.5274   -2.1645 H   0  0  0  0  0  0  0  0  0  0  0  0
   -3.4667   -3.3837    7.6984 H   0  0  0  0  0  0  0  0  0  0  0  0
   -3.6409   -2.5319    9.2352 H   0  0  0  0  0  0  0  0  0  0  0  0
   -2.0212   -2.9093    8.6121 H   0  0  0  0  0  0  0  0  0  0  0  0
   -2.6029    0.8687    8.0166 H   0  0  0  0  0  0  0  0  0  0  0  0
   -3.0392   -0.0800    9.4334 H   0  0  0  0  0  0  0  0  0  0  0  0
   -1.4236   -0.2530    8.7243 H   0  0  0  0  0  0  0  0  0  0  0  0
  1  2  2  0  0  0  0 
  2  3  2  0  0  0  0 
  2  4  1  0  0  0  0 
  2  5  1  0  0  0  0 
  4  6  2  0  0  0  0 
  4  7  1  0  0  0  0 
  8  5  1  0  0  0  0 
  6  9  1  0  0  0  0 
  6 10  1  0  0  0  0 
  7 11  2  0  0  0  0 
  8  9  1  0  0  0  0 
  8 12  1  0  0  0  0 
 10 13  2  0  0  0  0 
 11 13  1  0  0  0  0 
 11 14  1  0  0  0  0 
 12 15  1  0  0  0  0 
 13 16  1  0  0  0  0 
 14 17  1  0  0  0  0 
 14 18  2  0  0  0  0 
 14 19  2  0  0  0  0 
 15 20  1  0  0  0  0 
 15 21  1  0  0  0  0 
  5 22  1  0  0  0  0 
  7 23  1  0  0  0  0 
  8 24  1  0  0  0  0 
  9 25  1  0  0  0  0 
 10 26  1  0  0  0  0 
 12 27  1  0  0  0  0 
 12 28  1  0  0  0  0 
 15 29  1  0  0  0  0 
 17 30  1  0  0  0  0 
 17 31  1  0  0  0  0 
 20 32  1  0  0  0  0 
 20 33  1  0  0  0  0 
 20 34  1  0  0  0  0 
 21 35  1  0  0  0  0 
 21 36  1  0  0  0  0 
 21 37  1  0  0  0  0 
M  END
> <cdk:Title>
butizide

> <Conformer>
1

> <SuperDrugID>
SD000388

$$$$
