ornipressin
  CDK     0628171802

135138  0  0  0  0  0  0  0  0999 V2000
   -8.7500   -5.6664    4.7758 H   0  0  0  0  0  0  0  0  0  0  0  0
   -9.4011   -5.3869    5.5104 N   0  0  2  0  0  0  0  0  0  0  0  0
  -11.2432   -3.7613    7.0804 N   0  0  0  0  0  0  0  0  0  0  0  0
  -13.2999   -5.5806    7.9366 N   0  0  0  0  0  0  0  0  0  0  0  0
  -11.8625   -8.2129    8.3033 N   0  0  0  0  0  0  0  0  0  0  0  0
  -12.1668   -6.6722    5.1398 N   0  0  0  0  0  0  0  0  0  0  0  0
  -11.4591   -6.1117    1.8375 N   0  0  0  0  0  0  0  0  0  0  0  0
  -10.7418   -7.3966   -0.7802 N   0  0  0  0  0  0  0  0  0  0  0  0
  -12.5605   -9.3829    0.0679 N   0  0  0  0  0  0  0  0  0  0  0  0
  -15.5648   -9.1997    0.6603 N   0  0  0  0  0  0  0  0  0  0  0  0
  -18.1098   -9.3864   -0.7444 N   0  0  0  0  0  0  0  0  0  0  0  0
   -9.8738   -3.6578    7.1026 C   0  0  0  0  0  0  0  0  0  0  0  0
   -8.1890   -3.5356    3.3163 S   0  0  0  0  0  0  0  0  0  0  0  0
   -9.1980   -3.0336    4.7506 C   0  0  1  0  0  0  0  0  0  0  0  0
   -9.0447   -4.0289    5.9295 C   0  0  2  0  0  0  0  0  0  0  0  0
   -9.2738   -3.2491    8.1254 O   0  0  0  0  0  0  0  0  0  0  0  0
  -12.9242   -4.5060    8.6967 C   0  0  0  0  0  0  0  0  0  0  0  0
  -13.0691   -2.2088    7.6535 C   0  0  2  0  0  0  0  0  0  0  0  0
  -13.3368   -1.1945    8.7138 C   0  0  0  0  0  0  0  0  0  0  0  0
  -14.5931   -1.0934    9.3550 C   0  0  0  0  0  0  0  0  0  0  0  0
  -14.8042   -0.1430   10.3738 C   0  0  0  0  0  0  0  0  0  0  0  0
  -13.7675    0.7236   10.7648 C   0  0  0  0  0  0  0  0  0  0  0  0
  -13.9896    1.6350   11.7449 O   0  0  0  0  0  0  0  0  0  0  0  0
  -12.5153    0.6353   10.1295 C   0  0  0  0  0  0  0  0  0  0  0  0
  -12.3058   -0.3086    9.1079 C   0  0  0  0  0  0  0  0  0  0  0  0
  -12.1389   -3.3689    8.1421 C   0  0  2  0  0  0  0  0  0  0  0  0
  -13.2566   -4.4385    9.9058 O   0  0  0  0  0  0  0  0  0  0  0  0
  -13.0231   -7.7911    8.8828 C   0  0  0  0  0  0  0  0  0  0  0  0
  -15.0167   -7.3714    7.4289 C   0  0  2  0  0  0  0  0  0  0  0  0
  -16.2158   -6.5798    7.0090 C   0  0  0  0  0  0  0  0  0  0  0  0
  -17.1328   -7.1830    6.1093 C   0  0  0  0  0  0  0  0  0  0  0  0
  -18.3029   -6.5153    5.7005 C   0  0  0  0  0  0  0  0  0  0  0  0
  -18.5771   -5.2261    6.1817 C   0  0  0  0  0  0  0  0  0  0  0  0
  -17.6766   -4.6027    7.0620 C   0  0  0  0  0  0  0  0  0  0  0  0
  -16.5084   -5.2723    7.4727 C   0  0  0  0  0  0  0  0  0  0  0  0
  -13.9872   -6.7481    8.4257 C   0  0  2  0  0  0  0  0  0  0  0  0
  -13.3012   -8.4008    9.9413 O   0  0  0  0  0  0  0  0  0  0  0  0
  -11.8883   -7.7937    5.8768 C   0  0  0  0  0  0  0  0  0  0  0  0
   -9.7948   -8.4756    7.0728 C   0  0  1  0  0  0  0  0  0  0  0  0
   -8.8290   -8.2398    8.2714 C   0  0  2  0  0  0  0  0  0  0  0  0
   -7.6420   -9.1165    8.1991 C   0  0  0  0  0  0  0  0  0  0  0  0
   -7.4721  -10.1359    9.0628 N   0  0  0  0  0  0  0  0  0  0  0  0
   -6.7720   -8.9303    7.3173 O   0  0  0  0  0  0  0  0  0  0  0  0
  -11.1471   -7.6982    7.1686 C   0  0  2  0  0  0  0  0  0  0  0  0
  -12.2478   -8.9279    5.4812 O   0  0  0  0  0  0  0  0  0  0  0  0
  -12.0223   -5.6555    2.9863 C   0  0  0  0  0  0  0  0  0  0  0  0
  -14.2758   -6.1778    3.9217 C   0  0  1  0  0  0  0  0  0  0  0  0
  -14.9919   -5.9426    2.6450 C   0  0  0  0  0  0  0  0  0  0  0  0
  -16.2451   -5.4569    2.6688 N   0  0  0  0  0  0  0  0  0  0  0  0
  -14.4885   -6.1945    1.5264 O   0  0  0  0  0  0  0  0  0  0  0  0
  -12.7765   -6.6074    3.8374 C   0  0  2  0  0  0  0  0  0  0  0  0
  -12.0180   -4.4360    3.2759 O   0  0  0  0  0  0  0  0  0  0  0  0
  -11.3343   -6.1765   -0.4769 C   0  0  0  0  0  0  0  0  0  0  0  0
   -9.4535   -3.1839    1.6768 S   0  0  0  0  0  0  0  0  0  0  0  0
   -9.5668   -4.8086    0.8495 C   0  0  2  0  0  0  0  0  0  0  0  0
  -11.0307   -5.3262    0.7203 C   0  0  2  0  0  0  0  0  0  0  0  0
  -12.2563   -5.7658   -1.2255 O   0  0  0  0  0  0  0  0  0  0  0  0
  -12.3421   -9.2091   -1.2698 C   0  0  0  0  0  0  0  0  0  0  0  0
  -11.2638   -8.3063   -1.7739 C   0  0  2  0  0  0  0  0  0  0  0  0
  -10.0198   -9.1273   -2.1816 C   0  0  2  0  0  0  0  0  0  0  0  0
   -9.2163   -9.2227   -0.8786 C   0  0  2  0  0  0  0  0  0  0  0  0
   -9.5538   -7.9038   -0.1559 C   0  0  1  0  0  0  0  0  0  0  0  0
  -12.9951   -9.8608   -2.1196 O   0  0  0  0  0  0  0  0  0  0  0  0
  -14.5231   -9.6657    1.3979 C   0  0  0  0  0  0  0  0  0  0  0  0
  -11.5653  -10.7626    2.5031 C   0  0  1  0  0  0  0  0  0  0  0  0
  -12.6167  -11.3756    1.5346 C   0  0  2  0  0  0  0  0  0  0  0  0
  -13.4264  -10.3555    0.6738 C   0  0  2  0  0  0  0  0  0  0  0  0
   -9.9119  -11.2433    4.3018 N   0  0  2  0  0  0  0  0  0  0  0  0
  -11.0175  -11.7969    3.5137 C   0  0  1  0  0  0  0  0  0  0  0  0
  -14.5109   -9.5438    2.6463 O   0  0  0  0  0  0  0  0  0  0  0  0
  -17.9195   -9.3454    0.5874 C   0  0  0  0  0  0  0  0  0  0  0  0
  -16.7708   -8.6162    1.1505 C   0  0  2  0  0  0  0  0  0  0  0  0
  -18.7349   -9.9359    1.3300 O   0  0  0  0  0  0  0  0  0  0  0  0
  -10.3161   -5.3118    5.0661 H   0  0  0  0  0  0  0  0  0  0  0  0
  -11.6462   -4.1115    6.2692 H   0  0  0  0  0  0  0  0  0  0  0  0
  -13.0562   -5.5646    7.0000 H   0  0  0  0  0  0  0  0  0  0  0  0
  -11.4264   -8.9477    8.7662 H   0  0  0  0  0  0  0  0  0  0  0  0
  -11.9019   -5.8263    5.5299 H   0  0  0  0  0  0  0  0  0  0  0  0
  -11.4178   -7.0746    1.7281 H   0  0  0  0  0  0  0  0  0  0  0  0
  -12.0549   -8.8152    0.6686 H   0  0  0  0  0  0  0  0  0  0  0  0
  -15.4933   -9.3052   -0.3005 H   0  0  0  0  0  0  0  0  0  0  0  0
  -17.4859   -8.9367   -1.3355 H   0  0  0  0  0  0  0  0  0  0  0  0
  -18.8664   -9.8648   -1.1164 H   0  0  0  0  0  0  0  0  0  0  0  0
   -8.8726   -2.0387    5.0646 H   0  0  0  0  0  0  0  0  0  0  0  0
  -10.2434   -2.9683    4.4534 H   0  0  0  0  0  0  0  0  0  0  0  0
   -7.9896   -4.0491    6.2234 H   0  0  0  0  0  0  0  0  0  0  0  0
  -12.6032   -1.6831    6.8132 H   0  0  0  0  0  0  0  0  0  0  0  0
  -14.0074   -2.6190    7.2666 H   0  0  0  0  0  0  0  0  0  0  0  0
  -15.3612   -1.7137    9.0878 H   0  0  0  0  0  0  0  0  0  0  0  0
  -15.7142   -0.0827   10.8354 H   0  0  0  0  0  0  0  0  0  0  0  0
  -13.1032    1.9723   11.9930 H   0  0  0  0  0  0  0  0  0  0  0  0
  -11.7543    1.2576   10.4085 H   0  0  0  0  0  0  0  0  0  0  0  0
  -11.3913   -0.3496    8.6504 H   0  0  0  0  0  0  0  0  0  0  0  0
  -11.5317   -2.9939    8.9726 H   0  0  0  0  0  0  0  0  0  0  0  0
  -14.4813   -7.6856    6.5385 H   0  0  0  0  0  0  0  0  0  0  0  0
  -15.4130   -8.2834    7.8893 H   0  0  0  0  0  0  0  0  0  0  0  0
  -16.9551   -8.1233    5.7439 H   0  0  0  0  0  0  0  0  0  0  0  0
  -18.9555   -6.9653    5.0538 H   0  0  0  0  0  0  0  0  0  0  0  0
  -19.4289   -4.7439    5.8891 H   0  0  0  0  0  0  0  0  0  0  0  0
  -17.8748   -3.6610    7.4049 H   0  0  0  0  0  0  0  0  0  0  0  0
  -15.8846   -4.7883    8.1186 H   0  0  0  0  0  0  0  0  0  0  0  0
  -14.5843   -6.4611    9.2983 H   0  0  0  0  0  0  0  0  0  0  0  0
   -9.2742   -8.1907    6.1530 H   0  0  0  0  0  0  0  0  0  0  0  0
  -10.0133   -9.5465    7.0072 H   0  0  0  0  0  0  0  0  0  0  0  0
   -9.3506   -8.4269    9.2131 H   0  0  0  0  0  0  0  0  0  0  0  0
   -8.4996   -7.1977    8.2831 H   0  0  0  0  0  0  0  0  0  0  0  0
   -6.6904  -10.7085    8.9896 H   0  0  0  0  0  0  0  0  0  0  0  0
   -8.1323  -10.3014    9.7576 H   0  0  0  0  0  0  0  0  0  0  0  0
  -10.9065   -6.6550    7.3805 H   0  0  0  0  0  0  0  0  0  0  0  0
  -14.3602   -5.2753    4.5339 H   0  0  0  0  0  0  0  0  0  0  0  0
  -14.8254   -6.9694    4.4209 H   0  0  0  0  0  0  0  0  0  0  0  0
  -16.6700   -5.2475    3.5135 H   0  0  0  0  0  0  0  0  0  0  0  0
  -16.7284   -5.3160    1.8416 H   0  0  0  0  0  0  0  0  0  0  0  0
  -12.7475   -7.5953    3.3722 H   0  0  0  0  0  0  0  0  0  0  0  0
   -8.9556   -5.5316    1.3896 H   0  0  0  0  0  0  0  0  0  0  0  0
   -9.1278   -4.6763   -0.1419 H   0  0  0  0  0  0  0  0  0  0  0  0
  -11.6780   -4.4439    0.6521 H   0  0  0  0  0  0  0  0  0  0  0  0
  -11.6240   -7.7635   -2.6548 H   0  0  0  0  0  0  0  0  0  0  0  0
   -9.4411   -8.5849   -2.9366 H   0  0  0  0  0  0  0  0  0  0  0  0
  -10.2674  -10.1156   -2.5792 H   0  0  0  0  0  0  0  0  0  0  0  0
   -8.1465   -9.3265   -1.0768 H   0  0  0  0  0  0  0  0  0  0  0  0
   -9.5547  -10.0770   -0.2871 H   0  0  0  0  0  0  0  0  0  0  0  0
   -8.7273   -7.2062   -0.3031 H   0  0  0  0  0  0  0  0  0  0  0  0
   -9.7016   -8.0750    0.9137 H   0  0  0  0  0  0  0  0  0  0  0  0
  -10.7341  -10.3592    1.9211 H   0  0  0  0  0  0  0  0  0  0  0  0
  -12.0063   -9.9368    3.0576 H   0  0  0  0  0  0  0  0  0  0  0  0
  -13.3242  -11.9936    2.0979 H   0  0  0  0  0  0  0  0  0  0  0  0
  -12.0864  -12.0497    0.8561 H   0  0  0  0  0  0  0  0  0  0  0  0
  -13.9080  -10.9649   -0.0987 H   0  0  0  0  0  0  0  0  0  0  0  0
  -10.2129  -10.3355    4.6623 H   0  0  0  0  0  0  0  0  0  0  0  0
   -9.1431  -11.0681    3.6515 H   0  0  0  0  0  0  0  0  0  0  0  0
  -11.8099  -12.1044    4.1983 H   0  0  0  0  0  0  0  0  0  0  0  0
  -10.6497  -12.6792    2.9874 H   0  0  0  0  0  0  0  0  0  0  0  0
  -16.8163   -7.5823    0.8115 H   0  0  0  0  0  0  0  0  0  0  0  0
  -16.8172   -8.6158    2.2431 H   0  0  0  0  0  0  0  0  0  0  0  0
  1  2  1  0  0  0  0 
 12  3  1  0  0  0  0 
 17  4  1  0  0  0  0 
 28  5  1  0  0  0  0 
 38  6  1  0  0  0  0 
 46  7  1  0  0  0  0 
 53  8  1  0  0  0  0 
 58  9  1  0  0  0  0 
 64 10  1  0  0  0  0 
 71 11  1  0  0  0  0 
 13 54  1  0  0  0  0 
 15  2  1  0  0  0  0 
 15 14  1  0  0  0  0 
 14 13  1  0  0  0  0 
 15 12  1  0  0  0  0 
 12 16  2  0  0  0  0 
 26  3  1  0  0  0  0 
 26 18  1  0  0  0  0 
 18 19  1  0  0  0  0 
 19 20  2  0  0  0  0 
 20 21  1  0  0  0  0 
 21 22  2  0  0  0  0 
 22 23  1  0  0  0  0 
 22 24  1  0  0  0  0 
 24 25  2  0  0  0  0 
 19 25  1  0  0  0  0 
 26 17  1  0  0  0  0 
 17 27  2  0  0  0  0 
 36  4  1  0  0  0  0 
 36 29  1  0  0  0  0 
 29 30  1  0  0  0  0 
 30 31  2  0  0  0  0 
 31 32  1  0  0  0  0 
 32 33  2  0  0  0  0 
 33 34  1  0  0  0  0 
 34 35  2  0  0  0  0 
 30 35  1  0  0  0  0 
 36 28  1  0  0  0  0 
 28 37  2  0  0  0  0 
 44  5  1  0  0  0  0 
 44 39  1  0  0  0  0 
 39 40  1  0  0  0  0 
 40 41  1  0  0  0  0 
 41 42  1  0  0  0  0 
 41 43  2  0  0  0  0 
 44 38  1  0  0  0  0 
 38 45  2  0  0  0  0 
 51  6  1  0  0  0  0 
 51 47  1  0  0  0  0 
 47 48  1  0  0  0  0 
 48 49  1  0  0  0  0 
 48 50  2  0  0  0  0 
 51 46  1  0  0  0  0 
 46 52  2  0  0  0  0 
 56  7  1  0  0  0  0 
 56 55  1  0  0  0  0 
 55 54  1  0  0  0  0 
 56 53  1  0  0  0  0 
 53 57  2  0  0  0  0 
 63 58  2  0  0  0  0 
 59 58  1  0  0  0  0 
 59 60  1  0  0  0  0 
 60 61  1  0  0  0  0 
 61 62  1  0  0  0  0 
 62  8  1  0  0  0  0 
 59  8  1  0  0  0  0 
 68 69  1  0  0  0  0 
 69 65  1  0  0  0  0 
 65 66  1  0  0  0  0 
 66 67  1  0  0  0  0 
 67  9  1  0  0  0  0 
 67 64  1  0  0  0  0 
 64 70  2  0  0  0  0 
 10 72  1  0  0  0  0 
 72 71  1  0  0  0  0 
 71 73  2  0  0  0  0 
  2 74  1  0  0  0  0 
  3 75  1  0  0  0  0 
  4 76  1  0  0  0  0 
  5 77  1  0  0  0  0 
  6 78  1  0  0  0  0 
  7 79  1  0  0  0  0 
  9 80  1  0  0  0  0 
 10 81  1  0  0  0  0 
 11 82  1  0  0  0  0 
 11 83  1  0  0  0  0 
 14 84  1  0  0  0  0 
 14 85  1  0  0  0  0 
 15 86  1  0  0  0  0 
 18 87  1  0  0  0  0 
 18 88  1  0  0  0  0 
 20 89  1  0  0  0  0 
 21 90  1  0  0  0  0 
 23 91  1  0  0  0  0 
 24 92  1  0  0  0  0 
 25 93  1  0  0  0  0 
 26 94  1  0  0  0  0 
 29 95  1  0  0  0  0 
 29 96  1  0  0  0  0 
 31 97  1  0  0  0  0 
 32 98  1  0  0  0  0 
 33 99  1  0  0  0  0 
 34100  1  0  0  0  0 
 35101  1  0  0  0  0 
 36102  1  0  0  0  0 
 39103  1  0  0  0  0 
 39104  1  0  0  0  0 
 40105  1  0  0  0  0 
 40106  1  0  0  0  0 
 42107  1  0  0  0  0 
 42108  1  0  0  0  0 
 44109  1  0  0  0  0 
 47110  1  0  0  0  0 
 47111  1  0  0  0  0 
 49112  1  0  0  0  0 
 49113  1  0  0  0  0 
 51114  1  0  0  0  0 
 55115  1  0  0  0  0 
 55116  1  0  0  0  0 
 56117  1  0  0  0  0 
 59118  1  0  0  0  0 
 60119  1  0  0  0  0 
 60120  1  0  0  0  0 
 61121  1  0  0  0  0 
 61122  1  0  0  0  0 
 62123  1  0  0  0  0 
 62124  1  0  0  0  0 
 65125  1  0  0  0  0 
 65126  1  0  0  0  0 
 66127  1  0  0  0  0 
 66128  1  0  0  0  0 
 67129  1  0  0  0  0 
 68130  1  0  0  0  0 
 68131  1  0  0  0  0 
 69132  1  0  0  0  0 
 69133  1  0  0  0  0 
 72134  1  0  0  0  0 
 72135  1  0  0  0  0 
M  END
> <cdk:Title>
ornipressin

> <Conformer>
1

> <SuperDrugID>
SD003710

$$$$
