cetotiamine
  CDK     0628171801

 55 55  0  0  0  0  0  0  0  0999 V2000
   -1.7397   -2.0032    4.5257 C   0  0  2  0  0  0  0  0  0  0  0  0
   -1.3146   -1.5319    3.2159 N   0  0  0  0  0  0  0  0  0  0  0  0
   -2.8791   -2.9705    4.5445 C   0  0  0  0  0  0  0  0  0  0  0  0
    0.0111   -1.3520    2.9860 C   0  0  0  0  0  0  0  0  0  0  0  0
   -2.2284   -1.2044    2.2349 C   0  0  0  0  0  0  0  0  0  0  0  0
   -4.0561   -2.7950    5.3214 C   0  0  0  0  0  0  0  0  0  0  0  0
   -2.8170   -4.1470    3.7627 C   0  0  0  0  0  0  0  0  0  0  0  0
    0.6176   -0.1692    3.2771 C   0  0  0  0  0  0  0  0  0  0  0  0
    0.7219   -2.4945    2.4163 C   0  0  0  0  0  0  0  0  0  0  0  0
   -1.8968   -0.7887    1.0994 O   0  0  0  0  0  0  0  0  0  0  0  0
   -4.2710   -1.7536    6.1512 N   0  0  0  0  0  0  0  0  0  0  0  0
   -5.0475   -3.7208    5.2700 N   0  0  0  0  0  0  0  0  0  0  0  0
   -3.8429   -5.0325    3.7549 N   0  0  0  0  0  0  0  0  0  0  0  0
   -0.3239    1.1359    3.9589 S   0  0  0  0  0  0  0  0  0  0  0  0
    2.0350    0.1496    3.0319 C   0  0  1  0  0  0  0  0  0  0  0  0
   -4.9595   -4.8340    4.4996 C   0  0  0  0  0  0  0  0  0  0  0  0
   -0.7073    2.2357    2.6497 C   0  0  0  0  0  0  0  0  0  0  0  0
    2.8633    0.5064    4.2952 C   0  0  1  0  0  0  0  0  0  0  0  0
   -6.0559   -5.8141    4.4984 C   0  0  0  0  0  0  0  0  0  0  0  0
   -0.2622    1.9769    1.3894 O   0  0  0  0  0  0  0  0  0  0  0  0
   -1.3973    3.2452    2.9163 O   0  0  0  0  0  0  0  0  0  0  0  0
    4.0840    1.1283    3.8715 O   0  0  0  0  0  0  0  0  0  0  0  0
   -0.5094    2.7718    0.2260 C   0  0  2  0  0  0  0  0  0  0  0  0
    5.0155    1.7275    4.6620 C   0  0  0  0  0  0  0  0  0  0  0  0
    0.1867    2.1349   -0.9881 C   0  0  0  0  0  0  0  0  0  0  0  0
    6.0568    2.3307    4.0215 O   0  0  0  0  0  0  0  0  0  0  0  0
    4.9000    1.7486    5.9103 O   0  0  0  0  0  0  0  0  0  0  0  0
    7.1410    3.0737    4.5969 C   0  0  2  0  0  0  0  0  0  0  0  0
    7.0881    4.5286    4.0973 C   0  0  0  0  0  0  0  0  0  0  0  0
   -1.9753   -1.1183    5.1182 H   0  0  0  0  0  0  0  0  0  0  0  0
   -0.9117   -2.4980    5.0450 H   0  0  0  0  0  0  0  0  0  0  0  0
   -3.2307   -1.2945    2.4139 H   0  0  0  0  0  0  0  0  0  0  0  0
   -1.9987   -4.3514    3.1899 H   0  0  0  0  0  0  0  0  0  0  0  0
    0.0627   -3.3466    2.2421 H   0  0  0  0  0  0  0  0  0  0  0  0
    1.1629   -2.2250    1.4551 H   0  0  0  0  0  0  0  0  0  0  0  0
    1.5087   -2.8209    3.0992 H   0  0  0  0  0  0  0  0  0  0  0  0
   -5.1002   -1.7033    6.6548 H   0  0  0  0  0  0  0  0  0  0  0  0
   -3.6077   -1.0557    6.2580 H   0  0  0  0  0  0  0  0  0  0  0  0
    2.5709   -0.6520    2.5226 H   0  0  0  0  0  0  0  0  0  0  0  0
    2.0692    1.0012    2.3495 H   0  0  0  0  0  0  0  0  0  0  0  0
    2.3244    1.2109    4.9340 H   0  0  0  0  0  0  0  0  0  0  0  0
    3.0827   -0.3943    4.8743 H   0  0  0  0  0  0  0  0  0  0  0  0
   -6.9779   -5.3418    4.1540 H   0  0  0  0  0  0  0  0  0  0  0  0
   -5.8315   -6.6596    3.8440 H   0  0  0  0  0  0  0  0  0  0  0  0
   -6.2050   -6.1883    5.5126 H   0  0  0  0  0  0  0  0  0  0  0  0
   -0.1255    3.7842    0.3776 H   0  0  0  0  0  0  0  0  0  0  0  0
   -1.5845    2.8245    0.0407 H   0  0  0  0  0  0  0  0  0  0  0  0
    1.2655    2.1022   -0.8274 H   0  0  0  0  0  0  0  0  0  0  0  0
   -0.0196    2.7241   -1.8830 H   0  0  0  0  0  0  0  0  0  0  0  0
   -0.1807    1.1188   -1.1419 H   0  0  0  0  0  0  0  0  0  0  0  0
    8.0785    2.6148    4.2782 H   0  0  0  0  0  0  0  0  0  0  0  0
    7.1096    3.0651    5.6897 H   0  0  0  0  0  0  0  0  0  0  0  0
    6.1627    5.0047    4.4286 H   0  0  0  0  0  0  0  0  0  0  0  0
    7.9356    5.0911    4.4930 H   0  0  0  0  0  0  0  0  0  0  0  0
    7.1266    4.5545    3.0061 H   0  0  0  0  0  0  0  0  0  0  0  0
  1  2  1  0  0  0  0 
  1  3  1  0  0  0  0 
  2  4  1  0  0  0  0 
  2  5  1  0  0  0  0 
  3  6  2  0  0  0  0 
  3  7  1  0  0  0  0 
  4  8  2  0  0  0  0 
  4  9  1  0  0  0  0 
  5 10  2  0  0  0  0 
  6 11  1  0  0  0  0 
  6 12  1  0  0  0  0 
  7 13  2  0  0  0  0 
  8 14  1  0  0  0  0 
  8 15  1  0  0  0  0 
 12 16  2  0  0  0  0 
 13 16  1  0  0  0  0 
 14 17  1  0  0  0  0 
 15 18  1  0  0  0  0 
 16 19  1  0  0  0  0 
 17 20  1  0  0  0  0 
 17 21  2  0  0  0  0 
 18 22  1  0  0  0  0 
 20 23  1  0  0  0  0 
 22 24  1  0  0  0  0 
 23 25  1  0  0  0  0 
 24 26  1  0  0  0  0 
 24 27  2  0  0  0  0 
 26 28  1  0  0  0  0 
 28 29  1  0  0  0  0 
  1 30  1  0  0  0  0 
  1 31  1  0  0  0  0 
  5 32  1  0  0  0  0 
  7 33  1  0  0  0  0 
  9 34  1  0  0  0  0 
  9 35  1  0  0  0  0 
  9 36  1  0  0  0  0 
 11 37  1  0  0  0  0 
 11 38  1  0  0  0  0 
 15 39  1  0  0  0  0 
 15 40  1  0  0  0  0 
 18 41  1  0  0  0  0 
 18 42  1  0  0  0  0 
 19 43  1  0  0  0  0 
 19 44  1  0  0  0  0 
 19 45  1  0  0  0  0 
 23 46  1  0  0  0  0 
 23 47  1  0  0  0  0 
 25 48  1  0  0  0  0 
 25 49  1  0  0  0  0 
 25 50  1  0  0  0  0 
 28 51  1  0  0  0  0 
 28 52  1  0  0  0  0 
 29 53  1  0  0  0  0 
 29 54  1  0  0  0  0 
 29 55  1  0  0  0  0 
M  END
> <cdk:Title>
cetotiamine

> <Conformer>
1

> <SuperDrugID>
SD002676

$$$$
