gatifloxacin
  CDK     0628171801

 49 52  0  0  0  0  0  0  0  0999 V2000
    4.3177    0.5537   -1.3690 O   0  0  0  0  0  0  0  0  0  0  0  0
    5.1075    0.0114   -0.2927 C   0  0  0  0  0  0  0  0  0  0  0  0
    3.7623   -0.4166   -2.1639 C   0  0  0  0  0  0  0  0  0  0  0  0
    4.4764   -0.9869   -3.2639 C   0  0  0  0  0  0  0  0  0  0  0  0
    2.4565   -0.8529   -1.8252 C   0  0  0  0  0  0  0  0  0  0  0  0
    5.6585   -0.4750   -3.7694 N   0  0  0  0  0  0  0  0  0  0  0  0
    3.9302   -2.1602   -3.8683 C   0  0  0  0  0  0  0  0  0  0  0  0
    1.8884   -1.9286   -2.5378 C   0  0  0  0  0  0  0  0  0  0  0  0
    1.7343   -0.2574   -0.8136 N   0  0  0  0  0  0  0  0  0  0  0  0
    6.4273   -1.2100   -4.6336 C   0  0  0  0  0  0  0  0  0  0  0  0
    6.1424    0.8526   -3.4500 C   0  0  1  0  0  0  0  0  0  0  0  0
    4.7001   -2.8756   -4.8182 C   0  0  0  0  0  0  0  0  0  0  0  0
    2.6317   -2.5975   -3.5166 C   0  0  0  0  0  0  0  0  0  0  0  0
    0.6680   -2.3334   -2.2994 F   0  0  0  0  0  0  0  0  0  0  0  0
    1.3051    1.1221   -0.9169 C   0  0  2  0  0  0  0  0  0  0  0  0
    1.3239   -1.0284    0.3413 C   0  0  1  0  0  0  0  0  0  0  0  0
    5.9991   -2.4431   -5.1744 C   0  0  0  0  0  0  0  0  0  0  0  0
    6.4852    1.8357   -4.5912 C   0  0  2  0  0  0  0  0  0  0  0  0
    5.2134    2.0448   -3.7710 C   0  0  1  0  0  0  0  0  0  0  0  0
    4.2247   -3.9172   -5.3343 O   0  0  0  0  0  0  0  0  0  0  0  0
    1.5338    1.8945    0.4173 C   0  0  1  0  0  0  0  0  0  0  0  0
    1.5554   -0.2463    1.6555 C   0  0  2  0  0  0  0  0  0  0  0  0
    6.8510   -3.1902   -6.0464 C   0  0  0  0  0  0  0  0  0  0  0  0
    0.8657    3.2897    0.4110 C   0  0  0  0  0  0  0  0  0  0  0  0
    0.9828    1.1139    1.5546 N   0  0  1  0  0  0  0  0  0  0  0  0
    6.4988   -4.3919   -6.5652 O   0  0  0  0  0  0  0  0  0  0  0  0
    7.9851   -2.7783   -6.3817 O   0  0  0  0  0  0  0  0  0  0  0  0
    5.5137    0.8435    0.2835 H   0  0  0  0  0  0  0  0  0  0  0  0
    4.5035   -0.6038    0.3769 H   0  0  0  0  0  0  0  0  0  0  0  0
    5.9432   -0.5849   -0.6684 H   0  0  0  0  0  0  0  0  0  0  0  0
    7.3457   -0.8497   -4.9134 H   0  0  0  0  0  0  0  0  0  0  0  0
    6.7631    0.9744   -2.5618 H   0  0  0  0  0  0  0  0  0  0  0  0
    2.2079   -3.4095   -3.9745 H   0  0  0  0  0  0  0  0  0  0  0  0
    0.2375    1.1153   -1.1499 H   0  0  0  0  0  0  0  0  0  0  0  0
    1.8135    1.6551   -1.7290 H   0  0  0  0  0  0  0  0  0  0  0  0
    0.2581   -1.2557    0.2510 H   0  0  0  0  0  0  0  0  0  0  0  0
    1.8614   -1.9792    0.4069 H   0  0  0  0  0  0  0  0  0  0  0  0
    6.3129    1.5092   -5.6195 H   0  0  0  0  0  0  0  0  0  0  0  0
    7.2819    2.5537   -4.3858 H   0  0  0  0  0  0  0  0  0  0  0  0
    4.2779    1.8133   -4.2884 H   0  0  0  0  0  0  0  0  0  0  0  0
    5.2426    2.8942   -3.0836 H   0  0  0  0  0  0  0  0  0  0  0  0
    2.6115    2.0361    0.5682 H   0  0  0  0  0  0  0  0  0  0  0  0
    2.6237   -0.1832    1.8755 H   0  0  0  0  0  0  0  0  0  0  0  0
    1.0709   -0.7695    2.4821 H   0  0  0  0  0  0  0  0  0  0  0  0
   -0.2080    3.2047    0.2344 H   0  0  0  0  0  0  0  0  0  0  0  0
    1.0195    3.7817    1.3729 H   0  0  0  0  0  0  0  0  0  0  0  0
    1.3034    3.9111   -0.3706 H   0  0  0  0  0  0  0  0  0  0  0  0
    1.2294    1.6066    2.4157 H   0  0  0  0  0  0  0  0  0  0  0  0
    7.1056   -4.8713   -7.1675 H   0  0  0  0  0  0  0  0  0  0  0  0
  1  2  1  0  0  0  0 
  1  3  1  0  0  0  0 
  3  4  2  0  0  0  0 
  3  5  1  0  0  0  0 
  4  6  1  0  0  0  0 
  4  7  1  0  0  0  0 
  5  8  2  0  0  0  0 
  5  9  1  0  0  0  0 
  6 10  1  0  0  0  0 
  6 11  1  0  0  0  0 
  7 12  1  0  0  0  0 
  7 13  2  0  0  0  0 
  8 13  1  0  0  0  0 
  8 14  1  0  0  0  0 
  9 15  1  0  0  0  0 
  9 16  1  0  0  0  0 
 10 17  2  0  0  0  0 
 11 18  1  0  0  0  0 
 11 19  1  0  0  0  0 
 12 17  1  0  0  0  0 
 12 20  2  0  0  0  0 
 15 21  1  0  0  0  0 
 16 22  1  0  0  0  0 
 17 23  1  0  0  0  0 
 18 19  1  0  0  0  0 
 21 24  1  0  0  0  0 
 21 25  1  0  0  0  0 
 22 25  1  0  0  0  0 
 23 26  1  0  0  0  0 
 23 27  2  0  0  0  0 
  2 28  1  0  0  0  0 
  2 29  1  0  0  0  0 
  2 30  1  0  0  0  0 
 10 31  1  0  0  0  0 
 11 32  1  0  0  0  0 
 13 33  1  0  0  0  0 
 15 34  1  0  0  0  0 
 15 35  1  0  0  0  0 
 16 36  1  0  0  0  0 
 16 37  1  0  0  0  0 
 18 38  1  0  0  0  0 
 18 39  1  0  0  0  0 
 19 40  1  0  0  0  0 
 19 41  1  0  0  0  0 
 21 42  1  0  0  0  0 
 22 43  1  0  0  0  0 
 22 44  1  0  0  0  0 
 24 45  1  0  0  0  0 
 24 46  1  0  0  0  0 
 24 47  1  0  0  0  0 
 25 48  1  0  0  0  0 
 26 49  1  0  0  0  0 
M  END
> <cdk:Title>
gatifloxacin

> <Conformer>
1

> <SuperDrugID>
SD001141

$$$$
