amcinonide
  CDK     0628171801

 71 76  0  0  0  0  0  0  0  0999 V2000
   -3.5786   -3.6527    1.4993 C   0  0  0  0  0  0  0  0  0  0  0  0
   -4.4463   -2.5522    1.9777 C   0  0  1  0  0  0  0  0  0  0  0  0
   -2.5766   -3.9066    2.2105 O   0  0  0  0  0  0  0  0  0  0  0  0
   -3.7391   -4.4368    0.2261 C   0  0  2  0  0  0  0  0  0  0  0  0
   -5.4056   -3.0553    2.9183 O   0  0  0  0  0  0  0  0  0  0  0  0
   -2.7643   -4.0057   -0.9499 C   0  0  2  0  0  0  0  0  0  0  0  0
   -5.1521   -4.5220   -0.4390 C   0  0  1  0  0  0  0  0  0  0  0  0
   -3.4937   -5.7928    0.6254 O   0  0  0  0  0  0  0  0  0  0  0  0
   -6.7668   -2.9577    2.8751 C   0  0  0  0  0  0  0  0  0  0  0  0
   -2.6178   -2.4306   -0.9685 C   0  0  0  0  0  0  0  0  0  0  0  0
   -3.5094   -4.5847   -2.1977 C   0  0  1  0  0  0  0  0  0  0  0  0
   -1.3428   -4.6741   -0.9422 C   0  0  1  0  0  0  0  0  0  0  0  0
   -4.9803   -4.1920   -1.9460 C   0  0  2  0  0  0  0  0  0  0  0  0
   -5.5885   -5.8835   -0.3350 O   0  0  0  0  0  0  0  0  0  0  0  0
   -4.7318   -6.5092    0.6185 C   0  0  2  0  0  0  0  0  0  0  0  0
   -7.5419   -3.5478    3.9724 C   0  0  0  0  0  0  0  0  0  0  0  0
   -7.3632   -2.3672    1.9444 O   0  0  0  0  0  0  0  0  0  0  0  0
   -2.8121   -4.2578   -3.5640 C   0  0  1  0  0  0  0  0  0  0  0  0
   -0.5405   -4.5073   -2.2798 C   0  0  1  0  0  0  0  0  0  0  0  0
   -5.4033   -6.6206    2.0048 C   0  0  2  0  0  0  0  0  0  0  0  0
   -4.4242   -7.9813    0.2781 C   0  0  2  0  0  0  0  0  0  0  0  0
   -1.3482   -4.8726   -3.5942 C   0  0  1  0  0  0  0  0  0  0  0  0
   -3.6460   -4.7561   -4.7834 C   0  0  1  0  0  0  0  0  0  0  0  0
    0.0169   -3.1993   -2.3261 O   0  0  0  0  0  0  0  0  0  0  0  0
   -4.6471   -7.7481    2.7278 C   0  0  2  0  0  0  0  0  0  0  0  0
   -4.0287   -8.6296    1.6205 C   0  0  2  0  0  0  0  0  0  0  0  0
   -1.4933   -6.2542   -3.5184 F   0  0  0  0  0  0  0  0  0  0  0  0
   -0.6147   -4.5982   -4.9934 C   0  0  2  0  0  0  0  0  0  0  0  0
   -2.9137   -4.5017   -6.1237 C   0  0  2  0  0  0  0  0  0  0  0  0
   -0.2419   -3.0922   -5.2571 C   0  0  0  0  0  0  0  0  0  0  0  0
   -1.5378   -5.0200   -6.1028 C   0  0  0  0  0  0  0  0  0  0  0  0
    0.6838   -5.3211   -5.0436 C   0  0  0  0  0  0  0  0  0  0  0  0
   -1.1253   -5.8683   -7.0734 C   0  0  0  0  0  0  0  0  0  0  0  0
    1.0262   -6.1559   -6.0374 C   0  0  0  0  0  0  0  0  0  0  0  0
    0.1537   -6.4029   -7.0788 C   0  0  0  0  0  0  0  0  0  0  0  0
    0.5230   -7.1249   -8.0354 O   0  0  0  0  0  0  0  0  0  0  0  0
   -3.8258   -1.8190    2.5015 H   0  0  0  0  0  0  0  0  0  0  0  0
   -4.9181   -2.0267    1.1456 H   0  0  0  0  0  0  0  0  0  0  0  0
   -5.9026   -3.8687    0.0105 H   0  0  0  0  0  0  0  0  0  0  0  0
   -3.5886   -1.9360   -0.9363 H   0  0  0  0  0  0  0  0  0  0  0  0
   -2.0450   -2.0920   -0.1022 H   0  0  0  0  0  0  0  0  0  0  0  0
   -2.1075   -2.0572   -1.8517 H   0  0  0  0  0  0  0  0  0  0  0  0
   -3.5007   -5.6832   -2.1398 H   0  0  0  0  0  0  0  0  0  0  0  0
   -0.7576   -4.2738   -0.1095 H   0  0  0  0  0  0  0  0  0  0  0  0
   -1.4438   -5.7492   -0.7580 H   0  0  0  0  0  0  0  0  0  0  0  0
   -5.1538   -3.1305   -2.1397 H   0  0  0  0  0  0  0  0  0  0  0  0
   -5.6666   -4.7718   -2.5689 H   0  0  0  0  0  0  0  0  0  0  0  0
   -7.2621   -3.0676    4.9103 H   0  0  0  0  0  0  0  0  0  0  0  0
   -8.6130   -3.4122    3.8141 H   0  0  0  0  0  0  0  0  0  0  0  0
   -7.3346   -4.6172    4.0328 H   0  0  0  0  0  0  0  0  0  0  0  0
   -2.7599   -3.1734   -3.6672 H   0  0  0  0  0  0  0  0  0  0  0  0
    0.3191   -5.1770   -2.1991 H   0  0  0  0  0  0  0  0  0  0  0  0
   -6.4545   -6.8991    1.8820 H   0  0  0  0  0  0  0  0  0  0  0  0
   -5.3537   -5.6901    2.5662 H   0  0  0  0  0  0  0  0  0  0  0  0
   -3.6198   -8.0693   -0.4567 H   0  0  0  0  0  0  0  0  0  0  0  0
   -5.3178   -8.4677   -0.1199 H   0  0  0  0  0  0  0  0  0  0  0  0
   -3.8565   -5.8254   -4.6826 H   0  0  0  0  0  0  0  0  0  0  0  0
   -4.6045   -4.2292   -4.8125 H   0  0  0  0  0  0  0  0  0  0  0  0
    0.5935   -3.1396   -1.5361 H   0  0  0  0  0  0  0  0  0  0  0  0
   -5.3278   -8.3231    3.3610 H   0  0  0  0  0  0  0  0  0  0  0  0
   -3.8583   -7.3228    3.3551 H   0  0  0  0  0  0  0  0  0  0  0  0
   -2.9400   -8.6494    1.7229 H   0  0  0  0  0  0  0  0  0  0  0  0
   -4.4028   -9.6545    1.6767 H   0  0  0  0  0  0  0  0  0  0  0  0
   -2.8891   -3.4277   -6.3200 H   0  0  0  0  0  0  0  0  0  0  0  0
   -3.5198   -4.9497   -6.9174 H   0  0  0  0  0  0  0  0  0  0  0  0
    0.0384   -2.9369   -6.3040 H   0  0  0  0  0  0  0  0  0  0  0  0
    0.6096   -2.7622   -4.6592 H   0  0  0  0  0  0  0  0  0  0  0  0
   -1.0724   -2.4227   -5.0369 H   0  0  0  0  0  0  0  0  0  0  0  0
    1.3495   -5.1759   -4.3198 H   0  0  0  0  0  0  0  0  0  0  0  0
   -1.7412   -6.1305   -7.8102 H   0  0  0  0  0  0  0  0  0  0  0  0
    1.9178   -6.5962   -6.0237 H   0  0  0  0  0  0  0  0  0  0  0  0
  1  2  1  0  0  0  0 
  1  3  2  0  0  0  0 
  2  5  1  0  0  0  0 
  4  1  1  0  0  0  0 
  6  4  1  0  0  0  0 
  4  7  1  0  0  0  0 
  4  8  1  0  0  0  0 
  5  9  1  0  0  0  0 
  6 10  1  0  0  0  0 
 11  6  1  0  0  0  0 
  6 12  1  0  0  0  0 
  7 13  1  0  0  0  0 
  7 14  1  0  0  0  0 
  8 15  1  0  0  0  0 
  9 16  1  0  0  0  0 
  9 17  2  0  0  0  0 
 11 13  1  0  0  0  0 
 18 11  1  0  0  0  0 
 19 12  1  0  0  0  0 
 14 15  1  0  0  0  0 
 15 20  1  0  0  0  0 
 15 21  1  0  0  0  0 
 22 18  1  0  0  0  0 
 18 23  1  0  0  0  0 
 22 19  1  0  0  0  0 
 19 24  1  0  0  0  0 
 20 25  1  0  0  0  0 
 21 26  1  0  0  0  0 
 22 27  1  0  0  0  0 
 22 28  1  0  0  0  0 
 23 29  1  0  0  0  0 
 25 26  1  0  0  0  0 
 28 30  1  0  0  0  0 
 28 31  1  0  0  0  0 
 28 32  1  0  0  0  0 
 29 31  1  0  0  0  0 
 31 33  2  0  0  0  0 
 32 34  2  0  0  0  0 
 33 35  1  0  0  0  0 
 34 35  1  0  0  0  0 
 35 36  2  0  0  0  0 
 37  2  1  0  0  0  0 
 38  2  1  0  0  0  0 
  7 39  1  0  0  0  0 
 40 10  1  0  0  0  0 
 41 10  1  0  0  0  0 
 42 10  1  0  0  0  0 
 11 43  1  0  0  0  0 
 44 12  1  0  0  0  0 
 45 12  1  0  0  0  0 
 46 13  1  0  0  0  0 
 47 13  1  0  0  0  0 
 48 16  1  0  0  0  0 
 49 16  1  0  0  0  0 
 50 16  1  0  0  0  0 
 18 51  1  0  0  0  0 
 19 52  1  0  0  0  0 
 53 20  1  0  0  0  0 
 54 20  1  0  0  0  0 
 55 21  1  0  0  0  0 
 56 21  1  0  0  0  0 
 57 23  1  0  0  0  0 
 58 23  1  0  0  0  0 
 59 24  1  0  0  0  0 
 60 25  1  0  0  0  0 
 61 25  1  0  0  0  0 
 62 26  1  0  0  0  0 
 63 26  1  0  0  0  0 
 64 29  1  0  0  0  0 
 65 29  1  0  0  0  0 
 66 30  1  0  0  0  0 
 67 30  1  0  0  0  0 
 68 30  1  0  0  0  0 
 69 32  1  0  0  0  0 
 70 33  1  0  0  0  0 
 71 34  1  0  0  0  0 
M  END
> <cdk:Title>
amcinonide

> <Conformer>
1

> <SuperDrugID>
SD000119

$$$$
