fenclofenac
  CDK     0628171801

 29 30  0  0  0  0  0  0  0  0999 V2000
    0.4819    1.7051   -0.6016 O   0  0  0  0  0  0  0  0  0  0  0  0
    1.5786    0.8658   -0.6172 C   0  0  0  0  0  0  0  0  0  0  0  0
   -0.6198    1.1637    0.0349 C   0  0  0  0  0  0  0  0  0  0  0  0
    2.6055    0.9268    0.3707 C   0  0  0  0  0  0  0  0  0  0  0  0
    1.6970   -0.0663   -1.6741 C   0  0  0  0  0  0  0  0  0  0  0  0
   -1.6546    0.4983   -0.6742 C   0  0  0  0  0  0  0  0  0  0  0  0
   -0.7687    1.3276    1.4322 C   0  0  0  0  0  0  0  0  0  0  0  0
    2.6270    1.9654    1.4435 C   0  0  1  0  0  0  0  0  0  0  0  0
    3.6366   -0.0487    0.3393 C   0  0  0  0  0  0  0  0  0  0  0  0
    2.7372   -1.0080   -1.7011 C   0  0  0  0  0  0  0  0  0  0  0  0
   -1.6694    0.3968   -2.3656 Cl  0  0  0  0  0  0  0  0  0  0  0  0
   -2.7430   -0.0707    0.0203 C   0  0  0  0  0  0  0  0  0  0  0  0
   -1.8620    0.7772    2.1211 C   0  0  0  0  0  0  0  0  0  0  0  0
    3.9322    2.6294    1.6157 C   0  0  0  0  0  0  0  0  0  0  0  0
    3.7027   -1.0065   -0.6857 C   0  0  0  0  0  0  0  0  0  0  0  0
   -2.8472    0.0647    1.4167 C   0  0  0  0  0  0  0  0  0  0  0  0
    4.6712    2.3986    2.7260 O   0  0  0  0  0  0  0  0  0  0  0  0
    4.3786    3.4045    0.7404 O   0  0  0  0  0  0  0  0  0  0  0  0
   -4.1660   -0.6000    2.2444 Cl  0  0  0  0  0  0  0  0  0  0  0  0
    1.0241   -0.0684   -2.4383 H   0  0  0  0  0  0  0  0  0  0  0  0
   -0.0874    1.8590    1.9692 H   0  0  0  0  0  0  0  0  0  0  0  0
    1.9047    2.7610    1.2496 H   0  0  0  0  0  0  0  0  0  0  0  0
    2.3504    1.4828    2.3847 H   0  0  0  0  0  0  0  0  0  0  0  0
    4.3618   -0.0618    1.0609 H   0  0  0  0  0  0  0  0  0  0  0  0
    2.7918   -1.6919   -2.4592 H   0  0  0  0  0  0  0  0  0  0  0  0
   -3.4709   -0.5749   -0.4938 H   0  0  0  0  0  0  0  0  0  0  0  0
   -1.9366    0.9029    3.1340 H   0  0  0  0  0  0  0  0  0  0  0  0
    4.4598   -1.6932   -0.6992 H   0  0  0  0  0  0  0  0  0  0  0  0
    5.5550    2.8087    2.8287 H   0  0  0  0  0  0  0  0  0  0  0  0
  1  2  1  0  0  0  0 
  1  3  1  0  0  0  0 
  2  4  2  0  0  0  0 
  2  5  1  0  0  0  0 
  3  6  2  0  0  0  0 
  3  7  1  0  0  0  0 
  4  8  1  0  0  0  0 
  4  9  1  0  0  0  0 
  5 10  2  0  0  0  0 
  6 11  1  0  0  0  0 
  6 12  1  0  0  0  0 
  7 13  2  0  0  0  0 
  8 14  1  0  0  0  0 
  9 15  2  0  0  0  0 
 10 15  1  0  0  0  0 
 12 16  2  0  0  0  0 
 13 16  1  0  0  0  0 
 14 17  1  0  0  0  0 
 14 18  2  0  0  0  0 
 16 19  1  0  0  0  0 
  5 20  1  0  0  0  0 
  7 21  1  0  0  0  0 
  8 22  1  0  0  0  0 
  8 23  1  0  0  0  0 
  9 24  1  0  0  0  0 
 10 25  1  0  0  0  0 
 12 26  1  0  0  0  0 
 13 27  1  0  0  0  0 
 15 28  1  0  0  0  0 
 17 29  1  0  0  0  0 
M  END
> <cdk:Title>
fenclofenac

> <Conformer>
1

> <SuperDrugID>
SD001024

$$$$
