tetraethylphthalamide
  CDK     0628171801

 44 44  0  0  0  0  0  0  0  0999 V2000
    0.5244   -0.1085    0.5043 C   0  0  0  0  0  0  0  0  0  0  0  0
   -0.4159    0.0340   -0.5123 N   0  0  0  0  0  0  0  0  0  0  0  0
    0.5128    0.6586    1.4965 O   0  0  0  0  0  0  0  0  0  0  0  0
    1.6046   -1.0280    0.4948 C   0  0  0  0  0  0  0  0  0  0  0  0
   -1.3169    1.1789   -0.5196 C   0  0  1  0  0  0  0  0  0  0  0  0
   -0.5171   -0.9224   -1.6026 C   0  0  1  0  0  0  0  0  0  0  0  0
    1.5288   -2.3484    1.0254 C   0  0  0  0  0  0  0  0  0  0  0  0
    2.8269   -0.5710   -0.0554 C   0  0  0  0  0  0  0  0  0  0  0  0
   -2.5793    0.9559    0.3412 C   0  0  0  0  0  0  0  0  0  0  0  0
    0.5397   -0.7101   -2.7104 C   0  0  0  0  0  0  0  0  0  0  0  0
    0.3435   -2.8871    1.5893 C   0  0  0  0  0  0  0  0  0  0  0  0
    2.6739   -3.1784    0.9717 C   0  0  0  0  0  0  0  0  0  0  0  0
    3.9555   -1.4063   -0.0925 C   0  0  0  0  0  0  0  0  0  0  0  0
   -0.0646   -2.7319    2.9121 N   0  0  0  0  0  0  0  0  0  0  0  0
   -0.3333   -3.5775    0.7895 O   0  0  0  0  0  0  0  0  0  0  0  0
    3.8814   -2.7088    0.4258 C   0  0  0  0  0  0  0  0  0  0  0  0
    0.6939   -1.9529    3.8762 C   0  0  2  0  0  0  0  0  0  0  0  0
   -1.3005   -3.3472    3.3704 C   0  0  2  0  0  0  0  0  0  0  0  0
    1.6782   -2.8203    4.6933 C   0  0  0  0  0  0  0  0  0  0  0  0
   -2.5204   -2.4392    3.1000 C   0  0  0  0  0  0  0  0  0  0  0  0
   -0.8016    2.0763   -0.1647 H   0  0  0  0  0  0  0  0  0  0  0  0
   -1.6349    1.4157   -1.5405 H   0  0  0  0  0  0  0  0  0  0  0  0
   -0.4366   -1.9423   -1.2262 H   0  0  0  0  0  0  0  0  0  0  0  0
   -1.5039   -0.8622   -2.0711 H   0  0  0  0  0  0  0  0  0  0  0  0
    2.9066    0.3760   -0.4387 H   0  0  0  0  0  0  0  0  0  0  0  0
   -3.1983    1.8550    0.3248 H   0  0  0  0  0  0  0  0  0  0  0  0
   -3.1677    0.1251   -0.0525 H   0  0  0  0  0  0  0  0  0  0  0  0
   -2.2995    0.7437    1.3748 H   0  0  0  0  0  0  0  0  0  0  0  0
    0.1754   -1.1269   -3.6517 H   0  0  0  0  0  0  0  0  0  0  0  0
    0.7380    0.3533   -2.8526 H   0  0  0  0  0  0  0  0  0  0  0  0
    1.4710   -1.2143   -2.4550 H   0  0  0  0  0  0  0  0  0  0  0  0
    2.6398   -4.1351    1.3326 H   0  0  0  0  0  0  0  0  0  0  0  0
    4.8280   -1.0678   -0.5022 H   0  0  0  0  0  0  0  0  0  0  0  0
    4.7043   -3.3148    0.4021 H   0  0  0  0  0  0  0  0  0  0  0  0
    0.0174   -1.4539    4.5772 H   0  0  0  0  0  0  0  0  0  0  0  0
    1.2590   -1.1518    3.3987 H   0  0  0  0  0  0  0  0  0  0  0  0
   -1.2615   -3.5541    4.4442 H   0  0  0  0  0  0  0  0  0  0  0  0
   -1.4647   -4.3168    2.8893 H   0  0  0  0  0  0  0  0  0  0  0  0
    2.2188   -2.1930    5.4054 H   0  0  0  0  0  0  0  0  0  0  0  0
    1.1418   -3.5902    5.2507 H   0  0  0  0  0  0  0  0  0  0  0  0
    2.4029   -3.3000    4.0336 H   0  0  0  0  0  0  0  0  0  0  0  0
   -3.4372   -2.9635    3.3756 H   0  0  0  0  0  0  0  0  0  0  0  0
   -2.4530   -1.5248    3.6934 H   0  0  0  0  0  0  0  0  0  0  0  0
   -2.5696   -2.1749    2.0417 H   0  0  0  0  0  0  0  0  0  0  0  0
  1  2  1  0  0  0  0 
  1  3  2  0  0  0  0 
  1  4  1  0  0  0  0 
  2  5  1  0  0  0  0 
  2  6  1  0  0  0  0 
  4  7  2  0  0  0  0 
  4  8  1  0  0  0  0 
  5  9  1  0  0  0  0 
  6 10  1  0  0  0  0 
  7 11  1  0  0  0  0 
  7 12  1  0  0  0  0 
  8 13  2  0  0  0  0 
 11 14  1  0  0  0  0 
 11 15  2  0  0  0  0 
 12 16  2  0  0  0  0 
 13 16  1  0  0  0  0 
 14 17  1  0  0  0  0 
 14 18  1  0  0  0  0 
 17 19  1  0  0  0  0 
 18 20  1  0  0  0  0 
  5 21  1  0  0  0  0 
  5 22  1  0  0  0  0 
  6 23  1  0  0  0  0 
  6 24  1  0  0  0  0 
  8 25  1  0  0  0  0 
  9 26  1  0  0  0  0 
  9 27  1  0  0  0  0 
  9 28  1  0  0  0  0 
 10 29  1  0  0  0  0 
 10 30  1  0  0  0  0 
 10 31  1  0  0  0  0 
 12 32  1  0  0  0  0 
 13 33  1  0  0  0  0 
 16 34  1  0  0  0  0 
 17 35  1  0  0  0  0 
 17 36  1  0  0  0  0 
 18 37  1  0  0  0  0 
 18 38  1  0  0  0  0 
 19 39  1  0  0  0  0 
 19 40  1  0  0  0  0 
 19 41  1  0  0  0  0 
 20 42  1  0  0  0  0 
 20 43  1  0  0  0  0 
 20 44  1  0  0  0  0 
M  END
> <cdk:Title>
tetraethylphthalamide

> <Conformer>
1

> <SuperDrugID>
SD003081

$$$$
