fosfestrol
  CDK     0628171801

 50 51  0  0  0  0  0  0  0  0999 V2000
    1.1890    2.0473    7.4073 C   0  0  0  0  0  0  0  0  0  0  0  0
    0.7271    2.2596    6.1400 C   0  0  0  0  0  0  0  0  0  0  0  0
    2.5955    2.2484    7.8219 C   0  0  2  0  0  0  0  0  0  0  0  0
    0.3563    1.5773    8.4251 C   0  0  0  0  0  0  0  0  0  0  0  0
   -0.6915    2.1365    5.7438 C   0  0  1  0  0  0  0  0  0  0  0  0
    1.6124    2.5830    5.1027 C   0  0  0  0  0  0  0  0  0  0  0  0
    2.9466    3.7296    8.0955 C   0  0  0  0  0  0  0  0  0  0  0  0
   -0.2205    2.4520    9.3757 C   0  0  0  0  0  0  0  0  0  0  0  0
    0.1237    0.1878    8.5416 C   0  0  0  0  0  0  0  0  0  0  0  0
   -1.0155    0.8382    4.9681 C   0  0  0  0  0  0  0  0  0  0  0  0
    2.4112    1.5723    4.5168 C   0  0  0  0  0  0  0  0  0  0  0  0
    1.7426    3.9107    4.6309 C   0  0  0  0  0  0  0  0  0  0  0  0
   -0.9947    1.9407   10.4340 C   0  0  0  0  0  0  0  0  0  0  0  0
   -0.6645   -0.3165    9.5898 C   0  0  0  0  0  0  0  0  0  0  0  0
    3.3636    1.8920    3.5335 C   0  0  0  0  0  0  0  0  0  0  0  0
    2.7019    4.2296    3.6498 C   0  0  0  0  0  0  0  0  0  0  0  0
   -1.2299    0.5528   10.5441 C   0  0  0  0  0  0  0  0  0  0  0  0
    3.5457    3.2282    3.1251 C   0  0  0  0  0  0  0  0  0  0  0  0
   -1.9348    0.0106   11.5838 O   0  0  0  0  0  0  0  0  0  0  0  0
    4.5161    3.5195    2.2062 O   0  0  0  0  0  0  0  0  0  0  0  0
   -3.5204    0.1558   11.4598 P   0  0  2  0  0  0  0  0  0  0  0  0
    5.8955    3.9663    2.8794 P   0  0  2  0  0  0  0  0  0  0  0  0
   -3.9526    1.5064   11.8347 O   0  0  0  0  0  0  0  0  0  0  0  0
   -4.1666   -0.9082   12.4417 O   0  0  0  0  0  0  0  0  0  0  0  0
   -4.0021   -0.1945    9.9925 O   0  0  0  0  0  0  0  0  0  0  0  0
    5.8001    5.3194    3.4377 O   0  0  0  0  0  0  0  0  0  0  0  0
    7.0020    3.9318    1.7461 O   0  0  0  0  0  0  0  0  0  0  0  0
    6.3223    2.9362    4.0067 O   0  0  0  0  0  0  0  0  0  0  0  0
    3.2864    1.8606    7.0712 H   0  0  0  0  0  0  0  0  0  0  0  0
    2.8279    1.6855    8.7343 H   0  0  0  0  0  0  0  0  0  0  0  0
   -1.3611    2.1754    6.6043 H   0  0  0  0  0  0  0  0  0  0  0  0
   -0.9748    2.9861    5.1170 H   0  0  0  0  0  0  0  0  0  0  0  0
    2.9729    4.3000    7.1708 H   0  0  0  0  0  0  0  0  0  0  0  0
    2.2214    4.1938    8.7642 H   0  0  0  0  0  0  0  0  0  0  0  0
    3.9309    3.7922    8.5608 H   0  0  0  0  0  0  0  0  0  0  0  0
   -0.0754    3.4630    9.3115 H   0  0  0  0  0  0  0  0  0  0  0  0
    0.5364   -0.4675    7.8718 H   0  0  0  0  0  0  0  0  0  0  0  0
   -2.0872    0.7833    4.7687 H   0  0  0  0  0  0  0  0  0  0  0  0
   -0.4916    0.8128    4.0115 H   0  0  0  0  0  0  0  0  0  0  0  0
   -0.7325   -0.0369    5.5537 H   0  0  0  0  0  0  0  0  0  0  0  0
    2.3161    0.5978    4.8159 H   0  0  0  0  0  0  0  0  0  0  0  0
    1.1539    4.6563    5.0126 H   0  0  0  0  0  0  0  0  0  0  0  0
   -1.3845    2.5809   11.1278 H   0  0  0  0  0  0  0  0  0  0  0  0
   -0.8196   -1.3237    9.6621 H   0  0  0  0  0  0  0  0  0  0  0  0
    3.9376    1.1519    3.1250 H   0  0  0  0  0  0  0  0  0  0  0  0
    2.7969    5.1951    3.3267 H   0  0  0  0  0  0  0  0  0  0  0  0
   -3.8258   -1.7719   12.1279 H   0  0  0  0  0  0  0  0  0  0  0  0
   -3.7042   -1.1157    9.8508 H   0  0  0  0  0  0  0  0  0  0  0  0
    6.9651    3.0161    1.3982 H   0  0  0  0  0  0  0  0  0  0  0  0
    6.3432    2.0669    3.5549 H   0  0  0  0  0  0  0  0  0  0  0  0
  1  2  2  0  0  0  0 
  1  3  1  0  0  0  0 
  1  4  1  0  0  0  0 
  2  5  1  0  0  0  0 
  2  6  1  0  0  0  0 
  3  7  1  0  0  0  0 
  4  8  2  0  0  0  0 
  4  9  1  0  0  0  0 
  5 10  1  0  0  0  0 
  6 11  2  0  0  0  0 
  6 12  1  0  0  0  0 
  8 13  1  0  0  0  0 
  9 14  2  0  0  0  0 
 11 15  1  0  0  0  0 
 12 16  2  0  0  0  0 
 13 17  2  0  0  0  0 
 14 17  1  0  0  0  0 
 15 18  2  0  0  0  0 
 16 18  1  0  0  0  0 
 17 19  1  0  0  0  0 
 18 20  1  0  0  0  0 
 19 21  1  0  0  0  0 
 20 22  1  0  0  0  0 
 21 23  2  0  0  0  0 
 21 24  1  0  0  0  0 
 21 25  1  0  0  0  0 
 22 26  2  0  0  0  0 
 22 27  1  0  0  0  0 
 22 28  1  0  0  0  0 
  3 29  1  0  0  0  0 
  3 30  1  0  0  0  0 
  5 31  1  0  0  0  0 
  5 32  1  0  0  0  0 
  7 33  1  0  0  0  0 
  7 34  1  0  0  0  0 
  7 35  1  0  0  0  0 
  8 36  1  0  0  0  0 
  9 37  1  0  0  0  0 
 10 38  1  0  0  0  0 
 10 39  1  0  0  0  0 
 10 40  1  0  0  0  0 
 11 41  1  0  0  0  0 
 12 42  1  0  0  0  0 
 13 43  1  0  0  0  0 
 14 44  1  0  0  0  0 
 15 45  1  0  0  0  0 
 16 46  1  0  0  0  0 
 24 47  1  0  0  0  0 
 25 48  1  0  0  0  0 
 27 49  1  0  0  0  0 
 28 50  1  0  0  0  0 
M  END
> <cdk:Title>
fosfestrol

> <Conformer>
1

> <SuperDrugID>
SD002809

$$$$
