dexamethasone
  CDK     0628171802

 57 60  0  0  0  0  0  0  0  0999 V2000
   -3.5734    5.5247   -6.9408 C   0  0  0  0  0  0  0  0  0  0  0  0
   -4.1386    6.5788   -7.5528 C   0  0  0  0  0  0  0  0  0  0  0  0
   -3.4625    7.7789   -7.6593 C   0  0  0  0  0  0  0  0  0  0  0  0
   -2.2068    7.9346   -7.0990 C   0  0  0  0  0  0  0  0  0  0  0  0
   -1.5781    6.9150   -6.4711 C   0  0  0  0  0  0  0  0  0  0  0  0
   -2.2053    5.5527   -6.3575 C   0  0  1  0  0  0  0  0  0  0  0  0
   -2.2403    5.1470   -4.8042 C   0  0  2  0  0  0  0  0  0  0  0  0
   -0.2647    7.1444   -5.8584 C   0  0  2  0  0  0  0  0  0  0  0  0
   -0.2985    6.8024   -4.3517 C   0  0  2  0  0  0  0  0  0  0  0  0
   -0.8404    5.3647   -4.0909 C   0  0  1  0  0  0  0  0  0  0  0  0
   -2.7465    3.3510   -2.9155 C   0  0  1  0  0  0  0  0  0  0  0  0
   -2.8019    3.7119   -4.4443 C   0  0  2  0  0  0  0  0  0  0  0  0
   -0.9434    5.0573   -2.5568 C   0  0  1  0  0  0  0  0  0  0  0  0
   -1.3477    3.5840   -2.2220 C   0  0  1  0  0  0  0  0  0  0  0  0
    0.2601    5.3560   -1.6417 C   0  0  1  0  0  0  0  0  0  0  0  0
   -0.0170    4.5289   -0.3538 C   0  0  2  0  0  0  0  0  0  0  0  0
   -1.3087    3.6565   -0.6368 C   0  0  2  0  0  0  0  0  0  0  0  0
   -3.9907    8.7360   -8.2732 O   0  0  0  0  0  0  0  0  0  0  0  0
   -1.3701    4.5783   -7.2680 C   0  0  0  0  0  0  0  0  0  0  0  0
   -3.1409    6.0290   -4.2181 F   0  0  0  0  0  0  0  0  0  0  0  0
   -2.1465    2.6854   -5.1822 O   0  0  0  0  0  0  0  0  0  0  0  0
   -0.1089    4.6826   -4.5266 H   0  0  0  0  0  0  0  0  0  0  0  0
   -1.7298    5.7311   -2.1895 H   0  0  0  0  0  0  0  0  0  0  0  0
   -0.3190    2.4947   -2.7252 C   0  0  0  0  0  0  0  0  0  0  0  0
   -0.0618    5.4042    0.9295 C   0  0  0  0  0  0  0  0  0  0  0  0
   -1.3211    2.3393    0.0961 C   0  0  0  0  0  0  0  0  0  0  0  0
   -0.2813    1.9022    0.6437 O   0  0  0  0  0  0  0  0  0  0  0  0
   -2.5294    1.5059    0.2854 C   0  0  2  0  0  0  0  0  0  0  0  0
   -3.2871    1.9968    1.3836 O   0  0  0  0  0  0  0  0  0  0  0  0
   -2.4683    4.3688   -0.1729 O   0  0  0  0  0  0  0  0  0  0  0  0
   -4.1021    4.6841   -6.8988 H   0  0  0  0  0  0  0  0  0  0  0  0
   -5.0515    6.4907   -7.9388 H   0  0  0  0  0  0  0  0  0  0  0  0
   -1.7746    8.8282   -7.1655 H   0  0  0  0  0  0  0  0  0  0  0  0
    0.0748    8.1811   -5.9526 H   0  0  0  0  0  0  0  0  0  0  0  0
    0.4866    6.5281   -6.3578 H   0  0  0  0  0  0  0  0  0  0  0  0
   -0.9206    7.5339   -3.8253 H   0  0  0  0  0  0  0  0  0  0  0  0
    0.7200    6.8921   -3.9636 H   0  0  0  0  0  0  0  0  0  0  0  0
   -3.5104    3.9491   -2.4120 H   0  0  0  0  0  0  0  0  0  0  0  0
   -3.0496    2.3091   -2.8006 H   0  0  0  0  0  0  0  0  0  0  0  0
   -3.8521    3.6591   -4.7458 H   0  0  0  0  0  0  0  0  0  0  0  0
    1.1892    5.0333   -2.1178 H   0  0  0  0  0  0  0  0  0  0  0  0
    0.3349    6.4286   -1.4445 H   0  0  0  0  0  0  0  0  0  0  0  0
    0.8489    3.8694   -0.2316 H   0  0  0  0  0  0  0  0  0  0  0  0
   -1.1994    5.0153   -8.2562 H   0  0  0  0  0  0  0  0  0  0  0  0
   -0.3974    4.3527   -6.8338 H   0  0  0  0  0  0  0  0  0  0  0  0
   -1.8749    3.6246   -7.4346 H   0  0  0  0  0  0  0  0  0  0  0  0
   -2.5970    1.8524   -4.9294 H   0  0  0  0  0  0  0  0  0  0  0  0
    0.6630    2.6124   -2.2686 H   0  0  0  0  0  0  0  0  0  0  0  0
   -0.1635    2.5201   -3.7992 H   0  0  0  0  0  0  0  0  0  0  0  0
   -0.6737    1.4943   -2.4728 H   0  0  0  0  0  0  0  0  0  0  0  0
    0.9085    5.8802    1.0853 H   0  0  0  0  0  0  0  0  0  0  0  0
   -0.2907    4.7888    1.8013 H   0  0  0  0  0  0  0  0  0  0  0  0
   -0.8155    6.1887    0.8458 H   0  0  0  0  0  0  0  0  0  0  0  0
   -2.2538    0.4698    0.5030 H   0  0  0  0  0  0  0  0  0  0  0  0
   -3.1532    1.5127   -0.6039 H   0  0  0  0  0  0  0  0  0  0  0  0
   -4.0454    1.3797    1.4697 H   0  0  0  0  0  0  0  0  0  0  0  0
   -2.3808    4.4310    0.8013 H   0  0  0  0  0  0  0  0  0  0  0  0
  1  2  2  0  0  0  0 
  2  3  1  0  0  0  0 
  3  4  1  0  0  0  0 
  4  5  2  0  0  0  0 
  5  6  1  0  0  0  0 
  1  6  1  0  0  0  0 
  8  9  1  0  0  0  0 
  9 10  1  0  0  0  0 
  7 10  1  0  0  0  0 
  5  8  1  0  0  0  0 
  7  6  1  0  0  0  0 
 11 12  1  0  0  0  0 
 13 14  1  0  0  0  0 
 11 14  1  0  0  0  0 
 12  7  1  0  0  0  0 
 10 13  1  0  0  0  0 
 15 16  1  0  0  0  0 
 16 17  1  0  0  0  0 
 13 15  1  0  0  0  0 
 14 17  1  0  0  0  0 
  3 18  2  0  0  0  0 
  6 19  1  0  0  0  0 
  7 20  1  0  0  0  0 
 12 21  1  0  0  0  0 
 10 22  1  0  0  0  0 
 13 23  1  0  0  0  0 
 14 24  1  0  0  0  0 
 16 25  1  0  0  0  0 
 17 26  1  0  0  0  0 
 26 27  2  0  0  0  0 
 26 28  1  0  0  0  0 
 28 29  1  0  0  0  0 
 17 30  1  0  0  0  0 
  1 31  1  0  0  0  0 
  2 32  1  0  0  0  0 
  4 33  1  0  0  0  0 
  8 34  1  0  0  0  0 
  8 35  1  0  0  0  0 
  9 36  1  0  0  0  0 
  9 37  1  0  0  0  0 
 11 38  1  0  0  0  0 
 11 39  1  0  0  0  0 
 12 40  1  0  0  0  0 
 15 41  1  0  0  0  0 
 15 42  1  0  0  0  0 
 16 43  1  0  0  0  0 
 19 44  1  0  0  0  0 
 19 45  1  0  0  0  0 
 19 46  1  0  0  0  0 
 21 47  1  0  0  0  0 
 24 48  1  0  0  0  0 
 24 49  1  0  0  0  0 
 24 50  1  0  0  0  0 
 25 51  1  0  0  0  0 
 25 52  1  0  0  0  0 
 25 53  1  0  0  0  0 
 28 54  1  0  0  0  0 
 28 55  1  0  0  0  0 
 29 56  1  0  0  0  0 
 30 57  1  0  0  0  0 
M  END
> <cdk:Title>
dexamethasone

> <Conformer>
1

> <SuperDrugID>
SD000728

$$$$
