xylose
  CDK     0628171801

 20 20  0  0  0  0  0  0  0  0999 V2000
   -0.1132    0.1010    3.2795 O   0  0  0  0  0  0  0  0  0  0  0  0
   -1.1505    0.3878    2.3432 C   0  0  2  0  0  0  0  0  0  0  0  0
   -2.4061   -0.4569    2.6782 C   0  0  1  0  0  0  0  0  0  0  0  0
   -3.4506   -0.2399    1.7077 O   0  0  0  0  0  0  0  0  0  0  0  0
   -3.0770   -0.5871    0.3572 C   0  0  1  0  0  0  0  0  0  0  0  0
   -4.1837   -0.2907   -0.4877 O   0  0  0  0  0  0  0  0  0  0  0  0
   -1.8362    0.2151   -0.1194 C   0  0  2  0  0  0  0  0  0  0  0  0
   -1.4082   -0.2537   -1.3971 O   0  0  0  0  0  0  0  0  0  0  0  0
   -0.6707    0.0897    0.8982 C   0  0  1  0  0  0  0  0  0  0  0  0
    0.3794    0.9881    0.5445 O   0  0  0  0  0  0  0  0  0  0  0  0
    0.6349    0.6789    3.0184 H   0  0  0  0  0  0  0  0  0  0  0  0
   -1.4052    1.4477    2.4340 H   0  0  0  0  0  0  0  0  0  0  0  0
   -2.1501   -1.5194    2.7272 H   0  0  0  0  0  0  0  0  0  0  0  0
   -2.7884   -0.1605    3.6563 H   0  0  0  0  0  0  0  0  0  0  0  0
   -2.8810   -1.6617    0.2852 H   0  0  0  0  0  0  0  0  0  0  0  0
   -4.9132   -0.8555   -0.1562 H   0  0  0  0  0  0  0  0  0  0  0  0
   -2.1103    1.2691   -0.2158 H   0  0  0  0  0  0  0  0  0  0  0  0
   -2.1823   -0.1361   -1.9858 H   0  0  0  0  0  0  0  0  0  0  0  0
   -0.2668   -0.9270    0.8625 H   0  0  0  0  0  0  0  0  0  0  0  0
    0.6546    0.7146   -0.3558 H   0  0  0  0  0  0  0  0  0  0  0  0
  2  1  1  0  0  0  0 
  2  3  1  0  0  0  0 
  3  4  1  0  0  0  0 
  4  5  1  0  0  0  0 
  5  6  1  0  0  0  0 
  5  7  1  0  0  0  0 
  7  8  1  0  0  0  0 
  7  9  1  0  0  0  0 
  2  9  1  0  0  0  0 
  9 10  1  0  0  0  0 
  1 11  1  0  0  0  0 
  2 12  1  0  0  0  0 
  3 13  1  0  0  0  0 
  3 14  1  0  0  0  0 
  5 15  1  0  0  0  0 
  6 16  1  0  0  0  0 
  7 17  1  0  0  0  0 
  8 18  1  0  0  0  0 
  9 19  1  0  0  0  0 
 10 20  1  0  0  0  0 
M  END
> <cdk:Title>
xylose

> <Conformer>
1

> <SuperDrugID>
SD002571

$$$$
