cyclobarbital
  CDK     0628171802

 33 34  0  0  0  0  0  0  0  0999 V2000
   -0.3467    0.3413    0.3768 C   0  0  1  0  0  0  0  0  0  0  0  0
    0.0859    0.2083   -1.1110 C   0  0  0  0  0  0  0  0  0  0  0  0
    0.7721    0.1199    1.4756 C   0  0  1  0  0  0  0  0  0  0  0  0
    1.3303   -1.2622    1.2581 C   0  0  0  0  0  0  0  0  0  0  0  0
    1.8348    1.1611    1.2372 C   0  0  0  0  0  0  0  0  0  0  0  0
    0.3247    0.2007    2.9084 C   0  0  0  0  0  0  0  0  0  0  0  0
    0.6151   -2.2762    1.4379 O   0  0  0  0  0  0  0  0  0  0  0  0
    2.6081   -1.4743    0.8422 N   0  0  0  0  0  0  0  0  0  0  0  0
    1.5955    2.3771    1.4199 O   0  0  0  0  0  0  0  0  0  0  0  0
    3.0931    0.8351    0.8378 N   0  0  0  0  0  0  0  0  0  0  0  0
   -1.1097    0.3089    3.2497 C   0  0  2  0  0  0  0  0  0  0  0  0
    1.2432    0.1128    3.9068 C   0  0  0  0  0  0  0  0  0  0  0  0
    3.4719   -0.4499    0.6314 C   0  0  0  0  0  0  0  0  0  0  0  0
   -1.4661    0.5350    4.7469 C   0  0  2  0  0  0  0  0  0  0  0  0
    0.9494    0.1419    5.3328 C   0  0  1  0  0  0  0  0  0  0  0  0
    4.6396   -0.6884    0.2526 O   0  0  0  0  0  0  0  0  0  0  0  0
   -0.5094   -0.2476    5.6685 C   0  0  2  0  0  0  0  0  0  0  0  0
   -0.7820    1.3379    0.4913 H   0  0  0  0  0  0  0  0  0  0  0  0
   -1.1567   -0.3783    0.5248 H   0  0  0  0  0  0  0  0  0  0  0  0
   -0.7861    0.3144   -1.7608 H   0  0  0  0  0  0  0  0  0  0  0  0
    0.5309   -0.7687   -1.3067 H   0  0  0  0  0  0  0  0  0  0  0  0
    0.8058    0.9841   -1.3755 H   0  0  0  0  0  0  0  0  0  0  0  0
    2.9074   -2.3851    0.6941 H   0  0  0  0  0  0  0  0  0  0  0  0
    3.7428    1.5434    0.7026 H   0  0  0  0  0  0  0  0  0  0  0  0
   -1.6012   -0.6133    2.9253 H   0  0  0  0  0  0  0  0  0  0  0  0
   -1.5607    1.1404    2.7029 H   0  0  0  0  0  0  0  0  0  0  0  0
    2.2068    0.0224    3.6719 H   0  0  0  0  0  0  0  0  0  0  0  0
   -2.4961    0.2224    4.9370 H   0  0  0  0  0  0  0  0  0  0  0  0
   -1.3932    1.6011    4.9844 H   0  0  0  0  0  0  0  0  0  0  0  0
    1.6213   -0.5441    5.8561 H   0  0  0  0  0  0  0  0  0  0  0  0
    1.1506    1.1519    5.7006 H   0  0  0  0  0  0  0  0  0  0  0  0
   -0.6491   -1.3235    5.5214 H   0  0  0  0  0  0  0  0  0  0  0  0
   -0.7288   -0.0103    6.7135 H   0  0  0  0  0  0  0  0  0  0  0  0
  1  2  1  0  0  0  0 
  1  3  1  0  0  0  0 
  3  4  1  0  0  0  0 
  3  5  1  0  0  0  0 
  3  6  1  0  0  0  0 
  4  7  2  0  0  0  0 
  4  8  1  0  0  0  0 
  5  9  2  0  0  0  0 
  5 10  1  0  0  0  0 
  6 11  1  0  0  0  0 
  6 12  2  0  0  0  0 
  8 13  1  0  0  0  0 
 10 13  1  0  0  0  0 
 11 14  1  0  0  0  0 
 12 15  1  0  0  0  0 
 13 16  2  0  0  0  0 
 14 17  1  0  0  0  0 
 15 17  1  0  0  0  0 
 18  1  1  0  0  0  0 
 19  1  1  0  0  0  0 
 20  2  1  0  0  0  0 
 21  2  1  0  0  0  0 
 22  2  1  0  0  0  0 
 23  8  1  0  0  0  0 
 24 10  1  0  0  0  0 
 25 11  1  0  0  0  0 
 26 11  1  0  0  0  0 
 27 12  1  0  0  0  0 
 28 14  1  0  0  0  0 
 29 14  1  0  0  0  0 
 30 15  1  0  0  0  0 
 31 15  1  0  0  0  0 
 32 17  1  0  0  0  0 
 33 17  1  0  0  0  0 
M  END
> <cdk:Title>
cyclobarbital

> <Conformer>
1

> <SuperDrugID>
SD000659

$$$$
