sulfamethoxazole
  CDK     0628171801

 28 29  0  0  0  0  0  0  0  0999 V2000
   -3.4922   -2.4314   -0.9424 S   0  0  1  0  0  0  0  0  0  0  0  0
   -2.9362   -1.3957    0.3102 N   0  0  0  0  0  0  0  0  0  0  0  0
   -2.7351   -3.8392   -0.8022 O   0  0  0  0  0  0  0  0  0  0  0  0
   -5.0610   -2.6818   -0.7121 O   0  0  0  0  0  0  0  0  0  0  0  0
   -3.2255   -1.7235   -2.5460 C   0  0  0  0  0  0  0  0  0  0  0  0
   -1.7701   -0.7157    0.2780 C   0  0  0  0  0  0  0  0  0  0  0  0
   -2.5762   -2.4518   -3.5658 C   0  0  0  0  0  0  0  0  0  0  0  0
   -3.6431   -0.4016   -2.8026 C   0  0  0  0  0  0  0  0  0  0  0  0
   -1.2746    0.0280    1.3363 C   0  0  0  0  0  0  0  0  0  0  0  0
   -0.8911   -0.6177   -0.7363 N   0  0  0  0  0  0  0  0  0  0  0  0
   -2.3213   -1.8543   -4.8140 C   0  0  0  0  0  0  0  0  0  0  0  0
   -3.3861    0.1976   -4.0502 C   0  0  0  0  0  0  0  0  0  0  0  0
   -0.0741    0.5614    0.8931 C   0  0  0  0  0  0  0  0  0  0  0  0
    0.1120    0.1429   -0.3806 O   0  0  0  0  0  0  0  0  0  0  0  0
   -2.7169   -0.5249   -5.0585 C   0  0  0  0  0  0  0  0  0  0  0  0
    0.8397    1.4173    1.6607 C   0  0  0  0  0  0  0  0  0  0  0  0
   -2.4526    0.0408   -6.2519 N   0  0  0  0  0  0  0  0  0  0  0  0
   -3.4862   -1.3081    1.1042 H   0  0  0  0  0  0  0  0  0  0  0  0
   -2.2738   -3.4142   -3.4073 H   0  0  0  0  0  0  0  0  0  0  0  0
   -4.1242    0.1351   -2.0772 H   0  0  0  0  0  0  0  0  0  0  0  0
   -1.7054    0.1541    2.2557 H   0  0  0  0  0  0  0  0  0  0  0  0
   -1.8405   -2.3900   -5.5414 H   0  0  0  0  0  0  0  0  0  0  0  0
   -3.6846    1.1606   -4.2147 H   0  0  0  0  0  0  0  0  0  0  0  0
    0.3127    2.3026    2.0212 H   0  0  0  0  0  0  0  0  0  0  0  0
    1.6731    1.7345    1.0323 H   0  0  0  0  0  0  0  0  0  0  0  0
    1.2303    0.8598    2.5136 H   0  0  0  0  0  0  0  0  0  0  0  0
   -2.7184    0.9561   -6.4298 H   0  0  0  0  0  0  0  0  0  0  0  0
   -1.9938   -0.4709   -6.9370 H   0  0  0  0  0  0  0  0  0  0  0  0
  1  2  1  0  0  0  0 
  1  3  2  0  0  0  0 
  1  4  2  0  0  0  0 
  1  5  1  0  0  0  0 
  2  6  1  0  0  0  0 
  5  7  2  0  0  0  0 
  5  8  1  0  0  0  0 
  6  9  1  0  0  0  0 
  6 10  2  0  0  0  0 
  7 11  1  0  0  0  0 
  8 12  2  0  0  0  0 
  9 13  2  0  0  0  0 
 10 14  1  0  0  0  0 
 11 15  2  0  0  0  0 
 12 15  1  0  0  0  0 
 13 14  1  0  0  0  0 
 13 16  1  0  0  0  0 
 15 17  1  0  0  0  0 
  2 18  1  0  0  0  0 
  7 19  1  0  0  0  0 
  8 20  1  0  0  0  0 
  9 21  1  0  0  0  0 
 11 22  1  0  0  0  0 
 12 23  1  0  0  0  0 
 16 24  1  0  0  0  0 
 16 25  1  0  0  0  0 
 16 26  1  0  0  0  0 
 17 27  1  0  0  0  0 
 17 28  1  0  0  0  0 
M  END
> <cdk:Title>
sulfamethoxazole

> <Conformer>
1

> <SuperDrugID>
SD002260

$$$$
