diampromide
  CDK     0628171802

 52 53  0  0  0  0  0  0  0  0999 V2000
    2.1527    0.7076    0.5990 N   0  0  0  0  0  0  0  0  0  0  0  0
    1.4436    0.0670   -0.5011 C   0  0  1  0  0  0  0  0  0  0  0  0
    1.8206    0.4913    1.9336 C   0  0  0  0  0  0  0  0  0  0  0  0
    3.2813    1.4237    0.2805 C   0  0  0  0  0  0  0  0  0  0  0  0
   -0.1012    0.3031   -0.5617 C   0  0  1  0  0  0  0  0  0  0  0  0
    2.3624    1.2560    3.0970 C   0  0  2  0  0  0  0  0  0  0  0  0
    1.0235   -0.4309    2.2328 O   0  0  0  0  0  0  0  0  0  0  0  0
    3.2203    2.7533   -0.1937 C   0  0  0  0  0  0  0  0  0  0  0  0
    4.5431    0.7992    0.4189 C   0  0  0  0  0  0  0  0  0  0  0  0
   -0.4187    1.7708   -0.4404 N   0  0  0  0  0  0  0  0  0  0  0  0
   -0.7152   -0.4046   -1.8053 C   0  0  0  0  0  0  0  0  0  0  0  0
    1.2474    1.8600    3.9840 C   0  0  0  0  0  0  0  0  0  0  0  0
    4.4042    3.4477   -0.5089 C   0  0  0  0  0  0  0  0  0  0  0  0
    5.7245    1.4925    0.1074 C   0  0  0  0  0  0  0  0  0  0  0  0
   -1.4522    2.1819    0.5657 C   0  0  1  0  0  0  0  0  0  0  0  0
   -0.3241    2.6207   -1.6633 C   0  0  0  0  0  0  0  0  0  0  0  0
    5.6548    2.8185   -0.3557 C   0  0  0  0  0  0  0  0  0  0  0  0
   -2.9214    1.9834    0.1010 C   0  0  2  0  0  0  0  0  0  0  0  0
   -3.9142    2.1177    1.2034 C   0  0  0  0  0  0  0  0  0  0  0  0
   -4.6757    1.0046    1.6371 C   0  0  0  0  0  0  0  0  0  0  0  0
   -4.1205    3.3655    1.8392 C   0  0  0  0  0  0  0  0  0  0  0  0
   -5.6055    1.1306    2.6849 C   0  0  0  0  0  0  0  0  0  0  0  0
   -5.0494    3.4924    2.8894 C   0  0  0  0  0  0  0  0  0  0  0  0
   -5.7919    2.3746    3.3127 C   0  0  0  0  0  0  0  0  0  0  0  0
    1.8585    0.3759   -1.4710 H   0  0  0  0  0  0  0  0  0  0  0  0
    1.6300   -1.0082   -0.4225 H   0  0  0  0  0  0  0  0  0  0  0  0
   -0.5352   -0.2244    0.2897 H   0  0  0  0  0  0  0  0  0  0  0  0
    3.0042    2.0811    2.7799 H   0  0  0  0  0  0  0  0  0  0  0  0
    2.9733    0.5816    3.7035 H   0  0  0  0  0  0  0  0  0  0  0  0
    2.3193    3.2213   -0.3076 H   0  0  0  0  0  0  0  0  0  0  0  0
    4.6060   -0.1668    0.7482 H   0  0  0  0  0  0  0  0  0  0  0  0
   -1.8007   -0.3159   -1.8068 H   0  0  0  0  0  0  0  0  0  0  0  0
   -0.4723   -1.4692   -1.7932 H   0  0  0  0  0  0  0  0  0  0  0  0
   -0.3286    0.0212   -2.7341 H   0  0  0  0  0  0  0  0  0  0  0  0
    1.6779    2.5426    4.7191 H   0  0  0  0  0  0  0  0  0  0  0  0
    0.5281    2.4157    3.3777 H   0  0  0  0  0  0  0  0  0  0  0  0
    0.7235    1.0679    4.5216 H   0  0  0  0  0  0  0  0  0  0  0  0
    4.3567    4.4087   -0.8544 H   0  0  0  0  0  0  0  0  0  0  0  0
    6.6308    1.0312    0.2175 H   0  0  0  0  0  0  0  0  0  0  0  0
   -1.2856    1.6231    1.4905 H   0  0  0  0  0  0  0  0  0  0  0  0
   -1.2936    3.2331    0.8215 H   0  0  0  0  0  0  0  0  0  0  0  0
   -0.3235    3.6781   -1.3972 H   0  0  0  0  0  0  0  0  0  0  0  0
   -1.1662    2.4346   -2.3301 H   0  0  0  0  0  0  0  0  0  0  0  0
    0.6000    2.4205   -2.2046 H   0  0  0  0  0  0  0  0  0  0  0  0
    6.5125    3.3248   -0.5834 H   0  0  0  0  0  0  0  0  0  0  0  0
   -3.0064    0.9957   -0.3482 H   0  0  0  0  0  0  0  0  0  0  0  0
   -3.1556    2.7137   -0.6767 H   0  0  0  0  0  0  0  0  0  0  0  0
   -4.5561    0.0883    1.1955 H   0  0  0  0  0  0  0  0  0  0  0  0
   -3.5938    4.1909    1.5428 H   0  0  0  0  0  0  0  0  0  0  0  0
   -6.1465    0.3176    2.9891 H   0  0  0  0  0  0  0  0  0  0  0  0
   -5.1860    4.3978    3.3435 H   0  0  0  0  0  0  0  0  0  0  0  0
   -6.4674    2.4652    4.0736 H   0  0  0  0  0  0  0  0  0  0  0  0
  1  2  1  0  0  0  0 
  1  3  1  0  0  0  0 
  1  4  1  0  0  0  0 
  5  2  1  0  0  0  0 
  3  6  1  0  0  0  0 
  3  7  2  0  0  0  0 
  4  8  2  0  0  0  0 
  4  9  1  0  0  0  0 
  5 10  1  0  0  0  0 
  5 11  1  0  0  0  0 
  6 12  1  0  0  0  0 
  8 13  1  0  0  0  0 
  9 14  2  0  0  0  0 
 10 15  1  0  0  0  0 
 10 16  1  0  0  0  0 
 13 17  2  0  0  0  0 
 14 17  1  0  0  0  0 
 15 18  1  0  0  0  0 
 18 19  1  0  0  0  0 
 19 20  2  0  0  0  0 
 19 21  1  0  0  0  0 
 20 22  1  0  0  0  0 
 21 23  2  0  0  0  0 
 22 24  2  0  0  0  0 
 23 24  1  0  0  0  0 
  2 25  1  0  0  0  0 
  2 26  1  0  0  0  0 
  5 27  1  0  0  0  0 
  6 28  1  0  0  0  0 
  6 29  1  0  0  0  0 
  8 30  1  0  0  0  0 
  9 31  1  0  0  0  0 
 11 32  1  0  0  0  0 
 11 33  1  0  0  0  0 
 11 34  1  0  0  0  0 
 12 35  1  0  0  0  0 
 12 36  1  0  0  0  0 
 12 37  1  0  0  0  0 
 13 38  1  0  0  0  0 
 14 39  1  0  0  0  0 
 15 40  1  0  0  0  0 
 15 41  1  0  0  0  0 
 16 42  1  0  0  0  0 
 16 43  1  0  0  0  0 
 16 44  1  0  0  0  0 
 17 45  1  0  0  0  0 
 18 46  1  0  0  0  0 
 18 47  1  0  0  0  0 
 20 48  1  0  0  0  0 
 21 49  1  0  0  0  0 
 22 50  1  0  0  0  0 
 23 51  1  0  0  0  0 
 24 52  1  0  0  0  0 
M  END
> <cdk:Title>
diampromide

> <Conformer>
1

> <SuperDrugID>
SD000753

$$$$
