ozenoxacin
  CDK     0628171802

 48 51  0  0  0  0  0  0  0  0999 V2000
    6.1281   -1.7793    1.4749 C   0  0  0  0  0  0  0  0  0  0  0  0
    4.9034   -2.5017    1.3411 C   0  0  0  0  0  0  0  0  0  0  0  0
    4.8475   -3.8450    1.7566 C   0  0  0  0  0  0  0  0  0  0  0  0
    5.9819   -4.4748    2.2757 C   0  0  0  0  0  0  0  0  0  0  0  0
    7.1780   -3.7530    2.4908 C   0  0  0  0  0  0  0  0  0  0  0  0
    7.2209   -2.3496    2.2161 C   0  0  0  0  0  0  0  0  0  0  0  0
    8.3170   -1.6460    2.6906 N   0  0  0  0  0  0  0  0  0  0  0  0
    8.3367   -4.4062    2.9808 C   0  0  0  0  0  0  0  0  0  0  0  0
    9.5350   -3.6900    3.2113 C   0  0  0  0  0  0  0  0  0  0  0  0
    9.4674   -2.2891    3.0669 C   0  0  0  0  0  0  0  0  0  0  0  0
    8.2991   -5.6398    3.2128 O   0  0  0  0  0  0  0  0  0  0  0  0
    8.3064   -0.2142    2.9047 C   0  0  1  0  0  0  0  0  0  0  0  0
   10.7550   -4.3172    3.6119 C   0  0  0  0  0  0  0  0  0  0  0  0
   11.8354   -3.6066    4.0183 O   0  0  0  0  0  0  0  0  0  0  0  0
   10.9044   -5.5606    3.6046 O   0  0  0  0  0  0  0  0  0  0  0  0
    7.2039    0.3720    3.8129 C   0  0  2  0  0  0  0  0  0  0  0  0
    8.6438    0.3205    4.3151 C   0  0  1  0  0  0  0  0  0  0  0  0
    6.2775   -0.4956    0.7209 C   0  0  0  0  0  0  0  0  0  0  0  0
    3.7191   -1.9349    0.7844 C   0  0  0  0  0  0  0  0  0  0  0  0
    3.0883   -0.8371    1.4029 C   0  0  0  0  0  0  0  0  0  0  0  0
    1.9881   -0.2862    0.8400 N   0  0  0  0  0  0  0  0  0  0  0  0
    1.4215   -0.7325   -0.3140 C   0  0  0  0  0  0  0  0  0  0  0  0
    1.9921   -1.8489   -0.9762 C   0  0  0  0  0  0  0  0  0  0  0  0
    3.1454   -2.4370   -0.4064 C   0  0  0  0  0  0  0  0  0  0  0  0
    1.4156   -2.3834   -2.2365 C   0  0  0  0  0  0  0  0  0  0  0  0
    0.3242   -0.0965   -0.8173 N   0  0  0  0  0  0  0  0  0  0  0  0
   -0.2521    1.0849   -0.2730 C   0  0  0  0  0  0  0  0  0  0  0  0
    3.9818   -4.3859    1.6669 H   0  0  0  0  0  0  0  0  0  0  0  0
    5.9151   -5.4701    2.5046 H   0  0  0  0  0  0  0  0  0  0  0  0
   10.3021   -1.7328    3.2832 H   0  0  0  0  0  0  0  0  0  0  0  0
    8.6728    0.4373    2.1095 H   0  0  0  0  0  0  0  0  0  0  0  0
   12.6574   -4.0704    4.2870 H   0  0  0  0  0  0  0  0  0  0  0  0
    6.5205   -0.3393    4.2824 H   0  0  0  0  0  0  0  0  0  0  0  0
    6.8365    1.3650    3.5492 H   0  0  0  0  0  0  0  0  0  0  0  0
    8.8235   -0.4097    5.1060 H   0  0  0  0  0  0  0  0  0  0  0  0
    9.1522    1.2851    4.3610 H   0  0  0  0  0  0  0  0  0  0  0  0
    5.9722    0.3478    1.3371 H   0  0  0  0  0  0  0  0  0  0  0  0
    5.6749   -0.4870   -0.1889 H   0  0  0  0  0  0  0  0  0  0  0  0
    7.3017   -0.3560    0.3775 H   0  0  0  0  0  0  0  0  0  0  0  0
    3.4453   -0.4412    2.2746 H   0  0  0  0  0  0  0  0  0  0  0  0
    3.5814   -3.2362   -0.8709 H   0  0  0  0  0  0  0  0  0  0  0  0
    2.0027   -3.2075   -2.6473 H   0  0  0  0  0  0  0  0  0  0  0  0
    0.4034   -2.7461   -2.0528 H   0  0  0  0  0  0  0  0  0  0  0  0
    1.3783   -1.5955   -2.9902 H   0  0  0  0  0  0  0  0  0  0  0  0
   -0.0917   -0.4669   -1.6110 H   0  0  0  0  0  0  0  0  0  0  0  0
   -1.1218    1.3665   -0.8677 H   0  0  0  0  0  0  0  0  0  0  0  0
    0.4696    1.9029   -0.3024 H   0  0  0  0  0  0  0  0  0  0  0  0
   -0.5708    0.9150    0.7570 H   0  0  0  0  0  0  0  0  0  0  0  0
  1  2  1  0  0  0  0 
  1  6  2  0  0  0  0 
  2  3  2  0  0  0  0 
  3  4  1  0  0  0  0 
  4  5  2  0  0  0  0 
  5  6  1  0  0  0  0 
  8  9  1  0  0  0  0 
  9 10  2  0  0  0  0 
  7 10  1  0  0  0  0 
  7  6  1  0  0  0  0 
  5  8  1  0  0  0  0 
  8 11  2  0  0  0  0 
  7 12  1  0  0  0  0 
  9 13  1  0  0  0  0 
 13 14  1  0  0  0  0 
 13 15  2  0  0  0  0 
 16 17  1  0  0  0  0 
 12 16  1  0  0  0  0 
 17 12  1  0  0  0  0 
  1 18  1  0  0  0  0 
  2 19  1  0  0  0  0 
 20 21  1  0  0  0  0 
 21 22  2  0  0  0  0 
 22 23  1  0  0  0  0 
 23 24  2  0  0  0  0 
 19 20  2  0  0  0  0 
 19 24  1  0  0  0  0 
 23 25  1  0  0  0  0 
 22 26  1  0  0  0  0 
 26 27  1  0  0  0  0 
  3 28  1  0  0  0  0 
  4 29  1  0  0  0  0 
 10 30  1  0  0  0  0 
 12 31  1  0  0  0  0 
 14 32  1  0  0  0  0 
 16 33  1  0  0  0  0 
 16 34  1  0  0  0  0 
 17 35  1  0  0  0  0 
 17 36  1  0  0  0  0 
 18 37  1  0  0  0  0 
 18 38  1  0  0  0  0 
 18 39  1  0  0  0  0 
 20 40  1  0  0  0  0 
 24 41  1  0  0  0  0 
 25 42  1  0  0  0  0 
 25 43  1  0  0  0  0 
 25 44  1  0  0  0  0 
 26 45  1  0  0  0  0 
 27 46  1  0  0  0  0 
 27 47  1  0  0  0  0 
 27 48  1  0  0  0  0 
M  END
> <cdk:Title>
ozenoxacin

> <Conformer>
1

> <SuperDrugID>
SD003890

$$$$
