hydralazine
  CDK     0628171801

 20 21  0  0  0  0  0  0  0  0999 V2000
    0.7731   -0.9163    0.1959 N   0  0  1  0  0  0  0  0  0  0  0  0
    0.7755    0.3894   -0.1452 N   0  0  0  0  0  0  0  0  0  0  0  0
    1.8729    1.0252   -0.6331 C   0  0  0  0  0  0  0  0  0  0  0  0
    3.0448    0.3436   -0.7444 N   0  0  0  0  0  0  0  0  0  0  0  0
    4.1458    0.8668   -1.2142 N   0  0  0  0  0  0  0  0  0  0  0  0
    4.2081    2.1522   -1.6339 C   0  0  0  0  0  0  0  0  0  0  0  0
    3.0490    2.9546   -1.5625 C   0  0  0  0  0  0  0  0  0  0  0  0
    3.0631    4.2988   -1.9993 C   0  0  0  0  0  0  0  0  0  0  0  0
    1.8954    5.0787   -1.9263 C   0  0  0  0  0  0  0  0  0  0  0  0
    0.7102    4.5255   -1.4158 C   0  0  0  0  0  0  0  0  0  0  0  0
    0.6852    3.1884   -0.9795 C   0  0  0  0  0  0  0  0  0  0  0  0
    1.8483    2.3830   -1.0463 C   0  0  0  0  0  0  0  0  0  0  0  0
   -0.1417   -1.1201    0.6042 H   0  0  0  0  0  0  0  0  0  0  0  0
    0.8327   -1.4429   -0.6776 H   0  0  0  0  0  0  0  0  0  0  0  0
   -0.0539    0.8848   -0.0529 H   0  0  0  0  0  0  0  0  0  0  0  0
    5.0930    2.5175   -1.9962 H   0  0  0  0  0  0  0  0  0  0  0  0
    3.9187    4.7173   -2.3771 H   0  0  0  0  0  0  0  0  0  0  0  0
    1.9092    6.0485   -2.2476 H   0  0  0  0  0  0  0  0  0  0  0  0
   -0.1375    5.0945   -1.3631 H   0  0  0  0  0  0  0  0  0  0  0  0
   -0.1952    2.8161   -0.6181 H   0  0  0  0  0  0  0  0  0  0  0  0
  1  2  1  0  0  0  0 
  2  3  1  0  0  0  0 
  3  4  1  0  0  0  0 
  4  5  2  0  0  0  0 
  5  6  1  0  0  0  0 
  6  7  2  0  0  0  0 
  7  8  1  0  0  0  0 
  8  9  2  0  0  0  0 
  9 10  1  0  0  0  0 
 10 11  2  0  0  0  0 
 11 12  1  0  0  0  0 
  3 12  2  0  0  0  0 
  7 12  1  0  0  0  0 
 13  1  1  0  0  0  0 
 14  1  1  0  0  0  0 
 15  2  1  0  0  0  0 
 16  6  1  0  0  0  0 
 17  8  1  0  0  0  0 
 18  9  1  0  0  0  0 
 19 10  1  0  0  0  0 
 20 11  1  0  0  0  0 
M  END
> <cdk:Title>
hydralazine

> <Conformer>
1

> <SuperDrugID>
SD001230

$$$$
