muzolimine
  CDK     0628171801

 28 29  0  0  0  0  0  0  0  0999 V2000
   -2.5876    2.3068    0.4291 C   0  0  2  0  0  0  0  0  0  0  0  0
   -3.4893    2.1129    1.6785 C   0  0  0  0  0  0  0  0  0  0  0  0
   -3.3902    2.4569   -0.7625 N   0  0  0  0  0  0  0  0  0  0  0  0
   -1.5633    1.2173    0.2828 C   0  0  0  0  0  0  0  0  0  0  0  0
   -3.4406    3.5286   -1.5897 C   0  0  0  0  0  0  0  0  0  0  0  0
   -4.2334    1.5698   -1.2056 N   0  0  0  0  0  0  0  0  0  0  0  0
   -1.9369   -0.1373    0.1001 C   0  0  0  0  0  0  0  0  0  0  0  0
   -0.1804    1.5175    0.3162 C   0  0  0  0  0  0  0  0  0  0  0  0
   -2.7819    4.5893   -1.4976 O   0  0  0  0  0  0  0  0  0  0  0  0
   -4.3738    3.2645   -2.5828 C   0  0  0  0  0  0  0  0  0  0  0  0
   -4.8537    1.9950   -2.3123 C   0  0  0  0  0  0  0  0  0  0  0  0
   -0.9758   -1.1541   -0.0751 C   0  0  0  0  0  0  0  0  0  0  0  0
    0.7876    0.5096    0.1598 C   0  0  0  0  0  0  0  0  0  0  0  0
   -5.7619    1.2983   -3.0088 N   0  0  0  0  0  0  0  0  0  0  0  0
   -1.5191   -2.7424   -0.3258 Cl  0  0  0  0  0  0  0  0  0  0  0  0
    0.3987   -0.8281   -0.0412 C   0  0  0  0  0  0  0  0  0  0  0  0
    1.6117   -1.9990   -0.2379 Cl  0  0  0  0  0  0  0  0  0  0  0  0
   -2.0674    3.2548    0.6063 H   0  0  0  0  0  0  0  0  0  0  0  0
   -2.8788    2.0545    2.5827 H   0  0  0  0  0  0  0  0  0  0  0  0
   -4.0839    1.2007    1.5965 H   0  0  0  0  0  0  0  0  0  0  0  0
   -4.1711    2.9611    1.7819 H   0  0  0  0  0  0  0  0  0  0  0  0
   -4.4018    0.7114   -0.7871 H   0  0  0  0  0  0  0  0  0  0  0  0
   -2.9253   -0.3930    0.0908 H   0  0  0  0  0  0  0  0  0  0  0  0
    0.1396    2.4790    0.4528 H   0  0  0  0  0  0  0  0  0  0  0  0
   -4.6512    3.8796   -3.3507 H   0  0  0  0  0  0  0  0  0  0  0  0
    1.7787    0.7604    0.1930 H   0  0  0  0  0  0  0  0  0  0  0  0
   -6.1715    1.6833   -3.7985 H   0  0  0  0  0  0  0  0  0  0  0  0
   -6.0001    0.4021   -2.7230 H   0  0  0  0  0  0  0  0  0  0  0  0
  1  2  1  0  0  0  0 
  1  3  1  0  0  0  0 
  1  4  1  0  0  0  0 
  3  5  1  0  0  0  0 
  3  6  1  0  0  0  0 
  4  7  2  0  0  0  0 
  4  8  1  0  0  0  0 
  5  9  2  0  0  0  0 
  5 10  1  0  0  0  0 
  6 11  1  0  0  0  0 
  7 12  1  0  0  0  0 
  8 13  2  0  0  0  0 
 10 11  2  0  0  0  0 
 11 14  1  0  0  0  0 
 12 15  1  0  0  0  0 
 12 16  2  0  0  0  0 
 13 16  1  0  0  0  0 
 16 17  1  0  0  0  0 
 18  1  1  0  0  0  0 
 19  2  1  0  0  0  0 
 20  2  1  0  0  0  0 
 21  2  1  0  0  0  0 
 22  6  1  0  0  0  0 
 23  7  1  0  0  0  0 
 24  8  1  0  0  0  0 
 25 10  1  0  0  0  0 
 26 13  1  0  0  0  0 
 27 14  1  0  0  0  0 
 28 14  1  0  0  0  0 
M  END
> <cdk:Title>
muzolimine

> <Conformer>
1

> <SuperDrugID>
SD001654

$$$$
