exalamide
  CDK     0628171801

 35 35  0  0  0  0  0  0  0  0999 V2000
   -0.0057   -2.6534    0.4903 O   0  0  0  0  0  0  0  0  0  0  0  0
    0.0699   -2.9280    1.9070 C   0  0  1  0  0  0  0  0  0  0  0  0
   -0.4320   -1.3826    0.1949 C   0  0  0  0  0  0  0  0  0  0  0  0
    0.6054   -4.3623    2.1353 C   0  0  2  0  0  0  0  0  0  0  0  0
    0.4801   -0.3034   -0.0024 C   0  0  0  0  0  0  0  0  0  0  0  0
   -1.8224   -1.1810    0.0595 C   0  0  0  0  0  0  0  0  0  0  0  0
   -0.3102   -5.4590    1.5267 C   0  0  1  0  0  0  0  0  0  0  0  0
    1.8960   -0.4929    0.0439 C   0  0  0  0  0  0  0  0  0  0  0  0
   -0.0661    0.9798   -0.2690 C   0  0  0  0  0  0  0  0  0  0  0  0
   -2.3325    0.0942   -0.2299 C   0  0  0  0  0  0  0  0  0  0  0  0
    0.2215   -6.8976    1.7664 C   0  0  2  0  0  0  0  0  0  0  0  0
    2.7842    0.5198    0.0018 N   0  0  0  0  0  0  0  0  0  0  0  0
    2.4144   -1.6316    0.1089 O   0  0  0  0  0  0  0  0  0  0  0  0
   -1.4541    1.1790   -0.3803 C   0  0  0  0  0  0  0  0  0  0  0  0
   -0.7065   -7.9775    1.1468 C   0  0  1  0  0  0  0  0  0  0  0  0
   -0.2073   -9.4190    1.3846 C   0  0  0  0  0  0  0  0  0  0  0  0
    0.7509   -2.2256    2.3992 H   0  0  0  0  0  0  0  0  0  0  0  0
   -0.9156   -2.8352    2.3750 H   0  0  0  0  0  0  0  0  0  0  0  0
    0.6951   -4.5300    3.2125 H   0  0  0  0  0  0  0  0  0  0  0  0
    1.6064   -4.4391    1.7002 H   0  0  0  0  0  0  0  0  0  0  0  0
   -2.4704   -1.9650    0.1730 H   0  0  0  0  0  0  0  0  0  0  0  0
   -1.3070   -5.3701    1.9680 H   0  0  0  0  0  0  0  0  0  0  0  0
   -0.3978   -5.2904    0.4498 H   0  0  0  0  0  0  0  0  0  0  0  0
    0.5377    1.7957   -0.3980 H   0  0  0  0  0  0  0  0  0  0  0  0
   -3.3396    0.2353   -0.3298 H   0  0  0  0  0  0  0  0  0  0  0  0
    0.3054   -7.0724    2.8428 H   0  0  0  0  0  0  0  0  0  0  0  0
    1.2187   -6.9877    1.3262 H   0  0  0  0  0  0  0  0  0  0  0  0
    3.7355    0.3318    0.0170 H   0  0  0  0  0  0  0  0  0  0  0  0
    2.4845    1.4374   -0.0444 H   0  0  0  0  0  0  0  0  0  0  0  0
   -1.8234    2.1129   -0.5751 H   0  0  0  0  0  0  0  0  0  0  0  0
   -1.7073   -7.8838    1.5766 H   0  0  0  0  0  0  0  0  0  0  0  0
   -0.7825   -7.8114    0.0689 H   0  0  0  0  0  0  0  0  0  0  0  0
   -0.1434   -9.6299    2.4536 H   0  0  0  0  0  0  0  0  0  0  0  0
    0.7760   -9.5623    0.9331 H   0  0  0  0  0  0  0  0  0  0  0  0
   -0.9034  -10.1283    0.9323 H   0  0  0  0  0  0  0  0  0  0  0  0
  1  2  1  0  0  0  0 
  1  3  1  0  0  0  0 
  2  4  1  0  0  0  0 
  3  5  2  0  0  0  0 
  3  6  1  0  0  0  0 
  4  7  1  0  0  0  0 
  5  8  1  0  0  0  0 
  5  9  1  0  0  0  0 
  6 10  2  0  0  0  0 
  7 11  1  0  0  0  0 
  8 12  1  0  0  0  0 
  8 13  2  0  0  0  0 
  9 14  2  0  0  0  0 
 10 14  1  0  0  0  0 
 11 15  1  0  0  0  0 
 15 16  1  0  0  0  0 
  2 17  1  0  0  0  0 
  2 18  1  0  0  0  0 
  4 19  1  0  0  0  0 
  4 20  1  0  0  0  0 
  6 21  1  0  0  0  0 
  7 22  1  0  0  0  0 
  7 23  1  0  0  0  0 
  9 24  1  0  0  0  0 
 10 25  1  0  0  0  0 
 11 26  1  0  0  0  0 
 11 27  1  0  0  0  0 
 12 28  1  0  0  0  0 
 12 29  1  0  0  0  0 
 14 30  1  0  0  0  0 
 15 31  1  0  0  0  0 
 15 32  1  0  0  0  0 
 16 33  1  0  0  0  0 
 16 34  1  0  0  0  0 
 16 35  1  0  0  0  0 
M  END
> <cdk:Title>
exalamide

> <Conformer>
1

> <SuperDrugID>
SD001000

$$$$
