iproclozide
  CDK     0628171801

 31 31  0  0  0  0  0  0  0  0999 V2000
   -2.3912    0.2260   -1.0932 O   0  0  0  0  0  0  0  0  0  0  0  0
   -2.0795    1.4415   -0.3909 C   0  0  1  0  0  0  0  0  0  0  0  0
   -3.5201   -0.4059   -0.6503 C   0  0  0  0  0  0  0  0  0  0  0  0
   -0.7445    1.8743   -0.8373 C   0  0  0  0  0  0  0  0  0  0  0  0
   -4.7832   -0.0927   -1.1946 C   0  0  0  0  0  0  0  0  0  0  0  0
   -3.4146   -1.4249    0.3186 C   0  0  0  0  0  0  0  0  0  0  0  0
   -0.6013    3.0301   -1.5206 N   0  0  0  0  0  0  0  0  0  0  0  0
    0.2484    1.1471   -0.5958 O   0  0  0  0  0  0  0  0  0  0  0  0
   -5.9262   -0.8070   -0.7885 C   0  0  0  0  0  0  0  0  0  0  0  0
   -4.5571   -2.1395    0.7249 C   0  0  0  0  0  0  0  0  0  0  0  0
    0.5855    3.4609   -2.0104 N   0  0  2  0  0  0  0  0  0  0  0  0
   -5.8156   -1.8354    0.1685 C   0  0  0  0  0  0  0  0  0  0  0  0
    1.0758    4.7310   -1.4227 C   0  0  1  0  0  0  0  0  0  0  0  0
   -7.1864   -2.7093    0.6393 Cl  0  0  0  0  0  0  0  0  0  0  0  0
    2.3742    5.1321   -2.1687 C   0  0  0  0  0  0  0  0  0  0  0  0
    0.0187    5.8690   -1.4892 C   0  0  0  0  0  0  0  0  0  0  0  0
   -2.8300    2.2068   -0.6141 H   0  0  0  0  0  0  0  0  0  0  0  0
   -2.0508    1.2924    0.6921 H   0  0  0  0  0  0  0  0  0  0  0  0
   -4.8699    0.6511   -1.8909 H   0  0  0  0  0  0  0  0  0  0  0  0
   -2.5035   -1.6513    0.7250 H   0  0  0  0  0  0  0  0  0  0  0  0
   -1.3883    3.5685   -1.6909 H   0  0  0  0  0  0  0  0  0  0  0  0
   -6.8352   -0.5799   -1.1981 H   0  0  0  0  0  0  0  0  0  0  0  0
   -4.4657   -2.8846    1.4197 H   0  0  0  0  0  0  0  0  0  0  0  0
    0.4820    3.5676   -3.0221 H   0  0  0  0  0  0  0  0  0  0  0  0
    1.3278    4.5501   -0.3729 H   0  0  0  0  0  0  0  0  0  0  0  0
    2.7949    6.0466   -1.7429 H   0  0  0  0  0  0  0  0  0  0  0  0
    2.1700    5.3024   -3.2288 H   0  0  0  0  0  0  0  0  0  0  0  0
    3.1197    4.3386   -2.0806 H   0  0  0  0  0  0  0  0  0  0  0  0
    0.4437    6.8226   -1.1650 H   0  0  0  0  0  0  0  0  0  0  0  0
   -0.8262    5.6385   -0.8348 H   0  0  0  0  0  0  0  0  0  0  0  0
   -0.3498    5.9788   -2.5118 H   0  0  0  0  0  0  0  0  0  0  0  0
  1  2  1  0  0  0  0 
  1  3  1  0  0  0  0 
  2  4  1  0  0  0  0 
  3  5  2  0  0  0  0 
  3  6  1  0  0  0  0 
  4  7  1  0  0  0  0 
  4  8  2  0  0  0  0 
  5  9  1  0  0  0  0 
  6 10  2  0  0  0  0 
  7 11  1  0  0  0  0 
  9 12  2  0  0  0  0 
 10 12  1  0  0  0  0 
 11 13  1  0  0  0  0 
 12 14  1  0  0  0  0 
 13 15  1  0  0  0  0 
 13 16  1  0  0  0  0 
  2 17  1  0  0  0  0 
  2 18  1  0  0  0  0 
  5 19  1  0  0  0  0 
  6 20  1  0  0  0  0 
  7 21  1  0  0  0  0 
  9 22  1  0  0  0  0 
 10 23  1  0  0  0  0 
 11 24  1  0  0  0  0 
 13 25  1  0  0  0  0 
 15 26  1  0  0  0  0 
 15 27  1  0  0  0  0 
 15 28  1  0  0  0  0 
 16 29  1  0  0  0  0 
 16 30  1  0  0  0  0 
 16 31  1  0  0  0  0 
M  END
> <cdk:Title>
iproclozide

> <Conformer>
1

> <SuperDrugID>
SD001310

$$$$
