daptomycin
  CDK     0628171802

216219  0  0  0  0  0  0  0  0999 V2000
   -0.1903    2.1603    1.3021 C   0  0  2  0  0  0  0  0  0  0  0  0
    1.1029    2.2479    0.4243 C   0  0  1  0  0  0  0  0  0  0  0  0
   -0.7944    3.4851    1.5927 C   0  0  0  0  0  0  0  0  0  0  0  0
    2.0482    3.3116    0.8870 C   0  0  0  0  0  0  0  0  0  0  0  0
    1.9062    1.0791    0.2011 N   0  0  0  0  0  0  0  0  0  0  0  0
   -1.4119    4.3572    0.6934 C   0  0  0  0  0  0  0  0  0  0  0  0
   -0.8570    4.1218    2.8337 C   0  0  0  0  0  0  0  0  0  0  0  0
    2.7606    3.3611    2.0517 N   0  0  0  0  0  0  0  0  0  0  0  0
    2.2238    4.3049    0.1428 O   0  0  0  0  0  0  0  0  0  0  0  0
    1.5893   -0.1808   -0.2138 C   0  0  0  0  0  0  0  0  0  0  0  0
   -1.8152    5.4810    1.4160 C   0  0  0  0  0  0  0  0  0  0  0  0
   -1.6643    4.2606   -0.6889 C   0  0  0  0  0  0  0  0  0  0  0  0
   -1.4693    5.3118    2.7000 N   0  0  0  0  0  0  0  0  0  0  0  0
    2.7702    2.4551    3.1652 C   0  0  1  0  0  0  0  0  0  0  0  0
    0.2688   -0.8496   -0.2539 C   0  0  2  0  0  0  0  0  0  0  0  0
    2.5721   -0.8809   -0.5448 O   0  0  0  0  0  0  0  0  0  0  0  0
   -2.4786    6.5513    0.7921 C   0  0  0  0  0  0  0  0  0  0  0  0
   -2.3266    5.3295   -1.3291 C   0  0  0  0  0  0  0  0  0  0  0  0
    3.4896    1.1899    2.8780 C   0  0  0  0  0  0  0  0  0  0  0  0
    3.4160    3.1696    4.3960 C   0  0  2  0  0  0  0  0  0  0  0  0
    0.0795   -1.6678    1.0529 C   0  0  1  0  0  0  0  0  0  0  0  0
   -2.7316    6.4671   -0.5937 C   0  0  0  0  0  0  0  0  0  0  0  0
    4.8036    1.2047    2.5127 N   0  0  0  0  0  0  0  0  0  0  0  0
    2.8763    0.1083    3.0478 O   0  0  0  0  0  0  0  0  0  0  0  0
    2.5193    4.1598    5.0315 C   0  0  0  0  0  0  0  0  0  0  0  0
   -1.3451   -2.2534    1.2422 C   0  0  1  0  0  0  0  0  0  0  0  0
    5.6339    0.0425    2.3875 C   0  0  2  0  0  0  0  0  0  0  0  0
    1.4461    3.7557    5.7352 N   0  0  0  0  0  0  0  0  0  0  0  0
    2.7492    5.3869    4.9407 O   0  0  0  0  0  0  0  0  0  0  0  0
   -1.3949   -3.2692    2.4210 C   0  0  2  0  0  0  0  0  0  0  0  0
    7.0402    0.4740    2.2105 C   0  0  0  0  0  0  0  0  0  0  0  0
    5.2158   -0.9156    1.1797 C   0  0  1  0  0  0  0  0  0  0  0  0
   -2.8260   -3.6184    2.9159 C   0  0  2  0  0  0  0  0  0  0  0  0
    7.4153    1.0799    1.0462 N   0  0  0  0  0  0  0  0  0  0  0  0
    7.8806    0.1888    3.0977 O   0  0  0  0  0  0  0  0  0  0  0  0
    6.0925   -2.1601    1.1844 C   0  0  0  0  0  0  0  0  0  0  0  0
   -2.8048   -4.6734    4.0578 C   0  0  2  0  0  0  0  0  0  0  0  0
    8.7647    1.1811    0.5620 C   0  0  1  0  0  0  0  0  0  0  0  0
    6.8040   -2.4645    0.0774 O   0  0  0  0  0  0  0  0  0  0  0  0
    6.1658   -2.9172    2.1810 O   0  0  0  0  0  0  0  0  0  0  0  0
   -4.1900   -4.9177    4.7165 C   0  0  2  0  0  0  0  0  0  0  0  0
    8.7756    1.0590   -1.0089 C   0  0  1  0  0  0  0  0  0  0  0  0
    9.4226    2.3666    1.1710 C   0  0  0  0  0  0  0  0  0  0  0  0
   -4.1154   -5.9756    5.8518 C   0  0  1  0  0  0  0  0  0  0  0  0
    8.8535    2.3484   -1.8636 C   0  0  0  0  0  0  0  0  0  0  0  0
    9.7778    0.1468   -1.4759 O   0  0  0  0  0  0  0  0  0  0  0  0
   10.3731    2.2143    1.9760 O   0  0  0  0  0  0  0  0  0  0  0  0
    8.9315    3.5965    0.8909 N   0  0  0  0  0  0  0  0  0  0  0  0
   -5.4625   -6.2124    6.5692 C   0  0  0  0  0  0  0  0  0  0  0  0
   11.1295    0.1505   -1.2868 C   0  0  0  0  0  0  0  0  0  0  0  0
    9.2182    4.8270    1.5485 C   0  0  1  0  0  0  0  0  0  0  0  0
   11.6763    1.0285   -0.5782 O   0  0  0  0  0  0  0  0  0  0  0  0
   11.9522   -0.9300   -1.8843 C   0  0  2  0  0  0  0  0  0  0  0  0
    7.8807    5.3570    1.8614 C   0  0  0  0  0  0  0  0  0  0  0  0
   13.0670   -0.3266   -2.7919 C   0  0  1  0  0  0  0  0  0  0  0  0
   11.1449   -1.8210   -2.6748 N   0  0  0  0  0  0  0  0  0  0  0  0
    7.4401    5.2812    3.0334 O   0  0  0  0  0  0  0  0  0  0  0  0
    7.1146    5.7835    0.8174 N   0  0  0  0  0  0  0  0  0  0  0  0
   14.0931   -1.3349   -3.1583 C   0  0  0  0  0  0  0  0  0  0  0  0
   10.2402   -2.7304   -2.2088 C   0  0  0  0  0  0  0  0  0  0  0  0
    5.6857    5.8674    0.7916 C   0  0  1  0  0  0  0  0  0  0  0  0
   14.8438   -1.7443   -2.2409 O   0  0  0  0  0  0  0  0  0  0  0  0
   14.2453   -1.8684   -4.4671 C   0  0  0  0  0  0  0  0  0  0  0  0
   10.1476   -2.9607   -0.9788 O   0  0  0  0  0  0  0  0  0  0  0  0
    9.3119   -3.4336   -3.1377 C   0  0  2  0  0  0  0  0  0  0  0  0
    5.1295    7.2974    1.0586 C   0  0  2  0  0  0  0  0  0  0  0  0
    5.2977    5.1839   -0.4801 C   0  0  0  0  0  0  0  0  0  0  0  0
   14.4257   -3.2634   -4.6828 C   0  0  0  0  0  0  0  0  0  0  0  0
   14.2184   -1.0083   -5.5942 C   0  0  0  0  0  0  0  0  0  0  0  0
    9.6685   -4.9345   -3.4697 C   0  0  1  0  0  0  0  0  0  0  0  0
    8.9237   -2.6376   -4.2710 N   0  0  0  0  0  0  0  0  0  0  0  0
    5.4216    7.7911    2.5018 C   0  0  2  0  0  0  0  0  0  0  0  0
    5.0902    3.9489   -0.4124 O   0  0  0  0  0  0  0  0  0  0  0  0
    5.1962    5.6603   -1.7595 N   0  0  0  0  0  0  0  0  0  0  0  0
   14.4587   -4.1601   -3.6693 N   0  0  0  0  0  0  0  0  0  0  0  0
   14.5492   -3.7675   -5.9942 C   0  0  0  0  0  0  0  0  0  0  0  0
   14.3384   -1.5194   -6.8980 C   0  0  0  0  0  0  0  0  0  0  0  0
   11.2036   -5.2272   -3.5700 C   0  0  1  0  0  0  0  0  0  0  0  0
    9.0077   -5.9215   -2.4583 C   0  0  0  0  0  0  0  0  0  0  0  0
    9.6287   -2.3193   -5.3967 C   0  0  0  0  0  0  0  0  0  0  0  0
    4.7728    9.1591    2.8246 C   0  0  1  0  0  0  0  0  0  0  0  0
    5.2999    6.9934   -2.2843 C   0  0  1  0  0  0  0  0  0  0  0  0
   14.5006   -2.8997   -7.0982 C   0  0  0  0  0  0  0  0  0  0  0  0
   11.5352   -6.4854   -4.2689 C   0  0  0  0  0  0  0  0  0  0  0  0
   10.8069   -2.7068   -5.5710 O   0  0  0  0  0  0  0  0  0  0  0  0
    9.0292   -1.4772   -6.4623 C   0  0  1  0  0  0  0  0  0  0  0  0
    5.3761    9.7317    4.0338 N   0  0  2  0  0  0  0  0  0  0  0  0
    6.7454    7.5850   -2.2870 C   0  0  2  0  0  0  0  0  0  0  0  0
    4.7542    6.9443   -3.6671 C   0  0  0  0  0  0  0  0  0  0  0  0
   12.1683   -7.4886   -3.6204 O   0  0  0  0  0  0  0  0  0  0  0  0
   11.2511   -6.6380   -5.4787 O   0  0  0  0  0  0  0  0  0  0  0  0
    7.4806   -1.3606   -6.4079 C   0  0  2  0  0  0  0  0  0  0  0  0
    9.6226   -0.1775   -6.3624 N   0  0  0  0  0  0  0  0  0  0  0  0
    6.7813    9.0160   -2.6619 C   0  0  0  0  0  0  0  0  0  0  0  0
    3.7366    7.6214   -3.9514 O   0  0  0  0  0  0  0  0  0  0  0  0
    5.3485    6.1361   -4.5944 N   0  0  0  0  0  0  0  0  0  0  0  0
    6.9728   -0.6739   -7.5473 O   0  0  0  0  0  0  0  0  0  0  0  0
    9.9411    0.6390   -7.4030 C   0  0  0  0  0  0  0  0  0  0  0  0
    7.4613    9.4413   -3.7530 O   0  0  0  0  0  0  0  0  0  0  0  0
    6.1884    9.8736   -1.9684 O   0  0  0  0  0  0  0  0  0  0  0  0
    4.8758    5.8673   -5.9222 C   0  0  2  0  0  0  0  0  0  0  0  0
    9.7452    0.2966   -8.5936 O   0  0  0  0  0  0  0  0  0  0  0  0
   10.5261    1.9645   -7.1326 C   0  0  2  0  0  0  0  0  0  0  0  0
    4.0999    4.5268   -5.9037 C   0  0  0  0  0  0  0  0  0  0  0  0
    5.9990    5.8278   -6.8966 C   0  0  0  0  0  0  0  0  0  0  0  0
    9.6303    2.9953   -7.5600 N   0  0  0  0  0  0  0  0  0  0  0  0
    5.8378    6.3634   -8.0203 O   0  0  0  0  0  0  0  0  0  0  0  0
    7.1751    5.2023   -6.5869 N   0  0  0  0  0  0  0  0  0  0  0  0
    9.2567    4.0925   -6.8383 C   0  0  0  0  0  0  0  0  0  0  0  0
    8.3303    5.0900   -7.4383 C   0  0  2  0  0  0  0  0  0  0  0  0
    9.7000    4.2954   -5.6813 O   0  0  0  0  0  0  0  0  0  0  0  0
    9.0468    6.4606   -7.6615 C   0  0  1  0  0  0  0  0  0  0  0  0
   10.2030    6.3818   -8.5824 C   0  0  0  0  0  0  0  0  0  0  0  0
   11.4544    6.6813   -8.1596 O   0  0  0  0  0  0  0  0  0  0  0  0
   10.0434    6.0450   -9.7780 O   0  0  0  0  0  0  0  0  0  0  0  0
    0.0082    1.6198    2.2242 H   0  0  0  0  0  0  0  0  0  0  0  0
   -0.9655    1.6014    0.7864 H   0  0  0  0  0  0  0  0  0  0  0  0
    0.7663    2.5262   -0.5764 H   0  0  0  0  0  0  0  0  0  0  0  0
    2.8624    1.2309    0.2822 H   0  0  0  0  0  0  0  0  0  0  0  0
   -0.4952    3.7474    3.7110 H   0  0  0  0  0  0  0  0  0  0  0  0
    3.3432    4.1339    2.1409 H   0  0  0  0  0  0  0  0  0  0  0  0
   -1.3797    3.4367   -1.2220 H   0  0  0  0  0  0  0  0  0  0  0  0
   -1.6372    5.9439    3.4167 H   0  0  0  0  0  0  0  0  0  0  0  0
    1.7431    2.2149    3.4441 H   0  0  0  0  0  0  0  0  0  0  0  0
    0.2412   -1.5388   -1.1029 H   0  0  0  0  0  0  0  0  0  0  0  0
   -0.5415   -0.1443   -0.4105 H   0  0  0  0  0  0  0  0  0  0  0  0
   -2.7756    7.3671    1.3307 H   0  0  0  0  0  0  0  0  0  0  0  0
   -2.5168    5.2794   -2.3318 H   0  0  0  0  0  0  0  0  0  0  0  0
    4.3439    3.6615    4.0851 H   0  0  0  0  0  0  0  0  0  0  0  0
    3.6879    2.4390    5.1635 H   0  0  0  0  0  0  0  0  0  0  0  0
    0.8056   -2.4873    1.0491 H   0  0  0  0  0  0  0  0  0  0  0  0
    0.3010   -1.0347    1.9177 H   0  0  0  0  0  0  0  0  0  0  0  0
   -3.2168    7.2325   -1.0677 H   0  0  0  0  0  0  0  0  0  0  0  0
    5.2186    2.0720    2.3759 H   0  0  0  0  0  0  0  0  0  0  0  0
   -2.0339   -1.4247    1.4341 H   0  0  0  0  0  0  0  0  0  0  0  0
   -1.6589   -2.7583    0.3241 H   0  0  0  0  0  0  0  0  0  0  0  0
    5.5450   -0.5121    3.3282 H   0  0  0  0  0  0  0  0  0  0  0  0
    0.8700    4.4101    6.1588 H   0  0  0  0  0  0  0  0  0  0  0  0
    1.2443    2.8094    5.8190 H   0  0  0  0  0  0  0  0  0  0  0  0
   -0.8363   -2.8584    3.2673 H   0  0  0  0  0  0  0  0  0  0  0  0
   -0.8922   -4.1885    2.1060 H   0  0  0  0  0  0  0  0  0  0  0  0
    4.2168   -1.3486    1.4781 H   0  0  0  0  0  0  0  0  0  0  0  0
    5.1819   -0.3317    0.1282 H   0  0  0  0  0  0  0  0  0  0  0  0
   -3.4180   -4.0033    2.0813 H   0  0  0  0  0  0  0  0  0  0  0  0
   -3.3017   -2.7047    3.2808 H   0  0  0  0  0  0  0  0  0  0  0  0
    6.7056    1.3926    0.4607 H   0  0  0  0  0  0  0  0  0  0  0  0
   -2.1094   -4.3429    4.8346 H   0  0  0  0  0  0  0  0  0  0  0  0
   -2.4328   -5.6187    3.6529 H   0  0  0  0  0  0  0  0  0  0  0  0
    9.2909    0.2901    0.9196 H   0  0  0  0  0  0  0  0  0  0  0  0
    6.7950   -1.8568   -0.6937 H   0  0  0  0  0  0  0  0  0  0  0  0
   -4.8964   -5.2570    3.9545 H   0  0  0  0  0  0  0  0  0  0  0  0
   -4.5608   -3.9755    5.1289 H   0  0  0  0  0  0  0  0  0  0  0  0
    7.8450    0.5702   -1.3104 H   0  0  0  0  0  0  0  0  0  0  0  0
   -3.7760   -6.9269    5.4342 H   0  0  0  0  0  0  0  0  0  0  0  0
   -3.3846   -5.6556    6.5989 H   0  0  0  0  0  0  0  0  0  0  0  0
    8.8259    2.0737   -2.9204 H   0  0  0  0  0  0  0  0  0  0  0  0
    9.7859    2.8823   -1.6706 H   0  0  0  0  0  0  0  0  0  0  0  0
    8.0048    3.0073   -1.6680 H   0  0  0  0  0  0  0  0  0  0  0  0
    8.2567    3.6353    0.1978 H   0  0  0  0  0  0  0  0  0  0  0  0
   -6.2149   -6.5667    5.8632 H   0  0  0  0  0  0  0  0  0  0  0  0
   -5.8147   -5.2908    7.0353 H   0  0  0  0  0  0  0  0  0  0  0  0
   -5.3335   -6.9669    7.3477 H   0  0  0  0  0  0  0  0  0  0  0  0
    9.8116    4.6867    2.4553 H   0  0  0  0  0  0  0  0  0  0  0  0
    9.7547    5.4947    0.8695 H   0  0  0  0  0  0  0  0  0  0  0  0
   12.4131   -1.4872   -1.0624 H   0  0  0  0  0  0  0  0  0  0  0  0
   12.5916    0.1075   -3.6756 H   0  0  0  0  0  0  0  0  0  0  0  0
   13.5851    0.4857   -2.2765 H   0  0  0  0  0  0  0  0  0  0  0  0
   11.2132   -1.7240   -3.6350 H   0  0  0  0  0  0  0  0  0  0  0  0
    7.5775    5.9395   -0.0225 H   0  0  0  0  0  0  0  0  0  0  0  0
    5.2814    5.2428    1.5975 H   0  0  0  0  0  0  0  0  0  0  0  0
    8.3583   -3.4479   -2.6021 H   0  0  0  0  0  0  0  0  0  0  0  0
    4.0484    7.2917    0.8939 H   0  0  0  0  0  0  0  0  0  0  0  0
    5.5822    8.0131    0.3739 H   0  0  0  0  0  0  0  0  0  0  0  0
   14.1208    0.0047   -5.4802 H   0  0  0  0  0  0  0  0  0  0  0  0
    9.2157   -5.1597   -4.4421 H   0  0  0  0  0  0  0  0  0  0  0  0
    8.0275   -2.2699   -4.2253 H   0  0  0  0  0  0  0  0  0  0  0  0
    6.5060    7.8855    2.6168 H   0  0  0  0  0  0  0  0  0  0  0  0
    5.0604    7.0502    3.2235 H   0  0  0  0  0  0  0  0  0  0  0  0
    4.9991    4.9758   -2.4222 H   0  0  0  0  0  0  0  0  0  0  0  0
   14.3396   -3.8715   -2.7516 H   0  0  0  0  0  0  0  0  0  0  0  0
   14.5912   -5.1021   -3.8586 H   0  0  0  0  0  0  0  0  0  0  0  0
   14.6683   -4.7716   -6.1546 H   0  0  0  0  0  0  0  0  0  0  0  0
   14.3102   -0.8865   -7.7008 H   0  0  0  0  0  0  0  0  0  0  0  0
   11.7068   -4.4293   -4.1068 H   0  0  0  0  0  0  0  0  0  0  0  0
   11.6332   -5.2491   -2.5646 H   0  0  0  0  0  0  0  0  0  0  0  0
    7.9230   -5.7943   -2.4508 H   0  0  0  0  0  0  0  0  0  0  0  0
    9.3860   -5.7439   -1.4496 H   0  0  0  0  0  0  0  0  0  0  0  0
    9.2150   -6.9590   -2.7303 H   0  0  0  0  0  0  0  0  0  0  0  0
    4.9325    9.8606    2.0031 H   0  0  0  0  0  0  0  0  0  0  0  0
    3.6972    9.0348    2.9745 H   0  0  0  0  0  0  0  0  0  0  0  0
    4.6432    7.6323   -1.6906 H   0  0  0  0  0  0  0  0  0  0  0  0
   14.5840   -3.2727   -8.0458 H   0  0  0  0  0  0  0  0  0  0  0  0
    9.2807   -1.9481   -7.4191 H   0  0  0  0  0  0  0  0  0  0  0  0
    5.1978    9.0865    4.8060 H   0  0  0  0  0  0  0  0  0  0  0  0
    4.8800   10.6000    4.2376 H   0  0  0  0  0  0  0  0  0  0  0  0
    7.3850    7.0127   -2.9646 H   0  0  0  0  0  0  0  0  0  0  0  0
    7.1892    7.5026   -1.2978 H   0  0  0  0  0  0  0  0  0  0  0  0
   12.3943   -8.3155   -4.0965 H   0  0  0  0  0  0  0  0  0  0  0  0
    7.1625   -0.8196   -5.5126 H   0  0  0  0  0  0  0  0  0  0  0  0
    7.0350   -2.3585   -6.3951 H   0  0  0  0  0  0  0  0  0  0  0  0
    9.8061    0.1586   -5.4705 H   0  0  0  0  0  0  0  0  0  0  0  0
    6.1467    5.6605   -4.3138 H   0  0  0  0  0  0  0  0  0  0  0  0
    5.9982   -0.6977   -7.4396 H   0  0  0  0  0  0  0  0  0  0  0  0
    7.9469    8.8056   -4.3184 H   0  0  0  0  0  0  0  0  0  0  0  0
    4.1738    6.6458   -6.2421 H   0  0  0  0  0  0  0  0  0  0  0  0
   11.4541    2.0585   -7.7001 H   0  0  0  0  0  0  0  0  0  0  0  0
   10.7778    2.0549   -6.0717 H   0  0  0  0  0  0  0  0  0  0  0  0
    3.7047    4.3010   -6.8964 H   0  0  0  0  0  0  0  0  0  0  0  0
    4.7452    3.7048   -5.5840 H   0  0  0  0  0  0  0  0  0  0  0  0
    3.2569    4.5948   -5.2111 H   0  0  0  0  0  0  0  0  0  0  0  0
    9.2580    2.9063   -8.4521 H   0  0  0  0  0  0  0  0  0  0  0  0
    7.2394    4.8023   -5.7034 H   0  0  0  0  0  0  0  0  0  0  0  0
    7.9918    4.7193   -8.4117 H   0  0  0  0  0  0  0  0  0  0  0  0
    8.3467    7.1802   -8.0919 H   0  0  0  0  0  0  0  0  0  0  0  0
    9.3714    6.8657   -6.6977 H   0  0  0  0  0  0  0  0  0  0  0  0
   11.6181    6.9290   -7.2251 H   0  0  0  0  0  0  0  0  0  0  0  0
  2  1  1  0  0  0  0 
  1  3  1  0  0  0  0 
  2  4  1  0  0  0  0 
  2  5  1  0  0  0  0 
  3  6  1  0  0  0  0 
  3  7  2  0  0  0  0 
  4  8  1  0  0  0  0 
  4  9  2  0  0  0  0 
  5 10  1  0  0  0  0 
  6 11  1  0  0  0  0 
  6 12  2  0  0  0  0 
  7 13  1  0  0  0  0 
 14  8  1  0  0  0  0 
 10 15  1  0  0  0  0 
 10 16  2  0  0  0  0 
 11 13  1  0  0  0  0 
 11 17  2  0  0  0  0 
 12 18  1  0  0  0  0 
 14 19  1  0  0  0  0 
 14 20  1  0  0  0  0 
 15 21  1  0  0  0  0 
 17 22  1  0  0  0  0 
 18 22  2  0  0  0  0 
 19 23  1  0  0  0  0 
 19 24  2  0  0  0  0 
 20 25  1  0  0  0  0 
 21 26  1  0  0  0  0 
 27 23  1  0  0  0  0 
 25 28  1  0  0  0  0 
 25 29  2  0  0  0  0 
 26 30  1  0  0  0  0 
 27 31  1  0  0  0  0 
 27 32  1  0  0  0  0 
 30 33  1  0  0  0  0 
 31 34  1  0  0  0  0 
 31 35  2  0  0  0  0 
 32 36  1  0  0  0  0 
 33 37  1  0  0  0  0 
 36 39  1  0  0  0  0 
 36 40  2  0  0  0  0 
 37 41  1  0  0  0  0 
 38 34  1  0  0  0  0 
 38 42  1  0  0  0  0 
 38 43  1  0  0  0  0 
 41 44  1  0  0  0  0 
 42 45  1  0  0  0  0 
 42 46  1  0  0  0  0 
 43 47  2  0  0  0  0 
 43 48  1  0  0  0  0 
 44 49  1  0  0  0  0 
 46 50  1  0  0  0  0 
 48 51  1  0  0  0  0 
 50 52  2  0  0  0  0 
 53 50  1  0  0  0  0 
 51 54  1  0  0  0  0 
 53 55  1  0  0  0  0 
 53 56  1  0  0  0  0 
 54 57  2  0  0  0  0 
 54 58  1  0  0  0  0 
 55 59  1  0  0  0  0 
 56 60  1  0  0  0  0 
 61 58  1  0  0  0  0 
 59 62  2  0  0  0  0 
 59 63  1  0  0  0  0 
 60 64  2  0  0  0  0 
 65 60  1  0  0  0  0 
 61 66  1  0  0  0  0 
 61 67  1  0  0  0  0 
 63 68  2  0  0  0  0 
 63 69  1  0  0  0  0 
 65 70  1  0  0  0  0 
 65 71  1  0  0  0  0 
 66 72  1  0  0  0  0 
 67 73  2  0  0  0  0 
 67 74  1  0  0  0  0 
 68 75  1  0  0  0  0 
 68 76  1  0  0  0  0 
 69 77  2  0  0  0  0 
 70 78  1  0  0  0  0 
 70 79  1  0  0  0  0 
 71 80  1  0  0  0  0 
 72 81  1  0  0  0  0 
 82 74  1  0  0  0  0 
 76 83  2  0  0  0  0 
 77 83  1  0  0  0  0 
 78 84  1  0  0  0  0 
 80 85  2  0  0  0  0 
 86 80  1  0  0  0  0 
 81 87  1  0  0  0  0 
 82 88  1  0  0  0  0 
 82 89  1  0  0  0  0 
 84 90  1  0  0  0  0 
 84 91  2  0  0  0  0 
 86 92  1  0  0  0  0 
 86 93  1  0  0  0  0 
 88 94  1  0  0  0  0 
 89 95  2  0  0  0  0 
 89 96  1  0  0  0  0 
 92 97  1  0  0  0  0 
 93 98  1  0  0  0  0 
 94 99  1  0  0  0  0 
 94100  2  0  0  0  0 
101 96  1  0  0  0  0 
 98102  2  0  0  0  0 
 98103  1  0  0  0  0 
101104  1  0  0  0  0 
101105  1  0  0  0  0 
103106  1  0  0  0  0 
105107  2  0  0  0  0 
105108  1  0  0  0  0 
106109  1  0  0  0  0 
110108  1  0  0  0  0 
110109  1  0  0  0  0 
109111  2  0  0  0  0 
110112  1  0  0  0  0 
112113  1  0  0  0  0 
113114  1  0  0  0  0 
113115  2  0  0  0  0 
116  1  1  0  0  0  0 
117  1  1  0  0  0  0 
  2118  1  0  0  0  0 
119  5  1  0  0  0  0 
120  7  1  0  0  0  0 
121  8  1  0  0  0  0 
122 12  1  0  0  0  0 
123 13  1  0  0  0  0 
 14124  1  0  0  0  0 
125 15  1  0  0  0  0 
126 15  1  0  0  0  0 
127 17  1  0  0  0  0 
128 18  1  0  0  0  0 
129 20  1  0  0  0  0 
130 20  1  0  0  0  0 
131 21  1  0  0  0  0 
132 21  1  0  0  0  0 
133 22  1  0  0  0  0 
134 23  1  0  0  0  0 
135 26  1  0  0  0  0 
136 26  1  0  0  0  0 
 27137  1  0  0  0  0 
138 28  1  0  0  0  0 
139 28  1  0  0  0  0 
140 30  1  0  0  0  0 
141 30  1  0  0  0  0 
142 32  1  0  0  0  0 
143 32  1  0  0  0  0 
144 33  1  0  0  0  0 
145 33  1  0  0  0  0 
146 34  1  0  0  0  0 
147 37  1  0  0  0  0 
148 37  1  0  0  0  0 
 38149  1  0  0  0  0 
150 39  1  0  0  0  0 
151 41  1  0  0  0  0 
152 41  1  0  0  0  0 
 42153  1  0  0  0  0 
154 44  1  0  0  0  0 
155 44  1  0  0  0  0 
156 45  1  0  0  0  0 
157 45  1  0  0  0  0 
158 45  1  0  0  0  0 
159 48  1  0  0  0  0 
160 49  1  0  0  0  0 
161 49  1  0  0  0  0 
162 49  1  0  0  0  0 
163 51  1  0  0  0  0 
164 51  1  0  0  0  0 
 53165  1  0  0  0  0 
166 55  1  0  0  0  0 
167 55  1  0  0  0  0 
168 56  1  0  0  0  0 
169 58  1  0  0  0  0 
 61170  1  0  0  0  0 
 65171  1  0  0  0  0 
172 66  1  0  0  0  0 
173 66  1  0  0  0  0 
174 69  1  0  0  0  0 
 70175  1  0  0  0  0 
176 71  1  0  0  0  0 
177 72  1  0  0  0  0 
178 72  1  0  0  0  0 
179 74  1  0  0  0  0 
180 75  1  0  0  0  0 
181 75  1  0  0  0  0 
182 76  1  0  0  0  0 
183 77  1  0  0  0  0 
184 78  1  0  0  0  0 
185 78  1  0  0  0  0 
186 79  1  0  0  0  0 
187 79  1  0  0  0  0 
188 79  1  0  0  0  0 
189 81  1  0  0  0  0 
190 81  1  0  0  0  0 
 82191  1  0  0  0  0 
192 83  1  0  0  0  0 
 86193  1  0  0  0  0 
194 87  1  0  0  0  0 
195 87  1  0  0  0  0 
196 88  1  0  0  0  0 
197 88  1  0  0  0  0 
198 90  1  0  0  0  0 
199 92  1  0  0  0  0 
200 92  1  0  0  0  0 
201 93  1  0  0  0  0 
202 96  1  0  0  0  0 
203 97  1  0  0  0  0 
204 99  1  0  0  0  0 
101205  1  0  0  0  0 
206103  1  0  0  0  0 
207103  1  0  0  0  0 
208104  1  0  0  0  0 
209104  1  0  0  0  0 
210104  1  0  0  0  0 
211106  1  0  0  0  0 
212108  1  0  0  0  0 
110213  1  0  0  0  0 
214112  1  0  0  0  0 
215112  1  0  0  0  0 
216114  1  0  0  0  0 
M  END
> <cdk:Title>
daptomycin

> <Conformer>
1

> <SuperDrugID>
SD000690

$$$$
