methylclothiazide
  CDK     0628171801

 31 32  0  0  0  0  0  0  0  0999 V2000
   -3.0427    3.7216    5.7830 C   0  0  0  0  0  0  0  0  0  0  0  0
   -2.4683    2.4800    5.1916 N   0  0  1  0  0  0  0  0  0  0  0  0
   -2.9018    1.1815    5.8150 C   0  0  2  0  0  0  0  0  0  0  0  0
   -2.4505    1.0493    7.2987 C   0  0  2  0  0  0  0  0  0  0  0  0
   -0.6990    1.1517    7.4784 Cl  0  0  0  0  0  0  0  0  0  0  0  0
   -2.4279   -0.0072    5.1490 N   0  0  0  0  0  0  0  0  0  0  0  0
   -2.0221   -0.1426    3.8527 C   0  0  0  0  0  0  0  0  0  0  0  0
   -1.4891   -1.3842    3.4561 C   0  0  0  0  0  0  0  0  0  0  0  0
   -1.0547   -1.6015    2.1325 C   0  0  0  0  0  0  0  0  0  0  0  0
   -0.4269   -3.1373    1.7690 Cl  0  0  0  0  0  0  0  0  0  0  0  0
   -1.1444   -0.5557    1.1782 C   0  0  0  0  0  0  0  0  0  0  0  0
   -1.6788    0.6902    1.5753 C   0  0  0  0  0  0  0  0  0  0  0  0
   -2.1122    0.8914    2.9001 C   0  0  0  0  0  0  0  0  0  0  0  0
   -2.7516    2.4395    3.4437 S   0  0  2  0  0  0  0  0  0  0  0  0
   -1.9808    3.6606    2.7478 O   0  0  0  0  0  0  0  0  0  0  0  0
   -4.3247    2.5330    3.1464 O   0  0  0  0  0  0  0  0  0  0  0  0
   -0.5771   -0.7529   -0.4947 S   0  0  2  0  0  0  0  0  0  0  0  0
    1.1786   -0.8495   -0.5092 N   0  0  2  0  0  0  0  0  0  0  0  0
   -1.0142    0.4826   -1.4196 O   0  0  0  0  0  0  0  0  0  0  0  0
   -1.1562   -2.1035   -1.1388 O   0  0  0  0  0  0  0  0  0  0  0  0
   -2.6771    4.6030    5.2522 H   0  0  0  0  0  0  0  0  0  0  0  0
   -2.7350    3.8393    6.8221 H   0  0  0  0  0  0  0  0  0  0  0  0
   -4.1345    3.7107    5.7382 H   0  0  0  0  0  0  0  0  0  0  0  0
   -3.9948    1.1259    5.7952 H   0  0  0  0  0  0  0  0  0  0  0  0
   -2.7746    0.0884    7.7040 H   0  0  0  0  0  0  0  0  0  0  0  0
   -2.9080    1.8216    7.9175 H   0  0  0  0  0  0  0  0  0  0  0  0
   -2.3998   -0.8147    5.6875 H   0  0  0  0  0  0  0  0  0  0  0  0
   -1.4119   -2.1396    4.1425 H   0  0  0  0  0  0  0  0  0  0  0  0
   -1.7441    1.4593    0.9053 H   0  0  0  0  0  0  0  0  0  0  0  0
    1.4611   -1.0056   -1.4793 H   0  0  0  0  0  0  0  0  0  0  0  0
    1.4352   -1.6908    0.0112 H   0  0  0  0  0  0  0  0  0  0  0  0
  1  2  1  0  0  0  0 
  2  3  1  0  0  0  0 
  3  4  1  0  0  0  0 
  4  5  1  0  0  0  0 
  3  6  1  0  0  0  0 
  6  7  1  0  0  0  0 
  7  8  2  0  0  0  0 
  8  9  1  0  0  0  0 
  9 10  1  0  0  0  0 
  9 11  2  0  0  0  0 
 11 12  1  0  0  0  0 
 12 13  2  0  0  0  0 
  7 13  1  0  0  0  0 
 13 14  1  0  0  0  0 
  2 14  1  0  0  0  0 
 14 15  2  0  0  0  0 
 14 16  2  0  0  0  0 
 11 17  1  0  0  0  0 
 17 18  1  0  0  0  0 
 17 19  2  0  0  0  0 
 17 20  2  0  0  0  0 
  1 21  1  0  0  0  0 
  1 22  1  0  0  0  0 
  1 23  1  0  0  0  0 
  3 24  1  0  0  0  0 
  4 25  1  0  0  0  0 
  4 26  1  0  0  0  0 
  6 27  1  0  0  0  0 
  8 28  1  0  0  0  0 
 12 29  1  0  0  0  0 
 18 30  1  0  0  0  0 
 18 31  1  0  0  0  0 
M  END
> <cdk:Title>
methylclothiazide

> <Conformer>
1

> <SuperDrugID>
SD001559

$$$$
