tafamidis
  CDK     0628171801

 27 29  0  0  0  0  0  0  0  0999 V2000
    5.5765    1.2200   -0.5969 C   0  0  0  0  0  0  0  0  0  0  0  0
    6.1030    0.7794    0.6482 C   0  0  0  0  0  0  0  0  0  0  0  0
    5.2052    0.2303    1.6094 C   0  0  0  0  0  0  0  0  0  0  0  0
    3.8211    0.1264    1.3495 C   0  0  0  0  0  0  0  0  0  0  0  0
    4.1980    1.1009   -0.8411 C   0  0  0  0  0  0  0  0  0  0  0  0
    3.4632    1.4502   -1.9147 O   0  0  0  0  0  0  0  0  0  0  0  0
    3.3393    0.5701    0.1095 C   0  0  0  0  0  0  0  0  0  0  0  0
    2.0912    0.5980   -0.3759 N   0  0  0  0  0  0  0  0  0  0  0  0
    2.1709    1.1411   -1.6114 C   0  0  0  0  0  0  0  0  0  0  0  0
    1.0696    1.3858   -2.4720 C   0  0  0  0  0  0  0  0  0  0  0  0
    0.2051    2.2652   -4.5958 C   0  0  0  0  0  0  0  0  0  0  0  0
    1.2861    1.9586   -3.7465 C   0  0  0  0  0  0  0  0  0  0  0  0
   -0.2599    1.0849   -2.0851 C   0  0  0  0  0  0  0  0  0  0  0  0
   -1.3460    1.3891   -2.9314 C   0  0  0  0  0  0  0  0  0  0  0  0
   -1.1114    1.9961   -4.1790 C   0  0  0  0  0  0  0  0  0  0  0  0
    7.4923    0.8906    0.9272 C   0  0  0  0  0  0  0  0  0  0  0  0
    7.9646    0.6256    2.0572 O   0  0  0  0  0  0  0  0  0  0  0  0
    8.3778    1.2885   -0.0192 O   0  0  0  0  0  0  0  0  0  0  0  0
    0.4855    2.9636   -6.1120 Cl  0  0  0  0  0  0  0  0  0  0  0  0
   -2.9312    1.0297   -2.4533 Cl  0  0  0  0  0  0  0  0  0  0  0  0
    6.1735    1.6347   -1.3151 H   0  0  0  0  0  0  0  0  0  0  0  0
    5.5471   -0.1025    2.5153 H   0  0  0  0  0  0  0  0  0  0  0  0
    3.1826   -0.2584    2.0499 H   0  0  0  0  0  0  0  0  0  0  0  0
    2.2379    2.1590   -4.0628 H   0  0  0  0  0  0  0  0  0  0  0  0
   -0.4470    0.6463   -1.1800 H   0  0  0  0  0  0  0  0  0  0  0  0
   -1.8984    2.2427   -4.7841 H   0  0  0  0  0  0  0  0  0  0  0  0
    9.3340    1.3450    0.1898 H   0  0  0  0  0  0  0  0  0  0  0  0
  1  2  1  0  0  0  0 
  2  3  2  0  0  0  0 
  3  4  1  0  0  0  0 
  4  7  2  0  0  0  0 
  1  5  2  0  0  0  0 
  6  5  1  0  0  0  0 
  7  8  1  0  0  0  0 
  8  9  2  0  0  0  0 
  6  9  1  0  0  0  0 
  5  7  1  0  0  0  0 
  9 10  1  0  0  0  0 
 12 10  2  0  0  0  0 
 10 13  1  0  0  0  0 
 11 12  1  0  0  0  0 
 13 14  2  0  0  0  0 
 14 15  1  0  0  0  0 
 11 15  2  0  0  0  0 
  2 16  1  0  0  0  0 
 16 17  2  0  0  0  0 
 16 18  1  0  0  0  0 
 11 19  1  0  0  0  0 
 14 20  1  0  0  0  0 
  1 21  1  0  0  0  0 
  3 22  1  0  0  0  0 
  4 23  1  0  0  0  0 
 12 24  1  0  0  0  0 
 13 25  1  0  0  0  0 
 15 26  1  0  0  0  0 
 18 27  1  0  0  0  0 
M  END
> <cdk:Title>
tafamidis

> <Conformer>
1

> <SuperDrugID>
SD003422

$$$$
