amtolmetin guacil
  CDK     0628171801

 55 57  0  0  0  0  0  0  0  0999 V2000
   -0.5229   -7.8156   -4.1813 C   0  0  0  0  0  0  0  0  0  0  0  0
   -0.3248   -8.9796   -3.7625 O   0  0  0  0  0  0  0  0  0  0  0  0
    0.5281   -6.8537   -4.0921 C   0  0  0  0  0  0  0  0  0  0  0  0
   -1.7995   -7.5617   -4.7509 C   0  0  0  0  0  0  0  0  0  0  0  0
    1.6854   -6.9288   -3.3688 N   0  0  0  0  0  0  0  0  0  0  0  0
    0.5497   -5.6450   -4.7942 C   0  0  0  0  0  0  0  0  0  0  0  0
   -2.5466   -6.4087   -4.4150 C   0  0  0  0  0  0  0  0  0  0  0  0
   -2.3667   -8.4856   -5.6611 C   0  0  0  0  0  0  0  0  0  0  0  0
    2.0725   -8.0214   -2.5146 C   0  0  0  0  0  0  0  0  0  0  0  0
    2.4251   -5.8088   -3.5982 C   0  0  0  0  0  0  0  0  0  0  0  0
    1.7248   -4.9927   -4.4822 C   0  0  0  0  0  0  0  0  0  0  0  0
   -3.8069   -6.1727   -4.9927 C   0  0  0  0  0  0  0  0  0  0  0  0
   -3.6318   -8.2562   -6.2315 C   0  0  0  0  0  0  0  0  0  0  0  0
    3.7559   -5.4646   -3.0409 C   0  0  2  0  0  0  0  0  0  0  0  0
   -4.3621   -7.0903   -5.9114 C   0  0  0  0  0  0  0  0  0  0  0  0
    3.6277   -4.9655   -1.6561 C   0  0  0  0  0  0  0  0  0  0  0  0
   -5.6841   -6.8133   -6.5170 C   0  0  0  0  0  0  0  0  0  0  0  0
    3.0839   -3.7368   -1.4540 N   0  0  0  0  0  0  0  0  0  0  0  0
    4.0220   -5.6724   -0.6987 O   0  0  0  0  0  0  0  0  0  0  0  0
    2.8443   -3.1208   -0.1908 C   0  0  1  0  0  0  0  0  0  0  0  0
    2.9145   -1.6609   -0.3679 C   0  0  0  0  0  0  0  0  0  0  0  0
    1.7798   -0.9042   -0.2275 O   0  0  0  0  0  0  0  0  0  0  0  0
    4.0353   -1.1480   -0.5960 O   0  0  0  0  0  0  0  0  0  0  0  0
    1.5492    0.4245   -0.4863 C   0  0  0  0  0  0  0  0  0  0  0  0
    0.4544    1.0471    0.1612 C   0  0  0  0  0  0  0  0  0  0  0  0
    2.3232    1.1783   -1.4020 C   0  0  0  0  0  0  0  0  0  0  0  0
   -0.2932    0.3657    1.0889 O   0  0  0  0  0  0  0  0  0  0  0  0
    0.1563    2.4016   -0.1064 C   0  0  0  0  0  0  0  0  0  0  0  0
    2.0263    2.5284   -1.6578 C   0  0  0  0  0  0  0  0  0  0  0  0
   -1.5014   -0.2087    0.5590 C   0  0  0  0  0  0  0  0  0  0  0  0
    0.9413    3.1406   -1.0096 C   0  0  0  0  0  0  0  0  0  0  0  0
   -0.1603   -5.2930   -5.4400 H   0  0  0  0  0  0  0  0  0  0  0  0
   -2.1837   -5.7309   -3.7419 H   0  0  0  0  0  0  0  0  0  0  0  0
   -1.8613   -9.3357   -5.9250 H   0  0  0  0  0  0  0  0  0  0  0  0
    2.9802   -7.8326   -1.9463 H   0  0  0  0  0  0  0  0  0  0  0  0
    2.2468   -8.9094   -3.1227 H   0  0  0  0  0  0  0  0  0  0  0  0
    1.2823   -8.2271   -1.7938 H   0  0  0  0  0  0  0  0  0  0  0  0
    2.0149   -4.0813   -4.8430 H   0  0  0  0  0  0  0  0  0  0  0  0
   -4.3188   -5.3245   -4.7356 H   0  0  0  0  0  0  0  0  0  0  0  0
   -4.0108   -8.9461   -6.8862 H   0  0  0  0  0  0  0  0  0  0  0  0
    4.2399   -4.6926   -3.6445 H   0  0  0  0  0  0  0  0  0  0  0  0
    4.4003   -6.3439   -3.0877 H   0  0  0  0  0  0  0  0  0  0  0  0
   -6.0075   -7.6173   -7.1824 H   0  0  0  0  0  0  0  0  0  0  0  0
   -6.4304   -6.6970   -5.7290 H   0  0  0  0  0  0  0  0  0  0  0  0
   -5.6310   -5.8891   -7.0971 H   0  0  0  0  0  0  0  0  0  0  0  0
    2.8226   -3.2343   -2.2435 H   0  0  0  0  0  0  0  0  0  0  0  0
    1.8456   -3.4096    0.1431 H   0  0  0  0  0  0  0  0  0  0  0  0
    3.5704   -3.4324    0.5679 H   0  0  0  0  0  0  0  0  0  0  0  0
    3.0968    0.7496   -1.9097 H   0  0  0  0  0  0  0  0  0  0  0  0
   -0.6340    2.8560    0.3573 H   0  0  0  0  0  0  0  0  0  0  0  0
    2.5951    3.0618   -2.3204 H   0  0  0  0  0  0  0  0  0  0  0  0
   -2.0331   -0.7006    1.3748 H   0  0  0  0  0  0  0  0  0  0  0  0
   -2.1598    0.5558    0.1407 H   0  0  0  0  0  0  0  0  0  0  0  0
   -1.2797   -0.9594   -0.2021 H   0  0  0  0  0  0  0  0  0  0  0  0
    0.7245    4.1222   -1.1956 H   0  0  0  0  0  0  0  0  0  0  0  0
  1  2  2  0  0  0  0 
  1  3  1  0  0  0  0 
  1  4  1  0  0  0  0 
  3  5  1  0  0  0  0 
  3  6  2  0  0  0  0 
  4  7  2  0  0  0  0 
  4  8  1  0  0  0  0 
  5  9  1  0  0  0  0 
  5 10  1  0  0  0  0 
  6 11  1  0  0  0  0 
  7 12  1  0  0  0  0 
  8 13  2  0  0  0  0 
 10 11  2  0  0  0  0 
 10 14  1  0  0  0  0 
 12 15  2  0  0  0  0 
 13 15  1  0  0  0  0 
 14 16  1  0  0  0  0 
 15 17  1  0  0  0  0 
 16 18  1  0  0  0  0 
 16 19  2  0  0  0  0 
 18 20  1  0  0  0  0 
 20 21  1  0  0  0  0 
 21 22  1  0  0  0  0 
 21 23  2  0  0  0  0 
 22 24  1  0  0  0  0 
 24 25  2  0  0  0  0 
 24 26  1  0  0  0  0 
 25 27  1  0  0  0  0 
 25 28  1  0  0  0  0 
 26 29  2  0  0  0  0 
 27 30  1  0  0  0  0 
 28 31  2  0  0  0  0 
 29 31  1  0  0  0  0 
  6 32  1  0  0  0  0 
  7 33  1  0  0  0  0 
  8 34  1  0  0  0  0 
  9 35  1  0  0  0  0 
  9 36  1  0  0  0  0 
  9 37  1  0  0  0  0 
 11 38  1  0  0  0  0 
 12 39  1  0  0  0  0 
 13 40  1  0  0  0  0 
 14 41  1  0  0  0  0 
 14 42  1  0  0  0  0 
 17 43  1  0  0  0  0 
 17 44  1  0  0  0  0 
 17 45  1  0  0  0  0 
 18 46  1  0  0  0  0 
 20 47  1  0  0  0  0 
 20 48  1  0  0  0  0 
 26 49  1  0  0  0  0 
 28 50  1  0  0  0  0 
 29 51  1  0  0  0  0 
 30 52  1  0  0  0  0 
 30 53  1  0  0  0  0 
 30 54  1  0  0  0  0 
 31 55  1  0  0  0  0 
M  END
> <cdk:Title>
amtolmetin guacil

> <Conformer>
1

> <SuperDrugID>
SD000169

$$$$
