warfarin
  CDK     0628171801

 39 41  0  0  0  0  0  0  0  0999 V2000
   -1.4717   -0.1108    1.5129 C   0  0  1  0  0  0  0  0  0  0  0  0
    0.0653   -0.2850    1.2598 C   0  0  2  0  0  0  0  0  0  0  0  0
   -2.3911   -0.4466    0.3604 C   0  0  0  0  0  0  0  0  0  0  0  0
   -1.9269   -0.7882    2.7757 C   0  0  0  0  0  0  0  0  0  0  0  0
    0.5503    0.3685    0.0152 C   0  0  0  0  0  0  0  0  0  0  0  0
   -3.5470    0.3437    0.0960 C   0  0  0  0  0  0  0  0  0  0  0  0
   -2.1754   -1.5546   -0.5003 C   0  0  0  0  0  0  0  0  0  0  0  0
   -1.9757   -2.2011    2.8897 C   0  0  0  0  0  0  0  0  0  0  0  0
   -2.3368   -0.0217    3.8975 C   0  0  0  0  0  0  0  0  0  0  0  0
    0.5667    1.8377   -0.1361 C   0  0  0  0  0  0  0  0  0  0  0  0
    0.9768   -0.3360   -0.9306 O   0  0  0  0  0  0  0  0  0  0  0  0
   -3.8370    1.4055    0.8936 O   0  0  0  0  0  0  0  0  0  0  0  0
   -4.4259    0.0502   -0.9763 C   0  0  0  0  0  0  0  0  0  0  0  0
   -1.2225   -2.3564   -0.3880 O   0  0  0  0  0  0  0  0  0  0  0  0
   -3.0290   -1.8172   -1.5253 O   0  0  0  0  0  0  0  0  0  0  0  0
   -2.4266   -2.8228    4.0690 C   0  0  0  0  0  0  0  0  0  0  0  0
   -2.7786   -0.6402    5.0812 C   0  0  0  0  0  0  0  0  0  0  0  0
   -4.1306   -1.0675   -1.7940 C   0  0  0  0  0  0  0  0  0  0  0  0
   -5.5847    0.8112   -1.2698 C   0  0  0  0  0  0  0  0  0  0  0  0
   -2.8240   -2.0416    5.1671 C   0  0  0  0  0  0  0  0  0  0  0  0
   -4.9626   -1.4182   -2.8737 C   0  0  0  0  0  0  0  0  0  0  0  0
   -6.4222    0.4581   -2.3458 C   0  0  0  0  0  0  0  0  0  0  0  0
   -6.1113   -0.6542   -3.1471 C   0  0  0  0  0  0  0  0  0  0  0  0
   -1.5554    0.9666    1.6781 H   0  0  0  0  0  0  0  0  0  0  0  0
    0.3275   -1.3449    1.2450 H   0  0  0  0  0  0  0  0  0  0  0  0
    0.6200    0.1463    2.0988 H   0  0  0  0  0  0  0  0  0  0  0  0
   -1.6892   -2.7962    2.1135 H   0  0  0  0  0  0  0  0  0  0  0  0
   -2.3201    1.0009    3.8637 H   0  0  0  0  0  0  0  0  0  0  0  0
    0.9741    2.1276   -1.1079 H   0  0  0  0  0  0  0  0  0  0  0  0
    1.1856    2.2827    0.6471 H   0  0  0  0  0  0  0  0  0  0  0  0
   -0.4457    2.2402   -0.0620 H   0  0  0  0  0  0  0  0  0  0  0  0
   -3.4108    2.1725    0.4552 H   0  0  0  0  0  0  0  0  0  0  0  0
   -2.4685   -3.8428    4.1274 H   0  0  0  0  0  0  0  0  0  0  0  0
   -3.0706   -0.0700    5.8785 H   0  0  0  0  0  0  0  0  0  0  0  0
   -5.8318    1.6271   -0.7062 H   0  0  0  0  0  0  0  0  0  0  0  0
   -3.1495   -2.4911    6.0265 H   0  0  0  0  0  0  0  0  0  0  0  0
   -4.7375   -2.2275   -3.4583 H   0  0  0  0  0  0  0  0  0  0  0  0
   -7.2583    1.0103   -2.5466 H   0  0  0  0  0  0  0  0  0  0  0  0
   -6.7218   -0.9100   -3.9266 H   0  0  0  0  0  0  0  0  0  0  0  0
  1  2  1  0  0  0  0 
  1  3  1  0  0  0  0 
  1  4  1  0  0  0  0 
  2  5  1  0  0  0  0 
  3  6  2  0  0  0  0 
  3  7  1  0  0  0  0 
  4  8  2  0  0  0  0 
  4  9  1  0  0  0  0 
  5 10  1  0  0  0  0 
  5 11  2  0  0  0  0 
  6 12  1  0  0  0  0 
  6 13  1  0  0  0  0 
  7 14  2  0  0  0  0 
  7 15  1  0  0  0  0 
  8 16  1  0  0  0  0 
  9 17  2  0  0  0  0 
 13 18  1  0  0  0  0 
 13 19  2  0  0  0  0 
 15 18  1  0  0  0  0 
 16 20  2  0  0  0  0 
 17 20  1  0  0  0  0 
 18 21  2  0  0  0  0 
 19 22  1  0  0  0  0 
 21 23  1  0  0  0  0 
 22 23  2  0  0  0  0 
  1 24  1  0  0  0  0 
  2 25  1  0  0  0  0 
  2 26  1  0  0  0  0 
  8 27  1  0  0  0  0 
  9 28  1  0  0  0  0 
 10 29  1  0  0  0  0 
 10 30  1  0  0  0  0 
 10 31  1  0  0  0  0 
 12 32  1  0  0  0  0 
 16 33  1  0  0  0  0 
 17 34  1  0  0  0  0 
 19 35  1  0  0  0  0 
 20 36  1  0  0  0  0 
 21 37  1  0  0  0  0 
 22 38  1  0  0  0  0 
 23 39  1  0  0  0  0 
M  END
> <cdk:Title>
warfarin

> <Conformer>
1

> <SuperDrugID>
SD002565

$$$$
