delmopinol
  CDK     0628171801

 52 52  0  0  0  0  0  0  0  0999 V2000
    1.6105    5.3703    1.7324 C   0  0  2  0  0  0  0  0  0  0  0  0
    0.9272    6.1299    0.5535 C   0  0  1  0  0  0  0  0  0  0  0  0
    3.1651    5.5679    1.8745 C   0  0  2  0  0  0  0  0  0  0  0  0
   -0.6313    6.1277    0.5803 C   0  0  1  0  0  0  0  0  0  0  0  0
    4.0177    4.5212    1.1784 N   0  0  1  0  0  0  0  0  0  0  0  0
    3.5135    5.6054    3.3988 C   0  0  2  0  0  0  0  0  0  0  0  0
   -1.3568    4.7574    0.8117 C   0  0  2  0  0  0  0  0  0  0  0  0
    3.7666    4.3999   -0.3013 C   0  0  1  0  0  0  0  0  0  0  0  0
    5.4726    4.6514    1.5276 C   0  0  1  0  0  0  0  0  0  0  0  0
    4.9231    5.7524    3.6382 O   0  0  0  0  0  0  0  0  0  0  0  0
   -0.9618    3.6311   -0.2074 C   0  0  2  0  0  0  0  0  0  0  0  0
   -2.9015    4.9851    0.9618 C   0  0  1  0  0  0  0  0  0  0  0  0
    4.6605    3.4186   -1.1023 C   0  0  1  0  0  0  0  0  0  0  0  0
    5.6888    4.6904    3.0553 C   0  0  1  0  0  0  0  0  0  0  0  0
   -1.4578    3.8084   -1.6694 C   0  0  2  0  0  0  0  0  0  0  0  0
   -3.6936    3.7442    1.4618 C   0  0  2  0  0  0  0  0  0  0  0  0
    4.1454    3.2352   -2.4182 O   0  0  0  0  0  0  0  0  0  0  0  0
   -1.0620    2.6256   -2.5855 C   0  0  0  0  0  0  0  0  0  0  0  0
   -5.1919    4.0280    1.7171 C   0  0  0  0  0  0  0  0  0  0  0  0
    1.4172    4.3012    1.6503 H   0  0  0  0  0  0  0  0  0  0  0  0
    1.1036    5.7060    2.6438 H   0  0  0  0  0  0  0  0  0  0  0  0
    1.2539    7.1760    0.5824 H   0  0  0  0  0  0  0  0  0  0  0  0
    1.2521    5.7262   -0.4021 H   0  0  0  0  0  0  0  0  0  0  0  0
    3.4335    6.5522    1.4725 H   0  0  0  0  0  0  0  0  0  0  0  0
   -0.9318    6.8105    1.3825 H   0  0  0  0  0  0  0  0  0  0  0  0
   -0.9873    6.5677   -0.3542 H   0  0  0  0  0  0  0  0  0  0  0  0
    3.1445    4.7031    3.8962 H   0  0  0  0  0  0  0  0  0  0  0  0
    3.0256    6.4655    3.8650 H   0  0  0  0  0  0  0  0  0  0  0  0
   -1.0210    4.4031    1.7903 H   0  0  0  0  0  0  0  0  0  0  0  0
    2.7494    4.0296   -0.4384 H   0  0  0  0  0  0  0  0  0  0  0  0
    3.8411    5.3860   -0.7726 H   0  0  0  0  0  0  0  0  0  0  0  0
    6.0406    3.7951    1.1594 H   0  0  0  0  0  0  0  0  0  0  0  0
    5.8877    5.5592    1.0786 H   0  0  0  0  0  0  0  0  0  0  0  0
   -1.3359    2.6761    0.1697 H   0  0  0  0  0  0  0  0  0  0  0  0
    0.1247    3.5332   -0.2346 H   0  0  0  0  0  0  0  0  0  0  0  0
   -3.0643    5.7843    1.6915 H   0  0  0  0  0  0  0  0  0  0  0  0
   -3.3242    5.3288    0.0146 H   0  0  0  0  0  0  0  0  0  0  0  0
    5.6717    3.8173   -1.1941 H   0  0  0  0  0  0  0  0  0  0  0  0
    4.7001    2.4491   -0.5984 H   0  0  0  0  0  0  0  0  0  0  0  0
    5.4176    3.7289    3.5012 H   0  0  0  0  0  0  0  0  0  0  0  0
    6.7435    4.8737    3.2714 H   0  0  0  0  0  0  0  0  0  0  0  0
   -1.0379    4.7251   -2.0889 H   0  0  0  0  0  0  0  0  0  0  0  0
   -2.5457    3.8902   -1.6873 H   0  0  0  0  0  0  0  0  0  0  0  0
   -3.2494    3.3905    2.3948 H   0  0  0  0  0  0  0  0  0  0  0  0
   -3.6242    2.9416    0.7258 H   0  0  0  0  0  0  0  0  0  0  0  0
    4.7744    2.6239   -2.8547 H   0  0  0  0  0  0  0  0  0  0  0  0
   -1.4967    1.6927   -2.2186 H   0  0  0  0  0  0  0  0  0  0  0  0
    0.0234    2.5178   -2.6290 H   0  0  0  0  0  0  0  0  0  0  0  0
   -1.4334    2.8043   -3.5957 H   0  0  0  0  0  0  0  0  0  0  0  0
   -5.6739    3.1241    2.0955 H   0  0  0  0  0  0  0  0  0  0  0  0
   -5.3163    4.8208    2.4568 H   0  0  0  0  0  0  0  0  0  0  0  0
   -5.6874    4.3242    0.7907 H   0  0  0  0  0  0  0  0  0  0  0  0
  1  2  1  0  0  0  0 
  3  1  1  0  0  0  0 
  2  4  1  0  0  0  0 
  3  5  1  0  0  0  0 
  3  6  1  0  0  0  0 
  4  7  1  0  0  0  0 
  5  8  1  0  0  0  0 
  5  9  1  0  0  0  0 
  6 10  1  0  0  0  0 
  7 11  1  0  0  0  0 
  7 12  1  0  0  0  0 
  8 13  1  0  0  0  0 
  9 14  1  0  0  0  0 
 10 14  1  0  0  0  0 
 11 15  1  0  0  0  0 
 12 16  1  0  0  0  0 
 13 17  1  0  0  0  0 
 15 18  1  0  0  0  0 
 16 19  1  0  0  0  0 
  1 20  1  0  0  0  0 
  1 21  1  0  0  0  0 
  2 22  1  0  0  0  0 
  2 23  1  0  0  0  0 
  3 24  1  0  0  0  0 
  4 25  1  0  0  0  0 
  4 26  1  0  0  0  0 
  6 27  1  0  0  0  0 
  6 28  1  0  0  0  0 
  7 29  1  0  0  0  0 
  8 30  1  0  0  0  0 
  8 31  1  0  0  0  0 
  9 32  1  0  0  0  0 
  9 33  1  0  0  0  0 
 11 34  1  0  0  0  0 
 11 35  1  0  0  0  0 
 12 36  1  0  0  0  0 
 12 37  1  0  0  0  0 
 13 38  1  0  0  0  0 
 13 39  1  0  0  0  0 
 14 40  1  0  0  0  0 
 14 41  1  0  0  0  0 
 15 42  1  0  0  0  0 
 15 43  1  0  0  0  0 
 16 44  1  0  0  0  0 
 16 45  1  0  0  0  0 
 17 46  1  0  0  0  0 
 18 47  1  0  0  0  0 
 18 48  1  0  0  0  0 
 18 49  1  0  0  0  0 
 19 50  1  0  0  0  0 
 19 51  1  0  0  0  0 
 19 52  1  0  0  0  0 
M  END
> <cdk:Title>
delmopinol

> <Conformer>
1

> <SuperDrugID>
SD002715

$$$$
