paroxypropione
  CDK     0628171801

 21 21  0  0  0  0  0  0  0  0999 V2000
    0.7657   -0.7790   -0.0146 C   0  0  0  0  0  0  0  0  0  0  0  0
    0.5708    0.7345   -0.2594 C   0  0  1  0  0  0  0  0  0  0  0  0
    1.8133    1.5233   -0.0236 C   0  0  0  0  0  0  0  0  0  0  0  0
    2.3635    1.9911   -1.0512 O   0  0  0  0  0  0  0  0  0  0  0  0
    2.3924    1.7913    1.2623 C   0  0  0  0  0  0  0  0  0  0  0  0
    1.6955    1.5568    2.4768 C   0  0  0  0  0  0  0  0  0  0  0  0
    2.2681    1.8741    3.7225 C   0  0  0  0  0  0  0  0  0  0  0  0
    3.5526    2.4402    3.7891 C   0  0  0  0  0  0  0  0  0  0  0  0
    4.0846    2.7995    4.9828 O   0  0  0  0  0  0  0  0  0  0  0  0
    4.2778    2.6502    2.6057 C   0  0  0  0  0  0  0  0  0  0  0  0
    3.7039    2.3294    1.3614 C   0  0  0  0  0  0  0  0  0  0  0  0
    1.5731   -1.1703   -0.6388 H   0  0  0  0  0  0  0  0  0  0  0  0
   -0.1560   -1.3132   -0.2594 H   0  0  0  0  0  0  0  0  0  0  0  0
    1.0087   -0.9670    1.0324 H   0  0  0  0  0  0  0  0  0  0  0  0
    0.2376    0.8661   -1.2933 H   0  0  0  0  0  0  0  0  0  0  0  0
   -0.2401    1.1067    0.3701 H   0  0  0  0  0  0  0  0  0  0  0  0
    0.7540    1.1630    2.4819 H   0  0  0  0  0  0  0  0  0  0  0  0
    1.7454    1.6969    4.5839 H   0  0  0  0  0  0  0  0  0  0  0  0
    3.3116    2.9913    5.5554 H   0  0  0  0  0  0  0  0  0  0  0  0
    5.2189    3.0450    2.6455 H   0  0  0  0  0  0  0  0  0  0  0  0
    4.2620    2.5015    0.5221 H   0  0  0  0  0  0  0  0  0  0  0  0
  1  2  1  0  0  0  0 
  2  3  1  0  0  0  0 
  3  4  2  0  0  0  0 
  3  5  1  0  0  0  0 
  5  6  2  0  0  0  0 
  6  7  1  0  0  0  0 
  7  8  2  0  0  0  0 
  8  9  1  0  0  0  0 
  8 10  1  0  0  0  0 
 10 11  2  0  0  0  0 
  5 11  1  0  0  0  0 
 12  1  1  0  0  0  0 
 13  1  1  0  0  0  0 
 14  1  1  0  0  0  0 
 15  2  1  0  0  0  0 
 16  2  1  0  0  0  0 
 17  6  1  0  0  0  0 
 18  7  1  0  0  0  0 
 19  9  1  0  0  0  0 
 20 10  1  0  0  0  0 
 21 11  1  0  0  0  0 
M  END
> <cdk:Title>
paroxypropione

> <Conformer>
1

> <SuperDrugID>
SD001855

$$$$
