atorvastatin
  CDK     0628171801

 76 79  0  0  0  0  0  0  0  0999 V2000
    1.4087   -1.3371    1.1742 C   0  0  0  0  0  0  0  0  0  0  0  0
    0.7529   -2.4476    1.7733 C   0  0  0  0  0  0  0  0  0  0  0  0
    1.7576   -3.3927    2.0468 C   0  0  0  0  0  0  0  0  0  0  0  0
    2.9672   -2.8733    1.5861 C   0  0  0  0  0  0  0  0  0  0  0  0
    2.7431   -1.6365    1.0677 N   0  0  0  0  0  0  0  0  0  0  0  0
    1.6146   -4.6499    2.7022 C   0  0  0  0  0  0  0  0  0  0  0  0
    4.2184   -3.5477    1.6763 C   0  0  0  0  0  0  0  0  0  0  0  0
    1.8991   -5.8635    2.0299 C   0  0  0  0  0  0  0  0  0  0  0  0
    1.7252   -7.0994    2.6835 C   0  0  0  0  0  0  0  0  0  0  0  0
    1.2746   -7.1380    4.0158 C   0  0  0  0  0  0  0  0  0  0  0  0
    0.9965   -5.9389    4.6957 C   0  0  0  0  0  0  0  0  0  0  0  0
    1.1736   -4.7021    4.0468 C   0  0  0  0  0  0  0  0  0  0  0  0
    4.8342   -3.7769    2.9300 C   0  0  0  0  0  0  0  0  0  0  0  0
    6.0939   -4.4047    3.0054 C   0  0  0  0  0  0  0  0  0  0  0  0
    6.7453   -4.8227    1.8292 C   0  0  0  0  0  0  0  0  0  0  0  0
    6.1371   -4.6093    0.5787 C   0  0  0  0  0  0  0  0  0  0  0  0
    4.8773   -3.9881    0.5056 C   0  0  0  0  0  0  0  0  0  0  0  0
    0.7976   -0.0340    0.7127 C   0  0  1  0  0  0  0  0  0  0  0  0
   -0.2552   -0.2052   -0.4226 C   0  0  0  0  0  0  0  0  0  0  0  0
    0.4035    0.9151    1.8858 C   0  0  0  0  0  0  0  0  0  0  0  0
   -0.6346   -2.6731    2.0830 C   0  0  0  0  0  0  0  0  0  0  0  0
   -1.5539   -1.6718    2.1576 N   0  0  0  0  0  0  0  0  0  0  0  0
   -1.0423   -3.8452    2.2742 O   0  0  0  0  0  0  0  0  0  0  0  0
    3.7952   -0.7921    0.5203 C   0  0  2  0  0  0  0  0  0  0  0  0
    3.8141   -0.8092   -1.0350 C   0  0  2  0  0  0  0  0  0  0  0  0
   -2.8317   -1.7048    2.6407 C   0  0  0  0  0  0  0  0  0  0  0  0
   -3.7558   -0.7941    2.0837 C   0  0  0  0  0  0  0  0  0  0  0  0
   -5.0677   -0.7031    2.5871 C   0  0  0  0  0  0  0  0  0  0  0  0
   -5.4681   -1.5181    3.6627 C   0  0  0  0  0  0  0  0  0  0  0  0
   -4.5634   -2.4456    4.2106 C   0  0  0  0  0  0  0  0  0  0  0  0
   -3.2539   -2.5420    3.7035 C   0  0  0  0  0  0  0  0  0  0  0  0
    5.0206   -0.0766   -1.6916 C   0  0  2  0  0  0  0  0  0  0  0  0
    5.0818   -0.3603   -3.2222 C   0  0  2  0  0  0  0  0  0  0  0  0
    6.2500   -0.4863   -1.0900 O   0  0  0  0  0  0  0  0  0  0  0  0
    6.1215    0.5000   -3.9975 C   0  0  1  0  0  0  0  0  0  0  0  0
    7.4409    0.2663   -3.5012 O   0  0  0  0  0  0  0  0  0  0  0  0
    6.1136    0.1997   -5.5227 C   0  0  1  0  0  0  0  0  0  0  0  0
    7.1001    1.0239   -6.2482 C   0  0  0  0  0  0  0  0  0  0  0  0
    6.9520    2.2638   -6.3375 O   0  0  0  0  0  0  0  0  0  0  0  0
    8.1969    0.4562   -6.8002 O   0  0  0  0  0  0  0  0  0  0  0  0
    7.9104   -5.4080    1.8975 F   0  0  0  0  0  0  0  0  0  0  0  0
    2.2293   -5.8574    1.0600 H   0  0  0  0  0  0  0  0  0  0  0  0
    1.9256   -7.9718    2.1883 H   0  0  0  0  0  0  0  0  0  0  0  0
    1.1527   -8.0371    4.4912 H   0  0  0  0  0  0  0  0  0  0  0  0
    0.6624   -5.9655    5.6617 H   0  0  0  0  0  0  0  0  0  0  0  0
    0.9728   -3.8396    4.5623 H   0  0  0  0  0  0  0  0  0  0  0  0
    4.3781   -3.4807    3.7964 H   0  0  0  0  0  0  0  0  0  0  0  0
    6.5371   -4.5511    3.9173 H   0  0  0  0  0  0  0  0  0  0  0  0
    6.6064   -4.9076   -0.2809 H   0  0  0  0  0  0  0  0  0  0  0  0
    4.4449   -3.8679   -0.4120 H   0  0  0  0  0  0  0  0  0  0  0  0
    1.5605    0.5557    0.2074 H   0  0  0  0  0  0  0  0  0  0  0  0
   -0.7093    0.7573   -0.6728 H   0  0  0  0  0  0  0  0  0  0  0  0
   -1.0504   -0.9019   -0.1759 H   0  0  0  0  0  0  0  0  0  0  0  0
    0.2375   -0.5897   -1.3191 H   0  0  0  0  0  0  0  0  0  0  0  0
   -0.1723    1.7677    1.5140 H   0  0  0  0  0  0  0  0  0  0  0  0
   -0.1673    0.4242    2.6696 H   0  0  0  0  0  0  0  0  0  0  0  0
    1.3081    1.3095    2.3560 H   0  0  0  0  0  0  0  0  0  0  0  0
   -1.2753   -0.8166    1.8119 H   0  0  0  0  0  0  0  0  0  0  0  0
    4.7688   -1.1321    0.8751 H   0  0  0  0  0  0  0  0  0  0  0  0
    3.7053    0.2317    0.8901 H   0  0  0  0  0  0  0  0  0  0  0  0
    2.8958   -0.3582   -1.4136 H   0  0  0  0  0  0  0  0  0  0  0  0
    3.8101   -1.8472   -1.3658 H   0  0  0  0  0  0  0  0  0  0  0  0
   -3.4765   -0.1842    1.3096 H   0  0  0  0  0  0  0  0  0  0  0  0
   -5.7288   -0.0435    2.1709 H   0  0  0  0  0  0  0  0  0  0  0  0
   -6.4145   -1.4363    4.0441 H   0  0  0  0  0  0  0  0  0  0  0  0
   -4.8583   -3.0458    4.9845 H   0  0  0  0  0  0  0  0  0  0  0  0
   -2.6102   -3.2059    4.1410 H   0  0  0  0  0  0  0  0  0  0  0  0
    4.9029    0.9992   -1.5343 H   0  0  0  0  0  0  0  0  0  0  0  0
    4.0936   -0.1705   -3.6526 H   0  0  0  0  0  0  0  0  0  0  0  0
    5.3112   -1.4190   -3.3766 H   0  0  0  0  0  0  0  0  0  0  0  0
    6.2386   -0.1060   -0.1861 H   0  0  0  0  0  0  0  0  0  0  0  0
    5.8821    1.5572   -3.8459 H   0  0  0  0  0  0  0  0  0  0  0  0
    7.4388    0.6269   -2.5913 H   0  0  0  0  0  0  0  0  0  0  0  0
    6.3409   -0.8585   -5.6814 H   0  0  0  0  0  0  0  0  0  0  0  0
    5.1219    0.3936   -5.9401 H   0  0  0  0  0  0  0  0  0  0  0  0
    8.8659    1.0134   -7.2489 H   0  0  0  0  0  0  0  0  0  0  0  0
  1  2  2  0  0  0  0 
  1  5  1  0  0  0  0 
  2  3  1  0  0  0  0 
  3  4  2  0  0  0  0 
  4  5  1  0  0  0  0 
  3  6  1  0  0  0  0 
  4  7  1  0  0  0  0 
  8  9  1  0  0  0  0 
  9 10  2  0  0  0  0 
 10 11  1  0  0  0  0 
 11 12  2  0  0  0  0 
  6  8  2  0  0  0  0 
  6 12  1  0  0  0  0 
 13 14  1  0  0  0  0 
 14 15  2  0  0  0  0 
 15 16  1  0  0  0  0 
 16 17  2  0  0  0  0 
  7 13  2  0  0  0  0 
  7 17  1  0  0  0  0 
  1 18  1  0  0  0  0 
 18 19  1  0  0  0  0 
 18 20  1  0  0  0  0 
  2 21  1  0  0  0  0 
 21 22  1  0  0  0  0 
 21 23  2  0  0  0  0 
  5 24  1  0  0  0  0 
 24 25  1  0  0  0  0 
 22 26  1  0  0  0  0 
 27 28  1  0  0  0  0 
 28 29  2  0  0  0  0 
 29 30  1  0  0  0  0 
 30 31  2  0  0  0  0 
 26 27  2  0  0  0  0 
 26 31  1  0  0  0  0 
 25 32  1  0  0  0  0 
 32 33  1  0  0  0  0 
 32 34  1  0  0  0  0 
 33 35  1  0  0  0  0 
 35 36  1  0  0  0  0 
 35 37  1  0  0  0  0 
 37 38  1  0  0  0  0 
 38 39  2  0  0  0  0 
 38 40  1  0  0  0  0 
 15 41  1  0  0  0  0 
  8 42  1  0  0  0  0 
  9 43  1  0  0  0  0 
 10 44  1  0  0  0  0 
 11 45  1  0  0  0  0 
 12 46  1  0  0  0  0 
 13 47  1  0  0  0  0 
 14 48  1  0  0  0  0 
 16 49  1  0  0  0  0 
 17 50  1  0  0  0  0 
 18 51  1  0  0  0  0 
 19 52  1  0  0  0  0 
 19 53  1  0  0  0  0 
 19 54  1  0  0  0  0 
 20 55  1  0  0  0  0 
 20 56  1  0  0  0  0 
 20 57  1  0  0  0  0 
 22 58  1  0  0  0  0 
 24 59  1  0  0  0  0 
 24 60  1  0  0  0  0 
 25 61  1  0  0  0  0 
 25 62  1  0  0  0  0 
 27 63  1  0  0  0  0 
 28 64  1  0  0  0  0 
 29 65  1  0  0  0  0 
 30 66  1  0  0  0  0 
 31 67  1  0  0  0  0 
 32 68  1  0  0  0  0 
 33 69  1  0  0  0  0 
 33 70  1  0  0  0  0 
 34 71  1  0  0  0  0 
 35 72  1  0  0  0  0 
 36 73  1  0  0  0  0 
 37 74  1  0  0  0  0 
 37 75  1  0  0  0  0 
 40 76  1  0  0  0  0 
M  END
> <cdk:Title>
atorvastatin

> <Conformer>
1

> <SuperDrugID>
SD000213

$$$$
