tretinoin
  CDK     0628171801

 50 50  0  0  0  0  0  0  0  0999 V2000
   -4.9778   -0.7852    2.0403 C   0  0  1  0  0  0  0  0  0  0  0  0
   -5.9312   -2.0046    1.7326 C   0  0  1  0  0  0  0  0  0  0  0  0
   -7.3263   -1.5452    1.2770 C   0  0  2  0  0  0  0  0  0  0  0  0
   -7.1605   -0.6664    0.0168 C   0  0  2  0  0  0  0  0  0  0  0  0
   -6.1625    0.4048    0.1425 C   0  0  0  0  0  0  0  0  0  0  0  0
   -5.1733    0.3596    1.0854 C   0  0  0  0  0  0  0  0  0  0  0  0
   -6.3130    1.5311   -0.7975 C   0  0  0  0  0  0  0  0  0  0  0  0
   -5.2324   -0.2963    3.5139 C   0  0  0  0  0  0  0  0  0  0  0  0
   -3.5175   -1.3567    1.9548 C   0  0  0  0  0  0  0  0  0  0  0  0
   -4.3421    1.4386    1.2174 C   0  0  0  0  0  0  0  0  0  0  0  0
   -3.1667    1.5598    0.5748 C   0  0  0  0  0  0  0  0  0  0  0  0
   -2.3711    2.6665    0.6508 C   0  0  0  0  0  0  0  0  0  0  0  0
   -1.9335    3.1187    1.8514 C   0  0  0  0  0  0  0  0  0  0  0  0
   -2.0213    3.3216   -0.6114 C   0  0  0  0  0  0  0  0  0  0  0  0
   -1.1277    4.2000    2.0490 C   0  0  0  0  0  0  0  0  0  0  0  0
   -1.1968    4.9817    3.1430 C   0  0  0  0  0  0  0  0  0  0  0  0
   -0.3973    6.0705    3.3373 C   0  0  0  0  0  0  0  0  0  0  0  0
   -0.6595    7.2082    2.6486 C   0  0  0  0  0  0  0  0  0  0  0  0
    0.6901    5.9460    4.3089 C   0  0  0  0  0  0  0  0  0  0  0  0
    0.0066    8.4264    2.7128 C   0  0  0  0  0  0  0  0  0  0  0  0
   -0.4326    9.4627    1.9569 O   0  0  0  0  0  0  0  0  0  0  0  0
    1.0028    8.6520    3.4379 O   0  0  0  0  0  0  0  0  0  0  0  0
   -5.5196   -2.6241    0.9275 H   0  0  0  0  0  0  0  0  0  0  0  0
   -6.0400   -2.6597    2.6030 H   0  0  0  0  0  0  0  0  0  0  0  0
   -7.8105   -0.9778    2.0768 H   0  0  0  0  0  0  0  0  0  0  0  0
   -7.9516   -2.4112    1.0445 H   0  0  0  0  0  0  0  0  0  0  0  0
   -8.1474   -0.2484   -0.1991 H   0  0  0  0  0  0  0  0  0  0  0  0
   -6.8832   -1.2985   -0.8331 H   0  0  0  0  0  0  0  0  0  0  0  0
   -6.6452    2.4169   -0.2521 H   0  0  0  0  0  0  0  0  0  0  0  0
   -7.0354    1.3283   -1.5917 H   0  0  0  0  0  0  0  0  0  0  0  0
   -5.3658    1.7545   -1.2924 H   0  0  0  0  0  0  0  0  0  0  0  0
   -6.2024    0.1992    3.6027 H   0  0  0  0  0  0  0  0  0  0  0  0
   -5.2088   -1.1277    4.2235 H   0  0  0  0  0  0  0  0  0  0  0  0
   -4.4658    0.4146    3.8300 H   0  0  0  0  0  0  0  0  0  0  0  0
   -2.7781   -0.6400    2.3152 H   0  0  0  0  0  0  0  0  0  0  0  0
   -3.2693   -1.6078    0.9208 H   0  0  0  0  0  0  0  0  0  0  0  0
   -3.4143   -2.2620    2.5578 H   0  0  0  0  0  0  0  0  0  0  0  0
   -4.6585    2.1759    1.8057 H   0  0  0  0  0  0  0  0  0  0  0  0
   -2.8618    0.8200   -0.0181 H   0  0  0  0  0  0  0  0  0  0  0  0
   -2.2167    2.6250    2.6728 H   0  0  0  0  0  0  0  0  0  0  0  0
   -2.3462    4.3647   -0.5913 H   0  0  0  0  0  0  0  0  0  0  0  0
   -2.4895    2.8533   -1.4833 H   0  0  0  0  0  0  0  0  0  0  0  0
   -0.9392    3.2917   -0.7622 H   0  0  0  0  0  0  0  0  0  0  0  0
   -0.4510    4.4181    1.3517 H   0  0  0  0  0  0  0  0  0  0  0  0
   -1.8589    4.7763    3.8578 H   0  0  0  0  0  0  0  0  0  0  0  0
   -1.4255    7.1944    2.0091 H   0  0  0  0  0  0  0  0  0  0  0  0
    1.6495    6.1389    3.8208 H   0  0  0  0  0  0  0  0  0  0  0  0
    0.7485    4.9544    4.7692 H   0  0  0  0  0  0  0  0  0  0  0  0
    0.5481    6.6685    5.1162 H   0  0  0  0  0  0  0  0  0  0  0  0
    0.0236   10.3306    2.0018 H   0  0  0  0  0  0  0  0  0  0  0  0
  1  2  1  0  0  0  0 
  2  3  1  0  0  0  0 
  3  4  1  0  0  0  0 
  4  5  1  0  0  0  0 
  5  6  2  0  0  0  0 
  1  6  1  0  0  0  0 
  5  7  1  0  0  0  0 
  1  8  1  0  0  0  0 
  1  9  1  0  0  0  0 
  6 10  1  0  0  0  0 
 10 11  2  0  0  0  0 
 11 12  1  0  0  0  0 
 12 13  2  0  0  0  0 
 12 14  1  0  0  0  0 
 13 15  1  0  0  0  0 
 15 16  2  0  0  0  0 
 16 17  1  0  0  0  0 
 17 18  2  0  0  0  0 
 17 19  1  0  0  0  0 
 18 20  1  0  0  0  0 
 20 21  1  0  0  0  0 
 20 22  2  0  0  0  0 
  2 23  1  0  0  0  0 
  2 24  1  0  0  0  0 
  3 25  1  0  0  0  0 
  3 26  1  0  0  0  0 
  4 27  1  0  0  0  0 
  4 28  1  0  0  0  0 
  7 29  1  0  0  0  0 
  7 30  1  0  0  0  0 
  7 31  1  0  0  0  0 
  8 32  1  0  0  0  0 
  8 33  1  0  0  0  0 
  8 34  1  0  0  0  0 
  9 35  1  0  0  0  0 
  9 36  1  0  0  0  0 
  9 37  1  0  0  0  0 
 10 38  1  0  0  0  0 
 11 39  1  0  0  0  0 
 13 40  1  0  0  0  0 
 14 41  1  0  0  0  0 
 14 42  1  0  0  0  0 
 14 43  1  0  0  0  0 
 15 44  1  0  0  0  0 
 16 45  1  0  0  0  0 
 18 46  1  0  0  0  0 
 19 47  1  0  0  0  0 
 19 48  1  0  0  0  0 
 19 49  1  0  0  0  0 
 21 50  1  0  0  0  0 
M  END
> <cdk:Title>
tretinoin

> <Conformer>
1

> <SuperDrugID>
SD002453

$$$$
