linaclotide
  CDK     0628171802

180185  0  0  0  0  0  0  0  0999 V2000
  -12.3814    7.6752    1.3994 H   0  0  0  0  0  0  0  0  0  0  0  0
  -13.2148    7.2812    0.9582 N   0  0  1  0  0  0  0  0  0  0  0  0
  -11.7268    4.7535    2.7724 N   0  0  0  0  0  0  0  0  0  0  0  0
   -9.7234    5.6218    4.6743 N   0  0  0  0  0  0  0  0  0  0  0  0
   -7.1127    5.9782    7.0040 N   0  0  0  0  0  0  0  0  0  0  0  0
   -6.0456    3.1313    5.1382 N   0  0  0  0  0  0  0  0  0  0  0  0
   -6.2168    3.4324    2.0487 N   0  0  0  0  0  0  0  0  0  0  0  0
   -5.5470    3.4799   -1.4690 N   0  0  0  0  0  0  0  0  0  0  0  0
   -6.1345    0.3909   -1.2973 N   0  0  0  0  0  0  0  0  0  0  0  0
   -8.8025   -2.2086   -0.9987 N   0  0  0  0  0  0  0  0  0  0  0  0
  -10.9792   -2.0909    1.6866 N   0  0  0  0  0  0  0  0  0  0  0  0
  -11.2667   -3.4796    5.1160 N   0  0  0  0  0  0  0  0  0  0  0  0
   -9.1704   -5.0905    6.3922 N   0  0  0  0  0  0  0  0  0  0  0  0
   -6.4313   -4.0711    5.9872 N   0  0  0  0  0  0  0  0  0  0  0  0
   -6.1949   -1.5805    7.8395 N   0  0  0  0  0  0  0  0  0  0  0  0
   -8.2801   -1.1214    5.2583 O   0  0  0  0  0  0  0  0  0  0  0  0
  -12.8894    5.3133    2.3218 C   0  0  0  0  0  0  0  0  0  0  0  0
  -10.3644    6.2644    0.1066 S   0  0  0  0  0  0  0  0  0  0  0  0
  -11.9517    5.3940   -0.0898 C   0  0  1  0  0  0  0  0  0  0  0  0
  -13.0449    5.8206    0.9322 C   0  0  2  0  0  0  0  0  0  0  0  0
  -13.8910    5.3810    3.0752 O   0  0  0  0  0  0  0  0  0  0  0  0
  -10.1349    4.3372    4.4583 C   0  0  0  0  0  0  0  0  0  0  0  0
  -12.2816    1.6986    5.3625 S   0  0  0  0  0  0  0  0  0  0  0  0
  -11.9053    2.5899    3.8191 C   0  0  2  0  0  0  0  0  0  0  0  0
  -11.5394    4.0909    4.0338 C   0  0  2  0  0  0  0  0  0  0  0  0
   -9.3239    3.3842    4.5571 O   0  0  0  0  0  0  0  0  0  0  0  0
   -8.0139    6.5148    6.1318 C   0  0  0  0  0  0  0  0  0  0  0  0
   -8.1726    7.2011    3.7106 C   0  0  2  0  0  0  0  0  0  0  0  0
   -6.6922    7.6185    3.4929 C   0  0  2  0  0  0  0  0  0  0  0  0
   -6.5492    8.7147    2.5140 C   0  0  0  0  0  0  0  0  0  0  0  0
   -6.0001    9.8966    2.8847 O   0  0  0  0  0  0  0  0  0  0  0  0
   -6.9288    8.5692    1.3292 O   0  0  0  0  0  0  0  0  0  0  0  0
   -8.3595    6.0608    4.7576 C   0  0  2  0  0  0  0  0  0  0  0  0
   -8.5873    7.5382    6.5707 O   0  0  0  0  0  0  0  0  0  0  0  0
   -5.7338    4.3130    5.7475 C   0  0  0  0  0  0  0  0  0  0  0  0
   -7.3234    3.6262    7.6586 C   0  0  2  0  0  0  0  0  0  0  0  0
   -7.6905    3.9237    9.0710 C   0  0  0  0  0  0  0  0  0  0  0  0
   -8.9590    4.4510    9.4088 C   0  0  0  0  0  0  0  0  0  0  0  0
   -9.2733    4.7541   10.7473 C   0  0  0  0  0  0  0  0  0  0  0  0
   -8.3184    4.5511   11.7629 C   0  0  0  0  0  0  0  0  0  0  0  0
   -8.6208    4.8802   13.0447 O   0  0  0  0  0  0  0  0  0  0  0  0
   -7.0580    4.0135   11.4370 C   0  0  0  0  0  0  0  0  0  0  0  0
   -6.7511    3.6947   10.1037 C   0  0  0  0  0  0  0  0  0  0  0  0
   -6.4183    4.7217    7.0065 C   0  0  2  0  0  0  0  0  0  0  0  0
   -4.8405    5.0619    5.2853 O   0  0  0  0  0  0  0  0  0  0  0  0
   -6.1848    2.3643    2.8865 C   0  0  0  0  0  0  0  0  0  0  0  0
   -3.9138    0.0776    3.5070 S   0  0  0  0  0  0  0  0  0  0  0  0
   -4.8560    1.1085    4.6775 C   0  0  2  0  0  0  0  0  0  0  0  0
   -5.3228    2.4700    4.0944 C   0  0  2  0  0  0  0  0  0  0  0  0
   -6.8427    1.3254    2.6376 O   0  0  0  0  0  0  0  0  0  0  0  0
   -5.7701    3.9375   -0.2049 C   0  0  0  0  0  0  0  0  0  0  0  0
   -8.9716    4.8525   -0.5962 S   0  0  0  0  0  0  0  0  0  0  0  0
   -7.9575    4.6087    0.8933 C   0  0  1  0  0  0  0  0  0  0  0  0
   -6.8413    3.5446    0.7582 C   0  0  2  0  0  0  0  0  0  0  0  0
   -4.9347    4.8041    0.1465 O   0  0  0  0  0  0  0  0  0  0  0  0
   -6.8760    1.3854   -1.9125 C   0  0  0  0  0  0  0  0  0  0  0  0
   -5.6255    2.5988   -3.7151 C   0  0  1  0  0  0  0  0  0  0  0  0
   -6.4201    1.9925   -4.8065 C   0  0  0  0  0  0  0  0  0  0  0  0
   -7.5227    2.6043   -5.2717 N   0  0  0  0  0  0  0  0  0  0  0  0
   -6.0834    0.8976   -5.3136 O   0  0  0  0  0  0  0  0  0  0  0  0
   -6.3841    2.7258   -2.3542 C   0  0  2  0  0  0  0  0  0  0  0  0
   -8.0668    1.1452   -2.2295 O   0  0  0  0  0  0  0  0  0  0  0  0
   -7.9817   -1.1385   -0.5425 C   0  0  0  0  0  0  0  0  0  0  0  0
   -6.5957   -0.9733   -1.1559 C   0  0  2  0  0  0  0  0  0  0  0  0
   -5.5639   -1.6209   -0.2013 C   0  0  2  0  0  0  0  0  0  0  0  0
   -4.2786   -0.8492   -0.5121 C   0  0  2  0  0  0  0  0  0  0  0  0
   -4.8051    0.5693   -0.7881 C   0  0  1  0  0  0  0  0  0  0  0  0
   -8.3747   -0.3724    0.3672 O   0  0  0  0  0  0  0  0  0  0  0  0
  -10.1303   -2.8219    0.9106 C   0  0  0  0  0  0  0  0  0  0  0  0
  -10.5697   -3.9502   -1.2885 C   0  0  0  0  0  0  0  0  0  0  0  0
  -10.1460   -2.6493   -0.5598 C   0  0  2  0  0  0  0  0  0  0  0  0
   -9.2956   -3.6075    1.4221 O   0  0  0  0  0  0  0  0  0  0  0  0
  -11.3467   -3.3398    3.7593 C   0  0  0  0  0  0  0  0  0  0  0  0
  -11.2810   -0.1359    5.1642 S   0  0  0  0  0  0  0  0  0  0  0  0
  -11.8641   -0.8561    3.5950 C   0  0  2  0  0  0  0  0  0  0  0  0
  -10.9689   -2.0451    3.1240 C   0  0  2  0  0  0  0  0  0  0  0  0
  -11.7209   -4.2980    3.0416 O   0  0  0  0  0  0  0  0  0  0  0  0
  -10.3462   -5.5431    5.8742 C   0  0  0  0  0  0  0  0  0  0  0  0
  -13.9465   -4.3874    5.4570 O   0  0  0  0  0  0  0  0  0  0  0  0
  -11.5389   -4.6572    5.8982 C   0  0  2  0  0  0  0  0  0  0  0  0
  -13.3459   -6.3646    6.6816 C   0  0  0  0  0  0  0  0  0  0  0  0
  -12.9073   -5.3573    5.5864 C   0  0  1  0  0  0  0  0  0  0  0  0
  -10.4184   -6.7002    5.3957 O   0  0  0  0  0  0  0  0  0  0  0  0
   -6.8179   -5.0419    6.8573 C   0  0  0  0  0  0  0  0  0  0  0  0
   -7.9822   -5.8743    6.5082 C   0  0  1  0  0  0  0  0  0  0  0  0
   -6.1869   -5.2610    7.9188 O   0  0  0  0  0  0  0  0  0  0  0  0
   -5.2132   -2.3507    7.2816 C   0  0  0  0  0  0  0  0  0  0  0  0
   -3.4597   -1.5942    4.6989 S   0  0  0  0  0  0  0  0  0  0  0  0
   -5.0466   -2.4916    4.7590 C   0  0  1  0  0  0  0  0  0  0  0  0
   -5.2574   -3.2605    6.0939 C   0  0  2  0  0  0  0  0  0  0  0  0
   -4.1105   -2.2337    7.8656 O   0  0  0  0  0  0  0  0  0  0  0  0
   -7.8958   -0.6194    6.4508 C   0  0  0  0  0  0  0  0  0  0  0  0
   -8.2886   -1.0916    8.9146 C   0  0  2  0  0  0  0  0  0  0  0  0
   -9.7585   -0.8512    8.8593 C   0  0  0  0  0  0  0  0  0  0  0  0
  -10.6510   -1.9045    8.5542 C   0  0  0  0  0  0  0  0  0  0  0  0
  -12.0416   -1.6860    8.5181 C   0  0  0  0  0  0  0  0  0  0  0  0
  -12.5648   -0.4129    8.8023 C   0  0  0  0  0  0  0  0  0  0  0  0
  -13.9054   -0.2251    8.7634 O   0  0  0  0  0  0  0  0  0  0  0  0
  -11.6908    0.6458    9.1138 C   0  0  0  0  0  0  0  0  0  0  0  0
  -10.3003    0.4277    9.1402 C   0  0  0  0  0  0  0  0  0  0  0  0
   -7.6023   -1.5235    7.5796 C   0  0  2  0  0  0  0  0  0  0  0  0
   -7.8012    0.6215    6.5610 O   0  0  0  0  0  0  0  0  0  0  0  0
  -13.2112    7.5970   -0.0145 H   0  0  0  0  0  0  0  0  0  0  0  0
  -10.9676    4.7592    2.1697 H   0  0  0  0  0  0  0  0  0  0  0  0
  -10.4089    6.3099    4.6921 H   0  0  0  0  0  0  0  0  0  0  0  0
   -6.9641    6.5084    7.8027 H   0  0  0  0  0  0  0  0  0  0  0  0
   -6.8120    2.6534    5.4881 H   0  0  0  0  0  0  0  0  0  0  0  0
   -5.7321    4.2178    2.3491 H   0  0  0  0  0  0  0  0  0  0  0  0
   -4.7143    3.7840   -1.8667 H   0  0  0  0  0  0  0  0  0  0  0  0
   -8.4366   -2.7637   -1.7239 H   0  0  0  0  0  0  0  0  0  0  0  0
  -11.6235   -1.5306    1.2273 H   0  0  0  0  0  0  0  0  0  0  0  0
  -10.9594   -2.7010    5.6088 H   0  0  0  0  0  0  0  0  0  0  0  0
   -9.1524   -4.1827    6.7340 H   0  0  0  0  0  0  0  0  0  0  0  0
   -6.9899   -3.9371    5.2061 H   0  0  0  0  0  0  0  0  0  0  0  0
   -5.8896   -0.9906    8.5475 H   0  0  0  0  0  0  0  0  0  0  0  0
   -8.4647   -0.5114    4.5140 H   0  0  0  0  0  0  0  0  0  0  0  0
  -12.3046    5.6091   -1.1014 H   0  0  0  0  0  0  0  0  0  0  0  0
  -11.7952    4.3149   -0.0176 H   0  0  0  0  0  0  0  0  0  0  0  0
  -13.9832    5.4055    0.5520 H   0  0  0  0  0  0  0  0  0  0  0  0
  -12.8054    2.5061    3.2055 H   0  0  0  0  0  0  0  0  0  0  0  0
  -11.0969    2.0963    3.2766 H   0  0  0  0  0  0  0  0  0  0  0  0
  -12.1994    4.5181    4.7929 H   0  0  0  0  0  0  0  0  0  0  0  0
   -8.5792    6.8618    2.7558 H   0  0  0  0  0  0  0  0  0  0  0  0
   -8.7562    8.0783    4.0043 H   0  0  0  0  0  0  0  0  0  0  0  0
   -6.1205    6.7570    3.1383 H   0  0  0  0  0  0  0  0  0  0  0  0
   -6.2648    7.9390    4.4464 H   0  0  0  0  0  0  0  0  0  0  0  0
   -5.8911   10.6214    2.2338 H   0  0  0  0  0  0  0  0  0  0  0  0
   -7.7040    5.2543    4.4458 H   0  0  0  0  0  0  0  0  0  0  0  0
   -8.2219    3.4896    7.0525 H   0  0  0  0  0  0  0  0  0  0  0  0
   -6.7899    2.6726    7.6578 H   0  0  0  0  0  0  0  0  0  0  0  0
   -9.6595    4.6223    8.6825 H   0  0  0  0  0  0  0  0  0  0  0  0
  -10.1934    5.1342   10.9802 H   0  0  0  0  0  0  0  0  0  0  0  0
   -7.8058    4.7012   13.5638 H   0  0  0  0  0  0  0  0  0  0  0  0
   -6.3608    3.8564   12.1672 H   0  0  0  0  0  0  0  0  0  0  0  0
   -5.8332    3.2937    9.8905 H   0  0  0  0  0  0  0  0  0  0  0  0
   -5.5906    4.8750    7.7054 H   0  0  0  0  0  0  0  0  0  0  0  0
   -4.2267    1.2803    5.5555 H   0  0  0  0  0  0  0  0  0  0  0  0
   -5.7247    0.5390    4.9990 H   0  0  0  0  0  0  0  0  0  0  0  0
   -4.4161    3.0248    3.8298 H   0  0  0  0  0  0  0  0  0  0  0  0
   -7.5133    5.5717    1.1448 H   0  0  0  0  0  0  0  0  0  0  0  0
   -8.6350    4.3153    1.6995 H   0  0  0  0  0  0  0  0  0  0  0  0
   -7.2977    2.5991    0.4624 H   0  0  0  0  0  0  0  0  0  0  0  0
   -4.7132    2.0138   -3.5718 H   0  0  0  0  0  0  0  0  0  0  0  0
   -5.3143    3.5924   -4.0545 H   0  0  0  0  0  0  0  0  0  0  0  0
   -8.0365    2.1993   -5.9877 H   0  0  0  0  0  0  0  0  0  0  0  0
   -7.8061    3.4505   -4.8893 H   0  0  0  0  0  0  0  0  0  0  0  0
   -7.2454    3.3748   -2.5405 H   0  0  0  0  0  0  0  0  0  0  0  0
   -6.4159   -1.4413   -2.1763 H   0  0  0  0  0  0  0  0  0  0  0  0
   -5.4553   -2.6925   -0.3926 H   0  0  0  0  0  0  0  0  0  0  0  0
   -5.8230   -1.4694    0.8535 H   0  0  0  0  0  0  0  0  0  0  0  0
   -3.8018   -1.2614   -1.4082 H   0  0  0  0  0  0  0  0  0  0  0  0
   -3.5708   -0.8739    0.3208 H   0  0  0  0  0  0  0  0  0  0  0  0
   -4.1418    1.0681   -1.4957 H   0  0  0  0  0  0  0  0  0  0  0  0
   -4.8376    1.1411    0.1440 H   0  0  0  0  0  0  0  0  0  0  0  0
  -11.5654   -4.2626   -0.9648 H   0  0  0  0  0  0  0  0  0  0  0  0
   -9.8663   -4.7602   -1.0820 H   0  0  0  0  0  0  0  0  0  0  0  0
  -10.5985   -3.7846   -2.3670 H   0  0  0  0  0  0  0  0  0  0  0  0
  -10.8526   -1.8606   -0.8361 H   0  0  0  0  0  0  0  0  0  0  0  0
  -11.8320   -0.0702    2.8422 H   0  0  0  0  0  0  0  0  0  0  0  0
  -12.9044   -1.1691    3.7025 H   0  0  0  0  0  0  0  0  0  0  0  0
   -9.9350   -1.8307    3.4049 H   0  0  0  0  0  0  0  0  0  0  0  0
  -13.6952   -3.8433    4.6827 H   0  0  0  0  0  0  0  0  0  0  0  0
  -11.6188   -4.3004    6.9263 H   0  0  0  0  0  0  0  0  0  0  0  0
  -13.4210   -5.8655    7.6512 H   0  0  0  0  0  0  0  0  0  0  0  0
  -12.6325   -7.1881    6.7668 H   0  0  0  0  0  0  0  0  0  0  0  0
  -14.3226   -6.7877    6.4336 H   0  0  0  0  0  0  0  0  0  0  0  0
  -12.8443   -5.8991    4.6398 H   0  0  0  0  0  0  0  0  0  0  0  0
   -8.1456   -6.6393    7.2709 H   0  0  0  0  0  0  0  0  0  0  0  0
   -7.7650   -6.3769    5.5620 H   0  0  0  0  0  0  0  0  0  0  0  0
   -5.8667   -1.7940    4.6078 H   0  0  0  0  0  0  0  0  0  0  0  0
   -5.0509   -3.1891    3.9185 H   0  0  0  0  0  0  0  0  0  0  0  0
   -4.4167   -3.9592    6.1702 H   0  0  0  0  0  0  0  0  0  0  0  0
   -8.1114   -1.8728    9.6594 H   0  0  0  0  0  0  0  0  0  0  0  0
   -7.7876   -0.1920    9.2856 H   0  0  0  0  0  0  0  0  0  0  0  0
  -10.2931   -2.8420    8.3636 H   0  0  0  0  0  0  0  0  0  0  0  0
  -12.6752   -2.4546    8.2872 H   0  0  0  0  0  0  0  0  0  0  0  0
  -14.0502    0.7056    9.0343 H   0  0  0  0  0  0  0  0  0  0  0  0
  -12.0639    1.5747    9.3271 H   0  0  0  0  0  0  0  0  0  0  0  0
   -9.6862    1.2147    9.3700 H   0  0  0  0  0  0  0  0  0  0  0  0
   -7.9692   -2.5166    7.3367 H   0  0  0  0  0  0  0  0  0  0  0  0
  1  2  1  0  0  0  0 
 17  3  1  0  0  0  0 
 22  4  1  0  0  0  0 
 27  5  1  0  0  0  0 
 35  6  1  0  0  0  0 
 46  7  1  0  0  0  0 
 51  8  1  0  0  0  0 
 56  9  1  0  0  0  0 
 63 10  1  0  0  0  0 
 69 11  1  0  0  0  0 
 73 12  1  0  0  0  0 
 78 13  1  0  0  0  0 
 84 14  1  0  0  0  0 
 87 15  1  0  0  0  0 
 92 16  1  0  0  0  0 
 18 52  1  0  0  0  0 
 23 74  1  0  0  0  0 
 47 88  1  0  0  0  0 
 20  2  1  0  0  0  0 
 20 19  1  0  0  0  0 
 19 18  1  0  0  0  0 
 20 17  1  0  0  0  0 
 17 21  2  0  0  0  0 
 25  3  1  0  0  0  0 
 25 24  1  0  0  0  0 
 24 23  1  0  0  0  0 
 25 22  1  0  0  0  0 
 22 26  2  0  0  0  0 
 33  4  1  0  0  0  0 
 33 28  1  0  0  0  0 
 28 29  1  0  0  0  0 
 29 30  1  0  0  0  0 
 30 31  1  0  0  0  0 
 30 32  2  0  0  0  0 
 33 27  1  0  0  0  0 
 27 34  2  0  0  0  0 
 44  5  1  0  0  0  0 
 44 36  1  0  0  0  0 
 36 37  1  0  0  0  0 
 37 38  2  0  0  0  0 
 38 39  1  0  0  0  0 
 39 40  2  0  0  0  0 
 40 41  1  0  0  0  0 
 40 42  1  0  0  0  0 
 42 43  2  0  0  0  0 
 37 43  1  0  0  0  0 
 44 35  1  0  0  0  0 
 35 45  2  0  0  0  0 
 49  6  1  0  0  0  0 
 49 48  1  0  0  0  0 
 48 47  1  0  0  0  0 
 49 46  1  0  0  0  0 
 46 50  2  0  0  0  0 
 54  7  1  0  0  0  0 
 54 53  1  0  0  0  0 
 53 52  1  0  0  0  0 
 54 51  1  0  0  0  0 
 51 55  2  0  0  0  0 
 61  8  1  0  0  0  0 
 61 57  1  0  0  0  0 
 57 58  1  0  0  0  0 
 58 59  1  0  0  0  0 
 58 60  2  0  0  0  0 
 61 56  1  0  0  0  0 
 56 62  2  0  0  0  0 
 68 63  2  0  0  0  0 
 64 63  1  0  0  0  0 
 64 65  1  0  0  0  0 
 65 66  1  0  0  0  0 
 66 67  1  0  0  0  0 
 67  9  1  0  0  0  0 
 64  9  1  0  0  0  0 
 70 71  1  0  0  0  0 
 71 10  1  0  0  0  0 
 71 69  1  0  0  0  0 
 69 72  2  0  0  0  0 
 76 11  1  0  0  0  0 
 76 75  1  0  0  0  0 
 75 74  1  0  0  0  0 
 76 73  1  0  0  0  0 
 73 77  2  0  0  0  0 
 81 82  1  0  0  0  0 
 82 79  1  0  0  0  0 
 82 80  1  0  0  0  0 
 80 12  1  0  0  0  0 
 80 78  1  0  0  0  0 
 78 83  2  0  0  0  0 
 13 85  1  0  0  0  0 
 85 84  1  0  0  0  0 
 84 86  2  0  0  0  0 
 90 14  1  0  0  0  0 
 90 89  1  0  0  0  0 
 89 88  1  0  0  0  0 
 90 87  1  0  0  0  0 
 87 91  2  0  0  0  0 
101 15  1  0  0  0  0 
101 93  1  0  0  0  0 
 93 94  1  0  0  0  0 
 94 95  2  0  0  0  0 
 95 96  1  0  0  0  0 
 96 97  2  0  0  0  0 
 97 98  1  0  0  0  0 
 97 99  1  0  0  0  0 
 99100  2  0  0  0  0 
 94100  1  0  0  0  0 
101 92  1  0  0  0  0 
 92102  2  0  0  0  0 
  2103  1  0  0  0  0 
  3104  1  0  0  0  0 
  4105  1  0  0  0  0 
  5106  1  0  0  0  0 
  6107  1  0  0  0  0 
  7108  1  0  0  0  0 
  8109  1  0  0  0  0 
 10110  1  0  0  0  0 
 11111  1  0  0  0  0 
 12112  1  0  0  0  0 
 13113  1  0  0  0  0 
 14114  1  0  0  0  0 
 15115  1  0  0  0  0 
 16116  1  0  0  0  0 
 19117  1  0  0  0  0 
 19118  1  0  0  0  0 
 20119  1  0  0  0  0 
 24120  1  0  0  0  0 
 24121  1  0  0  0  0 
 25122  1  0  0  0  0 
 28123  1  0  0  0  0 
 28124  1  0  0  0  0 
 29125  1  0  0  0  0 
 29126  1  0  0  0  0 
 31127  1  0  0  0  0 
 33128  1  0  0  0  0 
 36129  1  0  0  0  0 
 36130  1  0  0  0  0 
 38131  1  0  0  0  0 
 39132  1  0  0  0  0 
 41133  1  0  0  0  0 
 42134  1  0  0  0  0 
 43135  1  0  0  0  0 
 44136  1  0  0  0  0 
 48137  1  0  0  0  0 
 48138  1  0  0  0  0 
 49139  1  0  0  0  0 
 53140  1  0  0  0  0 
 53141  1  0  0  0  0 
 54142  1  0  0  0  0 
 57143  1  0  0  0  0 
 57144  1  0  0  0  0 
 59145  1  0  0  0  0 
 59146  1  0  0  0  0 
 61147  1  0  0  0  0 
 64148  1  0  0  0  0 
 65149  1  0  0  0  0 
 65150  1  0  0  0  0 
 66151  1  0  0  0  0 
 66152  1  0  0  0  0 
 67153  1  0  0  0  0 
 67154  1  0  0  0  0 
 70155  1  0  0  0  0 
 70156  1  0  0  0  0 
 70157  1  0  0  0  0 
 71158  1  0  0  0  0 
 75159  1  0  0  0  0 
 75160  1  0  0  0  0 
 76161  1  0  0  0  0 
 79162  1  0  0  0  0 
 80163  1  0  0  0  0 
 81164  1  0  0  0  0 
 81165  1  0  0  0  0 
 81166  1  0  0  0  0 
 82167  1  0  0  0  0 
 85168  1  0  0  0  0 
 85169  1  0  0  0  0 
 89170  1  0  0  0  0 
 89171  1  0  0  0  0 
 90172  1  0  0  0  0 
 93173  1  0  0  0  0 
 93174  1  0  0  0  0 
 95175  1  0  0  0  0 
 96176  1  0  0  0  0 
 98177  1  0  0  0  0 
 99178  1  0  0  0  0 
100179  1  0  0  0  0 
101180  1  0  0  0  0 
M  END
> <cdk:Title>
linaclotide

> <Conformer>
1

> <SuperDrugID>
SD003666

$$$$
