indecainide
  CDK     0628171801

 47 49  0  0  0  0  0  0  0  0999 V2000
   -4.1784    0.6110   -1.7436 C   0  0  1  0  0  0  0  0  0  0  0  0
   -3.5567   -0.6912   -1.1546 C   0  0  2  0  0  0  0  0  0  0  0  0
   -5.6227    0.9879   -1.2402 C   0  0  1  0  0  0  0  0  0  0  0  0
   -2.1538   -1.0175   -1.7206 C   0  0  2  0  0  0  0  0  0  0  0  0
   -6.1372    2.2513   -1.8543 C   0  0  0  0  0  0  0  0  0  0  0  0
   -6.5829   -0.1304   -1.4620 C   0  0  0  0  0  0  0  0  0  0  0  0
   -5.6768    1.0592    0.2472 C   0  0  0  0  0  0  0  0  0  0  0  0
   -1.7139   -2.3397   -1.2137 N   0  0  1  0  0  0  0  0  0  0  0  0
   -7.3536    2.7451   -1.5559 N   0  0  0  0  0  0  0  0  0  0  0  0
   -5.4647    2.9124   -2.6795 O   0  0  0  0  0  0  0  0  0  0  0  0
   -7.0593   -0.6603   -0.2552 C   0  0  0  0  0  0  0  0  0  0  0  0
   -7.0056   -0.6860   -2.6892 C   0  0  0  0  0  0  0  0  0  0  0  0
   -6.5025    0.0657    0.7903 C   0  0  0  0  0  0  0  0  0  0  0  0
   -4.9960    1.9528    1.1020 C   0  0  0  0  0  0  0  0  0  0  0  0
   -0.3436   -2.7771   -1.5936 C   0  0  1  0  0  0  0  0  0  0  0  0
   -7.9417   -1.7580   -0.2343 C   0  0  0  0  0  0  0  0  0  0  0  0
   -7.8832   -1.7902   -2.6818 C   0  0  0  0  0  0  0  0  0  0  0  0
   -6.6508   -0.0832    2.1831 C   0  0  0  0  0  0  0  0  0  0  0  0
   -5.1309    1.8097    2.4987 C   0  0  0  0  0  0  0  0  0  0  0  0
    0.0243   -4.0378   -0.7704 C   0  0  0  0  0  0  0  0  0  0  0  0
   -0.2367   -3.0821   -3.1108 C   0  0  0  0  0  0  0  0  0  0  0  0
   -8.3447   -2.3261   -1.4601 C   0  0  0  0  0  0  0  0  0  0  0  0
   -5.9489    0.7924    3.0359 C   0  0  0  0  0  0  0  0  0  0  0  0
   -3.4993    1.4399   -1.5215 H   0  0  0  0  0  0  0  0  0  0  0  0
   -4.2095    0.5077   -2.8323 H   0  0  0  0  0  0  0  0  0  0  0  0
   -4.2139   -1.5345   -1.3743 H   0  0  0  0  0  0  0  0  0  0  0  0
   -3.4749   -0.5991   -0.0695 H   0  0  0  0  0  0  0  0  0  0  0  0
   -1.4455   -0.2404   -1.4165 H   0  0  0  0  0  0  0  0  0  0  0  0
   -2.2082   -1.0434   -2.8110 H   0  0  0  0  0  0  0  0  0  0  0  0
   -1.7305   -2.2770   -0.1945 H   0  0  0  0  0  0  0  0  0  0  0  0
   -7.6562    3.5652   -1.9754 H   0  0  0  0  0  0  0  0  0  0  0  0
   -7.9282    2.2860   -0.9253 H   0  0  0  0  0  0  0  0  0  0  0  0
   -6.6783   -0.2973   -3.5760 H   0  0  0  0  0  0  0  0  0  0  0  0
   -4.4075    2.6942    0.7168 H   0  0  0  0  0  0  0  0  0  0  0  0
    0.3778   -1.9942   -1.3360 H   0  0  0  0  0  0  0  0  0  0  0  0
   -8.2823   -2.1437    0.6489 H   0  0  0  0  0  0  0  0  0  0  0  0
   -8.1840   -2.2058   -3.5668 H   0  0  0  0  0  0  0  0  0  0  0  0
   -7.2491   -0.8135    2.5743 H   0  0  0  0  0  0  0  0  0  0  0  0
   -4.6309    2.4452    3.1251 H   0  0  0  0  0  0  0  0  0  0  0  0
    1.0387   -4.3660   -1.0101 H   0  0  0  0  0  0  0  0  0  0  0  0
   -0.0174   -3.8190    0.2981 H   0  0  0  0  0  0  0  0  0  0  0  0
   -0.6676   -4.8561   -0.9875 H   0  0  0  0  0  0  0  0  0  0  0  0
    0.7265   -3.5391   -3.3457 H   0  0  0  0  0  0  0  0  0  0  0  0
   -0.3113   -2.1635   -3.6903 H   0  0  0  0  0  0  0  0  0  0  0  0
   -1.0342   -3.7610   -3.4217 H   0  0  0  0  0  0  0  0  0  0  0  0
   -8.9730   -3.1333   -1.4614 H   0  0  0  0  0  0  0  0  0  0  0  0
   -6.0329    0.6868    4.0498 H   0  0  0  0  0  0  0  0  0  0  0  0
  1  2  1  0  0  0  0 
  1  3  1  0  0  0  0 
  2  4  1  0  0  0  0 
  3  5  1  0  0  0  0 
  3  6  1  0  0  0  0 
  3  7  1  0  0  0  0 
  4  8  1  0  0  0  0 
  5  9  1  0  0  0  0 
  5 10  2  0  0  0  0 
  6 11  2  0  0  0  0 
  6 12  1  0  0  0  0 
  7 13  2  0  0  0  0 
  7 14  1  0  0  0  0 
  8 15  1  0  0  0  0 
 11 13  1  0  0  0  0 
 11 16  1  0  0  0  0 
 12 17  2  0  0  0  0 
 13 18  1  0  0  0  0 
 14 19  2  0  0  0  0 
 15 20  1  0  0  0  0 
 15 21  1  0  0  0  0 
 16 22  2  0  0  0  0 
 17 22  1  0  0  0  0 
 18 23  2  0  0  0  0 
 19 23  1  0  0  0  0 
  1 24  1  0  0  0  0 
  1 25  1  0  0  0  0 
  2 26  1  0  0  0  0 
  2 27  1  0  0  0  0 
  4 28  1  0  0  0  0 
  4 29  1  0  0  0  0 
  8 30  1  0  0  0  0 
  9 31  1  0  0  0  0 
  9 32  1  0  0  0  0 
 12 33  1  0  0  0  0 
 14 34  1  0  0  0  0 
 15 35  1  0  0  0  0 
 16 36  1  0  0  0  0 
 17 37  1  0  0  0  0 
 18 38  1  0  0  0  0 
 19 39  1  0  0  0  0 
 20 40  1  0  0  0  0 
 20 41  1  0  0  0  0 
 20 42  1  0  0  0  0 
 21 43  1  0  0  0  0 
 21 44  1  0  0  0  0 
 21 45  1  0  0  0  0 
 22 46  1  0  0  0  0 
 23 47  1  0  0  0  0 
M  END
> <cdk:Title>
indecainide

> <Conformer>
1

> <SuperDrugID>
SD001272

$$$$
