sulfachlorpyridazine
  CDK     0628171801

 27 28  0  0  0  0  0  0  0  0999 V2000
    2.4402    0.9005   -0.2606 S   0  0  1  0  0  0  0  0  0  0  0  0
    1.1272    0.0285    0.4285 N   0  0  0  0  0  0  0  0  0  0  0  0
    2.6055    2.2912    0.5251 O   0  0  0  0  0  0  0  0  0  0  0  0
    3.7659    0.0290   -0.0119 O   0  0  0  0  0  0  0  0  0  0  0  0
    2.2252    1.1693   -2.0009 C   0  0  0  0  0  0  0  0  0  0  0  0
   -0.1878    0.2084    0.1433 C   0  0  0  0  0  0  0  0  0  0  0  0
    2.3494    2.4590   -2.5629 C   0  0  0  0  0  0  0  0  0  0  0  0
    1.9054    0.0805   -2.8387 C   0  0  0  0  0  0  0  0  0  0  0  0
   -1.1578   -0.5529    0.8298 C   0  0  0  0  0  0  0  0  0  0  0  0
   -0.6255    1.0928   -0.7938 N   0  0  0  0  0  0  0  0  0  0  0  0
    2.1323    2.6603   -3.9391 C   0  0  0  0  0  0  0  0  0  0  0  0
    1.6860    0.2802   -4.2149 C   0  0  0  0  0  0  0  0  0  0  0  0
   -2.5203   -0.3756    0.5260 C   0  0  0  0  0  0  0  0  0  0  0  0
   -1.8921    1.2568   -1.0845 N   0  0  0  0  0  0  0  0  0  0  0  0
    1.7869    1.5746   -4.7664 C   0  0  0  0  0  0  0  0  0  0  0  0
   -2.8769    0.5574   -0.4650 C   0  0  0  0  0  0  0  0  0  0  0  0
    1.5424    1.7855   -6.0744 N   0  0  0  0  0  0  0  0  0  0  0  0
   -4.4909    0.8300   -0.8875 Cl  0  0  0  0  0  0  0  0  0  0  0  0
    1.3473   -0.6478    1.0881 H   0  0  0  0  0  0  0  0  0  0  0  0
    2.5900    3.2609   -1.9768 H   0  0  0  0  0  0  0  0  0  0  0  0
    1.8213   -0.8606   -2.4475 H   0  0  0  0  0  0  0  0  0  0  0  0
   -0.8831   -1.2320    1.5458 H   0  0  0  0  0  0  0  0  0  0  0  0
    2.2202    3.6012   -4.3324 H   0  0  0  0  0  0  0  0  0  0  0  0
    1.4468   -0.5190   -4.8078 H   0  0  0  0  0  0  0  0  0  0  0  0
   -3.2341   -0.9178    1.0198 H   0  0  0  0  0  0  0  0  0  0  0  0
    1.2924    1.0477   -6.6521 H   0  0  0  0  0  0  0  0  0  0  0  0
    1.6045    2.6831   -6.4380 H   0  0  0  0  0  0  0  0  0  0  0  0
  1  2  1  0  0  0  0 
  1  3  2  0  0  0  0 
  1  4  2  0  0  0  0 
  1  5  1  0  0  0  0 
  2  6  1  0  0  0  0 
  5  7  2  0  0  0  0 
  5  8  1  0  0  0  0 
  6  9  2  0  0  0  0 
  6 10  1  0  0  0  0 
  7 11  1  0  0  0  0 
  8 12  2  0  0  0  0 
  9 13  1  0  0  0  0 
 10 14  2  0  0  0  0 
 11 15  2  0  0  0  0 
 12 15  1  0  0  0  0 
 13 16  2  0  0  0  0 
 14 16  1  0  0  0  0 
 15 17  1  0  0  0  0 
 16 18  1  0  0  0  0 
  2 19  1  0  0  0  0 
  7 20  1  0  0  0  0 
  8 21  1  0  0  0  0 
  9 22  1  0  0  0  0 
 11 23  1  0  0  0  0 
 12 24  1  0  0  0  0 
 13 25  1  0  0  0  0 
 17 26  1  0  0  0  0 
 17 27  1  0  0  0  0 
M  END
> <cdk:Title>
sulfachlorpyridazine

> <Conformer>
1

> <SuperDrugID>
SD002245

$$$$
