gemcitabine
  CDK     0628171801

 29 30  0  0  0  0  0  0  0  0999 V2000
    2.5213   -4.8347   -1.3366 F   0  0  0  0  0  0  0  0  0  0  0  0
    1.6219   -3.8964   -0.8833 C   0  0  1  0  0  0  0  0  0  0  0  0
    2.3302   -2.7347   -0.6582 F   0  0  0  0  0  0  0  0  0  0  0  0
    0.4432   -3.6812   -1.8661 C   0  0  1  0  0  0  0  0  0  0  0  0
    0.8972   -4.3401    0.3969 C   0  0  2  0  0  0  0  0  0  0  0  0
   -0.7307   -3.3939   -1.0842 O   0  0  0  0  0  0  0  0  0  0  0  0
    0.7218   -2.6886   -2.8900 N   0  0  0  0  0  0  0  0  0  0  0  0
    0.6641   -5.7499    0.3939 O   0  0  0  0  0  0  0  0  0  0  0  0
   -0.4483   -3.5823    0.3096 C   0  0  2  0  0  0  0  0  0  0  0  0
    1.4674   -3.0176   -3.9988 C   0  0  0  0  0  0  0  0  0  0  0  0
    0.2805   -1.3954   -2.7533 C   0  0  0  0  0  0  0  0  0  0  0  0
   -0.4568   -2.2079    1.0234 C   0  0  2  0  0  0  0  0  0  0  0  0
    1.9201   -4.1674   -4.2041 O   0  0  0  0  0  0  0  0  0  0  0  0
    1.7557   -2.0844   -4.9399 N   0  0  0  0  0  0  0  0  0  0  0  0
    0.5698   -0.4184   -3.7199 C   0  0  0  0  0  0  0  0  0  0  0  0
   -1.7236   -1.5801    0.8602 O   0  0  0  0  0  0  0  0  0  0  0  0
    1.3327   -0.8019   -4.8327 C   0  0  0  0  0  0  0  0  0  0  0  0
    1.6647    0.0850   -5.7849 N   0  0  0  0  0  0  0  0  0  0  0  0
    0.2022   -4.6359   -2.3463 H   0  0  0  0  0  0  0  0  0  0  0  0
    1.4679   -4.0879    1.2946 H   0  0  0  0  0  0  0  0  0  0  0  0
    0.1531   -5.9173    1.2132 H   0  0  0  0  0  0  0  0  0  0  0  0
   -1.2469   -4.1904    0.7425 H   0  0  0  0  0  0  0  0  0  0  0  0
   -0.2633   -1.1018   -1.9383 H   0  0  0  0  0  0  0  0  0  0  0  0
    0.3084   -1.5490    0.6100 H   0  0  0  0  0  0  0  0  0  0  0  0
   -0.2666   -2.3387    2.0900 H   0  0  0  0  0  0  0  0  0  0  0  0
    0.2372    0.5417   -3.6082 H   0  0  0  0  0  0  0  0  0  0  0  0
   -1.6345   -0.7104    1.3034 H   0  0  0  0  0  0  0  0  0  0  0  0
    1.3759    1.0090   -5.7103 H   0  0  0  0  0  0  0  0  0  0  0  0
    2.1965   -0.1939   -6.5472 H   0  0  0  0  0  0  0  0  0  0  0  0
  1  2  1  0  0  0  0 
  2  3  1  0  0  0  0 
  4  2  1  0  0  0  0 
  5  2  1  0  0  0  0 
  4  6  1  0  0  0  0 
  4  7  1  0  0  0  0 
  5  8  1  0  0  0  0 
  9  5  1  0  0  0  0 
  9  6  1  0  0  0  0 
  7 10  1  0  0  0  0 
  7 11  1  0  0  0  0 
  9 12  1  0  0  0  0 
 10 13  2  0  0  0  0 
 10 14  1  0  0  0  0 
 11 15  2  0  0  0  0 
 12 16  1  0  0  0  0 
 14 17  2  0  0  0  0 
 15 17  1  0  0  0  0 
 17 18  1  0  0  0  0 
  4 19  1  0  0  0  0 
  5 20  1  0  0  0  0 
  8 21  1  0  0  0  0 
  9 22  1  0  0  0  0 
 11 23  1  0  0  0  0 
 12 24  1  0  0  0  0 
 12 25  1  0  0  0  0 
 15 26  1  0  0  0  0 
 16 27  1  0  0  0  0 
 18 28  1  0  0  0  0 
 18 29  1  0  0  0  0 
M  END
> <cdk:Title>
gemcitabine

> <Conformer>
1

> <SuperDrugID>
SD001144

$$$$
