bentiromide
  CDK     0628171801

 50 52  0  0  0  0  0  0  0  0999 V2000
   -2.2975   -0.7763    1.2459 C   0  0  1  0  0  0  0  0  0  0  0  0
   -2.5730    0.6421    0.6544 C   0  0  2  0  0  0  0  0  0  0  0  0
   -3.5452   -1.4368    1.7339 C   0  0  0  0  0  0  0  0  0  0  0  0
   -1.6873   -1.5368    0.1852 N   0  0  0  0  0  0  0  0  0  0  0  0
   -1.3494    1.2679    0.0683 C   0  0  0  0  0  0  0  0  0  0  0  0
   -4.3781   -1.0718    2.7557 N   0  0  0  0  0  0  0  0  0  0  0  0
   -3.9516   -2.4600    1.1354 O   0  0  0  0  0  0  0  0  0  0  0  0
   -0.3804   -1.9276    0.0884 C   0  0  0  0  0  0  0  0  0  0  0  0
   -0.3910    1.8954    0.8976 C   0  0  0  0  0  0  0  0  0  0  0  0
   -1.0964    1.2078   -1.3238 C   0  0  0  0  0  0  0  0  0  0  0  0
   -4.3401   -0.0645    3.6824 C   0  0  0  0  0  0  0  0  0  0  0  0
    0.3744   -1.7913    1.0809 O   0  0  0  0  0  0  0  0  0  0  0  0
    0.1472   -2.4138   -1.1463 C   0  0  0  0  0  0  0  0  0  0  0  0
    0.7886    2.4392    0.3589 C   0  0  0  0  0  0  0  0  0  0  0  0
    0.0874    1.7428   -1.8628 C   0  0  0  0  0  0  0  0  0  0  0  0
   -3.1858    0.5671    4.1979 C   0  0  0  0  0  0  0  0  0  0  0  0
   -5.5943    0.3350    4.1938 C   0  0  0  0  0  0  0  0  0  0  0  0
   -0.6978   -2.8354   -2.2056 C   0  0  0  0  0  0  0  0  0  0  0  0
    1.5484   -2.4490   -1.3718 C   0  0  0  0  0  0  0  0  0  0  0  0
    1.0334    2.3607   -1.0248 C   0  0  0  0  0  0  0  0  0  0  0  0
   -3.2876    1.6069    5.1426 C   0  0  0  0  0  0  0  0  0  0  0  0
   -5.6977    1.3683    5.1421 C   0  0  0  0  0  0  0  0  0  0  0  0
   -0.1684   -3.2668   -3.4352 C   0  0  0  0  0  0  0  0  0  0  0  0
    2.0804   -2.8841   -2.5988 C   0  0  0  0  0  0  0  0  0  0  0  0
    2.1676    2.8719   -1.5650 O   0  0  0  0  0  0  0  0  0  0  0  0
   -4.5481    2.0337    5.6259 C   0  0  0  0  0  0  0  0  0  0  0  0
    1.2212   -3.2936   -3.6302 C   0  0  0  0  0  0  0  0  0  0  0  0
   -4.6622    3.0942    6.5671 C   0  0  0  0  0  0  0  0  0  0  0  0
   -5.8618    3.4754    7.0746 O   0  0  0  0  0  0  0  0  0  0  0  0
   -3.6606    3.7275    6.9750 O   0  0  0  0  0  0  0  0  0  0  0  0
   -1.6061   -0.7000    2.0803 H   0  0  0  0  0  0  0  0  0  0  0  0
   -2.9729    1.3080    1.4217 H   0  0  0  0  0  0  0  0  0  0  0  0
   -3.3486    0.5605   -0.1146 H   0  0  0  0  0  0  0  0  0  0  0  0
   -2.2607   -1.7182   -0.5719 H   0  0  0  0  0  0  0  0  0  0  0  0
   -5.1761   -1.6233    2.8162 H   0  0  0  0  0  0  0  0  0  0  0  0
   -0.5441    1.9599    1.9036 H   0  0  0  0  0  0  0  0  0  0  0  0
   -1.7670    0.7597   -1.9529 H   0  0  0  0  0  0  0  0  0  0  0  0
    1.4664    2.8890    0.9778 H   0  0  0  0  0  0  0  0  0  0  0  0
    0.2595    1.6810   -2.8672 H   0  0  0  0  0  0  0  0  0  0  0  0
   -2.2557    0.2711    3.9172 H   0  0  0  0  0  0  0  0  0  0  0  0
   -6.4522   -0.1232    3.8715 H   0  0  0  0  0  0  0  0  0  0  0  0
   -1.7138   -2.8354   -2.1038 H   0  0  0  0  0  0  0  0  0  0  0  0
    2.2046   -2.1445   -0.6499 H   0  0  0  0  0  0  0  0  0  0  0  0
   -2.4256    2.0476    5.4771 H   0  0  0  0  0  0  0  0  0  0  0  0
   -6.6286    1.6292    5.4735 H   0  0  0  0  0  0  0  0  0  0  0  0
   -0.7955   -3.5604   -4.1881 H   0  0  0  0  0  0  0  0  0  0  0  0
    3.0929   -2.8975   -2.7398 H   0  0  0  0  0  0  0  0  0  0  0  0
    2.5738    3.4309   -0.8688 H   0  0  0  0  0  0  0  0  0  0  0  0
    1.6064   -3.6079   -4.5214 H   0  0  0  0  0  0  0  0  0  0  0  0
   -5.9142    4.2089    7.7246 H   0  0  0  0  0  0  0  0  0  0  0  0
  1  2  1  0  0  0  0 
  1  3  1  0  0  0  0 
  1  4  1  0  0  0  0 
  2  5  1  0  0  0  0 
  3  6  1  0  0  0  0 
  3  7  2  0  0  0  0 
  4  8  1  0  0  0  0 
  5  9  2  0  0  0  0 
  5 10  1  0  0  0  0 
  6 11  1  0  0  0  0 
  8 12  2  0  0  0  0 
  8 13  1  0  0  0  0 
  9 14  1  0  0  0  0 
 10 15  2  0  0  0  0 
 11 16  2  0  0  0  0 
 11 17  1  0  0  0  0 
 13 18  2  0  0  0  0 
 13 19  1  0  0  0  0 
 14 20  2  0  0  0  0 
 15 20  1  0  0  0  0 
 16 21  1  0  0  0  0 
 17 22  2  0  0  0  0 
 18 23  1  0  0  0  0 
 19 24  2  0  0  0  0 
 20 25  1  0  0  0  0 
 21 26  2  0  0  0  0 
 22 26  1  0  0  0  0 
 23 27  2  0  0  0  0 
 24 27  1  0  0  0  0 
 26 28  1  0  0  0  0 
 28 29  1  0  0  0  0 
 28 30  2  0  0  0  0 
  1 31  1  0  0  0  0 
  2 32  1  0  0  0  0 
  2 33  1  0  0  0  0 
  4 34  1  0  0  0  0 
  6 35  1  0  0  0  0 
  9 36  1  0  0  0  0 
 10 37  1  0  0  0  0 
 14 38  1  0  0  0  0 
 15 39  1  0  0  0  0 
 16 40  1  0  0  0  0 
 17 41  1  0  0  0  0 
 18 42  1  0  0  0  0 
 19 43  1  0  0  0  0 
 21 44  1  0  0  0  0 
 22 45  1  0  0  0  0 
 23 46  1  0  0  0  0 
 24 47  1  0  0  0  0 
 25 48  1  0  0  0  0 
 27 49  1  0  0  0  0 
 29 50  1  0  0  0  0 
M  END
> <cdk:Title>
bentiromide

> <Conformer>
1

> <SuperDrugID>
SD000265

$$$$
