flunisolide
  CDK     0628171801

 62 66  0  0  0  0  0  0  0  0999 V2000
    0.0036    3.4154   -0.8747 C   0  0  0  0  0  0  0  0  0  0  0  0
   -0.3020    4.8651   -0.8475 C   0  0  2  0  0  0  0  0  0  0  0  0
   -0.9293    2.6325   -0.5727 O   0  0  0  0  0  0  0  0  0  0  0  0
    1.3190    2.7952   -1.2411 C   0  0  2  0  0  0  0  0  0  0  0  0
    0.3424    5.5152    0.2408 O   0  0  0  0  0  0  0  0  0  0  0  0
    2.0203    1.9930   -0.0685 C   0  0  2  0  0  0  0  0  0  0  0  0
    2.4513    3.7057   -1.8054 C   0  0  1  0  0  0  0  0  0  0  0  0
    1.0309    1.9451   -2.3653 O   0  0  0  0  0  0  0  0  0  0  0  0
    2.0131    2.8588    1.2532 C   0  0  0  0  0  0  0  0  0  0  0  0
    3.4418    1.7854   -0.6799 C   0  0  1  0  0  0  0  0  0  0  0  0
    1.4427    0.5652    0.2405 C   0  0  1  0  0  0  0  0  0  0  0  0
    3.8010    3.1755   -1.2469 C   0  0  1  0  0  0  0  0  0  0  0  0
    2.4173    3.6097   -3.2317 O   0  0  0  0  0  0  0  0  0  0  0  0
    1.4807    2.5810   -3.5724 C   0  0  2  0  0  0  0  0  0  0  0  0
    4.4466    1.0307    0.2533 C   0  0  1  0  0  0  0  0  0  0  0  0
    2.3793   -0.3233    1.1275 C   0  0  1  0  0  0  0  0  0  0  0  0
    0.2928    3.2190   -4.3427 C   0  0  0  0  0  0  0  0  0  0  0  0
    2.1765    1.5043   -4.4468 C   0  0  0  0  0  0  0  0  0  0  0  0
    3.8673   -0.3984    0.6063 C   0  0  2  0  0  0  0  0  0  0  0  0
    5.8492    0.9024   -0.4160 C   0  0  1  0  0  0  0  0  0  0  0  0
    2.2976    0.0891    2.4900 O   0  0  0  0  0  0  0  0  0  0  0  0
    4.8930   -1.2828    1.4501 C   0  0  2  0  0  0  0  0  0  0  0  0
    6.8253   -0.0001    0.3820 C   0  0  1  0  0  0  0  0  0  0  0  0
    5.1758   -0.7517    2.9055 C   0  0  0  0  0  0  0  0  0  0  0  0
    6.1878   -1.2957    0.6834 C   0  0  0  0  0  0  0  0  0  0  0  0
    4.3369   -2.6469    1.6388 C   0  0  0  0  0  0  0  0  0  0  0  0
    8.0082   -0.0667   -0.3272 F   0  0  0  0  0  0  0  0  0  0  0  0
    6.7269   -2.4587    0.2455 C   0  0  0  0  0  0  0  0  0  0  0  0
    4.9289   -3.7580    1.1755 C   0  0  0  0  0  0  0  0  0  0  0  0
    6.1209   -3.6801    0.4831 C   0  0  0  0  0  0  0  0  0  0  0  0
    6.6563   -4.7320    0.0601 O   0  0  0  0  0  0  0  0  0  0  0  0
    3.3525    1.1324   -1.5570 H   0  0  0  0  0  0  0  0  0  0  0  0
    4.5866    1.6082    1.1670 H   0  0  0  0  0  0  0  0  0  0  0  0
    3.7730   -0.9222   -0.3558 H   0  0  0  0  0  0  0  0  0  0  0  0
    2.3480    4.7555   -1.5249 H   0  0  0  0  0  0  0  0  0  0  0  0
   -1.3781    5.0263   -0.7424 H   0  0  0  0  0  0  0  0  0  0  0  0
    0.0163    5.3374   -1.7765 H   0  0  0  0  0  0  0  0  0  0  0  0
   -0.0051    5.0752    1.0441 H   0  0  0  0  0  0  0  0  0  0  0  0
    2.6807    2.4734    2.0194 H   0  0  0  0  0  0  0  0  0  0  0  0
    1.0108    2.8838    1.6836 H   0  0  0  0  0  0  0  0  0  0  0  0
    2.3132    3.8894    1.0677 H   0  0  0  0  0  0  0  0  0  0  0  0
    0.4675    0.6558    0.7269 H   0  0  0  0  0  0  0  0  0  0  0  0
    1.2733    0.0270   -0.6960 H   0  0  0  0  0  0  0  0  0  0  0  0
    4.5672    3.1116   -2.0243 H   0  0  0  0  0  0  0  0  0  0  0  0
    4.1725    3.8283   -0.4524 H   0  0  0  0  0  0  0  0  0  0  0  0
    1.9477   -1.3282    1.0989 H   0  0  0  0  0  0  0  0  0  0  0  0
   -0.1521    4.0250   -3.7618 H   0  0  0  0  0  0  0  0  0  0  0  0
   -0.4775    2.4716   -4.5442 H   0  0  0  0  0  0  0  0  0  0  0  0
    0.6301    3.6385   -5.2930 H   0  0  0  0  0  0  0  0  0  0  0  0
    2.9917    1.0314   -3.8982 H   0  0  0  0  0  0  0  0  0  0  0  0
    1.4622    0.7283   -4.7340 H   0  0  0  0  0  0  0  0  0  0  0  0
    2.5906    1.9515   -5.3524 H   0  0  0  0  0  0  0  0  0  0  0  0
    5.7388    0.4960   -1.4268 H   0  0  0  0  0  0  0  0  0  0  0  0
    6.2957    1.8965   -0.5085 H   0  0  0  0  0  0  0  0  0  0  0  0
    1.3439    0.0526    2.7131 H   0  0  0  0  0  0  0  0  0  0  0  0
    7.0841    0.4960    1.3186 H   0  0  0  0  0  0  0  0  0  0  0  0
    6.0397   -1.2655    3.3408 H   0  0  0  0  0  0  0  0  0  0  0  0
    5.3917    0.3159    2.9191 H   0  0  0  0  0  0  0  0  0  0  0  0
    4.3303   -0.9115    3.5792 H   0  0  0  0  0  0  0  0  0  0  0  0
    3.4908   -2.7621    2.1488 H   0  0  0  0  0  0  0  0  0  0  0  0
    7.5768   -2.4625   -0.2692 H   0  0  0  0  0  0  0  0  0  0  0  0
    4.5091   -4.6454    1.3410 H   0  0  0  0  0  0  0  0  0  0  0  0
  1  2  1  0  0  0  0 
  1  3  2  0  0  0  0 
  2  5  1  0  0  0  0 
  4  1  1  0  0  0  0 
  6  4  1  0  0  0  0 
  4  7  1  0  0  0  0 
  4  8  1  0  0  0  0 
  6  9  1  0  0  0  0 
 10  6  1  0  0  0  0 
  6 11  1  0  0  0  0 
  7 12  1  0  0  0  0 
  7 13  1  0  0  0  0 
  7 35  1  0  0  0  0 
  8 14  1  0  0  0  0 
 10 12  1  0  0  0  0 
 15 10  1  0  0  0  0 
 10 32  1  0  0  0  0 
 16 11  1  0  0  0  0 
 13 14  1  0  0  0  0 
 14 17  1  0  0  0  0 
 14 18  1  0  0  0  0 
 15 19  1  0  0  0  0 
 15 20  1  0  0  0  0 
 15 33  1  0  0  0  0 
 19 16  1  0  0  0  0 
 16 21  1  0  0  0  0 
 19 22  1  0  0  0  0 
 19 34  1  0  0  0  0 
 23 20  1  0  0  0  0 
 22 24  1  0  0  0  0 
 22 25  1  0  0  0  0 
 22 26  1  0  0  0  0 
 23 25  1  0  0  0  0 
 23 27  1  0  0  0  0 
 25 28  2  0  0  0  0 
 26 29  2  0  0  0  0 
 28 30  1  0  0  0  0 
 29 30  1  0  0  0  0 
 30 31  2  0  0  0  0 
  2 36  1  0  0  0  0 
  2 37  1  0  0  0  0 
  5 38  1  0  0  0  0 
  9 39  1  0  0  0  0 
  9 40  1  0  0  0  0 
  9 41  1  0  0  0  0 
 11 42  1  0  0  0  0 
 11 43  1  0  0  0  0 
 12 44  1  0  0  0  0 
 12 45  1  0  0  0  0 
 16 46  1  0  0  0  0 
 17 47  1  0  0  0  0 
 17 48  1  0  0  0  0 
 17 49  1  0  0  0  0 
 18 50  1  0  0  0  0 
 18 51  1  0  0  0  0 
 18 52  1  0  0  0  0 
 20 53  1  0  0  0  0 
 20 54  1  0  0  0  0 
 21 55  1  0  0  0  0 
 23 56  1  0  0  0  0 
 24 57  1  0  0  0  0 
 24 58  1  0  0  0  0 
 24 59  1  0  0  0  0 
 26 60  1  0  0  0  0 
 28 61  1  0  0  0  0 
 29 62  1  0  0  0  0 
M  END
> <cdk:Title>
flunisolide

> <Conformer>
1

> <SuperDrugID>
SD001075

$$$$
