iocarmic acid
  CDK     0628171801

 62 63  0  0  0  0  0  0  0  0999 V2000
   -7.5609   -9.8581    1.7715 N   0  0  0  0  0  0  0  0  0  0  0  0
   -7.7162   -8.5304    2.0140 C   0  0  0  0  0  0  0  0  0  0  0  0
   -7.7562  -10.8924    2.6239 C   0  0  0  0  0  0  0  0  0  0  0  0
   -7.5135   -7.6080    0.8773 C   0  0  2  0  0  0  0  0  0  0  0  0
   -7.9947   -8.0876    3.1542 O   0  0  0  0  0  0  0  0  0  0  0  0
   -6.6566  -11.7494    2.8411 C   0  0  0  0  0  0  0  0  0  0  0  0
   -9.0175  -11.1860    3.1971 C   0  0  0  0  0  0  0  0  0  0  0  0
   -8.4584   -7.9207   -0.3261 C   0  0  1  0  0  0  0  0  0  0  0  0
   -4.8340  -11.3000    1.9762 I   0  0  0  0  0  0  0  0  0  0  0  0
   -6.8142  -12.9110    3.6300 C   0  0  0  0  0  0  0  0  0  0  0  0
  -10.6480   -9.9901    2.7757 I   0  0  0  0  0  0  0  0  0  0  0  0
   -9.1665  -12.3274    4.0214 C   0  0  0  0  0  0  0  0  0  0  0  0
   -7.9085   -7.4463   -1.6995 C   0  0  2  0  0  0  0  0  0  0  0  0
   -5.7513  -13.8211    3.7588 C   0  0  0  0  0  0  0  0  0  0  0  0
   -8.0591  -13.1824    4.2475 C   0  0  0  0  0  0  0  0  0  0  0  0
  -10.4205  -12.6341    4.5815 C   0  0  0  0  0  0  0  0  0  0  0  0
   -8.6126   -8.1462   -2.8949 C   0  0  1  0  0  0  0  0  0  0  0  0
   -5.7918  -14.9586    3.0159 N   0  0  0  0  0  0  0  0  0  0  0  0
   -4.8114  -13.5608    4.5466 O   0  0  0  0  0  0  0  0  0  0  0  0
   -8.2625  -14.8465    5.4579 I   0  0  0  0  0  0  0  0  0  0  0  0
  -11.4333  -13.0471    3.7850 O   0  0  0  0  0  0  0  0  0  0  0  0
  -10.6117  -12.5430    5.8149 O   0  0  0  0  0  0  0  0  0  0  0  0
   -8.0656   -7.6518   -4.2289 C   0  0  0  0  0  0  0  0  0  0  0  0
   -4.8177  -15.9917    3.0431 C   0  0  0  0  0  0  0  0  0  0  0  0
   -8.9731   -7.0996   -5.0906 N   0  0  0  0  0  0  0  0  0  0  0  0
   -6.8418   -7.7062   -4.5967 O   0  0  0  0  0  0  0  0  0  0  0  0
   -8.6526   -6.5417   -6.2895 C   0  0  0  0  0  0  0  0  0  0  0  0
   -8.6755   -5.1345   -6.4001 C   0  0  0  0  0  0  0  0  0  0  0  0
   -8.2685   -7.3403   -7.3911 C   0  0  0  0  0  0  0  0  0  0  0  0
   -9.2649   -4.0010   -4.7758 I   0  0  0  0  0  0  0  0  0  0  0  0
   -8.2597   -4.5176   -7.6024 C   0  0  0  0  0  0  0  0  0  0  0  0
   -8.4342   -9.3948   -7.2512 I   0  0  0  0  0  0  0  0  0  0  0  0
   -7.7982   -6.7239   -8.5761 C   0  0  0  0  0  0  0  0  0  0  0  0
   -8.3226   -3.1199   -7.7185 C   0  0  0  0  0  0  0  0  0  0  0  0
   -7.7859   -5.3089   -8.6768 C   0  0  0  0  0  0  0  0  0  0  0  0
   -7.3202   -7.5181   -9.6358 C   0  0  0  0  0  0  0  0  0  0  0  0
   -9.4591   -2.5610   -8.2106 N   0  0  0  0  0  0  0  0  0  0  0  0
   -7.3452   -2.4365   -7.3312 O   0  0  0  0  0  0  0  0  0  0  0  0
   -7.0420   -4.3847  -10.3697 I   0  0  0  0  0  0  0  0  0  0  0  0
   -6.2057   -8.2666   -9.4607 O   0  0  0  0  0  0  0  0  0  0  0  0
   -7.8924   -7.5293  -10.7500 O   0  0  0  0  0  0  0  0  0  0  0  0
   -9.6955   -1.1619   -8.3164 C   0  0  0  0  0  0  0  0  0  0  0  0
   -7.2414  -10.0965    0.8871 H   0  0  0  0  0  0  0  0  0  0  0  0
   -6.4698   -7.7100    0.5735 H   0  0  0  0  0  0  0  0  0  0  0  0
   -7.6637   -6.5738    1.1966 H   0  0  0  0  0  0  0  0  0  0  0  0
   -8.6321   -8.9981   -0.3958 H   0  0  0  0  0  0  0  0  0  0  0  0
   -9.4305   -7.4524   -0.1490 H   0  0  0  0  0  0  0  0  0  0  0  0
   -6.8375   -7.6656   -1.7612 H   0  0  0  0  0  0  0  0  0  0  0  0
   -8.0356   -6.3635   -1.7770 H   0  0  0  0  0  0  0  0  0  0  0  0
   -8.4221   -9.2215   -2.8443 H   0  0  0  0  0  0  0  0  0  0  0  0
   -9.6921   -7.9927   -2.8270 H   0  0  0  0  0  0  0  0  0  0  0  0
   -6.5457  -15.0728    2.4137 H   0  0  0  0  0  0  0  0  0  0  0  0
  -12.3044  -13.2806    4.1701 H   0  0  0  0  0  0  0  0  0  0  0  0
   -4.6564  -16.3370    4.0648 H   0  0  0  0  0  0  0  0  0  0  0  0
   -5.1795  -16.8259    2.4422 H   0  0  0  0  0  0  0  0  0  0  0  0
   -3.8772  -15.6373    2.6217 H   0  0  0  0  0  0  0  0  0  0  0  0
   -9.9004   -7.0499   -4.8065 H   0  0  0  0  0  0  0  0  0  0  0  0
  -10.1658   -3.1583   -8.5057 H   0  0  0  0  0  0  0  0  0  0  0  0
   -5.8438   -8.7982  -10.2008 H   0  0  0  0  0  0  0  0  0  0  0  0
   -9.6280   -0.6886   -7.3352 H   0  0  0  0  0  0  0  0  0  0  0  0
   -8.9764   -0.6992   -8.9940 H   0  0  0  0  0  0  0  0  0  0  0  0
  -10.6991   -1.0036   -8.7099 H   0  0  0  0  0  0  0  0  0  0  0  0
  1  2  1  0  0  0  0 
  1  3  1  0  0  0  0 
  2  4  1  0  0  0  0 
  2  5  2  0  0  0  0 
  3  6  2  0  0  0  0 
  3  7  1  0  0  0  0 
  4  8  1  0  0  0  0 
  6  9  1  0  0  0  0 
  6 10  1  0  0  0  0 
  7 11  1  0  0  0  0 
  7 12  2  0  0  0  0 
  8 13  1  0  0  0  0 
 10 14  1  0  0  0  0 
 10 15  2  0  0  0  0 
 12 15  1  0  0  0  0 
 12 16  1  0  0  0  0 
 13 17  1  0  0  0  0 
 14 18  1  0  0  0  0 
 14 19  2  0  0  0  0 
 15 20  1  0  0  0  0 
 16 21  1  0  0  0  0 
 16 22  2  0  0  0  0 
 17 23  1  0  0  0  0 
 18 24  1  0  0  0  0 
 23 25  1  0  0  0  0 
 23 26  2  0  0  0  0 
 25 27  1  0  0  0  0 
 27 28  2  0  0  0  0 
 27 29  1  0  0  0  0 
 28 30  1  0  0  0  0 
 28 31  1  0  0  0  0 
 29 32  1  0  0  0  0 
 29 33  2  0  0  0  0 
 31 34  1  0  0  0  0 
 31 35  2  0  0  0  0 
 33 35  1  0  0  0  0 
 33 36  1  0  0  0  0 
 34 37  1  0  0  0  0 
 34 38  2  0  0  0  0 
 35 39  1  0  0  0  0 
 36 40  1  0  0  0  0 
 36 41  2  0  0  0  0 
 37 42  1  0  0  0  0 
  1 43  1  0  0  0  0 
  4 44  1  0  0  0  0 
  4 45  1  0  0  0  0 
  8 46  1  0  0  0  0 
  8 47  1  0  0  0  0 
 13 48  1  0  0  0  0 
 13 49  1  0  0  0  0 
 17 50  1  0  0  0  0 
 17 51  1  0  0  0  0 
 18 52  1  0  0  0  0 
 21 53  1  0  0  0  0 
 24 54  1  0  0  0  0 
 24 55  1  0  0  0  0 
 24 56  1  0  0  0  0 
 25 57  1  0  0  0  0 
 37 58  1  0  0  0  0 
 40 59  1  0  0  0  0 
 42 60  1  0  0  0  0 
 42 61  1  0  0  0  0 
 42 62  1  0  0  0  0 
M  END
> <cdk:Title>
iocarmic acid

> <Conformer>
1

> <SuperDrugID>
SD001285

$$$$
