labetalol
  CDK     0628171801

 48 49  0  0  0  0  0  0  0  0999 V2000
    5.9608    4.8260   -2.1133 C   0  0  1  0  0  0  0  0  0  0  0  0
    4.8864    5.6885   -2.8256 C   0  0  2  0  0  0  0  0  0  0  0  0
    6.1480    3.5940   -2.8094 O   0  0  0  0  0  0  0  0  0  0  0  0
    7.2480    5.5578   -1.9170 C   0  0  0  0  0  0  0  0  0  0  0  0
    5.2802    5.9927   -4.2198 N   0  0  1  0  0  0  0  0  0  0  0  0
    8.2842    5.5402   -2.8835 C   0  0  0  0  0  0  0  0  0  0  0  0
    7.4438    6.3131   -0.7410 C   0  0  0  0  0  0  0  0  0  0  0  0
    4.4170    6.9448   -4.9704 C   0  0  1  0  0  0  0  0  0  0  0  0
    9.5015    6.2519   -2.7014 C   0  0  0  0  0  0  0  0  0  0  0  0
    8.6351    7.0207   -0.5317 C   0  0  0  0  0  0  0  0  0  0  0  0
    5.1969    7.4471   -6.2261 C   0  0  2  0  0  0  0  0  0  0  0  0
    3.0770    6.2763   -5.3818 C   0  0  0  0  0  0  0  0  0  0  0  0
   10.5313    6.2071   -3.6916 C   0  0  0  0  0  0  0  0  0  0  0  0
    9.6500    7.0038   -1.5029 C   0  0  0  0  0  0  0  0  0  0  0  0
    6.5156    8.2231   -5.9342 C   0  0  2  0  0  0  0  0  0  0  0  0
   10.4371    5.5167   -4.8454 N   0  0  0  0  0  0  0  0  0  0  0  0
   11.6172    6.8146   -3.5512 O   0  0  0  0  0  0  0  0  0  0  0  0
   10.7516    7.7468   -1.2253 O   0  0  0  0  0  0  0  0  0  0  0  0
    6.3047    9.4608   -5.1356 C   0  0  0  0  0  0  0  0  0  0  0  0
    5.9121   10.6644   -5.7678 C   0  0  0  0  0  0  0  0  0  0  0  0
    6.4697    9.4516   -3.7298 C   0  0  0  0  0  0  0  0  0  0  0  0
    5.6791   11.8264   -5.0104 C   0  0  0  0  0  0  0  0  0  0  0  0
    6.2302   10.6126   -2.9746 C   0  0  0  0  0  0  0  0  0  0  0  0
    5.8338   11.8006   -3.6134 C   0  0  0  0  0  0  0  0  0  0  0  0
    5.5610    4.5466   -1.1338 H   0  0  0  0  0  0  0  0  0  0  0  0
    4.7332    6.6158   -2.2647 H   0  0  0  0  0  0  0  0  0  0  0  0
    3.9496    5.1274   -2.8284 H   0  0  0  0  0  0  0  0  0  0  0  0
    5.2663    3.1653   -2.8006 H   0  0  0  0  0  0  0  0  0  0  0  0
    6.1987    6.4289   -4.1500 H   0  0  0  0  0  0  0  0  0  0  0  0
    8.1345    4.9968   -3.7382 H   0  0  0  0  0  0  0  0  0  0  0  0
    6.7149    6.3604   -0.0244 H   0  0  0  0  0  0  0  0  0  0  0  0
    4.1769    7.8117   -4.3455 H   0  0  0  0  0  0  0  0  0  0  0  0
    8.7588    7.5566    0.3294 H   0  0  0  0  0  0  0  0  0  0  0  0
    4.5429    8.0966   -6.8162 H   0  0  0  0  0  0  0  0  0  0  0  0
    5.4431    6.5843   -6.8544 H   0  0  0  0  0  0  0  0  0  0  0  0
    2.4968    6.9364   -6.0295 H   0  0  0  0  0  0  0  0  0  0  0  0
    3.2634    5.3405   -5.9112 H   0  0  0  0  0  0  0  0  0  0  0  0
    2.4670    6.0676   -4.5029 H   0  0  0  0  0  0  0  0  0  0  0  0
    6.9769    8.4858   -6.8911 H   0  0  0  0  0  0  0  0  0  0  0  0
    7.2286    7.5630   -5.4343 H   0  0  0  0  0  0  0  0  0  0  0  0
   11.1787    5.5331   -5.4703 H   0  0  0  0  0  0  0  0  0  0  0  0
    9.6437    5.0059   -5.0601 H   0  0  0  0  0  0  0  0  0  0  0  0
   10.7015    8.5085   -1.8410 H   0  0  0  0  0  0  0  0  0  0  0  0
    5.7975   10.7033   -6.7847 H   0  0  0  0  0  0  0  0  0  0  0  0
    6.7547    8.5966   -3.2444 H   0  0  0  0  0  0  0  0  0  0  0  0
    5.3949   12.6886   -5.4776 H   0  0  0  0  0  0  0  0  0  0  0  0
    6.3431   10.5900   -1.9604 H   0  0  0  0  0  0  0  0  0  0  0  0
    5.6567   12.6432   -3.0622 H   0  0  0  0  0  0  0  0  0  0  0  0
  1  2  1  0  0  0  0 
  1  3  1  0  0  0  0 
  1  4  1  0  0  0  0 
  2  5  1  0  0  0  0 
  4  6  2  0  0  0  0 
  4  7  1  0  0  0  0 
  8  5  1  0  0  0  0 
  6  9  1  0  0  0  0 
  7 10  2  0  0  0  0 
  8 11  1  0  0  0  0 
  8 12  1  0  0  0  0 
  9 13  1  0  0  0  0 
  9 14  2  0  0  0  0 
 10 14  1  0  0  0  0 
 11 15  1  0  0  0  0 
 13 16  1  0  0  0  0 
 13 17  2  0  0  0  0 
 14 18  1  0  0  0  0 
 15 19  1  0  0  0  0 
 19 20  2  0  0  0  0 
 19 21  1  0  0  0  0 
 20 22  1  0  0  0  0 
 21 23  2  0  0  0  0 
 22 24  2  0  0  0  0 
 23 24  1  0  0  0  0 
  1 25  1  0  0  0  0 
  2 26  1  0  0  0  0 
  2 27  1  0  0  0  0 
  3 28  1  0  0  0  0 
  5 29  1  0  0  0  0 
  6 30  1  0  0  0  0 
  7 31  1  0  0  0  0 
  8 32  1  0  0  0  0 
 10 33  1  0  0  0  0 
 11 34  1  0  0  0  0 
 11 35  1  0  0  0  0 
 12 36  1  0  0  0  0 
 12 37  1  0  0  0  0 
 12 38  1  0  0  0  0 
 15 39  1  0  0  0  0 
 15 40  1  0  0  0  0 
 16 41  1  0  0  0  0 
 16 42  1  0  0  0  0 
 18 43  1  0  0  0  0 
 20 44  1  0  0  0  0 
 21 45  1  0  0  0  0 
 22 46  1  0  0  0  0 
 23 47  1  0  0  0  0 
 24 48  1  0  0  0  0 
M  END
> <cdk:Title>
labetalol

> <Conformer>
1

> <SuperDrugID>
SD001354

$$$$
