diphenylpyraline
  CDK     0628171802

 44 46  0  0  0  0  0  0  0  0999 V2000
   -2.5563    0.6241   -3.9070 C   0  0  1  0  0  0  0  0  0  0  0  0
   -2.7170    1.0593   -2.5342 O   0  0  0  0  0  0  0  0  0  0  0  0
   -2.5344   -0.8596   -4.0810 C   0  0  0  0  0  0  0  0  0  0  0  0
   -3.6383    1.2160   -4.7461 C   0  0  0  0  0  0  0  0  0  0  0  0
   -1.7348    0.6671   -1.5481 C   0  0  2  0  0  0  0  0  0  0  0  0
   -1.5419   -1.4735   -4.8834 C   0  0  0  0  0  0  0  0  0  0  0  0
   -3.4911   -1.6850   -3.4415 C   0  0  0  0  0  0  0  0  0  0  0  0
   -3.3557    1.6498   -6.0652 C   0  0  0  0  0  0  0  0  0  0  0  0
   -4.9636    1.3557   -4.2626 C   0  0  0  0  0  0  0  0  0  0  0  0
   -2.2939    1.0993   -0.1652 C   0  0  2  0  0  0  0  0  0  0  0  0
   -0.3393    1.3060   -1.7951 C   0  0  1  0  0  0  0  0  0  0  0  0
   -1.4983   -2.8712   -5.0317 C   0  0  0  0  0  0  0  0  0  0  0  0
   -3.4414   -3.0846   -3.5820 C   0  0  0  0  0  0  0  0  0  0  0  0
   -4.3575    2.2162   -6.8715 C   0  0  0  0  0  0  0  0  0  0  0  0
   -5.9680    1.9223   -5.0686 C   0  0  0  0  0  0  0  0  0  0  0  0
   -1.2746    0.8378    0.9763 C   0  0  1  0  0  0  0  0  0  0  0  0
    0.6288    1.0292   -0.6175 C   0  0  1  0  0  0  0  0  0  0  0  0
   -2.4406   -3.6781   -4.3712 C   0  0  0  0  0  0  0  0  0  0  0  0
   -5.6642    2.3524   -6.3725 C   0  0  0  0  0  0  0  0  0  0  0  0
    0.0713    1.4321    0.7090 N   0  0  1  0  0  0  0  0  0  0  0  0
    0.1987    2.8826    1.0249 C   0  0  0  0  0  0  0  0  0  0  0  0
   -1.6115    1.0477   -4.2599 H   0  0  0  0  0  0  0  0  0  0  0  0
   -1.6331   -0.4226   -1.5405 H   0  0  0  0  0  0  0  0  0  0  0  0
   -0.8437   -0.9059   -5.3719 H   0  0  0  0  0  0  0  0  0  0  0  0
   -4.2230   -1.2745   -2.8578 H   0  0  0  0  0  0  0  0  0  0  0  0
   -2.4130    1.5552   -6.4513 H   0  0  0  0  0  0  0  0  0  0  0  0
   -5.2087    1.0500   -3.3178 H   0  0  0  0  0  0  0  0  0  0  0  0
   -3.2132    0.5463    0.0439 H   0  0  0  0  0  0  0  0  0  0  0  0
   -2.5487    2.1620   -0.1876 H   0  0  0  0  0  0  0  0  0  0  0  0
    0.1024    0.8933   -2.7041 H   0  0  0  0  0  0  0  0  0  0  0  0
   -0.4536    2.3827   -1.9360 H   0  0  0  0  0  0  0  0  0  0  0  0
   -0.7809   -3.3000   -5.6201 H   0  0  0  0  0  0  0  0  0  0  0  0
   -4.1324   -3.6708   -3.1074 H   0  0  0  0  0  0  0  0  0  0  0  0
   -4.1336    2.5292   -7.8188 H   0  0  0  0  0  0  0  0  0  0  0  0
   -6.9185    2.0240   -4.7053 H   0  0  0  0  0  0  0  0  0  0  0  0
   -1.6811    1.2143    1.9190 H   0  0  0  0  0  0  0  0  0  0  0  0
   -1.1510   -0.2418    1.0984 H   0  0  0  0  0  0  0  0  0  0  0  0
    0.8440   -0.0422   -0.5881 H   0  0  0  0  0  0  0  0  0  0  0  0
    1.5770    1.5362   -0.8106 H   0  0  0  0  0  0  0  0  0  0  0  0
   -2.3981   -4.6949   -4.4652 H   0  0  0  0  0  0  0  0  0  0  0  0
   -6.3926    2.7660   -6.9569 H   0  0  0  0  0  0  0  0  0  0  0  0
   -0.4134    3.4945    0.3608 H   0  0  0  0  0  0  0  0  0  0  0  0
    1.2397    3.1973    0.9323 H   0  0  0  0  0  0  0  0  0  0  0  0
   -0.1038    3.0734    2.0555 H   0  0  0  0  0  0  0  0  0  0  0  0
  1  2  1  0  0  0  0 
  1  3  1  0  0  0  0 
  1  4  1  0  0  0  0 
  2  5  1  0  0  0  0 
  3  6  2  0  0  0  0 
  3  7  1  0  0  0  0 
  4  8  2  0  0  0  0 
  4  9  1  0  0  0  0 
  5 10  1  0  0  0  0 
  5 11  1  0  0  0  0 
  6 12  1  0  0  0  0 
  7 13  2  0  0  0  0 
  8 14  1  0  0  0  0 
  9 15  2  0  0  0  0 
 10 16  1  0  0  0  0 
 11 17  1  0  0  0  0 
 12 18  2  0  0  0  0 
 13 18  1  0  0  0  0 
 14 19  2  0  0  0  0 
 15 19  1  0  0  0  0 
 16 20  1  0  0  0  0 
 17 20  1  0  0  0  0 
 20 21  1  0  0  0  0 
  1 22  1  0  0  0  0 
  5 23  1  0  0  0  0 
  6 24  1  0  0  0  0 
  7 25  1  0  0  0  0 
  8 26  1  0  0  0  0 
  9 27  1  0  0  0  0 
 10 28  1  0  0  0  0 
 10 29  1  0  0  0  0 
 11 30  1  0  0  0  0 
 11 31  1  0  0  0  0 
 12 32  1  0  0  0  0 
 13 33  1  0  0  0  0 
 14 34  1  0  0  0  0 
 15 35  1  0  0  0  0 
 16 36  1  0  0  0  0 
 16 37  1  0  0  0  0 
 17 38  1  0  0  0  0 
 17 39  1  0  0  0  0 
 18 40  1  0  0  0  0 
 19 41  1  0  0  0  0 
 21 42  1  0  0  0  0 
 21 43  1  0  0  0  0 
 21 44  1  0  0  0  0 
M  END
> <cdk:Title>
diphenylpyraline

> <Conformer>
1

> <SuperDrugID>
SD000817

$$$$
