aminohippuric acid
  CDK     0628171801

 24 24  0  0  0  0  0  0  0  0999 V2000
    1.0193    0.3939    0.0305 C   0  0  0  0  0  0  0  0  0  0  0  0
    1.0451   -0.9711    0.0773 N   0  0  0  0  0  0  0  0  0  0  0  0
   -0.0649    0.9773    0.2786 O   0  0  0  0  0  0  0  0  0  0  0  0
    2.1916    1.1558   -0.2708 C   0  0  0  0  0  0  0  0  0  0  0  0
   -0.0475   -1.8135    0.4374 C   0  0  2  0  0  0  0  0  0  0  0  0
    2.1418    2.5733   -0.3300 C   0  0  0  0  0  0  0  0  0  0  0  0
    3.4494    0.5385   -0.5035 C   0  0  0  0  0  0  0  0  0  0  0  0
    0.3621   -3.2167    0.2703 C   0  0  0  0  0  0  0  0  0  0  0  0
    3.2963    3.3392   -0.5786 C   0  0  0  0  0  0  0  0  0  0  0  0
    4.6075    1.3013   -0.7531 C   0  0  0  0  0  0  0  0  0  0  0  0
    0.5303   -4.0188    1.3455 O   0  0  0  0  0  0  0  0  0  0  0  0
    0.5728   -3.6830   -0.8724 O   0  0  0  0  0  0  0  0  0  0  0  0
    4.5351    2.7060   -0.7859 C   0  0  0  0  0  0  0  0  0  0  0  0
    5.6384    3.4469   -1.0100 N   0  0  0  0  0  0  0  0  0  0  0  0
    1.8813   -1.4160   -0.1298 H   0  0  0  0  0  0  0  0  0  0  0  0
   -0.9201   -1.6113   -0.1879 H   0  0  0  0  0  0  0  0  0  0  0  0
   -0.3207   -1.6275    1.4789 H   0  0  0  0  0  0  0  0  0  0  0  0
    1.2606    3.0736   -0.1905 H   0  0  0  0  0  0  0  0  0  0  0  0
    3.5510   -0.4775   -0.4929 H   0  0  0  0  0  0  0  0  0  0  0  0
    3.2300    4.3603   -0.6047 H   0  0  0  0  0  0  0  0  0  0  0  0
    5.5005    0.8252   -0.9066 H   0  0  0  0  0  0  0  0  0  0  0  0
    0.8324   -4.9424    1.2275 H   0  0  0  0  0  0  0  0  0  0  0  0
    6.4966    3.0173   -1.1514 H   0  0  0  0  0  0  0  0  0  0  0  0
    5.5748    4.4153   -1.0276 H   0  0  0  0  0  0  0  0  0  0  0  0
  1  2  1  0  0  0  0 
  1  3  2  0  0  0  0 
  1  4  1  0  0  0  0 
  2  5  1  0  0  0  0 
  4  6  2  0  0  0  0 
  4  7  1  0  0  0  0 
  5  8  1  0  0  0  0 
  6  9  1  0  0  0  0 
  7 10  2  0  0  0  0 
  8 11  1  0  0  0  0 
  8 12  2  0  0  0  0 
  9 13  2  0  0  0  0 
 10 13  1  0  0  0  0 
 13 14  1  0  0  0  0 
  2 15  1  0  0  0  0 
  5 16  1  0  0  0  0 
  5 17  1  0  0  0  0 
  6 18  1  0  0  0  0 
  7 19  1  0  0  0  0 
  9 20  1  0  0  0  0 
 10 21  1  0  0  0  0 
 11 22  1  0  0  0  0 
 14 23  1  0  0  0  0 
 14 24  1  0  0  0  0 
M  END
> <cdk:Title>
aminohippuric acid

> <Conformer>
1

> <SuperDrugID>
SD000131

$$$$
