nitrofurazone
  CDK     0628171801

 20 20  0  0  0  0  0  0  0  0999 V2000
    3.0203   -4.1150    0.2314 N   0  0  0  0  0  0  0  0  0  0  0  0
    2.4219   -4.6980   -0.5833 O   0  0  0  0  0  0  0  0  0  0  0  0
    3.9297   -4.7464    0.8533 O   0  0  0  0  0  0  0  0  0  0  0  0
    2.7507   -2.8441    0.4800 C   0  0  0  0  0  0  0  0  0  0  0  0
    1.7692   -2.1312   -0.1310 O   0  0  0  0  0  0  0  0  0  0  0  0
    3.3996   -2.0060    1.3874 C   0  0  0  0  0  0  0  0  0  0  0  0
    1.7722   -0.8675    0.3621 C   0  0  0  0  0  0  0  0  0  0  0  0
    2.7826   -0.7672    1.3140 C   0  0  0  0  0  0  0  0  0  0  0  0
    0.9161    0.1366   -0.0207 C   0  0  0  0  0  0  0  0  0  0  0  0
    0.0784   -0.0644   -0.9715 N   0  0  0  0  0  0  0  0  0  0  0  0
   -0.7613    0.7933   -1.3759 N   0  0  0  0  0  0  0  0  0  0  0  0
   -2.0474    0.8153   -0.9523 C   0  0  0  0  0  0  0  0  0  0  0  0
   -2.8637    1.7685   -1.4238 N   0  0  0  0  0  0  0  0  0  0  0  0
   -2.5055   -0.0177   -0.1358 O   0  0  0  0  0  0  0  0  0  0  0  0
    4.1835   -2.2525    1.9948 H   0  0  0  0  0  0  0  0  0  0  0  0
    3.0297    0.0614    1.8566 H   0  0  0  0  0  0  0  0  0  0  0  0
    0.9526    1.0170    0.4436 H   0  0  0  0  0  0  0  0  0  0  0  0
   -0.4700    1.4580   -2.0219 H   0  0  0  0  0  0  0  0  0  0  0  0
   -2.5317    2.4238   -2.0571 H   0  0  0  0  0  0  0  0  0  0  0  0
   -3.7863    1.8072   -1.1295 H   0  0  0  0  0  0  0  0  0  0  0  0
  1  2  2  0  0  0  0 
  1  3  1  0  0  0  0 
  1  4  1  0  0  0  0 
  4  5  1  0  0  0  0 
  4  6  2  0  0  0  0 
  5  7  1  0  0  0  0 
  6  8  1  0  0  0  0 
  7  8  2  0  0  0  0 
  9  7  1  0  0  0  0 
  9 10  2  0  0  0  0 
 10 11  1  0  0  0  0 
 11 12  1  0  0  0  0 
 12 13  1  0  0  0  0 
 12 14  2  0  0  0  0 
 15  6  1  0  0  0  0 
 16  8  1  0  0  0  0 
 17  9  1  0  0  0  0 
 18 11  1  0  0  0  0 
 19 13  1  0  0  0  0 
 20 13  1  0  0  0  0 
M  CHG  1   1   1
M  CHG  1   3  -1
M  END
> <cdk:Title>
nitrofurazone

> <Conformer>
1

> <SuperDrugID>
SD001744

$$$$
