stanozolol
  CDK     0628171801

 56 60  0  0  0  0  0  0  0  0999 V2000
    6.6731    0.2793    3.4004 C   0  0  0  0  0  0  0  0  0  0  0  0
    5.5735   -0.7775    3.7994 C   0  0  1  0  0  0  0  0  0  0  0  0
    4.2844   -0.6348    2.8737 C   0  0  2  0  0  0  0  0  0  0  0  0
    6.1097   -2.2701    3.6705 C   0  0  1  0  0  0  0  0  0  0  0  0
    5.2060   -0.5430    5.3239 C   0  0  2  0  0  0  0  0  0  0  0  0
    4.5489   -1.0789    1.3772 C   0  0  2  0  0  0  0  0  0  0  0  0
    3.5548    0.7542    2.9622 C   0  0  1  0  0  0  0  0  0  0  0  0
    6.3652   -2.7082    2.1996 C   0  0  1  0  0  0  0  0  0  0  0  0
    7.3478   -2.5859    4.5774 C   0  0  1  0  0  0  0  0  0  0  0  0
    6.2491   -1.0411    6.2498 C   0  0  0  0  0  0  0  0  0  0  0  0
    3.2379   -0.9283    0.5375 C   0  0  1  0  0  0  0  0  0  0  0  0
    5.0996   -2.5369    1.3257 C   0  0  1  0  0  0  0  0  0  0  0  0
    2.3092    0.8675    2.0356 C   0  0  1  0  0  0  0  0  0  0  0  0
    7.2141   -1.9755    5.9115 C   0  0  0  0  0  0  0  0  0  0  0  0
    6.4952   -0.7304    7.5811 C   0  0  0  0  0  0  0  0  0  0  0  0
    2.6308    0.5135    0.5424 C   0  0  1  0  0  0  0  0  0  0  0  0
    3.2498   -1.3134   -0.9551 C   0  0  1  0  0  0  0  0  0  0  0  0
    7.9733   -2.1747    7.0015 N   0  0  0  0  0  0  0  0  0  0  0  0
    7.5572   -1.4479    7.9929 N   0  0  0  0  0  0  0  0  0  0  0  0
    3.5883    1.6291   -0.0413 C   0  0  0  0  0  0  0  0  0  0  0  0
    1.4035    0.3192   -0.4354 C   0  0  1  0  0  0  0  0  0  0  0  0
    1.9528   -0.6766   -1.5155 C   0  0  2  0  0  0  0  0  0  0  0  0
    0.0835   -0.2163    0.2089 C   0  0  0  0  0  0  0  0  0  0  0  0
    1.0042    1.5447   -1.0649 O   0  0  0  0  0  0  0  0  0  0  0  0
    6.3441    1.2968    3.6185 H   0  0  0  0  0  0  0  0  0  0  0  0
    7.5980    0.1245    3.9557 H   0  0  0  0  0  0  0  0  0  0  0  0
    6.9259    0.2359    2.3424 H   0  0  0  0  0  0  0  0  0  0  0  0
    3.5447   -1.3462    3.2631 H   0  0  0  0  0  0  0  0  0  0  0  0
    5.3112   -2.9285    4.0390 H   0  0  0  0  0  0  0  0  0  0  0  0
    4.2793   -1.0676    5.5776 H   0  0  0  0  0  0  0  0  0  0  0  0
    5.0438    0.5201    5.5252 H   0  0  0  0  0  0  0  0  0  0  0  0
    5.3051   -0.4404    0.9204 H   0  0  0  0  0  0  0  0  0  0  0  0
    3.2168    0.9292    3.9861 H   0  0  0  0  0  0  0  0  0  0  0  0
    4.2406    1.5617    2.7218 H   0  0  0  0  0  0  0  0  0  0  0  0
    7.1856   -2.1308    1.7692 H   0  0  0  0  0  0  0  0  0  0  0  0
    6.6593   -3.7608    2.1787 H   0  0  0  0  0  0  0  0  0  0  0  0
    7.4424   -3.6672    4.6973 H   0  0  0  0  0  0  0  0  0  0  0  0
    8.2674   -2.2139    4.1208 H   0  0  0  0  0  0  0  0  0  0  0  0
    2.5246   -1.6157    1.0110 H   0  0  0  0  0  0  0  0  0  0  0  0
    4.3305   -3.2376    1.6678 H   0  0  0  0  0  0  0  0  0  0  0  0
    5.3572   -2.8047    0.2981 H   0  0  0  0  0  0  0  0  0  0  0  0
    1.5570    0.1847    2.4383 H   0  0  0  0  0  0  0  0  0  0  0  0
    1.8997    1.8800    2.0996 H   0  0  0  0  0  0  0  0  0  0  0  0
    5.9686   -0.0696    8.1546 H   0  0  0  0  0  0  0  0  0  0  0  0
    4.1356   -0.9094   -1.4524 H   0  0  0  0  0  0  0  0  0  0  0  0
    3.2481   -2.3985   -1.0857 H   0  0  0  0  0  0  0  0  0  0  0  0
    8.7281   -2.7821    7.0434 H   0  0  0  0  0  0  0  0  0  0  0  0
    4.5496    1.6744    0.4669 H   0  0  0  0  0  0  0  0  0  0  0  0
    3.1227    2.6132    0.0619 H   0  0  0  0  0  0  0  0  0  0  0  0
    3.7952    1.4767   -1.1002 H   0  0  0  0  0  0  0  0  0  0  0  0
    1.2312   -1.4643   -1.7532 H   0  0  0  0  0  0  0  0  0  0  0  0
    2.1818   -0.1552   -2.4480 H   0  0  0  0  0  0  0  0  0  0  0  0
    0.2447   -1.1634    0.7243 H   0  0  0  0  0  0  0  0  0  0  0  0
   -0.6720   -0.3767   -0.5629 H   0  0  0  0  0  0  0  0  0  0  0  0
   -0.3200    0.5071    0.9209 H   0  0  0  0  0  0  0  0  0  0  0  0
    0.6878    2.1183   -0.3355 H   0  0  0  0  0  0  0  0  0  0  0  0
  2  1  1  0  0  0  0 
  2  3  1  0  0  0  0 
  2  4  1  0  0  0  0 
  2  5  1  0  0  0  0 
  3  6  1  0  0  0  0 
  3  7  1  0  0  0  0 
  4  8  1  0  0  0  0 
  4  9  1  0  0  0  0 
  5 10  1  0  0  0  0 
  6 11  1  0  0  0  0 
  6 12  1  0  0  0  0 
  7 13  1  0  0  0  0 
  8 12  1  0  0  0  0 
  9 14  1  0  0  0  0 
 10 14  2  0  0  0  0 
 10 15  1  0  0  0  0 
 11 16  1  0  0  0  0 
 11 17  1  0  0  0  0 
 16 13  1  0  0  0  0 
 14 18  1  0  0  0  0 
 15 19  2  0  0  0  0 
 16 20  1  0  0  0  0 
 16 21  1  0  0  0  0 
 17 22  1  0  0  0  0 
 18 19  1  0  0  0  0 
 21 22  1  0  0  0  0 
 21 23  1  0  0  0  0 
 21 24  1  0  0  0  0 
 25  1  1  0  0  0  0 
 26  1  1  0  0  0  0 
 27  1  1  0  0  0  0 
  3 28  1  0  0  0  0 
  4 29  1  0  0  0  0 
 30  5  1  0  0  0  0 
 31  5  1  0  0  0  0 
  6 32  1  0  0  0  0 
 33  7  1  0  0  0  0 
 34  7  1  0  0  0  0 
 35  8  1  0  0  0  0 
 36  8  1  0  0  0  0 
 37  9  1  0  0  0  0 
 38  9  1  0  0  0  0 
 11 39  1  0  0  0  0 
 40 12  1  0  0  0  0 
 41 12  1  0  0  0  0 
 42 13  1  0  0  0  0 
 43 13  1  0  0  0  0 
 44 15  1  0  0  0  0 
 45 17  1  0  0  0  0 
 46 17  1  0  0  0  0 
 47 18  1  0  0  0  0 
 48 20  1  0  0  0  0 
 49 20  1  0  0  0  0 
 50 20  1  0  0  0  0 
 51 22  1  0  0  0  0 
 52 22  1  0  0  0  0 
 53 23  1  0  0  0  0 
 54 23  1  0  0  0  0 
 55 23  1  0  0  0  0 
 56 24  1  0  0  0  0 
M  END
> <cdk:Title>
stanozolol

> <Conformer>
1

> <SuperDrugID>
SD002225

$$$$
