salazosulfadimidine
  CDK     0628171801

 47 49  0  0  0  0  0  0  0  0999 V2000
    6.0278   -9.9157   -3.5039 N   0  0  0  0  0  0  0  0  0  0  0  0
    6.5610   -8.9642   -2.1765 S   0  0  1  0  0  0  0  0  0  0  0  0
    6.7950  -10.7871   -4.1984 C   0  0  0  0  0  0  0  0  0  0  0  0
    6.6363   -9.9132   -0.8839 O   0  0  0  0  0  0  0  0  0  0  0  0
    8.0320   -8.3954   -2.4733 O   0  0  0  0  0  0  0  0  0  0  0  0
    5.4116   -7.6398   -1.8889 C   0  0  0  0  0  0  0  0  0  0  0  0
    8.0972  -11.0668   -3.9144 N   0  0  0  0  0  0  0  0  0  0  0  0
    6.2072  -11.4215   -5.2415 N   0  0  0  0  0  0  0  0  0  0  0  0
    5.8476   -6.2973   -1.8497 C   0  0  0  0  0  0  0  0  0  0  0  0
    4.0419   -7.9176   -1.6960 C   0  0  0  0  0  0  0  0  0  0  0  0
    8.8257  -11.9648   -4.6360 C   0  0  0  0  0  0  0  0  0  0  0  0
    6.8609  -12.3314   -6.0081 C   0  0  0  0  0  0  0  0  0  0  0  0
    4.9327   -5.2549   -1.6039 C   0  0  0  0  0  0  0  0  0  0  0  0
    3.1275   -6.8743   -1.4515 C   0  0  0  0  0  0  0  0  0  0  0  0
   10.2374  -12.1993   -4.2669 C   0  0  0  0  0  0  0  0  0  0  0  0
    8.2075  -12.6339   -5.7150 C   0  0  0  0  0  0  0  0  0  0  0  0
    6.1283  -12.9553   -7.1237 C   0  0  0  0  0  0  0  0  0  0  0  0
    3.5643   -5.5276   -1.3997 C   0  0  0  0  0  0  0  0  0  0  0  0
    2.7651   -4.4934   -1.1662 N   0  0  0  0  0  0  0  0  0  0  0  0
    1.5532   -4.5160   -0.9745 N   0  0  0  0  0  0  0  0  0  0  0  0
    0.7691   -3.4713   -0.7315 C   0  0  0  0  0  0  0  0  0  0  0  0
    1.2315   -2.1355   -0.6512 C   0  0  0  0  0  0  0  0  0  0  0  0
   -0.6020   -3.7224   -0.5382 C   0  0  0  0  0  0  0  0  0  0  0  0
    0.3580   -1.0500   -0.3701 C   0  0  0  0  0  0  0  0  0  0  0  0
   -1.4871   -2.6696   -0.2540 C   0  0  0  0  0  0  0  0  0  0  0  0
    0.8642    0.2847   -0.3203 C   0  0  0  0  0  0  0  0  0  0  0  0
   -1.0149   -1.3480   -0.1544 C   0  0  0  0  0  0  0  0  0  0  0  0
    0.0751    1.3684   -0.1138 O   0  0  0  0  0  0  0  0  0  0  0  0
    2.0817    0.5339   -0.4748 O   0  0  0  0  0  0  0  0  0  0  0  0
   -1.9375   -0.4031    0.1598 O   0  0  0  0  0  0  0  0  0  0  0  0
    5.0963   -9.8355   -3.7703 H   0  0  0  0  0  0  0  0  0  0  0  0
    6.8324   -6.0679   -1.9996 H   0  0  0  0  0  0  0  0  0  0  0  0
    3.6983   -8.8806   -1.7330 H   0  0  0  0  0  0  0  0  0  0  0  0
    5.2730   -4.2890   -1.5742 H   0  0  0  0  0  0  0  0  0  0  0  0
    2.1409   -7.1044   -1.3112 H   0  0  0  0  0  0  0  0  0  0  0  0
   10.8059  -11.2769   -4.4015 H   0  0  0  0  0  0  0  0  0  0  0  0
   10.6979  -12.9790   -4.8791 H   0  0  0  0  0  0  0  0  0  0  0  0
   10.2957  -12.5021   -3.2198 H   0  0  0  0  0  0  0  0  0  0  0  0
    8.7262  -13.3140   -6.2788 H   0  0  0  0  0  0  0  0  0  0  0  0
    6.6923  -13.7773   -7.5701 H   0  0  0  0  0  0  0  0  0  0  0  0
    5.1754  -13.3439   -6.7592 H   0  0  0  0  0  0  0  0  0  0  0  0
    5.9362  -12.2029   -7.8906 H   0  0  0  0  0  0  0  0  0  0  0  0
    2.2276   -1.9588   -0.8043 H   0  0  0  0  0  0  0  0  0  0  0  0
   -0.9675   -4.6772   -0.5992 H   0  0  0  0  0  0  0  0  0  0  0  0
   -2.4812   -2.8685   -0.1133 H   0  0  0  0  0  0  0  0  0  0  0  0
    0.4581    2.2702   -0.0816 H   0  0  0  0  0  0  0  0  0  0  0  0
   -1.4823    0.2050    0.7770 H   0  0  0  0  0  0  0  0  0  0  0  0
  1  2  1  0  0  0  0 
  1  3  1  0  0  0  0 
  2  4  2  0  0  0  0 
  2  5  2  0  0  0  0 
  2  6  1  0  0  0  0 
  3  7  2  0  0  0  0 
  3  8  1  0  0  0  0 
  6  9  2  0  0  0  0 
  6 10  1  0  0  0  0 
  7 11  1  0  0  0  0 
  8 12  2  0  0  0  0 
  9 13  1  0  0  0  0 
 10 14  2  0  0  0  0 
 11 15  1  0  0  0  0 
 11 16  2  0  0  0  0 
 12 16  1  0  0  0  0 
 12 17  1  0  0  0  0 
 13 18  2  0  0  0  0 
 14 18  1  0  0  0  0 
 19 18  1  0  0  0  0 
 19 20  2  0  0  0  0 
 20 21  1  0  0  0  0 
 21 22  2  0  0  0  0 
 21 23  1  0  0  0  0 
 22 24  1  0  0  0  0 
 23 25  2  0  0  0  0 
 24 26  1  0  0  0  0 
 24 27  2  0  0  0  0 
 25 27  1  0  0  0  0 
 26 28  1  0  0  0  0 
 26 29  2  0  0  0  0 
 27 30  1  0  0  0  0 
 31  1  1  0  0  0  0 
 32  9  1  0  0  0  0 
 33 10  1  0  0  0  0 
 34 13  1  0  0  0  0 
 35 14  1  0  0  0  0 
 36 15  1  0  0  0  0 
 37 15  1  0  0  0  0 
 38 15  1  0  0  0  0 
 39 16  1  0  0  0  0 
 40 17  1  0  0  0  0 
 41 17  1  0  0  0  0 
 42 17  1  0  0  0  0 
 43 22  1  0  0  0  0 
 44 23  1  0  0  0  0 
 45 25  1  0  0  0  0 
 46 28  1  0  0  0  0 
 47 30  1  0  0  0  0 
M  END
> <cdk:Title>
salazosulfadimidine

> <Conformer>
1

> <SuperDrugID>
SD003044

$$$$
