histrelin
  CDK     0628171801

182189  0  0  0  0  0  0  0  0999 V2000
  -11.3524  -12.8396  -12.7858 C   0  0  0  0  0  0  0  0  0  0  0  0
  -10.6199  -11.6976  -12.6252 N   0  0  0  0  0  0  0  0  0  0  0  0
   -8.8713   -9.3261  -10.8805 N   0  0  0  0  0  0  0  0  0  0  0  0
   -9.7652   -6.4160  -10.6777 N   0  0  0  0  0  0  0  0  0  0  0  0
  -10.1388   -3.8075   -9.3263 N   0  0  0  0  0  0  0  0  0  0  0  0
   -8.9855   -0.8847   -8.8499 N   0  0  0  0  0  0  0  0  0  0  0  0
   -7.2456   -1.7794   -5.9597 N   0  0  0  0  0  0  0  0  0  0  0  0
   -4.9392   -2.2361   -3.0985 N   0  0  0  0  0  0  0  0  0  0  0  0
   -3.7442    0.1569   -4.7625 N   0  0  0  0  0  0  0  0  0  0  0  0
   -4.0652    3.7197   -5.1459 N   0  0  0  0  0  0  0  0  0  0  0  0
   -4.8971    4.8751   -5.0523 C   0  0  2  0  0  0  0  0  0  0  0  0
   -5.1999    5.4695   -6.4433 C   0  0  0  0  0  0  0  0  0  0  0  0
  -12.3466  -12.7102  -13.5366 O   0  0  0  0  0  0  0  0  0  0  0  0
  -11.1157  -14.1797  -12.1774 C   0  0  2  0  0  0  0  0  0  0  0  0
  -11.2863  -14.2298  -10.6344 C   0  0  2  0  0  0  0  0  0  0  0  0
  -10.0740  -15.0308  -10.1099 C   0  0  2  0  0  0  0  0  0  0  0  0
   -9.2349  -15.1769  -11.2947 C   0  0  0  0  0  0  0  0  0  0  0  0
   -9.8192  -14.7002  -12.3999 N   0  0  0  0  0  0  0  0  0  0  0  0
   -8.0954  -15.6930  -11.2793 O   0  0  0  0  0  0  0  0  0  0  0  0
   -9.5005  -10.5355  -10.8575 C   0  0  0  0  0  0  0  0  0  0  0  0
   -8.2952  -11.1366  -13.0390 C   0  0  1  0  0  0  0  0  0  0  0  0
   -7.9866  -12.2587  -13.9485 C   0  0  0  0  0  0  0  0  0  0  0  0
   -8.3696  -12.4196  -15.2771 C   0  0  0  0  0  0  0  0  0  0  0  0
   -7.8780  -13.5840  -15.7312 N   0  0  0  0  0  0  0  0  0  0  0  0
   -7.2067  -14.1395  -14.7080 C   0  0  0  0  0  0  0  0  0  0  0  0
   -7.2683  -13.3438  -13.6319 N   0  0  0  0  0  0  0  0  0  0  0  0
   -9.3597  -11.5159  -11.9640 C   0  0  2  0  0  0  0  0  0  0  0  0
  -10.1667  -10.8757   -9.8511 O   0  0  0  0  0  0  0  0  0  0  0  0
   -8.6198   -7.0662  -10.3220 C   0  0  0  0  0  0  0  0  0  0  0  0
   -7.4642   -8.9165   -8.9549 C   0  0  1  0  0  0  0  0  0  0  0  0
   -7.2730   -8.1940   -7.6809 C   0  0  0  0  0  0  0  0  0  0  0  0
   -6.2851   -7.2482   -7.4014 C   0  0  0  0  0  0  0  0  0  0  0  0
   -6.4233   -6.8164   -6.1360 N   0  0  0  0  0  0  0  0  0  0  0  0
   -7.4621   -7.4494   -5.5736 C   0  0  0  0  0  0  0  0  0  0  0  0
   -8.0142   -8.3254   -6.5083 C   0  0  0  0  0  0  0  0  0  0  0  0
   -9.1110   -9.1432   -6.1765 C   0  0  0  0  0  0  0  0  0  0  0  0
   -9.6473   -9.0486   -4.8747 C   0  0  0  0  0  0  0  0  0  0  0  0
   -9.0928   -8.1509   -3.9328 C   0  0  0  0  0  0  0  0  0  0  0  0
   -7.9910   -7.3390   -4.2779 C   0  0  0  0  0  0  0  0  0  0  0  0
   -8.7127   -8.4407   -9.7662 C   0  0  2  0  0  0  0  0  0  0  0  0
   -7.4986   -6.5359  -10.5102 O   0  0  0  0  0  0  0  0  0  0  0  0
  -10.6279   -4.1899  -10.5416 C   0  0  0  0  0  0  0  0  0  0  0  0
  -10.4448   -5.4227  -12.7732 C   0  0  1  0  0  0  0  0  0  0  0  0
  -10.5354   -4.2175  -13.5297 O   0  0  0  0  0  0  0  0  0  0  0  0
   -9.8525   -5.1557  -11.3613 C   0  0  2  0  0  0  0  0  0  0  0  0
  -11.7017   -3.7039  -10.9731 O   0  0  0  0  0  0  0  0  0  0  0  0
  -10.2371   -1.4499   -8.8479 C   0  0  0  0  0  0  0  0  0  0  0  0
  -10.5735   -3.1949   -6.9555 C   0  0  2  0  0  0  0  0  0  0  0  0
  -11.6235   -2.5650   -6.1008 C   0  0  0  0  0  0  0  0  0  0  0  0
  -11.5361   -1.1988   -5.7459 C   0  0  0  0  0  0  0  0  0  0  0  0
  -12.5456   -0.5864   -4.9802 C   0  0  0  0  0  0  0  0  0  0  0  0
  -13.6670   -1.3288   -4.5649 C   0  0  0  0  0  0  0  0  0  0  0  0
  -14.6588   -0.7459   -3.8464 O   0  0  0  0  0  0  0  0  0  0  0  0
  -13.7618   -2.6913   -4.8999 C   0  0  0  0  0  0  0  0  0  0  0  0
  -12.7474   -3.3049   -5.6586 C   0  0  0  0  0  0  0  0  0  0  0  0
  -10.7154   -2.8158   -8.4626 C   0  0  2  0  0  0  0  0  0  0  0  0
  -11.1066   -0.6563   -9.2798 O   0  0  0  0  0  0  0  0  0  0  0  0
   -7.5404   -0.8323   -6.9523 C   0  0  0  0  0  0  0  0  0  0  0  0
   -7.2741   -2.7588   -8.6989 C   0  0  2  0  0  0  0  0  0  0  0  0
   -5.8211   -3.0456   -8.6503 C   0  0  0  0  0  0  0  0  0  0  0  0
   -5.1655   -3.8976   -7.7660 C   0  0  0  0  0  0  0  0  0  0  0  0
   -3.8848   -4.0171   -8.1609 N   0  0  0  0  0  0  0  0  0  0  0  0
   -3.7437   -3.2009   -9.2238 C   0  0  0  0  0  0  0  0  0  0  0  0
   -4.9079   -2.6021   -9.5298 N   0  0  0  0  0  0  0  0  0  0  0  0
   -7.6921   -1.2931   -8.3642 C   0  0  1  0  0  0  0  0  0  0  0  0
   -7.6951    0.4262   -6.7799 O   0  0  0  0  0  0  0  0  0  0  0  0
   -2.8966   -4.9163   -7.6271 C   0  0  1  0  0  0  0  0  0  0  0  0
   -2.0121   -4.3303   -6.5835 C   0  0  0  0  0  0  0  0  0  0  0  0
   -0.9521   -3.4612   -6.9378 C   0  0  0  0  0  0  0  0  0  0  0  0
   -0.0863   -2.9428   -5.9550 C   0  0  0  0  0  0  0  0  0  0  0  0
   -0.2686   -3.2859   -4.6037 C   0  0  0  0  0  0  0  0  0  0  0  0
   -1.3122   -4.1536   -4.2366 C   0  0  0  0  0  0  0  0  0  0  0  0
   -2.1788   -4.6693   -5.2185 C   0  0  0  0  0  0  0  0  0  0  0  0
   -6.0959   -2.4452   -3.7828 C   0  0  0  0  0  0  0  0  0  0  0  0
   -8.0660    0.8085   -2.1947 C   0  0  0  0  0  0  0  0  0  0  0  0
   -8.3688   -1.3420   -3.6325 C   0  0  2  0  0  0  0  0  0  0  0  0
   -7.0214   -1.4416   -4.4741 C   0  0  2  0  0  0  0  0  0  0  0  0
   -9.5318   -1.0913   -1.3495 C   0  0  0  0  0  0  0  0  0  0  0  0
   -8.2720   -0.7354   -2.1894 C   0  0  2  0  0  0  0  0  0  0  0  0
   -6.3857   -3.6539   -3.9360 O   0  0  0  0  0  0  0  0  0  0  0  0
   -4.1607    0.1440   -3.4400 C   0  0  0  0  0  0  0  0  0  0  0  0
   -3.0009   -1.4939   -1.9058 C   0  0  1  0  0  0  0  0  0  0  0  0
   -2.2058   -0.4073   -1.1294 C   0  0  2  0  0  0  0  0  0  0  0  0
   -0.9144   -0.9904   -0.5008 C   0  0  1  0  0  0  0  0  0  0  0  0
   -0.1640   -0.0117    0.1512 N   0  0  0  0  0  0  0  0  0  0  0  0
    0.9691   -0.1587    0.7416 C   0  0  0  0  0  0  0  0  0  0  0  0
    1.5122    0.8892    1.3151 N   0  0  0  0  0  0  0  0  0  0  0  0
    1.6208   -1.3058    0.8032 N   0  0  0  0  0  0  0  0  0  0  0  0
   -4.3507   -1.0462   -2.5518 C   0  0  2  0  0  0  0  0  0  0  0  0
   -4.3707    1.2437   -2.8723 O   0  0  0  0  0  0  0  0  0  0  0  0
   -4.4809    2.4558   -5.4397 C   0  0  0  0  0  0  0  0  0  0  0  0
   -3.4754    1.3639   -5.5166 C   0  0  2  0  0  0  0  0  0  0  0  0
   -3.2834    0.8866   -6.9733 C   0  0  2  0  0  0  0  0  0  0  0  0
   -2.7144   -0.5178   -6.7767 C   0  0  2  0  0  0  0  0  0  0  0  0
   -3.4711   -1.0169   -5.5360 C   0  0  1  0  0  0  0  0  0  0  0  0
   -5.6909    2.1973   -5.6413 O   0  0  0  0  0  0  0  0  0  0  0  0
  -10.9841  -10.9019  -13.0468 H   0  0  0  0  0  0  0  0  0  0  0  0
   -8.4283   -9.0713  -11.7047 H   0  0  0  0  0  0  0  0  0  0  0  0
  -10.6029   -6.8600  -10.4704 H   0  0  0  0  0  0  0  0  0  0  0  0
   -9.3218   -4.2354   -9.0334 H   0  0  0  0  0  0  0  0  0  0  0  0
   -8.9737    0.0085   -9.2301 H   0  0  0  0  0  0  0  0  0  0  0  0
   -7.1730   -2.7118   -6.2137 H   0  0  0  0  0  0  0  0  0  0  0  0
   -4.4577   -3.0521   -2.8862 H   0  0  0  0  0  0  0  0  0  0  0  0
   -3.1135    3.8534   -5.0113 H   0  0  0  0  0  0  0  0  0  0  0  0
   -4.3653    5.6204   -4.4568 H   0  0  0  0  0  0  0  0  0  0  0  0
   -5.8306    4.6428   -4.5344 H   0  0  0  0  0  0  0  0  0  0  0  0
   -4.2699    5.6736   -6.9794 H   0  0  0  0  0  0  0  0  0  0  0  0
   -5.8015    4.7713   -7.0281 H   0  0  0  0  0  0  0  0  0  0  0  0
   -5.7540    6.4037   -6.3348 H   0  0  0  0  0  0  0  0  0  0  0  0
  -11.8106  -14.9001  -12.6216 H   0  0  0  0  0  0  0  0  0  0  0  0
  -12.2222  -14.7229  -10.3622 H   0  0  0  0  0  0  0  0  0  0  0  0
  -11.2956  -13.2330  -10.1912 H   0  0  0  0  0  0  0  0  0  0  0  0
  -10.3729  -16.0153   -9.7442 H   0  0  0  0  0  0  0  0  0  0  0  0
   -9.5469  -14.4877   -9.3218 H   0  0  0  0  0  0  0  0  0  0  0  0
   -9.3947  -14.7169  -13.2714 H   0  0  0  0  0  0  0  0  0  0  0  0
   -7.3603  -10.8485  -12.5517 H   0  0  0  0  0  0  0  0  0  0  0  0
   -8.6460  -10.2772  -13.6177 H   0  0  0  0  0  0  0  0  0  0  0  0
   -8.9364  -11.7662  -15.8227 H   0  0  0  0  0  0  0  0  0  0  0  0
   -6.7201  -15.0367  -14.7445 H   0  0  0  0  0  0  0  0  0  0  0  0
   -6.8627  -13.5240  -12.7680 H   0  0  0  0  0  0  0  0  0  0  0  0
   -9.0137  -12.4291  -11.4841 H   0  0  0  0  0  0  0  0  0  0  0  0
   -6.5655   -8.8177   -9.5701 H   0  0  0  0  0  0  0  0  0  0  0  0
   -7.5575   -9.9787   -8.7165 H   0  0  0  0  0  0  0  0  0  0  0  0
   -5.5688   -6.9299   -8.0553 H   0  0  0  0  0  0  0  0  0  0  0  0
   -5.8625   -6.1548   -5.7014 H   0  0  0  0  0  0  0  0  0  0  0  0
   -9.5106   -9.7929   -6.8571 H   0  0  0  0  0  0  0  0  0  0  0  0
  -10.4436   -9.6330   -4.6116 H   0  0  0  0  0  0  0  0  0  0  0  0
   -9.4914   -8.0904   -2.9938 H   0  0  0  0  0  0  0  0  0  0  0  0
   -7.5850   -6.6882   -3.6027 H   0  0  0  0  0  0  0  0  0  0  0  0
   -9.5946   -8.4850   -9.1192 H   0  0  0  0  0  0  0  0  0  0  0  0
  -11.4420   -5.8654  -12.6926 H   0  0  0  0  0  0  0  0  0  0  0  0
   -9.8015   -6.1160  -13.3217 H   0  0  0  0  0  0  0  0  0  0  0  0
  -10.9573   -4.4814  -14.3739 H   0  0  0  0  0  0  0  0  0  0  0  0
   -8.8623   -4.7153  -11.5150 H   0  0  0  0  0  0  0  0  0  0  0  0
  -10.6432   -4.2837   -6.8682 H   0  0  0  0  0  0  0  0  0  0  0  0
   -9.5921   -2.9285   -6.5701 H   0  0  0  0  0  0  0  0  0  0  0  0
  -10.7361   -0.6374   -6.0477 H   0  0  0  0  0  0  0  0  0  0  0  0
  -12.4648    0.4022   -4.7322 H   0  0  0  0  0  0  0  0  0  0  0  0
  -14.4384    0.2081   -3.8137 H   0  0  0  0  0  0  0  0  0  0  0  0
  -14.5725   -3.2366   -4.5979 H   0  0  0  0  0  0  0  0  0  0  0  0
  -12.8445   -4.2948   -5.8972 H   0  0  0  0  0  0  0  0  0  0  0  0
  -11.7966   -2.8487   -8.6464 H   0  0  0  0  0  0  0  0  0  0  0  0
   -7.7855   -3.4491   -8.0302 H   0  0  0  0  0  0  0  0  0  0  0  0
   -7.5957   -2.9885   -9.7172 H   0  0  0  0  0  0  0  0  0  0  0  0
   -5.5995   -4.3759   -6.9756 H   0  0  0  0  0  0  0  0  0  0  0  0
   -2.8781   -3.0624   -9.7485 H   0  0  0  0  0  0  0  0  0  0  0  0
   -6.9989   -0.6713   -8.9423 H   0  0  0  0  0  0  0  0  0  0  0  0
   -3.4056   -5.7989   -7.2296 H   0  0  0  0  0  0  0  0  0  0  0  0
   -2.2718   -5.2916   -8.4432 H   0  0  0  0  0  0  0  0  0  0  0  0
   -0.7969   -3.2065   -7.9162 H   0  0  0  0  0  0  0  0  0  0  0  0
    0.6758   -2.3153   -6.2226 H   0  0  0  0  0  0  0  0  0  0  0  0
    0.3551   -2.9040   -3.8886 H   0  0  0  0  0  0  0  0  0  0  0  0
   -1.4433   -4.4073   -3.2547 H   0  0  0  0  0  0  0  0  0  0  0  0
   -2.9301   -5.3000   -4.9288 H   0  0  0  0  0  0  0  0  0  0  0  0
   -8.0151    1.1910   -1.1728 H   0  0  0  0  0  0  0  0  0  0  0  0
   -7.1354    1.0766   -2.6909 H   0  0  0  0  0  0  0  0  0  0  0  0
   -8.8912    1.3068   -2.7094 H   0  0  0  0  0  0  0  0  0  0  0  0
   -8.8030   -2.3456   -3.5867 H   0  0  0  0  0  0  0  0  0  0  0  0
   -9.0678   -0.7308   -4.2061 H   0  0  0  0  0  0  0  0  0  0  0  0
   -6.5485   -0.4388   -4.3246 H   0  0  0  0  0  0  0  0  0  0  0  0
   -9.4449   -0.6827   -0.3388 H   0  0  0  0  0  0  0  0  0  0  0  0
  -10.4339   -0.6848   -1.8141 H   0  0  0  0  0  0  0  0  0  0  0  0
   -9.6369   -2.1752   -1.2632 H   0  0  0  0  0  0  0  0  0  0  0  0
   -7.4204   -1.1870   -1.6739 H   0  0  0  0  0  0  0  0  0  0  0  0
   -2.3481   -1.8790   -2.6881 H   0  0  0  0  0  0  0  0  0  0  0  0
   -3.1994   -2.3239   -1.2163 H   0  0  0  0  0  0  0  0  0  0  0  0
   -2.8383    0.0132   -0.3436 H   0  0  0  0  0  0  0  0  0  0  0  0
   -1.9250    0.3993   -1.8110 H   0  0  0  0  0  0  0  0  0  0  0  0
   -1.1891   -1.7739    0.2134 H   0  0  0  0  0  0  0  0  0  0  0  0
   -0.2972   -1.4316   -1.2876 H   0  0  0  0  0  0  0  0  0  0  0  0
    2.3432    0.8011    1.8091 H   0  0  0  0  0  0  0  0  0  0  0  0
    1.0848    1.7556    1.2489 H   0  0  0  0  0  0  0  0  0  0  0  0
    1.2505   -2.0990    0.3839 H   0  0  0  0  0  0  0  0  0  0  0  0
    2.4809   -1.3543    1.2519 H   0  0  0  0  0  0  0  0  0  0  0  0
   -5.0067   -0.7546   -1.7247 H   0  0  0  0  0  0  0  0  0  0  0  0
   -2.5099    1.7467   -5.1654 H   0  0  0  0  0  0  0  0  0  0  0  0
   -2.5933    1.5246   -7.5325 H   0  0  0  0  0  0  0  0  0  0  0  0
   -4.2355    0.8210   -7.5134 H   0  0  0  0  0  0  0  0  0  0  0  0
   -1.6401   -0.4620   -6.5755 H   0  0  0  0  0  0  0  0  0  0  0  0
   -2.8864   -1.1449   -7.6495 H   0  0  0  0  0  0  0  0  0  0  0  0
   -2.8584   -1.7351   -4.9959 H   0  0  0  0  0  0  0  0  0  0  0  0
   -4.4030   -1.4929   -5.8439 H   0  0  0  0  0  0  0  0  0  0  0  0
  1  2  1  0  0  0  0 
 20  3  1  0  0  0  0 
 29  4  1  0  0  0  0 
 42  5  1  0  0  0  0 
 47  6  1  0  0  0  0 
 58  7  1  0  0  0  0 
 74  8  1  0  0  0  0 
 81  9  1  0  0  0  0 
 91 10  1  0  0  0  0 
 10 11  1  0  0  0  0 
 11 12  1  0  0  0  0 
  1 13  2  0  0  0  0 
 14  1  1  0  0  0  0 
 15 16  1  0  0  0  0 
 16 17  1  0  0  0  0 
 17 18  1  0  0  0  0 
 14 15  1  0  0  0  0 
 14 18  1  0  0  0  0 
 17 19  2  0  0  0  0 
 27  2  1  0  0  0  0 
 27 21  1  0  0  0  0 
 21 22  1  0  0  0  0 
 22 23  2  0  0  0  0 
 23 24  1  0  0  0  0 
 24 25  2  0  0  0  0 
 25 26  1  0  0  0  0 
 22 26  1  0  0  0  0 
 27 20  1  0  0  0  0 
 20 28  2  0  0  0  0 
 40  3  1  0  0  0  0 
 40 30  1  0  0  0  0 
 30 31  1  0  0  0  0 
 31 32  2  0  0  0  0 
 32 33  1  0  0  0  0 
 33 34  1  0  0  0  0 
 34 35  1  0  0  0  0 
 31 35  1  0  0  0  0 
 35 36  2  0  0  0  0 
 36 37  1  0  0  0  0 
 37 38  2  0  0  0  0 
 38 39  1  0  0  0  0 
 34 39  2  0  0  0  0 
 40 29  1  0  0  0  0 
 29 41  2  0  0  0  0 
 45  4  1  0  0  0  0 
 45 43  1  0  0  0  0 
 43 44  1  0  0  0  0 
 45 42  1  0  0  0  0 
 42 46  2  0  0  0  0 
 56  5  1  0  0  0  0 
 56 48  1  0  0  0  0 
 48 49  1  0  0  0  0 
 49 50  2  0  0  0  0 
 50 51  1  0  0  0  0 
 51 52  2  0  0  0  0 
 52 53  1  0  0  0  0 
 52 54  1  0  0  0  0 
 54 55  2  0  0  0  0 
 49 55  1  0  0  0  0 
 56 47  1  0  0  0  0 
 47 57  2  0  0  0  0 
 65  6  1  0  0  0  0 
 65 59  1  0  0  0  0 
 59 60  1  0  0  0  0 
 60 61  2  0  0  0  0 
 61 62  1  0  0  0  0 
 62 63  1  0  0  0  0 
 63 64  2  0  0  0  0 
 60 64  1  0  0  0  0 
 65 58  1  0  0  0  0 
 58 66  2  0  0  0  0 
 62 67  1  0  0  0  0 
 67 68  1  0  0  0  0 
 69 70  1  0  0  0  0 
 70 71  2  0  0  0  0 
 71 72  1  0  0  0  0 
 72 73  2  0  0  0  0 
 68 69  2  0  0  0  0 
 68 73  1  0  0  0  0 
 78 79  1  0  0  0  0 
 79 75  1  0  0  0  0 
 79 76  1  0  0  0  0 
 77 76  1  0  0  0  0 
 77  7  1  0  0  0  0 
 77 74  1  0  0  0  0 
 74 80  2  0  0  0  0 
 89  8  1  0  0  0  0 
 89 82  1  0  0  0  0 
 82 83  1  0  0  0  0 
 83 84  1  0  0  0  0 
 84 85  1  0  0  0  0 
 85 86  2  0  0  0  0 
 86 87  1  0  0  0  0 
 86 88  1  0  0  0  0 
 89 81  1  0  0  0  0 
 81 90  2  0  0  0  0 
 96 91  2  0  0  0  0 
 92 91  1  0  0  0  0 
 92 93  1  0  0  0  0 
 93 94  1  0  0  0  0 
 94 95  1  0  0  0  0 
 95  9  1  0  0  0  0 
 92  9  1  0  0  0  0 
 97  2  1  0  0  0  0 
 98  3  1  0  0  0  0 
 99  4  1  0  0  0  0 
100  5  1  0  0  0  0 
101  6  1  0  0  0  0 
102  7  1  0  0  0  0 
103  8  1  0  0  0  0 
104 10  1  0  0  0  0 
105 11  1  0  0  0  0 
106 11  1  0  0  0  0 
107 12  1  0  0  0  0 
108 12  1  0  0  0  0 
109 12  1  0  0  0  0 
 14110  1  0  0  0  0 
111 15  1  0  0  0  0 
112 15  1  0  0  0  0 
113 16  1  0  0  0  0 
114 16  1  0  0  0  0 
115 18  1  0  0  0  0 
116 21  1  0  0  0  0 
117 21  1  0  0  0  0 
118 23  1  0  0  0  0 
119 25  1  0  0  0  0 
120 26  1  0  0  0  0 
 27121  1  0  0  0  0 
122 30  1  0  0  0  0 
123 30  1  0  0  0  0 
124 32  1  0  0  0  0 
125 33  1  0  0  0  0 
126 36  1  0  0  0  0 
127 37  1  0  0  0  0 
128 38  1  0  0  0  0 
129 39  1  0  0  0  0 
 40130  1  0  0  0  0 
131 43  1  0  0  0  0 
132 43  1  0  0  0  0 
133 44  1  0  0  0  0 
 45134  1  0  0  0  0 
135 48  1  0  0  0  0 
136 48  1  0  0  0  0 
137 50  1  0  0  0  0 
138 51  1  0  0  0  0 
139 53  1  0  0  0  0 
140 54  1  0  0  0  0 
141 55  1  0  0  0  0 
 56142  1  0  0  0  0 
143 59  1  0  0  0  0 
144 59  1  0  0  0  0 
145 61  1  0  0  0  0 
146 63  1  0  0  0  0 
 65147  1  0  0  0  0 
148 67  1  0  0  0  0 
149 67  1  0  0  0  0 
150 69  1  0  0  0  0 
151 70  1  0  0  0  0 
152 71  1  0  0  0  0 
153 72  1  0  0  0  0 
154 73  1  0  0  0  0 
155 75  1  0  0  0  0 
156 75  1  0  0  0  0 
157 75  1  0  0  0  0 
158 76  1  0  0  0  0 
159 76  1  0  0  0  0 
 77160  1  0  0  0  0 
161 78  1  0  0  0  0 
162 78  1  0  0  0  0 
163 78  1  0  0  0  0 
164 79  1  0  0  0  0 
165 82  1  0  0  0  0 
166 82  1  0  0  0  0 
167 83  1  0  0  0  0 
168 83  1  0  0  0  0 
169 84  1  0  0  0  0 
170 84  1  0  0  0  0 
171 87  1  0  0  0  0 
172 87  1  0  0  0  0 
173 88  1  0  0  0  0 
174 88  1  0  0  0  0 
 89175  1  0  0  0  0 
 92176  1  0  0  0  0 
177 93  1  0  0  0  0 
178 93  1  0  0  0  0 
179 94  1  0  0  0  0 
180 94  1  0  0  0  0 
181 95  1  0  0  0  0 
182 95  1  0  0  0  0 
M  END
> <cdk:Title>
histrelin

> <Conformer>
1

> <SuperDrugID>
SD002607

$$$$
