diacetyl benzoyl lathyrol
  CDK     0628171802

 76 79  0  0  0  0  0  0  0  0999 V2000
    2.1326   -4.6188    0.4528 O   0  0  0  0  0  0  0  0  0  0  0  0
    2.6415   -5.7984    0.9412 C   0  0  0  0  0  0  0  0  0  0  0  0
    2.8112   -3.3819    0.1097 C   0  0  1  0  0  0  0  0  0  0  0  0
    1.7139   -6.8760    1.3178 C   0  0  0  0  0  0  0  0  0  0  0  0
    3.8731   -5.9581    1.1093 O   0  0  0  0  0  0  0  0  0  0  0  0
    1.8038   -2.1911   -0.1797 C   0  0  2  0  0  0  0  0  0  0  0  0
    3.5486   -2.9077    1.4102 C   0  0  2  0  0  0  0  0  0  0  0  0
    3.7545   -3.6318   -1.0548 C   0  0  0  0  0  0  0  0  0  0  0  0
    2.5625   -0.9280    0.3440 C   0  0  2  0  0  0  0  0  0  0  0  0
    0.3277   -2.3636    0.3613 C   0  0  1  0  0  0  0  0  0  0  0  0
    3.4104   -1.3710    1.5635 C   0  0  1  0  0  0  0  0  0  0  0  0
    4.8209   -2.9765   -1.1356 O   0  0  0  0  0  0  0  0  0  0  0  0
    3.4980   -4.5473   -2.0923 C   0  0  0  0  0  0  0  0  0  0  0  0
    1.7209    0.2104    0.6312 O   0  0  0  0  0  0  0  0  0  0  0  0
   -0.5455   -1.2282    0.1698 O   0  0  0  0  0  0  0  0  0  0  0  0
   -0.4446   -3.5577   -0.0795 C   0  0  0  0  0  0  0  0  0  0  0  0
    2.8437   -0.9454    2.9498 C   0  0  0  0  0  0  0  0  0  0  0  0
    4.4734   -5.6070   -2.3461 C   0  0  0  0  0  0  0  0  0  0  0  0
    2.3849   -4.3746   -2.8328 C   0  0  0  0  0  0  0  0  0  0  0  0
    1.8231    1.4982    0.1675 C   0  0  0  0  0  0  0  0  0  0  0  0
   -0.8979   -0.5129   -0.9466 C   0  0  0  0  0  0  0  0  0  0  0  0
   -0.9979   -4.3725    0.8448 C   0  0  0  0  0  0  0  0  0  0  0  0
   -0.6946   -3.8681   -1.5055 C   0  0  2  0  0  0  0  0  0  0  0  0
    1.7580   -5.2064   -3.8410 C   0  0  2  0  0  0  0  0  0  0  0  0
    2.7930    1.8116   -0.5637 O   0  0  0  0  0  0  0  0  0  0  0  0
    0.8359    2.4666    0.5020 C   0  0  0  0  0  0  0  0  0  0  0  0
   -1.9391    0.5156   -0.8223 C   0  0  0  0  0  0  0  0  0  0  0  0
   -0.3531   -0.6709   -2.0634 O   0  0  0  0  0  0  0  0  0  0  0  0
   -0.2657   -5.3071   -1.9544 C   0  0  1  0  0  0  0  0  0  0  0  0
    0.2664   -5.4490   -3.4241 C   0  0  2  0  0  0  0  0  0  0  0  0
    1.1864   -6.6502   -3.7582 C   0  0  2  0  0  0  0  0  0  0  0  0
   -0.1174    2.2135    1.5207 C   0  0  0  0  0  0  0  0  0  0  0  0
    0.7557    3.7024   -0.1912 C   0  0  0  0  0  0  0  0  0  0  0  0
    1.6508   -7.6262   -2.6413 C   0  0  0  0  0  0  0  0  0  0  0  0
    0.9074   -7.3313   -5.1268 C   0  0  0  0  0  0  0  0  0  0  0  0
   -1.1302    3.1465    1.8142 C   0  0  0  0  0  0  0  0  0  0  0  0
   -0.2566    4.6351    0.1003 C   0  0  0  0  0  0  0  0  0  0  0  0
   -1.2053    4.3541    1.0984 C   0  0  0  0  0  0  0  0  0  0  0  0
    1.6974   -2.0182   -1.2447 H   0  0  0  0  0  0  0  0  0  0  0  0
    1.1011   -7.1654    0.4661 H   0  0  0  0  0  0  0  0  0  0  0  0
    1.0626   -6.5187    2.1165 H   0  0  0  0  0  0  0  0  0  0  0  0
    2.2498   -7.7598    1.6715 H   0  0  0  0  0  0  0  0  0  0  0  0
    4.6055   -3.1928    1.4013 H   0  0  0  0  0  0  0  0  0  0  0  0
    3.1154   -3.3959    2.2889 H   0  0  0  0  0  0  0  0  0  0  0  0
    3.2750   -0.6438   -0.4418 H   0  0  0  0  0  0  0  0  0  0  0  0
    0.4442   -2.3987    1.4467 H   0  0  0  0  0  0  0  0  0  0  0  0
    4.4060   -0.9161    1.4818 H   0  0  0  0  0  0  0  0  0  0  0  0
    2.7884    0.1422    3.0232 H   0  0  0  0  0  0  0  0  0  0  0  0
    1.8468   -1.3584    3.1060 H   0  0  0  0  0  0  0  0  0  0  0  0
    3.4986   -1.3060    3.7453 H   0  0  0  0  0  0  0  0  0  0  0  0
    5.4447   -5.1680   -2.5834 H   0  0  0  0  0  0  0  0  0  0  0  0
    4.2038   -6.2481   -3.1863 H   0  0  0  0  0  0  0  0  0  0  0  0
    4.5929   -6.2401   -1.4667 H   0  0  0  0  0  0  0  0  0  0  0  0
    1.9095   -3.5230   -2.7251 H   0  0  0  0  0  0  0  0  0  0  0  0
   -0.8758   -4.2145    1.8176 H   0  0  0  0  0  0  0  0  0  0  0  0
   -1.5464   -5.1599    0.5826 H   0  0  0  0  0  0  0  0  0  0  0  0
   -0.2039   -3.1423   -2.1440 H   0  0  0  0  0  0  0  0  0  0  0  0
   -1.7658   -3.7485   -1.6972 H   0  0  0  0  0  0  0  0  0  0  0  0
    1.8138   -4.7835   -4.8469 H   0  0  0  0  0  0  0  0  0  0  0  0
   -2.2684    0.6002    0.2168 H   0  0  0  0  0  0  0  0  0  0  0  0
   -2.7971    0.2416   -1.4390 H   0  0  0  0  0  0  0  0  0  0  0  0
   -1.5567    1.4834   -1.1562 H   0  0  0  0  0  0  0  0  0  0  0  0
    0.4854   -5.6651   -1.2597 H   0  0  0  0  0  0  0  0  0  0  0  0
   -1.1269   -5.9743   -1.8544 H   0  0  0  0  0  0  0  0  0  0  0  0
   -0.4647   -5.2103   -4.2021 H   0  0  0  0  0  0  0  0  0  0  0  0
   -0.0933    1.3444    2.0593 H   0  0  0  0  0  0  0  0  0  0  0  0
    1.4278    3.9370   -0.9268 H   0  0  0  0  0  0  0  0  0  0  0  0
    2.1415   -7.1215   -1.8142 H   0  0  0  0  0  0  0  0  0  0  0  0
    2.3574   -8.3516   -3.0471 H   0  0  0  0  0  0  0  0  0  0  0  0
    0.7857   -8.1694   -2.2569 H   0  0  0  0  0  0  0  0  0  0  0  0
    0.6036   -6.6188   -5.8970 H   0  0  0  0  0  0  0  0  0  0  0  0
    1.8093   -7.8379   -5.4735 H   0  0  0  0  0  0  0  0  0  0  0  0
    0.1115   -8.0684   -5.0113 H   0  0  0  0  0  0  0  0  0  0  0  0
   -1.8171    2.9451    2.5442 H   0  0  0  0  0  0  0  0  0  0  0  0
   -0.3038    5.5166   -0.4169 H   0  0  0  0  0  0  0  0  0  0  0  0
   -1.9439    5.0302    1.3067 H   0  0  0  0  0  0  0  0  0  0  0  0
  1  2  1  0  0  0  0 
  2  4  1  0  0  0  0 
  2  5  2  0  0  0  0 
  3  1  1  0  0  0  0 
  6  3  1  0  0  0  0 
  3  7  1  0  0  0  0 
  3  8  1  0  0  0  0 
  9  6  1  0  0  0  0 
  6 10  1  0  0  0  0 
  6 39  1  0  0  0  0 
 11  7  1  0  0  0  0 
  8 12  2  0  0  0  0 
  8 13  1  0  0  0  0 
 11  9  1  0  0  0  0 
  9 14  1  0  0  0  0 
 10 15  1  0  0  0  0 
 10 16  1  0  0  0  0 
 11 17  1  0  0  0  0 
 13 18  1  0  0  0  0 
 13 19  2  0  0  0  0 
 14 20  1  0  0  0  0 
 15 21  1  0  0  0  0 
 16 22  2  0  0  0  0 
 16 23  1  0  0  0  0 
 24 19  1  0  0  0  0 
 20 25  2  0  0  0  0 
 20 26  1  0  0  0  0 
 21 27  1  0  0  0  0 
 21 28  2  0  0  0  0 
 23 29  1  0  0  0  0 
 30 24  1  0  0  0  0 
 24 31  1  0  0  0  0 
 26 32  2  0  0  0  0 
 26 33  1  0  0  0  0 
 30 29  1  0  0  0  0 
 30 31  1  0  0  0  0 
 31 34  1  0  0  0  0 
 31 35  1  0  0  0  0 
 32 36  1  0  0  0  0 
 33 37  2  0  0  0  0 
 36 38  2  0  0  0  0 
 37 38  1  0  0  0  0 
  4 40  1  0  0  0  0 
  4 41  1  0  0  0  0 
  4 42  1  0  0  0  0 
  7 43  1  0  0  0  0 
  7 44  1  0  0  0  0 
  9 45  1  0  0  0  0 
 10 46  1  0  0  0  0 
 11 47  1  0  0  0  0 
 17 48  1  0  0  0  0 
 17 49  1  0  0  0  0 
 17 50  1  0  0  0  0 
 18 51  1  0  0  0  0 
 18 52  1  0  0  0  0 
 18 53  1  0  0  0  0 
 19 54  1  0  0  0  0 
 22 55  1  0  0  0  0 
 22 56  1  0  0  0  0 
 23 57  1  0  0  0  0 
 23 58  1  0  0  0  0 
 24 59  1  0  0  0  0 
 27 60  1  0  0  0  0 
 27 61  1  0  0  0  0 
 27 62  1  0  0  0  0 
 29 63  1  0  0  0  0 
 29 64  1  0  0  0  0 
 30 65  1  0  0  0  0 
 32 66  1  0  0  0  0 
 33 67  1  0  0  0  0 
 34 68  1  0  0  0  0 
 34 69  1  0  0  0  0 
 34 70  1  0  0  0  0 
 35 71  1  0  0  0  0 
 35 72  1  0  0  0  0 
 35 73  1  0  0  0  0 
 36 74  1  0  0  0  0 
 37 75  1  0  0  0  0 
 38 76  1  0  0  0  0 
M  END
> <cdk:Title>
diacetyl benzoyl lathyrol

> <Conformer>
1

> <SuperDrugID>
SD003664

$$$$
