nizofenone
  CDK     0628171801

 50 52  0  0  0  0  0  0  0  0999 V2000
    1.7253    1.2854   -6.5178 C   0  0  0  0  0  0  0  0  0  0  0  0
    1.6953    1.1489   -5.2731 O   0  0  0  0  0  0  0  0  0  0  0  0
    2.6267    2.2429   -7.0400 C   0  0  0  0  0  0  0  0  0  0  0  0
    0.8892    0.4813   -7.3437 C   0  0  0  0  0  0  0  0  0  0  0  0
    2.1800    3.5231   -7.4484 C   0  0  0  0  0  0  0  0  0  0  0  0
    3.9985    1.9228   -7.1478 C   0  0  0  0  0  0  0  0  0  0  0  0
   -0.4812    0.2398   -7.0390 C   0  0  0  0  0  0  0  0  0  0  0  0
    1.4358   -0.1264   -8.5033 C   0  0  0  0  0  0  0  0  0  0  0  0
    3.0941    4.4284   -8.0234 C   0  0  0  0  0  0  0  0  0  0  0  0
    0.8883    3.9091   -7.2664 N   0  0  0  0  0  0  0  0  0  0  0  0
    4.9405    2.8368   -7.6902 C   0  0  0  0  0  0  0  0  0  0  0  0
   -1.2753    0.9444   -5.7128 Cl  0  0  0  0  0  0  0  0  0  0  0  0
   -1.2550   -0.6051   -7.8630 C   0  0  0  0  0  0  0  0  0  0  0  0
    0.6564   -0.9611   -9.3234 C   0  0  0  0  0  0  0  0  0  0  0  0
    4.4517    4.0868   -8.1458 C   0  0  0  0  0  0  0  0  0  0  0  0
    0.3486    4.4420   -6.1439 C   0  0  0  0  0  0  0  0  0  0  0  0
   -0.0871    3.7939   -8.1821 C   0  0  0  0  0  0  0  0  0  0  0  0
    6.2507    2.5367   -7.7736 N   0  0  0  0  0  0  0  0  0  0  0  0
   -0.6880   -1.2039   -9.0004 C   0  0  0  0  0  0  0  0  0  0  0  0
    1.0429    4.7796   -4.8769 C   0  0  1  0  0  0  0  0  0  0  0  0
   -0.9699    4.6389   -6.3397 N   0  0  0  0  0  0  0  0  0  0  0  0
   -1.2556    4.2378   -7.5861 C   0  0  0  0  0  0  0  0  0  0  0  0
    6.7255    1.6155   -7.2329 O   0  0  0  0  0  0  0  0  0  0  0  0
    7.0761    3.2429   -8.4383 O   0  0  0  0  0  0  0  0  0  0  0  0
    2.1052    5.8116   -5.0905 N   0  0  0  0  0  0  0  0  0  0  0  0
    1.6951    7.2210   -5.3663 C   0  0  1  0  0  0  0  0  0  0  0  0
    3.5278    5.5174   -4.7315 C   0  0  1  0  0  0  0  0  0  0  0  0
    1.1626    7.9962   -4.1384 C   0  0  0  0  0  0  0  0  0  0  0  0
    3.9330    5.8998   -3.2917 C   0  0  0  0  0  0  0  0  0  0  0  0
    4.3144    1.0001   -6.8335 H   0  0  0  0  0  0  0  0  0  0  0  0
    2.4163    0.0186   -8.7586 H   0  0  0  0  0  0  0  0  0  0  0  0
    2.7804    5.3507   -8.3369 H   0  0  0  0  0  0  0  0  0  0  0  0
   -2.2369   -0.7943   -7.6395 H   0  0  0  0  0  0  0  0  0  0  0  0
    1.0693   -1.3959  -10.1530 H   0  0  0  0  0  0  0  0  0  0  0  0
    5.0870    4.7738   -8.5599 H   0  0  0  0  0  0  0  0  0  0  0  0
    0.0031    3.4346   -9.1363 H   0  0  0  0  0  0  0  0  0  0  0  0
   -1.2513   -1.8207   -9.5907 H   0  0  0  0  0  0  0  0  0  0  0  0
    0.3159    5.1443   -4.1489 H   0  0  0  0  0  0  0  0  0  0  0  0
    1.4515    3.8567   -4.4633 H   0  0  0  0  0  0  0  0  0  0  0  0
   -2.1783    4.2546   -8.0198 H   0  0  0  0  0  0  0  0  0  0  0  0
    2.5434    7.7746   -5.7739 H   0  0  0  0  0  0  0  0  0  0  0  0
    0.9223    7.2247   -6.1398 H   0  0  0  0  0  0  0  0  0  0  0  0
    3.7304    4.4519   -4.8721 H   0  0  0  0  0  0  0  0  0  0  0  0
    4.1841    6.0474   -5.4267 H   0  0  0  0  0  0  0  0  0  0  0  0
    0.9931    9.0399   -4.4155 H   0  0  0  0  0  0  0  0  0  0  0  0
    0.2180    7.5744   -3.7889 H   0  0  0  0  0  0  0  0  0  0  0  0
    1.8811    7.9738   -3.3190 H   0  0  0  0  0  0  0  0  0  0  0  0
    4.9030    5.4586   -3.0564 H   0  0  0  0  0  0  0  0  0  0  0  0
    4.0228    6.9814   -3.1924 H   0  0  0  0  0  0  0  0  0  0  0  0
    3.1983    5.5300   -2.5768 H   0  0  0  0  0  0  0  0  0  0  0  0
  1  2  2  0  0  0  0 
  1  3  1  0  0  0  0 
  1  4  1  0  0  0  0 
  3  5  2  0  0  0  0 
  3  6  1  0  0  0  0 
  4  7  2  0  0  0  0 
  4  8  1  0  0  0  0 
  5  9  1  0  0  0  0 
  5 10  1  0  0  0  0 
  6 11  2  0  0  0  0 
  7 12  1  0  0  0  0 
  7 13  1  0  0  0  0 
  8 14  2  0  0  0  0 
  9 15  2  0  0  0  0 
 10 16  1  0  0  0  0 
 10 17  1  0  0  0  0 
 11 15  1  0  0  0  0 
 11 18  1  0  0  0  0 
 13 19  2  0  0  0  0 
 14 19  1  0  0  0  0 
 16 20  1  0  0  0  0 
 16 21  2  0  0  0  0 
 17 22  2  0  0  0  0 
 18 23  2  0  0  0  0 
 18 24  1  0  0  0  0 
 20 25  1  0  0  0  0 
 21 22  1  0  0  0  0 
 25 26  1  0  0  0  0 
 25 27  1  0  0  0  0 
 26 28  1  0  0  0  0 
 27 29  1  0  0  0  0 
  6 30  1  0  0  0  0 
  8 31  1  0  0  0  0 
  9 32  1  0  0  0  0 
 13 33  1  0  0  0  0 
 14 34  1  0  0  0  0 
 15 35  1  0  0  0  0 
 17 36  1  0  0  0  0 
 19 37  1  0  0  0  0 
 20 38  1  0  0  0  0 
 20 39  1  0  0  0  0 
 22 40  1  0  0  0  0 
 26 41  1  0  0  0  0 
 26 42  1  0  0  0  0 
 27 43  1  0  0  0  0 
 27 44  1  0  0  0  0 
 28 45  1  0  0  0  0 
 28 46  1  0  0  0  0 
 28 47  1  0  0  0  0 
 29 48  1  0  0  0  0 
 29 49  1  0  0  0  0 
 29 50  1  0  0  0  0 
M  CHG  1  18   1
M  CHG  1  24  -1
M  END
> <cdk:Title>
nizofenone

> <Conformer>
1

> <SuperDrugID>
SD001748

$$$$
