amlexanox
  CDK     0628171801

 36 38  0  0  0  0  0  0  0  0999 V2000
    4.3303   -8.9912    2.5464 C   0  0  0  0  0  0  0  0  0  0  0  0
    4.4590   -8.6425    1.0406 C   0  0  2  0  0  0  0  0  0  0  0  0
    5.8739   -8.0946    0.6900 C   0  0  0  0  0  0  0  0  0  0  0  0
    3.3179   -7.7689    0.6000 C   0  0  0  0  0  0  0  0  0  0  0  0
    2.1559   -8.3592    0.0449 C   0  0  0  0  0  0  0  0  0  0  0  0
    1.0752   -7.5742   -0.3904 C   0  0  0  0  0  0  0  0  0  0  0  0
    1.1364   -6.1763   -0.2805 C   0  0  0  0  0  0  0  0  0  0  0  0
    0.0896   -5.4257   -0.7291 O   0  0  0  0  0  0  0  0  0  0  0  0
    0.0769   -4.0653   -0.6650 C   0  0  0  0  0  0  0  0  0  0  0  0
    1.1782   -3.3743   -0.1120 C   0  0  0  0  0  0  0  0  0  0  0  0
    1.1087   -1.9631   -0.0759 C   0  0  0  0  0  0  0  0  0  0  0  0
   -0.0221   -1.2535   -0.5575 C   0  0  0  0  0  0  0  0  0  0  0  0
   -0.0396    0.1709   -0.4870 C   0  0  0  0  0  0  0  0  0  0  0  0
    1.0365    0.8714   -0.0545 O   0  0  0  0  0  0  0  0  0  0  0  0
   -1.0292    0.8647   -0.8139 O   0  0  0  0  0  0  0  0  0  0  0  0
   -1.0876   -2.0291   -1.0951 C   0  0  0  0  0  0  0  0  0  0  0  0
   -2.2300   -1.5190   -1.6015 N   0  0  0  0  0  0  0  0  0  0  0  0
   -0.9973   -3.3829   -1.1265 N   0  0  0  0  0  0  0  0  0  0  0  0
    2.2756   -4.1312    0.3695 C   0  0  0  0  0  0  0  0  0  0  0  0
    3.2591   -3.5371    0.8749 O   0  0  0  0  0  0  0  0  0  0  0  0
    2.2741   -5.5466    0.2865 C   0  0  0  0  0  0  0  0  0  0  0  0
    3.3477   -6.3568    0.7328 C   0  0  0  0  0  0  0  0  0  0  0  0
    5.1507   -9.6396    2.8617 H   0  0  0  0  0  0  0  0  0  0  0  0
    4.3457   -8.0871    3.1576 H   0  0  0  0  0  0  0  0  0  0  0  0
    3.3938   -9.5221    2.7286 H   0  0  0  0  0  0  0  0  0  0  0  0
    4.3896   -9.5952    0.5044 H   0  0  0  0  0  0  0  0  0  0  0  0
    5.9033   -7.7558   -0.3481 H   0  0  0  0  0  0  0  0  0  0  0  0
    6.1504   -7.2620    1.3405 H   0  0  0  0  0  0  0  0  0  0  0  0
    6.6231   -8.8818    0.8083 H   0  0  0  0  0  0  0  0  0  0  0  0
    2.0854   -9.3749   -0.0481 H   0  0  0  0  0  0  0  0  0  0  0  0
    0.2479   -8.0194   -0.7942 H   0  0  0  0  0  0  0  0  0  0  0  0
    1.9014   -1.4500    0.3182 H   0  0  0  0  0  0  0  0  0  0  0  0
    1.0054    1.8498   -0.0141 H   0  0  0  0  0  0  0  0  0  0  0  0
   -2.3732   -0.5633   -1.6394 H   0  0  0  0  0  0  0  0  0  0  0  0
   -2.9187   -2.1153   -1.9371 H   0  0  0  0  0  0  0  0  0  0  0  0
    4.1668   -5.9118    1.1521 H   0  0  0  0  0  0  0  0  0  0  0  0
  1  2  1  0  0  0  0 
  2  3  1  0  0  0  0 
  2  4  1  0  0  0  0 
  4  5  2  0  0  0  0 
  5  6  1  0  0  0  0 
  6  7  2  0  0  0  0 
  7  8  1  0  0  0  0 
  8  9  1  0  0  0  0 
  9 10  1  0  0  0  0 
 10 11  2  0  0  0  0 
 11 12  1  0  0  0  0 
 12 13  1  0  0  0  0 
 13 14  1  0  0  0  0 
 13 15  2  0  0  0  0 
 12 16  2  0  0  0  0 
 16 17  1  0  0  0  0 
 16 18  1  0  0  0  0 
  9 18  2  0  0  0  0 
 10 19  1  0  0  0  0 
 19 20  2  0  0  0  0 
 19 21  1  0  0  0  0 
  7 21  1  0  0  0  0 
 21 22  2  0  0  0  0 
  4 22  1  0  0  0  0 
  1 23  1  0  0  0  0 
  1 24  1  0  0  0  0 
  1 25  1  0  0  0  0 
  2 26  1  0  0  0  0 
  3 27  1  0  0  0  0 
  3 28  1  0  0  0  0 
  3 29  1  0  0  0  0 
  5 30  1  0  0  0  0 
  6 31  1  0  0  0  0 
 11 32  1  0  0  0  0 
 14 33  1  0  0  0  0 
 17 34  1  0  0  0  0 
 17 35  1  0  0  0  0 
 22 36  1  0  0  0  0 
M  END
> <cdk:Title>
amlexanox

> <Conformer>
1

> <SuperDrugID>
SD000147

$$$$
