chidamide
  CDK     0628171802

 48 50  0  0  0  0  0  0  0  0999 V2000
    6.2843    6.2308    1.2574 C   0  0  0  0  0  0  0  0  0  0  0  0
    7.1320    5.2330    0.7504 C   0  0  0  0  0  0  0  0  0  0  0  0
    6.6069    4.0510    0.3492 N   0  0  0  0  0  0  0  0  0  0  0  0
    5.2798    3.7773    0.4180 C   0  0  0  0  0  0  0  0  0  0  0  0
    4.3572    4.7307    0.9205 C   0  0  0  0  0  0  0  0  0  0  0  0
    4.9031    5.9744    1.3349 C   0  0  0  0  0  0  0  0  0  0  0  0
    2.9789    4.5079    1.0545 C   0  0  0  0  0  0  0  0  0  0  0  0
    2.2774    3.4348    0.6344 C   0  0  0  0  0  0  0  0  0  0  0  0
    0.9206    3.2479    0.8654 C   0  0  0  0  0  0  0  0  0  0  0  0
    0.2613    2.2557    0.1959 N   0  0  0  0  0  0  0  0  0  0  0  0
    0.3056    3.9728    1.6866 O   0  0  0  0  0  0  0  0  0  0  0  0
   -1.1363    1.9736    0.3097 C   0  0  2  0  0  0  0  0  0  0  0  0
   -1.9513    3.0754   -0.2641 C   0  0  0  0  0  0  0  0  0  0  0  0
   -2.0283    3.2537   -1.6636 C   0  0  0  0  0  0  0  0  0  0  0  0
   -2.7684    4.3161   -2.2136 C   0  0  0  0  0  0  0  0  0  0  0  0
   -3.4642    5.2237   -1.3793 C   0  0  0  0  0  0  0  0  0  0  0  0
   -3.3862    5.0363    0.0229 C   0  0  0  0  0  0  0  0  0  0  0  0
   -2.6403    3.9804    0.5725 C   0  0  0  0  0  0  0  0  0  0  0  0
   -4.2376    6.2811   -1.9285 C   0  0  0  0  0  0  0  0  0  0  0  0
   -4.3620    7.4488   -1.2296 N   0  0  0  0  0  0  0  0  0  0  0  0
   -4.8227    6.0951   -3.0223 O   0  0  0  0  0  0  0  0  0  0  0  0
   -5.0759    8.5789   -1.5203 C   0  0  0  0  0  0  0  0  0  0  0  0
   -5.4991    9.3880   -0.4332 C   0  0  0  0  0  0  0  0  0  0  0  0
   -6.2516   10.5579   -0.6689 C   0  0  0  0  0  0  0  0  0  0  0  0
   -6.5735   10.9432   -1.9831 C   0  0  0  0  0  0  0  0  0  0  0  0
   -6.1373   10.1613   -3.0669 C   0  0  0  0  0  0  0  0  0  0  0  0
   -5.3944    8.9900   -2.8385 C   0  0  0  0  0  0  0  0  0  0  0  0
   -5.2150    9.0644    0.8510 N   0  0  0  0  0  0  0  0  0  0  0  0
   -7.2738   12.0244   -2.1972 F   0  0  0  0  0  0  0  0  0  0  0  0
    6.6691    7.1270    1.5697 H   0  0  0  0  0  0  0  0  0  0  0  0
    8.1396    5.3873    0.6823 H   0  0  0  0  0  0  0  0  0  0  0  0
    4.9810    2.8576    0.1021 H   0  0  0  0  0  0  0  0  0  0  0  0
    4.3007    6.7147    1.7057 H   0  0  0  0  0  0  0  0  0  0  0  0
    2.4630    5.2207    1.5183 H   0  0  0  0  0  0  0  0  0  0  0  0
    2.7415    2.7183    0.1286 H   0  0  0  0  0  0  0  0  0  0  0  0
    0.7805    1.7118   -0.4195 H   0  0  0  0  0  0  0  0  0  0  0  0
   -1.3790    1.7912    1.3599 H   0  0  0  0  0  0  0  0  0  0  0  0
   -1.3596    1.0497   -0.2279 H   0  0  0  0  0  0  0  0  0  0  0  0
   -1.5463    2.6061   -2.2919 H   0  0  0  0  0  0  0  0  0  0  0  0
   -2.7879    4.4237   -3.2306 H   0  0  0  0  0  0  0  0  0  0  0  0
   -3.8814    5.6621    0.6650 H   0  0  0  0  0  0  0  0  0  0  0  0
   -2.5969    3.8837    1.5907 H   0  0  0  0  0  0  0  0  0  0  0  0
   -3.8959    7.4660   -0.3806 H   0  0  0  0  0  0  0  0  0  0  0  0
   -6.5701   11.1322    0.1170 H   0  0  0  0  0  0  0  0  0  0  0  0
   -6.3594   10.4415   -4.0256 H   0  0  0  0  0  0  0  0  0  0  0  0
   -5.0841    8.4530   -3.6491 H   0  0  0  0  0  0  0  0  0  0  0  0
   -4.7028    8.2662    1.0574 H   0  0  0  0  0  0  0  0  0  0  0  0
   -5.5250    9.6314    1.5750 H   0  0  0  0  0  0  0  0  0  0  0  0
  1  2  2  0  0  0  0 
  1  6  1  0  0  0  0 
  2  3  1  0  0  0  0 
  3  4  2  0  0  0  0 
  4  5  1  0  0  0  0 
  5  6  2  0  0  0  0 
  5  7  1  0  0  0  0 
  7  8  2  0  0  0  0 
  8  9  1  0  0  0  0 
  9 10  1  0  0  0  0 
  9 11  2  0  0  0  0 
 10 12  1  0  0  0  0 
 12 13  1  0  0  0  0 
 14 15  1  0  0  0  0 
 15 16  2  0  0  0  0 
 16 17  1  0  0  0  0 
 17 18  2  0  0  0  0 
 13 14  2  0  0  0  0 
 13 18  1  0  0  0  0 
 16 19  1  0  0  0  0 
 19 20  1  0  0  0  0 
 19 21  2  0  0  0  0 
 20 22  1  0  0  0  0 
 23 24  1  0  0  0  0 
 24 25  2  0  0  0  0 
 25 26  1  0  0  0  0 
 26 27  2  0  0  0  0 
 22 23  2  0  0  0  0 
 22 27  1  0  0  0  0 
 23 28  1  0  0  0  0 
 25 29  1  0  0  0  0 
  1 30  1  0  0  0  0 
  2 31  1  0  0  0  0 
  4 32  1  0  0  0  0 
  6 33  1  0  0  0  0 
  7 34  1  0  0  0  0 
  8 35  1  0  0  0  0 
 10 36  1  0  0  0  0 
 12 37  1  0  0  0  0 
 12 38  1  0  0  0  0 
 14 39  1  0  0  0  0 
 15 40  1  0  0  0  0 
 17 41  1  0  0  0  0 
 18 42  1  0  0  0  0 
 20 43  1  0  0  0  0 
 24 44  1  0  0  0  0 
 26 45  1  0  0  0  0 
 27 46  1  0  0  0  0 
 28 47  1  0  0  0  0 
 28 48  1  0  0  0  0 
M  END
> <cdk:Title>
chidamide

> <Conformer>
1

> <SuperDrugID>
SD003865

$$$$
