glisolamide
  CDK     0628171801

 56 58  0  0  0  0  0  0  0  0999 V2000
    3.8285   -2.5910   -4.9291 S   0  0  2  0  0  0  0  0  0  0  0  0
    3.9252   -0.9187   -5.3108 N   0  0  0  0  0  0  0  0  0  0  0  0
    2.6046   -3.2122   -5.7634 O   0  0  0  0  0  0  0  0  0  0  0  0
    3.4963   -2.7656   -3.3682 O   0  0  0  0  0  0  0  0  0  0  0  0
    5.3101   -3.4731   -5.3403 C   0  0  0  0  0  0  0  0  0  0  0  0
    2.9469   -0.0333   -4.9997 C   0  0  0  0  0  0  0  0  0  0  0  0
    5.5437   -4.7394   -4.7649 C   0  0  0  0  0  0  0  0  0  0  0  0
    6.2407   -2.9570   -6.2632 C   0  0  0  0  0  0  0  0  0  0  0  0
    3.0802    1.2573   -5.4111 N   0  0  0  0  0  0  0  0  0  0  0  0
    1.9317   -0.4004   -4.3612 O   0  0  0  0  0  0  0  0  0  0  0  0
    6.6615   -5.5038   -5.1472 C   0  0  0  0  0  0  0  0  0  0  0  0
    7.3607   -3.7181   -6.6440 C   0  0  0  0  0  0  0  0  0  0  0  0
    2.0868    2.2833   -5.2431 C   0  0  2  0  0  0  0  0  0  0  0  0
    7.5654   -5.0168   -6.1184 C   0  0  0  0  0  0  0  0  0  0  0  0
    0.8818    2.0568   -6.2075 C   0  0  1  0  0  0  0  0  0  0  0  0
    2.7225    3.6854   -5.4722 C   0  0  2  0  0  0  0  0  0  0  0  0
    8.6833   -5.8682   -6.6134 C   0  0  2  0  0  0  0  0  0  0  0  0
   -0.1621    3.2025   -6.1206 C   0  0  2  0  0  0  0  0  0  0  0  0
    1.6712    4.8229   -5.3740 C   0  0  2  0  0  0  0  0  0  0  0  0
    8.1863   -7.0116   -7.5471 C   0  0  2  0  0  0  0  0  0  0  0  0
    0.4873    4.5928   -6.3484 C   0  0  2  0  0  0  0  0  0  0  0  0
    9.1584   -7.2910   -8.5563 N   0  0  0  0  0  0  0  0  0  0  0  0
    9.0350   -8.2278   -9.5335 C   0  0  0  0  0  0  0  0  0  0  0  0
    8.0818   -9.0430   -9.5329 O   0  0  0  0  0  0  0  0  0  0  0  0
    9.9674   -8.2725  -10.5867 C   0  0  0  0  0  0  0  0  0  0  0  0
   10.0347   -9.2480  -11.5108 N   0  0  0  0  0  0  0  0  0  0  0  0
   10.9368   -7.3280  -10.9109 C   0  0  0  0  0  0  0  0  0  0  0  0
   10.9732   -8.9783  -12.3784 O   0  0  0  0  0  0  0  0  0  0  0  0
   11.5574   -7.8024  -12.0567 C   0  0  0  0  0  0  0  0  0  0  0  0
   12.6405   -7.1707  -12.8173 C   0  0  0  0  0  0  0  0  0  0  0  0
    4.6982   -0.6027   -5.8037 H   0  0  0  0  0  0  0  0  0  0  0  0
    4.8928   -5.1229   -4.0743 H   0  0  0  0  0  0  0  0  0  0  0  0
    6.1026   -2.0329   -6.6773 H   0  0  0  0  0  0  0  0  0  0  0  0
    3.8997    1.4974   -5.8756 H   0  0  0  0  0  0  0  0  0  0  0  0
    6.8070   -6.4220   -4.7190 H   0  0  0  0  0  0  0  0  0  0  0  0
    8.0154   -3.3198   -7.3221 H   0  0  0  0  0  0  0  0  0  0  0  0
    1.7193    2.2540   -4.2123 H   0  0  0  0  0  0  0  0  0  0  0  0
    1.2440    1.9796   -7.2368 H   0  0  0  0  0  0  0  0  0  0  0  0
    0.3848    1.1141   -5.9637 H   0  0  0  0  0  0  0  0  0  0  0  0
    3.1929    3.7209   -6.4594 H   0  0  0  0  0  0  0  0  0  0  0  0
    3.5019    3.8585   -4.7241 H   0  0  0  0  0  0  0  0  0  0  0  0
    9.2251   -6.2990   -5.7672 H   0  0  0  0  0  0  0  0  0  0  0  0
    9.4034   -5.2450   -7.1528 H   0  0  0  0  0  0  0  0  0  0  0  0
   -0.6356    3.1842   -5.1347 H   0  0  0  0  0  0  0  0  0  0  0  0
   -0.9431    3.0406   -6.8694 H   0  0  0  0  0  0  0  0  0  0  0  0
    2.1455    5.7800   -5.6031 H   0  0  0  0  0  0  0  0  0  0  0  0
    1.2896    4.8764   -4.3502 H   0  0  0  0  0  0  0  0  0  0  0  0
    7.2553   -6.7206   -8.0468 H   0  0  0  0  0  0  0  0  0  0  0  0
    7.9907   -7.9134   -6.9586 H   0  0  0  0  0  0  0  0  0  0  0  0
   -0.2616    5.3752   -6.2006 H   0  0  0  0  0  0  0  0  0  0  0  0
    0.8417    4.6654   -7.3810 H   0  0  0  0  0  0  0  0  0  0  0  0
    9.9562   -6.7395   -8.5678 H   0  0  0  0  0  0  0  0  0  0  0  0
   11.1433   -6.4565  -10.4172 H   0  0  0  0  0  0  0  0  0  0  0  0
   13.5186   -7.0410  -12.1847 H   0  0  0  0  0  0  0  0  0  0  0  0
   12.9047   -7.8069  -13.6621 H   0  0  0  0  0  0  0  0  0  0  0  0
   12.3182   -6.1992  -13.1945 H   0  0  0  0  0  0  0  0  0  0  0  0
  1  2  1  0  0  0  0 
  1  3  2  0  0  0  0 
  1  4  2  0  0  0  0 
  1  5  1  0  0  0  0 
  2  6  1  0  0  0  0 
  5  7  2  0  0  0  0 
  5  8  1  0  0  0  0 
  6  9  1  0  0  0  0 
  6 10  2  0  0  0  0 
  7 11  1  0  0  0  0 
  8 12  2  0  0  0  0 
  9 13  1  0  0  0  0 
 11 14  2  0  0  0  0 
 12 14  1  0  0  0  0 
 13 15  1  0  0  0  0 
 13 16  1  0  0  0  0 
 14 17  1  0  0  0  0 
 15 18  1  0  0  0  0 
 16 19  1  0  0  0  0 
 17 20  1  0  0  0  0 
 18 21  1  0  0  0  0 
 19 21  1  0  0  0  0 
 20 22  1  0  0  0  0 
 22 23  1  0  0  0  0 
 23 24  2  0  0  0  0 
 23 25  1  0  0  0  0 
 25 26  2  0  0  0  0 
 25 27  1  0  0  0  0 
 26 28  1  0  0  0  0 
 27 29  2  0  0  0  0 
 28 29  1  0  0  0  0 
 29 30  1  0  0  0  0 
  2 31  1  0  0  0  0 
  7 32  1  0  0  0  0 
  8 33  1  0  0  0  0 
  9 34  1  0  0  0  0 
 11 35  1  0  0  0  0 
 12 36  1  0  0  0  0 
 13 37  1  0  0  0  0 
 15 38  1  0  0  0  0 
 15 39  1  0  0  0  0 
 16 40  1  0  0  0  0 
 16 41  1  0  0  0  0 
 17 42  1  0  0  0  0 
 17 43  1  0  0  0  0 
 18 44  1  0  0  0  0 
 18 45  1  0  0  0  0 
 19 46  1  0  0  0  0 
 19 47  1  0  0  0  0 
 20 48  1  0  0  0  0 
 20 49  1  0  0  0  0 
 21 50  1  0  0  0  0 
 21 51  1  0  0  0  0 
 22 52  1  0  0  0  0 
 27 53  1  0  0  0  0 
 30 54  1  0  0  0  0 
 30 55  1  0  0  0  0 
 30 56  1  0  0  0  0 
M  END
> <cdk:Title>
glisolamide

> <Conformer>
1

> <SuperDrugID>
SD001160

$$$$
