thioctic acid
  CDK     0628171802

 26 26  0  0  0  0  0  0  0  0999 V2000
    4.2074   -1.0940   -1.4145 C   0  0  2  0  0  0  0  0  0  0  0  0
    4.1739   -2.5726   -0.9224 C   0  0  2  0  0  0  0  0  0  0  0  0
    3.3112   -0.7387   -2.6399 C   0  0  1  0  0  0  0  0  0  0  0  0
    2.8405   -3.0202   -0.2614 C   0  0  2  0  0  0  0  0  0  0  0  0
    3.4629    0.7460   -3.0868 C   0  0  1  0  0  0  0  0  0  0  0  0
    3.6566   -1.7479   -4.1244 S   0  0  0  0  0  0  0  0  0  0  0  0
    2.9180   -4.4728    0.2883 C   0  0  1  0  0  0  0  0  0  0  0  0
    2.6802    1.0216   -4.3952 C   0  0  2  0  0  0  0  0  0  0  0  0
    3.0447   -0.3317   -5.5567 S   0  0  0  0  0  0  0  0  0  0  0  0
    1.6657   -4.9120    0.9325 C   0  0  0  0  0  0  0  0  0  0  0  0
    0.9751   -5.9692    0.4446 O   0  0  0  0  0  0  0  0  0  0  0  0
    1.2315   -4.3298    1.9531 O   0  0  0  0  0  0  0  0  0  0  0  0
    5.2447   -0.8568   -1.6648 H   0  0  0  0  0  0  0  0  0  0  0  0
    3.9246   -0.4451   -0.5789 H   0  0  0  0  0  0  0  0  0  0  0  0
    4.9723   -2.6849   -0.1827 H   0  0  0  0  0  0  0  0  0  0  0  0
    4.4117   -3.2422   -1.7524 H   0  0  0  0  0  0  0  0  0  0  0  0
    2.2670   -0.9075   -2.3704 H   0  0  0  0  0  0  0  0  0  0  0  0
    2.0335   -2.9588   -0.9962 H   0  0  0  0  0  0  0  0  0  0  0  0
    2.6101   -2.3388    0.5630 H   0  0  0  0  0  0  0  0  0  0  0  0
    3.1014    1.4095   -2.2975 H   0  0  0  0  0  0  0  0  0  0  0  0
    4.5208    0.9746   -3.2539 H   0  0  0  0  0  0  0  0  0  0  0  0
    3.1545   -5.1559   -0.5322 H   0  0  0  0  0  0  0  0  0  0  0  0
    3.7214   -4.5446    1.0255 H   0  0  0  0  0  0  0  0  0  0  0  0
    2.9724    1.9762   -4.8364 H   0  0  0  0  0  0  0  0  0  0  0  0
    1.6072    1.0341   -4.1951 H   0  0  0  0  0  0  0  0  0  0  0  0
    0.1494   -6.2649    0.8828 H   0  0  0  0  0  0  0  0  0  0  0  0
  1  2  1  0  0  0  0 
  1  3  1  0  0  0  0 
  2  4  1  0  0  0  0 
  3  5  1  0  0  0  0 
  3  6  1  0  0  0  0 
  4  7  1  0  0  0  0 
  5  8  1  0  0  0  0 
  6  9  1  0  0  0  0 
  7 10  1  0  0  0  0 
  8  9  1  0  0  0  0 
 10 11  1  0  0  0  0 
 10 12  2  0  0  0  0 
  1 13  1  0  0  0  0 
  1 14  1  0  0  0  0 
  2 15  1  0  0  0  0 
  2 16  1  0  0  0  0 
  3 17  1  0  0  0  0 
  4 18  1  0  0  0  0 
  4 19  1  0  0  0  0 
  5 20  1  0  0  0  0 
  5 21  1  0  0  0  0 
  7 22  1  0  0  0  0 
  7 23  1  0  0  0  0 
  8 24  1  0  0  0  0 
  8 25  1  0  0  0  0 
 11 26  1  0  0  0  0 
M  END
> <cdk:Title>
thioctic acid

> <Conformer>
1

> <SuperDrugID>
SD003736

$$$$
