enbucrilate
  CDK     0628171801

 22 21  0  0  0  0  0  0  0  0999 V2000
   -0.3136   -5.9620   -3.2325 C   0  0  0  0  0  0  0  0  0  0  0  0
   -1.3182   -4.7940   -3.1028 C   0  0  2  0  0  0  0  0  0  0  0  0
   -0.8663   -3.7224   -2.0739 C   0  0  1  0  0  0  0  0  0  0  0  0
   -1.8464   -2.5317   -1.9858 C   0  0  2  0  0  0  0  0  0  0  0  0
   -1.3750   -1.5878   -1.0124 O   0  0  0  0  0  0  0  0  0  0  0  0
   -1.9552   -0.3834   -0.6985 C   0  0  0  0  0  0  0  0  0  0  0  0
   -2.9847   -0.0353   -1.3282 O   0  0  0  0  0  0  0  0  0  0  0  0
   -1.4162    0.4395    0.2933 C   0  0  0  0  0  0  0  0  0  0  0  0
   -1.7165    1.7486    0.3977 C   0  0  0  0  0  0  0  0  0  0  0  0
   -0.6072   -0.0737    1.1426 C   0  0  0  0  0  0  0  0  0  0  0  0
    0.1119   -0.5404    1.9073 N   0  0  0  0  0  0  0  0  0  0  0  0
   -0.7168   -6.7110   -3.9170 H   0  0  0  0  0  0  0  0  0  0  0  0
   -0.1402   -6.4353   -2.2637 H   0  0  0  0  0  0  0  0  0  0  0  0
    0.6370   -5.5980   -3.6280 H   0  0  0  0  0  0  0  0  0  0  0  0
   -2.2838   -5.2073   -2.7993 H   0  0  0  0  0  0  0  0  0  0  0  0
   -1.4409   -4.3284   -4.0852 H   0  0  0  0  0  0  0  0  0  0  0  0
   -0.7914   -4.1835   -1.0851 H   0  0  0  0  0  0  0  0  0  0  0  0
    0.1199   -3.3387   -2.3511 H   0  0  0  0  0  0  0  0  0  0  0  0
   -2.8360   -2.8908   -1.6893 H   0  0  0  0  0  0  0  0  0  0  0  0
   -1.9202   -2.0449   -2.9624 H   0  0  0  0  0  0  0  0  0  0  0  0
   -2.3392    2.1846   -0.2425 H   0  0  0  0  0  0  0  0  0  0  0  0
   -1.3269    2.3270    1.1100 H   0  0  0  0  0  0  0  0  0  0  0  0
  1  2  1  0  0  0  0 
  2  3  1  0  0  0  0 
  3  4  1  0  0  0  0 
  4  5  1  0  0  0  0 
  5  6  1  0  0  0  0 
  6  7  2  0  0  0  0 
  6  8  1  0  0  0  0 
  8  9  2  0  0  0  0 
  8 10  1  0  0  0  0 
 10 11  3  0  0  0  0 
  1 12  1  0  0  0  0 
  1 13  1  0  0  0  0 
  1 14  1  0  0  0  0 
  2 15  1  0  0  0  0 
  2 16  1  0  0  0  0 
  3 17  1  0  0  0  0 
  3 18  1  0  0  0  0 
  4 19  1  0  0  0  0 
  4 20  1  0  0  0  0 
  9 21  1  0  0  0  0 
  9 22  1  0  0  0  0 
M  END
> <cdk:Title>
enbucrilate

> <Conformer>
1

> <SuperDrugID>
SD002655

$$$$
