selenium (75Se) tauroselcholic acid
  CDK     0628171801

 81 84  0  0  0  0  0  0  0  0999 V2000
  -12.6934   -1.4342    1.2596 O   0  0  0  0  0  0  0  0  0  0  0  0
  -12.1511   -2.7367    1.0230 C   0  0  1  0  0  0  0  0  0  0  0  0
  -10.6855   -2.8862    1.5636 C   0  0  1  0  0  0  0  0  0  0  0  0
  -13.1677   -3.7656    1.5935 C   0  0  1  0  0  0  0  0  0  0  0  0
   -9.8640   -1.5705    1.3206 C   0  0  1  0  0  0  0  0  0  0  0  0
  -10.6775   -3.2709    3.0906 C   0  0  1  0  0  0  0  0  0  0  0  0
  -12.5044   -5.0103    2.2519 C   0  0  1  0  0  0  0  0  0  0  0  0
   -8.3680   -1.6102    1.7956 C   0  0  1  0  0  0  0  0  0  0  0  0
   -9.7433   -1.1011   -0.1808 C   0  0  2  0  0  0  0  0  0  0  0  0
  -11.5086   -4.6138    3.4310 C   0  0  1  0  0  0  0  0  0  0  0  0
   -9.2259   -3.1814    3.6991 C   0  0  1  0  0  0  0  0  0  0  0  0
  -13.5885   -6.0794    2.6385 C   0  0  2  0  0  0  0  0  0  0  0  0
   -7.4869   -2.7100    1.0799 C   0  0  0  0  0  0  0  0  0  0  0  0
   -7.9211   -0.1592    1.3353 C   0  0  2  0  0  0  0  0  0  0  0  0
   -8.4107   -1.8935    3.3491 C   0  0  2  0  0  0  0  0  0  0  0  0
   -8.5995    0.0288   -0.0773 C   0  0  1  0  0  0  0  0  0  0  0  0
  -10.5501   -5.8409    3.6661 C   0  0  0  0  0  0  0  0  0  0  0  0
  -12.3450   -4.3744    4.7545 C   0  0  2  0  0  0  0  0  0  0  0  0
  -14.3495   -5.7746    3.9552 C   0  0  1  0  0  0  0  0  0  0  0  0
   -6.3985    0.2784    1.3413 C   0  0  1  0  0  0  0  0  0  0  0  0
   -8.9317   -0.7924    4.0981 O   0  0  0  0  0  0  0  0  0  0  0  0
  -13.3683   -5.4860    5.1180 C   0  0  2  0  0  0  0  0  0  0  0  0
  -15.2612   -4.6915    3.7806 O   0  0  0  0  0  0  0  0  0  0  0  0
   -6.2681    1.8158    1.0650 C   0  0  2  0  0  0  0  0  0  0  0  0
   -5.6159   -0.0600    2.6460 C   0  0  0  0  0  0  0  0  0  0  0  0
   -4.4510    2.4191    0.5611 Se  0  0  0  0  0  0  0  0  0  0  0  0
   -4.4482    1.7989   -1.3207 C   0  0  2  0  0  0  0  0  0  0  0  0
   -5.6087    2.2813   -2.0945 C   0  0  0  0  0  0  0  0  0  0  0  0
   -5.9519    3.5992   -2.0399 N   0  0  0  0  0  0  0  0  0  0  0  0
   -6.2622    1.4632   -2.7851 O   0  0  0  0  0  0  0  0  0  0  0  0
   -7.0900    4.1943   -2.6702 C   0  0  2  0  0  0  0  0  0  0  0  0
   -8.4212    3.7848   -1.9927 C   0  0  2  0  0  0  0  0  0  0  0  0
   -9.8844    4.4510   -2.8629 S   0  0  1  0  0  0  0  0  0  0  0  0
   -9.8174    6.0484   -2.9610 O   0  0  0  0  0  0  0  0  0  0  0  0
  -10.0019    3.8179   -4.3300 O   0  0  0  0  0  0  0  0  0  0  0  0
  -11.2849    4.0183   -1.9835 O   0  0  0  0  0  0  0  0  0  0  0  0
  -10.2214   -3.7024    1.0047 H   0  0  0  0  0  0  0  0  0  0  0  0
  -11.2020   -2.4354    3.5680 H   0  0  0  0  0  0  0  0  0  0  0  0
  -10.3823   -0.8174    1.9985 H   0  0  0  0  0  0  0  0  0  0  0  0
  -11.9177   -5.4748    1.4491 H   0  0  0  0  0  0  0  0  0  0  0  0
   -8.4130    0.5481    2.0150 H   0  0  0  0  0  0  0  0  0  0  0  0
  -12.7157   -1.3388    2.2361 H   0  0  0  0  0  0  0  0  0  0  0  0
  -12.1156   -2.8528   -0.0640 H   0  0  0  0  0  0  0  0  0  0  0  0
  -13.7982   -3.2722    2.3356 H   0  0  0  0  0  0  0  0  0  0  0  0
  -13.8248   -4.0861    0.7786 H   0  0  0  0  0  0  0  0  0  0  0  0
  -10.6760   -0.6626   -0.5396 H   0  0  0  0  0  0  0  0  0  0  0  0
   -9.4407   -1.9105   -0.8514 H   0  0  0  0  0  0  0  0  0  0  0  0
   -9.2972   -3.2584    4.7883 H   0  0  0  0  0  0  0  0  0  0  0  0
   -8.6295   -4.0284    3.3597 H   0  0  0  0  0  0  0  0  0  0  0  0
  -13.1095   -7.0564    2.7441 H   0  0  0  0  0  0  0  0  0  0  0  0
  -14.3156   -6.1913    1.8274 H   0  0  0  0  0  0  0  0  0  0  0  0
   -6.5082   -2.7960    1.5483 H   0  0  0  0  0  0  0  0  0  0  0  0
   -7.3173   -2.4844    0.0269 H   0  0  0  0  0  0  0  0  0  0  0  0
   -7.9425   -3.6965    1.1279 H   0  0  0  0  0  0  0  0  0  0  0  0
   -7.3978   -2.0447    3.7248 H   0  0  0  0  0  0  0  0  0  0  0  0
   -7.8082   -0.0246   -0.8749 H   0  0  0  0  0  0  0  0  0  0  0  0
   -8.9721    1.0894   -0.1285 H   0  0  0  0  0  0  0  0  0  0  0  0
   -9.8948   -5.9812    2.8052 H   0  0  0  0  0  0  0  0  0  0  0  0
   -9.9322   -5.6965    4.5536 H   0  0  0  0  0  0  0  0  0  0  0  0
  -11.0912   -6.7734    3.8159 H   0  0  0  0  0  0  0  0  0  0  0  0
  -12.9167   -3.4447    4.6709 H   0  0  0  0  0  0  0  0  0  0  0  0
  -11.6684   -4.2424    5.6044 H   0  0  0  0  0  0  0  0  0  0  0  0
  -14.9559   -6.6456    4.2144 H   0  0  0  0  0  0  0  0  0  0  0  0
   -5.8958   -0.2497    0.5300 H   0  0  0  0  0  0  0  0  0  0  0  0
   -8.7847   -1.0269    5.0394 H   0  0  0  0  0  0  0  0  0  0  0  0
  -13.9378   -5.1713    5.9972 H   0  0  0  0  0  0  0  0  0  0  0  0
  -12.8424   -6.4042    5.3874 H   0  0  0  0  0  0  0  0  0  0  0  0
  -15.7017   -4.5808    4.6485 H   0  0  0  0  0  0  0  0  0  0  0  0
   -6.5626    2.3708    1.9590 H   0  0  0  0  0  0  0  0  0  0  0  0
   -6.9342    2.1353    0.2683 H   0  0  0  0  0  0  0  0  0  0  0  0
   -5.5294   -1.1325    2.7898 H   0  0  0  0  0  0  0  0  0  0  0  0
   -6.1085    0.3731    3.5170 H   0  0  0  0  0  0  0  0  0  0  0  0
   -4.5954    0.3251    2.5973 H   0  0  0  0  0  0  0  0  0  0  0  0
   -4.4011    0.7076   -1.3261 H   0  0  0  0  0  0  0  0  0  0  0  0
   -3.5380    2.1791   -1.7877 H   0  0  0  0  0  0  0  0  0  0  0  0
   -5.3881    4.1796   -1.5043 H   0  0  0  0  0  0  0  0  0  0  0  0
   -7.1043    3.9367   -3.7335 H   0  0  0  0  0  0  0  0  0  0  0  0
   -6.9813    5.2782   -2.5866 H   0  0  0  0  0  0  0  0  0  0  0  0
   -8.4363    4.1511   -0.9639 H   0  0  0  0  0  0  0  0  0  0  0  0
   -8.5177    2.6993   -1.9767 H   0  0  0  0  0  0  0  0  0  0  0  0
  -11.6841    3.2840   -2.4953 H   0  0  0  0  0  0  0  0  0  0  0  0
  2  1  1  0  0  0  0 
  3  2  1  0  0  0  0 
  2  4  1  0  0  0  0 
  5  3  1  0  0  0  0 
  3  6  1  0  0  0  0 
  3 37  1  0  0  0  0 
  7  4  1  0  0  0  0 
  8  5  1  0  0  0  0 
  5  9  1  0  0  0  0 
  5 39  1  0  0  0  0 
  6 10  1  0  0  0  0 
  6 11  1  0  0  0  0 
  6 38  1  0  0  0  0 
 10  7  1  0  0  0  0 
  7 12  1  0  0  0  0 
  7 40  1  0  0  0  0 
  8 13  1  0  0  0  0 
  8 14  1  0  0  0  0 
 15  8  1  0  0  0  0 
  9 16  1  0  0  0  0 
 10 17  1  0  0  0  0 
 10 18  1  0  0  0  0 
 15 11  1  0  0  0  0 
 19 12  1  0  0  0  0 
 14 16  1  0  0  0  0 
 14 20  1  0  0  0  0 
 14 41  1  0  0  0  0 
 15 21  1  0  0  0  0 
 18 22  1  0  0  0  0 
 19 22  1  0  0  0  0 
 19 23  1  0  0  0  0 
 20 24  1  0  0  0  0 
 20 25  1  0  0  0  0 
 24 26  1  0  0  0  0 
 26 27  1  0  0  0  0 
 27 28  1  0  0  0  0 
 28 29  1  0  0  0  0 
 28 30  2  0  0  0  0 
 29 31  1  0  0  0  0 
 31 32  1  0  0  0  0 
 32 33  1  0  0  0  0 
 33 34  2  0  0  0  0 
 33 35  2  0  0  0  0 
 33 36  1  0  0  0  0 
  1 42  1  0  0  0  0 
  2 43  1  0  0  0  0 
  4 44  1  0  0  0  0 
  4 45  1  0  0  0  0 
  9 46  1  0  0  0  0 
  9 47  1  0  0  0  0 
 11 48  1  0  0  0  0 
 11 49  1  0  0  0  0 
 12 50  1  0  0  0  0 
 12 51  1  0  0  0  0 
 13 52  1  0  0  0  0 
 13 53  1  0  0  0  0 
 13 54  1  0  0  0  0 
 15 55  1  0  0  0  0 
 16 56  1  0  0  0  0 
 16 57  1  0  0  0  0 
 17 58  1  0  0  0  0 
 17 59  1  0  0  0  0 
 17 60  1  0  0  0  0 
 18 61  1  0  0  0  0 
 18 62  1  0  0  0  0 
 19 63  1  0  0  0  0 
 20 64  1  0  0  0  0 
 21 65  1  0  0  0  0 
 22 66  1  0  0  0  0 
 22 67  1  0  0  0  0 
 23 68  1  0  0  0  0 
 24 69  1  0  0  0  0 
 24 70  1  0  0  0  0 
 25 71  1  0  0  0  0 
 25 72  1  0  0  0  0 
 25 73  1  0  0  0  0 
 27 74  1  0  0  0  0 
 27 75  1  0  0  0  0 
 29 76  1  0  0  0  0 
 31 77  1  0  0  0  0 
 31 78  1  0  0  0  0 
 32 79  1  0  0  0  0 
 32 80  1  0  0  0  0 
 36 81  1  0  0  0  0 
M  ISO  1  26  75
M  END
> <cdk:Title>
selenium (75Se) tauroselcholic acid

> <Conformer>
1

> <SuperDrugID>
SD003342

$$$$
