adicillin
  CDK     0628171801

 45 46  0  0  0  0  0  0  0  0999 V2000
   -3.7443   -3.1366    0.0054 C   0  0  0  0  0  0  0  0  0  0  0  0
   -4.0415   -4.4223    0.3035 O   0  0  0  0  0  0  0  0  0  0  0  0
   -4.5405   -2.2477    0.3858 O   0  0  0  0  0  0  0  0  0  0  0  0
   -2.5214   -2.8165   -0.7718 C   0  0  2  0  0  0  0  0  0  0  0  0
   -1.8024   -1.7464   -0.1683 N   0  0  0  0  0  0  0  0  0  0  0  0
   -2.7243   -2.3239   -2.2626 C   0  0  2  0  0  0  0  0  0  0  0  0
   -1.9596   -0.3769   -0.4578 C   0  0  2  0  0  0  0  0  0  0  0  0
   -0.6446   -1.6267    0.4757 C   0  0  0  0  0  0  0  0  0  0  0  0
   -2.1667   -0.5699   -2.2549 S   0  0  0  0  0  0  0  0  0  0  0  0
   -0.5692   -0.1862    0.2287 C   0  0  1  0  0  0  0  0  0  0  0  0
    0.1551   -2.4494    0.9751 O   0  0  0  0  0  0  0  0  0  0  0  0
    0.4804    0.1804   -0.6633 N   0  0  0  0  0  0  0  0  0  0  0  0
    1.7870    0.3167   -0.3145 C   0  0  0  0  0  0  0  0  0  0  0  0
    2.7789    0.5645   -1.3792 C   0  0  2  0  0  0  0  0  0  0  0  0
    2.1642    0.2138    0.8764 O   0  0  0  0  0  0  0  0  0  0  0  0
    3.0033   -0.7051   -2.2444 C   0  0  1  0  0  0  0  0  0  0  0  0
    3.7877   -0.4128   -3.5490 C   0  0  2  0  0  0  0  0  0  0  0  0
    4.1699   -1.6960   -4.3412 C   0  0  2  0  0  0  0  0  0  0  0  0
    4.8643   -1.3645   -5.6027 C   0  0  0  0  0  0  0  0  0  0  0  0
    2.9885   -2.5160   -4.6516 N   0  0  1  0  0  0  0  0  0  0  0  0
    6.1283   -1.7948   -5.8232 O   0  0  0  0  0  0  0  0  0  0  0  0
    4.3034   -0.6823   -6.4900 O   0  0  0  0  0  0  0  0  0  0  0  0
   -2.8196    0.0614    0.0572 H   0  0  0  0  0  0  0  0  0  0  0  0
   -4.1911   -2.3405   -2.7912 C   0  0  0  0  0  0  0  0  0  0  0  0
   -1.8115   -3.1002   -3.2599 C   0  0  0  0  0  0  0  0  0  0  0  0
   -4.8691   -4.6361    0.7829 H   0  0  0  0  0  0  0  0  0  0  0  0
   -1.8876   -3.7092   -0.7503 H   0  0  0  0  0  0  0  0  0  0  0  0
   -0.6162    0.4108    1.1435 H   0  0  0  0  0  0  0  0  0  0  0  0
    0.2479    0.3105   -1.5972 H   0  0  0  0  0  0  0  0  0  0  0  0
    3.7362    0.8652   -0.9425 H   0  0  0  0  0  0  0  0  0  0  0  0
    2.4224    1.3929   -1.9970 H   0  0  0  0  0  0  0  0  0  0  0  0
    3.5499   -1.4424   -1.6494 H   0  0  0  0  0  0  0  0  0  0  0  0
    2.0378   -1.1399   -2.5181 H   0  0  0  0  0  0  0  0  0  0  0  0
    4.7036    0.1295   -3.2968 H   0  0  0  0  0  0  0  0  0  0  0  0
    3.1729    0.2378   -4.1779 H   0  0  0  0  0  0  0  0  0  0  0  0
    4.8377   -2.3021   -3.7217 H   0  0  0  0  0  0  0  0  0  0  0  0
    3.3220   -3.3542   -5.1315 H   0  0  0  0  0  0  0  0  0  0  0  0
    2.5988   -2.8291   -3.7592 H   0  0  0  0  0  0  0  0  0  0  0  0
    6.5881   -1.5597   -6.6557 H   0  0  0  0  0  0  0  0  0  0  0  0
   -4.2314   -1.9887   -3.8253 H   0  0  0  0  0  0  0  0  0  0  0  0
   -4.6000   -3.3532   -2.7571 H   0  0  0  0  0  0  0  0  0  0  0  0
   -4.8313   -1.6865   -2.1948 H   0  0  0  0  0  0  0  0  0  0  0  0
   -1.9058   -2.6929   -4.2694 H   0  0  0  0  0  0  0  0  0  0  0  0
   -2.0957   -4.1541   -3.2890 H   0  0  0  0  0  0  0  0  0  0  0  0
   -0.7614   -3.0367   -2.9665 H   0  0  0  0  0  0  0  0  0  0  0  0
  1  2  1  0  0  0  0 
  1  3  2  0  0  0  0 
  4  1  1  0  0  0  0 
  4  5  1  0  0  0  0 
  4  6  1  0  0  0  0 
  7  5  1  0  0  0  0 
  5  8  1  0  0  0  0 
  6  9  1  0  0  0  0 
  7  9  1  0  0  0  0 
 10  7  1  0  0  0  0 
  7 23  1  0  0  0  0 
 10  8  1  0  0  0  0 
  8 11  2  0  0  0  0 
 10 12  1  0  0  0  0 
 12 13  1  0  0  0  0 
 13 14  1  0  0  0  0 
 13 15  2  0  0  0  0 
 14 16  1  0  0  0  0 
 16 17  1  0  0  0  0 
 18 17  1  0  0  0  0 
 18 19  1  0  0  0  0 
 18 20  1  0  0  0  0 
 19 21  1  0  0  0  0 
 19 22  2  0  0  0  0 
  6 24  1  0  0  0  0 
  6 25  1  0  0  0  0 
  2 26  1  0  0  0  0 
  4 27  1  0  0  0  0 
 10 28  1  0  0  0  0 
 12 29  1  0  0  0  0 
 14 30  1  0  0  0  0 
 14 31  1  0  0  0  0 
 16 32  1  0  0  0  0 
 16 33  1  0  0  0  0 
 17 34  1  0  0  0  0 
 17 35  1  0  0  0  0 
 18 36  1  0  0  0  0 
 20 37  1  0  0  0  0 
 20 38  1  0  0  0  0 
 21 39  1  0  0  0  0 
 24 40  1  0  0  0  0 
 24 41  1  0  0  0  0 
 24 42  1  0  0  0  0 
 25 43  1  0  0  0  0 
 25 44  1  0  0  0  0 
 25 45  1  0  0  0  0 
M  END
> <cdk:Title>
adicillin

> <Conformer>
1

> <SuperDrugID>
SD002946

$$$$
