chloroxylenol
  CDK     0628171801

 19 19  0  0  0  0  0  0  0  0999 V2000
    0.3517    0.7454    1.6197 C   0  0  0  0  0  0  0  0  0  0  0  0
   -0.3075    0.3229    0.3544 C   0  0  0  0  0  0  0  0  0  0  0  0
   -0.0915   -0.9854   -0.1386 C   0  0  0  0  0  0  0  0  0  0  0  0
   -0.6764   -1.4070   -1.3436 C   0  0  0  0  0  0  0  0  0  0  0  0
   -0.4538   -2.6626   -1.8030 O   0  0  0  0  0  0  0  0  0  0  0  0
   -1.4850   -0.5235   -2.0760 C   0  0  0  0  0  0  0  0  0  0  0  0
   -1.7244    0.7930   -1.6152 C   0  0  0  0  0  0  0  0  0  0  0  0
   -2.5628    1.7117   -2.4319 C   0  0  0  0  0  0  0  0  0  0  0  0
   -1.1402    1.2091   -0.3860 C   0  0  0  0  0  0  0  0  0  0  0  0
   -1.4375    2.7815    0.2031 Cl  0  0  0  0  0  0  0  0  0  0  0  0
   -0.4035    1.0095    2.3620 H   0  0  0  0  0  0  0  0  0  0  0  0
    0.9816    1.6173    1.4325 H   0  0  0  0  0  0  0  0  0  0  0  0
    0.9831   -0.0369    2.0441 H   0  0  0  0  0  0  0  0  0  0  0  0
    0.4957   -1.6471    0.3754 H   0  0  0  0  0  0  0  0  0  0  0  0
   -1.1739   -3.1982   -1.4128 H   0  0  0  0  0  0  0  0  0  0  0  0
   -1.8979   -0.8534   -2.9521 H   0  0  0  0  0  0  0  0  0  0  0  0
   -1.9858    2.6013   -2.6927 H   0  0  0  0  0  0  0  0  0  0  0  0
   -2.9047    1.2523   -3.3607 H   0  0  0  0  0  0  0  0  0  0  0  0
   -3.4423    2.0171   -1.8625 H   0  0  0  0  0  0  0  0  0  0  0  0
  1  2  1  0  0  0  0 
  2  3  2  0  0  0  0 
  3  4  1  0  0  0  0 
  4  5  1  0  0  0  0 
  4  6  2  0  0  0  0 
  6  7  1  0  0  0  0 
  7  8  1  0  0  0  0 
  7  9  2  0  0  0  0 
  2  9  1  0  0  0  0 
  9 10  1  0  0  0  0 
  1 11  1  0  0  0  0 
  1 12  1  0  0  0  0 
  1 13  1  0  0  0  0 
  3 14  1  0  0  0  0 
  5 15  1  0  0  0  0 
  6 16  1  0  0  0  0 
  8 17  1  0  0  0  0 
  8 18  1  0  0  0  0 
  8 19  1  0  0  0  0 
M  END
> <cdk:Title>
chloroxylenol

> <Conformer>
1

> <SuperDrugID>
SD002685

$$$$
