delapril
  CDK     0628171802

 65 67  0  0  0  0  0  0  0  0999 V2000
    3.6953   -1.9656    0.0889 N   0  0  0  0  0  0  0  0  0  0  0  0
    2.5790   -1.9720   -0.7309 C   0  0  0  0  0  0  0  0  0  0  0  0
    4.9984   -1.9676   -0.5640 C   0  0  1  0  0  0  0  0  0  0  0  0
    3.6089   -2.0268    1.5478 C   0  0  2  0  0  0  0  0  0  0  0  0
    1.5844   -0.8697   -0.8347 C   0  0  1  0  0  0  0  0  0  0  0  0
    2.4536   -2.9273   -1.5355 O   0  0  0  0  0  0  0  0  0  0  0  0
    5.5496   -0.6018   -0.6613 C   0  0  0  0  0  0  0  0  0  0  0  0
    2.5607   -3.0280    2.1203 C   0  0  1  0  0  0  0  0  0  0  0  0
    3.4230   -0.6985    2.3409 C   0  0  2  0  0  0  0  0  0  0  0  0
    0.7778   -0.7569    0.4061 N   0  0  1  0  0  0  0  0  0  0  0  0
    2.2987    0.4386   -1.2802 C   0  0  0  0  0  0  0  0  0  0  0  0
    5.7048   -0.0019   -1.8657 O   0  0  0  0  0  0  0  0  0  0  0  0
    5.8691    0.0418    0.3628 O   0  0  0  0  0  0  0  0  0  0  0  0
    2.1824   -2.4230    3.3988 C   0  0  0  0  0  0  0  0  0  0  0  0
    2.6674   -1.1193    3.5271 C   0  0  0  0  0  0  0  0  0  0  0  0
   -0.2892    0.2792    0.4258 C   0  0  1  0  0  0  0  0  0  0  0  0
    1.4265   -3.0164    4.4290 C   0  0  0  0  0  0  0  0  0  0  0  0
    2.4209   -0.3778    4.7002 C   0  0  0  0  0  0  0  0  0  0  0  0
   -1.6543   -0.2789    0.9264 C   0  0  1  0  0  0  0  0  0  0  0  0
    0.2203    1.3812    1.2741 C   0  0  0  0  0  0  0  0  0  0  0  0
    1.1642   -2.2764    5.5992 C   0  0  0  0  0  0  0  0  0  0  0  0
    1.6638   -0.9637    5.7366 C   0  0  0  0  0  0  0  0  0  0  0  0
   -2.3225   -1.3259   -0.0190 C   0  0  1  0  0  0  0  0  0  0  0  0
    0.5855    2.5634    0.6942 O   0  0  0  0  0  0  0  0  0  0  0  0
    0.3632    1.2051    2.5080 O   0  0  0  0  0  0  0  0  0  0  0  0
   -1.8185   -2.7216    0.1164 C   0  0  0  0  0  0  0  0  0  0  0  0
    1.1865    3.6835    1.3590 C   0  0  2  0  0  0  0  0  0  0  0  0
   -1.1643   -3.3858   -0.9514 C   0  0  0  0  0  0  0  0  0  0  0  0
   -2.0185   -3.4271    1.3270 C   0  0  0  0  0  0  0  0  0  0  0  0
    1.4538    4.8043    0.3433 C   0  0  0  0  0  0  0  0  0  0  0  0
   -0.7097   -4.7105   -0.8044 C   0  0  0  0  0  0  0  0  0  0  0  0
   -1.5751   -4.7537    1.4710 C   0  0  0  0  0  0  0  0  0  0  0  0
   -0.9166   -5.3939    0.4070 C   0  0  0  0  0  0  0  0  0  0  0  0
    5.7174   -2.5950   -0.0339 H   0  0  0  0  0  0  0  0  0  0  0  0
    4.9440   -2.3860   -1.5738 H   0  0  0  0  0  0  0  0  0  0  0  0
    4.5674   -2.4199    1.9104 H   0  0  0  0  0  0  0  0  0  0  0  0
    0.8780   -1.1190   -1.6330 H   0  0  0  0  0  0  0  0  0  0  0  0
    1.6735   -3.1300    1.4954 H   0  0  0  0  0  0  0  0  0  0  0  0
    3.0058   -4.0160    2.2640 H   0  0  0  0  0  0  0  0  0  0  0  0
    2.8631    0.0522    1.7891 H   0  0  0  0  0  0  0  0  0  0  0  0
    4.3854   -0.2717    2.6366 H   0  0  0  0  0  0  0  0  0  0  0  0
    0.3323   -1.6626    0.5504 H   0  0  0  0  0  0  0  0  0  0  0  0
    1.5730    1.2030   -1.5551 H   0  0  0  0  0  0  0  0  0  0  0  0
    2.9289    0.8367   -0.4836 H   0  0  0  0  0  0  0  0  0  0  0  0
    2.9177    0.2575   -2.1632 H   0  0  0  0  0  0  0  0  0  0  0  0
    6.0390    0.9199   -1.9173 H   0  0  0  0  0  0  0  0  0  0  0  0
   -0.4697    0.6727   -0.5790 H   0  0  0  0  0  0  0  0  0  0  0  0
    1.0833   -3.9747    4.3370 H   0  0  0  0  0  0  0  0  0  0  0  0
    2.7945    0.5669    4.8056 H   0  0  0  0  0  0  0  0  0  0  0  0
   -1.5422   -0.6905    1.9337 H   0  0  0  0  0  0  0  0  0  0  0  0
   -2.3469    0.5659    1.0051 H   0  0  0  0  0  0  0  0  0  0  0  0
    0.6183   -2.6970    6.3538 H   0  0  0  0  0  0  0  0  0  0  0  0
    1.4827   -0.4399    6.5953 H   0  0  0  0  0  0  0  0  0  0  0  0
   -3.3956   -1.3469    0.1926 H   0  0  0  0  0  0  0  0  0  0  0  0
   -2.2204   -0.9812   -1.0506 H   0  0  0  0  0  0  0  0  0  0  0  0
    2.1351    3.3851    1.8154 H   0  0  0  0  0  0  0  0  0  0  0  0
    0.5184    4.0545    2.1377 H   0  0  0  0  0  0  0  0  0  0  0  0
   -1.0133   -2.9132   -1.8475 H   0  0  0  0  0  0  0  0  0  0  0  0
   -2.4967   -2.9784    2.1120 H   0  0  0  0  0  0  0  0  0  0  0  0
    0.5243    5.0981   -0.1444 H   0  0  0  0  0  0  0  0  0  0  0  0
    1.8749    5.6731    0.8490 H   0  0  0  0  0  0  0  0  0  0  0  0
    2.1590    4.4563   -0.4120 H   0  0  0  0  0  0  0  0  0  0  0  0
   -0.2329   -5.1776   -1.5801 H   0  0  0  0  0  0  0  0  0  0  0  0
   -1.7361   -5.2524    2.3487 H   0  0  0  0  0  0  0  0  0  0  0  0
   -0.5919   -6.3562    0.5120 H   0  0  0  0  0  0  0  0  0  0  0  0
  1  2  1  0  0  0  0 
  1  3  1  0  0  0  0 
  1  4  1  0  0  0  0 
  5  2  1  0  0  0  0 
  2  6  2  0  0  0  0 
  3  7  1  0  0  0  0 
  4  8  1  0  0  0  0 
  4  9  1  0  0  0  0 
  5 10  1  0  0  0  0 
  5 11  1  0  0  0  0 
  7 12  1  0  0  0  0 
  7 13  2  0  0  0  0 
  8 14  1  0  0  0  0 
  9 15  1  0  0  0  0 
 16 10  1  0  0  0  0 
 14 15  2  0  0  0  0 
 14 17  1  0  0  0  0 
 15 18  1  0  0  0  0 
 16 19  1  0  0  0  0 
 16 20  1  0  0  0  0 
 17 21  2  0  0  0  0 
 18 22  2  0  0  0  0 
 19 23  1  0  0  0  0 
 20 24  1  0  0  0  0 
 20 25  2  0  0  0  0 
 21 22  1  0  0  0  0 
 23 26  1  0  0  0  0 
 24 27  1  0  0  0  0 
 26 28  2  0  0  0  0 
 26 29  1  0  0  0  0 
 27 30  1  0  0  0  0 
 28 31  1  0  0  0  0 
 29 32  2  0  0  0  0 
 31 33  2  0  0  0  0 
 32 33  1  0  0  0  0 
  3 34  1  0  0  0  0 
  3 35  1  0  0  0  0 
  4 36  1  0  0  0  0 
  5 37  1  0  0  0  0 
  8 38  1  0  0  0  0 
  8 39  1  0  0  0  0 
  9 40  1  0  0  0  0 
  9 41  1  0  0  0  0 
 10 42  1  0  0  0  0 
 11 43  1  0  0  0  0 
 11 44  1  0  0  0  0 
 11 45  1  0  0  0  0 
 12 46  1  0  0  0  0 
 16 47  1  0  0  0  0 
 17 48  1  0  0  0  0 
 18 49  1  0  0  0  0 
 19 50  1  0  0  0  0 
 19 51  1  0  0  0  0 
 21 52  1  0  0  0  0 
 22 53  1  0  0  0  0 
 23 54  1  0  0  0  0 
 23 55  1  0  0  0  0 
 27 56  1  0  0  0  0 
 27 57  1  0  0  0  0 
 28 58  1  0  0  0  0 
 29 59  1  0  0  0  0 
 30 60  1  0  0  0  0 
 30 61  1  0  0  0  0 
 30 62  1  0  0  0  0 
 31 63  1  0  0  0  0 
 32 64  1  0  0  0  0 
 33 65  1  0  0  0  0 
M  END
> <cdk:Title>
delapril

> <Conformer>
1

> <SuperDrugID>
SD000704

$$$$
