budesonide
  CDK     0628171801

 65 69  0  0  0  0  0  0  0  0999 V2000
   -1.3004   -3.5968   -0.5956 C   0  0  0  0  0  0  0  0  0  0  0  0
   -1.1162   -5.0170   -0.2143 C   0  0  1  0  0  0  0  0  0  0  0  0
   -1.8327   -2.8259    0.2386 O   0  0  0  0  0  0  0  0  0  0  0  0
   -0.9108   -3.0060   -1.9226 C   0  0  2  0  0  0  0  0  0  0  0  0
   -1.6264   -5.3120    1.0841 O   0  0  0  0  0  0  0  0  0  0  0  0
   -2.1243   -2.4703   -2.7812 C   0  0  2  0  0  0  0  0  0  0  0  0
   -0.0785   -3.8741   -2.9231 C   0  0  1  0  0  0  0  0  0  0  0  0
    0.0227   -1.9594   -1.6138 O   0  0  0  0  0  0  0  0  0  0  0  0
   -3.3030   -3.5219   -2.7278 C   0  0  0  0  0  0  0  0  0  0  0  0
   -1.4528   -2.3269   -4.1853 C   0  0  1  0  0  0  0  0  0  0  0  0
   -2.6555   -1.0438   -2.3967 C   0  0  1  0  0  0  0  0  0  0  0  0
   -0.6573   -3.6390   -4.3436 C   0  0  1  0  0  0  0  0  0  0  0  0
    1.2680   -3.3899   -2.8784 O   0  0  0  0  0  0  0  0  0  0  0  0
    1.3235   -2.5421   -1.7341 C   0  0  1  0  0  0  0  0  0  0  0  0
   -2.4343   -1.8547   -5.3124 C   0  0  1  0  0  0  0  0  0  0  0  0
   -3.6129   -0.4147   -3.4604 C   0  0  1  0  0  0  0  0  0  0  0  0
    2.4031   -1.4479   -1.9081 C   0  0  1  0  0  0  0  0  0  0  0  0
   -3.0369   -0.4409   -4.9310 C   0  0  2  0  0  0  0  0  0  0  0  0
   -1.7325   -1.7921   -6.7039 C   0  0  1  0  0  0  0  0  0  0  0  0
   -4.8996   -1.0174   -3.3635 O   0  0  0  0  0  0  0  0  0  0  0  0
    2.7159   -0.7149   -0.5768 C   0  0  2  0  0  0  0  0  0  0  0  0
   -3.9538    0.1814   -6.0806 C   0  0  2  0  0  0  0  0  0  0  0  0
   -2.6558   -1.1974   -7.7958 C   0  0  2  0  0  0  0  0  0  0  0  0
    3.7317    0.4346   -0.7529 C   0  0  0  0  0  0  0  0  0  0  0  0
   -5.3245   -0.5601   -6.2854 C   0  0  0  0  0  0  0  0  0  0  0  0
   -3.1795    0.1048   -7.3652 C   0  0  0  0  0  0  0  0  0  0  0  0
   -4.3147    1.5793   -5.7312 C   0  0  0  0  0  0  0  0  0  0  0  0
   -2.9206    1.2097   -8.1023 C   0  0  0  0  0  0  0  0  0  0  0  0
   -4.0068    2.6371   -6.4986 C   0  0  0  0  0  0  0  0  0  0  0  0
   -3.3273    2.4679   -7.6902 C   0  0  0  0  0  0  0  0  0  0  0  0
   -3.0648    3.4682   -8.3989 O   0  0  0  0  0  0  0  0  0  0  0  0
   -0.6858   -1.5394   -4.1304 H   0  0  0  0  0  0  0  0  0  0  0  0
   -3.2392   -2.5826   -5.4096 H   0  0  0  0  0  0  0  0  0  0  0  0
   -2.1686    0.2304   -4.8736 H   0  0  0  0  0  0  0  0  0  0  0  0
   -0.0793   -4.9422   -2.6974 H   0  0  0  0  0  0  0  0  0  0  0  0
   -1.6380   -5.6616   -0.9215 H   0  0  0  0  0  0  0  0  0  0  0  0
   -0.0531   -5.2646   -0.2222 H   0  0  0  0  0  0  0  0  0  0  0  0
   -1.1388   -4.7145    1.6898 H   0  0  0  0  0  0  0  0  0  0  0  0
   -2.9382   -4.5428   -2.8580 H   0  0  0  0  0  0  0  0  0  0  0  0
   -3.8098   -3.4752   -1.7599 H   0  0  0  0  0  0  0  0  0  0  0  0
   -4.0567   -3.3543   -3.4918 H   0  0  0  0  0  0  0  0  0  0  0  0
   -3.1634   -1.0817   -1.4297 H   0  0  0  0  0  0  0  0  0  0  0  0
   -1.8135   -0.3560   -2.2776 H   0  0  0  0  0  0  0  0  0  0  0  0
    0.1365   -3.5404   -5.0910 H   0  0  0  0  0  0  0  0  0  0  0  0
   -1.3117   -4.4622   -4.6395 H   0  0  0  0  0  0  0  0  0  0  0  0
    1.5542   -3.1476   -0.8494 H   0  0  0  0  0  0  0  0  0  0  0  0
   -3.7519    0.6268   -3.1602 H   0  0  0  0  0  0  0  0  0  0  0  0
    3.3205   -1.9108   -2.2834 H   0  0  0  0  0  0  0  0  0  0  0  0
    2.0601   -0.7250   -2.6539 H   0  0  0  0  0  0  0  0  0  0  0  0
   -0.8229   -1.1862   -6.6382 H   0  0  0  0  0  0  0  0  0  0  0  0
   -1.4393   -2.7987   -7.0141 H   0  0  0  0  0  0  0  0  0  0  0  0
   -5.2001   -0.8414   -2.4460 H   0  0  0  0  0  0  0  0  0  0  0  0
    3.1287   -1.4331    0.1375 H   0  0  0  0  0  0  0  0  0  0  0  0
    1.7941   -0.3072   -0.1513 H   0  0  0  0  0  0  0  0  0  0  0  0
   -3.4839   -1.8827   -7.9927 H   0  0  0  0  0  0  0  0  0  0  0  0
   -2.0787   -1.1360   -8.7246 H   0  0  0  0  0  0  0  0  0  0  0  0
    3.9801    0.8571    0.2224 H   0  0  0  0  0  0  0  0  0  0  0  0
    3.3089    1.2230   -1.3791 H   0  0  0  0  0  0  0  0  0  0  0  0
    4.6496    0.0665   -1.2156 H   0  0  0  0  0  0  0  0  0  0  0  0
   -6.0241   -0.3732   -5.4678 H   0  0  0  0  0  0  0  0  0  0  0  0
   -5.1944   -1.6398   -6.3581 H   0  0  0  0  0  0  0  0  0  0  0  0
   -5.8133   -0.2183   -7.2021 H   0  0  0  0  0  0  0  0  0  0  0  0
   -4.8287    1.7562   -4.8973 H   0  0  0  0  0  0  0  0  0  0  0  0
   -2.4127    1.1403   -8.9561 H   0  0  0  0  0  0  0  0  0  0  0  0
   -4.2758    3.5504   -6.2067 H   0  0  0  0  0  0  0  0  0  0  0  0
  1  2  1  0  0  0  0 
  1  3  2  0  0  0  0 
  2  5  1  0  0  0  0 
  4  1  1  0  0  0  0 
  6  4  1  0  0  0  0 
  4  7  1  0  0  0  0 
  4  8  1  0  0  0  0 
  6  9  1  0  0  0  0 
 10  6  1  0  0  0  0 
  6 11  1  0  0  0  0 
  7 12  1  0  0  0  0 
  7 13  1  0  0  0  0 
  7 35  1  0  0  0  0 
 14  8  1  0  0  0  0 
 10 12  1  0  0  0  0 
 15 10  1  0  0  0  0 
 10 32  1  0  0  0  0 
 16 11  1  0  0  0  0 
 14 13  1  0  0  0  0 
 14 17  1  0  0  0  0 
 15 18  1  0  0  0  0 
 15 19  1  0  0  0  0 
 15 33  1  0  0  0  0 
 18 16  1  0  0  0  0 
 16 20  1  0  0  0  0 
 17 21  1  0  0  0  0 
 18 22  1  0  0  0  0 
 18 34  1  0  0  0  0 
 19 23  1  0  0  0  0 
 21 24  1  0  0  0  0 
 22 25  1  0  0  0  0 
 22 26  1  0  0  0  0 
 22 27  1  0  0  0  0 
 23 26  1  0  0  0  0 
 26 28  2  0  0  0  0 
 27 29  2  0  0  0  0 
 28 30  1  0  0  0  0 
 29 30  1  0  0  0  0 
 30 31  2  0  0  0  0 
  2 36  1  0  0  0  0 
  2 37  1  0  0  0  0 
  5 38  1  0  0  0  0 
  9 39  1  0  0  0  0 
  9 40  1  0  0  0  0 
  9 41  1  0  0  0  0 
 11 42  1  0  0  0  0 
 11 43  1  0  0  0  0 
 12 44  1  0  0  0  0 
 12 45  1  0  0  0  0 
 14 46  1  0  0  0  0 
 16 47  1  0  0  0  0 
 17 48  1  0  0  0  0 
 17 49  1  0  0  0  0 
 19 50  1  0  0  0  0 
 19 51  1  0  0  0  0 
 20 52  1  0  0  0  0 
 21 53  1  0  0  0  0 
 21 54  1  0  0  0  0 
 23 55  1  0  0  0  0 
 23 56  1  0  0  0  0 
 24 57  1  0  0  0  0 
 24 58  1  0  0  0  0 
 24 59  1  0  0  0  0 
 25 60  1  0  0  0  0 
 25 61  1  0  0  0  0 
 25 62  1  0  0  0  0 
 27 63  1  0  0  0  0 
 28 64  1  0  0  0  0 
 29 65  1  0  0  0  0 
M  END
> <cdk:Title>
budesonide

> <Conformer>
1

> <SuperDrugID>
SD000361

$$$$
