sulfathiazole
  CDK     0628171801

 25 26  0  0  0  0  0  0  0  0999 V2000
   -2.5812    3.0748   -0.2496 S   0  0  1  0  0  0  0  0  0  0  0  0
   -2.2180    1.4865    0.2926 N   0  0  0  0  0  0  0  0  0  0  0  0
   -3.5093    3.7878    0.8489 O   0  0  0  0  0  0  0  0  0  0  0  0
   -1.1961    3.8814   -0.3357 O   0  0  0  0  0  0  0  0  0  0  0  0
   -3.3527    3.0718   -1.8467 C   0  0  0  0  0  0  0  0  0  0  0  0
   -3.0253    0.4191    0.1264 C   0  0  0  0  0  0  0  0  0  0  0  0
   -4.5204    3.8235   -2.0982 C   0  0  0  0  0  0  0  0  0  0  0  0
   -2.7868    2.3065   -2.8860 C   0  0  0  0  0  0  0  0  0  0  0  0
   -4.2302    0.3555   -0.4885 N   0  0  0  0  0  0  0  0  0  0  0  0
   -2.6637   -1.1972    0.7072 S   0  0  0  0  0  0  0  0  0  0  0  0
   -5.1246    3.7927   -3.3695 C   0  0  0  0  0  0  0  0  0  0  0  0
   -3.3911    2.2725   -4.1554 C   0  0  0  0  0  0  0  0  0  0  0  0
   -4.8370   -0.8617   -0.5073 C   0  0  0  0  0  0  0  0  0  0  0  0
   -4.1489   -1.9096    0.1123 C   0  0  0  0  0  0  0  0  0  0  0  0
   -4.5679    3.0075   -4.3995 C   0  0  0  0  0  0  0  0  0  0  0  0
   -5.1609    2.9572   -5.6090 N   0  0  0  0  0  0  0  0  0  0  0  0
   -1.3853    1.3510    0.7701 H   0  0  0  0  0  0  0  0  0  0  0  0
   -4.9385    4.3974   -1.3621 H   0  0  0  0  0  0  0  0  0  0  0  0
   -1.9339    1.7685   -2.7222 H   0  0  0  0  0  0  0  0  0  0  0  0
   -5.9699    4.3424   -3.5398 H   0  0  0  0  0  0  0  0  0  0  0  0
   -2.9706    1.7095   -4.8959 H   0  0  0  0  0  0  0  0  0  0  0  0
   -5.7462   -0.9989   -0.9483 H   0  0  0  0  0  0  0  0  0  0  0  0
   -4.4439   -2.8833    0.2013 H   0  0  0  0  0  0  0  0  0  0  0  0
   -4.7802    2.4127   -6.3163 H   0  0  0  0  0  0  0  0  0  0  0  0
   -5.9718    3.4638   -5.7761 H   0  0  0  0  0  0  0  0  0  0  0  0
  1  2  1  0  0  0  0 
  1  3  2  0  0  0  0 
  1  4  2  0  0  0  0 
  1  5  1  0  0  0  0 
  2  6  1  0  0  0  0 
  5  7  2  0  0  0  0 
  5  8  1  0  0  0  0 
  6  9  2  0  0  0  0 
  6 10  1  0  0  0  0 
  7 11  1  0  0  0  0 
  8 12  2  0  0  0  0 
  9 13  1  0  0  0  0 
 10 14  1  0  0  0  0 
 11 15  2  0  0  0  0 
 12 15  1  0  0  0  0 
 13 14  2  0  0  0  0 
 15 16  1  0  0  0  0 
  2 17  1  0  0  0  0 
  7 18  1  0  0  0  0 
  8 19  1  0  0  0  0 
 11 20  1  0  0  0  0 
 12 21  1  0  0  0  0 
 13 22  1  0  0  0  0 
 14 23  1  0  0  0  0 
 16 24  1  0  0  0  0 
 16 25  1  0  0  0  0 
M  END
> <cdk:Title>
sulfathiazole

> <Conformer>
1

> <SuperDrugID>
SD002273

$$$$
