quazepam
  CDK     0628171801

 36 38  0  0  0  0  0  0  0  0999 V2000
    0.9647   -2.2074   -3.6155 C   0  0  1  0  0  0  0  0  0  0  0  0
    0.1774   -0.9195   -3.9871 C   0  0  2  0  0  0  0  0  0  0  0  0
    1.4603   -2.2123   -2.2409 N   0  0  0  0  0  0  0  0  0  0  0  0
   -1.0018   -0.8214   -3.2842 F   0  0  0  0  0  0  0  0  0  0  0  0
   -0.1449   -0.9296   -5.3244 F   0  0  0  0  0  0  0  0  0  0  0  0
    0.9450    0.1959   -3.7401 F   0  0  0  0  0  0  0  0  0  0  0  0
    0.5421   -2.3112   -1.2070 C   0  0  0  0  0  0  0  0  0  0  0  0
    2.7826   -2.0955   -1.9469 C   0  0  0  0  0  0  0  0  0  0  0  0
    0.3705   -1.2720   -0.2409 C   0  0  0  0  0  0  0  0  0  0  0  0
   -0.2656   -3.4724   -1.1309 C   0  0  0  0  0  0  0  0  0  0  0  0
    3.9635   -2.9626   -2.8256 S   0  0  0  0  0  0  0  0  0  0  0  0
    3.2640   -1.3186   -0.8079 C   0  0  2  0  0  0  0  0  0  0  0  0
    1.2147   -0.1452   -0.2212 C   0  0  0  0  0  0  0  0  0  0  0  0
   -0.6709   -1.4039    0.7144 C   0  0  0  0  0  0  0  0  0  0  0  0
   -1.2734   -3.5906   -0.1637 C   0  0  0  0  0  0  0  0  0  0  0  0
    2.4731   -0.2107   -0.4981 N   0  0  0  0  0  0  0  0  0  0  0  0
    0.7499    1.1292    0.0952 C   0  0  0  0  0  0  0  0  0  0  0  0
   -1.4895   -2.5490    0.7516 C   0  0  0  0  0  0  0  0  0  0  0  0
    1.1281    1.7846    1.2969 C   0  0  0  0  0  0  0  0  0  0  0  0
   -0.1225    1.7988   -0.7960 C   0  0  0  0  0  0  0  0  0  0  0  0
   -2.7262   -2.6851    1.9007 Cl  0  0  0  0  0  0  0  0  0  0  0  0
    1.9028    1.2054    2.1767 F   0  0  0  0  0  0  0  0  0  0  0  0
    0.6572    3.0827    1.5804 C   0  0  0  0  0  0  0  0  0  0  0  0
   -0.5714    3.1035   -0.5203 C   0  0  0  0  0  0  0  0  0  0  0  0
   -0.1771    3.7473    0.6650 C   0  0  0  0  0  0  0  0  0  0  0  0
    0.3252   -3.0777   -3.7976 H   0  0  0  0  0  0  0  0  0  0  0  0
    1.7793   -2.2958   -4.3365 H   0  0  0  0  0  0  0  0  0  0  0  0
   -0.1270   -4.2458   -1.7853 H   0  0  0  0  0  0  0  0  0  0  0  0
    4.2673   -0.9302   -1.0030 H   0  0  0  0  0  0  0  0  0  0  0  0
    3.3284   -1.9714    0.0671 H   0  0  0  0  0  0  0  0  0  0  0  0
   -0.8342   -0.6651    1.4025 H   0  0  0  0  0  0  0  0  0  0  0  0
   -1.8477   -4.4362   -0.1338 H   0  0  0  0  0  0  0  0  0  0  0  0
   -0.4340    1.3476   -1.6586 H   0  0  0  0  0  0  0  0  0  0  0  0
    0.9166    3.5475    2.4548 H   0  0  0  0  0  0  0  0  0  0  0  0
   -1.1858    3.5838   -1.1830 H   0  0  0  0  0  0  0  0  0  0  0  0
   -0.5015    4.6957    0.8636 H   0  0  0  0  0  0  0  0  0  0  0  0
  1  2  1  0  0  0  0 
  1  3  1  0  0  0  0 
  2  4  1  0  0  0  0 
  2  5  1  0  0  0  0 
  2  6  1  0  0  0  0 
  3  7  1  0  0  0  0 
  3  8  1  0  0  0  0 
  7  9  2  0  0  0  0 
  7 10  1  0  0  0  0 
  8 11  2  0  0  0  0 
  8 12  1  0  0  0  0 
  9 13  1  0  0  0  0 
  9 14  1  0  0  0  0 
 10 15  2  0  0  0  0 
 12 16  1  0  0  0  0 
 13 16  2  0  0  0  0 
 13 17  1  0  0  0  0 
 14 18  2  0  0  0  0 
 15 18  1  0  0  0  0 
 17 19  2  0  0  0  0 
 17 20  1  0  0  0  0 
 18 21  1  0  0  0  0 
 19 22  1  0  0  0  0 
 19 23  1  0  0  0  0 
 20 24  2  0  0  0  0 
 23 25  2  0  0  0  0 
 24 25  1  0  0  0  0 
  1 26  1  0  0  0  0 
  1 27  1  0  0  0  0 
 10 28  1  0  0  0  0 
 12 29  1  0  0  0  0 
 12 30  1  0  0  0  0 
 14 31  1  0  0  0  0 
 15 32  1  0  0  0  0 
 20 33  1  0  0  0  0 
 23 34  1  0  0  0  0 
 24 35  1  0  0  0  0 
 25 36  1  0  0  0  0 
M  END
> <cdk:Title>
quazepam

> <Conformer>
1

> <SuperDrugID>
SD002100

$$$$
