azelastine
  CDK     0628171801

 51 54  0  0  0  0  0  0  0  0999 V2000
   -2.0529   -6.5792    4.1318 C   0  0  2  0  0  0  0  0  0  0  0  0
   -2.7985   -5.4119    3.5888 C   0  0  0  0  0  0  0  0  0  0  0  0
   -1.6828   -6.4288    5.5660 C   0  0  0  0  0  0  0  0  0  0  0  0
   -4.2102   -5.2788    3.4886 C   0  0  0  0  0  0  0  0  0  0  0  0
   -2.0408   -4.3788    3.1409 N   0  0  0  0  0  0  0  0  0  0  0  0
   -0.4116   -5.9339    5.9479 C   0  0  0  0  0  0  0  0  0  0  0  0
   -2.5788   -6.8297    6.5851 C   0  0  0  0  0  0  0  0  0  0  0  0
   -4.7322   -4.0795    2.9154 C   0  0  0  0  0  0  0  0  0  0  0  0
   -5.1263   -6.2693    3.9295 C   0  0  0  0  0  0  0  0  0  0  0  0
   -2.4764   -3.2947    2.5383 N   0  0  0  0  0  0  0  0  0  0  0  0
   -0.0361   -5.8761    7.3044 C   0  0  0  0  0  0  0  0  0  0  0  0
   -2.2057   -6.7768    7.9398 C   0  0  0  0  0  0  0  0  0  0  0  0
   -3.8298   -3.1041    2.4193 C   0  0  0  0  0  0  0  0  0  0  0  0
   -6.1362   -3.8931    2.8368 C   0  0  0  0  0  0  0  0  0  0  0  0
   -6.5142   -6.0727    3.8359 C   0  0  0  0  0  0  0  0  0  0  0  0
   -0.9297   -6.3080    8.3030 C   0  0  0  0  0  0  0  0  0  0  0  0
   -4.2769   -2.0781    1.8515 O   0  0  0  0  0  0  0  0  0  0  0  0
   -7.0195   -4.8818    3.2969 C   0  0  0  0  0  0  0  0  0  0  0  0
   -0.4708   -6.2795    9.9326 Cl  0  0  0  0  0  0  0  0  0  0  0  0
   -1.4635   -2.3899    2.0023 C   0  0  1  0  0  0  0  0  0  0  0  0
   -1.4794   -2.3715    0.4387 C   0  0  2  0  0  0  0  0  0  0  0  0
   -0.1076   -2.0800   -0.2371 C   0  0  2  0  0  0  0  0  0  0  0  0
    0.8383   -1.1839    0.5039 N   0  0  2  0  0  0  0  0  0  0  0  0
    0.2590    0.0932    1.0342 C   0  0  2  0  0  0  0  0  0  0  0  0
   -0.2738   -0.0918    2.4790 C   0  0  2  0  0  0  0  0  0  0  0  0
   -1.5630   -0.9473    2.6047 C   0  0  1  0  0  0  0  0  0  0  0  0
    2.1504   -1.0220   -0.1935 C   0  0  0  0  0  0  0  0  0  0  0  0
   -0.4809   -2.7737    2.3018 H   0  0  0  0  0  0  0  0  0  0  0  0
   -1.1502   -6.7265    3.5333 H   0  0  0  0  0  0  0  0  0  0  0  0
   -2.6113   -7.5049    3.9942 H   0  0  0  0  0  0  0  0  0  0  0  0
    0.2581   -5.6226    5.2403 H   0  0  0  0  0  0  0  0  0  0  0  0
   -3.5081   -7.1826    6.3527 H   0  0  0  0  0  0  0  0  0  0  0  0
   -4.8105   -7.1504    4.3298 H   0  0  0  0  0  0  0  0  0  0  0  0
    0.8929   -5.5289    7.5576 H   0  0  0  0  0  0  0  0  0  0  0  0
   -2.8663   -7.0931    8.6544 H   0  0  0  0  0  0  0  0  0  0  0  0
   -6.5336   -3.0352    2.4446 H   0  0  0  0  0  0  0  0  0  0  0  0
   -7.1571   -6.7956    4.1662 H   0  0  0  0  0  0  0  0  0  0  0  0
   -8.0290   -4.7326    3.2417 H   0  0  0  0  0  0  0  0  0  0  0  0
   -2.2072   -1.6366    0.0864 H   0  0  0  0  0  0  0  0  0  0  0  0
   -1.8252   -3.3445    0.0745 H   0  0  0  0  0  0  0  0  0  0  0  0
   -0.2964   -1.6738   -1.2365 H   0  0  0  0  0  0  0  0  0  0  0  0
    0.3888   -3.0457   -0.3698 H   0  0  0  0  0  0  0  0  0  0  0  0
   -0.5344    0.4756    0.3858 H   0  0  0  0  0  0  0  0  0  0  0  0
    1.0221    0.8768    1.0870 H   0  0  0  0  0  0  0  0  0  0  0  0
   -0.4842    0.8973    2.8962 H   0  0  0  0  0  0  0  0  0  0  0  0
    0.5116   -0.5369    3.0957 H   0  0  0  0  0  0  0  0  0  0  0  0
   -2.3796   -0.3913    2.1349 H   0  0  0  0  0  0  0  0  0  0  0  0
   -1.8013   -1.0266    3.6702 H   0  0  0  0  0  0  0  0  0  0  0  0
    2.0426   -0.4288   -1.1055 H   0  0  0  0  0  0  0  0  0  0  0  0
    2.5733   -1.9941   -0.4576 H   0  0  0  0  0  0  0  0  0  0  0  0
    2.8706   -0.5283    0.4617 H   0  0  0  0  0  0  0  0  0  0  0  0
  1  2  1  0  0  0  0 
  1  3  1  0  0  0  0 
  2  4  1  0  0  0  0 
  2  5  2  0  0  0  0 
  3  6  2  0  0  0  0 
  3  7  1  0  0  0  0 
  4  8  1  0  0  0  0 
  4  9  2  0  0  0  0 
  5 10  1  0  0  0  0 
  6 11  1  0  0  0  0 
  7 12  2  0  0  0  0 
  8 13  1  0  0  0  0 
  8 14  2  0  0  0  0 
  9 15  1  0  0  0  0 
 10 13  1  0  0  0  0 
 11 16  2  0  0  0  0 
 12 16  1  0  0  0  0 
 13 17  2  0  0  0  0 
 14 18  1  0  0  0  0 
 15 18  2  0  0  0  0 
 16 19  1  0  0  0  0 
 20 10  1  0  0  0  0 
 21 22  1  0  0  0  0 
 22 23  1  0  0  0  0 
 23 24  1  0  0  0  0 
 24 25  1  0  0  0  0 
 25 26  1  0  0  0  0 
 20 21  1  0  0  0  0 
 20 26  1  0  0  0  0 
 23 27  1  0  0  0  0 
 20 28  1  0  0  0  0 
  1 29  1  0  0  0  0 
  1 30  1  0  0  0  0 
  6 31  1  0  0  0  0 
  7 32  1  0  0  0  0 
  9 33  1  0  0  0  0 
 11 34  1  0  0  0  0 
 12 35  1  0  0  0  0 
 14 36  1  0  0  0  0 
 15 37  1  0  0  0  0 
 18 38  1  0  0  0  0 
 21 39  1  0  0  0  0 
 21 40  1  0  0  0  0 
 22 41  1  0  0  0  0 
 22 42  1  0  0  0  0 
 24 43  1  0  0  0  0 
 24 44  1  0  0  0  0 
 25 45  1  0  0  0  0 
 25 46  1  0  0  0  0 
 26 47  1  0  0  0  0 
 26 48  1  0  0  0  0 
 27 49  1  0  0  0  0 
 27 50  1  0  0  0  0 
 27 51  1  0  0  0  0 
M  END
> <cdk:Title>
azelastine

> <Conformer>
1

> <SuperDrugID>
SD000225

$$$$
