decimemide
  CDK     0628171801

 55 55  0  0  0  0  0  0  0  0999 V2000
    1.5215   -5.5048    0.0230 O   0  0  0  0  0  0  0  0  0  0  0  0
    1.5131   -6.0490   -1.3134 C   0  0  1  0  0  0  0  0  0  0  0  0
    1.2009   -4.1795    0.0629 C   0  0  0  0  0  0  0  0  0  0  0  0
    1.9246   -7.5376   -1.2608 C   0  0  1  0  0  0  0  0  0  0  0  0
    2.2143   -3.2010   -0.0002 C   0  0  0  0  0  0  0  0  0  0  0  0
   -0.1477   -3.7947    0.2025 C   0  0  0  0  0  0  0  0  0  0  0  0
    3.3295   -7.7388   -0.6302 C   0  0  2  0  0  0  0  0  0  0  0  0
    3.5331   -3.5662   -0.0807 O   0  0  0  0  0  0  0  0  0  0  0  0
    1.8627   -1.8381   -0.0215 C   0  0  0  0  0  0  0  0  0  0  0  0
   -1.1253   -4.7459    0.3325 O   0  0  0  0  0  0  0  0  0  0  0  0
   -0.4870   -2.4289    0.1751 C   0  0  0  0  0  0  0  0  0  0  0  0
    3.7621   -9.2244   -0.5472 C   0  0  2  0  0  0  0  0  0  0  0  0
    4.1565   -3.7205    1.2065 C   0  0  0  0  0  0  0  0  0  0  0  0
    0.5058   -1.4243    0.0432 C   0  0  0  0  0  0  0  0  0  0  0  0
   -1.3476   -5.1311    1.7012 C   0  0  0  0  0  0  0  0  0  0  0  0
    5.1625   -9.3968    0.1053 C   0  0  2  0  0  0  0  0  0  0  0  0
    0.1650   -0.0429   -0.0203 C   0  0  0  0  0  0  0  0  0  0  0  0
    5.6047  -10.8825    0.1796 C   0  0  1  0  0  0  0  0  0  0  0  0
   -1.1038    0.4126    0.0487 N   0  0  0  0  0  0  0  0  0  0  0  0
    1.0425    0.8409   -0.1568 O   0  0  0  0  0  0  0  0  0  0  0  0
    7.0086  -11.0767    0.8158 C   0  0  1  0  0  0  0  0  0  0  0  0
    7.4287  -12.5708    0.8691 C   0  0  1  0  0  0  0  0  0  0  0  0
    8.8306  -12.7846    1.4986 C   0  0  1  0  0  0  0  0  0  0  0  0
    9.2413  -14.2736    1.5473 C   0  0  0  0  0  0  0  0  0  0  0  0
    0.5117   -5.9810   -1.7505 H   0  0  0  0  0  0  0  0  0  0  0  0
    2.2095   -5.5116   -1.9655 H   0  0  0  0  0  0  0  0  0  0  0  0
    1.1778   -8.0862   -0.6794 H   0  0  0  0  0  0  0  0  0  0  0  0
    1.9206   -7.9373   -2.2794 H   0  0  0  0  0  0  0  0  0  0  0  0
    3.3297   -7.3269    0.3827 H   0  0  0  0  0  0  0  0  0  0  0  0
    4.0652   -7.1873   -1.2230 H   0  0  0  0  0  0  0  0  0  0  0  0
    2.6159   -1.1478   -0.0874 H   0  0  0  0  0  0  0  0  0  0  0  0
   -1.4766   -2.1839    0.2527 H   0  0  0  0  0  0  0  0  0  0  0  0
    3.7805   -9.6470   -1.5563 H   0  0  0  0  0  0  0  0  0  0  0  0
    3.0248   -9.7781    0.0423 H   0  0  0  0  0  0  0  0  0  0  0  0
    5.1907   -4.0243    1.0500 H   0  0  0  0  0  0  0  0  0  0  0  0
    4.1600   -2.7799    1.7606 H   0  0  0  0  0  0  0  0  0  0  0  0
    3.6649   -4.4934    1.8004 H   0  0  0  0  0  0  0  0  0  0  0  0
   -2.1137   -5.9053    1.7219 H   0  0  0  0  0  0  0  0  0  0  0  0
   -0.4453   -5.5418    2.1606 H   0  0  0  0  0  0  0  0  0  0  0  0
   -1.7035   -4.2835    2.2895 H   0  0  0  0  0  0  0  0  0  0  0  0
    5.1389   -8.9827    1.1184 H   0  0  0  0  0  0  0  0  0  0  0  0
    5.9004   -8.8345   -0.4754 H   0  0  0  0  0  0  0  0  0  0  0  0
    4.8694  -11.4391    0.7687 H   0  0  0  0  0  0  0  0  0  0  0  0
    5.6161  -11.2961   -0.8334 H   0  0  0  0  0  0  0  0  0  0  0  0
   -1.2752    1.3672    0.0015 H   0  0  0  0  0  0  0  0  0  0  0  0
   -1.8463   -0.2055    0.1442 H   0  0  0  0  0  0  0  0  0  0  0  0
    7.7464  -10.5190    0.2304 H   0  0  0  0  0  0  0  0  0  0  0  0
    7.0007  -10.6708    1.8323 H   0  0  0  0  0  0  0  0  0  0  0  0
    6.6894  -13.1263    1.4542 H   0  0  0  0  0  0  0  0  0  0  0  0
    7.4326  -12.9743   -0.1482 H   0  0  0  0  0  0  0  0  0  0  0  0
    9.5770  -12.2365    0.9165 H   0  0  0  0  0  0  0  0  0  0  0  0
    8.8345  -12.3889    2.5182 H   0  0  0  0  0  0  0  0  0  0  0  0
   10.2318  -14.3698    1.9974 H   0  0  0  0  0  0  0  0  0  0  0  0
    8.5300  -14.8455    2.1469 H   0  0  0  0  0  0  0  0  0  0  0  0
    9.2754  -14.6924    0.5393 H   0  0  0  0  0  0  0  0  0  0  0  0
  1  2  1  0  0  0  0 
  1  3  1  0  0  0  0 
  2  4  1  0  0  0  0 
  3  5  2  0  0  0  0 
  3  6  1  0  0  0  0 
  4  7  1  0  0  0  0 
  5  8  1  0  0  0  0 
  5  9  1  0  0  0  0 
  6 10  1  0  0  0  0 
  6 11  2  0  0  0  0 
  7 12  1  0  0  0  0 
  8 13  1  0  0  0  0 
  9 14  2  0  0  0  0 
 10 15  1  0  0  0  0 
 11 14  1  0  0  0  0 
 12 16  1  0  0  0  0 
 14 17  1  0  0  0  0 
 16 18  1  0  0  0  0 
 17 19  1  0  0  0  0 
 17 20  2  0  0  0  0 
 18 21  1  0  0  0  0 
 21 22  1  0  0  0  0 
 22 23  1  0  0  0  0 
 23 24  1  0  0  0  0 
  2 25  1  0  0  0  0 
  2 26  1  0  0  0  0 
  4 27  1  0  0  0  0 
  4 28  1  0  0  0  0 
  7 29  1  0  0  0  0 
  7 30  1  0  0  0  0 
  9 31  1  0  0  0  0 
 11 32  1  0  0  0  0 
 12 33  1  0  0  0  0 
 12 34  1  0  0  0  0 
 13 35  1  0  0  0  0 
 13 36  1  0  0  0  0 
 13 37  1  0  0  0  0 
 15 38  1  0  0  0  0 
 15 39  1  0  0  0  0 
 15 40  1  0  0  0  0 
 16 41  1  0  0  0  0 
 16 42  1  0  0  0  0 
 18 43  1  0  0  0  0 
 18 44  1  0  0  0  0 
 19 45  1  0  0  0  0 
 19 46  1  0  0  0  0 
 21 47  1  0  0  0  0 
 21 48  1  0  0  0  0 
 22 49  1  0  0  0  0 
 22 50  1  0  0  0  0 
 23 51  1  0  0  0  0 
 23 52  1  0  0  0  0 
 24 53  1  0  0  0  0 
 24 54  1  0  0  0  0 
 24 55  1  0  0  0  0 
M  END
> <cdk:Title>
decimemide

> <Conformer>
1

> <SuperDrugID>
SD002711

$$$$
