methamphetamine
  CDK     0628171801

 26 26  0  0  0  0  0  0  0  0999 V2000
    1.6493   -0.3562    0.1077 C   0  0  0  0  0  0  0  0  0  0  0  0
    0.2881    0.2069    0.0093 N   0  0  2  0  0  0  0  0  0  0  0  0
   -0.3680    0.6102    1.2805 C   0  0  1  0  0  0  0  0  0  0  0  0
   -1.4655    1.6467    0.9276 C   0  0  0  0  0  0  0  0  0  0  0  0
   -0.9150   -0.5893    2.1169 C   0  0  2  0  0  0  0  0  0  0  0  0
   -1.9030   -1.4383    1.3959 C   0  0  0  0  0  0  0  0  0  0  0  0
   -1.4740   -2.4794    0.5391 C   0  0  0  0  0  0  0  0  0  0  0  0
   -2.4065   -3.2641   -0.1648 C   0  0  0  0  0  0  0  0  0  0  0  0
   -3.7834   -3.0246   -0.0117 C   0  0  0  0  0  0  0  0  0  0  0  0
   -4.2266   -1.9991    0.8420 C   0  0  0  0  0  0  0  0  0  0  0  0
   -3.2935   -1.2160    1.5464 C   0  0  0  0  0  0  0  0  0  0  0  0
    2.0111   -0.5562   -0.9005 H   0  0  0  0  0  0  0  0  0  0  0  0
    2.3242    0.3544    0.5869 H   0  0  0  0  0  0  0  0  0  0  0  0
    1.6502   -1.2924    0.6672 H   0  0  0  0  0  0  0  0  0  0  0  0
   -0.3073   -0.4828   -0.4530 H   0  0  0  0  0  0  0  0  0  0  0  0
    0.3601    1.1384    1.9047 H   0  0  0  0  0  0  0  0  0  0  0  0
   -1.9859    1.9753    1.8293 H   0  0  0  0  0  0  0  0  0  0  0  0
   -2.1945    1.2235    0.2333 H   0  0  0  0  0  0  0  0  0  0  0  0
   -1.0110    2.5221    0.4565 H   0  0  0  0  0  0  0  0  0  0  0  0
   -1.3655   -0.1961    3.0330 H   0  0  0  0  0  0  0  0  0  0  0  0
   -0.0801   -1.2120    2.4473 H   0  0  0  0  0  0  0  0  0  0  0  0
   -0.4772   -2.6743    0.4205 H   0  0  0  0  0  0  0  0  0  0  0  0
   -2.0830   -4.0054   -0.7881 H   0  0  0  0  0  0  0  0  0  0  0  0
   -4.4611   -3.5952   -0.5198 H   0  0  0  0  0  0  0  0  0  0  0  0
   -5.2280   -1.8216    0.9520 H   0  0  0  0  0  0  0  0  0  0  0  0
   -3.6355   -0.4752    2.1635 H   0  0  0  0  0  0  0  0  0  0  0  0
  1  2  1  0  0  0  0 
  2  3  1  0  0  0  0 
  3  4  1  0  0  0  0 
  3  5  1  0  0  0  0 
  5  6  1  0  0  0  0 
  6  7  2  0  0  0  0 
  7  8  1  0  0  0  0 
  8  9  2  0  0  0  0 
  9 10  1  0  0  0  0 
 10 11  2  0  0  0  0 
  6 11  1  0  0  0  0 
  1 12  1  0  0  0  0 
  1 13  1  0  0  0  0 
  1 14  1  0  0  0  0 
  2 15  1  0  0  0  0 
  3 16  1  0  0  0  0 
  4 17  1  0  0  0  0 
  4 18  1  0  0  0  0 
  4 19  1  0  0  0  0 
  5 20  1  0  0  0  0 
  5 21  1  0  0  0  0 
  7 22  1  0  0  0  0 
  8 23  1  0  0  0  0 
  9 24  1  0  0  0  0 
 10 25  1  0  0  0  0 
 11 26  1  0  0  0  0 
M  END
> <cdk:Title>
methamphetamine

> <Conformer>
1

> <SuperDrugID>
SD001532

$$$$
