anagrelide
  CDK     0628171801

 23 25  0  0  0  0  0  0  0  0999 V2000
   -5.6973    2.6041   -2.1270 Cl  0  0  0  0  0  0  0  0  0  0  0  0
   -5.4135    0.9307   -2.0054 C   0  0  0  0  0  0  0  0  0  0  0  0
   -4.1985    0.4486   -1.4488 C   0  0  0  0  0  0  0  0  0  0  0  0
   -6.3893    0.0087   -2.4593 C   0  0  0  0  0  0  0  0  0  0  0  0
   -3.9733   -0.9542   -1.3550 C   0  0  0  0  0  0  0  0  0  0  0  0
   -3.1194    1.3582   -0.9456 C   0  0  1  0  0  0  0  0  0  0  0  0
   -7.8641    0.5023   -3.1425 Cl  0  0  0  0  0  0  0  0  0  0  0  0
   -6.1549   -1.3764   -2.3525 C   0  0  0  0  0  0  0  0  0  0  0  0
   -2.8404   -1.4343   -0.8367 N   0  0  0  0  0  0  0  0  0  0  0  0
   -4.9533   -1.8555   -1.8095 C   0  0  0  0  0  0  0  0  0  0  0  0
   -1.9773    0.6526   -0.4252 N   0  0  0  0  0  0  0  0  0  0  0  0
   -1.9020   -0.6730   -0.3996 C   0  0  0  0  0  0  0  0  0  0  0  0
   -0.7963    1.2475    0.1058 C   0  0  2  0  0  0  0  0  0  0  0  0
   -0.7642   -1.0549    0.1163 N   0  0  0  0  0  0  0  0  0  0  0  0
   -0.0524    0.0301    0.4436 C   0  0  0  0  0  0  0  0  0  0  0  0
    1.0852   -0.0008    0.9632 O   0  0  0  0  0  0  0  0  0  0  0  0
   -2.7816    1.9967   -1.7658 H   0  0  0  0  0  0  0  0  0  0  0  0
   -3.5285    1.9884   -0.1517 H   0  0  0  0  0  0  0  0  0  0  0  0
   -6.8588   -2.0472   -2.6710 H   0  0  0  0  0  0  0  0  0  0  0  0
   -4.7984   -2.8647   -1.7457 H   0  0  0  0  0  0  0  0  0  0  0  0
   -1.0057    1.8475    0.9955 H   0  0  0  0  0  0  0  0  0  0  0  0
   -0.2692    1.8383   -0.6483 H   0  0  0  0  0  0  0  0  0  0  0  0
   -0.4808   -1.9742    0.2389 H   0  0  0  0  0  0  0  0  0  0  0  0
  1  2  1  0  0  0  0 
  2  3  2  0  0  0  0 
  2  4  1  0  0  0  0 
  3  5  1  0  0  0  0 
  3  6  1  0  0  0  0 
  4  7  1  0  0  0  0 
  4  8  2  0  0  0  0 
  5  9  1  0  0  0  0 
  5 10  2  0  0  0  0 
  6 11  1  0  0  0  0 
  8 10  1  0  0  0  0 
  9 12  2  0  0  0  0 
 11 12  1  0  0  0  0 
 11 13  1  0  0  0  0 
 12 14  1  0  0  0  0 
 13 15  1  0  0  0  0 
 14 15  1  0  0  0  0 
 15 16  2  0  0  0  0 
  6 17  1  0  0  0  0 
  6 18  1  0  0  0  0 
  8 19  1  0  0  0  0 
 10 20  1  0  0  0  0 
 13 21  1  0  0  0  0 
 13 22  1  0  0  0  0 
 14 23  1  0  0  0  0 
M  END
> <cdk:Title>
anagrelide

> <Conformer>
1

> <SuperDrugID>
SD000172

$$$$
