metoclopramide
  CDK     0628171801

 42 42  0  0  0  0  0  0  0  0999 V2000
    2.2588   -1.4585    1.1874 C   0  0  0  0  0  0  0  0  0  0  0  0
    3.4699   -1.9064    1.6354 N   0  0  0  0  0  0  0  0  0  0  0  0
    1.4610   -2.2686    0.6574 O   0  0  0  0  0  0  0  0  0  0  0  0
    1.8753   -0.0969    1.3491 C   0  0  0  0  0  0  0  0  0  0  0  0
    3.9166   -3.2633    1.6073 C   0  0  2  0  0  0  0  0  0  0  0  0
    0.9282    0.5270    0.4905 C   0  0  0  0  0  0  0  0  0  0  0  0
    2.4173    0.6702    2.4114 C   0  0  0  0  0  0  0  0  0  0  0  0
    4.3620   -3.7430    0.2007 C   0  0  2  0  0  0  0  0  0  0  0  0
    0.3950   -0.1309   -0.5918 O   0  0  0  0  0  0  0  0  0  0  0  0
    0.4981    1.8459    0.7430 C   0  0  0  0  0  0  0  0  0  0  0  0
    2.0145    1.9998    2.6406 C   0  0  0  0  0  0  0  0  0  0  0  0
    5.3432   -2.8442   -0.5087 N   0  0  1  0  0  0  0  0  0  0  0  0
    1.0901    0.1530   -1.8213 C   0  0  0  0  0  0  0  0  0  0  0  0
    1.0366    2.5869    1.8112 C   0  0  0  0  0  0  0  0  0  0  0  0
    2.7148    2.8474    3.9343 Cl  0  0  0  0  0  0  0  0  0  0  0  0
    6.7123   -2.8786    0.1219 C   0  0  1  0  0  0  0  0  0  0  0  0
    5.3691   -3.0812   -1.9952 C   0  0  1  0  0  0  0  0  0  0  0  0
    0.5961    3.8448    2.0155 N   0  0  0  0  0  0  0  0  0  0  0  0
    7.7091   -1.7962   -0.3641 C   0  0  0  0  0  0  0  0  0  0  0  0
    4.1050   -2.6061   -2.7504 C   0  0  0  0  0  0  0  0  0  0  0  0
    4.0806   -1.2506    2.0095 H   0  0  0  0  0  0  0  0  0  0  0  0
    3.1221   -3.9156    1.9806 H   0  0  0  0  0  0  0  0  0  0  0  0
    4.7440   -3.3556    2.3109 H   0  0  0  0  0  0  0  0  0  0  0  0
    3.1077    0.2558    3.0434 H   0  0  0  0  0  0  0  0  0  0  0  0
    3.4432   -3.8456   -0.3770 H   0  0  0  0  0  0  0  0  0  0  0  0
    4.7783   -4.7489    0.2903 H   0  0  0  0  0  0  0  0  0  0  0  0
   -0.2105    2.2658    0.1348 H   0  0  0  0  0  0  0  0  0  0  0  0
    0.6847   -0.4971   -2.5957 H   0  0  0  0  0  0  0  0  0  0  0  0
    0.9403    1.1902   -2.1307 H   0  0  0  0  0  0  0  0  0  0  0  0
    2.1611   -0.0451   -1.7377 H   0  0  0  0  0  0  0  0  0  0  0  0
    6.6193   -2.7136    1.1954 H   0  0  0  0  0  0  0  0  0  0  0  0
    7.1685   -3.8629   -0.0181 H   0  0  0  0  0  0  0  0  0  0  0  0
    6.1856   -2.5230   -2.4506 H   0  0  0  0  0  0  0  0  0  0  0  0
    5.5412   -4.1396   -2.2098 H   0  0  0  0  0  0  0  0  0  0  0  0
    0.9455    4.3707    2.7510 H   0  0  0  0  0  0  0  0  0  0  0  0
   -0.0801    4.2236    1.4325 H   0  0  0  0  0  0  0  0  0  0  0  0
    8.1259   -2.0573   -1.3382 H   0  0  0  0  0  0  0  0  0  0  0  0
    7.2125   -0.8266   -0.4313 H   0  0  0  0  0  0  0  0  0  0  0  0
    8.5416   -1.7154    0.3392 H   0  0  0  0  0  0  0  0  0  0  0  0
    4.2762   -2.6634   -3.8278 H   0  0  0  0  0  0  0  0  0  0  0  0
    3.8824   -1.5713   -2.4903 H   0  0  0  0  0  0  0  0  0  0  0  0
    3.2404   -3.2278   -2.5215 H   0  0  0  0  0  0  0  0  0  0  0  0
  1  2  1  0  0  0  0 
  1  3  2  0  0  0  0 
  1  4  1  0  0  0  0 
  2  5  1  0  0  0  0 
  4  6  2  0  0  0  0 
  4  7  1  0  0  0  0 
  5  8  1  0  0  0  0 
  6  9  1  0  0  0  0 
  6 10  1  0  0  0  0 
  7 11  2  0  0  0  0 
  8 12  1  0  0  0  0 
  9 13  1  0  0  0  0 
 10 14  2  0  0  0  0 
 11 14  1  0  0  0  0 
 11 15  1  0  0  0  0 
 12 16  1  0  0  0  0 
 12 17  1  0  0  0  0 
 14 18  1  0  0  0  0 
 16 19  1  0  0  0  0 
 17 20  1  0  0  0  0 
  2 21  1  0  0  0  0 
  5 22  1  0  0  0  0 
  5 23  1  0  0  0  0 
  7 24  1  0  0  0  0 
  8 25  1  0  0  0  0 
  8 26  1  0  0  0  0 
 10 27  1  0  0  0  0 
 13 28  1  0  0  0  0 
 13 29  1  0  0  0  0 
 13 30  1  0  0  0  0 
 16 31  1  0  0  0  0 
 16 32  1  0  0  0  0 
 17 33  1  0  0  0  0 
 17 34  1  0  0  0  0 
 18 35  1  0  0  0  0 
 18 36  1  0  0  0  0 
 19 37  1  0  0  0  0 
 19 38  1  0  0  0  0 
 19 39  1  0  0  0  0 
 20 40  1  0  0  0  0 
 20 41  1  0  0  0  0 
 20 42  1  0  0  0  0 
M  END
> <cdk:Title>
metoclopramide

> <Conformer>
1

> <SuperDrugID>
SD001582

$$$$
