monobenzone
  CDK     0628171801

 27 28  0  0  0  0  0  0  0  0999 V2000
   -0.4764   -1.2140   -1.7807 O   0  0  0  0  0  0  0  0  0  0  0  0
   -1.3226   -0.6359   -0.7642 C   0  0  1  0  0  0  0  0  0  0  0  0
   -0.0075   -2.4747   -1.5005 C   0  0  0  0  0  0  0  0  0  0  0  0
   -0.5892   -0.3456    0.4972 C   0  0  0  0  0  0  0  0  0  0  0  0
   -0.8320   -3.6142   -1.6218 C   0  0  0  0  0  0  0  0  0  0  0  0
    1.3391   -2.6382   -1.1166 C   0  0  0  0  0  0  0  0  0  0  0  0
   -0.8591   -1.0753    1.6791 C   0  0  0  0  0  0  0  0  0  0  0  0
    0.4070    0.6594    0.5280 C   0  0  0  0  0  0  0  0  0  0  0  0
   -0.3175   -4.8974   -1.3520 C   0  0  0  0  0  0  0  0  0  0  0  0
    1.8593   -3.9207   -0.8611 C   0  0  0  0  0  0  0  0  0  0  0  0
   -0.1500   -0.8093    2.8642 C   0  0  0  0  0  0  0  0  0  0  0  0
    1.1091    0.9349    1.7163 C   0  0  0  0  0  0  0  0  0  0  0  0
    1.0326   -5.0552   -0.9849 C   0  0  0  0  0  0  0  0  0  0  0  0
    0.8275    0.2013    2.8829 C   0  0  0  0  0  0  0  0  0  0  0  0
    1.5252   -6.2985   -0.7656 O   0  0  0  0  0  0  0  0  0  0  0  0
   -1.7165    0.3029   -1.1625 H   0  0  0  0  0  0  0  0  0  0  0  0
   -2.1918   -1.2770   -0.5878 H   0  0  0  0  0  0  0  0  0  0  0  0
   -1.8074   -3.5099   -1.9093 H   0  0  0  0  0  0  0  0  0  0  0  0
    1.9470   -1.8223   -1.0258 H   0  0  0  0  0  0  0  0  0  0  0  0
   -1.5705   -1.8089    1.6849 H   0  0  0  0  0  0  0  0  0  0  0  0
    0.6239    1.2010   -0.3130 H   0  0  0  0  0  0  0  0  0  0  0  0
   -0.9245   -5.7162   -1.4300 H   0  0  0  0  0  0  0  0  0  0  0  0
    2.8401   -4.0267   -0.5869 H   0  0  0  0  0  0  0  0  0  0  0  0
   -0.3431   -1.3513    3.7112 H   0  0  0  0  0  0  0  0  0  0  0  0
    1.8227    1.6676    1.7338 H   0  0  0  0  0  0  0  0  0  0  0  0
    1.3358    0.3984    3.7462 H   0  0  0  0  0  0  0  0  0  0  0  0
    2.4758   -6.2392   -0.9925 H   0  0  0  0  0  0  0  0  0  0  0  0
  1  2  1  0  0  0  0 
  1  3  1  0  0  0  0 
  2  4  1  0  0  0  0 
  3  5  2  0  0  0  0 
  3  6  1  0  0  0  0 
  4  7  2  0  0  0  0 
  4  8  1  0  0  0  0 
  5  9  1  0  0  0  0 
  6 10  2  0  0  0  0 
  7 11  1  0  0  0  0 
  8 12  2  0  0  0  0 
  9 13  2  0  0  0  0 
 10 13  1  0  0  0  0 
 11 14  2  0  0  0  0 
 12 14  1  0  0  0  0 
 13 15  1  0  0  0  0 
  2 16  1  0  0  0  0 
  2 17  1  0  0  0  0 
  5 18  1  0  0  0  0 
  6 19  1  0  0  0  0 
  7 20  1  0  0  0  0 
  8 21  1  0  0  0  0 
  9 22  1  0  0  0  0 
 10 23  1  0  0  0  0 
 11 24  1  0  0  0  0 
 12 25  1  0  0  0  0 
 14 26  1  0  0  0  0 
 15 27  1  0  0  0  0 
M  END
> <cdk:Title>
monobenzone

> <Conformer>
1

> <SuperDrugID>
SD001632

$$$$
