semustine
  CDK     0628171802

 34 34  0  0  0  0  0  0  0  0999 V2000
   -1.7009   -0.7982   -0.1780 N   0  0  0  0  0  0  0  0  0  0  0  0
   -0.9814   -0.2084   -1.1805 C   0  0  0  0  0  0  0  0  0  0  0  0
   -3.0818   -1.1729   -0.2315 C   0  0  2  0  0  0  0  0  0  0  0  0
    0.3657    0.0496   -1.0169 N   0  0  0  0  0  0  0  0  0  0  0  0
   -1.5647    0.0823   -2.2536 O   0  0  0  0  0  0  0  0  0  0  0  0
   -3.6605   -1.2262    1.2105 C   0  0  1  0  0  0  0  0  0  0  0  0
   -3.2269   -2.5575   -0.9243 C   0  0  1  0  0  0  0  0  0  0  0  0
    1.2100    0.5867   -2.0648 C   0  0  1  0  0  0  0  0  0  0  0  0
    0.9267   -0.2498    0.0929 N   0  0  0  0  0  0  0  0  0  0  0  0
   -5.1395   -1.6996    1.2104 C   0  0  2  0  0  0  0  0  0  0  0  0
   -4.7001   -3.0417   -0.9321 C   0  0  1  0  0  0  0  0  0  0  0  0
    1.8158    1.9665   -1.7148 C   0  0  2  0  0  0  0  0  0  0  0  0
    0.9494    0.4842    1.0014 O   0  0  0  0  0  0  0  0  0  0  0  0
   -5.3054   -3.0806    0.5045 C   0  0  2  0  0  0  0  0  0  0  0  0
    2.7602    2.6152   -3.0533 Cl  0  0  0  0  0  0  0  0  0  0  0  0
   -6.7867   -3.5426    0.4777 C   0  0  0  0  0  0  0  0  0  0  0  0
   -1.2218   -1.0130    0.6372 H   0  0  0  0  0  0  0  0  0  0  0  0
   -3.6490   -0.4231   -0.7951 H   0  0  0  0  0  0  0  0  0  0  0  0
   -3.0691   -1.9156    1.8211 H   0  0  0  0  0  0  0  0  0  0  0  0
   -3.6005   -0.2346    1.6689 H   0  0  0  0  0  0  0  0  0  0  0  0
   -2.8692   -2.4927   -1.9548 H   0  0  0  0  0  0  0  0  0  0  0  0
   -2.6098   -3.2968   -0.4030 H   0  0  0  0  0  0  0  0  0  0  0  0
    2.0176   -0.1251   -2.2588 H   0  0  0  0  0  0  0  0  0  0  0  0
    0.6631    0.6971   -3.0048 H   0  0  0  0  0  0  0  0  0  0  0  0
   -5.7468   -0.9491    0.6960 H   0  0  0  0  0  0  0  0  0  0  0  0
   -5.4926   -1.7656    2.2443 H   0  0  0  0  0  0  0  0  0  0  0  0
   -5.2927   -2.3772   -1.5687 H   0  0  0  0  0  0  0  0  0  0  0  0
   -4.7346   -4.0396   -1.3748 H   0  0  0  0  0  0  0  0  0  0  0  0
    2.4724    1.8835   -0.8489 H   0  0  0  0  0  0  0  0  0  0  0  0
    1.0141    2.6705   -1.4849 H   0  0  0  0  0  0  0  0  0  0  0  0
   -4.7519   -3.8246    1.0873 H   0  0  0  0  0  0  0  0  0  0  0  0
   -7.4002   -2.8447   -0.0932 H   0  0  0  0  0  0  0  0  0  0  0  0
   -6.8639   -4.5292    0.0185 H   0  0  0  0  0  0  0  0  0  0  0  0
   -7.1834   -3.6093    1.4912 H   0  0  0  0  0  0  0  0  0  0  0  0
  1  2  1  0  0  0  0 
  3  1  1  0  0  0  0 
  2  4  1  0  0  0  0 
  2  5  2  0  0  0  0 
  3  6  1  0  0  0  0 
  3  7  1  0  0  0  0 
  4  8  1  0  0  0  0 
  4  9  1  0  0  0  0 
  6 10  1  0  0  0  0 
  7 11  1  0  0  0  0 
  8 12  1  0  0  0  0 
  9 13  2  0  0  0  0 
 14 10  1  0  0  0  0 
 14 11  1  0  0  0  0 
 12 15  1  0  0  0  0 
 14 16  1  0  0  0  0 
 17  1  1  0  0  0  0 
 18  3  1  0  0  0  0 
 19  6  1  0  0  0  0 
 20  6  1  0  0  0  0 
 21  7  1  0  0  0  0 
 22  7  1  0  0  0  0 
 23  8  1  0  0  0  0 
 24  8  1  0  0  0  0 
 25 10  1  0  0  0  0 
 26 10  1  0  0  0  0 
 27 11  1  0  0  0  0 
 28 11  1  0  0  0  0 
 29 12  1  0  0  0  0 
 30 12  1  0  0  0  0 
 14 31  1  0  0  0  0 
 32 16  1  0  0  0  0 
 33 16  1  0  0  0  0 
 34 16  1  0  0  0  0 
M  END
> <cdk:Title>
semustine

> <Conformer>
1

> <SuperDrugID>
SD003723

$$$$
