chlornaphazine
  CDK     0628171802

 32 33  0  0  0  0  0  0  0  0999 V2000
   -1.3456    0.2510  -10.5155 N   0  0  0  0  0  0  0  0  0  0  0  0
   -0.3470    1.1144   -9.9042 C   0  0  2  0  0  0  0  0  0  0  0  0
   -2.5961    0.7829  -11.0284 C   0  0  2  0  0  0  0  0  0  0  0  0
   -1.0647   -1.0920  -10.6352 C   0  0  0  0  0  0  0  0  0  0  0  0
    0.2476    2.1826  -10.8571 C   0  0  1  0  0  0  0  0  0  0  0  0
   -3.6051    1.2012   -9.9308 C   0  0  2  0  0  0  0  0  0  0  0  0
   -0.9561   -1.9026   -9.4825 C   0  0  0  0  0  0  0  0  0  0  0  0
   -0.8252   -1.6676  -11.9015 C   0  0  0  0  0  0  0  0  0  0  0  0
    0.8544    1.4917  -12.3603 Cl  0  0  0  0  0  0  0  0  0  0  0  0
   -4.1736   -0.1769   -8.9928 Cl  0  0  0  0  0  0  0  0  0  0  0  0
   -0.5712   -3.2583   -9.5833 C   0  0  0  0  0  0  0  0  0  0  0  0
   -0.4445   -3.0154  -12.0189 C   0  0  0  0  0  0  0  0  0  0  0  0
   -0.2960   -3.8180  -10.8652 C   0  0  0  0  0  0  0  0  0  0  0  0
   -0.4506   -4.0690   -8.4311 C   0  0  0  0  0  0  0  0  0  0  0  0
    0.1252   -5.1636  -10.9631 C   0  0  0  0  0  0  0  0  0  0  0  0
   -0.0482   -5.4112   -8.5436 C   0  0  0  0  0  0  0  0  0  0  0  0
    0.2484   -5.9555   -9.8065 C   0  0  0  0  0  0  0  0  0  0  0  0
    0.4994    0.5348   -9.5188 H   0  0  0  0  0  0  0  0  0  0  0  0
   -0.7812    1.6198   -9.0387 H   0  0  0  0  0  0  0  0  0  0  0  0
   -3.0990    0.0652  -11.6832 H   0  0  0  0  0  0  0  0  0  0  0  0
   -2.3950    1.6517  -11.6568 H   0  0  0  0  0  0  0  0  0  0  0  0
   -0.5010    2.9389  -11.0935 H   0  0  0  0  0  0  0  0  0  0  0  0
    1.0804    2.6861  -10.3638 H   0  0  0  0  0  0  0  0  0  0  0  0
   -4.4743    1.6684  -10.3989 H   0  0  0  0  0  0  0  0  0  0  0  0
   -3.1592    1.9271   -9.2511 H   0  0  0  0  0  0  0  0  0  0  0  0
   -1.1512   -1.4910   -8.5648 H   0  0  0  0  0  0  0  0  0  0  0  0
   -0.9082   -1.0965  -12.7462 H   0  0  0  0  0  0  0  0  0  0  0  0
   -0.2730   -3.4023  -12.9508 H   0  0  0  0  0  0  0  0  0  0  0  0
   -0.6512   -3.6866   -7.5024 H   0  0  0  0  0  0  0  0  0  0  0  0
    0.3468   -5.5756  -11.8757 H   0  0  0  0  0  0  0  0  0  0  0  0
    0.0339   -5.9918   -7.7059 H   0  0  0  0  0  0  0  0  0  0  0  0
    0.5539   -6.9281   -9.8836 H   0  0  0  0  0  0  0  0  0  0  0  0
  1  2  1  0  0  0  0 
  1  3  1  0  0  0  0 
  1  4  1  0  0  0  0 
  2  5  1  0  0  0  0 
  3  6  1  0  0  0  0 
  4  7  1  0  0  0  0 
  4  8  2  0  0  0  0 
  5  9  1  0  0  0  0 
  6 10  1  0  0  0  0 
  7 11  2  0  0  0  0 
  8 12  1  0  0  0  0 
 11 13  1  0  0  0  0 
 11 14  1  0  0  0  0 
 12 13  2  0  0  0  0 
 13 15  1  0  0  0  0 
 14 16  2  0  0  0  0 
 15 17  2  0  0  0  0 
 16 17  1  0  0  0  0 
  2 18  1  0  0  0  0 
  2 19  1  0  0  0  0 
  3 20  1  0  0  0  0 
  3 21  1  0  0  0  0 
  5 22  1  0  0  0  0 
  5 23  1  0  0  0  0 
  6 24  1  0  0  0  0 
  6 25  1  0  0  0  0 
  7 26  1  0  0  0  0 
  8 27  1  0  0  0  0 
 12 28  1  0  0  0  0 
 14 29  1  0  0  0  0 
 15 30  1  0  0  0  0 
 16 31  1  0  0  0  0 
 17 32  1  0  0  0  0 
M  END
> <cdk:Title>
chlornaphazine

> <Conformer>
1

> <SuperDrugID>
SD000526

$$$$
