mephenytoin
  CDK     0628171801

 30 31  0  0  0  0  0  0  0  0999 V2000
   -0.2375   -2.4545   -0.5872 C   0  0  1  0  0  0  0  0  0  0  0  0
   -0.0639   -2.4873   -2.1257 C   0  0  0  0  0  0  0  0  0  0  0  0
   -0.7705   -1.0959   -0.0172 C   0  0  2  0  0  0  0  0  0  0  0  0
   -1.0413   -1.1815    1.4414 C   0  0  0  0  0  0  0  0  0  0  0  0
   -2.1206   -0.9089   -0.4440 N   0  0  0  0  0  0  0  0  0  0  0  0
    0.1147    0.0819   -0.3431 C   0  0  0  0  0  0  0  0  0  0  0  0
   -0.1628   -1.4181    2.3046 O   0  0  0  0  0  0  0  0  0  0  0  0
   -2.3498   -0.9923    1.7299 N   0  0  0  0  0  0  0  0  0  0  0  0
   -2.9944   -0.8256    0.5634 C   0  0  0  0  0  0  0  0  0  0  0  0
   -0.3381    1.1702   -1.1351 C   0  0  0  0  0  0  0  0  0  0  0  0
    1.4522    0.1321    0.1294 C   0  0  0  0  0  0  0  0  0  0  0  0
   -2.9447   -1.0036    3.0335 C   0  0  0  0  0  0  0  0  0  0  0  0
   -4.2206   -0.6319    0.4042 O   0  0  0  0  0  0  0  0  0  0  0  0
    0.4991    2.2584   -1.4339 C   0  0  0  0  0  0  0  0  0  0  0  0
    2.2953    1.2173   -0.1750 C   0  0  0  0  0  0  0  0  0  0  0  0
    1.8187    2.2813   -0.9584 C   0  0  0  0  0  0  0  0  0  0  0  0
   -0.9287   -3.2586   -0.3115 H   0  0  0  0  0  0  0  0  0  0  0  0
    0.7280   -2.6990   -0.1334 H   0  0  0  0  0  0  0  0  0  0  0  0
    0.2777   -3.4782   -2.4316 H   0  0  0  0  0  0  0  0  0  0  0  0
    0.6781   -1.7536   -2.4465 H   0  0  0  0  0  0  0  0  0  0  0  0
   -1.0108   -2.2741   -2.6270 H   0  0  0  0  0  0  0  0  0  0  0  0
   -2.3777   -0.8310   -1.3764 H   0  0  0  0  0  0  0  0  0  0  0  0
   -1.2869    1.1888   -1.5132 H   0  0  0  0  0  0  0  0  0  0  0  0
    1.8304   -0.6251    0.7025 H   0  0  0  0  0  0  0  0  0  0  0  0
   -3.1244   -2.0356    3.3384 H   0  0  0  0  0  0  0  0  0  0  0  0
   -3.8955   -0.4667    3.0442 H   0  0  0  0  0  0  0  0  0  0  0  0
   -2.2867   -0.5291    3.7640 H   0  0  0  0  0  0  0  0  0  0  0  0
    0.1481    3.0324   -2.0009 H   0  0  0  0  0  0  0  0  0  0  0  0
    3.2555    1.2321    0.1730 H   0  0  0  0  0  0  0  0  0  0  0  0
    2.4286    3.0690   -1.1858 H   0  0  0  0  0  0  0  0  0  0  0  0
  1  2  1  0  0  0  0 
  3  1  1  0  0  0  0 
  3  4  1  0  0  0  0 
  3  5  1  0  0  0  0 
  3  6  1  0  0  0  0 
  4  7  2  0  0  0  0 
  4  8  1  0  0  0  0 
  5  9  1  0  0  0  0 
  6 10  2  0  0  0  0 
  6 11  1  0  0  0  0 
  8  9  1  0  0  0  0 
  8 12  1  0  0  0  0 
  9 13  2  0  0  0  0 
 10 14  1  0  0  0  0 
 11 15  2  0  0  0  0 
 14 16  2  0  0  0  0 
 15 16  1  0  0  0  0 
 17  1  1  0  0  0  0 
 18  1  1  0  0  0  0 
 19  2  1  0  0  0  0 
 20  2  1  0  0  0  0 
 21  2  1  0  0  0  0 
 22  5  1  0  0  0  0 
 23 10  1  0  0  0  0 
 24 11  1  0  0  0  0 
 25 12  1  0  0  0  0 
 26 12  1  0  0  0  0 
 27 12  1  0  0  0  0 
 28 14  1  0  0  0  0 
 29 15  1  0  0  0  0 
 30 16  1  0  0  0  0 
M  END
> <cdk:Title>
mephenytoin

> <Conformer>
1

> <SuperDrugID>
SD001499

$$$$
