salinazid
  CDK     0628171801

 29 30  0  0  0  0  0  0  0  0999 V2000
    0.0598   -0.7159    1.6003 C   0  0  0  0  0  0  0  0  0  0  0  0
   -0.7817   -1.6808    1.5158 N   0  0  0  0  0  0  0  0  0  0  0  0
   -0.3604    0.5993    1.4394 C   0  0  0  0  0  0  0  0  0  0  0  0
   -0.5153   -2.9125    1.6207 N   0  0  0  0  0  0  0  0  0  0  0  0
    0.2814    1.6741    2.1141 C   0  0  0  0  0  0  0  0  0  0  0  0
   -1.4470    0.8963    0.5741 C   0  0  0  0  0  0  0  0  0  0  0  0
   -0.4146   -3.7545    0.5545 C   0  0  0  0  0  0  0  0  0  0  0  0
    1.3359    1.4941    2.9560 O   0  0  0  0  0  0  0  0  0  0  0  0
   -0.1779    2.9953    1.9351 C   0  0  0  0  0  0  0  0  0  0  0  0
   -1.9052    2.2143    0.4139 C   0  0  0  0  0  0  0  0  0  0  0  0
   -0.5340   -3.2915   -0.6064 O   0  0  0  0  0  0  0  0  0  0  0  0
   -0.2209   -5.1499    0.7398 C   0  0  0  0  0  0  0  0  0  0  0  0
   -1.2768    3.2644    1.1009 C   0  0  0  0  0  0  0  0  0  0  0  0
   -0.6956   -6.0818   -0.2170 C   0  0  0  0  0  0  0  0  0  0  0  0
    0.4315   -5.6527    1.8933 C   0  0  0  0  0  0  0  0  0  0  0  0
   -0.5339   -7.4602    0.0103 C   0  0  0  0  0  0  0  0  0  0  0  0
    0.5734   -7.0404    2.0699 C   0  0  0  0  0  0  0  0  0  0  0  0
    0.0893   -7.8924    1.1340 N   0  0  0  0  0  0  0  0  0  0  0  0
    1.0173   -0.9142    1.7897 H   0  0  0  0  0  0  0  0  0  0  0  0
   -0.4246   -3.2752    2.5146 H   0  0  0  0  0  0  0  0  0  0  0  0
   -1.9159    0.1556    0.0421 H   0  0  0  0  0  0  0  0  0  0  0  0
    1.3008    0.5598    3.2477 H   0  0  0  0  0  0  0  0  0  0  0  0
    0.2876    3.7685    2.4139 H   0  0  0  0  0  0  0  0  0  0  0  0
   -2.6945    2.4069   -0.2056 H   0  0  0  0  0  0  0  0  0  0  0  0
   -1.6156    4.2225    0.9890 H   0  0  0  0  0  0  0  0  0  0  0  0
   -1.1710   -5.7717   -1.0694 H   0  0  0  0  0  0  0  0  0  0  0  0
    0.8106   -5.0257    2.6060 H   0  0  0  0  0  0  0  0  0  0  0  0
   -0.8854   -8.1429   -0.6634 H   0  0  0  0  0  0  0  0  0  0  0  0
    1.0387   -7.4147    2.8983 H   0  0  0  0  0  0  0  0  0  0  0  0
  1  2  2  0  0  0  0 
  1  3  1  0  0  0  0 
  2  4  1  0  0  0  0 
  3  5  2  0  0  0  0 
  3  6  1  0  0  0  0 
  4  7  1  0  0  0  0 
  5  8  1  0  0  0  0 
  5  9  1  0  0  0  0 
  6 10  2  0  0  0  0 
  7 11  2  0  0  0  0 
  7 12  1  0  0  0  0 
  9 13  2  0  0  0  0 
 10 13  1  0  0  0  0 
 12 14  2  0  0  0  0 
 12 15  1  0  0  0  0 
 14 16  1  0  0  0  0 
 15 17  2  0  0  0  0 
 16 18  2  0  0  0  0 
 17 18  1  0  0  0  0 
 19  1  1  0  0  0  0 
 20  4  1  0  0  0  0 
 21  6  1  0  0  0  0 
 22  8  1  0  0  0  0 
 23  9  1  0  0  0  0 
 24 10  1  0  0  0  0 
 25 13  1  0  0  0  0 
 26 14  1  0  0  0  0 
 27 15  1  0  0  0  0 
 28 16  1  0  0  0  0 
 29 17  1  0  0  0  0 
M  END
> <cdk:Title>
salinazid

> <Conformer>
1

> <SuperDrugID>
SD002176

$$$$
