mepiprazole
  CDK     0628171802

 42 44  0  0  0  0  0  0  0  0999 V2000
   -1.4123    0.4865   -9.7503 C   0  0  0  0  0  0  0  0  0  0  0  0
   -2.6713    0.2356  -10.3275 C   0  0  0  0  0  0  0  0  0  0  0  0
   -3.7891    0.9898   -9.9345 C   0  0  0  0  0  0  0  0  0  0  0  0
   -3.6431    2.0079   -8.9741 C   0  0  0  0  0  0  0  0  0  0  0  0
   -2.3753    2.2699   -8.4164 C   0  0  0  0  0  0  0  0  0  0  0  0
   -1.2403    1.5027   -8.7789 C   0  0  0  0  0  0  0  0  0  0  0  0
   -0.0109    1.7297   -8.1831 N   0  0  0  0  0  0  0  0  0  0  0  0
    2.2186    0.7398   -8.4468 C   0  0  2  0  0  0  0  0  0  0  0  0
    1.2190    1.8198   -8.9384 C   0  0  1  0  0  0  0  0  0  0  0  0
    0.1170    1.8428   -6.7459 C   0  0  1  0  0  0  0  0  0  0  0  0
    1.1193    0.7854   -6.2176 C   0  0  2  0  0  0  0  0  0  0  0  0
    2.4180    0.8141   -6.9630 N   0  0  1  0  0  0  0  0  0  0  0  0
    3.4207   -0.1549   -6.4026 C   0  0  1  0  0  0  0  0  0  0  0  0
    4.8878    0.0582   -6.8632 C   0  0  1  0  0  0  0  0  0  0  0  0
    5.3095    1.4736   -6.8760 C   0  0  0  0  0  0  0  0  0  0  0  0
    5.7722    2.1482   -7.9415 N   0  0  0  0  0  0  0  0  0  0  0  0
    6.0410    3.3799   -7.6420 N   0  0  0  0  0  0  0  0  0  0  0  0
    5.7619    3.5775   -6.3415 C   0  0  0  0  0  0  0  0  0  0  0  0
    5.3026    2.3744   -5.8195 C   0  0  0  0  0  0  0  0  0  0  0  0
    5.9190    4.8602   -5.6397 C   0  0  0  0  0  0  0  0  0  0  0  0
   -4.9915    2.9064   -8.4858 Cl  0  0  0  0  0  0  0  0  0  0  0  0
   -0.6206   -0.0914  -10.0362 H   0  0  0  0  0  0  0  0  0  0  0  0
   -2.7766   -0.4996  -11.0289 H   0  0  0  0  0  0  0  0  0  0  0  0
   -4.7037    0.7903  -10.3494 H   0  0  0  0  0  0  0  0  0  0  0  0
   -2.2787    3.0253   -7.7341 H   0  0  0  0  0  0  0  0  0  0  0  0
    3.1652    0.9080   -8.9629 H   0  0  0  0  0  0  0  0  0  0  0  0
    1.8493   -0.2507   -8.7284 H   0  0  0  0  0  0  0  0  0  0  0  0
    1.0640    1.7069  -10.0142 H   0  0  0  0  0  0  0  0  0  0  0  0
    1.6632    2.8065   -8.7883 H   0  0  0  0  0  0  0  0  0  0  0  0
    0.4712    2.8456   -6.4891 H   0  0  0  0  0  0  0  0  0  0  0  0
   -0.8344    1.6917   -6.2260 H   0  0  0  0  0  0  0  0  0  0  0  0
    0.6620   -0.2056   -6.2938 H   0  0  0  0  0  0  0  0  0  0  0  0
    1.2931    0.9935   -5.1586 H   0  0  0  0  0  0  0  0  0  0  0  0
    3.4266   -0.0689   -5.3122 H   0  0  0  0  0  0  0  0  0  0  0  0
    3.1266   -1.1827   -6.6393 H   0  0  0  0  0  0  0  0  0  0  0  0
    5.5549   -0.4964   -6.1983 H   0  0  0  0  0  0  0  0  0  0  0  0
    5.0086   -0.3641   -7.8628 H   0  0  0  0  0  0  0  0  0  0  0  0
    5.8876    1.7653   -8.8253 H   0  0  0  0  0  0  0  0  0  0  0  0
    5.0095    2.1937   -4.8591 H   0  0  0  0  0  0  0  0  0  0  0  0
    5.3068    5.6205   -6.1257 H   0  0  0  0  0  0  0  0  0  0  0  0
    6.9631    5.1718   -5.6764 H   0  0  0  0  0  0  0  0  0  0  0  0
    5.6123    4.7809   -4.5961 H   0  0  0  0  0  0  0  0  0  0  0  0
  1  2  2  0  0  0  0 
  1  6  1  0  0  0  0 
  2  3  1  0  0  0  0 
  3  4  2  0  0  0  0 
  4  5  1  0  0  0  0 
  5  6  2  0  0  0  0 
  6  7  1  0  0  0  0 
  8  9  1  0  0  0  0 
 10 11  1  0  0  0  0 
 11 12  1  0  0  0  0 
  8 12  1  0  0  0  0 
  9  7  1  0  0  0  0 
  7 10  1  0  0  0  0 
 12 13  1  0  0  0  0 
 13 14  1  0  0  0  0 
 14 15  1  0  0  0  0 
 16 17  1  0  0  0  0 
 17 18  2  0  0  0  0 
 18 19  1  0  0  0  0 
 15 16  1  0  0  0  0 
 15 19  2  0  0  0  0 
 18 20  1  0  0  0  0 
  4 21  1  0  0  0  0 
 22  1  1  0  0  0  0 
 23  2  1  0  0  0  0 
 24  3  1  0  0  0  0 
 25  5  1  0  0  0  0 
 26  8  1  0  0  0  0 
 27  8  1  0  0  0  0 
 28  9  1  0  0  0  0 
 29  9  1  0  0  0  0 
 30 10  1  0  0  0  0 
 31 10  1  0  0  0  0 
 32 11  1  0  0  0  0 
 33 11  1  0  0  0  0 
 34 13  1  0  0  0  0 
 35 13  1  0  0  0  0 
 36 14  1  0  0  0  0 
 37 14  1  0  0  0  0 
 38 16  1  0  0  0  0 
 39 19  1  0  0  0  0 
 40 20  1  0  0  0  0 
 41 20  1  0  0  0  0 
 42 20  1  0  0  0  0 
M  END
> <cdk:Title>
mepiprazole

> <Conformer>
1

> <SuperDrugID>
SD003907

$$$$
