terbutaline
  CDK     0628171801

 35 35  0  0  0  0  0  0  0  0999 V2000
    0.7929    0.1475    0.4516 C   0  0  1  0  0  0  0  0  0  0  0  0
    0.2050    1.4780    0.9843 C   0  0  2  0  0  0  0  0  0  0  0  0
    1.0371    0.2217   -0.9551 O   0  0  0  0  0  0  0  0  0  0  0  0
    2.0448   -0.2296    1.1709 C   0  0  0  0  0  0  0  0  0  0  0  0
   -1.0999    1.7265    0.3252 N   0  0  1  0  0  0  0  0  0  0  0  0
    2.0170   -1.1655    2.2309 C   0  0  0  0  0  0  0  0  0  0  0  0
    3.2882    0.3417    0.8095 C   0  0  0  0  0  0  0  0  0  0  0  0
   -1.9805    2.8400    0.7823 C   0  0  2  0  0  0  0  0  0  0  0  0
    3.1971   -1.5287    2.9044 C   0  0  0  0  0  0  0  0  0  0  0  0
    4.4784   -0.0466    1.4548 C   0  0  0  0  0  0  0  0  0  0  0  0
   -1.2621    4.2196    0.6832 C   0  0  0  0  0  0  0  0  0  0  0  0
   -2.4934    2.6043    2.2358 C   0  0  0  0  0  0  0  0  0  0  0  0
   -3.1883    2.8040   -0.2048 C   0  0  0  0  0  0  0  0  0  0  0  0
    3.1501   -2.4231    3.9208 O   0  0  0  0  0  0  0  0  0  0  0  0
    4.4292   -0.9717    2.5146 C   0  0  0  0  0  0  0  0  0  0  0  0
    5.6700    0.4498    1.0435 O   0  0  0  0  0  0  0  0  0  0  0  0
    0.0382   -0.6331    0.5870 H   0  0  0  0  0  0  0  0  0  0  0  0
    0.8943    2.2974    0.7692 H   0  0  0  0  0  0  0  0  0  0  0  0
    0.0758    1.4010    2.0661 H   0  0  0  0  0  0  0  0  0  0  0  0
    0.1760    0.4567   -1.3594 H   0  0  0  0  0  0  0  0  0  0  0  0
   -0.9005    1.8967   -0.6633 H   0  0  0  0  0  0  0  0  0  0  0  0
    1.1308   -1.5873    2.5219 H   0  0  0  0  0  0  0  0  0  0  0  0
    3.3363    1.0371    0.0610 H   0  0  0  0  0  0  0  0  0  0  0  0
   -0.8281    4.3534   -0.3094 H   0  0  0  0  0  0  0  0  0  0  0  0
   -0.4592    4.2901    1.4196 H   0  0  0  0  0  0  0  0  0  0  0  0
   -1.9640    5.0355    0.8705 H   0  0  0  0  0  0  0  0  0  0  0  0
   -1.6808    2.7028    2.9571 H   0  0  0  0  0  0  0  0  0  0  0  0
   -3.2604    3.3366    2.4978 H   0  0  0  0  0  0  0  0  0  0  0  0
   -2.9184    1.6036    2.3341 H   0  0  0  0  0  0  0  0  0  0  0  0
   -3.9166    3.5831    0.0308 H   0  0  0  0  0  0  0  0  0  0  0  0
   -2.8506    2.9557   -1.2334 H   0  0  0  0  0  0  0  0  0  0  0  0
   -3.6972    1.8375   -0.1572 H   0  0  0  0  0  0  0  0  0  0  0  0
    3.0846   -1.8761    4.7314 H   0  0  0  0  0  0  0  0  0  0  0  0
    5.2889   -1.2453    2.9944 H   0  0  0  0  0  0  0  0  0  0  0  0
    5.5311    0.6905    0.1025 H   0  0  0  0  0  0  0  0  0  0  0  0
  1  2  1  0  0  0  0 
  1  3  1  0  0  0  0 
  1  4  1  0  0  0  0 
  2  5  1  0  0  0  0 
  4  6  2  0  0  0  0 
  4  7  1  0  0  0  0 
  5  8  1  0  0  0  0 
  6  9  1  0  0  0  0 
  7 10  2  0  0  0  0 
  8 11  1  0  0  0  0 
  8 12  1  0  0  0  0 
  8 13  1  0  0  0  0 
  9 14  1  0  0  0  0 
  9 15  2  0  0  0  0 
 10 15  1  0  0  0  0 
 10 16  1  0  0  0  0 
  1 17  1  0  0  0  0 
  2 18  1  0  0  0  0 
  2 19  1  0  0  0  0 
  3 20  1  0  0  0  0 
  5 21  1  0  0  0  0 
  6 22  1  0  0  0  0 
  7 23  1  0  0  0  0 
 11 24  1  0  0  0  0 
 11 25  1  0  0  0  0 
 11 26  1  0  0  0  0 
 12 27  1  0  0  0  0 
 12 28  1  0  0  0  0 
 12 29  1  0  0  0  0 
 13 30  1  0  0  0  0 
 13 31  1  0  0  0  0 
 13 32  1  0  0  0  0 
 14 33  1  0  0  0  0 
 15 34  1  0  0  0  0 
 16 35  1  0  0  0  0 
M  END
> <cdk:Title>
terbutaline

> <Conformer>
1

> <SuperDrugID>
SD002337

$$$$
