levopropoxyphene
  CDK     0628171801

 54 55  0  0  0  0  0  0  0  0999 V2000
   -0.4435   -4.8404   -0.2465 C   0  0  0  0  0  0  0  0  0  0  0  0
   -1.0875   -6.0093    0.1968 C   0  0  0  0  0  0  0  0  0  0  0  0
   -2.1270   -5.9228    1.1346 C   0  0  0  0  0  0  0  0  0  0  0  0
   -2.5111   -4.6673    1.6301 C   0  0  0  0  0  0  0  0  0  0  0  0
   -1.8666   -3.5016    1.1745 C   0  0  0  0  0  0  0  0  0  0  0  0
   -0.8204   -3.5445    0.2068 C   0  0  0  0  0  0  0  0  0  0  0  0
   -0.1238   -2.2867   -0.3119 C   0  0  2  0  0  0  0  0  0  0  0  0
   -0.5110   -2.0199   -1.8362 C   0  0  2  0  0  0  0  0  0  0  0  0
    1.4230   -2.4431   -0.0003 C   0  0  2  0  0  0  0  0  0  0  0  0
   -0.5926   -1.1732    0.5039 O   0  0  0  0  0  0  0  0  0  0  0  0
    2.3227   -1.2514   -0.0995 C   0  0  0  0  0  0  0  0  0  0  0  0
    2.7774   -0.7667   -1.3514 C   0  0  0  0  0  0  0  0  0  0  0  0
    3.6301    0.3522   -1.4275 C   0  0  0  0  0  0  0  0  0  0  0  0
    4.0503    1.0008   -0.2539 C   0  0  0  0  0  0  0  0  0  0  0  0
    3.6272    0.5242    0.9983 C   0  0  0  0  0  0  0  0  0  0  0  0
    2.7721   -0.5901    1.0728 C   0  0  0  0  0  0  0  0  0  0  0  0
   -0.4066    0.1895    0.4744 C   0  0  0  0  0  0  0  0  0  0  0  0
   -0.9610    1.0057    1.5719 C   0  0  2  0  0  0  0  0  0  0  0  0
    0.2345    0.7632   -0.4365 O   0  0  0  0  0  0  0  0  0  0  0  0
   -1.8194    2.2037    1.1025 C   0  0  0  0  0  0  0  0  0  0  0  0
   -2.0567   -1.8489   -2.0772 C   0  0  1  0  0  0  0  0  0  0  0  0
   -2.6165   -0.5612   -1.5434 N   0  0  1  0  0  0  0  0  0  0  0  0
    0.0375   -3.0230   -2.9032 C   0  0  0  0  0  0  0  0  0  0  0  0
   -2.4847    0.5904   -2.4869 C   0  0  0  0  0  0  0  0  0  0  0  0
   -4.0022   -0.6957   -1.0041 C   0  0  0  0  0  0  0  0  0  0  0  0
    0.3200   -4.9600   -0.9098 H   0  0  0  0  0  0  0  0  0  0  0  0
   -0.7973   -6.9234   -0.1620 H   0  0  0  0  0  0  0  0  0  0  0  0
   -2.5983   -6.7709    1.4587 H   0  0  0  0  0  0  0  0  0  0  0  0
   -3.2626   -4.6023    2.3230 H   0  0  0  0  0  0  0  0  0  0  0  0
   -2.1846   -2.6165    1.5708 H   0  0  0  0  0  0  0  0  0  0  0  0
   -0.0444   -1.0772   -2.1126 H   0  0  0  0  0  0  0  0  0  0  0  0
    1.8575   -3.2235   -0.6233 H   0  0  0  0  0  0  0  0  0  0  0  0
    1.5039   -2.8282    1.0224 H   0  0  0  0  0  0  0  0  0  0  0  0
    2.4977   -1.2271   -2.2176 H   0  0  0  0  0  0  0  0  0  0  0  0
    3.9496    0.6934   -2.3365 H   0  0  0  0  0  0  0  0  0  0  0  0
    4.6620    1.8192   -0.3109 H   0  0  0  0  0  0  0  0  0  0  0  0
    3.9354    0.9905    1.8547 H   0  0  0  0  0  0  0  0  0  0  0  0
    2.4715   -0.9096    1.9965 H   0  0  0  0  0  0  0  0  0  0  0  0
   -0.1249    1.3829    2.1671 H   0  0  0  0  0  0  0  0  0  0  0  0
   -1.5732    0.3768    2.2218 H   0  0  0  0  0  0  0  0  0  0  0  0
   -2.1603    2.7697    1.9710 H   0  0  0  0  0  0  0  0  0  0  0  0
   -1.2418    2.8724    0.4610 H   0  0  0  0  0  0  0  0  0  0  0  0
   -2.6937    1.8515    0.5548 H   0  0  0  0  0  0  0  0  0  0  0  0
   -2.2878   -1.9095   -3.1464 H   0  0  0  0  0  0  0  0  0  0  0  0
   -2.5624   -2.7083   -1.6298 H   0  0  0  0  0  0  0  0  0  0  0  0
   -0.0946   -2.6045   -3.9043 H   0  0  0  0  0  0  0  0  0  0  0  0
   -0.4956   -3.9741   -2.8784 H   0  0  0  0  0  0  0  0  0  0  0  0
    1.1018   -3.2102   -2.7784 H   0  0  0  0  0  0  0  0  0  0  0  0
   -3.1452    0.4685   -3.3481 H   0  0  0  0  0  0  0  0  0  0  0  0
   -1.4616    0.6852   -2.8504 H   0  0  0  0  0  0  0  0  0  0  0  0
   -2.7378    1.5237   -1.9819 H   0  0  0  0  0  0  0  0  0  0  0  0
   -4.6854   -1.0832   -1.7650 H   0  0  0  0  0  0  0  0  0  0  0  0
   -4.3832    0.2640   -0.6507 H   0  0  0  0  0  0  0  0  0  0  0  0
   -4.0024   -1.3791   -0.1531 H   0  0  0  0  0  0  0  0  0  0  0  0
  1  2  2  0  0  0  0 
  1  6  1  0  0  0  0 
  2  3  1  0  0  0  0 
  3  4  2  0  0  0  0 
  4  5  1  0  0  0  0 
  5  6  2  0  0  0  0 
  7  6  1  0  0  0  0 
  7  8  1  0  0  0  0 
  7  9  1  0  0  0  0 
  7 10  1  0  0  0  0 
  9 11  1  0  0  0  0 
 12 13  1  0  0  0  0 
 13 14  2  0  0  0  0 
 14 15  1  0  0  0  0 
 15 16  2  0  0  0  0 
 11 12  2  0  0  0  0 
 11 16  1  0  0  0  0 
 10 17  1  0  0  0  0 
 17 18  1  0  0  0  0 
 17 19  2  0  0  0  0 
 18 20  1  0  0  0  0 
  8 21  1  0  0  0  0 
 21 22  1  0  0  0  0 
  8 23  1  0  0  0  0 
 22 24  1  0  0  0  0 
 22 25  1  0  0  0  0 
  1 26  1  0  0  0  0 
  2 27  1  0  0  0  0 
  3 28  1  0  0  0  0 
  4 29  1  0  0  0  0 
  5 30  1  0  0  0  0 
  8 31  1  0  0  0  0 
  9 32  1  0  0  0  0 
  9 33  1  0  0  0  0 
 12 34  1  0  0  0  0 
 13 35  1  0  0  0  0 
 14 36  1  0  0  0  0 
 15 37  1  0  0  0  0 
 16 38  1  0  0  0  0 
 18 39  1  0  0  0  0 
 18 40  1  0  0  0  0 
 20 41  1  0  0  0  0 
 20 42  1  0  0  0  0 
 20 43  1  0  0  0  0 
 21 44  1  0  0  0  0 
 21 45  1  0  0  0  0 
 23 46  1  0  0  0  0 
 23 47  1  0  0  0  0 
 23 48  1  0  0  0  0 
 24 49  1  0  0  0  0 
 24 50  1  0  0  0  0 
 24 51  1  0  0  0  0 
 25 52  1  0  0  0  0 
 25 53  1  0  0  0  0 
 25 54  1  0  0  0  0 
M  END
> <cdk:Title>
levopropoxyphene

> <Conformer>
1

> <SuperDrugID>
SD001388

$$$$
