nitroxazepine
  CDK     0628171801

 44 46  0  0  0  0  0  0  0  0999 V2000
   -0.1799   -2.6169    0.6024 C   0  0  2  0  0  0  0  0  0  0  0  0
    0.0478   -1.3220    1.4319 C   0  0  2  0  0  0  0  0  0  0  0  0
   -0.6412   -3.7904    1.3338 N   0  0  0  0  0  0  0  0  0  0  0  0
    0.4943   -0.1281    0.5369 C   0  0  1  0  0  0  0  0  0  0  0  0
   -1.9283   -4.2433    1.0846 C   0  0  0  0  0  0  0  0  0  0  0  0
    0.2313   -4.5002    2.1671 C   0  0  0  0  0  0  0  0  0  0  0  0
    1.6577   -0.4396   -0.3599 N   0  0  1  0  0  0  0  0  0  0  0  0
   -2.1343   -5.5695    0.6275 C   0  0  0  0  0  0  0  0  0  0  0  0
   -3.0630   -3.4166    1.2689 C   0  0  0  0  0  0  0  0  0  0  0  0
    1.3170   -3.9747    2.5134 O   0  0  0  0  0  0  0  0  0  0  0  0
    0.0258   -5.8471    2.6080 C   0  0  0  0  0  0  0  0  0  0  0  0
    1.8069    0.4968   -1.5106 C   0  0  0  0  0  0  0  0  0  0  0  0
    2.9414   -0.6717    0.3628 C   0  0  0  0  0  0  0  0  0  0  0  0
   -1.0737   -6.4184    0.4997 O   0  0  0  0  0  0  0  0  0  0  0  0
   -3.4253   -6.0347    0.3083 C   0  0  0  0  0  0  0  0  0  0  0  0
   -4.3574   -3.8934    0.9847 C   0  0  0  0  0  0  0  0  0  0  0  0
   -0.6160   -6.7744    1.7436 C   0  0  0  0  0  0  0  0  0  0  0  0
    0.4834   -6.3090    3.8707 C   0  0  0  0  0  0  0  0  0  0  0  0
   -4.5383   -5.1974    0.4919 C   0  0  0  0  0  0  0  0  0  0  0  0
   -0.7852   -8.1130    2.1356 C   0  0  0  0  0  0  0  0  0  0  0  0
    0.3068   -7.6555    4.2912 C   0  0  0  0  0  0  0  0  0  0  0  0
   -0.3312   -8.5449    3.3904 C   0  0  0  0  0  0  0  0  0  0  0  0
    0.7182   -8.0769    5.5027 N   0  0  0  0  0  0  0  0  0  0  0  0
    0.7633   -9.2059    5.8060 O   0  0  0  0  0  0  0  0  0  0  0  0
    1.0731   -7.2731    6.4215 O   0  0  0  0  0  0  0  0  0  0  0  0
    0.7591   -2.8870    0.1088 H   0  0  0  0  0  0  0  0  0  0  0  0
   -0.8742   -2.3621   -0.2086 H   0  0  0  0  0  0  0  0  0  0  0  0
    0.7882   -1.4855    2.2169 H   0  0  0  0  0  0  0  0  0  0  0  0
   -0.8866   -1.0519    1.9252 H   0  0  0  0  0  0  0  0  0  0  0  0
   -0.3725    0.1509   -0.0717 H   0  0  0  0  0  0  0  0  0  0  0  0
    0.7261    0.7349    1.1684 H   0  0  0  0  0  0  0  0  0  0  0  0
   -2.9607   -2.4626    1.6178 H   0  0  0  0  0  0  0  0  0  0  0  0
    2.5896    0.1474   -2.1875 H   0  0  0  0  0  0  0  0  0  0  0  0
    0.8815    0.5414   -2.0879 H   0  0  0  0  0  0  0  0  0  0  0  0
    2.0605    1.5023   -1.1698 H   0  0  0  0  0  0  0  0  0  0  0  0
    2.8556   -1.5293    1.0290 H   0  0  0  0  0  0  0  0  0  0  0  0
    3.7452   -0.9032   -0.3380 H   0  0  0  0  0  0  0  0  0  0  0  0
    3.2253    0.2036    0.9506 H   0  0  0  0  0  0  0  0  0  0  0  0
   -3.5522   -6.9856   -0.0480 H   0  0  0  0  0  0  0  0  0  0  0  0
   -5.1725   -3.2939    1.1342 H   0  0  0  0  0  0  0  0  0  0  0  0
    0.9545   -5.6509    4.4996 H   0  0  0  0  0  0  0  0  0  0  0  0
   -5.4762   -5.5382    0.2681 H   0  0  0  0  0  0  0  0  0  0  0  0
   -1.2468   -8.7776    1.5099 H   0  0  0  0  0  0  0  0  0  0  0  0
   -0.4777   -9.5267    3.6433 H   0  0  0  0  0  0  0  0  0  0  0  0
  1  2  1  0  0  0  0 
  1  3  1  0  0  0  0 
  2  4  1  0  0  0  0 
  3  5  1  0  0  0  0 
  3  6  1  0  0  0  0 
  4  7  1  0  0  0  0 
  5  8  2  0  0  0  0 
  5  9  1  0  0  0  0 
  6 10  2  0  0  0  0 
  6 11  1  0  0  0  0 
  7 12  1  0  0  0  0 
  7 13  1  0  0  0  0 
  8 14  1  0  0  0  0 
  8 15  1  0  0  0  0 
  9 16  2  0  0  0  0 
 11 17  2  0  0  0  0 
 11 18  1  0  0  0  0 
 14 17  1  0  0  0  0 
 15 19  2  0  0  0  0 
 16 19  1  0  0  0  0 
 17 20  1  0  0  0  0 
 18 21  2  0  0  0  0 
 20 22  2  0  0  0  0 
 21 22  1  0  0  0  0 
 21 23  1  0  0  0  0 
 23 24  2  0  0  0  0 
 23 25  1  0  0  0  0 
  1 26  1  0  0  0  0 
  1 27  1  0  0  0  0 
  2 28  1  0  0  0  0 
  2 29  1  0  0  0  0 
  4 30  1  0  0  0  0 
  4 31  1  0  0  0  0 
  9 32  1  0  0  0  0 
 12 33  1  0  0  0  0 
 12 34  1  0  0  0  0 
 12 35  1  0  0  0  0 
 13 36  1  0  0  0  0 
 13 37  1  0  0  0  0 
 13 38  1  0  0  0  0 
 15 39  1  0  0  0  0 
 16 40  1  0  0  0  0 
 18 41  1  0  0  0  0 
 19 42  1  0  0  0  0 
 20 43  1  0  0  0  0 
 22 44  1  0  0  0  0 
M  CHG  1  23   1
M  CHG  1  25  -1
M  END
> <cdk:Title>
nitroxazepine

> <Conformer>
1

> <SuperDrugID>
SD003324

$$$$
