oxymetholone
  CDK     0628171801

 56 59  0  0  0  0  0  0  0  0999 V2000
   -2.2283   -0.4301   -1.4491 C   0  0  0  0  0  0  0  0  0  0  0  0
   -2.2018   -1.1721   -0.0582 C   0  0  1  0  0  0  0  0  0  0  0  0
   -3.5527   -0.9467    0.7559 C   0  0  2  0  0  0  0  0  0  0  0  0
   -1.9855   -2.7277   -0.2137 C   0  0  1  0  0  0  0  0  0  0  0  0
   -0.9469   -0.6572    0.7469 C   0  0  1  0  0  0  0  0  0  0  0  0
   -4.7913   -1.6506    0.0687 C   0  0  2  0  0  0  0  0  0  0  0  0
   -3.8504    0.5374    1.1794 C   0  0  1  0  0  0  0  0  0  0  0  0
   -3.1919   -3.4570   -0.8753 C   0  0  1  0  0  0  0  0  0  0  0  0
   -0.6348   -3.0627   -0.9154 C   0  0  2  0  0  0  0  0  0  0  0  0
    0.3746   -1.1269    0.2851 C   0  0  0  0  0  0  0  0  0  0  0  0
   -6.0960   -1.3967    0.8976 C   0  0  1  0  0  0  0  0  0  0  0  0
   -4.5139   -3.1759   -0.1178 C   0  0  1  0  0  0  0  0  0  0  0  0
   -5.2033    0.7092    1.9364 C   0  0  1  0  0  0  0  0  0  0  0  0
    0.4913   -2.2393   -0.4822 C   0  0  0  0  0  0  0  0  0  0  0  0
    1.5125   -0.4096    0.6782 C   0  0  0  0  0  0  0  0  0  0  0  0
   -6.4181    0.1157    1.1382 C   0  0  1  0  0  0  0  0  0  0  0  0
   -7.4330   -1.9835    0.3947 C   0  0  2  0  0  0  0  0  0  0  0  0
    1.6871   -2.6702   -0.8863 O   0  0  0  0  0  0  0  0  0  0  0  0
    1.4798    0.4847    1.5556 O   0  0  0  0  0  0  0  0  0  0  0  0
   -6.6147    0.9626   -0.1846 C   0  0  0  0  0  0  0  0  0  0  0  0
   -7.8116    0.0140    1.8813 C   0  0  1  0  0  0  0  0  0  0  0  0
   -8.5229   -1.1712    1.1429 C   0  0  1  0  0  0  0  0  0  0  0  0
   -7.7563   -0.2221    3.4240 C   0  0  0  0  0  0  0  0  0  0  0  0
   -8.5887    1.2114    1.7352 O   0  0  0  0  0  0  0  0  0  0  0  0
   -3.0443   -0.7717   -2.0819 H   0  0  0  0  0  0  0  0  0  0  0  0
   -2.3340    0.6466   -1.3176 H   0  0  0  0  0  0  0  0  0  0  0  0
   -1.3062   -0.5857   -2.0096 H   0  0  0  0  0  0  0  0  0  0  0  0
   -3.4197   -1.4628    1.7136 H   0  0  0  0  0  0  0  0  0  0  0  0
   -1.9018   -3.1572    0.7935 H   0  0  0  0  0  0  0  0  0  0  0  0
   -0.9640    0.4362    0.7313 H   0  0  0  0  0  0  0  0  0  0  0  0
   -1.0364   -0.9541    1.7963 H   0  0  0  0  0  0  0  0  0  0  0  0
   -4.9488   -1.2356   -0.9254 H   0  0  0  0  0  0  0  0  0  0  0  0
   -3.0613    0.8941    1.8446 H   0  0  0  0  0  0  0  0  0  0  0  0
   -3.8423    1.1943    0.3120 H   0  0  0  0  0  0  0  0  0  0  0  0
   -3.2978   -3.1464   -1.9162 H   0  0  0  0  0  0  0  0  0  0  0  0
   -3.0126   -4.5363   -0.8736 H   0  0  0  0  0  0  0  0  0  0  0  0
   -0.7375   -2.9508   -1.9983 H   0  0  0  0  0  0  0  0  0  0  0  0
   -0.3963   -4.1132   -0.7203 H   0  0  0  0  0  0  0  0  0  0  0  0
   -5.9125   -1.8811    1.8652 H   0  0  0  0  0  0  0  0  0  0  0  0
   -4.4647   -3.6638    0.8605 H   0  0  0  0  0  0  0  0  0  0  0  0
   -5.3327   -3.6359   -0.6773 H   0  0  0  0  0  0  0  0  0  0  0  0
   -5.0959    0.2077    2.9014 H   0  0  0  0  0  0  0  0  0  0  0  0
   -5.3763    1.7677    2.1468 H   0  0  0  0  0  0  0  0  0  0  0  0
    2.4261   -0.5922    0.2533 H   0  0  0  0  0  0  0  0  0  0  0  0
   -7.5118   -3.0513    0.6216 H   0  0  0  0  0  0  0  0  0  0  0  0
   -7.5253   -1.8511   -0.6870 H   0  0  0  0  0  0  0  0  0  0  0  0
    1.5887   -2.8488   -1.8465 H   0  0  0  0  0  0  0  0  0  0  0  0
   -5.7667    0.9050   -0.8636 H   0  0  0  0  0  0  0  0  0  0  0  0
   -6.7532    2.0161    0.0672 H   0  0  0  0  0  0  0  0  0  0  0  0
   -7.4946    0.6487   -0.7480 H   0  0  0  0  0  0  0  0  0  0  0  0
   -9.2502   -0.7954    0.4166 H   0  0  0  0  0  0  0  0  0  0  0  0
   -9.0673   -1.8194    1.8353 H   0  0  0  0  0  0  0  0  0  0  0  0
   -7.2021   -1.1260    3.6758 H   0  0  0  0  0  0  0  0  0  0  0  0
   -8.7667   -0.3233    3.8272 H   0  0  0  0  0  0  0  0  0  0  0  0
   -7.2873    0.6272    3.9227 H   0  0  0  0  0  0  0  0  0  0  0  0
   -9.4548    1.0181    2.1521 H   0  0  0  0  0  0  0  0  0  0  0  0
  2  1  1  0  0  0  0 
  2  3  1  0  0  0  0 
  2  4  1  0  0  0  0 
  2  5  1  0  0  0  0 
  3  6  1  0  0  0  0 
  3  7  1  0  0  0  0 
  4  8  1  0  0  0  0 
  4  9  1  0  0  0  0 
  5 10  1  0  0  0  0 
  6 11  1  0  0  0  0 
  6 12  1  0  0  0  0 
  7 13  1  0  0  0  0 
  8 12  1  0  0  0  0 
  9 14  1  0  0  0  0 
 10 14  2  0  0  0  0 
 10 15  1  0  0  0  0 
 11 16  1  0  0  0  0 
 11 17  1  0  0  0  0 
 16 13  1  0  0  0  0 
 14 18  1  0  0  0  0 
 15 19  2  0  0  0  0 
 16 20  1  0  0  0  0 
 16 21  1  0  0  0  0 
 17 22  1  0  0  0  0 
 21 22  1  0  0  0  0 
 21 23  1  0  0  0  0 
 21 24  1  0  0  0  0 
 25  1  1  0  0  0  0 
 26  1  1  0  0  0  0 
 27  1  1  0  0  0  0 
  3 28  1  0  0  0  0 
  4 29  1  0  0  0  0 
 30  5  1  0  0  0  0 
 31  5  1  0  0  0  0 
  6 32  1  0  0  0  0 
 33  7  1  0  0  0  0 
 34  7  1  0  0  0  0 
 35  8  1  0  0  0  0 
 36  8  1  0  0  0  0 
 37  9  1  0  0  0  0 
 38  9  1  0  0  0  0 
 11 39  1  0  0  0  0 
 40 12  1  0  0  0  0 
 41 12  1  0  0  0  0 
 42 13  1  0  0  0  0 
 43 13  1  0  0  0  0 
 44 15  1  0  0  0  0 
 45 17  1  0  0  0  0 
 46 17  1  0  0  0  0 
 47 18  1  0  0  0  0 
 48 20  1  0  0  0  0 
 49 20  1  0  0  0  0 
 50 20  1  0  0  0  0 
 51 22  1  0  0  0  0 
 52 22  1  0  0  0  0 
 53 23  1  0  0  0  0 
 54 23  1  0  0  0  0 
 55 23  1  0  0  0  0 
 56 24  1  0  0  0  0 
M  END
> <cdk:Title>
oxymetholone

> <Conformer>
1

> <SuperDrugID>
SD001820

$$$$
