panipenem
  CDK     0628171801

 44 46  0  0  0  0  0  0  0  0999 V2000
    1.7702   -9.8387   -4.8047 C   0  0  1  0  0  0  0  0  0  0  0  0
    2.2595  -11.3053   -4.7600 C   0  0  0  0  0  0  0  0  0  0  0  0
    0.6157   -9.7609   -5.6402 O   0  0  0  0  0  0  0  0  0  0  0  0
    1.3746   -9.2885   -3.4077 C   0  0  2  0  0  0  0  0  0  0  0  0
    1.0400   -7.7550   -3.3630 C   0  0  2  0  0  0  0  0  0  0  0  0
    2.4668   -8.9571   -2.4815 C   0  0  0  0  0  0  0  0  0  0  0  0
    2.0428   -7.7013   -2.3900 N   0  0  0  0  0  0  0  0  0  0  0  0
   -0.0314   -7.0566   -2.4946 C   0  0  2  0  0  0  0  0  0  0  0  0
    3.2983   -9.6462   -1.8478 O   0  0  0  0  0  0  0  0  0  0  0  0
    2.0365   -6.7374   -1.5026 C   0  0  0  0  0  0  0  0  0  0  0  0
    0.7636   -6.3107   -1.5259 C   0  0  0  0  0  0  0  0  0  0  0  0
    3.1027   -6.3450   -0.7129 C   0  0  0  0  0  0  0  0  0  0  0  0
    0.0572   -5.0914   -0.5223 S   0  0  0  0  0  0  0  0  0  0  0  0
    2.9641   -5.4705    0.3100 O   0  0  0  0  0  0  0  0  0  0  0  0
    4.2505   -6.7981   -0.9264 O   0  0  0  0  0  0  0  0  0  0  0  0
    0.3306   -3.4916   -1.3762 C   0  0  2  0  0  0  0  0  0  0  0  0
   -0.2195   -2.2945   -0.5665 C   0  0  2  0  0  0  0  0  0  0  0  0
   -0.3976   -3.3786   -2.7241 C   0  0  1  0  0  0  0  0  0  0  0  0
   -0.8106   -1.3798   -1.5052 N   0  0  0  0  0  0  0  0  0  0  0  0
   -0.7734   -1.8926   -2.8409 C   0  0  1  0  0  0  0  0  0  0  0  0
   -1.3232   -0.1688   -1.1454 C   0  0  0  0  0  0  0  0  0  0  0  0
   -1.9488    0.7881   -2.0514 C   0  0  0  0  0  0  0  0  0  0  0  0
   -1.2730    0.2047    0.0821 N   0  0  0  0  0  0  0  0  0  0  0  0
    2.5569   -9.2208   -5.2486 H   0  0  0  0  0  0  0  0  0  0  0  0
    3.1926  -11.3811   -4.1993 H   0  0  0  0  0  0  0  0  0  0  0  0
    2.4383  -11.6676   -5.7745 H   0  0  0  0  0  0  0  0  0  0  0  0
    1.5107  -11.9461   -4.2911 H   0  0  0  0  0  0  0  0  0  0  0  0
    0.8911  -10.1410   -6.5007 H   0  0  0  0  0  0  0  0  0  0  0  0
    0.6041   -9.8941   -2.9198 H   0  0  0  0  0  0  0  0  0  0  0  0
    1.3414   -7.1822   -4.2480 H   0  0  0  0  0  0  0  0  0  0  0  0
   -0.6800   -7.7791   -1.9922 H   0  0  0  0  0  0  0  0  0  0  0  0
   -0.6372   -6.3952   -3.1159 H   0  0  0  0  0  0  0  0  0  0  0  0
    3.7399   -5.2084    0.8487 H   0  0  0  0  0  0  0  0  0  0  0  0
    1.4055   -3.3552   -1.5357 H   0  0  0  0  0  0  0  0  0  0  0  0
    0.5977   -1.8154   -0.0173 H   0  0  0  0  0  0  0  0  0  0  0  0
   -0.9845   -2.6159    0.1475 H   0  0  0  0  0  0  0  0  0  0  0  0
    0.2430   -3.6945   -3.5521 H   0  0  0  0  0  0  0  0  0  0  0  0
   -1.3101   -3.9827   -2.7235 H   0  0  0  0  0  0  0  0  0  0  0  0
   -0.0183   -1.3503   -3.4161 H   0  0  0  0  0  0  0  0  0  0  0  0
   -1.7431   -1.8168   -3.3397 H   0  0  0  0  0  0  0  0  0  0  0  0
   -1.9435    0.4736   -3.0931 H   0  0  0  0  0  0  0  0  0  0  0  0
   -1.4290    1.7477   -2.0011 H   0  0  0  0  0  0  0  0  0  0  0  0
   -2.9895    0.9420   -1.7586 H   0  0  0  0  0  0  0  0  0  0  0  0
   -1.6179    1.0336    0.3518 H   0  0  0  0  0  0  0  0  0  0  0  0
  1  2  1  0  0  0  0 
  1  3  1  0  0  0  0 
  4  1  1  0  0  0  0 
  4  5  1  0  0  0  0 
  4  6  1  0  0  0  0 
  5  7  1  0  0  0  0 
  5  8  1  0  0  0  0 
  6  7  1  0  0  0  0 
  6  9  2  0  0  0  0 
  7 10  1  0  0  0  0 
  8 11  1  0  0  0  0 
 10 11  2  0  0  0  0 
 10 12  1  0  0  0  0 
 11 13  1  0  0  0  0 
 12 14  1  0  0  0  0 
 12 15  2  0  0  0  0 
 16 13  1  0  0  0  0 
 16 17  1  0  0  0  0 
 16 18  1  0  0  0  0 
 17 19  1  0  0  0  0 
 18 20  1  0  0  0  0 
 19 20  1  0  0  0  0 
 19 21  1  0  0  0  0 
 21 22  1  0  0  0  0 
 21 23  2  0  0  0  0 
  1 24  1  0  0  0  0 
 25  2  1  0  0  0  0 
 26  2  1  0  0  0  0 
 27  2  1  0  0  0  0 
 28  3  1  0  0  0  0 
  4 29  1  0  0  0  0 
  5 30  1  0  0  0  0 
 31  8  1  0  0  0  0 
 32  8  1  0  0  0  0 
 33 14  1  0  0  0  0 
 16 34  1  0  0  0  0 
 35 17  1  0  0  0  0 
 36 17  1  0  0  0  0 
 37 18  1  0  0  0  0 
 38 18  1  0  0  0  0 
 39 20  1  0  0  0  0 
 40 20  1  0  0  0  0 
 41 22  1  0  0  0  0 
 42 22  1  0  0  0  0 
 43 22  1  0  0  0  0 
 44 23  1  0  0  0  0 
M  END
> <cdk:Title>
panipenem

> <Conformer>
1

> <SuperDrugID>
SD001840

$$$$
