clopamide
  CDK     0628171802

 42 43  0  0  0  0  0  0  0  0999 V2000
   -1.9471    2.3040    2.8899 C   0  0  0  0  0  0  0  0  0  0  0  0
   -3.1109    2.6252    3.5177 N   0  0  0  0  0  0  0  0  0  0  0  0
   -1.1230    3.1978    2.5816 O   0  0  0  0  0  0  0  0  0  0  0  0
   -1.6648    0.9668    2.5290 C   0  0  0  0  0  0  0  0  0  0  0  0
   -3.4445    3.9129    3.8458 N   0  0  1  0  0  0  0  0  0  0  0  0
   -1.3153    0.6410    1.1965 C   0  0  0  0  0  0  0  0  0  0  0  0
   -1.7095   -0.0678    3.4889 C   0  0  0  0  0  0  0  0  0  0  0  0
   -4.3663    4.5757    2.8642 C   0  0  1  0  0  0  0  0  0  0  0  0
   -3.8805    4.0958    5.2716 C   0  0  2  0  0  0  0  0  0  0  0  0
   -1.0076   -0.6857    0.8168 C   0  0  0  0  0  0  0  0  0  0  0  0
   -1.3807   -1.3878    3.1304 C   0  0  0  0  0  0  0  0  0  0  0  0
   -3.8482    4.5484    1.4010 C   0  0  0  0  0  0  0  0  0  0  0  0
   -5.8074    3.9994    2.9957 C   0  0  2  0  0  0  0  0  0  0  0  0
   -2.8711    3.4980    6.2854 C   0  0  0  0  0  0  0  0  0  0  0  0
   -5.3248    3.5452    5.4847 C   0  0  1  0  0  0  0  0  0  0  0  0
   -0.6030   -1.0165   -0.8823 S   0  0  1  0  0  0  0  0  0  0  0  0
   -1.0269   -1.7043    1.8029 C   0  0  0  0  0  0  0  0  0  0  0  0
   -6.3219    4.1389    4.4527 C   0  0  1  0  0  0  0  0  0  0  0  0
    1.1132   -1.3600   -1.0203 N   0  0  2  0  0  0  0  0  0  0  0  0
   -1.4031   -2.2933   -1.4313 O   0  0  0  0  0  0  0  0  0  0  0  0
   -0.9340    0.2348   -1.8296 O   0  0  0  0  0  0  0  0  0  0  0  0
   -0.6216   -3.3196    1.4669 Cl  0  0  0  0  0  0  0  0  0  0  0  0
   -3.7399    1.9152    3.7230 H   0  0  0  0  0  0  0  0  0  0  0  0
   -1.2892    1.3840    0.4935 H   0  0  0  0  0  0  0  0  0  0  0  0
   -1.9652    0.1324    4.4608 H   0  0  0  0  0  0  0  0  0  0  0  0
   -4.4078    5.6381    3.1265 H   0  0  0  0  0  0  0  0  0  0  0  0
   -3.9040    5.1727    5.4748 H   0  0  0  0  0  0  0  0  0  0  0  0
   -1.3968   -2.1157    3.8506 H   0  0  0  0  0  0  0  0  0  0  0  0
   -4.5124    5.1314    0.7591 H   0  0  0  0  0  0  0  0  0  0  0  0
   -3.7979    3.5269    1.0185 H   0  0  0  0  0  0  0  0  0  0  0  0
   -2.8486    4.9878    1.3524 H   0  0  0  0  0  0  0  0  0  0  0  0
   -5.8147    2.9434    2.7059 H   0  0  0  0  0  0  0  0  0  0  0  0
   -6.4846    4.5401    2.3285 H   0  0  0  0  0  0  0  0  0  0  0  0
   -2.8306    2.4109    6.1945 H   0  0  0  0  0  0  0  0  0  0  0  0
   -1.8745    3.9038    6.0979 H   0  0  0  0  0  0  0  0  0  0  0  0
   -3.1614    3.7513    7.3073 H   0  0  0  0  0  0  0  0  0  0  0  0
   -5.3190    2.4558    5.3874 H   0  0  0  0  0  0  0  0  0  0  0  0
   -5.6727    3.7922    6.4913 H   0  0  0  0  0  0  0  0  0  0  0  0
   -6.4821    5.1985    4.6757 H   0  0  0  0  0  0  0  0  0  0  0  0
   -7.2866    3.6316    4.5447 H   0  0  0  0  0  0  0  0  0  0  0  0
    1.2881   -1.5802   -2.0047 H   0  0  0  0  0  0  0  0  0  0  0  0
    1.2802   -2.2180   -0.4897 H   0  0  0  0  0  0  0  0  0  0  0  0
  1  2  1  0  0  0  0 
  1  3  2  0  0  0  0 
  1  4  1  0  0  0  0 
  2  5  1  0  0  0  0 
  4  6  2  0  0  0  0 
  4  7  1  0  0  0  0 
  8  5  1  0  0  0  0 
  9  5  1  0  0  0  0 
  6 10  1  0  0  0  0 
  7 11  2  0  0  0  0 
  8 12  1  0  0  0  0 
  8 13  1  0  0  0  0 
  9 14  1  0  0  0  0 
  9 15  1  0  0  0  0 
 10 16  1  0  0  0  0 
 10 17  2  0  0  0  0 
 11 17  1  0  0  0  0 
 13 18  1  0  0  0  0 
 15 18  1  0  0  0  0 
 16 19  1  0  0  0  0 
 16 20  2  0  0  0  0 
 16 21  2  0  0  0  0 
 17 22  1  0  0  0  0 
  2 23  1  0  0  0  0 
  6 24  1  0  0  0  0 
  7 25  1  0  0  0  0 
  8 26  1  0  0  0  0 
  9 27  1  0  0  0  0 
 11 28  1  0  0  0  0 
 12 29  1  0  0  0  0 
 12 30  1  0  0  0  0 
 12 31  1  0  0  0  0 
 13 32  1  0  0  0  0 
 13 33  1  0  0  0  0 
 14 34  1  0  0  0  0 
 14 35  1  0  0  0  0 
 14 36  1  0  0  0  0 
 15 37  1  0  0  0  0 
 15 38  1  0  0  0  0 
 18 39  1  0  0  0  0 
 18 40  1  0  0  0  0 
 19 41  1  0  0  0  0 
 19 42  1  0  0  0  0 
M  END
> <cdk:Title>
clopamide

> <Conformer>
1

> <SuperDrugID>
SD000623

$$$$
