azelaic acid
  CDK     0628171801

 29 28  0  0  0  0  0  0  0  0999 V2000
   -1.9392   -8.5618    1.8630 C   0  0  1  0  0  0  0  0  0  0  0  0
   -3.4724   -8.5007    1.6315 C   0  0  2  0  0  0  0  0  0  0  0  0
   -1.3460   -7.2042    2.3267 C   0  0  1  0  0  0  0  0  0  0  0  0
   -4.0193   -9.7944    1.1763 C   0  0  0  0  0  0  0  0  0  0  0  0
    0.1861   -7.2751    2.5694 C   0  0  1  0  0  0  0  0  0  0  0  0
   -4.5816   -9.9123   -0.0493 O   0  0  0  0  0  0  0  0  0  0  0  0
   -3.9743  -10.8039    1.9158 O   0  0  0  0  0  0  0  0  0  0  0  0
    0.7800   -5.9192    3.0384 C   0  0  1  0  0  0  0  0  0  0  0  0
    2.3108   -5.9930    3.2859 C   0  0  1  0  0  0  0  0  0  0  0  0
    2.9079   -4.6442    3.7677 C   0  0  1  0  0  0  0  0  0  0  0  0
    4.3662   -4.7259    3.9838 C   0  0  0  0  0  0  0  0  0  0  0  0
    5.2170   -3.9897    3.2313 O   0  0  0  0  0  0  0  0  0  0  0  0
    4.8412   -5.4756    4.8672 O   0  0  0  0  0  0  0  0  0  0  0  0
   -1.7217   -9.3182    2.6217 H   0  0  0  0  0  0  0  0  0  0  0  0
   -1.4521   -8.8608    0.9306 H   0  0  0  0  0  0  0  0  0  0  0  0
   -3.6913   -7.7328    0.8833 H   0  0  0  0  0  0  0  0  0  0  0  0
   -3.9750   -8.2200    2.5601 H   0  0  0  0  0  0  0  0  0  0  0  0
   -1.5496   -6.4481    1.5643 H   0  0  0  0  0  0  0  0  0  0  0  0
   -1.8371   -6.8963    3.2533 H   0  0  0  0  0  0  0  0  0  0  0  0
    0.3900   -8.0341    3.3305 H   0  0  0  0  0  0  0  0  0  0  0  0
    0.6809   -7.5805    1.6429 H   0  0  0  0  0  0  0  0  0  0  0  0
   -4.9328  -10.7763   -0.3501 H   0  0  0  0  0  0  0  0  0  0  0  0
    0.5788   -5.1616    2.2769 H   0  0  0  0  0  0  0  0  0  0  0  0
    0.2817   -5.6156    3.9627 H   0  0  0  0  0  0  0  0  0  0  0  0
    2.5088   -6.7611    4.0380 H   0  0  0  0  0  0  0  0  0  0  0  0
    2.8057   -6.2873    2.3561 H   0  0  0  0  0  0  0  0  0  0  0  0
    2.6962   -3.8721    3.0219 H   0  0  0  0  0  0  0  0  0  0  0  0
    2.4352   -4.3454    4.7062 H   0  0  0  0  0  0  0  0  0  0  0  0
    6.1845   -4.0566    3.3721 H   0  0  0  0  0  0  0  0  0  0  0  0
  1  2  1  0  0  0  0 
  1  3  1  0  0  0  0 
  2  4  1  0  0  0  0 
  3  5  1  0  0  0  0 
  4  6  1  0  0  0  0 
  4  7  2  0  0  0  0 
  5  8  1  0  0  0  0 
  8  9  1  0  0  0  0 
  9 10  1  0  0  0  0 
 10 11  1  0  0  0  0 
 11 12  1  0  0  0  0 
 11 13  2  0  0  0  0 
  1 14  1  0  0  0  0 
  1 15  1  0  0  0  0 
  2 16  1  0  0  0  0 
  2 17  1  0  0  0  0 
  3 18  1  0  0  0  0 
  3 19  1  0  0  0  0 
  5 20  1  0  0  0  0 
  5 21  1  0  0  0  0 
  6 22  1  0  0  0  0 
  8 23  1  0  0  0  0 
  8 24  1  0  0  0  0 
  9 25  1  0  0  0  0 
  9 26  1  0  0  0  0 
 10 27  1  0  0  0  0 
 10 28  1  0  0  0  0 
 12 29  1  0  0  0  0 
M  END
> <cdk:Title>
azelaic acid

> <Conformer>
1

> <SuperDrugID>
SD000224

$$$$
