N-Acetylglucosamine
  CDK     0628171802

 30 30  0  0  0  0  0  0  0  0999 V2000
   -4.3366   -2.3279   -1.8069 O   0  0  0  0  0  0  0  0  0  0  0  0
   -3.4849   -1.5433   -0.9785 C   0  0  1  0  0  0  0  0  0  0  0  0
   -2.9013   -0.3500   -1.7733 C   0  0  1  0  0  0  0  0  0  0  0  0
   -4.0072    0.4651   -2.2213 O   0  0  0  0  0  0  0  0  0  0  0  0
   -3.6306    1.5716   -3.0677 C   0  0  1  0  0  0  0  0  0  0  0  0
   -4.8278    2.2648   -3.4097 O   0  0  0  0  0  0  0  0  0  0  0  0
   -2.6401    2.5362   -2.3546 C   0  0  2  0  0  0  0  0  0  0  0  0
   -2.1586    3.5001   -3.3021 N   0  0  0  0  0  0  0  0  0  0  0  0
   -1.4425    1.7422   -1.7531 C   0  0  1  0  0  0  0  0  0  0  0  0
   -0.6532    2.5987   -0.9274 O   0  0  0  0  0  0  0  0  0  0  0  0
   -1.9184    0.5129   -0.9299 C   0  0  2  0  0  0  0  0  0  0  0  0
   -0.7879   -0.2558   -0.5180 O   0  0  0  0  0  0  0  0  0  0  0  0
   -1.9862    4.8329   -3.0824 C   0  0  0  0  0  0  0  0  0  0  0  0
   -1.4653    5.6906   -4.1599 C   0  0  0  0  0  0  0  0  0  0  0  0
   -2.2456    5.3622   -1.9766 O   0  0  0  0  0  0  0  0  0  0  0  0
   -3.7511   -2.6795   -2.5107 H   0  0  0  0  0  0  0  0  0  0  0  0
   -4.0654   -1.1834   -0.1265 H   0  0  0  0  0  0  0  0  0  0  0  0
   -2.6844   -2.1875   -0.6098 H   0  0  0  0  0  0  0  0  0  0  0  0
   -2.3703   -0.7574   -2.6404 H   0  0  0  0  0  0  0  0  0  0  0  0
   -3.1940    1.1911   -3.9958 H   0  0  0  0  0  0  0  0  0  0  0  0
   -5.3887    1.5926   -3.8521 H   0  0  0  0  0  0  0  0  0  0  0  0
   -3.1799    3.0252   -1.5364 H   0  0  0  0  0  0  0  0  0  0  0  0
   -1.9213    3.1666   -4.1830 H   0  0  0  0  0  0  0  0  0  0  0  0
   -0.8008    1.3904   -2.5677 H   0  0  0  0  0  0  0  0  0  0  0  0
   -1.2576    2.8952   -0.2140 H   0  0  0  0  0  0  0  0  0  0  0  0
   -2.4291    0.8636   -0.0287 H   0  0  0  0  0  0  0  0  0  0  0  0
   -0.3619   -0.5549   -1.3482 H   0  0  0  0  0  0  0  0  0  0  0  0
   -0.5067    6.1169   -3.8558 H   0  0  0  0  0  0  0  0  0  0  0  0
   -1.3140    5.1265   -5.0823 H   0  0  0  0  0  0  0  0  0  0  0  0
   -2.1713    6.4976   -4.3639 H   0  0  0  0  0  0  0  0  0  0  0  0
  1  2  1  0  0  0  0 
  3  2  1  0  0  0  0 
  3  4  1  0  0  0  0 
  3 11  1  0  0  0  0 
  4  5  1  0  0  0  0 
  5  6  1  0  0  0  0 
  5  7  1  0  0  0  0 
  7  8  1  0  0  0  0 
  7  9  1  0  0  0  0 
  9 10  1  0  0  0  0 
  9 11  1  0  0  0  0 
 11 12  1  0  0  0  0 
  8 13  1  0  0  0  0 
 13 14  1  0  0  0  0 
 13 15  2  0  0  0  0 
  1 16  1  0  0  0  0 
  2 17  1  0  0  0  0 
  2 18  1  0  0  0  0 
  3 19  1  0  0  0  0 
  5 20  1  0  0  0  0 
  6 21  1  0  0  0  0 
  7 22  1  0  0  0  0 
  8 23  1  0  0  0  0 
  9 24  1  0  0  0  0 
 10 25  1  0  0  0  0 
 11 26  1  0  0  0  0 
 12 27  1  0  0  0  0 
 14 28  1  0  0  0  0 
 14 29  1  0  0  0  0 
 14 30  1  0  0  0  0 
M  END
> <cdk:Title>
N-Acetylglucosamine

> <Conformer>
1

> <SuperDrugID>
SD003659

$$$$
