caramiphen
  CDK     0628171802

 48 49  0  0  0  0  0  0  0  0999 V2000
   -1.8827   -0.9055    0.7163 C   0  0  0  0  0  0  0  0  0  0  0  0
   -3.0753   -0.8326    0.0622 O   0  0  0  0  0  0  0  0  0  0  0  0
   -1.8253   -0.6492    1.9433 O   0  0  0  0  0  0  0  0  0  0  0  0
   -0.6373   -1.2574   -0.0384 C   0  0  1  0  0  0  0  0  0  0  0  0
   -4.3608   -0.5044    0.5869 C   0  0  2  0  0  0  0  0  0  0  0  0
    0.0116   -2.5435    0.5660 C   0  0  2  0  0  0  0  0  0  0  0  0
   -0.9176   -1.7950   -1.4823 C   0  0  2  0  0  0  0  0  0  0  0  0
    0.2227   -0.0162   -0.0501 C   0  0  0  0  0  0  0  0  0  0  0  0
   -5.3458   -0.4784   -0.6023 C   0  0  2  0  0  0  0  0  0  0  0  0
   -0.7936   -3.7378    0.0158 C   0  0  2  0  0  0  0  0  0  0  0  0
   -1.3711   -3.2632   -1.3329 C   0  0  2  0  0  0  0  0  0  0  0  0
   -0.1172    1.0768   -0.8931 C   0  0  0  0  0  0  0  0  0  0  0  0
    1.3504    0.1395    0.7983 C   0  0  0  0  0  0  0  0  0  0  0  0
   -6.6992    0.0312   -0.1981 N   0  0  1  0  0  0  0  0  0  0  0  0
    0.6383    2.2625   -0.8956 C   0  0  0  0  0  0  0  0  0  0  0  0
    2.1021    1.3274    0.8063 C   0  0  0  0  0  0  0  0  0  0  0  0
   -6.8142    1.5299   -0.2062 C   0  0  1  0  0  0  0  0  0  0  0  0
   -7.8352   -0.6771   -0.8731 C   0  0  1  0  0  0  0  0  0  0  0  0
    1.7426    2.3921   -0.0373 C   0  0  0  0  0  0  0  0  0  0  0  0
   -7.8217    2.0478    0.8464 C   0  0  0  0  0  0  0  0  0  0  0  0
   -8.1520   -2.0291   -0.1962 C   0  0  0  0  0  0  0  0  0  0  0  0
   -4.3169    0.4680    1.0790 H   0  0  0  0  0  0  0  0  0  0  0  0
   -4.6644   -1.2590    1.3162 H   0  0  0  0  0  0  0  0  0  0  0  0
    0.0137   -2.5475    1.6594 H   0  0  0  0  0  0  0  0  0  0  0  0
    1.0477   -2.6388    0.2222 H   0  0  0  0  0  0  0  0  0  0  0  0
    0.0013   -1.7690   -2.0795 H   0  0  0  0  0  0  0  0  0  0  0  0
   -1.6718   -1.2125   -2.0201 H   0  0  0  0  0  0  0  0  0  0  0  0
   -5.3923   -1.5003   -0.9900 H   0  0  0  0  0  0  0  0  0  0  0  0
   -4.9339    0.1386   -1.4080 H   0  0  0  0  0  0  0  0  0  0  0  0
   -1.6040   -3.9900    0.7061 H   0  0  0  0  0  0  0  0  0  0  0  0
   -0.1529   -4.6147   -0.1087 H   0  0  0  0  0  0  0  0  0  0  0  0
   -0.9992   -3.8702   -2.1630 H   0  0  0  0  0  0  0  0  0  0  0  0
   -2.4640   -3.3246   -1.3188 H   0  0  0  0  0  0  0  0  0  0  0  0
   -0.9294    1.0278   -1.5129 H   0  0  0  0  0  0  0  0  0  0  0  0
    1.6372   -0.6056    1.4339 H   0  0  0  0  0  0  0  0  0  0  0  0
    0.3834    3.0315   -1.5204 H   0  0  0  0  0  0  0  0  0  0  0  0
    2.9057    1.4185    1.4329 H   0  0  0  0  0  0  0  0  0  0  0  0
   -5.8519    1.9942    0.0248 H   0  0  0  0  0  0  0  0  0  0  0  0
   -7.1069    1.8860   -1.1982 H   0  0  0  0  0  0  0  0  0  0  0  0
   -8.7519   -0.0860   -0.8291 H   0  0  0  0  0  0  0  0  0  0  0  0
   -7.6114   -0.8373   -1.9319 H   0  0  0  0  0  0  0  0  0  0  0  0
    2.2839    3.2602   -0.0238 H   0  0  0  0  0  0  0  0  0  0  0  0
   -8.8491    1.8606    0.5314 H   0  0  0  0  0  0  0  0  0  0  0  0
   -7.6506    1.5568    1.8060 H   0  0  0  0  0  0  0  0  0  0  0  0
   -7.6985    3.1249    0.9789 H   0  0  0  0  0  0  0  0  0  0  0  0
   -9.0006   -2.4984   -0.6975 H   0  0  0  0  0  0  0  0  0  0  0  0
   -8.4091   -1.8691    0.8525 H   0  0  0  0  0  0  0  0  0  0  0  0
   -7.3009   -2.7088   -0.2507 H   0  0  0  0  0  0  0  0  0  0  0  0
  1  2  1  0  0  0  0 
  1  3  2  0  0  0  0 
  1  4  1  0  0  0  0 
  2  5  1  0  0  0  0 
  4  6  1  0  0  0  0 
  4  7  1  0  0  0  0 
  4  8  1  0  0  0  0 
  5  9  1  0  0  0  0 
  6 10  1  0  0  0  0 
  7 11  1  0  0  0  0 
  8 12  2  0  0  0  0 
  8 13  1  0  0  0  0 
  9 14  1  0  0  0  0 
 10 11  1  0  0  0  0 
 12 15  1  0  0  0  0 
 13 16  2  0  0  0  0 
 14 17  1  0  0  0  0 
 14 18  1  0  0  0  0 
 15 19  2  0  0  0  0 
 16 19  1  0  0  0  0 
 17 20  1  0  0  0  0 
 18 21  1  0  0  0  0 
  5 22  1  0  0  0  0 
  5 23  1  0  0  0  0 
  6 24  1  0  0  0  0 
  6 25  1  0  0  0  0 
  7 26  1  0  0  0  0 
  7 27  1  0  0  0  0 
  9 28  1  0  0  0  0 
  9 29  1  0  0  0  0 
 10 30  1  0  0  0  0 
 10 31  1  0  0  0  0 
 11 32  1  0  0  0  0 
 11 33  1  0  0  0  0 
 12 34  1  0  0  0  0 
 13 35  1  0  0  0  0 
 15 36  1  0  0  0  0 
 16 37  1  0  0  0  0 
 17 38  1  0  0  0  0 
 17 39  1  0  0  0  0 
 18 40  1  0  0  0  0 
 18 41  1  0  0  0  0 
 19 42  1  0  0  0  0 
 20 43  1  0  0  0  0 
 20 44  1  0  0  0  0 
 20 45  1  0  0  0  0 
 21 46  1  0  0  0  0 
 21 47  1  0  0  0  0 
 21 48  1  0  0  0  0 
M  END
> <cdk:Title>
caramiphen

> <Conformer>
1

> <SuperDrugID>
SD000420

$$$$
