iodine
  CDK     0628171801

  2  1  0  0  0  0  0  0  0  0999 V2000
    2.7100    0.0000    0.0000 I   0  0  0  0  0  0  0  0  0  0  0  0
    0.0000    0.0000    0.0000 I   0  0  0  0  0  0  0  0  0  0  0  0
  1  2  1  0  0  0  0 
M  END
> <cdk:Title>
iodine

> <Conformer>
1

> <SuperDrugID>
SD003569

$$$$
