gemeprost
  CDK     0628171801

 66 66  0  0  0  0  0  0  0  0999 V2000
   -9.8514   -3.4752   -0.1023 C   0  0  0  0  0  0  0  0  0  0  0  0
  -10.5576   -4.6048   -0.2856 C   0  0  0  0  0  0  0  0  0  0  0  0
   -9.6546   -2.4680   -1.1480 C   0  0  2  0  0  0  0  0  0  0  0  0
  -10.8403   -5.5847    0.7608 C   0  0  2  0  0  0  0  0  0  0  0  0
   -8.8099   -1.2304   -0.6914 C   0  0  1  0  0  0  0  0  0  0  0  0
  -10.9810   -1.8499   -1.6713 C   0  0  2  0  0  0  0  0  0  0  0  0
  -12.1639   -5.3129    1.5907 C   0  0  2  0  0  0  0  0  0  0  0  0
   -9.6956   -5.7524    1.6019 O   0  0  0  0  0  0  0  0  0  0  0  0
   -7.2646   -1.4561   -0.8023 C   0  0  1  0  0  0  0  0  0  0  0  0
   -9.3522   -0.1443   -1.5294 C   0  0  0  0  0  0  0  0  0  0  0  0
  -11.6152   -2.6616   -2.6596 O   0  0  0  0  0  0  0  0  0  0  0  0
  -10.5787   -0.4798   -2.2510 C   0  0  2  0  0  0  0  0  0  0  0  0
  -12.0477   -3.9569    2.3907 C   0  0  1  0  0  0  0  0  0  0  0  0
  -12.3818   -6.5129    2.5776 C   0  0  0  0  0  0  0  0  0  0  0  0
  -13.3889   -5.2663    0.6098 C   0  0  0  0  0  0  0  0  0  0  0  0
   -6.3983   -0.3673   -0.1013 C   0  0  2  0  0  0  0  0  0  0  0  0
   -8.8571    1.0042   -1.5943 O   0  0  0  0  0  0  0  0  0  0  0  0
  -13.1694   -3.6178    3.4207 C   0  0  1  0  0  0  0  0  0  0  0  0
   -4.8740   -0.6720   -0.1316 C   0  0  1  0  0  0  0  0  0  0  0  0
  -13.1068   -2.1640    3.9687 C   0  0  2  0  0  0  0  0  0  0  0  0
   -4.0290    0.4557    0.5280 C   0  0  1  0  0  0  0  0  0  0  0  0
  -11.8903   -1.8733    4.8781 C   0  0  0  0  0  0  0  0  0  0  0  0
   -2.5898    0.2181    0.5237 C   0  0  0  0  0  0  0  0  0  0  0  0
   -1.7112    1.1571    0.9230 C   0  0  0  0  0  0  0  0  0  0  0  0
   -0.3336    0.9940    0.9509 C   0  0  0  0  0  0  0  0  0  0  0  0
    0.2555   -0.1869    0.5827 O   0  0  0  0  0  0  0  0  0  0  0  0
    0.3787    1.9570    1.3240 O   0  0  0  0  0  0  0  0  0  0  0  0
    1.6604   -0.4706    0.5583 C   0  0  0  0  0  0  0  0  0  0  0  0
   -9.4560   -3.3070    0.7938 H   0  0  0  0  0  0  0  0  0  0  0  0
  -10.9439   -4.7799   -1.1858 H   0  0  0  0  0  0  0  0  0  0  0  0
   -9.1484   -2.9486   -1.9947 H   0  0  0  0  0  0  0  0  0  0  0  0
  -10.9466   -6.5459    0.2477 H   0  0  0  0  0  0  0  0  0  0  0  0
   -9.0587   -0.9824    0.3478 H   0  0  0  0  0  0  0  0  0  0  0  0
  -11.6830   -1.7031   -0.8437 H   0  0  0  0  0  0  0  0  0  0  0  0
   -9.8620   -6.5809    2.0989 H   0  0  0  0  0  0  0  0  0  0  0  0
   -7.0280   -2.4195   -0.3396 H   0  0  0  0  0  0  0  0  0  0  0  0
   -6.9858   -1.5176   -1.8574 H   0  0  0  0  0  0  0  0  0  0  0  0
  -12.4440   -2.1888   -2.8883 H   0  0  0  0  0  0  0  0  0  0  0  0
  -11.3607    0.2656   -2.0770 H   0  0  0  0  0  0  0  0  0  0  0  0
  -10.3616   -0.5415   -3.3210 H   0  0  0  0  0  0  0  0  0  0  0  0
  -11.1001   -3.9589    2.9353 H   0  0  0  0  0  0  0  0  0  0  0  0
  -12.0059   -3.1321    1.6742 H   0  0  0  0  0  0  0  0  0  0  0  0
  -11.6080   -6.5341    3.3472 H   0  0  0  0  0  0  0  0  0  0  0  0
  -12.3563   -7.4677    2.0461 H   0  0  0  0  0  0  0  0  0  0  0  0
  -13.3463   -6.4443    3.0846 H   0  0  0  0  0  0  0  0  0  0  0  0
  -13.3411   -4.3888   -0.0388 H   0  0  0  0  0  0  0  0  0  0  0  0
  -13.4110   -6.1541   -0.0275 H   0  0  0  0  0  0  0  0  0  0  0  0
  -14.3368   -5.2225    1.1475 H   0  0  0  0  0  0  0  0  0  0  0  0
   -6.7210   -0.2720    0.9399 H   0  0  0  0  0  0  0  0  0  0  0  0
   -6.5625    0.5923   -0.5923 H   0  0  0  0  0  0  0  0  0  0  0  0
  -14.1453   -3.7467    2.9507 H   0  0  0  0  0  0  0  0  0  0  0  0
  -13.1174   -4.3112    4.2631 H   0  0  0  0  0  0  0  0  0  0  0  0
   -4.6918   -1.6140    0.3928 H   0  0  0  0  0  0  0  0  0  0  0  0
   -4.5542   -0.7889   -1.1718 H   0  0  0  0  0  0  0  0  0  0  0  0
  -14.0131   -1.9728    4.5508 H   0  0  0  0  0  0  0  0  0  0  0  0
  -13.1012   -1.4586    3.1327 H   0  0  0  0  0  0  0  0  0  0  0  0
   -4.2310    1.3919   -0.0015 H   0  0  0  0  0  0  0  0  0  0  0  0
   -4.3510    0.5792    1.5658 H   0  0  0  0  0  0  0  0  0  0  0  0
  -11.9302   -0.8386    5.2262 H   0  0  0  0  0  0  0  0  0  0  0  0
  -11.9011   -2.5314    5.7488 H   0  0  0  0  0  0  0  0  0  0  0  0
  -10.9545   -2.0175    4.3374 H   0  0  0  0  0  0  0  0  0  0  0  0
   -2.2526   -0.6693    0.2291 H   0  0  0  0  0  0  0  0  0  0  0  0
   -2.0722    2.0364    1.2185 H   0  0  0  0  0  0  0  0  0  0  0  0
    2.1731    0.1963   -0.1371 H   0  0  0  0  0  0  0  0  0  0  0  0
    1.8051   -1.4989    0.2279 H   0  0  0  0  0  0  0  0  0  0  0  0
    2.0919   -0.3587    1.5547 H   0  0  0  0  0  0  0  0  0  0  0  0
  1  2  2  0  0  0  0 
  4  2  1  0  0  0  0 
  3  1  1  0  0  0  0 
  3  5  1  0  0  0  0 
  6  3  1  0  0  0  0 
  4  7  1  0  0  0  0 
  4  8  1  0  0  0  0 
  5  9  1  0  0  0  0 
  5 10  1  0  0  0  0 
  6 11  1  0  0  0  0 
  6 12  1  0  0  0  0 
  7 13  1  0  0  0  0 
  7 14  1  0  0  0  0 
  7 15  1  0  0  0  0 
  9 16  1  0  0  0  0 
 10 12  1  0  0  0  0 
 10 17  2  0  0  0  0 
 13 18  1  0  0  0  0 
 16 19  1  0  0  0  0 
 18 20  1  0  0  0  0 
 19 21  1  0  0  0  0 
 20 22  1  0  0  0  0 
 21 23  1  0  0  0  0 
 23 24  2  0  0  0  0 
 24 25  1  0  0  0  0 
 25 26  1  0  0  0  0 
 25 27  2  0  0  0  0 
 26 28  1  0  0  0  0 
  1 29  1  0  0  0  0 
  2 30  1  0  0  0  0 
  3 31  1  0  0  0  0 
  4 32  1  0  0  0  0 
  5 33  1  0  0  0  0 
  6 34  1  0  0  0  0 
  8 35  1  0  0  0  0 
  9 36  1  0  0  0  0 
  9 37  1  0  0  0  0 
 11 38  1  0  0  0  0 
 12 39  1  0  0  0  0 
 12 40  1  0  0  0  0 
 13 41  1  0  0  0  0 
 13 42  1  0  0  0  0 
 14 43  1  0  0  0  0 
 14 44  1  0  0  0  0 
 14 45  1  0  0  0  0 
 15 46  1  0  0  0  0 
 15 47  1  0  0  0  0 
 15 48  1  0  0  0  0 
 16 49  1  0  0  0  0 
 16 50  1  0  0  0  0 
 18 51  1  0  0  0  0 
 18 52  1  0  0  0  0 
 19 53  1  0  0  0  0 
 19 54  1  0  0  0  0 
 20 55  1  0  0  0  0 
 20 56  1  0  0  0  0 
 21 57  1  0  0  0  0 
 21 58  1  0  0  0  0 
 22 59  1  0  0  0  0 
 22 60  1  0  0  0  0 
 22 61  1  0  0  0  0 
 23 62  1  0  0  0  0 
 24 63  1  0  0  0  0 
 28 64  1  0  0  0  0 
 28 65  1  0  0  0  0 
 28 66  1  0  0  0  0 
M  END
> <cdk:Title>
gemeprost

> <Conformer>
1

> <SuperDrugID>
SD001145

$$$$
