camphor
  CDK     0628171802

 27 28  0  0  0  0  0  0  0  0999 V2000
   -1.6411   -0.3436    2.3922 C   0  0  0  0  0  0  0  0  0  0  0  0
   -2.0755   -0.7130    0.9186 C   0  0  1  0  0  0  0  0  0  0  0  0
   -3.3105   -1.6766    1.0886 C   0  0  0  0  0  0  0  0  0  0  0  0
   -2.3175    0.5086   -0.0297 C   0  0  2  0  0  0  0  0  0  0  0  0
   -2.6074   -0.1260   -1.4297 C   0  0  2  0  0  0  0  0  0  0  0  0
   -1.6046   -1.3143   -1.4384 C   0  0  2  0  0  0  0  0  0  0  0  0
   -0.9279   -1.2037   -0.0287 C   0  0  2  0  0  0  0  0  0  0  0  0
   -0.1897   -2.4921    0.4269 C   0  0  0  0  0  0  0  0  0  0  0  0
   -0.0756    0.0180   -0.1052 C   0  0  0  0  0  0  0  0  0  0  0  0
    1.1759    0.0462   -0.1567 O   0  0  0  0  0  0  0  0  0  0  0  0
   -0.9283    1.2195   -0.1042 C   0  0  2  0  0  0  0  0  0  0  0  0
   -2.4123    0.2666    2.8674 H   0  0  0  0  0  0  0  0  0  0  0  0
   -1.4990   -1.2450    2.9930 H   0  0  0  0  0  0  0  0  0  0  0  0
   -0.7024    0.2060    2.4486 H   0  0  0  0  0  0  0  0  0  0  0  0
   -4.1336   -1.1412    1.5657 H   0  0  0  0  0  0  0  0  0  0  0  0
   -3.0514   -2.5287    1.7197 H   0  0  0  0  0  0  0  0  0  0  0  0
   -3.6884   -2.0862    0.1548 H   0  0  0  0  0  0  0  0  0  0  0  0
   -3.1169    1.1750    0.3073 H   0  0  0  0  0  0  0  0  0  0  0  0
   -2.4161    0.5717   -2.2493 H   0  0  0  0  0  0  0  0  0  0  0  0
   -3.6440   -0.4623   -1.5111 H   0  0  0  0  0  0  0  0  0  0  0  0
   -0.8769   -1.2160   -2.2528 H   0  0  0  0  0  0  0  0  0  0  0  0
   -2.1236   -2.2687   -1.5666 H   0  0  0  0  0  0  0  0  0  0  0  0
   -0.8913   -3.3246    0.5018 H   0  0  0  0  0  0  0  0  0  0  0  0
    0.5881   -2.7581   -0.2920 H   0  0  0  0  0  0  0  0  0  0  0  0
    0.2760   -2.3429    1.4028 H   0  0  0  0  0  0  0  0  0  0  0  0
   -0.7425    1.8518    0.7652 H   0  0  0  0  0  0  0  0  0  0  0  0
   -0.7945    1.8128   -1.0109 H   0  0  0  0  0  0  0  0  0  0  0  0
  1  2  1  0  0  0  0 
  2  3  1  0  0  0  0 
  4  2  1  0  0  0  0 
  4  5  1  0  0  0  0 
  5  6  1  0  0  0  0 
  7  6  1  0  0  0  0 
  7  8  1  0  0  0  0 
  7  9  1  0  0  0  0 
  9 10  2  0  0  0  0 
  9 11  1  0  0  0  0 
  4 11  1  0  0  0  0 
  7  2  1  0  0  0  0 
  1 12  1  0  0  0  0 
  1 13  1  0  0  0  0 
  1 14  1  0  0  0  0 
  3 15  1  0  0  0  0 
  3 16  1  0  0  0  0 
  3 17  1  0  0  0  0 
  4 18  1  0  0  0  0 
  5 19  1  0  0  0  0 
  5 20  1  0  0  0  0 
  6 21  1  0  0  0  0 
  6 22  1  0  0  0  0 
  8 23  1  0  0  0  0 
  8 24  1  0  0  0  0 
  8 25  1  0  0  0  0 
 11 26  1  0  0  0  0 
 11 27  1  0  0  0  0 
M  END
> <cdk:Title>
camphor

> <Conformer>
1

> <SuperDrugID>
SD000409

$$$$
