bromhexine
  CDK     0628171801

 38 39  0  0  0  0  0  0  0  0999 V2000
   -2.2462   -0.3635   -1.2141 C   0  0  2  0  0  0  0  0  0  0  0  0
   -1.2973   -0.7160   -0.1035 N   0  0  1  0  0  0  0  0  0  0  0  0
   -1.8020    0.7456   -2.1094 C   0  0  0  0  0  0  0  0  0  0  0  0
   -1.1159    0.3876    0.8914 C   0  0  0  0  0  0  0  0  0  0  0  0
   -1.4869   -2.0764    0.5280 C   0  0  2  0  0  0  0  0  0  0  0  0
   -0.5814    0.6869   -2.8349 C   0  0  0  0  0  0  0  0  0  0  0  0
   -2.6449    1.8688   -2.2879 C   0  0  0  0  0  0  0  0  0  0  0  0
   -1.0373   -3.2338   -0.4184 C   0  0  1  0  0  0  0  0  0  0  0  0
   -2.9235   -2.3519    1.0788 C   0  0  2  0  0  0  0  0  0  0  0  0
    0.2651   -0.3567   -2.6890 N   0  0  0  0  0  0  0  0  0  0  0  0
   -0.2396    1.7272   -3.7307 C   0  0  0  0  0  0  0  0  0  0  0  0
   -2.3034    2.8998   -3.1795 C   0  0  0  0  0  0  0  0  0  0  0  0
   -1.1217   -4.6189    0.2769 C   0  0  2  0  0  0  0  0  0  0  0  0
   -3.0216   -3.7377    1.7736 C   0  0  2  0  0  0  0  0  0  0  0  0
    1.3311    1.6832   -4.7353 Br  0  0  0  0  0  0  0  0  0  0  0  0
   -1.0978    2.8292   -3.8939 C   0  0  0  0  0  0  0  0  0  0  0  0
   -3.4543    4.3417   -3.4276 Br  0  0  0  0  0  0  0  0  0  0  0  0
   -2.5416   -4.8855    0.8456 C   0  0  2  0  0  0  0  0  0  0  0  0
   -3.2237   -0.1450   -0.7786 H   0  0  0  0  0  0  0  0  0  0  0  0
   -2.3979   -1.2149   -1.8753 H   0  0  0  0  0  0  0  0  0  0  0  0
   -2.0499    0.6070    1.4118 H   0  0  0  0  0  0  0  0  0  0  0  0
   -0.3596    0.1224    1.6332 H   0  0  0  0  0  0  0  0  0  0  0  0
   -0.7677    1.2981    0.4033 H   0  0  0  0  0  0  0  0  0  0  0  0
   -0.8093   -2.1392    1.3872 H   0  0  0  0  0  0  0  0  0  0  0  0
   -3.5272    1.9381   -1.7765 H   0  0  0  0  0  0  0  0  0  0  0  0
   -1.6635   -3.2600   -1.3118 H   0  0  0  0  0  0  0  0  0  0  0  0
   -0.0069   -3.0644   -0.7407 H   0  0  0  0  0  0  0  0  0  0  0  0
   -3.6502   -2.3220    0.2632 H   0  0  0  0  0  0  0  0  0  0  0  0
   -3.1986   -1.5739    1.7946 H   0  0  0  0  0  0  0  0  0  0  0  0
    1.1053   -0.3753   -3.1714 H   0  0  0  0  0  0  0  0  0  0  0  0
    0.0408   -1.0894   -2.0961 H   0  0  0  0  0  0  0  0  0  0  0  0
   -0.3897   -4.6629    1.0875 H   0  0  0  0  0  0  0  0  0  0  0  0
   -0.8656   -5.4010   -0.4441 H   0  0  0  0  0  0  0  0  0  0  0  0
   -4.0590   -3.9217    2.0635 H   0  0  0  0  0  0  0  0  0  0  0  0
   -2.4174   -3.7314    2.6846 H   0  0  0  0  0  0  0  0  0  0  0  0
   -0.8453    3.5812   -4.5377 H   0  0  0  0  0  0  0  0  0  0  0  0
   -2.5366   -5.8257    1.4039 H   0  0  0  0  0  0  0  0  0  0  0  0
   -3.2462   -4.9959    0.0158 H   0  0  0  0  0  0  0  0  0  0  0  0
  1  2  1  0  0  0  0 
  1  3  1  0  0  0  0 
  2  4  1  0  0  0  0 
  2  5  1  0  0  0  0 
  3  6  2  0  0  0  0 
  3  7  1  0  0  0  0 
  5  8  1  0  0  0  0 
  5  9  1  0  0  0  0 
  6 10  1  0  0  0  0 
  6 11  1  0  0  0  0 
  7 12  2  0  0  0  0 
  8 13  1  0  0  0  0 
  9 14  1  0  0  0  0 
 11 15  1  0  0  0  0 
 11 16  2  0  0  0  0 
 12 16  1  0  0  0  0 
 12 17  1  0  0  0  0 
 13 18  1  0  0  0  0 
 14 18  1  0  0  0  0 
  1 19  1  0  0  0  0 
  1 20  1  0  0  0  0 
  4 21  1  0  0  0  0 
  4 22  1  0  0  0  0 
  4 23  1  0  0  0  0 
  5 24  1  0  0  0  0 
  7 25  1  0  0  0  0 
  8 26  1  0  0  0  0 
  8 27  1  0  0  0  0 
  9 28  1  0  0  0  0 
  9 29  1  0  0  0  0 
 10 30  1  0  0  0  0 
 10 31  1  0  0  0  0 
 13 32  1  0  0  0  0 
 13 33  1  0  0  0  0 
 14 34  1  0  0  0  0 
 14 35  1  0  0  0  0 
 16 36  1  0  0  0  0 
 18 37  1  0  0  0  0 
 18 38  1  0  0  0  0 
M  END
> <cdk:Title>
bromhexine

> <Conformer>
1

> <SuperDrugID>
SD000344

$$$$
