azanidazole
  CDK     0628171801

 28 29  0  0  0  0  0  0  0  0999 V2000
   -3.6399    2.9006   -0.0898 C   0  0  0  0  0  0  0  0  0  0  0  0
   -2.5274    2.4065    0.4897 C   0  0  0  0  0  0  0  0  0  0  0  0
   -4.7716    3.3182    0.6120 C   0  0  0  0  0  0  0  0  0  0  0  0
   -1.3716    2.0242   -0.1921 C   0  0  0  0  0  0  0  0  0  0  0  0
   -5.8056    4.0912    0.1691 N   0  0  0  0  0  0  0  0  0  0  0  0
   -4.9827    2.9991    1.9031 N   0  0  0  0  0  0  0  0  0  0  0  0
   -1.3366    1.9545   -1.5550 N   0  0  0  0  0  0  0  0  0  0  0  0
   -0.1855    1.7090    0.5139 C   0  0  0  0  0  0  0  0  0  0  0  0
   -5.9998    4.6202   -1.1581 C   0  0  0  0  0  0  0  0  0  0  0  0
   -6.6558    4.2900    1.2130 C   0  0  0  0  0  0  0  0  0  0  0  0
   -6.1263    3.5716    2.2815 C   0  0  0  0  0  0  0  0  0  0  0  0
   -0.2229    1.5973   -2.2451 C   0  0  0  0  0  0  0  0  0  0  0  0
    0.9591    1.3415   -0.2154 C   0  0  0  0  0  0  0  0  0  0  0  0
   -7.7806    5.0129    1.2758 N   0  0  0  0  0  0  0  0  0  0  0  0
   -0.2356    1.5334   -3.5852 N   0  0  0  0  0  0  0  0  0  0  0  0
    0.9129    1.2969   -1.5691 N   0  0  0  0  0  0  0  0  0  0  0  0
   -8.6011    4.8930    2.2395 O   0  0  0  0  0  0  0  0  0  0  0  0
   -8.0631    5.8077    0.4703 O   0  0  0  0  0  0  0  0  0  0  0  0
   -3.6506    2.9935   -1.0750 H   0  0  0  0  0  0  0  0  0  0  0  0
   -2.5147    2.3274    1.4821 H   0  0  0  0  0  0  0  0  0  0  0  0
   -0.1411    1.7506    1.5354 H   0  0  0  0  0  0  0  0  0  0  0  0
   -5.9455    5.7110   -1.1379 H   0  0  0  0  0  0  0  0  0  0  0  0
   -5.2677    4.2696   -1.8824 H   0  0  0  0  0  0  0  0  0  0  0  0
   -6.9822    4.3231   -1.5290 H   0  0  0  0  0  0  0  0  0  0  0  0
   -6.5278    3.4982    3.2182 H   0  0  0  0  0  0  0  0  0  0  0  0
    1.8295    1.1089    0.2660 H   0  0  0  0  0  0  0  0  0  0  0  0
   -1.0461    1.7393   -4.0772 H   0  0  0  0  0  0  0  0  0  0  0  0
    0.5682    1.2770   -4.0644 H   0  0  0  0  0  0  0  0  0  0  0  0
  1  2  2  0  0  0  0 
  1  3  1  0  0  0  0 
  2  4  1  0  0  0  0 
  3  5  1  0  0  0  0 
  3  6  2  0  0  0  0 
  4  7  2  0  0  0  0 
  4  8  1  0  0  0  0 
  5  9  1  0  0  0  0 
  5 10  1  0  0  0  0 
  6 11  1  0  0  0  0 
  7 12  1  0  0  0  0 
  8 13  2  0  0  0  0 
 10 11  2  0  0  0  0 
 10 14  1  0  0  0  0 
 12 15  1  0  0  0  0 
 12 16  2  0  0  0  0 
 13 16  1  0  0  0  0 
 14 17  1  0  0  0  0 
 14 18  2  0  0  0  0 
  1 19  1  0  0  0  0 
  2 20  1  0  0  0  0 
  8 21  1  0  0  0  0 
  9 22  1  0  0  0  0 
  9 23  1  0  0  0  0 
  9 24  1  0  0  0  0 
 11 25  1  0  0  0  0 
 13 26  1  0  0  0  0 
 15 27  1  0  0  0  0 
 15 28  1  0  0  0  0 
M  CHG  1  14   1
M  CHG  1  17  -1
M  END
> <cdk:Title>
azanidazole

> <Conformer>
1

> <SuperDrugID>
SD000218

$$$$
