azathioprine
  CDK     0628171801

 26 28  0  0  0  0  0  0  0  0999 V2000
   -1.5768   -1.6165   -0.2831 C   0  0  0  0  0  0  0  0  0  0  0  0
   -1.9350   -0.3248   -0.5261 N   0  0  0  0  0  0  0  0  0  0  0  0
   -3.2115    0.1226   -0.3467 C   0  0  0  0  0  0  0  0  0  0  0  0
   -4.1828   -0.7233    0.0961 N   0  0  0  0  0  0  0  0  0  0  0  0
   -3.8686   -2.0157    0.3577 C   0  0  0  0  0  0  0  0  0  0  0  0
   -2.5752   -2.4936    0.1770 C   0  0  0  0  0  0  0  0  0  0  0  0
   -4.6459   -3.0161    0.7986 N   0  0  0  0  0  0  0  0  0  0  0  0
   -3.8397   -4.0931    0.8852 C   0  0  0  0  0  0  0  0  0  0  0  0
   -2.5858   -3.7881    0.5098 N   0  0  0  0  0  0  0  0  0  0  0  0
    0.0803   -2.1242   -0.5682 S   0  0  0  0  0  0  0  0  0  0  0  0
   -0.0322   -3.3305   -1.8497 C   0  0  0  0  0  0  0  0  0  0  0  0
    0.0691   -4.7182   -1.6978 C   0  0  0  0  0  0  0  0  0  0  0  0
   -0.1490   -5.2644   -2.9087 N   0  0  0  0  0  0  0  0  0  0  0  0
   -0.3471   -4.2624   -3.7769 C   0  0  0  0  0  0  0  0  0  0  0  0
   -0.2596   -3.0727   -3.1542 N   0  0  0  0  0  0  0  0  0  0  0  0
    0.3259   -5.4203   -0.5961 N   0  0  0  0  0  0  0  0  0  0  0  0
    0.6926   -4.8850    0.4958 O   0  0  0  0  0  0  0  0  0  0  0  0
    0.2464   -6.5851   -0.5979 O   0  0  0  0  0  0  0  0  0  0  0  0
   -0.3817   -1.7872   -3.7765 C   0  0  0  0  0  0  0  0  0  0  0  0
   -3.4416    1.0966   -0.5460 H   0  0  0  0  0  0  0  0  0  0  0  0
   -4.1394   -5.0171    1.1973 H   0  0  0  0  0  0  0  0  0  0  0  0
   -1.8329   -4.3985    0.4841 H   0  0  0  0  0  0  0  0  0  0  0  0
   -0.5421   -4.3953   -4.7719 H   0  0  0  0  0  0  0  0  0  0  0  0
   -1.2471   -1.2594   -3.3722 H   0  0  0  0  0  0  0  0  0  0  0  0
   -0.5023   -1.8709   -4.8597 H   0  0  0  0  0  0  0  0  0  0  0  0
    0.5179   -1.2003   -3.5811 H   0  0  0  0  0  0  0  0  0  0  0  0
  1  2  1  0  0  0  0 
  2  3  2  0  0  0  0 
  3  4  1  0  0  0  0 
  4  5  2  0  0  0  0 
  5  6  1  0  0  0  0 
  1  6  2  0  0  0  0 
  7  8  2  0  0  0  0 
  8  9  1  0  0  0  0 
  5  7  1  0  0  0  0 
  6  9  1  0  0  0  0 
  1 10  1  0  0  0  0 
 10 11  1  0  0  0  0 
 12 13  1  0  0  0  0 
 13 14  2  0  0  0  0 
 14 15  1  0  0  0  0 
 11 12  2  0  0  0  0 
 11 15  1  0  0  0  0 
 12 16  1  0  0  0  0 
 16 17  1  0  0  0  0 
 16 18  2  0  0  0  0 
 15 19  1  0  0  0  0 
 20  3  1  0  0  0  0 
 21  8  1  0  0  0  0 
 22  9  1  0  0  0  0 
 23 14  1  0  0  0  0 
 24 19  1  0  0  0  0 
 25 19  1  0  0  0  0 
 26 19  1  0  0  0  0 
M  CHG  1  16   1
M  CHG  1  17  -1
M  END
> <cdk:Title>
azathioprine

> <Conformer>
1

> <SuperDrugID>
SD000223

$$$$
