mecloqualone
  CDK     0628171801

 30 32  0  0  0  0  0  0  0  0999 V2000
    3.9660    4.3615    0.9377 C   0  0  0  0  0  0  0  0  0  0  0  0
    3.9100    4.0977   -0.5206 C   0  0  0  0  0  0  0  0  0  0  0  0
    4.3318    5.0960   -1.3411 N   0  0  0  0  0  0  0  0  0  0  0  0
    4.3270    4.9954   -2.6911 C   0  0  0  0  0  0  0  0  0  0  0  0
    3.8618    3.8045   -3.3015 C   0  0  0  0  0  0  0  0  0  0  0  0
    3.8426    3.7208   -4.7156 C   0  0  0  0  0  0  0  0  0  0  0  0
    4.2739    4.8071   -5.5003 C   0  0  0  0  0  0  0  0  0  0  0  0
    4.7474    5.9787   -4.8833 C   0  0  0  0  0  0  0  0  0  0  0  0
    4.7789    6.0728   -3.4797 C   0  0  0  0  0  0  0  0  0  0  0  0
    3.4361    2.7611   -2.4447 C   0  0  0  0  0  0  0  0  0  0  0  0
    3.0371    1.6877   -2.9626 O   0  0  0  0  0  0  0  0  0  0  0  0
    3.4568    2.9216   -1.0762 N   0  0  0  0  0  0  0  0  0  0  0  0
    3.0016    1.8944   -0.2816 C   0  0  0  0  0  0  0  0  0  0  0  0
    3.9139    0.9163    0.1756 C   0  0  0  0  0  0  0  0  0  0  0  0
    3.4673   -0.1657    0.9551 C   0  0  0  0  0  0  0  0  0  0  0  0
    2.1049   -0.2799    1.2842 C   0  0  0  0  0  0  0  0  0  0  0  0
    1.1871    0.6863    0.8337 C   0  0  0  0  0  0  0  0  0  0  0  0
    1.6291    1.7786    0.0588 C   0  0  0  0  0  0  0  0  0  0  0  0
    0.4909    2.9283   -0.4515 Cl  0  0  0  0  0  0  0  0  0  0  0  0
    4.6114    3.6296    1.4227 H   0  0  0  0  0  0  0  0  0  0  0  0
    4.3607    5.3549    1.1534 H   0  0  0  0  0  0  0  0  0  0  0  0
    2.9669    4.2930    1.3671 H   0  0  0  0  0  0  0  0  0  0  0  0
    3.5132    2.8743   -5.1856 H   0  0  0  0  0  0  0  0  0  0  0  0
    4.2439    4.7419   -6.5203 H   0  0  0  0  0  0  0  0  0  0  0  0
    5.0700    6.7605   -5.4574 H   0  0  0  0  0  0  0  0  0  0  0  0
    5.1290    6.9277   -3.0390 H   0  0  0  0  0  0  0  0  0  0  0  0
    4.9069    0.9865   -0.0611 H   0  0  0  0  0  0  0  0  0  0  0  0
    4.1315   -0.8748    1.2775 H   0  0  0  0  0  0  0  0  0  0  0  0
    1.7796   -1.0681    1.8470 H   0  0  0  0  0  0  0  0  0  0  0  0
    0.1972    0.5861    1.0706 H   0  0  0  0  0  0  0  0  0  0  0  0
  1  2  1  0  0  0  0 
  2  3  2  0  0  0  0 
  3  4  1  0  0  0  0 
  4  5  1  0  0  0  0 
  5  6  2  0  0  0  0 
  6  7  1  0  0  0  0 
  7  8  2  0  0  0  0 
  8  9  1  0  0  0  0 
  4  9  2  0  0  0  0 
  5 10  1  0  0  0  0 
 10 11  2  0  0  0  0 
 10 12  1  0  0  0  0 
  2 12  1  0  0  0  0 
 12 13  1  0  0  0  0 
 13 14  2  0  0  0  0 
 14 15  1  0  0  0  0 
 15 16  2  0  0  0  0 
 16 17  1  0  0  0  0 
 17 18  2  0  0  0  0 
 13 18  1  0  0  0  0 
 18 19  1  0  0  0  0 
  1 20  1  0  0  0  0 
  1 21  1  0  0  0  0 
  1 22  1  0  0  0  0 
  6 23  1  0  0  0  0 
  7 24  1  0  0  0  0 
  8 25  1  0  0  0  0 
  9 26  1  0  0  0  0 
 14 27  1  0  0  0  0 
 15 28  1  0  0  0  0 
 16 29  1  0  0  0  0 
 17 30  1  0  0  0  0 
M  END
> <cdk:Title>
mecloqualone

> <Conformer>
1

> <SuperDrugID>
SD002878

$$$$
