tolfenamic acid
  CDK     0628171801

 30 31  0  0  0  0  0  0  0  0999 V2000
   -0.9688    2.3108    0.4849 N   0  0  0  0  0  0  0  0  0  0  0  0
   -0.6551    2.7687    1.7423 C   0  0  0  0  0  0  0  0  0  0  0  0
   -1.0266    1.0265    0.0113 C   0  0  0  0  0  0  0  0  0  0  0  0
   -0.4029    4.1608    1.9469 C   0  0  0  0  0  0  0  0  0  0  0  0
   -0.6399    1.8977    2.8614 C   0  0  0  0  0  0  0  0  0  0  0  0
    0.0158    0.0523    0.0896 C   0  0  0  0  0  0  0  0  0  0  0  0
   -2.2382    0.6987   -0.6357 C   0  0  0  0  0  0  0  0  0  0  0  0
   -0.3727    5.1163    0.8898 C   0  0  0  0  0  0  0  0  0  0  0  0
   -0.1594    4.6282    3.2639 C   0  0  0  0  0  0  0  0  0  0  0  0
   -0.3664    2.3779    4.1525 C   0  0  0  0  0  0  0  0  0  0  0  0
    1.3696    0.3785    0.6185 C   0  0  0  0  0  0  0  0  0  0  0  0
   -0.2359   -1.2612   -0.4033 C   0  0  0  0  0  0  0  0  0  0  0  0
   -2.4574   -0.5888   -1.1459 C   0  0  0  0  0  0  0  0  0  0  0  0
   -0.6943    6.4171    1.1062 O   0  0  0  0  0  0  0  0  0  0  0  0
   -0.0300    4.8159   -0.2766 O   0  0  0  0  0  0  0  0  0  0  0  0
   -0.1360    3.7455    4.3548 C   0  0  0  0  0  0  0  0  0  0  0  0
    0.9042   -2.5192   -0.3057 Cl  0  0  0  0  0  0  0  0  0  0  0  0
   -1.4640   -1.5692   -1.0201 C   0  0  0  0  0  0  0  0  0  0  0  0
   -1.2638    2.9892   -0.1418 H   0  0  0  0  0  0  0  0  0  0  0  0
   -0.8410    0.9022    2.7519 H   0  0  0  0  0  0  0  0  0  0  0  0
   -2.9824    1.3966   -0.7338 H   0  0  0  0  0  0  0  0  0  0  0  0
    0.0181    5.6205    3.4458 H   0  0  0  0  0  0  0  0  0  0  0  0
   -0.3425    1.7346    4.9465 H   0  0  0  0  0  0  0  0  0  0  0  0
    2.1213    0.1200   -0.1290 H   0  0  0  0  0  0  0  0  0  0  0  0
    1.5041    1.4350    0.8447 H   0  0  0  0  0  0  0  0  0  0  0  0
    1.5618   -0.1950    1.5268 H   0  0  0  0  0  0  0  0  0  0  0  0
   -3.3426   -0.8143   -1.6046 H   0  0  0  0  0  0  0  0  0  0  0  0
   -0.6701    7.0688    0.3736 H   0  0  0  0  0  0  0  0  0  0  0  0
    0.0452    4.1017    5.2969 H   0  0  0  0  0  0  0  0  0  0  0  0
   -1.6434   -2.5080   -1.3875 H   0  0  0  0  0  0  0  0  0  0  0  0
  1  2  1  0  0  0  0 
  1  3  1  0  0  0  0 
  2  4  2  0  0  0  0 
  2  5  1  0  0  0  0 
  3  6  2  0  0  0  0 
  3  7  1  0  0  0  0 
  4  8  1  0  0  0  0 
  4  9  1  0  0  0  0 
  5 10  2  0  0  0  0 
  6 11  1  0  0  0  0 
  6 12  1  0  0  0  0 
  7 13  2  0  0  0  0 
  8 14  1  0  0  0  0 
  8 15  2  0  0  0  0 
  9 16  2  0  0  0  0 
 10 16  1  0  0  0  0 
 12 17  1  0  0  0  0 
 12 18  2  0  0  0  0 
 13 18  1  0  0  0  0 
  1 19  1  0  0  0  0 
  5 20  1  0  0  0  0 
  7 21  1  0  0  0  0 
  9 22  1  0  0  0  0 
 10 23  1  0  0  0  0 
 11 24  1  0  0  0  0 
 11 25  1  0  0  0  0 
 11 26  1  0  0  0  0 
 13 27  1  0  0  0  0 
 14 28  1  0  0  0  0 
 16 29  1  0  0  0  0 
 18 30  1  0  0  0  0 
M  END
> <cdk:Title>
tolfenamic acid

> <Conformer>
1

> <SuperDrugID>
SD002429

$$$$
