metronidazole
  CDK     0628171801

 21 21  0  0  0  0  0  0  0  0999 V2000
   -0.7656   -0.8890   -2.8359 C   0  0  0  0  0  0  0  0  0  0  0  0
   -0.1050   -1.1391   -4.0383 C   0  0  0  0  0  0  0  0  0  0  0  0
    1.0908   -0.5467   -4.0284 N   0  0  0  0  0  0  0  0  0  0  0  0
    1.2067    0.0661   -2.8396 C   0  0  0  0  0  0  0  0  0  0  0  0
    0.0959   -0.1484   -2.0870 N   0  0  0  0  0  0  0  0  0  0  0  0
   -1.9984   -1.3238   -2.5539 N   0  0  0  0  0  0  0  0  0  0  0  0
    2.4025    0.8542   -2.4767 C   0  0  0  0  0  0  0  0  0  0  0  0
   -0.0993    0.3292   -0.7390 C   0  0  2  0  0  0  0  0  0  0  0  0
   -0.8796    1.6621   -0.6987 C   0  0  1  0  0  0  0  0  0  0  0  0
   -1.0738    2.0817    0.6472 O   0  0  0  0  0  0  0  0  0  0  0  0
   -2.6252   -2.1056   -3.3361 O   0  0  0  0  0  0  0  0  0  0  0  0
   -2.5807   -1.0100   -1.5940 O   0  0  0  0  0  0  0  0  0  0  0  0
   -0.4696   -1.6832   -4.8225 H   0  0  0  0  0  0  0  0  0  0  0  0
    2.1161    1.8868   -2.2673 H   0  0  0  0  0  0  0  0  0  0  0  0
    3.1322    0.8507   -3.2897 H   0  0  0  0  0  0  0  0  0  0  0  0
    2.8744    0.4268   -1.5914 H   0  0  0  0  0  0  0  0  0  0  0  0
    0.8611    0.4865   -0.2408 H   0  0  0  0  0  0  0  0  0  0  0  0
   -0.6210   -0.4240   -0.1457 H   0  0  0  0  0  0  0  0  0  0  0  0
   -0.3196    2.4379   -1.2255 H   0  0  0  0  0  0  0  0  0  0  0  0
   -1.8575    1.5522   -1.1696 H   0  0  0  0  0  0  0  0  0  0  0  0
   -1.6037    1.3646    1.0562 H   0  0  0  0  0  0  0  0  0  0  0  0
  1  2  2  0  0  0  0 
  2  3  1  0  0  0  0 
  3  4  2  0  0  0  0 
  4  5  1  0  0  0  0 
  1  5  1  0  0  0  0 
  1  6  1  0  0  0  0 
  4  7  1  0  0  0  0 
  5  8  1  0  0  0  0 
  8  9  1  0  0  0  0 
  9 10  1  0  0  0  0 
  6 11  1  0  0  0  0 
  6 12  2  0  0  0  0 
  2 13  1  0  0  0  0 
  7 14  1  0  0  0  0 
  7 15  1  0  0  0  0 
  7 16  1  0  0  0  0 
  8 17  1  0  0  0  0 
  8 18  1  0  0  0  0 
  9 19  1  0  0  0  0 
  9 20  1  0  0  0  0 
 10 21  1  0  0  0  0 
M  CHG  1   6   1
M  CHG  1  11  -1
M  END
> <cdk:Title>
metronidazole

> <Conformer>
1

> <SuperDrugID>
SD001590

$$$$
