azasetron
  CDK     0628171801

 44 47  0  0  0  0  0  0  0  0999 V2000
   -0.2860   -1.1287    1.1895 C   0  0  0  0  0  0  0  0  0  0  0  0
   -0.4693   -1.5065   -0.1110 N   0  0  0  0  0  0  0  0  0  0  0  0
   -0.1020    0.0896    1.4330 O   0  0  0  0  0  0  0  0  0  0  0  0
   -0.2990   -2.0589    2.2750 C   0  0  0  0  0  0  0  0  0  0  0  0
   -0.5415   -0.6083   -1.2301 C   0  0  2  0  0  0  0  0  0  0  0  0
   -1.0104   -3.2917    2.2414 C   0  0  0  0  0  0  0  0  0  0  0  0
    0.4038   -1.7358    3.4600 C   0  0  0  0  0  0  0  0  0  0  0  0
   -0.9698   -1.3649   -2.5337 C   0  0  1  0  0  0  0  0  0  0  0  0
    0.8071    0.1518   -1.5193 C   0  0  2  0  0  0  0  0  0  0  0  0
   -1.0665   -4.1558    3.3767 C   0  0  0  0  0  0  0  0  0  0  0  0
   -1.7066   -3.6681    1.1133 O   0  0  0  0  0  0  0  0  0  0  0  0
    0.3847   -2.5858    4.5786 C   0  0  0  0  0  0  0  0  0  0  0  0
   -1.1826   -0.2965   -3.6573 C   0  0  2  0  0  0  0  0  0  0  0  0
    0.1938   -2.3123   -2.9753 C   0  0  2  0  0  0  0  0  0  0  0  0
    1.2321   -0.0013   -2.9563 N   0  0  2  0  0  0  0  0  0  0  0  0
   -1.8001   -5.3424    3.2826 N   0  0  0  0  0  0  0  0  0  0  0  0
   -0.3435   -3.7863    4.5329 C   0  0  0  0  0  0  0  0  0  0  0  0
   -1.6473   -5.0835    0.8284 C   0  0  1  0  0  0  0  0  0  0  0  0
    1.2441   -2.1666    5.9753 Cl  0  0  0  0  0  0  0  0  0  0  0  0
    0.1431    0.5129   -3.8578 C   0  0  2  0  0  0  0  0  0  0  0  0
    1.4764   -1.4573   -3.2526 C   0  0  1  0  0  0  0  0  0  0  0  0
   -2.2878   -6.0375    4.4579 C   0  0  0  0  0  0  0  0  0  0  0  0
   -2.0495   -5.8627    2.0223 C   0  0  0  0  0  0  0  0  0  0  0  0
   -2.5878   -6.9819    1.8385 O   0  0  0  0  0  0  0  0  0  0  0  0
   -1.3243    0.1236   -0.9992 H   0  0  0  0  0  0  0  0  0  0  0  0
   -0.5616   -2.4526   -0.3006 H   0  0  0  0  0  0  0  0  0  0  0  0
    0.9487   -0.8700    3.5143 H   0  0  0  0  0  0  0  0  0  0  0  0
   -1.8910   -1.9328   -2.3740 H   0  0  0  0  0  0  0  0  0  0  0  0
    1.6081   -0.2190   -0.8723 H   0  0  0  0  0  0  0  0  0  0  0  0
    0.6877    1.2154   -1.2866 H   0  0  0  0  0  0  0  0  0  0  0  0
   -1.9954    0.3805   -3.3793 H   0  0  0  0  0  0  0  0  0  0  0  0
   -1.4706   -0.7885   -4.5900 H   0  0  0  0  0  0  0  0  0  0  0  0
   -0.0953   -2.8655   -3.8732 H   0  0  0  0  0  0  0  0  0  0  0  0
    0.3970   -3.0477   -2.1913 H   0  0  0  0  0  0  0  0  0  0  0  0
   -0.3304   -4.4009    5.3504 H   0  0  0  0  0  0  0  0  0  0  0  0
   -2.3212   -5.2884   -0.0053 H   0  0  0  0  0  0  0  0  0  0  0  0
   -0.6354   -5.3745    0.5298 H   0  0  0  0  0  0  0  0  0  0  0  0
   -0.0310    1.5733   -3.6505 H   0  0  0  0  0  0  0  0  0  0  0  0
    0.4687    0.4453   -4.8999 H   0  0  0  0  0  0  0  0  0  0  0  0
    2.3114   -1.8225   -2.6480 H   0  0  0  0  0  0  0  0  0  0  0  0
    1.7779   -1.5717   -4.2977 H   0  0  0  0  0  0  0  0  0  0  0  0
   -2.5436   -5.3425    5.2595 H   0  0  0  0  0  0  0  0  0  0  0  0
   -3.1969   -6.6070    4.2556 H   0  0  0  0  0  0  0  0  0  0  0  0
   -1.5268   -6.7275    4.8233 H   0  0  0  0  0  0  0  0  0  0  0  0
  1  2  1  0  0  0  0 
  1  3  2  0  0  0  0 
  1  4  1  0  0  0  0 
  5  2  1  0  0  0  0 
  4  6  2  0  0  0  0 
  4  7  1  0  0  0  0 
  5  8  1  0  0  0  0 
  5  9  1  0  0  0  0 
  6 10  1  0  0  0  0 
  6 11  1  0  0  0  0 
  7 12  2  0  0  0  0 
  8 13  1  0  0  0  0 
  8 14  1  0  0  0  0 
  9 15  1  0  0  0  0 
 10 16  1  0  0  0  0 
 10 17  2  0  0  0  0 
 11 18  1  0  0  0  0 
 12 17  1  0  0  0  0 
 12 19  1  0  0  0  0 
 13 20  1  0  0  0  0 
 14 21  1  0  0  0  0 
 15 20  1  0  0  0  0 
 15 21  1  0  0  0  0 
 16 22  1  0  0  0  0 
 16 23  1  0  0  0  0 
 18 23  1  0  0  0  0 
 23 24  2  0  0  0  0 
  5 25  1  0  0  0  0 
  2 26  1  0  0  0  0 
  7 27  1  0  0  0  0 
  8 28  1  0  0  0  0 
  9 29  1  0  0  0  0 
  9 30  1  0  0  0  0 
 13 31  1  0  0  0  0 
 13 32  1  0  0  0  0 
 14 33  1  0  0  0  0 
 14 34  1  0  0  0  0 
 17 35  1  0  0  0  0 
 18 36  1  0  0  0  0 
 18 37  1  0  0  0  0 
 20 38  1  0  0  0  0 
 20 39  1  0  0  0  0 
 21 40  1  0  0  0  0 
 21 41  1  0  0  0  0 
 22 42  1  0  0  0  0 
 22 43  1  0  0  0  0 
 22 44  1  0  0  0  0 
M  END
> <cdk:Title>
azasetron

> <Conformer>
1

> <SuperDrugID>
SD000221

$$$$
