paracetamol
  CDK     0628171802

 20 20  0  0  0  0  0  0  0  0999 V2000
    2.5650    2.9683    1.6809 C   0  0  0  0  0  0  0  0  0  0  0  0
    3.6492    3.4884    0.9471 C   0  0  0  0  0  0  0  0  0  0  0  0
    4.8649    3.7797    1.5929 C   0  0  0  0  0  0  0  0  0  0  0  0
    4.9864    3.5521    2.9765 C   0  0  0  0  0  0  0  0  0  0  0  0
    3.8982    3.0421    3.7119 C   0  0  0  0  0  0  0  0  0  0  0  0
    2.6609    2.7644    3.0780 C   0  0  0  0  0  0  0  0  0  0  0  0
    5.9075    4.2712    0.8758 O   0  0  0  0  0  0  0  0  0  0  0  0
    1.5452    2.2848    3.7154 N   0  0  0  0  0  0  0  0  0  0  0  0
    1.1607    2.4368    5.0170 C   0  0  0  0  0  0  0  0  0  0  0  0
   -0.1092    1.8216    5.4502 C   0  0  0  0  0  0  0  0  0  0  0  0
    1.8185    3.1112    5.8436 O   0  0  0  0  0  0  0  0  0  0  0  0
    1.6939    2.7487    1.1869 H   0  0  0  0  0  0  0  0  0  0  0  0
    3.5514    3.6536   -0.0583 H   0  0  0  0  0  0  0  0  0  0  0  0
    5.8707    3.7571    3.4492 H   0  0  0  0  0  0  0  0  0  0  0  0
    4.0298    2.8663    4.7097 H   0  0  0  0  0  0  0  0  0  0  0  0
    6.7051    4.1345    1.4304 H   0  0  0  0  0  0  0  0  0  0  0  0
    0.9212    1.7984    3.1543 H   0  0  0  0  0  0  0  0  0  0  0  0
   -0.3393    2.0685    6.4905 H   0  0  0  0  0  0  0  0  0  0  0  0
   -0.9295    2.1794    4.8235 H   0  0  0  0  0  0  0  0  0  0  0  0
   -0.0411    0.7363    5.3556 H   0  0  0  0  0  0  0  0  0  0  0  0
  1  2  2  0  0  0  0 
  2  3  1  0  0  0  0 
  3  4  2  0  0  0  0 
  4  5  1  0  0  0  0 
  5  6  2  0  0  0  0 
  1  6  1  0  0  0  0 
  3  7  1  0  0  0  0 
  6  8  1  0  0  0  0 
  8  9  1  0  0  0  0 
  9 10  1  0  0  0  0 
  9 11  2  0  0  0  0 
  1 12  1  0  0  0  0 
  2 13  1  0  0  0  0 
  4 14  1  0  0  0  0 
  5 15  1  0  0  0  0 
  7 16  1  0  0  0  0 
  8 17  1  0  0  0  0 
 10 18  1  0  0  0  0 
 10 19  1  0  0  0  0 
 10 20  1  0  0  0  0 
M  END
> <cdk:Title>
paracetamol

> <Conformer>
1

> <SuperDrugID>
SD000029

$$$$
