mebrofenin
  CDK     0628171801

 42 42  0  0  0  0  0  0  0  0999 V2000
   -1.1329   -1.9471    0.9041 N   0  0  0  0  0  0  0  0  0  0  0  0
   -1.9680   -0.8804    0.7676 C   0  0  0  0  0  0  0  0  0  0  0  0
   -0.2070   -2.1679    1.8849 C   0  0  0  0  0  0  0  0  0  0  0  0
   -2.8531   -0.8426   -0.4155 C   0  0  2  0  0  0  0  0  0  0  0  0
   -2.0016    0.0595    1.5971 O   0  0  0  0  0  0  0  0  0  0  0  0
   -0.5244   -2.2451    3.2749 C   0  0  0  0  0  0  0  0  0  0  0  0
    1.1280   -2.3728    1.4410 C   0  0  0  0  0  0  0  0  0  0  0  0
   -3.4533   -2.1890   -0.6901 N   0  0  2  0  0  0  0  0  0  0  0  0
   -1.9295   -2.2025    3.7786 C   0  0  0  0  0  0  0  0  0  0  0  0
    0.5294   -2.4238    4.2133 C   0  0  0  0  0  0  0  0  0  0  0  0
    1.4789   -2.3546   -0.0091 C   0  0  0  0  0  0  0  0  0  0  0  0
    2.1419   -2.6020    2.3953 C   0  0  0  0  0  0  0  0  0  0  0  0
   -3.7815   -2.4734   -2.1221 C   0  0  2  0  0  0  0  0  0  0  0  0
   -4.4712   -2.6671    0.3001 C   0  0  2  0  0  0  0  0  0  0  0  0
    0.1716   -2.3839    6.0533 Br  0  0  0  0  0  0  0  0  0  0  0  0
    1.8620   -2.6383    3.7776 C   0  0  0  0  0  0  0  0  0  0  0  0
   -2.5783   -2.7678   -2.9179 C   0  0  0  0  0  0  0  0  0  0  0  0
   -4.1906   -4.0702    0.6600 C   0  0  0  0  0  0  0  0  0  0  0  0
    2.9571   -2.9157    4.7451 C   0  0  0  0  0  0  0  0  0  0  0  0
   -2.3630   -2.1433   -4.0981 O   0  0  0  0  0  0  0  0  0  0  0  0
   -1.7557   -3.6261   -2.5249 O   0  0  0  0  0  0  0  0  0  0  0  0
   -5.1049   -5.0466    0.4640 O   0  0  0  0  0  0  0  0  0  0  0  0
   -3.0942   -4.3889    1.1736 O   0  0  0  0  0  0  0  0  0  0  0  0
   -1.1589   -2.6053    0.1908 H   0  0  0  0  0  0  0  0  0  0  0  0
   -2.2327   -0.5149   -1.2541 H   0  0  0  0  0  0  0  0  0  0  0  0
   -3.6465   -0.0986   -0.2901 H   0  0  0  0  0  0  0  0  0  0  0  0
   -2.6728   -2.2053    2.9875 H   0  0  0  0  0  0  0  0  0  0  0  0
   -2.0862   -1.3090    4.3863 H   0  0  0  0  0  0  0  0  0  0  0  0
   -2.1310   -3.0887    4.3845 H   0  0  0  0  0  0  0  0  0  0  0  0
    1.2198   -1.3883   -0.4444 H   0  0  0  0  0  0  0  0  0  0  0  0
    2.5398   -2.5284   -0.1900 H   0  0  0  0  0  0  0  0  0  0  0  0
    0.9260   -3.1343   -0.5348 H   0  0  0  0  0  0  0  0  0  0  0  0
    3.1049   -2.7433    2.0734 H   0  0  0  0  0  0  0  0  0  0  0  0
   -4.3301   -1.6325   -2.5547 H   0  0  0  0  0  0  0  0  0  0  0  0
   -4.4183   -3.3568   -2.2047 H   0  0  0  0  0  0  0  0  0  0  0  0
   -5.4821   -2.5677   -0.1082 H   0  0  0  0  0  0  0  0  0  0  0  0
   -4.4440   -2.0845    1.2241 H   0  0  0  0  0  0  0  0  0  0  0  0
    2.7075   -3.7942    5.3432 H   0  0  0  0  0  0  0  0  0  0  0  0
    3.0973   -2.0604    5.4078 H   0  0  0  0  0  0  0  0  0  0  0  0
    3.9112   -3.1177    4.2553 H   0  0  0  0  0  0  0  0  0  0  0  0
   -1.5780   -2.3685   -4.6395 H   0  0  0  0  0  0  0  0  0  0  0  0
   -4.8921   -5.9698    0.7218 H   0  0  0  0  0  0  0  0  0  0  0  0
  1  2  1  0  0  0  0 
  1  3  1  0  0  0  0 
  2  4  1  0  0  0  0 
  2  5  2  0  0  0  0 
  3  6  2  0  0  0  0 
  3  7  1  0  0  0  0 
  4  8  1  0  0  0  0 
  6  9  1  0  0  0  0 
  6 10  1  0  0  0  0 
  7 11  1  0  0  0  0 
  7 12  2  0  0  0  0 
  8 13  1  0  0  0  0 
  8 14  1  0  0  0  0 
 10 15  1  0  0  0  0 
 10 16  2  0  0  0  0 
 12 16  1  0  0  0  0 
 13 17  1  0  0  0  0 
 14 18  1  0  0  0  0 
 16 19  1  0  0  0  0 
 17 20  1  0  0  0  0 
 17 21  2  0  0  0  0 
 18 22  1  0  0  0  0 
 18 23  2  0  0  0  0 
  1 24  1  0  0  0  0 
  4 25  1  0  0  0  0 
  4 26  1  0  0  0  0 
  9 27  1  0  0  0  0 
  9 28  1  0  0  0  0 
  9 29  1  0  0  0  0 
 11 30  1  0  0  0  0 
 11 31  1  0  0  0  0 
 11 32  1  0  0  0  0 
 12 33  1  0  0  0  0 
 13 34  1  0  0  0  0 
 13 35  1  0  0  0  0 
 14 36  1  0  0  0  0 
 14 37  1  0  0  0  0 
 19 38  1  0  0  0  0 
 19 39  1  0  0  0  0 
 19 40  1  0  0  0  0 
 20 41  1  0  0  0  0 
 22 42  1  0  0  0  0 
M  END
> <cdk:Title>
mebrofenin

> <Conformer>
1

> <SuperDrugID>
SD002876

$$$$
