paraoxon
  CDK     0628171802

 32 32  0  0  0  0  0  0  0  0999 V2000
   -3.0758    4.2701    0.5870 P   0  0  2  0  0  0  0  0  0  0  0  0
   -2.2199    3.7078    1.8166 O   0  0  0  0  0  0  0  0  0  0  0  0
   -3.6774    3.0444   -0.2534 O   0  0  0  0  0  0  0  0  0  0  0  0
   -2.1431    5.1880   -0.3308 O   0  0  0  0  0  0  0  0  0  0  0  0
   -4.2013    5.0514    1.1140 O   0  0  0  0  0  0  0  0  0  0  0  0
   -1.2578    2.8099    1.4425 C   0  0  0  0  0  0  0  0  0  0  0  0
   -2.9785    2.6737   -1.4593 C   0  0  1  0  0  0  0  0  0  0  0  0
   -1.7450    6.4502    0.2425 C   0  0  2  0  0  0  0  0  0  0  0  0
    0.0294    3.2336    1.0539 C   0  0  0  0  0  0  0  0  0  0  0  0
   -1.5449    1.4308    1.4683 C   0  0  0  0  0  0  0  0  0  0  0  0
   -3.6621    1.4413   -2.0829 C   0  0  0  0  0  0  0  0  0  0  0  0
   -0.6282    7.0425   -0.6376 C   0  0  0  0  0  0  0  0  0  0  0  0
    0.9990    2.2930    0.6610 C   0  0  0  0  0  0  0  0  0  0  0  0
   -0.5741    0.4950    1.0714 C   0  0  0  0  0  0  0  0  0  0  0  0
    0.7211    0.9009    0.6553 C   0  0  0  0  0  0  0  0  0  0  0  0
    1.6527    0.0068    0.2697 N   0  0  0  0  0  0  0  0  0  0  0  0
    2.8131    0.3492   -0.1257 O   0  0  0  0  0  0  0  0  0  0  0  0
    1.4641   -1.1466    0.2606 O   0  0  0  0  0  0  0  0  0  0  0  0
   -3.0152    3.4893   -2.1871 H   0  0  0  0  0  0  0  0  0  0  0  0
   -1.9326    2.4224   -1.2650 H   0  0  0  0  0  0  0  0  0  0  0  0
   -1.3553    6.3467    1.2609 H   0  0  0  0  0  0  0  0  0  0  0  0
   -2.5903    7.1455    0.2558 H   0  0  0  0  0  0  0  0  0  0  0  0
    0.2594    4.2299    1.0473 H   0  0  0  0  0  0  0  0  0  0  0  0
   -2.4685    1.1043    1.7596 H   0  0  0  0  0  0  0  0  0  0  0  0
   -3.0853    1.0924   -2.9423 H   0  0  0  0  0  0  0  0  0  0  0  0
   -3.7294    0.6319   -1.3528 H   0  0  0  0  0  0  0  0  0  0  0  0
   -4.6677    1.7025   -2.4176 H   0  0  0  0  0  0  0  0  0  0  0  0
   -0.3102    8.0114   -0.2459 H   0  0  0  0  0  0  0  0  0  0  0  0
    0.2316    6.3692   -0.6477 H   0  0  0  0  0  0  0  0  0  0  0  0
   -0.9853    7.1750   -1.6610 H   0  0  0  0  0  0  0  0  0  0  0  0
    1.9151    2.6444    0.3749 H   0  0  0  0  0  0  0  0  0  0  0  0
   -0.8247   -0.4961    1.0851 H   0  0  0  0  0  0  0  0  0  0  0  0
  1  2  1  0  0  0  0 
  1  3  1  0  0  0  0 
  1  4  1  0  0  0  0 
  1  5  2  0  0  0  0 
  2  6  1  0  0  0  0 
  3  7  1  0  0  0  0 
  4  8  1  0  0  0  0 
  6  9  2  0  0  0  0 
  6 10  1  0  0  0  0 
  7 11  1  0  0  0  0 
  8 12  1  0  0  0  0 
  9 13  1  0  0  0  0 
 10 14  2  0  0  0  0 
 13 15  2  0  0  0  0 
 14 15  1  0  0  0  0 
 15 16  1  0  0  0  0 
 16 17  1  0  0  0  0 
 16 18  2  0  0  0  0 
  7 19  1  0  0  0  0 
  7 20  1  0  0  0  0 
  8 21  1  0  0  0  0 
  8 22  1  0  0  0  0 
  9 23  1  0  0  0  0 
 10 24  1  0  0  0  0 
 11 25  1  0  0  0  0 
 11 26  1  0  0  0  0 
 11 27  1  0  0  0  0 
 12 28  1  0  0  0  0 
 12 29  1  0  0  0  0 
 12 30  1  0  0  0  0 
 13 31  1  0  0  0  0 
 14 32  1  0  0  0  0 
M  CHG  1  16   1
M  CHG  1  17  -1
M  END
> <cdk:Title>
paraoxon

> <Conformer>
1

> <SuperDrugID>
SD003713

$$$$
