chlormidazole
  CDK     0628171801

 31 33  0  0  0  0  0  0  0  0999 V2000
    0.0358    0.5941    0.5834 C   0  0  1  0  0  0  0  0  0  0  0  0
    1.2013    0.8900    1.3817 N   0  0  0  0  0  0  0  0  0  0  0  0
    0.1438   -0.7222   -0.1041 C   0  0  0  0  0  0  0  0  0  0  0  0
    1.6291    0.2016    2.4638 C   0  0  0  0  0  0  0  0  0  0  0  0
    2.0918    1.9040    1.2010 C   0  0  0  0  0  0  0  0  0  0  0  0
   -0.8136   -1.7422    0.1066 C   0  0  0  0  0  0  0  0  0  0  0  0
    1.2237   -0.9816   -0.9811 C   0  0  0  0  0  0  0  0  0  0  0  0
    2.8113    0.7977    2.8969 C   0  0  0  0  0  0  0  0  0  0  0  0
    1.1045   -0.9149    3.1485 C   0  0  0  0  0  0  0  0  0  0  0  0
    2.0466    2.9557    0.1688 C   0  0  0  0  0  0  0  0  0  0  0  0
    3.0805    1.8483    2.1168 N   0  0  0  0  0  0  0  0  0  0  0  0
   -0.6677   -3.0033   -0.5007 C   0  0  0  0  0  0  0  0  0  0  0  0
    1.3753   -2.2426   -1.5868 C   0  0  0  0  0  0  0  0  0  0  0  0
    3.5322    0.2996    3.9940 C   0  0  0  0  0  0  0  0  0  0  0  0
    1.8146   -1.4272    4.2562 C   0  0  0  0  0  0  0  0  0  0  0  0
    0.4373   -3.2621   -1.3346 C   0  0  0  0  0  0  0  0  0  0  0  0
    3.0243   -0.8268    4.6726 C   0  0  0  0  0  0  0  0  0  0  0  0
    0.6430   -4.7958   -2.0234 Cl  0  0  0  0  0  0  0  0  0  0  0  0
   -0.8400    0.6369    1.2393 H   0  0  0  0  0  0  0  0  0  0  0  0
   -0.1169    1.3491   -0.1920 H   0  0  0  0  0  0  0  0  0  0  0  0
   -1.6235   -1.5761    0.7094 H   0  0  0  0  0  0  0  0  0  0  0  0
    1.9145   -0.2543   -1.1805 H   0  0  0  0  0  0  0  0  0  0  0  0
    0.2253   -1.3461    2.8600 H   0  0  0  0  0  0  0  0  0  0  0  0
    2.9105    3.6166    0.2588 H   0  0  0  0  0  0  0  0  0  0  0  0
    2.0607    2.5050   -0.8248 H   0  0  0  0  0  0  0  0  0  0  0  0
    1.1384    3.5519    0.2870 H   0  0  0  0  0  0  0  0  0  0  0  0
   -1.3675   -3.7298   -0.3283 H   0  0  0  0  0  0  0  0  0  0  0  0
    2.1722   -2.4128   -2.2072 H   0  0  0  0  0  0  0  0  0  0  0  0
    4.4037    0.7455    4.2878 H   0  0  0  0  0  0  0  0  0  0  0  0
    1.4509   -2.2390    4.7608 H   0  0  0  0  0  0  0  0  0  0  0  0
    3.5352   -1.2098    5.4720 H   0  0  0  0  0  0  0  0  0  0  0  0
  1  2  1  0  0  0  0 
  1  3  1  0  0  0  0 
  2  4  1  0  0  0  0 
  2  5  1  0  0  0  0 
  3  6  2  0  0  0  0 
  3  7  1  0  0  0  0 
  4  8  1  0  0  0  0 
  4  9  2  0  0  0  0 
  5 10  1  0  0  0  0 
  5 11  2  0  0  0  0 
  6 12  1  0  0  0  0 
  7 13  2  0  0  0  0 
  8 11  1  0  0  0  0 
  8 14  2  0  0  0  0 
  9 15  1  0  0  0  0 
 12 16  2  0  0  0  0 
 13 16  1  0  0  0  0 
 14 17  1  0  0  0  0 
 15 17  2  0  0  0  0 
 16 18  1  0  0  0  0 
  1 19  1  0  0  0  0 
  1 20  1  0  0  0  0 
  6 21  1  0  0  0  0 
  7 22  1  0  0  0  0 
  9 23  1  0  0  0  0 
 10 24  1  0  0  0  0 
 10 25  1  0  0  0  0 
 10 26  1  0  0  0  0 
 12 27  1  0  0  0  0 
 13 28  1  0  0  0  0 
 14 29  1  0  0  0  0 
 15 30  1  0  0  0  0 
 17 31  1  0  0  0  0 
M  END
> <cdk:Title>
chlormidazole

> <Conformer>
1

> <SuperDrugID>
SD002682

$$$$
