stallimycin
  CDK     0628171801

 62 64  0  0  0  0  0  0  0  0999 V2000
   -0.2741   -5.6279    1.3122 C   0  0  0  0  0  0  0  0  0  0  0  0
   -0.5782   -4.3254    1.0331 N   0  0  0  0  0  0  0  0  0  0  0  0
    0.8658   -6.0918    1.0813 O   0  0  0  0  0  0  0  0  0  0  0  0
   -1.2732   -6.4480    1.9127 C   0  0  0  0  0  0  0  0  0  0  0  0
    0.1993   -3.3154    0.5636 C   0  0  0  0  0  0  0  0  0  0  0  0
   -2.6084   -6.0592    2.0594 C   0  0  0  0  0  0  0  0  0  0  0  0
   -1.1601   -7.6833    2.4763 N   0  0  0  0  0  0  0  0  0  0  0  0
   -0.3123   -2.0618    0.2666 C   0  0  0  0  0  0  0  0  0  0  0  0
    1.5641   -3.2256    0.3090 C   0  0  0  0  0  0  0  0  0  0  0  0
   -3.2981   -7.0419    2.7582 C   0  0  0  0  0  0  0  0  0  0  0  0
    0.0134   -8.5085    2.5423 C   0  0  0  0  0  0  0  0  0  0  0  0
   -2.3583   -8.0345    3.0018 C   0  0  0  0  0  0  0  0  0  0  0  0
    0.7289   -1.2329   -0.1586 C   0  0  0  0  0  0  0  0  0  0  0  0
    1.8697   -1.9768   -0.1152 N   0  0  0  0  0  0  0  0  0  0  0  0
   -4.5888   -7.0519    3.1979 N   0  0  0  0  0  0  0  0  0  0  0  0
    0.5604    0.1244   -0.5467 C   0  0  0  0  0  0  0  0  0  0  0  0
    3.2021   -1.5525   -0.4404 C   0  0  0  0  0  0  0  0  0  0  0  0
   -5.6258   -6.2982    2.7290 C   0  0  0  0  0  0  0  0  0  0  0  0
   -0.6531    0.7349   -0.4171 N   0  0  0  0  0  0  0  0  0  0  0  0
    1.5292    0.7678   -1.0140 O   0  0  0  0  0  0  0  0  0  0  0  0
   -5.4958   -5.6607    1.6554 O   0  0  0  0  0  0  0  0  0  0  0  0
   -6.8695   -6.1955    3.4141 C   0  0  0  0  0  0  0  0  0  0  0  0
   -0.9455    2.0855   -0.7735 C   0  0  1  0  0  0  0  0  0  0  0  0
   -7.9319   -5.4093    2.9536 C   0  0  0  0  0  0  0  0  0  0  0  0
   -7.2702   -6.7536    4.5888 N   0  0  0  0  0  0  0  0  0  0  0  0
   -2.4314    2.4128   -0.4747 C   0  0  1  0  0  0  0  0  0  0  0  0
   -8.9797   -5.4866    3.8616 C   0  0  0  0  0  0  0  0  0  0  0  0
   -6.5149   -7.6636    5.4622 C   0  0  0  0  0  0  0  0  0  0  0  0
   -8.5238   -6.3323    4.8615 C   0  0  0  0  0  0  0  0  0  0  0  0
   -2.7668    3.8097   -0.6885 C   0  0  0  0  0  0  0  0  0  0  0  0
  -10.2107   -4.9046    3.8507 N   0  0  0  0  0  0  0  0  0  0  0  0
   -2.2830    4.7214    0.0670 N   0  0  0  0  0  0  0  0  0  0  0  0
   -3.5834    4.1794   -1.6537 N   0  0  0  0  0  0  0  0  0  0  0  0
  -10.6324   -3.8773    3.0694 C   0  0  0  0  0  0  0  0  0  0  0  0
   -9.9065   -3.2854    2.2396 O   0  0  0  0  0  0  0  0  0  0  0  0
   -1.4920   -4.0656    1.2129 H   0  0  0  0  0  0  0  0  0  0  0  0
   -3.0116   -5.1800    1.7285 H   0  0  0  0  0  0  0  0  0  0  0  0
   -1.2965   -1.7960    0.3532 H   0  0  0  0  0  0  0  0  0  0  0  0
    2.2364   -3.9860    0.4358 H   0  0  0  0  0  0  0  0  0  0  0  0
    0.3644   -8.7422    1.5342 H   0  0  0  0  0  0  0  0  0  0  0  0
    0.8031   -7.9845    3.0820 H   0  0  0  0  0  0  0  0  0  0  0  0
   -0.1785   -9.4529    3.0599 H   0  0  0  0  0  0  0  0  0  0  0  0
   -2.5559   -8.9015    3.5117 H   0  0  0  0  0  0  0  0  0  0  0  0
   -4.7745   -7.6528    3.9312 H   0  0  0  0  0  0  0  0  0  0  0  0
    3.2590   -1.2702   -1.4935 H   0  0  0  0  0  0  0  0  0  0  0  0
    3.4770   -0.6948    0.1757 H   0  0  0  0  0  0  0  0  0  0  0  0
    3.9420   -2.3374   -0.2622 H   0  0  0  0  0  0  0  0  0  0  0  0
   -1.3793    0.2157   -0.0429 H   0  0  0  0  0  0  0  0  0  0  0  0
   -0.2927    2.7546   -0.2063 H   0  0  0  0  0  0  0  0  0  0  0  0
   -0.7569    2.2233   -1.8412 H   0  0  0  0  0  0  0  0  0  0  0  0
   -7.9353   -4.8642    2.0888 H   0  0  0  0  0  0  0  0  0  0  0  0
   -3.0551    1.7772   -1.1123 H   0  0  0  0  0  0  0  0  0  0  0  0
   -2.6649    2.1593    0.5638 H   0  0  0  0  0  0  0  0  0  0  0  0
   -5.5052   -7.3331    5.8356 H   0  0  0  0  0  0  0  0  0  0  0  0
   -7.0990   -7.9140    6.3514 H   0  0  0  0  0  0  0  0  0  0  0  0
   -6.3723   -8.5996    4.9188 H   0  0  0  0  0  0  0  0  0  0  0  0
   -9.0660   -6.5900    5.6885 H   0  0  0  0  0  0  0  0  0  0  0  0
  -10.8556   -5.2553    4.4831 H   0  0  0  0  0  0  0  0  0  0  0  0
   -2.5024    5.6217   -0.0701 H   0  0  0  0  0  0  0  0  0  0  0  0
   -3.9585    3.5191   -2.2578 H   0  0  0  0  0  0  0  0  0  0  0  0
   -3.8096    5.1161   -1.7640 H   0  0  0  0  0  0  0  0  0  0  0  0
  -11.5955   -3.5507    3.1684 H   0  0  0  0  0  0  0  0  0  0  0  0
  1  2  1  0  0  0  0 
  1  3  2  0  0  0  0 
  1  4  1  0  0  0  0 
  2  5  1  0  0  0  0 
  4  6  2  0  0  0  0 
  4  7  1  0  0  0  0 
  5  8  1  0  0  0  0 
  5  9  2  0  0  0  0 
  6 10  1  0  0  0  0 
  7 11  1  0  0  0  0 
  7 12  1  0  0  0  0 
  8 13  2  0  0  0  0 
  9 14  1  0  0  0  0 
 10 12  2  0  0  0  0 
 10 15  1  0  0  0  0 
 13 14  1  0  0  0  0 
 13 16  1  0  0  0  0 
 14 17  1  0  0  0  0 
 15 18  1  0  0  0  0 
 16 19  1  0  0  0  0 
 16 20  2  0  0  0  0 
 18 21  2  0  0  0  0 
 18 22  1  0  0  0  0 
 19 23  1  0  0  0  0 
 22 24  2  0  0  0  0 
 22 25  1  0  0  0  0 
 23 26  1  0  0  0  0 
 24 27  1  0  0  0  0 
 25 28  1  0  0  0  0 
 25 29  1  0  0  0  0 
 26 30  1  0  0  0  0 
 27 29  2  0  0  0  0 
 27 31  1  0  0  0  0 
 30 32  2  0  0  0  0 
 30 33  1  0  0  0  0 
 31 34  1  0  0  0  0 
 34 35  2  0  0  0  0 
 36  2  1  0  0  0  0 
 37  6  1  0  0  0  0 
 38  8  1  0  0  0  0 
 39  9  1  0  0  0  0 
 40 11  1  0  0  0  0 
 41 11  1  0  0  0  0 
 42 11  1  0  0  0  0 
 43 12  1  0  0  0  0 
 44 15  1  0  0  0  0 
 45 17  1  0  0  0  0 
 46 17  1  0  0  0  0 
 47 17  1  0  0  0  0 
 48 19  1  0  0  0  0 
 49 23  1  0  0  0  0 
 50 23  1  0  0  0  0 
 51 24  1  0  0  0  0 
 52 26  1  0  0  0  0 
 53 26  1  0  0  0  0 
 54 28  1  0  0  0  0 
 55 28  1  0  0  0  0 
 56 28  1  0  0  0  0 
 57 29  1  0  0  0  0 
 58 31  1  0  0  0  0 
 59 32  1  0  0  0  0 
 60 33  1  0  0  0  0 
 61 33  1  0  0  0  0 
 62 34  1  0  0  0  0 
M  END
> <cdk:Title>
stallimycin

> <Conformer>
1

> <SuperDrugID>
SD003056

$$$$
