monoxerutin
  CDK     0628171801

 80 84  0  0  0  0  0  0  0  0999 V2000
    2.0810   -5.8225   -6.2492 O   0  0  0  0  0  0  0  0  0  0  0  0
    2.4209   -6.5452   -5.1310 C   0  0  0  0  0  0  0  0  0  0  0  0
    2.5825   -4.4642   -6.2376 C   0  0  2  0  0  0  0  0  0  0  0  0
    3.6378   -7.2558   -5.0620 C   0  0  0  0  0  0  0  0  0  0  0  0
    1.5546   -6.5688   -4.0172 C   0  0  0  0  0  0  0  0  0  0  0  0
    2.0207   -3.7495   -5.1139 O   0  0  0  0  0  0  0  0  0  0  0  0
    2.1730   -3.7773   -7.5681 C   0  0  2  0  0  0  0  0  0  0  0  0
    3.9704   -7.8742   -3.8914 O   0  0  0  0  0  0  0  0  0  0  0  0
    4.5336   -7.3239   -6.1482 C   0  0  0  0  0  0  0  0  0  0  0  0
    0.3669   -5.9264   -4.1423 O   0  0  0  0  0  0  0  0  0  0  0  0
    1.9192   -7.2155   -2.8096 C   0  0  0  0  0  0  0  0  0  0  0  0
    2.4186   -2.3702   -4.9879 C   0  0  2  0  0  0  0  0  0  0  0  0
    2.8297   -4.4252   -8.6570 O   0  0  0  0  0  0  0  0  0  0  0  0
    2.5407   -2.2680   -7.5445 C   0  0  2  0  0  0  0  0  0  0  0  0
    3.1781   -7.8725   -2.7801 C   0  0  0  0  0  0  0  0  0  0  0  0
    4.1153   -7.8339   -7.4053 C   0  0  0  0  0  0  0  0  0  0  0  0
    5.8543   -6.8612   -5.9796 C   0  0  0  0  0  0  0  0  0  0  0  0
    1.1159   -7.2389   -1.6382 C   0  0  0  0  0  0  0  0  0  0  0  0
    1.7372   -1.8150   -3.7119 C   0  0  1  0  0  0  0  0  0  0  0  0
    2.0005   -1.5765   -6.2640 C   0  0  2  0  0  0  0  0  0  0  0  0
    2.0194   -1.6156   -8.7018 O   0  0  0  0  0  0  0  0  0  0  0  0
    3.6251   -8.5265   -1.6178 C   0  0  0  0  0  0  0  0  0  0  0  0
    4.9739   -7.8847   -8.5268 C   0  0  0  0  0  0  0  0  0  0  0  0
    6.7306   -6.9120   -7.1712 C   0  0  0  0  0  0  0  0  0  0  0  0
   -0.0165   -6.7018   -1.5886 O   0  0  0  0  0  0  0  0  0  0  0  0
    1.5813   -7.8771   -0.4703 C   0  0  0  0  0  0  0  0  0  0  0  0
    2.1654   -2.5366   -2.5310 O   0  0  0  0  0  0  0  0  0  0  0  0
    2.4712   -0.2290   -6.2075 O   0  0  0  0  0  0  0  0  0  0  0  0
    2.8389   -8.5116   -0.4491 C   0  0  0  0  0  0  0  0  0  0  0  0
    4.5102   -8.4003   -9.6897 O   0  0  0  0  0  0  0  0  0  0  0  0
    6.2987   -7.4155   -8.4558 C   0  0  0  0  0  0  0  0  0  0  0  0
    1.5889   -2.0585   -1.2917 C   0  0  1  0  0  0  0  0  0  0  0  0
    3.2763   -9.1310    0.6931 O   0  0  0  0  0  0  0  0  0  0  0  0
    7.1232   -7.4295   -9.5332 O   0  0  0  0  0  0  0  0  0  0  0  0
    2.1319   -2.8958   -0.0993 C   0  0  2  0  0  0  0  0  0  0  0  0
    1.9439   -0.6652   -1.1189 O   0  0  0  0  0  0  0  0  0  0  0  0
    4.0343   -8.2581    1.5555 C   0  0  1  0  0  0  0  0  0  0  0  0
    1.7086   -4.2533   -0.2077 O   0  0  0  0  0  0  0  0  0  0  0  0
    1.6807   -2.3084    1.2696 C   0  0  2  0  0  0  0  0  0  0  0  0
    1.4801   -0.0185    0.0846 C   0  0  2  0  0  0  0  0  0  0  0  0
    4.4515   -9.0339    2.8194 C   0  0  1  0  0  0  0  0  0  0  0  0
    0.2971   -2.5801    1.4999 O   0  0  0  0  0  0  0  0  0  0  0  0
    1.9701   -0.7827    1.3522 C   0  0  2  0  0  0  0  0  0  0  0  0
   -0.0454    0.2678    0.0626 C   0  0  0  0  0  0  0  0  0  0  0  0
    5.2084   -8.1946    3.6850 O   0  0  0  0  0  0  0  0  0  0  0  0
    3.3796   -0.5936    1.4914 O   0  0  0  0  0  0  0  0  0  0  0  0
    3.6774   -4.4652   -6.1668 H   0  0  0  0  0  0  0  0  0  0  0  0
    1.0923   -3.8845   -7.7056 H   0  0  0  0  0  0  0  0  0  0  0  0
    0.4506   -5.1395   -3.5644 H   0  0  0  0  0  0  0  0  0  0  0  0
    3.5059   -2.3101   -4.8571 H   0  0  0  0  0  0  0  0  0  0  0  0
    2.4898   -3.9818   -9.4632 H   0  0  0  0  0  0  0  0  0  0  0  0
    3.6295   -2.1674   -7.5721 H   0  0  0  0  0  0  0  0  0  0  0  0
    3.1606   -8.1833   -7.5133 H   0  0  0  0  0  0  0  0  0  0  0  0
    6.2006   -6.4883   -5.0910 H   0  0  0  0  0  0  0  0  0  0  0  0
    2.0048   -0.7597   -3.6177 H   0  0  0  0  0  0  0  0  0  0  0  0
    0.6506   -1.8921   -3.8262 H   0  0  0  0  0  0  0  0  0  0  0  0
    0.9079   -1.5461   -6.3217 H   0  0  0  0  0  0  0  0  0  0  0  0
    1.0471   -1.7306   -8.6463 H   0  0  0  0  0  0  0  0  0  0  0  0
    4.5255   -9.0130   -1.6199 H   0  0  0  0  0  0  0  0  0  0  0  0
    7.7465   -6.5772   -7.1904 H   0  0  0  0  0  0  0  0  0  0  0  0
    1.0037   -7.8807    0.3730 H   0  0  0  0  0  0  0  0  0  0  0  0
    3.4481   -0.2969   -6.1556 H   0  0  0  0  0  0  0  0  0  0  0  0
    4.7261   -9.3543   -9.6393 H   0  0  0  0  0  0  0  0  0  0  0  0
    0.5013   -2.1766   -1.3405 H   0  0  0  0  0  0  0  0  0  0  0  0
    7.6033   -8.2809   -9.4669 H   0  0  0  0  0  0  0  0  0  0  0  0
    3.2240   -2.8848   -0.1398 H   0  0  0  0  0  0  0  0  0  0  0  0
    4.9373   -7.9050    1.0480 H   0  0  0  0  0  0  0  0  0  0  0  0
    3.4374   -7.3914    1.8574 H   0  0  0  0  0  0  0  0  0  0  0  0
    2.0889   -4.7012    0.5782 H   0  0  0  0  0  0  0  0  0  0  0  0
    2.2284   -2.8114    2.0716 H   0  0  0  0  0  0  0  0  0  0  0  0
    1.9641    0.9629    0.0810 H   0  0  0  0  0  0  0  0  0  0  0  0
    3.5658   -9.3836    3.3555 H   0  0  0  0  0  0  0  0  0  0  0  0
    5.0627   -9.8956    2.5411 H   0  0  0  0  0  0  0  0  0  0  0  0
    0.1127   -2.2457    2.4030 H   0  0  0  0  0  0  0  0  0  0  0  0
    1.4986   -0.3669    2.2482 H   0  0  0  0  0  0  0  0  0  0  0  0
   -0.3253    0.8516    0.9403 H   0  0  0  0  0  0  0  0  0  0  0  0
   -0.2946    0.8454   -0.8289 H   0  0  0  0  0  0  0  0  0  0  0  0
   -0.6403   -0.6459    0.0594 H   0  0  0  0  0  0  0  0  0  0  0  0
    5.4252   -8.7610    4.4550 H   0  0  0  0  0  0  0  0  0  0  0  0
    3.5018    0.3783    1.5213 H   0  0  0  0  0  0  0  0  0  0  0  0
  1  2  1  0  0  0  0 
  2  4  2  0  0  0  0 
  2  5  1  0  0  0  0 
  3  1  1  0  0  0  0 
  3  6  1  0  0  0  0 
  7  3  1  0  0  0  0 
  4  8  1  0  0  0  0 
  4  9  1  0  0  0  0 
  5 10  1  0  0  0  0 
  5 11  2  0  0  0  0 
 12  6  1  0  0  0  0 
  7 13  1  0  0  0  0 
  7 14  1  0  0  0  0 
  8 15  1  0  0  0  0 
  9 16  2  0  0  0  0 
  9 17  1  0  0  0  0 
 11 15  1  0  0  0  0 
 11 18  1  0  0  0  0 
 12 19  1  0  0  0  0 
 20 12  1  0  0  0  0 
 14 20  1  0  0  0  0 
 14 21  1  0  0  0  0 
 15 22  2  0  0  0  0 
 16 23  1  0  0  0  0 
 17 24  2  0  0  0  0 
 18 25  2  0  0  0  0 
 18 26  1  0  0  0  0 
 19 27  1  0  0  0  0 
 20 28  1  0  0  0  0 
 22 29  1  0  0  0  0 
 23 30  1  0  0  0  0 
 23 31  2  0  0  0  0 
 24 31  1  0  0  0  0 
 26 29  2  0  0  0  0 
 29 33  1  0  0  0  0 
 31 34  1  0  0  0  0 
 32 27  1  0  0  0  0 
 35 32  1  0  0  0  0 
 32 36  1  0  0  0  0 
 33 37  1  0  0  0  0 
 35 38  1  0  0  0  0 
 35 39  1  0  0  0  0 
 40 36  1  0  0  0  0 
 37 41  1  0  0  0  0 
 39 42  1  0  0  0  0 
 39 43  1  0  0  0  0 
 43 40  1  0  0  0  0 
 40 44  1  0  0  0  0 
 41 45  1  0  0  0  0 
 43 46  1  0  0  0  0 
  3 47  1  0  0  0  0 
  7 48  1  0  0  0  0 
 49 10  1  0  0  0  0 
 12 50  1  0  0  0  0 
 51 13  1  0  0  0  0 
 14 52  1  0  0  0  0 
 53 16  1  0  0  0  0 
 54 17  1  0  0  0  0 
 55 19  1  0  0  0  0 
 56 19  1  0  0  0  0 
 20 57  1  0  0  0  0 
 58 21  1  0  0  0  0 
 59 22  1  0  0  0  0 
 60 24  1  0  0  0  0 
 61 26  1  0  0  0  0 
 62 28  1  0  0  0  0 
 63 30  1  0  0  0  0 
 32 64  1  0  0  0  0 
 65 34  1  0  0  0  0 
 35 66  1  0  0  0  0 
 67 37  1  0  0  0  0 
 68 37  1  0  0  0  0 
 69 38  1  0  0  0  0 
 39 70  1  0  0  0  0 
 40 71  1  0  0  0  0 
 72 41  1  0  0  0  0 
 73 41  1  0  0  0  0 
 74 42  1  0  0  0  0 
 43 75  1  0  0  0  0 
 76 44  1  0  0  0  0 
 77 44  1  0  0  0  0 
 78 44  1  0  0  0  0 
 79 45  1  0  0  0  0 
 80 46  1  0  0  0  0 
M  END
> <cdk:Title>
monoxerutin

> <Conformer>
1

> <SuperDrugID>
SD001633

$$$$
