misoprostol
  CDK     0628171801

 65 65  0  0  0  0  0  0  0  0999 V2000
   -8.3323    4.7418    3.0988 C   0  0  0  0  0  0  0  0  0  0  0  0
   -8.2905    5.7564    4.1429 C   0  0  2  0  0  0  0  0  0  0  0  0
   -8.7817    7.0019    3.3801 C   0  0  2  0  0  0  0  0  0  0  0  0
   -8.5119    6.7411    1.8589 C   0  0  1  0  0  0  0  0  0  0  0  0
   -7.9857    5.2644    1.7693 C   0  0  1  0  0  0  0  0  0  0  0  0
   -6.4515    5.1612    1.4836 C   0  0  2  0  0  0  0  0  0  0  0  0
   -9.6651    7.0118    0.9945 C   0  0  0  0  0  0  0  0  0  0  0  0
   -8.7542    3.5776    3.2926 O   0  0  0  0  0  0  0  0  0  0  0  0
   -8.1157    8.1787    3.8409 O   0  0  0  0  0  0  0  0  0  0  0  0
   -9.8511    7.1277    3.5776 H   0  0  0  0  0  0  0  0  0  0  0  0
   -5.9201    3.7007    1.4294 C   0  0  2  0  0  0  0  0  0  0  0  0
   -8.5118    4.6820    1.0033 H   0  0  0  0  0  0  0  0  0  0  0  0
   -7.7230    7.4217    1.5191 H   0  0  0  0  0  0  0  0  0  0  0  0
  -10.2933    8.1986    0.9449 C   0  0  0  0  0  0  0  0  0  0  0  0
  -11.3831    8.4752    0.0192 C   0  0  2  0  0  0  0  0  0  0  0  0
  -10.9164    8.8711   -1.4257 C   0  0  1  0  0  0  0  0  0  0  0  0
  -10.0449   10.1768   -1.4068 C   0  0  1  0  0  0  0  0  0  0  0  0
  -10.1373    7.7941   -1.9576 O   0  0  0  0  0  0  0  0  0  0  0  0
  -12.1736    9.0150   -2.3337 C   0  0  0  0  0  0  0  0  0  0  0  0
   -9.4976   10.6676   -2.7784 C   0  0  1  0  0  0  0  0  0  0  0  0
   -8.6284   11.9485   -2.6468 C   0  0  2  0  0  0  0  0  0  0  0  0
   -8.1118   12.4788   -4.0029 C   0  0  0  0  0  0  0  0  0  0  0  0
   -4.3774    3.6127    1.2959 C   0  0  2  0  0  0  0  0  0  0  0  0
   -3.8796    2.1417    1.2822 C   0  0  2  0  0  0  0  0  0  0  0  0
   -2.3357    2.0318    1.2095 C   0  0  1  0  0  0  0  0  0  0  0  0
   -1.8431    0.5604    1.2286 C   0  0  2  0  0  0  0  0  0  0  0  0
   -0.3703    0.4811    1.2008 C   0  0  0  0  0  0  0  0  0  0  0  0
    0.2533   -0.0323    0.1012 O   0  0  0  0  0  0  0  0  0  0  0  0
    0.2902    0.8902    2.1849 O   0  0  0  0  0  0  0  0  0  0  0  0
    1.6667   -0.0994   -0.1094 C   0  0  0  0  0  0  0  0  0  0  0  0
   -7.2623    5.8813    4.4904 H   0  0  0  0  0  0  0  0  0  0  0  0
   -8.9344    5.5006    4.9887 H   0  0  0  0  0  0  0  0  0  0  0  0
   -5.9006    5.7177    2.2480 H   0  0  0  0  0  0  0  0  0  0  0  0
   -6.2452    5.6342    0.5196 H   0  0  0  0  0  0  0  0  0  0  0  0
   -9.9866    6.2937    0.3873 H   0  0  0  0  0  0  0  0  0  0  0  0
   -8.3586    8.2582    4.7877 H   0  0  0  0  0  0  0  0  0  0  0  0
   -6.3862    3.1873    0.5829 H   0  0  0  0  0  0  0  0  0  0  0  0
   -6.2107    3.1780    2.3447 H   0  0  0  0  0  0  0  0  0  0  0  0
   -9.9890    8.9327    1.5424 H   0  0  0  0  0  0  0  0  0  0  0  0
  -11.9938    9.2814    0.4358 H   0  0  0  0  0  0  0  0  0  0  0  0
  -12.0314    7.5939   -0.0294 H   0  0  0  0  0  0  0  0  0  0  0  0
  -10.6340   10.9869   -0.9672 H   0  0  0  0  0  0  0  0  0  0  0  0
   -9.1801   10.0088   -0.7586 H   0  0  0  0  0  0  0  0  0  0  0  0
   -9.9283    8.0513   -2.8789 H   0  0  0  0  0  0  0  0  0  0  0  0
  -11.8898    9.1582   -3.3757 H   0  0  0  0  0  0  0  0  0  0  0  0
  -12.7853    8.1135   -2.2877 H   0  0  0  0  0  0  0  0  0  0  0  0
  -12.7849    9.8633   -2.0195 H   0  0  0  0  0  0  0  0  0  0  0  0
   -8.8975    9.8759   -3.2354 H   0  0  0  0  0  0  0  0  0  0  0  0
  -10.3328   10.8920   -3.4449 H   0  0  0  0  0  0  0  0  0  0  0  0
   -7.7677   11.7372   -2.0079 H   0  0  0  0  0  0  0  0  0  0  0  0
   -9.2164   12.7391   -2.1731 H   0  0  0  0  0  0  0  0  0  0  0  0
   -7.5296   13.3907   -3.8477 H   0  0  0  0  0  0  0  0  0  0  0  0
   -7.4719   11.7349   -4.4822 H   0  0  0  0  0  0  0  0  0  0  0  0
   -8.9508   12.7099   -4.6627 H   0  0  0  0  0  0  0  0  0  0  0  0
   -3.9217    4.1379    2.1406 H   0  0  0  0  0  0  0  0  0  0  0  0
   -4.0669    4.1125    0.3733 H   0  0  0  0  0  0  0  0  0  0  0  0
   -4.3148    1.6260    0.4212 H   0  0  0  0  0  0  0  0  0  0  0  0
   -4.2247    1.6433    2.1922 H   0  0  0  0  0  0  0  0  0  0  0  0
   -1.9890    2.5124    0.2897 H   0  0  0  0  0  0  0  0  0  0  0  0
   -1.9060    2.5676    2.0614 H   0  0  0  0  0  0  0  0  0  0  0  0
   -2.2525    0.0368    0.3598 H   0  0  0  0  0  0  0  0  0  0  0  0
   -2.2083    0.0541    2.1269 H   0  0  0  0  0  0  0  0  0  0  0  0
    2.0893    0.9067   -0.1431 H   0  0  0  0  0  0  0  0  0  0  0  0
    1.8526   -0.5929   -1.0627 H   0  0  0  0  0  0  0  0  0  0  0  0
    2.1488   -0.6691    0.6870 H   0  0  0  0  0  0  0  0  0  0  0  0
  1  2  1  0  0  0  0 
  1  5  1  0  0  0  0 
  2  3  1  0  0  0  0 
  3  4  1  0  0  0  0 
  4  5  1  0  0  0  0 
  5  6  1  0  0  0  0 
  4  7  1  0  0  0  0 
  1  8  2  0  0  0  0 
  3  9  1  0  0  0  0 
  3 10  1  0  0  0  0 
  6 11  1  0  0  0  0 
  5 12  1  0  0  0  0 
  4 13  1  0  0  0  0 
  7 14  2  0  0  0  0 
 14 15  1  0  0  0  0 
 16 15  1  0  0  0  0 
 16 17  1  0  0  0  0 
 16 18  1  0  0  0  0 
 16 19  1  0  0  0  0 
 17 20  1  0  0  0  0 
 20 21  1  0  0  0  0 
 21 22  1  0  0  0  0 
 11 23  1  0  0  0  0 
 23 24  1  0  0  0  0 
 24 25  1  0  0  0  0 
 25 26  1  0  0  0  0 
 26 27  1  0  0  0  0 
 27 28  1  0  0  0  0 
 27 29  2  0  0  0  0 
 28 30  1  0  0  0  0 
  2 31  1  0  0  0  0 
  2 32  1  0  0  0  0 
  6 33  1  0  0  0  0 
  6 34  1  0  0  0  0 
  7 35  1  0  0  0  0 
  9 36  1  0  0  0  0 
 11 37  1  0  0  0  0 
 11 38  1  0  0  0  0 
 14 39  1  0  0  0  0 
 15 40  1  0  0  0  0 
 15 41  1  0  0  0  0 
 17 42  1  0  0  0  0 
 17 43  1  0  0  0  0 
 18 44  1  0  0  0  0 
 19 45  1  0  0  0  0 
 19 46  1  0  0  0  0 
 19 47  1  0  0  0  0 
 20 48  1  0  0  0  0 
 20 49  1  0  0  0  0 
 21 50  1  0  0  0  0 
 21 51  1  0  0  0  0 
 22 52  1  0  0  0  0 
 22 53  1  0  0  0  0 
 22 54  1  0  0  0  0 
 23 55  1  0  0  0  0 
 23 56  1  0  0  0  0 
 24 57  1  0  0  0  0 
 24 58  1  0  0  0  0 
 25 59  1  0  0  0  0 
 25 60  1  0  0  0  0 
 26 61  1  0  0  0  0 
 26 62  1  0  0  0  0 
 30 63  1  0  0  0  0 
 30 64  1  0  0  0  0 
 30 65  1  0  0  0  0 
M  END
> <cdk:Title>
misoprostol

> <Conformer>
1

> <SuperDrugID>
SD001616

$$$$
