thenalidine
  CDK     0628171801

 42 44  0  0  0  0  0  0  0  0999 V2000
    4.2355    1.6081   -0.2559 N   0  0  0  0  0  0  0  0  0  0  0  0
    3.3602    0.4426   -0.2146 C   0  0  2  0  0  0  0  0  0  0  0  0
    5.6152    1.5414   -0.7456 C   0  0  2  0  0  0  0  0  0  0  0  0
    3.8028    2.8346    0.2140 C   0  0  0  0  0  0  0  0  0  0  0  0
    1.9930    0.6547    0.3169 C   0  0  0  0  0  0  0  0  0  0  0  0
    6.0533    0.2509   -1.5163 C   0  0  2  0  0  0  0  0  0  0  0  0
    6.6336    1.8053    0.4121 C   0  0  1  0  0  0  0  0  0  0  0  0
    3.6128    3.0358    1.6003 C   0  0  0  0  0  0  0  0  0  0  0  0
    3.5545    3.9081   -0.6734 C   0  0  0  0  0  0  0  0  0  0  0  0
    1.4952    0.2544    1.5641 C   0  0  0  0  0  0  0  0  0  0  0  0
    0.6982    1.5405   -0.4741 S   0  0  0  0  0  0  0  0  0  0  0  0
    7.5403    0.3194   -1.9721 C   0  0  1  0  0  0  0  0  0  0  0  0
    8.0957    1.8528   -0.1040 C   0  0  1  0  0  0  0  0  0  0  0  0
    3.1959    4.2839    2.0949 C   0  0  0  0  0  0  0  0  0  0  0  0
    3.1407    5.1592   -0.1779 C   0  0  0  0  0  0  0  0  0  0  0  0
    0.1798    0.6581    1.8513 C   0  0  0  0  0  0  0  0  0  0  0  0
   -0.4451    1.3988    0.8468 C   0  0  0  0  0  0  0  0  0  0  0  0
    8.4806    0.6155   -0.8461 N   0  0  1  0  0  0  0  0  0  0  0  0
    2.9725    5.3509    1.2053 C   0  0  0  0  0  0  0  0  0  0  0  0
    8.8137   -0.5518    0.0217 C   0  0  0  0  0  0  0  0  0  0  0  0
    3.8418   -0.3294    0.3908 H   0  0  0  0  0  0  0  0  0  0  0  0
    3.2384    0.0465   -1.2257 H   0  0  0  0  0  0  0  0  0  0  0  0
    5.7315    2.3532   -1.4737 H   0  0  0  0  0  0  0  0  0  0  0  0
    5.4220    0.1207   -2.3981 H   0  0  0  0  0  0  0  0  0  0  0  0
    5.9299   -0.6273   -0.8801 H   0  0  0  0  0  0  0  0  0  0  0  0
    6.4261    2.7628    0.8937 H   0  0  0  0  0  0  0  0  0  0  0  0
    6.5363    1.0259    1.1722 H   0  0  0  0  0  0  0  0  0  0  0  0
    3.7822    2.2705    2.2567 H   0  0  0  0  0  0  0  0  0  0  0  0
    3.6729    3.7844   -1.6823 H   0  0  0  0  0  0  0  0  0  0  0  0
    2.0534   -0.2791    2.2306 H   0  0  0  0  0  0  0  0  0  0  0  0
    7.8174   -0.6157   -2.4676 H   0  0  0  0  0  0  0  0  0  0  0  0
    7.6443    1.1105   -2.7203 H   0  0  0  0  0  0  0  0  0  0  0  0
    8.2016    2.7067   -0.7796 H   0  0  0  0  0  0  0  0  0  0  0  0
    8.7762    2.0321    0.7332 H   0  0  0  0  0  0  0  0  0  0  0  0
    3.0602    4.4116    3.1003 H   0  0  0  0  0  0  0  0  0  0  0  0
    2.9657    5.9332   -0.8228 H   0  0  0  0  0  0  0  0  0  0  0  0
   -0.2802    0.4325    2.7334 H   0  0  0  0  0  0  0  0  0  0  0  0
   -1.3845    1.7927    0.8748 H   0  0  0  0  0  0  0  0  0  0  0  0
    2.6916    6.2655    1.5676 H   0  0  0  0  0  0  0  0  0  0  0  0
    9.2447   -1.3555   -0.5771 H   0  0  0  0  0  0  0  0  0  0  0  0
    9.5551   -0.2740    0.7733 H   0  0  0  0  0  0  0  0  0  0  0  0
    7.9316   -0.9363    0.5350 H   0  0  0  0  0  0  0  0  0  0  0  0
  1  2  1  0  0  0  0 
  1  3  1  0  0  0  0 
  1  4  1  0  0  0  0 
  2  5  1  0  0  0  0 
  3  6  1  0  0  0  0 
  3  7  1  0  0  0  0 
  4  8  2  0  0  0  0 
  4  9  1  0  0  0  0 
  5 10  2  0  0  0  0 
  5 11  1  0  0  0  0 
  6 12  1  0  0  0  0 
  7 13  1  0  0  0  0 
  8 14  1  0  0  0  0 
  9 15  2  0  0  0  0 
 10 16  1  0  0  0  0 
 11 17  1  0  0  0  0 
 12 18  1  0  0  0  0 
 13 18  1  0  0  0  0 
 14 19  2  0  0  0  0 
 15 19  1  0  0  0  0 
 16 17  2  0  0  0  0 
 18 20  1  0  0  0  0 
  2 21  1  0  0  0  0 
  2 22  1  0  0  0  0 
  3 23  1  0  0  0  0 
  6 24  1  0  0  0  0 
  6 25  1  0  0  0  0 
  7 26  1  0  0  0  0 
  7 27  1  0  0  0  0 
  8 28  1  0  0  0  0 
  9 29  1  0  0  0  0 
 10 30  1  0  0  0  0 
 12 31  1  0  0  0  0 
 12 32  1  0  0  0  0 
 13 33  1  0  0  0  0 
 13 34  1  0  0  0  0 
 14 35  1  0  0  0  0 
 15 36  1  0  0  0  0 
 16 37  1  0  0  0  0 
 17 38  1  0  0  0  0 
 19 39  1  0  0  0  0 
 20 40  1  0  0  0  0 
 20 41  1  0  0  0  0 
 20 42  1  0  0  0  0 
M  END
> <cdk:Title>
thenalidine

> <Conformer>
1

> <SuperDrugID>
SD002355

$$$$
