norethisterone
  CDK     0628171801

 48 51  0  0  0  0  0  0  0  0999 V2000
   -1.9346   -1.1947   -0.8366 C   0  0  2  0  0  0  0  0  0  0  0  0
   -0.7769   -1.2167    0.1884 C   0  0  2  0  0  0  0  0  0  0  0  0
   -0.0239    0.0499    0.0867 C   0  0  0  0  0  0  0  0  0  0  0  0
   -0.7077    1.2466   -0.0193 C   0  0  0  0  0  0  0  0  0  0  0  0
   -2.0149    1.3154   -0.3602 C   0  0  0  0  0  0  0  0  0  0  0  0
   -2.8032    0.1136   -0.7435 C   0  0  1  0  0  0  0  0  0  0  0  0
   -3.6144    0.3678   -2.0751 C   0  0  2  0  0  0  0  0  0  0  0  0
   -2.7162    2.6042   -0.3267 C   0  0  2  0  0  0  0  0  0  0  0  0
   -3.4938    2.8830   -1.6361 C   0  0  2  0  0  0  0  0  0  0  0  0
   -4.4464    1.7036   -1.9868 C   0  0  1  0  0  0  0  0  0  0  0  0
   -5.3958   -0.5518   -3.7800 C   0  0  1  0  0  0  0  0  0  0  0  0
   -4.5140   -0.8386   -2.5202 C   0  0  1  0  0  0  0  0  0  0  0  0
   -5.2143    1.9346   -3.3279 C   0  0  1  0  0  0  0  0  0  0  0  0
   -6.2183    0.7850   -3.6756 C   0  0  1  0  0  0  0  0  0  0  0  0
   -6.0386    3.2290   -3.5298 C   0  0  2  0  0  0  0  0  0  0  0  0
   -7.0546    2.8843   -4.6530 C   0  0  1  0  0  0  0  0  0  0  0  0
   -6.8578    1.3713   -4.9988 C   0  0  1  0  0  0  0  0  0  0  0  0
    1.2288    0.0441    0.1176 O   0  0  0  0  0  0  0  0  0  0  0  0
   -7.3600    0.5748   -2.6020 C   0  0  0  0  0  0  0  0  0  0  0  0
   -6.0809    1.2359   -6.1374 C   0  0  0  0  0  0  0  0  0  0  0  0
   -5.4064    1.1351   -7.1187 C   0  0  0  0  0  0  0  0  0  0  0  0
   -8.1126    0.7784   -5.3407 O   0  0  0  0  0  0  0  0  0  0  0  0
   -2.5634   -2.0718   -0.6646 H   0  0  0  0  0  0  0  0  0  0  0  0
   -1.4979   -1.2863   -1.8360 H   0  0  0  0  0  0  0  0  0  0  0  0
   -0.1256   -2.0777    0.0127 H   0  0  0  0  0  0  0  0  0  0  0  0
   -1.1881   -1.3007    1.1975 H   0  0  0  0  0  0  0  0  0  0  0  0
   -0.2027    2.0796    0.1791 H   0  0  0  0  0  0  0  0  0  0  0  0
   -3.5270   -0.0440    0.0630 H   0  0  0  0  0  0  0  0  0  0  0  0
   -2.8726    0.4982   -2.8735 H   0  0  0  0  0  0  0  0  0  0  0  0
   -2.0402    3.4484   -0.1561 H   0  0  0  0  0  0  0  0  0  0  0  0
   -3.4217    2.5868    0.5106 H   0  0  0  0  0  0  0  0  0  0  0  0
   -2.7812    3.0521   -2.4499 H   0  0  0  0  0  0  0  0  0  0  0  0
   -4.0765    3.7983   -1.5031 H   0  0  0  0  0  0  0  0  0  0  0  0
   -5.1680    1.6293   -1.1688 H   0  0  0  0  0  0  0  0  0  0  0  0
   -4.7270   -0.5177   -4.6430 H   0  0  0  0  0  0  0  0  0  0  0  0
   -6.0755   -1.3940   -3.9403 H   0  0  0  0  0  0  0  0  0  0  0  0
   -3.8748   -1.6899   -2.7664 H   0  0  0  0  0  0  0  0  0  0  0  0
   -5.1444   -1.1513   -1.6843 H   0  0  0  0  0  0  0  0  0  0  0  0
   -4.4312    1.9680   -4.0994 H   0  0  0  0  0  0  0  0  0  0  0  0
   -5.3918    4.0614   -3.8219 H   0  0  0  0  0  0  0  0  0  0  0  0
   -6.5586    3.5013   -2.6078 H   0  0  0  0  0  0  0  0  0  0  0  0
   -8.0689    3.0563   -4.2809 H   0  0  0  0  0  0  0  0  0  0  0  0
   -6.9198    3.5466   -5.5141 H   0  0  0  0  0  0  0  0  0  0  0  0
   -8.0599   -0.1916   -2.9381 H   0  0  0  0  0  0  0  0  0  0  0  0
   -6.9786    0.2565   -1.6335 H   0  0  0  0  0  0  0  0  0  0  0  0
   -7.9392    1.4814   -2.4327 H   0  0  0  0  0  0  0  0  0  0  0  0
   -4.8821    1.0628   -7.8738 H   0  0  0  0  0  0  0  0  0  0  0  0
   -7.9220   -0.1734   -5.4753 H   0  0  0  0  0  0  0  0  0  0  0  0
  1  2  1  0  0  0  0 
  2  3  1  0  0  0  0 
  3  4  1  0  0  0  0 
  4  5  2  0  0  0  0 
  6  5  1  0  0  0  0 
  6  1  1  0  0  0  0 
  8  9  1  0  0  0  0 
 10  9  1  0  0  0  0 
  7 10  1  0  0  0  0 
  5  8  1  0  0  0  0 
  7  6  1  0  0  0  0 
 11 12  1  0  0  0  0 
 13 14  1  0  0  0  0 
 14 11  1  0  0  0  0 
  7 12  1  0  0  0  0 
 10 13  1  0  0  0  0 
 15 16  1  0  0  0  0 
 17 16  1  0  0  0  0 
 13 15  1  0  0  0  0 
 14 17  1  0  0  0  0 
  3 18  2  0  0  0  0 
 14 19  1  0  0  0  0 
 17 20  1  0  0  0  0 
 20 21  3  0  0  0  0 
 17 22  1  0  0  0  0 
 23  1  1  0  0  0  0 
 24  1  1  0  0  0  0 
 25  2  1  0  0  0  0 
 26  2  1  0  0  0  0 
 27  4  1  0  0  0  0 
  6 28  1  0  0  0  0 
  7 29  1  0  0  0  0 
 30  8  1  0  0  0  0 
 31  8  1  0  0  0  0 
 32  9  1  0  0  0  0 
 33  9  1  0  0  0  0 
 10 34  1  0  0  0  0 
 35 11  1  0  0  0  0 
 36 11  1  0  0  0  0 
 37 12  1  0  0  0  0 
 38 12  1  0  0  0  0 
 13 39  1  0  0  0  0 
 40 15  1  0  0  0  0 
 41 15  1  0  0  0  0 
 42 16  1  0  0  0  0 
 43 16  1  0  0  0  0 
 44 19  1  0  0  0  0 
 45 19  1  0  0  0  0 
 46 19  1  0  0  0  0 
 47 21  1  0  0  0  0 
 48 22  1  0  0  0  0 
M  END
> <cdk:Title>
norethisterone

> <Conformer>
1

> <SuperDrugID>
SD001754

$$$$
