rokitamycin
  CDK     0628171801

127129  0  0  0  0  0  0  0  0999 V2000
   -5.8547   -2.1155    6.1591 O   0  0  0  0  0  0  0  0  0  0  0  0
   -7.1139   -1.7054    6.7627 C   0  0  1  0  0  0  0  0  0  0  0  0
   -5.7923   -3.0116    5.0253 C   0  0  1  0  0  0  0  0  0  0  0  0
   -6.7028   -1.1210    8.1947 C   0  0  1  0  0  0  0  0  0  0  0  0
   -7.9178   -0.7792    5.7497 C   0  0  1  0  0  0  0  0  0  0  0  0
   -4.6193   -2.5542    4.0949 C   0  0  2  0  0  0  0  0  0  0  0  0
   -5.6086   -4.3541    5.5232 O   0  0  0  0  0  0  0  0  0  0  0  0
   -7.6121    0.0323    8.7564 C   0  0  2  0  0  0  0  0  0  0  0  0
   -6.5799   -2.2636    9.2836 C   0  0  1  0  0  0  0  0  0  0  0  0
   -7.0315   -0.0799    4.8338 O   0  0  0  0  0  0  0  0  0  0  0  0
   -9.0255   -1.5328    4.9050 C   0  0  2  0  0  0  0  0  0  0  0  0
   -5.1299   -2.1430    2.8225 O   0  0  0  0  0  0  0  0  0  0  0  0
   -3.5202   -3.6614    3.9381 C   0  0  1  0  0  0  0  0  0  0  0  0
   -5.4099   -5.3490    4.4886 C   0  0  1  0  0  0  0  0  0  0  0  0
   -7.1443    0.6543   10.0131 C   0  0  0  0  0  0  0  0  0  0  0  0
   -5.4186   -3.3162    9.1435 C   0  0  1  0  0  0  0  0  0  0  0  0
   -6.1699    0.9443    5.3664 C   0  0  0  0  0  0  0  0  0  0  0  0
   -9.0364   -1.0774    3.5482 O   0  0  0  0  0  0  0  0  0  0  0  0
  -10.4885   -1.3821    5.4175 C   0  0  2  0  0  0  0  0  0  0  0  0
   -2.6560   -3.8323    5.2146 N   0  0  2  0  0  0  0  0  0  0  0  0
   -4.2415   -4.9833    3.4965 C   0  0  1  0  0  0  0  0  0  0  0  0
   -5.1721   -6.7039    5.1987 C   0  0  0  0  0  0  0  0  0  0  0  0
   -7.8404    0.6232   11.0522 O   0  0  0  0  0  0  0  0  0  0  0  0
   -4.0290   -2.6850    9.4605 C   0  0  0  0  0  0  0  0  0  0  0  0
   -5.6338   -4.6204   10.0038 C   0  0  1  0  0  0  0  0  0  0  0  0
  -10.7605   -2.1338    6.6564 C   0  0  0  0  0  0  0  0  0  0  0  0
   -2.3029   -2.6560    6.1280 C   0  0  0  0  0  0  0  0  0  0  0  0
   -1.4141   -4.6468    5.0025 C   0  0  0  0  0  0  0  0  0  0  0  0
   -4.6655   -4.7784    2.1263 O   0  0  0  0  0  0  0  0  0  0  0  0
   -5.4900   -4.3429   11.4000 O   0  0  0  0  0  0  0  0  0  0  0  0
   -6.9343   -5.2458    9.7939 C   0  0  0  0  0  0  0  0  0  0  0  0
  -10.6394   -1.5526    7.7592 O   0  0  0  0  0  0  0  0  0  0  0  0
  -11.1664   -3.4369    6.5347 O   0  0  0  0  0  0  0  0  0  0  0  0
   -5.2656   -5.8476    1.3647 C   0  0  1  0  0  0  0  0  0  0  0  0
   -7.3216   -5.7484    8.6091 C   0  0  0  0  0  0  0  0  0  0  0  0
  -11.5098   -4.4650    7.4893 C   0  0  2  0  0  0  0  0  0  0  0  0
   -5.0241   -5.4833   -0.1248 C   0  0  2  0  0  0  0  0  0  0  0  0
   -4.6894   -7.1341    1.6833 O   0  0  0  0  0  0  0  0  0  0  0  0
   -8.6051   -6.1012    8.3729 C   0  0  0  0  0  0  0  0  0  0  0  0
  -11.4060   -4.0680    8.9904 C   0  0  0  0  0  0  0  0  0  0  0  0
  -10.7113   -5.7562    7.1378 C   0  0  2  0  0  0  0  0  0  0  0  0
   -5.4466   -6.5976   -1.1358 C   0  0  2  0  0  0  0  0  0  0  0  0
   -5.1414   -8.2525    0.8926 C   0  0  2  0  0  0  0  0  0  0  0  0
   -9.2832   -5.5778    7.3359 C   0  0  0  0  0  0  0  0  0  0  0  0
   -4.8372   -6.1731   -2.3798 O   0  0  0  0  0  0  0  0  0  0  0  0
   -6.9844   -6.5909   -1.4085 C   0  0  0  0  0  0  0  0  0  0  0  0
   -4.8985   -7.9841   -0.6318 C   0  0  2  0  0  0  0  0  0  0  0  0
   -6.5472   -8.7634    1.3071 C   0  0  0  0  0  0  0  0  0  0  0  0
   -4.6100   -6.8285   -3.5597 C   0  0  0  0  0  0  0  0  0  0  0  0
   -3.4732   -7.9961   -0.8543 O   0  0  0  0  0  0  0  0  0  0  0  0
   -4.0765   -6.0805   -4.7195 C   0  0  1  0  0  0  0  0  0  0  0  0
   -4.8615   -8.0505   -3.6797 O   0  0  0  0  0  0  0  0  0  0  0  0
   -2.6342   -9.0779   -0.8576 C   0  0  0  0  0  0  0  0  0  0  0  0
   -2.9776   -5.0470   -4.3673 C   0  0  0  0  0  0  0  0  0  0  0  0
   -1.1823   -8.8578   -0.9833 C   0  0  1  0  0  0  0  0  0  0  0  0
   -3.0790  -10.2452   -0.7574 O   0  0  0  0  0  0  0  0  0  0  0  0
   -0.8081   -8.1882   -2.3289 C   0  0  1  0  0  0  0  0  0  0  0  0
    0.7134   -7.9638   -2.4701 C   0  0  0  0  0  0  0  0  0  0  0  0
   -6.7102   -2.9916    4.4435 H   0  0  0  0  0  0  0  0  0  0  0  0
   -6.3374   -5.8456    1.5727 H   0  0  0  0  0  0  0  0  0  0  0  0
   -7.7214   -2.5944    6.9460 H   0  0  0  0  0  0  0  0  0  0  0  0
   -5.7160   -0.6607    8.0941 H   0  0  0  0  0  0  0  0  0  0  0  0
   -8.4745   -0.0132    6.2785 H   0  0  0  0  0  0  0  0  0  0  0  0
   -4.1619   -1.6421    4.4772 H   0  0  0  0  0  0  0  0  0  0  0  0
   -8.6312   -0.3384    8.8858 H   0  0  0  0  0  0  0  0  0  0  0  0
   -7.6381    0.8674    8.0591 H   0  0  0  0  0  0  0  0  0  0  0  0
   -6.4694   -1.8364   10.2827 H   0  0  0  0  0  0  0  0  0  0  0  0
   -7.5452   -2.7728    9.2918 H   0  0  0  0  0  0  0  0  0  0  0  0
   -8.8244   -2.6027    4.8488 H   0  0  0  0  0  0  0  0  0  0  0  0
   -5.6558   -2.8995    2.4913 H   0  0  0  0  0  0  0  0  0  0  0  0
   -2.8491   -3.3378    3.1349 H   0  0  0  0  0  0  0  0  0  0  0  0
   -6.3487   -5.4424    3.9357 H   0  0  0  0  0  0  0  0  0  0  0  0
   -6.2397    1.1292   10.0418 H   0  0  0  0  0  0  0  0  0  0  0  0
   -5.3781   -3.6417    8.1049 H   0  0  0  0  0  0  0  0  0  0  0  0
   -6.7229    1.6710    5.9625 H   0  0  0  0  0  0  0  0  0  0  0  0
   -5.7132    1.4762    4.5314 H   0  0  0  0  0  0  0  0  0  0  0  0
   -5.3685    0.5103    5.9641 H   0  0  0  0  0  0  0  0  0  0  0  0
   -8.1686   -1.3466    3.1800 H   0  0  0  0  0  0  0  0  0  0  0  0
  -11.1745   -1.7548    4.6494 H   0  0  0  0  0  0  0  0  0  0  0  0
  -10.7261   -0.3245    5.5598 H   0  0  0  0  0  0  0  0  0  0  0  0
   -3.5039   -5.7837    3.4608 H   0  0  0  0  0  0  0  0  0  0  0  0
   -4.2922   -6.6466    5.8433 H   0  0  0  0  0  0  0  0  0  0  0  0
   -5.0194   -7.4974    4.4658 H   0  0  0  0  0  0  0  0  0  0  0  0
   -6.0375   -6.9676    5.8075 H   0  0  0  0  0  0  0  0  0  0  0  0
   -3.2352   -3.4254    9.3358 H   0  0  0  0  0  0  0  0  0  0  0  0
   -3.9935   -2.3113   10.4853 H   0  0  0  0  0  0  0  0  0  0  0  0
   -3.8138   -1.8496    8.7962 H   0  0  0  0  0  0  0  0  0  0  0  0
   -4.8612   -5.3528    9.7488 H   0  0  0  0  0  0  0  0  0  0  0  0
   -3.2079   -2.1797    6.4935 H   0  0  0  0  0  0  0  0  0  0  0  0
   -1.7418   -2.9738    7.0090 H   0  0  0  0  0  0  0  0  0  0  0  0
   -1.7161   -1.9149    5.5811 H   0  0  0  0  0  0  0  0  0  0  0  0
   -1.6190   -5.6103    4.5452 H   0  0  0  0  0  0  0  0  0  0  0  0
   -0.9266   -4.8723    5.9543 H   0  0  0  0  0  0  0  0  0  0  0  0
   -0.7039   -4.1093    4.3698 H   0  0  0  0  0  0  0  0  0  0  0  0
   -4.5584   -4.0626   11.5181 H   0  0  0  0  0  0  0  0  0  0  0  0
   -7.5868   -5.2290   10.5471 H   0  0  0  0  0  0  0  0  0  0  0  0
   -6.6706   -5.7894    7.8617 H   0  0  0  0  0  0  0  0  0  0  0  0
  -12.5634   -4.6927    7.3040 H   0  0  0  0  0  0  0  0  0  0  0  0
   -3.9502   -5.2960   -0.2430 H   0  0  0  0  0  0  0  0  0  0  0  0
   -5.5398   -4.5474   -0.3601 H   0  0  0  0  0  0  0  0  0  0  0  0
   -9.0667   -6.6998    9.0211 H   0  0  0  0  0  0  0  0  0  0  0  0
  -11.6812   -4.9098    9.6283 H   0  0  0  0  0  0  0  0  0  0  0  0
  -10.3927   -3.7558    9.2506 H   0  0  0  0  0  0  0  0  0  0  0  0
  -12.0886   -3.2435    9.2040 H   0  0  0  0  0  0  0  0  0  0  0  0
  -10.8828   -6.0080    6.0870 H   0  0  0  0  0  0  0  0  0  0  0  0
  -11.0989   -6.5915    7.7288 H   0  0  0  0  0  0  0  0  0  0  0  0
   -4.4794   -9.0724    1.1788 H   0  0  0  0  0  0  0  0  0  0  0  0
   -8.8090   -4.9900    6.6841 H   0  0  0  0  0  0  0  0  0  0  0  0
   -7.5675   -6.6126   -0.4915 H   0  0  0  0  0  0  0  0  0  0  0  0
   -7.2682   -5.6826   -1.9468 H   0  0  0  0  0  0  0  0  0  0  0  0
   -7.2695   -7.4482   -2.0230 H   0  0  0  0  0  0  0  0  0  0  0  0
   -5.3465   -8.7885   -1.2225 H   0  0  0  0  0  0  0  0  0  0  0  0
   -6.5172   -9.1058    2.3433 H   0  0  0  0  0  0  0  0  0  0  0  0
   -6.8494   -9.6033    0.6792 H   0  0  0  0  0  0  0  0  0  0  0  0
   -7.3046   -7.9889    1.2449 H   0  0  0  0  0  0  0  0  0  0  0  0
   -3.6772   -6.7839   -5.4595 H   0  0  0  0  0  0  0  0  0  0  0  0
   -4.9095   -5.5494   -5.1812 H   0  0  0  0  0  0  0  0  0  0  0  0
   -2.6242   -4.5553   -5.2758 H   0  0  0  0  0  0  0  0  0  0  0  0
   -3.3661   -4.2786   -3.6949 H   0  0  0  0  0  0  0  0  0  0  0  0
   -2.1264   -5.5378   -3.8956 H   0  0  0  0  0  0  0  0  0  0  0  0
   -0.8682   -8.2180   -0.1554 H   0  0  0  0  0  0  0  0  0  0  0  0
   -0.6488   -9.8098   -0.8930 H   0  0  0  0  0  0  0  0  0  0  0  0
   -1.1481   -8.8169   -3.1566 H   0  0  0  0  0  0  0  0  0  0  0  0
   -1.3095   -7.2209   -2.4048 H   0  0  0  0  0  0  0  0  0  0  0  0
    0.9312   -7.4913   -3.4295 H   0  0  0  0  0  0  0  0  0  0  0  0
    1.2428   -8.9178   -2.4246 H   0  0  0  0  0  0  0  0  0  0  0  0
    1.0781   -7.3147   -1.6710 H   0  0  0  0  0  0  0  0  0  0  0  0
  3  1  1  0  0  0  0 
  2  1  1  0  0  0  0 
  2  4  1  0  0  0  0 
  5  2  1  0  0  0  0 
  6  3  1  0  0  0  0 
  3  7  1  0  0  0  0 
  3 59  1  0  0  0  0 
  4  8  1  0  0  0  0 
  4  9  1  0  0  0  0 
  5 10  1  0  0  0  0 
 11  5  1  0  0  0  0 
  6 12  1  0  0  0  0 
 13  6  1  0  0  0  0 
 14  7  1  0  0  0  0 
  8 15  1  0  0  0  0 
 16  9  1  0  0  0  0 
 10 17  1  0  0  0  0 
 11 18  1  0  0  0  0 
 11 19  1  0  0  0  0 
 13 20  1  0  0  0  0 
 21 13  1  0  0  0  0 
 21 14  1  0  0  0  0 
 14 22  1  0  0  0  0 
 15 23  2  0  0  0  0 
 16 24  1  0  0  0  0 
 25 16  1  0  0  0  0 
 19 26  1  0  0  0  0 
 20 27  1  0  0  0  0 
 20 28  1  0  0  0  0 
 21 29  1  0  0  0  0 
 25 30  1  0  0  0  0 
 25 31  1  0  0  0  0 
 26 32  2  0  0  0  0 
 26 33  1  0  0  0  0 
 34 29  1  0  0  0  0 
 31 35  2  0  0  0  0 
 36 33  1  0  0  0  0 
 34 37  1  0  0  0  0 
 34 38  1  0  0  0  0 
 34 60  1  0  0  0  0 
 35 39  1  0  0  0  0 
 36 40  1  0  0  0  0 
 36 41  1  0  0  0  0 
 42 37  1  0  0  0  0 
 43 38  1  0  0  0  0 
 39 44  2  0  0  0  0 
 41 44  1  0  0  0  0 
 42 45  1  0  0  0  0 
 42 46  1  0  0  0  0 
 47 42  1  0  0  0  0 
 47 43  1  0  0  0  0 
 43 48  1  0  0  0  0 
 45 49  1  0  0  0  0 
 47 50  1  0  0  0  0 
 49 51  1  0  0  0  0 
 49 52  2  0  0  0  0 
 50 53  1  0  0  0  0 
 51 54  1  0  0  0  0 
 53 55  1  0  0  0  0 
 53 56  2  0  0  0  0 
 55 57  1  0  0  0  0 
 57 58  1  0  0  0  0 
  2 61  1  0  0  0  0 
  4 62  1  0  0  0  0 
  5 63  1  0  0  0  0 
  6 64  1  0  0  0  0 
  8 65  1  0  0  0  0 
  8 66  1  0  0  0  0 
  9 67  1  0  0  0  0 
  9 68  1  0  0  0  0 
 11 69  1  0  0  0  0 
 12 70  1  0  0  0  0 
 13 71  1  0  0  0  0 
 14 72  1  0  0  0  0 
 15 73  1  0  0  0  0 
 16 74  1  0  0  0  0 
 17 75  1  0  0  0  0 
 17 76  1  0  0  0  0 
 17 77  1  0  0  0  0 
 18 78  1  0  0  0  0 
 19 79  1  0  0  0  0 
 19 80  1  0  0  0  0 
 21 81  1  0  0  0  0 
 22 82  1  0  0  0  0 
 22 83  1  0  0  0  0 
 22 84  1  0  0  0  0 
 24 85  1  0  0  0  0 
 24 86  1  0  0  0  0 
 24 87  1  0  0  0  0 
 25 88  1  0  0  0  0 
 27 89  1  0  0  0  0 
 27 90  1  0  0  0  0 
 27 91  1  0  0  0  0 
 28 92  1  0  0  0  0 
 28 93  1  0  0  0  0 
 28 94  1  0  0  0  0 
 30 95  1  0  0  0  0 
 31 96  1  0  0  0  0 
 35 97  1  0  0  0  0 
 36 98  1  0  0  0  0 
 37 99  1  0  0  0  0 
 37100  1  0  0  0  0 
 39101  1  0  0  0  0 
 40102  1  0  0  0  0 
 40103  1  0  0  0  0 
 40104  1  0  0  0  0 
 41105  1  0  0  0  0 
 41106  1  0  0  0  0 
 43107  1  0  0  0  0 
 44108  1  0  0  0  0 
 46109  1  0  0  0  0 
 46110  1  0  0  0  0 
 46111  1  0  0  0  0 
 47112  1  0  0  0  0 
 48113  1  0  0  0  0 
 48114  1  0  0  0  0 
 48115  1  0  0  0  0 
 51116  1  0  0  0  0 
 51117  1  0  0  0  0 
 54118  1  0  0  0  0 
 54119  1  0  0  0  0 
 54120  1  0  0  0  0 
 55121  1  0  0  0  0 
 55122  1  0  0  0  0 
 57123  1  0  0  0  0 
 57124  1  0  0  0  0 
 58125  1  0  0  0  0 
 58126  1  0  0  0  0 
 58127  1  0  0  0  0 
M  END
> <cdk:Title>
rokitamycin

> <Conformer>
1

> <SuperDrugID>
SD002158

$$$$
