sulfapyridine
  CDK     0628171801

 28 29  0  0  0  0  0  0  0  0999 V2000
    3.6761    3.4142    0.3369 S   0  0  1  0  0  0  0  0  0  0  0  0
    1.9681    3.5389    0.1833 N   0  0  0  0  0  0  0  0  0  0  0  0
    4.0095    2.7234    1.7477 O   0  0  0  0  0  0  0  0  0  0  0  0
    4.1993    2.4496   -0.8348 O   0  0  0  0  0  0  0  0  0  0  0  0
    4.4786    4.9867    0.1898 C   0  0  0  0  0  0  0  0  0  0  0  0
    1.1971    4.5507    0.6569 C   0  0  0  0  0  0  0  0  0  0  0  0
    5.3840    5.4339    1.1747 C   0  0  0  0  0  0  0  0  0  0  0  0
    4.2079    5.8073   -0.9246 C   0  0  0  0  0  0  0  0  0  0  0  0
   -0.2017    4.4776    0.4865 C   0  0  0  0  0  0  0  0  0  0  0  0
    1.7210    5.6326    1.2979 N   0  0  0  0  0  0  0  0  0  0  0  0
    5.9834    6.7029    1.0648 C   0  0  0  0  0  0  0  0  0  0  0  0
    4.8038    7.0776   -1.0334 C   0  0  0  0  0  0  0  0  0  0  0  0
   -1.0151    5.5129    0.9847 C   0  0  0  0  0  0  0  0  0  0  0  0
    0.9669    6.6521    1.7823 C   0  0  0  0  0  0  0  0  0  0  0  0
    5.6823    7.5352   -0.0304 C   0  0  0  0  0  0  0  0  0  0  0  0
   -0.4311    6.6128    1.6386 C   0  0  0  0  0  0  0  0  0  0  0  0
    6.2321    8.7634   -0.1123 N   0  0  0  0  0  0  0  0  0  0  0  0
    1.5127    2.8050   -0.2577 H   0  0  0  0  0  0  0  0  0  0  0  0
    5.6137    4.8457    1.9784 H   0  0  0  0  0  0  0  0  0  0  0  0
    3.5717    5.4886   -1.6592 H   0  0  0  0  0  0  0  0  0  0  0  0
   -0.6312    3.6788    0.0124 H   0  0  0  0  0  0  0  0  0  0  0  0
    6.6359    7.0164    1.7888 H   0  0  0  0  0  0  0  0  0  0  0  0
    4.5917    7.6661   -1.8427 H   0  0  0  0  0  0  0  0  0  0  0  0
   -2.0313    5.4631    0.8758 H   0  0  0  0  0  0  0  0  0  0  0  0
    1.4185    7.4395    2.2492 H   0  0  0  0  0  0  0  0  0  0  0  0
   -1.0131    7.3693    2.0038 H   0  0  0  0  0  0  0  0  0  0  0  0
    6.0260    9.3423   -0.8633 H   0  0  0  0  0  0  0  0  0  0  0  0
    6.8341    9.0728    0.5839 H   0  0  0  0  0  0  0  0  0  0  0  0
  1  2  1  0  0  0  0 
  1  3  2  0  0  0  0 
  1  4  2  0  0  0  0 
  1  5  1  0  0  0  0 
  2  6  1  0  0  0  0 
  5  7  2  0  0  0  0 
  5  8  1  0  0  0  0 
  6  9  2  0  0  0  0 
  6 10  1  0  0  0  0 
  7 11  1  0  0  0  0 
  8 12  2  0  0  0  0 
  9 13  1  0  0  0  0 
 10 14  2  0  0  0  0 
 11 15  2  0  0  0  0 
 12 15  1  0  0  0  0 
 13 16  2  0  0  0  0 
 14 16  1  0  0  0  0 
 15 17  1  0  0  0  0 
  2 18  1  0  0  0  0 
  7 19  1  0  0  0  0 
  8 20  1  0  0  0  0 
  9 21  1  0  0  0  0 
 11 22  1  0  0  0  0 
 12 23  1  0  0  0  0 
 13 24  1  0  0  0  0 
 14 25  1  0  0  0  0 
 16 26  1  0  0  0  0 
 17 27  1  0  0  0  0 
 17 28  1  0  0  0  0 
M  END
> <cdk:Title>
sulfapyridine

> <Conformer>
1

> <SuperDrugID>
SD002270

$$$$
