flusalan
  CDK     0628171801

 30 31  0  0  0  0  0  0  0  0999 V2000
    0.7250    0.8444   -0.4287 C   0  0  0  0  0  0  0  0  0  0  0  0
    2.0128    0.3841   -0.3590 N   0  0  0  0  0  0  0  0  0  0  0  0
   -0.1996    0.0695   -0.7738 O   0  0  0  0  0  0  0  0  0  0  0  0
    0.3987    2.1754   -0.0341 C   0  0  0  0  0  0  0  0  0  0  0  0
    2.4579   -0.8790   -0.6166 C   0  0  0  0  0  0  0  0  0  0  0  0
   -0.7555    2.8552   -0.5186 C   0  0  0  0  0  0  0  0  0  0  0  0
    1.2156    2.8443    0.9135 C   0  0  0  0  0  0  0  0  0  0  0  0
    2.0016   -1.6684   -1.6979 C   0  0  0  0  0  0  0  0  0  0  0  0
    3.4299   -1.4145    0.2523 C   0  0  0  0  0  0  0  0  0  0  0  0
   -1.5615    2.3162   -1.4714 O   0  0  0  0  0  0  0  0  0  0  0  0
   -1.1040    4.1270   -0.0123 C   0  0  0  0  0  0  0  0  0  0  0  0
    0.8799    4.1188    1.3988 C   0  0  0  0  0  0  0  0  0  0  0  0
    2.4618   -2.9945   -1.8958 C   0  0  0  0  0  0  0  0  0  0  0  0
    3.8849   -2.7325    0.0871 C   0  0  0  0  0  0  0  0  0  0  0  0
   -2.6459    5.0037   -0.5845 Br  0  0  0  0  0  0  0  0  0  0  0  0
   -0.2906    4.7519    0.9494 C   0  0  0  0  0  0  0  0  0  0  0  0
    1.9769    4.9426    2.6574 Br  0  0  0  0  0  0  0  0  0  0  0  0
    1.9852   -3.7808   -3.0713 C   0  0  2  0  0  0  0  0  0  0  0  0
    3.3986   -3.5176   -0.9720 C   0  0  0  0  0  0  0  0  0  0  0  0
    2.4624   -3.1951   -4.2185 F   0  0  0  0  0  0  0  0  0  0  0  0
    0.6118   -3.8058   -3.1288 F   0  0  0  0  0  0  0  0  0  0  0  0
    2.3984   -5.0933   -3.0869 F   0  0  0  0  0  0  0  0  0  0  0  0
    2.6811    1.0075   -0.0344 H   0  0  0  0  0  0  0  0  0  0  0  0
    2.0582    2.4030    1.2892 H   0  0  0  0  0  0  0  0  0  0  0  0
    1.3357   -1.2662   -2.3606 H   0  0  0  0  0  0  0  0  0  0  0  0
    3.8021   -0.8543    1.0226 H   0  0  0  0  0  0  0  0  0  0  0  0
   -0.9768    1.7664   -2.0335 H   0  0  0  0  0  0  0  0  0  0  0  0
    4.5708   -3.1196    0.7385 H   0  0  0  0  0  0  0  0  0  0  0  0
   -0.5533    5.6672    1.3217 H   0  0  0  0  0  0  0  0  0  0  0  0
    3.7466   -4.4740   -1.0615 H   0  0  0  0  0  0  0  0  0  0  0  0
  1  2  1  0  0  0  0 
  1  3  2  0  0  0  0 
  1  4  1  0  0  0  0 
  2  5  1  0  0  0  0 
  4  6  2  0  0  0  0 
  4  7  1  0  0  0  0 
  5  8  2  0  0  0  0 
  5  9  1  0  0  0  0 
  6 10  1  0  0  0  0 
  6 11  1  0  0  0  0 
  7 12  2  0  0  0  0 
  8 13  1  0  0  0  0 
  9 14  2  0  0  0  0 
 11 15  1  0  0  0  0 
 11 16  2  0  0  0  0 
 12 16  1  0  0  0  0 
 12 17  1  0  0  0  0 
 13 18  1  0  0  0  0 
 13 19  2  0  0  0  0 
 14 19  1  0  0  0  0 
 18 20  1  0  0  0  0 
 18 21  1  0  0  0  0 
 18 22  1  0  0  0  0 
  2 23  1  0  0  0  0 
  7 24  1  0  0  0  0 
  8 25  1  0  0  0  0 
  9 26  1  0  0  0  0 
 10 27  1  0  0  0  0 
 14 28  1  0  0  0  0 
 16 29  1  0  0  0  0 
 19 30  1  0  0  0  0 
M  END
> <cdk:Title>
flusalan

> <Conformer>
1

> <SuperDrugID>
SD002800

$$$$
