milverine
  CDK     0628171801

 42 44  0  0  0  0  0  0  0  0999 V2000
   -4.3026   -0.6528   -0.5348 C   0  0  2  0  0  0  0  0  0  0  0  0
   -3.2138    0.4613   -0.3708 C   0  0  2  0  0  0  0  0  0  0  0  0
   -3.7896   -2.0206   -0.1904 C   0  0  0  0  0  0  0  0  0  0  0  0
   -4.9951   -0.6813   -1.8694 C   0  0  0  0  0  0  0  0  0  0  0  0
   -2.6348    0.5822    1.0700 C   0  0  2  0  0  0  0  0  0  0  0  0
   -4.3450   -2.7533    0.8901 C   0  0  0  0  0  0  0  0  0  0  0  0
   -2.7177   -2.6104   -0.9078 C   0  0  0  0  0  0  0  0  0  0  0  0
   -4.3249   -0.4330   -3.0959 C   0  0  0  0  0  0  0  0  0  0  0  0
   -6.3796   -0.9855   -1.9277 C   0  0  0  0  0  0  0  0  0  0  0  0
   -1.5621    1.5237    1.1567 N   0  0  0  0  0  0  0  0  0  0  0  0
   -3.8380   -4.0170    1.2490 C   0  0  0  0  0  0  0  0  0  0  0  0
   -2.2081   -3.8729   -0.5492 C   0  0  0  0  0  0  0  0  0  0  0  0
   -5.0180   -0.4500   -4.3212 C   0  0  0  0  0  0  0  0  0  0  0  0
   -7.0726   -1.0147   -3.1516 C   0  0  0  0  0  0  0  0  0  0  0  0
   -0.3068    1.3969    0.6304 C   0  0  0  0  0  0  0  0  0  0  0  0
   -2.7692   -4.5776    0.5291 C   0  0  0  0  0  0  0  0  0  0  0  0
   -6.3940   -0.7306   -4.3478 C   0  0  0  0  0  0  0  0  0  0  0  0
    0.4547    2.5792    0.4978 C   0  0  0  0  0  0  0  0  0  0  0  0
    0.2600    0.1726    0.1969 C   0  0  0  0  0  0  0  0  0  0  0  0
    1.7287    2.5197   -0.0958 C   0  0  0  0  0  0  0  0  0  0  0  0
    1.5447    0.1662   -0.3765 C   0  0  0  0  0  0  0  0  0  0  0  0
    2.2293    1.3289   -0.5109 N   0  0  0  0  0  0  0  0  0  0  0  0
   -5.0645   -0.3690    0.1989 H   0  0  0  0  0  0  0  0  0  0  0  0
   -3.6515    1.4272   -0.6498 H   0  0  0  0  0  0  0  0  0  0  0  0
   -2.3905    0.2736   -1.0601 H   0  0  0  0  0  0  0  0  0  0  0  0
   -2.2943   -0.3886    1.4350 H   0  0  0  0  0  0  0  0  0  0  0  0
   -3.4283    0.9280    1.7350 H   0  0  0  0  0  0  0  0  0  0  0  0
   -5.1231   -2.3697    1.4339 H   0  0  0  0  0  0  0  0  0  0  0  0
   -2.2878   -2.1179   -1.6933 H   0  0  0  0  0  0  0  0  0  0  0  0
   -3.3235   -0.2361   -3.1185 H   0  0  0  0  0  0  0  0  0  0  0  0
   -6.9013   -1.1898   -1.0710 H   0  0  0  0  0  0  0  0  0  0  0  0
   -1.7620    2.3674    1.5905 H   0  0  0  0  0  0  0  0  0  0  0  0
   -4.2451   -4.5280    2.0353 H   0  0  0  0  0  0  0  0  0  0  0  0
   -1.4264   -4.2770   -1.0693 H   0  0  0  0  0  0  0  0  0  0  0  0
   -4.5213   -0.2580   -5.1933 H   0  0  0  0  0  0  0  0  0  0  0  0
   -8.0703   -1.2395   -3.1688 H   0  0  0  0  0  0  0  0  0  0  0  0
   -2.3995   -5.4959    0.7899 H   0  0  0  0  0  0  0  0  0  0  0  0
   -6.8995   -0.7333   -5.2367 H   0  0  0  0  0  0  0  0  0  0  0  0
    0.0896    3.4808    0.8133 H   0  0  0  0  0  0  0  0  0  0  0  0
   -0.2426   -0.7107    0.2909 H   0  0  0  0  0  0  0  0  0  0  0  0
    2.2852    3.3671   -0.2212 H   0  0  0  0  0  0  0  0  0  0  0  0
    1.9660   -0.7071   -0.6953 H   0  0  0  0  0  0  0  0  0  0  0  0
  1  2  1  0  0  0  0 
  1  3  1  0  0  0  0 
  1  4  1  0  0  0  0 
  2  5  1  0  0  0  0 
  3  6  2  0  0  0  0 
  3  7  1  0  0  0  0 
  4  8  2  0  0  0  0 
  4  9  1  0  0  0  0 
  5 10  1  0  0  0  0 
  6 11  1  0  0  0  0 
  7 12  2  0  0  0  0 
  8 13  1  0  0  0  0 
  9 14  2  0  0  0  0 
 10 15  1  0  0  0  0 
 11 16  2  0  0  0  0 
 12 16  1  0  0  0  0 
 13 17  2  0  0  0  0 
 14 17  1  0  0  0  0 
 15 18  2  0  0  0  0 
 15 19  1  0  0  0  0 
 18 20  1  0  0  0  0 
 19 21  2  0  0  0  0 
 20 22  2  0  0  0  0 
 21 22  1  0  0  0  0 
  1 23  1  0  0  0  0 
  2 24  1  0  0  0  0 
  2 25  1  0  0  0  0 
  5 26  1  0  0  0  0 
  5 27  1  0  0  0  0 
  6 28  1  0  0  0  0 
  7 29  1  0  0  0  0 
  8 30  1  0  0  0  0 
  9 31  1  0  0  0  0 
 10 32  1  0  0  0  0 
 11 33  1  0  0  0  0 
 12 34  1  0  0  0  0 
 13 35  1  0  0  0  0 
 14 36  1  0  0  0  0 
 16 37  1  0  0  0  0 
 17 38  1  0  0  0  0 
 18 39  1  0  0  0  0 
 19 40  1  0  0  0  0 
 20 41  1  0  0  0  0 
 21 42  1  0  0  0  0 
M  END
> <cdk:Title>
milverine

> <Conformer>
1

> <SuperDrugID>
SD003320

$$$$
