mebendazole
  CDK     0628171801

 35 37  0  0  0  0  0  0  0  0999 V2000
   -0.5574   -0.4826    0.3610 C   0  0  0  0  0  0  0  0  0  0  0  0
   -1.4891   -1.2933    0.1375 O   0  0  0  0  0  0  0  0  0  0  0  0
    0.7001   -1.0450    0.6965 C   0  0  0  0  0  0  0  0  0  0  0  0
   -0.8089    0.9180    0.2500 C   0  0  0  0  0  0  0  0  0  0  0  0
    1.2610   -2.0569   -0.1252 C   0  0  0  0  0  0  0  0  0  0  0  0
    1.3993   -0.6284    1.8631 C   0  0  0  0  0  0  0  0  0  0  0  0
   -2.1204    1.4305    0.4214 C   0  0  0  0  0  0  0  0  0  0  0  0
    0.2268    1.8335   -0.0706 C   0  0  0  0  0  0  0  0  0  0  0  0
    2.4833   -2.6298    0.2514 C   0  0  0  0  0  0  0  0  0  0  0  0
    2.6301   -1.2188    2.2225 C   0  0  0  0  0  0  0  0  0  0  0  0
   -2.3942    2.7995    0.2468 C   0  0  0  0  0  0  0  0  0  0  0  0
   -0.0468    3.2038   -0.2464 C   0  0  0  0  0  0  0  0  0  0  0  0
    3.1493   -2.2366    1.4052 C   0  0  0  0  0  0  0  0  0  0  0  0
    3.2179   -3.5876   -0.3187 N   0  0  0  0  0  0  0  0  0  0  0  0
   -1.3560    3.6873   -0.0859 C   0  0  0  0  0  0  0  0  0  0  0  0
    4.2578   -2.9817    1.5352 N   0  0  0  0  0  0  0  0  0  0  0  0
    4.2808   -3.8177    0.4715 C   0  0  0  0  0  0  0  0  0  0  0  0
    5.1834   -4.7904    0.1954 N   0  0  0  0  0  0  0  0  0  0  0  0
    6.1899   -5.2155    1.0008 C   0  0  0  0  0  0  0  0  0  0  0  0
    6.9086   -6.2848    0.5576 O   0  0  0  0  0  0  0  0  0  0  0  0
    6.4491   -4.6810    2.1057 O   0  0  0  0  0  0  0  0  0  0  0  0
    7.9563   -6.9629    1.2567 C   0  0  0  0  0  0  0  0  0  0  0  0
    0.7933   -2.3772   -0.9770 H   0  0  0  0  0  0  0  0  0  0  0  0
    1.0081    0.0975    2.4696 H   0  0  0  0  0  0  0  0  0  0  0  0
   -2.8929    0.8095    0.6793 H   0  0  0  0  0  0  0  0  0  0  0  0
    1.1916    1.5132   -0.1940 H   0  0  0  0  0  0  0  0  0  0  0  0
    3.1271   -0.9204    3.0635 H   0  0  0  0  0  0  0  0  0  0  0  0
   -3.3486    3.1477    0.3630 H   0  0  0  0  0  0  0  0  0  0  0  0
    0.7058    3.8510   -0.4930 H   0  0  0  0  0  0  0  0  0  0  0  0
    3.0110   -4.0469   -1.1475 H   0  0  0  0  0  0  0  0  0  0  0  0
   -1.5516    4.6838   -0.2072 H   0  0  0  0  0  0  0  0  0  0  0  0
    5.0751   -5.2518   -0.6521 H   0  0  0  0  0  0  0  0  0  0  0  0
    8.3290   -7.7645    0.6185 H   0  0  0  0  0  0  0  0  0  0  0  0
    7.5767   -7.3964    2.1854 H   0  0  0  0  0  0  0  0  0  0  0  0
    8.7772   -6.2794    1.4842 H   0  0  0  0  0  0  0  0  0  0  0  0
  1  2  2  0  0  0  0 
  1  3  1  0  0  0  0 
  1  4  1  0  0  0  0 
  3  5  1  0  0  0  0 
  3  6  2  0  0  0  0 
  4  7  2  0  0  0  0 
  4  8  1  0  0  0  0 
  5  9  2  0  0  0  0 
  6 10  1  0  0  0  0 
  7 11  1  0  0  0  0 
  8 12  2  0  0  0  0 
  9 13  1  0  0  0  0 
  9 14  1  0  0  0  0 
 10 13  2  0  0  0  0 
 11 15  2  0  0  0  0 
 12 15  1  0  0  0  0 
 13 16  1  0  0  0  0 
 14 17  1  0  0  0  0 
 16 17  2  0  0  0  0 
 17 18  1  0  0  0  0 
 18 19  1  0  0  0  0 
 19 20  1  0  0  0  0 
 19 21  2  0  0  0  0 
 20 22  1  0  0  0  0 
 23  5  1  0  0  0  0 
 24  6  1  0  0  0  0 
 25  7  1  0  0  0  0 
 26  8  1  0  0  0  0 
 27 10  1  0  0  0  0 
 28 11  1  0  0  0  0 
 29 12  1  0  0  0  0 
 30 14  1  0  0  0  0 
 31 15  1  0  0  0  0 
 32 18  1  0  0  0  0 
 33 22  1  0  0  0  0 
 34 22  1  0  0  0  0 
 35 22  1  0  0  0  0 
M  END
> <cdk:Title>
mebendazole

> <Conformer>
1

> <SuperDrugID>
SD001451

$$$$
