metapramine
  CDK     0628171801

 36 38  0  0  0  0  0  0  0  0999 V2000
   -0.4884   -0.4731   -1.8176 N   0  0  2  0  0  0  0  0  0  0  0  0
   -0.0134   -1.4037   -2.8649 C   0  0  0  0  0  0  0  0  0  0  0  0
   -1.6045   -0.9644   -0.9626 C   0  0  1  0  0  0  0  0  0  0  0  0
   -1.1590   -2.0080    0.0057 C   0  0  0  0  0  0  0  0  0  0  0  0
   -2.2641    0.2219   -0.2006 C   0  0  2  0  0  0  0  0  0  0  0  0
   -0.1284   -1.7180    0.9390 C   0  0  0  0  0  0  0  0  0  0  0  0
   -1.7494   -3.2941    0.0142 C   0  0  0  0  0  0  0  0  0  0  0  0
   -1.4753    0.9885    0.8176 C   0  0  0  0  0  0  0  0  0  0  0  0
    0.5102   -0.5036    0.9198 N   0  0  0  0  0  0  0  0  0  0  0  0
    0.2667   -2.7003    1.8746 C   0  0  0  0  0  0  0  0  0  0  0  0
   -1.3371   -4.2688    0.9397 C   0  0  0  0  0  0  0  0  0  0  0  0
   -0.1648    0.6483    1.2850 C   0  0  0  0  0  0  0  0  0  0  0  0
   -2.1006    2.1549    1.3309 C   0  0  0  0  0  0  0  0  0  0  0  0
    1.9048   -0.4833    0.5343 C   0  0  0  0  0  0  0  0  0  0  0  0
   -0.3360   -3.9692    1.8774 C   0  0  0  0  0  0  0  0  0  0  0  0
    0.4799    1.5291    2.1927 C   0  0  0  0  0  0  0  0  0  0  0  0
   -1.4390    3.0100    2.2247 C   0  0  0  0  0  0  0  0  0  0  0  0
   -0.1396    2.7031    2.6473 C   0  0  0  0  0  0  0  0  0  0  0  0
   -0.8123    0.3684   -2.2999 H   0  0  0  0  0  0  0  0  0  0  0  0
    0.8765   -0.9767   -3.3273 H   0  0  0  0  0  0  0  0  0  0  0  0
   -0.7752   -1.5369   -3.6351 H   0  0  0  0  0  0  0  0  0  0  0  0
    0.2512   -2.3750   -2.4435 H   0  0  0  0  0  0  0  0  0  0  0  0
   -2.3807   -1.3647   -1.6267 H   0  0  0  0  0  0  0  0  0  0  0  0
   -3.1627   -0.1571    0.2956 H   0  0  0  0  0  0  0  0  0  0  0  0
   -2.6024    0.9320   -0.9622 H   0  0  0  0  0  0  0  0  0  0  0  0
   -2.4867   -3.5326   -0.6535 H   0  0  0  0  0  0  0  0  0  0  0  0
    1.0008   -2.4964    2.5577 H   0  0  0  0  0  0  0  0  0  0  0  0
   -1.7677   -5.1955    0.9298 H   0  0  0  0  0  0  0  0  0  0  0  0
   -3.0531    2.4064    1.0479 H   0  0  0  0  0  0  0  0  0  0  0  0
    2.5325   -0.7361    1.3916 H   0  0  0  0  0  0  0  0  0  0  0  0
    2.1080   -1.1999   -0.2663 H   0  0  0  0  0  0  0  0  0  0  0  0
    2.2002    0.5020    0.1658 H   0  0  0  0  0  0  0  0  0  0  0  0
   -0.0436   -4.6755    2.5566 H   0  0  0  0  0  0  0  0  0  0  0  0
    1.4187    1.3205    2.5410 H   0  0  0  0  0  0  0  0  0  0  0  0
   -1.9019    3.8564    2.5631 H   0  0  0  0  0  0  0  0  0  0  0  0
    0.3515    3.3311    3.2889 H   0  0  0  0  0  0  0  0  0  0  0  0
  1  2  1  0  0  0  0 
  3  1  1  0  0  0  0 
  3  4  1  0  0  0  0 
  3  5  1  0  0  0  0 
  4  6  2  0  0  0  0 
  4  7  1  0  0  0  0 
  5  8  1  0  0  0  0 
  6  9  1  0  0  0  0 
  6 10  1  0  0  0  0 
  7 11  2  0  0  0  0 
  8 12  2  0  0  0  0 
  8 13  1  0  0  0  0 
  9 12  1  0  0  0  0 
  9 14  1  0  0  0  0 
 10 15  2  0  0  0  0 
 11 15  1  0  0  0  0 
 12 16  1  0  0  0  0 
 13 17  2  0  0  0  0 
 16 18  2  0  0  0  0 
 17 18  1  0  0  0  0 
  1 19  1  0  0  0  0 
  2 20  1  0  0  0  0 
  2 21  1  0  0  0  0 
  2 22  1  0  0  0  0 
  3 23  1  0  0  0  0 
  5 24  1  0  0  0  0 
  5 25  1  0  0  0  0 
  7 26  1  0  0  0  0 
 10 27  1  0  0  0  0 
 11 28  1  0  0  0  0 
 13 29  1  0  0  0  0 
 14 30  1  0  0  0  0 
 14 31  1  0  0  0  0 
 14 32  1  0  0  0  0 
 15 33  1  0  0  0  0 
 16 34  1  0  0  0  0 
 17 35  1  0  0  0  0 
 18 36  1  0  0  0  0 
M  END
> <cdk:Title>
metapramine

> <Conformer>
1

> <SuperDrugID>
SD001520

$$$$
