vandetanib
  CDK     0628171801

 54 57  0  0  0  0  0  0  0  0999 V2000
   -0.1526    0.5394    3.0496 C   0  0  1  0  0  0  0  0  0  0  0  0
   -0.5629    1.4940    1.8988 C   0  0  1  0  0  0  0  0  0  0  0  0
   -2.0000    1.9027    1.9662 N   0  0  1  0  0  0  0  0  0  0  0  0
   -2.9290    0.7315    2.0266 C   0  0  2  0  0  0  0  0  0  0  0  0
   -2.5948   -0.2530    3.1806 C   0  0  1  0  0  0  0  0  0  0  0  0
   -1.0992   -0.6950    3.1396 C   0  0  2  0  0  0  0  0  0  0  0  0
   -2.2915    2.9770    2.9571 C   0  0  0  0  0  0  0  0  0  0  0  0
   -0.7214   -1.5792    4.3588 C   0  0  1  0  0  0  0  0  0  0  0  0
   -1.4995   -2.7909    4.3536 O   0  0  0  0  0  0  0  0  0  0  0  0
   -1.1990   -3.6095    5.4060 C   0  0  0  0  0  0  0  0  0  0  0  0
   -1.5763   -4.3586    7.6947 C   0  0  0  0  0  0  0  0  0  0  0  0
   -1.9129   -3.5125    6.6198 C   0  0  0  0  0  0  0  0  0  0  0  0
   -0.1758   -4.5652    5.2673 C   0  0  0  0  0  0  0  0  0  0  0  0
    0.1428   -5.4232    6.3351 C   0  0  0  0  0  0  0  0  0  0  0  0
   -0.5699   -5.3474    7.5644 C   0  0  0  0  0  0  0  0  0  0  0  0
   -0.2401   -6.2950    8.5723 C   0  0  0  0  0  0  0  0  0  0  0  0
    1.1297   -6.3388    6.1752 N   0  0  0  0  0  0  0  0  0  0  0  0
    1.4456   -7.2138    7.1569 C   0  0  0  0  0  0  0  0  0  0  0  0
    0.7552   -7.1888    8.3215 N   0  0  0  0  0  0  0  0  0  0  0  0
   -2.9139   -2.5880    6.7752 O   0  0  0  0  0  0  0  0  0  0  0  0
   -4.2134   -3.1035    6.4307 C   0  0  0  0  0  0  0  0  0  0  0  0
   -0.9549   -6.3276    9.7378 N   0  0  0  0  0  0  0  0  0  0  0  0
   -1.0041   -7.2705   10.7289 C   0  0  0  0  0  0  0  0  0  0  0  0
   -2.4015   -8.3324   12.4482 C   0  0  0  0  0  0  0  0  0  0  0  0
   -2.2356   -7.3862   11.4193 C   0  0  0  0  0  0  0  0  0  0  0  0
    0.0676   -8.1091   11.1234 C   0  0  0  0  0  0  0  0  0  0  0  0
   -0.0984   -9.0546   12.1547 C   0  0  0  0  0  0  0  0  0  0  0  0
   -1.3341   -9.1686   12.8178 C   0  0  0  0  0  0  0  0  0  0  0  0
   -3.2604   -6.6336   11.1098 F   0  0  0  0  0  0  0  0  0  0  0  0
   -1.5576  -10.4145   14.1834 Br  0  0  0  0  0  0  0  0  0  0  0  0
    0.8733    0.2004    2.8757 H   0  0  0  0  0  0  0  0  0  0  0  0
   -0.1688    1.0868    3.9960 H   0  0  0  0  0  0  0  0  0  0  0  0
    0.0900    2.3703    1.9132 H   0  0  0  0  0  0  0  0  0  0  0  0
   -0.3873    0.9908    0.9436 H   0  0  0  0  0  0  0  0  0  0  0  0
   -2.8687    0.1951    1.0752 H   0  0  0  0  0  0  0  0  0  0  0  0
   -3.9644    1.0695    2.1269 H   0  0  0  0  0  0  0  0  0  0  0  0
   -2.8180    0.2233    4.1395 H   0  0  0  0  0  0  0  0  0  0  0  0
   -3.2443   -1.1285    3.0864 H   0  0  0  0  0  0  0  0  0  0  0  0
   -0.9523   -1.2986    2.2367 H   0  0  0  0  0  0  0  0  0  0  0  0
   -2.1285    2.6305    3.9793 H   0  0  0  0  0  0  0  0  0  0  0  0
   -3.3264    3.3094    2.8598 H   0  0  0  0  0  0  0  0  0  0  0  0
   -1.6557    3.8447    2.7736 H   0  0  0  0  0  0  0  0  0  0  0  0
    0.3458   -1.8223    4.3009 H   0  0  0  0  0  0  0  0  0  0  0  0
   -0.9017   -1.0150    5.2806 H   0  0  0  0  0  0  0  0  0  0  0  0
   -2.0858   -4.2406    8.5704 H   0  0  0  0  0  0  0  0  0  0  0  0
    0.3327   -4.6329    4.3823 H   0  0  0  0  0  0  0  0  0  0  0  0
    2.1930   -7.8936    7.0161 H   0  0  0  0  0  0  0  0  0  0  0  0
   -4.9554   -2.3355    6.6461 H   0  0  0  0  0  0  0  0  0  0  0  0
   -4.2723   -3.3423    5.3668 H   0  0  0  0  0  0  0  0  0  0  0  0
   -4.4691   -3.9897    7.0176 H   0  0  0  0  0  0  0  0  0  0  0  0
   -1.5869   -5.6049    9.8533 H   0  0  0  0  0  0  0  0  0  0  0  0
   -3.2992   -8.4101   12.9329 H   0  0  0  0  0  0  0  0  0  0  0  0
    0.9833   -8.0340   10.6809 H   0  0  0  0  0  0  0  0  0  0  0  0
    0.6846   -9.6521   12.4308 H   0  0  0  0  0  0  0  0  0  0  0  0
  1  2  1  0  0  0  0 
  2  3  1  0  0  0  0 
  3  4  1  0  0  0  0 
  4  5  1  0  0  0  0 
  5  6  1  0  0  0  0 
  1  6  1  0  0  0  0 
  3  7  1  0  0  0  0 
  6  8  1  0  0  0  0 
  8  9  1  0  0  0  0 
  9 10  1  0  0  0  0 
 12 10  2  0  0  0  0 
 10 13  1  0  0  0  0 
 11 12  1  0  0  0  0 
 13 14  2  0  0  0  0 
 11 15  2  0  0  0  0 
 16 15  1  0  0  0  0 
 14 15  1  0  0  0  0 
 14 17  1  0  0  0  0 
 17 18  2  0  0  0  0 
 18 19  1  0  0  0  0 
 16 19  2  0  0  0  0 
 12 20  1  0  0  0  0 
 20 21  1  0  0  0  0 
 16 22  1  0  0  0  0 
 22 23  1  0  0  0  0 
 25 23  2  0  0  0  0 
 23 26  1  0  0  0  0 
 24 25  1  0  0  0  0 
 26 27  2  0  0  0  0 
 27 28  1  0  0  0  0 
 24 28  2  0  0  0  0 
 25 29  1  0  0  0  0 
 28 30  1  0  0  0  0 
  1 31  1  0  0  0  0 
  1 32  1  0  0  0  0 
  2 33  1  0  0  0  0 
  2 34  1  0  0  0  0 
  4 35  1  0  0  0  0 
  4 36  1  0  0  0  0 
  5 37  1  0  0  0  0 
  5 38  1  0  0  0  0 
  6 39  1  0  0  0  0 
  7 40  1  0  0  0  0 
  7 41  1  0  0  0  0 
  7 42  1  0  0  0  0 
  8 43  1  0  0  0  0 
  8 44  1  0  0  0  0 
 11 45  1  0  0  0  0 
 13 46  1  0  0  0  0 
 18 47  1  0  0  0  0 
 21 48  1  0  0  0  0 
 21 49  1  0  0  0  0 
 21 50  1  0  0  0  0 
 22 51  1  0  0  0  0 
 24 52  1  0  0  0  0 
 26 53  1  0  0  0  0 
 27 54  1  0  0  0  0 
M  END
> <cdk:Title>
vandetanib

> <Conformer>
1

> <SuperDrugID>
SD003409

$$$$
