oxitriptan
  CDK     0628171801

 28 29  0  0  0  0  0  0  0  0999 V2000
    7.2820    0.1934   -0.8794 C   0  0  1  0  0  0  0  0  0  0  0  0
    6.4178   -0.1439   -2.1269 C   0  0  1  0  0  0  0  0  0  0  0  0
    6.9765   -0.7014    0.2643 C   0  0  0  0  0  0  0  0  0  0  0  0
    4.9647   -0.0111   -1.8729 C   0  0  0  0  0  0  0  0  0  0  0  0
    6.7940    0.7049   -3.2667 N   0  0  2  0  0  0  0  0  0  0  0  0
    7.5450   -1.9382    0.5689 C   0  0  0  0  0  0  0  0  0  0  0  0
    6.0016   -0.4863    1.2414 C   0  0  0  0  0  0  0  0  0  0  0  0
    4.1672   -1.1048   -1.9072 O   0  0  0  0  0  0  0  0  0  0  0  0
    4.4476    1.0955   -1.5955 O   0  0  0  0  0  0  0  0  0  0  0  0
    6.8938   -2.4261    1.7027 C   0  0  0  0  0  0  0  0  0  0  0  0
    8.5614   -2.6821   -0.0577 C   0  0  0  0  0  0  0  0  0  0  0  0
    5.9670   -1.5355    2.0813 N   0  0  0  0  0  0  0  0  0  0  0  0
    7.2317   -3.6694    2.2631 C   0  0  0  0  0  0  0  0  0  0  0  0
    8.9156   -3.9316    0.4991 C   0  0  0  0  0  0  0  0  0  0  0  0
    8.2564   -4.4220    1.6516 C   0  0  0  0  0  0  0  0  0  0  0  0
    9.8940   -4.6717   -0.0735 O   0  0  0  0  0  0  0  0  0  0  0  0
    8.3371    0.0926   -1.1434 H   0  0  0  0  0  0  0  0  0  0  0  0
    7.1294    1.2358   -0.5855 H   0  0  0  0  0  0  0  0  0  0  0  0
    6.6326   -1.1736   -2.4225 H   0  0  0  0  0  0  0  0  0  0  0  0
    6.2585    0.3784   -4.0747 H   0  0  0  0  0  0  0  0  0  0  0  0
    7.7757    0.5099   -3.4730 H   0  0  0  0  0  0  0  0  0  0  0  0
    5.3975    0.3363    1.3063 H   0  0  0  0  0  0  0  0  0  0  0  0
    3.2096   -1.0259   -1.7110 H   0  0  0  0  0  0  0  0  0  0  0  0
    9.0277   -2.3308   -0.8962 H   0  0  0  0  0  0  0  0  0  0  0  0
    5.3646   -1.6361    2.8358 H   0  0  0  0  0  0  0  0  0  0  0  0
    6.7472   -4.0200    3.0921 H   0  0  0  0  0  0  0  0  0  0  0  0
    8.5189   -5.3302    2.0438 H   0  0  0  0  0  0  0  0  0  0  0  0
   10.7279   -4.3125    0.2993 H   0  0  0  0  0  0  0  0  0  0  0  0
  2  1  1  0  0  0  0 
  1  3  1  0  0  0  0 
  2  4  1  0  0  0  0 
  2  5  1  0  0  0  0 
  3  6  1  0  0  0  0 
  3  7  2  0  0  0  0 
  4  8  1  0  0  0  0 
  4  9  2  0  0  0  0 
  6 10  1  0  0  0  0 
  6 11  2  0  0  0  0 
  7 12  1  0  0  0  0 
 10 12  1  0  0  0  0 
 10 13  2  0  0  0  0 
 11 14  1  0  0  0  0 
 13 15  1  0  0  0  0 
 14 15  2  0  0  0  0 
 14 16  1  0  0  0  0 
  1 17  1  0  0  0  0 
  1 18  1  0  0  0  0 
  2 19  1  0  0  0  0 
  5 20  1  0  0  0  0 
  5 21  1  0  0  0  0 
  7 22  1  0  0  0  0 
  8 23  1  0  0  0  0 
 11 24  1  0  0  0  0 
 12 25  1  0  0  0  0 
 13 26  1  0  0  0  0 
 15 27  1  0  0  0  0 
 16 28  1  0  0  0  0 
M  END
> <cdk:Title>
oxitriptan

> <Conformer>
1

> <SuperDrugID>
SD003327

$$$$
