leucinocaine
  CDK     0628171801

 49 49  0  0  0  0  0  0  0  0999 V2000
    1.2403    1.1299    2.0509 C   0  0  1  0  0  0  0  0  0  0  0  0
    1.4979   -0.0318    1.1255 N   0  0  0  0  0  0  0  0  0  0  0  0
    2.5553    1.8803    2.4392 C   0  0  1  0  0  0  0  0  0  0  0  0
    0.1635    2.0887    1.4353 C   0  0  2  0  0  0  0  0  0  0  0  0
    1.6430   -1.3980    1.7273 C   0  0  2  0  0  0  0  0  0  0  0  0
    2.1214    0.2073   -0.2189 C   0  0  2  0  0  0  0  0  0  0  0  0
    3.6272    1.0135    2.8403 O   0  0  0  0  0  0  0  0  0  0  0  0
   -0.6677    2.9502    2.4465 C   0  0  1  0  0  0  0  0  0  0  0  0
    0.2927   -2.1391    1.7783 C   0  0  0  0  0  0  0  0  0  0  0  0
    1.2604   -0.3481   -1.3747 C   0  0  0  0  0  0  0  0  0  0  0  0
    3.7457    0.3123    4.0081 C   0  0  0  0  0  0  0  0  0  0  0  0
   -1.2890    4.1832    1.7306 C   0  0  0  0  0  0  0  0  0  0  0  0
   -1.7769    2.1303    3.1687 C   0  0  0  0  0  0  0  0  0  0  0  0
    2.8391    0.4198    4.8691 O   0  0  0  0  0  0  0  0  0  0  0  0
    4.8751   -0.5188    4.2376 C   0  0  0  0  0  0  0  0  0  0  0  0
    5.8542   -0.7177    3.2319 C   0  0  0  0  0  0  0  0  0  0  0  0
    5.0645   -1.1642    5.4860 C   0  0  0  0  0  0  0  0  0  0  0  0
    6.9835   -1.5223    3.4717 C   0  0  0  0  0  0  0  0  0  0  0  0
    6.2062   -1.9475    5.7347 C   0  0  0  0  0  0  0  0  0  0  0  0
    7.1720   -2.1285    4.7271 C   0  0  0  0  0  0  0  0  0  0  0  0
    8.2754   -2.8659    4.9619 N   0  0  0  0  0  0  0  0  0  0  0  0
    0.8212    0.7329    2.9785 H   0  0  0  0  0  0  0  0  0  0  0  0
    2.9218    2.4465    1.5809 H   0  0  0  0  0  0  0  0  0  0  0  0
    2.3620    2.5976    3.2423 H   0  0  0  0  0  0  0  0  0  0  0  0
   -0.5384    1.4993    0.8392 H   0  0  0  0  0  0  0  0  0  0  0  0
    0.6725    2.7540    0.7328 H   0  0  0  0  0  0  0  0  0  0  0  0
    2.0164   -1.3331    2.7493 H   0  0  0  0  0  0  0  0  0  0  0  0
    2.3578   -2.0115    1.1715 H   0  0  0  0  0  0  0  0  0  0  0  0
    3.1145   -0.2458   -0.2651 H   0  0  0  0  0  0  0  0  0  0  0  0
    2.2573    1.2720   -0.4089 H   0  0  0  0  0  0  0  0  0  0  0  0
    0.0071    3.3357    3.2150 H   0  0  0  0  0  0  0  0  0  0  0  0
   -0.0571   -2.3714    0.7715 H   0  0  0  0  0  0  0  0  0  0  0  0
    0.4055   -3.0746    2.3312 H   0  0  0  0  0  0  0  0  0  0  0  0
   -0.4555   -1.5253    2.2831 H   0  0  0  0  0  0  0  0  0  0  0  0
    1.7465   -0.1488   -2.3326 H   0  0  0  0  0  0  0  0  0  0  0  0
    1.1289   -1.4261   -1.2733 H   0  0  0  0  0  0  0  0  0  0  0  0
    0.2792    0.1311   -1.3815 H   0  0  0  0  0  0  0  0  0  0  0  0
   -0.5009    4.8278    1.3376 H   0  0  0  0  0  0  0  0  0  0  0  0
   -1.8885    4.7765    2.4218 H   0  0  0  0  0  0  0  0  0  0  0  0
   -1.9238    3.8677    0.9013 H   0  0  0  0  0  0  0  0  0  0  0  0
   -1.3494    1.3058    3.7386 H   0  0  0  0  0  0  0  0  0  0  0  0
   -2.3204    2.7666    3.8688 H   0  0  0  0  0  0  0  0  0  0  0  0
   -2.4913    1.7215    2.4519 H   0  0  0  0  0  0  0  0  0  0  0  0
    5.7628   -0.2782    2.3112 H   0  0  0  0  0  0  0  0  0  0  0  0
    4.3767   -1.0623    6.2367 H   0  0  0  0  0  0  0  0  0  0  0  0
    7.6706   -1.6565    2.7274 H   0  0  0  0  0  0  0  0  0  0  0  0
    6.3311   -2.3777    6.6544 H   0  0  0  0  0  0  0  0  0  0  0  0
    8.9463   -2.9767    4.2685 H   0  0  0  0  0  0  0  0  0  0  0  0
    8.4080   -3.2796    5.8288 H   0  0  0  0  0  0  0  0  0  0  0  0
  1  2  1  0  0  0  0 
  1  3  1  0  0  0  0 
  1  4  1  0  0  0  0 
  2  5  1  0  0  0  0 
  2  6  1  0  0  0  0 
  3  7  1  0  0  0  0 
  4  8  1  0  0  0  0 
  5  9  1  0  0  0  0 
  6 10  1  0  0  0  0 
  7 11  1  0  0  0  0 
  8 12  1  0  0  0  0 
  8 13  1  0  0  0  0 
 11 14  2  0  0  0  0 
 11 15  1  0  0  0  0 
 15 16  2  0  0  0  0 
 15 17  1  0  0  0  0 
 16 18  1  0  0  0  0 
 17 19  2  0  0  0  0 
 18 20  2  0  0  0  0 
 19 20  1  0  0  0  0 
 20 21  1  0  0  0  0 
  1 22  1  0  0  0  0 
  3 23  1  0  0  0  0 
  3 24  1  0  0  0  0 
  4 25  1  0  0  0  0 
  4 26  1  0  0  0  0 
  5 27  1  0  0  0  0 
  5 28  1  0  0  0  0 
  6 29  1  0  0  0  0 
  6 30  1  0  0  0  0 
  8 31  1  0  0  0  0 
  9 32  1  0  0  0  0 
  9 33  1  0  0  0  0 
  9 34  1  0  0  0  0 
 10 35  1  0  0  0  0 
 10 36  1  0  0  0  0 
 10 37  1  0  0  0  0 
 12 38  1  0  0  0  0 
 12 39  1  0  0  0  0 
 12 40  1  0  0  0  0 
 13 41  1  0  0  0  0 
 13 42  1  0  0  0  0 
 13 43  1  0  0  0  0 
 16 44  1  0  0  0  0 
 17 45  1  0  0  0  0 
 18 46  1  0  0  0  0 
 19 47  1  0  0  0  0 
 21 48  1  0  0  0  0 
 21 49  1  0  0  0  0 
M  END
> <cdk:Title>
leucinocaine

> <Conformer>
1

> <SuperDrugID>
SD003215

$$$$
