prazepam
  CDK     0628171801

 40 43  0  0  0  0  0  0  0  0999 V2000
    6.9674    2.2419    2.0631 C   0  0  1  0  0  0  0  0  0  0  0  0
    6.3496    1.7479    0.8389 N   0  0  0  0  0  0  0  0  0  0  0  0
    8.5180    2.2667    1.9748 C   0  0  1  0  0  0  0  0  0  0  0  0
    5.6548    2.6316    0.0043 C   0  0  0  0  0  0  0  0  0  0  0  0
    6.4493    0.3921    0.5421 C   0  0  0  0  0  0  0  0  0  0  0  0
    9.2513    2.9399    3.1487 C   0  0  2  0  0  0  0  0  0  0  0  0
    9.3635    1.4255    2.9459 C   0  0  1  0  0  0  0  0  0  0  0  0
    4.3741    2.3372   -0.5730 C   0  0  0  0  0  0  0  0  0  0  0  0
    6.2484    3.8885   -0.2894 C   0  0  0  0  0  0  0  0  0  0  0  0
    7.1206   -0.3886    1.2615 O   0  0  0  0  0  0  0  0  0  0  0  0
    5.7318   -0.2238   -0.5954 C   0  0  2  0  0  0  0  0  0  0  0  0
    3.7146    1.1030   -0.3795 C   0  0  0  0  0  0  0  0  0  0  0  0
    3.7543    3.3078   -1.4062 C   0  0  0  0  0  0  0  0  0  0  0  0
    5.6041    4.8432   -1.0878 C   0  0  0  0  0  0  0  0  0  0  0  0
    4.3714   -0.0080   -0.4131 N   0  0  0  0  0  0  0  0  0  0  0  0
    2.3298    0.9934   -0.1427 C   0  0  0  0  0  0  0  0  0  0  0  0
    4.3550    4.5544   -1.6527 C   0  0  0  0  0  0  0  0  0  0  0  0
    1.5782   -0.1068   -0.6394 C   0  0  0  0  0  0  0  0  0  0  0  0
    1.6320    1.9718    0.6150 C   0  0  0  0  0  0  0  0  0  0  0  0
    3.5915    5.7092   -2.6287 Cl  0  0  0  0  0  0  0  0  0  0  0  0
    0.2014   -0.2337   -0.3778 C   0  0  0  0  0  0  0  0  0  0  0  0
    0.2535    1.8497    0.8766 C   0  0  0  0  0  0  0  0  0  0  0  0
   -0.4598    0.7426    0.3860 C   0  0  0  0  0  0  0  0  0  0  0  0
    6.6361    3.2570    2.2997 H   0  0  0  0  0  0  0  0  0  0  0  0
    6.6360    1.6283    2.9045 H   0  0  0  0  0  0  0  0  0  0  0  0
    8.9798    2.4746    1.0059 H   0  0  0  0  0  0  0  0  0  0  0  0
    8.6508    3.2450    4.0079 H   0  0  0  0  0  0  0  0  0  0  0  0
   10.1428    3.5163    2.8947 H   0  0  0  0  0  0  0  0  0  0  0  0
    8.8387    0.8256    3.6917 H   0  0  0  0  0  0  0  0  0  0  0  0
   10.3286    1.0793    2.5723 H   0  0  0  0  0  0  0  0  0  0  0  0
    7.1708    4.1302    0.0799 H   0  0  0  0  0  0  0  0  0  0  0  0
    5.8978   -1.3029   -0.6331 H   0  0  0  0  0  0  0  0  0  0  0  0
    6.0695    0.2039   -1.5421 H   0  0  0  0  0  0  0  0  0  0  0  0
    2.8526    3.1102   -1.8517 H   0  0  0  0  0  0  0  0  0  0  0  0
    6.0540    5.7465   -1.2556 H   0  0  0  0  0  0  0  0  0  0  0  0
    2.0268   -0.8320   -1.2050 H   0  0  0  0  0  0  0  0  0  0  0  0
    2.1218    2.7853    0.9965 H   0  0  0  0  0  0  0  0  0  0  0  0
   -0.3169   -1.0379   -0.7438 H   0  0  0  0  0  0  0  0  0  0  0  0
   -0.2281    2.5673    1.4249 H   0  0  0  0  0  0  0  0  0  0  0  0
   -1.4596    0.6477    0.5797 H   0  0  0  0  0  0  0  0  0  0  0  0
  1  2  1  0  0  0  0 
  1  3  1  0  0  0  0 
  2  4  1  0  0  0  0 
  2  5  1  0  0  0  0 
  3  6  1  0  0  0  0 
  3  7  1  0  0  0  0 
  4  8  2  0  0  0  0 
  4  9  1  0  0  0  0 
  5 10  2  0  0  0  0 
  5 11  1  0  0  0  0 
  6  7  1  0  0  0  0 
  8 12  1  0  0  0  0 
  8 13  1  0  0  0  0 
  9 14  2  0  0  0  0 
 11 15  1  0  0  0  0 
 12 15  2  0  0  0  0 
 12 16  1  0  0  0  0 
 13 17  2  0  0  0  0 
 14 17  1  0  0  0  0 
 16 18  2  0  0  0  0 
 16 19  1  0  0  0  0 
 17 20  1  0  0  0  0 
 18 21  1  0  0  0  0 
 19 22  2  0  0  0  0 
 21 23  2  0  0  0  0 
 22 23  1  0  0  0  0 
  1 24  1  0  0  0  0 
  1 25  1  0  0  0  0 
  3 26  1  0  0  0  0 
  6 27  1  0  0  0  0 
  6 28  1  0  0  0  0 
  7 29  1  0  0  0  0 
  7 30  1  0  0  0  0 
  9 31  1  0  0  0  0 
 11 32  1  0  0  0  0 
 11 33  1  0  0  0  0 
 13 34  1  0  0  0  0 
 14 35  1  0  0  0  0 
 18 36  1  0  0  0  0 
 19 37  1  0  0  0  0 
 21 38  1  0  0  0  0 
 22 39  1  0  0  0  0 
 23 40  1  0  0  0  0 
M  END
> <cdk:Title>
prazepam

> <Conformer>
1

> <SuperDrugID>
SD002009

$$$$
