phloroglucinol
  CDK     0628171801

 15 15  0  0  0  0  0  0  0  0999 V2000
    1.5757   -0.0325   -0.2791 O   0  0  0  0  0  0  0  0  0  0  0  0
    0.5103   -0.7435    0.1655 C   0  0  0  0  0  0  0  0  0  0  0  0
   -0.6217   -0.0787    0.6772 C   0  0  0  0  0  0  0  0  0  0  0  0
   -1.7225   -0.8230    1.1430 C   0  0  0  0  0  0  0  0  0  0  0  0
   -2.8074   -0.1838    1.6415 O   0  0  0  0  0  0  0  0  0  0  0  0
   -1.6953   -2.2303    1.0895 C   0  0  0  0  0  0  0  0  0  0  0  0
   -0.5653   -2.9018    0.5835 C   0  0  0  0  0  0  0  0  0  0  0  0
   -0.5546   -4.2603    0.5536 O   0  0  0  0  0  0  0  0  0  0  0  0
    0.5373   -2.1529    0.1188 C   0  0  0  0  0  0  0  0  0  0  0  0
    1.3338    0.2471   -1.1884 H   0  0  0  0  0  0  0  0  0  0  0  0
   -0.6443    0.9439    0.7099 H   0  0  0  0  0  0  0  0  0  0  0  0
   -3.4206   -0.0991    0.8802 H   0  0  0  0  0  0  0  0  0  0  0  0
   -2.4997   -2.7662    1.4227 H   0  0  0  0  0  0  0  0  0  0  0  0
    0.3235   -4.5162    0.1999 H   0  0  0  0  0  0  0  0  0  0  0  0
    1.3602   -2.6317   -0.2530 H   0  0  0  0  0  0  0  0  0  0  0  0
  1  2  1  0  0  0  0 
  2  3  2  0  0  0  0 
  3  4  1  0  0  0  0 
  4  5  1  0  0  0  0 
  4  6  2  0  0  0  0 
  6  7  1  0  0  0  0 
  7  8  1  0  0  0  0 
  7  9  2  0  0  0  0 
  2  9  1  0  0  0  0 
  1 10  1  0  0  0  0 
  3 11  1  0  0  0  0 
  5 12  1  0  0  0  0 
  6 13  1  0  0  0  0 
  8 14  1  0  0  0  0 
  9 15  1  0  0  0  0 
M  END
> <cdk:Title>
phloroglucinol

> <Conformer>
1

> <SuperDrugID>
SD001932

$$$$
