etoxadrol
  CDK     0628171801

 42 44  0  0  0  0  0  0  0  0999 V2000
    0.6526   -1.9927    1.5172 C   0  0  1  0  0  0  0  0  0  0  0  0
    0.7139   -1.2665    2.8840 C   0  0  0  0  0  0  0  0  0  0  0  0
   -0.3207   -1.3670    0.4708 C   0  0  1  0  0  0  0  0  0  0  0  0
   -0.2614   -2.1767   -0.7228 O   0  0  0  0  0  0  0  0  0  0  0  0
   -1.6644   -1.4740    0.9810 O   0  0  0  0  0  0  0  0  0  0  0  0
    0.0671    0.0455    0.1300 C   0  0  0  0  0  0  0  0  0  0  0  0
   -1.5578   -2.7360   -0.9591 C   0  0  2  0  0  0  0  0  0  0  0  0
   -2.4747   -1.8134   -0.1398 C   0  0  2  0  0  0  0  0  0  0  0  0
   -0.7221    1.1553    0.5244 C   0  0  0  0  0  0  0  0  0  0  0  0
    1.2604    0.3032   -0.5914 C   0  0  0  0  0  0  0  0  0  0  0  0
   -1.6481   -4.2337   -0.5253 C   0  0  2  0  0  0  0  0  0  0  0  0
   -0.3387    2.4707    0.2077 C   0  0  0  0  0  0  0  0  0  0  0  0
    1.6467    1.6182   -0.9104 C   0  0  0  0  0  0  0  0  0  0  0  0
   -0.5575   -5.1341   -1.1776 C   0  0  2  0  0  0  0  0  0  0  0  0
   -2.9929   -4.7672   -0.8757 N   0  0  2  0  0  0  0  0  0  0  0  0
    0.8475    2.7022   -0.5091 C   0  0  0  0  0  0  0  0  0  0  0  0
   -0.7378   -6.6123   -0.7380 C   0  0  1  0  0  0  0  0  0  0  0  0
   -3.2374   -6.1494   -0.4059 C   0  0  1  0  0  0  0  0  0  0  0  0
   -2.1814   -7.1251   -0.9831 C   0  0  2  0  0  0  0  0  0  0  0  0
   -1.7854   -2.6462   -2.0257 H   0  0  0  0  0  0  0  0  0  0  0  0
   -1.5233   -4.2791    0.5621 H   0  0  0  0  0  0  0  0  0  0  0  0
    1.6628   -2.0317    1.0985 H   0  0  0  0  0  0  0  0  0  0  0  0
    0.3432   -3.0248    1.7022 H   0  0  0  0  0  0  0  0  0  0  0  0
    1.4494   -1.7565    3.5257 H   0  0  0  0  0  0  0  0  0  0  0  0
   -0.2562   -1.3025    3.3845 H   0  0  0  0  0  0  0  0  0  0  0  0
    1.0106   -0.2236    2.7583 H   0  0  0  0  0  0  0  0  0  0  0  0
   -2.7381   -0.9126   -0.7052 H   0  0  0  0  0  0  0  0  0  0  0  0
   -3.3926   -2.3061    0.1902 H   0  0  0  0  0  0  0  0  0  0  0  0
   -1.5851    1.0193    1.0532 H   0  0  0  0  0  0  0  0  0  0  0  0
    1.8587   -0.4709   -0.8929 H   0  0  0  0  0  0  0  0  0  0  0  0
   -0.9246    3.2554    0.5025 H   0  0  0  0  0  0  0  0  0  0  0  0
    2.5079    1.7864   -1.4355 H   0  0  0  0  0  0  0  0  0  0  0  0
    0.4395   -4.7976   -0.8809 H   0  0  0  0  0  0  0  0  0  0  0  0
   -0.6211   -5.0701   -2.2675 H   0  0  0  0  0  0  0  0  0  0  0  0
   -3.0421   -4.7960   -1.8966 H   0  0  0  0  0  0  0  0  0  0  0  0
    1.1276    3.6575   -0.7378 H   0  0  0  0  0  0  0  0  0  0  0  0
   -0.0343   -7.2412   -1.2901 H   0  0  0  0  0  0  0  0  0  0  0  0
   -0.4995   -6.7015    0.3272 H   0  0  0  0  0  0  0  0  0  0  0  0
   -3.2276   -6.1754    0.6870 H   0  0  0  0  0  0  0  0  0  0  0  0
   -4.2328   -6.4541   -0.7351 H   0  0  0  0  0  0  0  0  0  0  0  0
   -2.3010   -8.1063   -0.5170 H   0  0  0  0  0  0  0  0  0  0  0  0
   -2.3452   -7.2381   -2.0584 H   0  0  0  0  0  0  0  0  0  0  0  0
  1  2  1  0  0  0  0 
  3  1  1  0  0  0  0 
  3  4  1  0  0  0  0 
  3  5  1  0  0  0  0 
  3  6  1  0  0  0  0 
  7  4  1  0  0  0  0 
  5  8  1  0  0  0  0 
  6  9  2  0  0  0  0 
  6 10  1  0  0  0  0 
  7  8  1  0  0  0  0 
 11  7  1  0  0  0  0 
  7 20  1  0  0  0  0 
  9 12  1  0  0  0  0 
 10 13  2  0  0  0  0 
 11 14  1  0  0  0  0 
 11 15  1  0  0  0  0 
 11 21  1  0  0  0  0 
 12 16  2  0  0  0  0 
 13 16  1  0  0  0  0 
 14 17  1  0  0  0  0 
 15 18  1  0  0  0  0 
 17 19  1  0  0  0  0 
 18 19  1  0  0  0  0 
  1 22  1  0  0  0  0 
  1 23  1  0  0  0  0 
  2 24  1  0  0  0  0 
  2 25  1  0  0  0  0 
  2 26  1  0  0  0  0 
  8 27  1  0  0  0  0 
  8 28  1  0  0  0  0 
  9 29  1  0  0  0  0 
 10 30  1  0  0  0  0 
 12 31  1  0  0  0  0 
 13 32  1  0  0  0  0 
 14 33  1  0  0  0  0 
 14 34  1  0  0  0  0 
 15 35  1  0  0  0  0 
 16 36  1  0  0  0  0 
 17 37  1  0  0  0  0 
 17 38  1  0  0  0  0 
 18 39  1  0  0  0  0 
 18 40  1  0  0  0  0 
 19 41  1  0  0  0  0 
 19 42  1  0  0  0  0 
M  END
> <cdk:Title>
etoxadrol

> <Conformer>
1

> <SuperDrugID>
SD002783

$$$$
