methylprednisolone suleptanate
  CDK     0628171801

 94 97  0  0  0  0  0  0  0  0999 V2000
    1.0268   -5.3174    2.7306 C   0  0  0  0  0  0  0  0  0  0  0  0
    1.9288   -4.1221    3.2360 C   0  0  2  0  0  0  0  0  0  0  0  0
    2.8397   -4.4858    4.4557 C   0  0  2  0  0  0  0  0  0  0  0  0
    1.0307   -2.9915    3.8877 C   0  0  2  0  0  0  0  0  0  0  0  0
    2.8898   -3.6642    2.0780 C   0  0  2  0  0  0  0  0  0  0  0  0
    3.8599   -5.6393    4.1561 C   0  0  1  0  0  0  0  0  0  0  0  0
    1.8544   -4.6030    5.6402 C   0  0  1  0  0  0  0  0  0  0  0  0
   -0.2212   -2.6252    3.1346 C   0  0  0  0  0  0  0  0  0  0  0  0
    1.8086   -1.7901    4.0429 O   0  0  0  0  0  0  0  0  0  0  0  0
    0.7687   -3.5349    5.3381 C   0  0  2  0  0  0  0  0  0  0  0  0
    4.0170   -4.6881    1.7237 C   0  0  1  0  0  0  0  0  0  0  0  0
    4.8209   -5.2074    2.9768 C   0  0  2  0  0  0  0  0  0  0  0  0
    4.6874   -6.0137    5.4200 C   0  0  1  0  0  0  0  0  0  0  0  0
   -0.3434   -1.4335    2.2627 C   0  0  2  0  0  0  0  0  0  0  0  0
   -1.2261   -3.3734    3.1920 O   0  0  0  0  0  0  0  0  0  0  0  0
    3.4741   -5.7438    0.9365 O   0  0  0  0  0  0  0  0  0  0  0  0
    5.9964   -6.2522    2.6987 C   0  0  2  0  0  0  0  0  0  0  0  0
    5.7714   -7.0870    5.1114 C   0  0  1  0  0  0  0  0  0  0  0  0
    0.7140   -1.4294    1.3016 O   0  0  0  0  0  0  0  0  0  0  0  0
    5.5316   -7.5944    2.0199 C   0  0  0  0  0  0  0  0  0  0  0  0
    6.6411   -6.5724    4.0226 C   0  0  0  0  0  0  0  0  0  0  0  0
    6.9548   -5.6593    1.7291 C   0  0  0  0  0  0  0  0  0  0  0  0
    6.4316   -7.5606    6.4417 C   0  0  0  0  0  0  0  0  0  0  0  0
    0.9679   -0.4807    0.3540 C   0  0  0  0  0  0  0  0  0  0  0  0
    7.9654   -6.3490    4.2132 C   0  0  0  0  0  0  0  0  0  0  0  0
    8.2562   -5.4759    1.9938 C   0  0  0  0  0  0  0  0  0  0  0  0
    2.1853   -0.6238   -0.4660 C   0  0  2  0  0  0  0  0  0  0  0  0
    0.2083    0.5037    0.1959 O   0  0  0  0  0  0  0  0  0  0  0  0
    8.7773   -5.8254    3.2206 C   0  0  0  0  0  0  0  0  0  0  0  0
    2.0968   -1.7932   -1.4861 C   0  0  1  0  0  0  0  0  0  0  0  0
    9.9999   -5.6575    3.4428 O   0  0  0  0  0  0  0  0  0  0  0  0
    3.4987   -2.1987   -2.0106 C   0  0  2  0  0  0  0  0  0  0  0  0
    3.4833   -3.3404   -3.0630 C   0  0  1  0  0  0  0  0  0  0  0  0
    4.9251   -3.7374   -3.4808 C   0  0  1  0  0  0  0  0  0  0  0  0
    5.0038   -5.0035   -4.3732 C   0  0  1  0  0  0  0  0  0  0  0  0
    6.4144   -5.2191   -4.8004 C   0  0  0  0  0  0  0  0  0  0  0  0
    7.0642   -4.5640   -5.8475 N   0  0  0  0  0  0  0  0  0  0  0  0
    7.0504   -6.0185   -4.0726 O   0  0  0  0  0  0  0  0  0  0  0  0
    8.4932   -4.7592   -6.0613 C   0  0  1  0  0  0  0  0  0  0  0  0
    6.4011   -3.6455   -6.7550 C   0  0  0  0  0  0  0  0  0  0  0  0
    8.9059   -6.1955   -6.4859 C   0  0  1  0  0  0  0  0  0  0  0  0
   10.6014   -6.2305   -7.1792 S   0  0  2  0  0  0  0  0  0  0  0  0
   11.1325   -7.7360   -7.2963 O   0  0  0  0  0  0  0  0  0  0  0  0
   11.5931   -5.3664   -6.2662 O   0  0  0  0  0  0  0  0  0  0  0  0
   10.5590   -5.5410   -8.7436 O   0  0  0  0  0  0  0  0  0  0  0  0
    0.4907   -5.0301    1.8238 H   0  0  0  0  0  0  0  0  0  0  0  0
    0.2837   -5.6093    3.4741 H   0  0  0  0  0  0  0  0  0  0  0  0
    1.5978   -6.2101    2.4919 H   0  0  0  0  0  0  0  0  0  0  0  0
    3.4648   -3.6157    4.7043 H   0  0  0  0  0  0  0  0  0  0  0  0
    3.3801   -2.7263    2.3506 H   0  0  0  0  0  0  0  0  0  0  0  0
    2.3121   -3.4632    1.1769 H   0  0  0  0  0  0  0  0  0  0  0  0
    3.3103   -6.5366    3.8712 H   0  0  0  0  0  0  0  0  0  0  0  0
    1.4168   -5.6048    5.6827 H   0  0  0  0  0  0  0  0  0  0  0  0
    2.3502   -4.4019    6.5953 H   0  0  0  0  0  0  0  0  0  0  0  0
    1.2614   -1.1829    4.5844 H   0  0  0  0  0  0  0  0  0  0  0  0
   -0.2150   -4.0006    5.4333 H   0  0  0  0  0  0  0  0  0  0  0  0
    0.8170   -2.7278    6.0770 H   0  0  0  0  0  0  0  0  0  0  0  0
    4.7112   -4.1607    1.0648 H   0  0  0  0  0  0  0  0  0  0  0  0
    5.3329   -4.3080    3.3465 H   0  0  0  0  0  0  0  0  0  0  0  0
    5.1720   -5.1170    5.8200 H   0  0  0  0  0  0  0  0  0  0  0  0
    4.0083   -6.3957    6.1885 H   0  0  0  0  0  0  0  0  0  0  0  0
   -0.2879   -0.5307    2.8748 H   0  0  0  0  0  0  0  0  0  0  0  0
   -1.3043   -1.4345    1.7395 H   0  0  0  0  0  0  0  0  0  0  0  0
    3.1119   -5.3043    0.1383 H   0  0  0  0  0  0  0  0  0  0  0  0
    5.2638   -7.9800    4.7376 H   0  0  0  0  0  0  0  0  0  0  0  0
    6.3223   -8.3482    2.0795 H   0  0  0  0  0  0  0  0  0  0  0  0
    4.6394   -8.0051    2.4911 H   0  0  0  0  0  0  0  0  0  0  0  0
    5.2971   -7.4692    0.9600 H   0  0  0  0  0  0  0  0  0  0  0  0
    6.6356   -5.3983    0.8246 H   0  0  0  0  0  0  0  0  0  0  0  0
    7.1812   -8.3284    6.2409 H   0  0  0  0  0  0  0  0  0  0  0  0
    6.9047   -6.7261    6.9641 H   0  0  0  0  0  0  0  0  0  0  0  0
    5.6795   -7.9967    7.1037 H   0  0  0  0  0  0  0  0  0  0  0  0
    8.3964   -6.5454    5.0832 H   0  0  0  0  0  0  0  0  0  0  0  0
    8.8487   -5.0882    1.2938 H   0  0  0  0  0  0  0  0  0  0  0  0
    3.0307   -0.7732    0.2115 H   0  0  0  0  0  0  0  0  0  0  0  0
    2.3744    0.3030   -1.0143 H   0  0  0  0  0  0  0  0  0  0  0  0
    1.6278   -2.6664   -1.0249 H   0  0  0  0  0  0  0  0  0  0  0  0
    1.4702   -1.4797   -2.3257 H   0  0  0  0  0  0  0  0  0  0  0  0
    4.0917   -2.5293   -1.1529 H   0  0  0  0  0  0  0  0  0  0  0  0
    3.9866   -1.3197   -2.4442 H   0  0  0  0  0  0  0  0  0  0  0  0
    2.9773   -4.2107   -2.6364 H   0  0  0  0  0  0  0  0  0  0  0  0
    2.9291   -3.0179   -3.9499 H   0  0  0  0  0  0  0  0  0  0  0  0
    5.3809   -2.8891   -4.0003 H   0  0  0  0  0  0  0  0  0  0  0  0
    5.5145   -3.9298   -2.5774 H   0  0  0  0  0  0  0  0  0  0  0  0
    4.6532   -5.8610   -3.7879 H   0  0  0  0  0  0  0  0  0  0  0  0
    4.3369   -4.9376   -5.2334 H   0  0  0  0  0  0  0  0  0  0  0  0
    8.8634   -4.0701   -6.8268 H   0  0  0  0  0  0  0  0  0  0  0  0
    9.0265   -4.4963   -5.1432 H   0  0  0  0  0  0  0  0  0  0  0  0
    6.8809   -2.6646   -6.7142 H   0  0  0  0  0  0  0  0  0  0  0  0
    5.3457   -3.4799   -6.5557 H   0  0  0  0  0  0  0  0  0  0  0  0
    6.4834   -4.0272   -7.7749 H   0  0  0  0  0  0  0  0  0  0  0  0
    8.8912   -6.8650   -5.6246 H   0  0  0  0  0  0  0  0  0  0  0  0
    8.2176   -6.5836   -7.2393 H   0  0  0  0  0  0  0  0  0  0  0  0
    9.6437   -5.7012   -9.0565 H   0  0  0  0  0  0  0  0  0  0  0  0
  2  1  1  0  0  0  0 
  3  2  1  0  0  0  0 
  2  4  1  0  0  0  0 
  2  5  1  0  0  0  0 
  6  3  1  0  0  0  0 
  3  7  1  0  0  0  0 
  4  8  1  0  0  0  0 
  4  9  1  0  0  0  0 
  4 10  1  0  0  0  0 
 11  5  1  0  0  0  0 
 12  6  1  0  0  0  0 
  6 13  1  0  0  0  0 
  7 10  1  0  0  0  0 
  8 14  1  0  0  0  0 
  8 15  2  0  0  0  0 
 12 11  1  0  0  0  0 
 11 16  1  0  0  0  0 
 12 17  1  0  0  0  0 
 18 13  1  0  0  0  0 
 14 19  1  0  0  0  0 
 17 20  1  0  0  0  0 
 17 21  1  0  0  0  0 
 17 22  1  0  0  0  0 
 18 21  1  0  0  0  0 
 18 23  1  0  0  0  0 
 19 24  1  0  0  0  0 
 21 25  2  0  0  0  0 
 22 26  2  0  0  0  0 
 24 27  1  0  0  0  0 
 24 28  2  0  0  0  0 
 25 29  1  0  0  0  0 
 26 29  1  0  0  0  0 
 27 30  1  0  0  0  0 
 29 31  2  0  0  0  0 
 30 32  1  0  0  0  0 
 32 33  1  0  0  0  0 
 33 34  1  0  0  0  0 
 34 35  1  0  0  0  0 
 35 36  1  0  0  0  0 
 36 37  1  0  0  0  0 
 36 38  2  0  0  0  0 
 37 39  1  0  0  0  0 
 37 40  1  0  0  0  0 
 39 41  1  0  0  0  0 
 41 42  1  0  0  0  0 
 42 43  2  0  0  0  0 
 42 44  2  0  0  0  0 
 42 45  1  0  0  0  0 
 46  1  1  0  0  0  0 
 47  1  1  0  0  0  0 
 48  1  1  0  0  0  0 
  3 49  1  0  0  0  0 
 50  5  1  0  0  0  0 
 51  5  1  0  0  0  0 
  6 52  1  0  0  0  0 
 53  7  1  0  0  0  0 
 54  7  1  0  0  0  0 
 55  9  1  0  0  0  0 
 56 10  1  0  0  0  0 
 57 10  1  0  0  0  0 
 11 58  1  0  0  0  0 
 12 59  1  0  0  0  0 
 60 13  1  0  0  0  0 
 61 13  1  0  0  0  0 
 62 14  1  0  0  0  0 
 63 14  1  0  0  0  0 
 64 16  1  0  0  0  0 
 18 65  1  0  0  0  0 
 66 20  1  0  0  0  0 
 67 20  1  0  0  0  0 
 68 20  1  0  0  0  0 
 69 22  1  0  0  0  0 
 70 23  1  0  0  0  0 
 71 23  1  0  0  0  0 
 72 23  1  0  0  0  0 
 73 25  1  0  0  0  0 
 74 26  1  0  0  0  0 
 75 27  1  0  0  0  0 
 76 27  1  0  0  0  0 
 77 30  1  0  0  0  0 
 78 30  1  0  0  0  0 
 79 32  1  0  0  0  0 
 80 32  1  0  0  0  0 
 81 33  1  0  0  0  0 
 82 33  1  0  0  0  0 
 83 34  1  0  0  0  0 
 84 34  1  0  0  0  0 
 85 35  1  0  0  0  0 
 86 35  1  0  0  0  0 
 87 39  1  0  0  0  0 
 88 39  1  0  0  0  0 
 89 40  1  0  0  0  0 
 90 40  1  0  0  0  0 
 91 40  1  0  0  0  0 
 92 41  1  0  0  0  0 
 93 41  1  0  0  0  0 
 94 45  1  0  0  0  0 
M  END
> <cdk:Title>
methylprednisolone suleptanate

> <Conformer>
1

> <SuperDrugID>
SD001572

$$$$
