fenoxazoline
  CDK     0628171801

 34 35  0  0  0  0  0  0  0  0999 V2000
   -1.0753    2.8990    0.9782 O   0  0  0  0  0  0  0  0  0  0  0  0
   -1.4809    1.5173    0.9093 C   0  0  1  0  0  0  0  0  0  0  0  0
   -1.5709    3.5559    2.0767 C   0  0  0  0  0  0  0  0  0  0  0  0
   -0.9653    0.9387   -0.3106 C   0  0  0  0  0  0  0  0  0  0  0  0
   -2.7544    4.3431    1.9991 C   0  0  0  0  0  0  0  0  0  0  0  0
   -0.8569    3.4586    3.2915 C   0  0  0  0  0  0  0  0  0  0  0  0
    0.0214    0.1277   -0.3610 N   0  0  0  0  0  0  0  0  0  0  0  0
   -1.4474    1.1590   -1.5111 N   0  0  0  0  0  0  0  0  0  0  0  0
   -3.5101    4.5174    0.7107 C   0  0  2  0  0  0  0  0  0  0  0  0
   -3.2149    4.9697    3.1856 C   0  0  0  0  0  0  0  0  0  0  0  0
   -1.3284    4.0992    4.4494 C   0  0  0  0  0  0  0  0  0  0  0  0
    0.3030   -0.2944   -1.6467 C   0  0  2  0  0  0  0  0  0  0  0  0
   -0.7541    0.4326   -2.5010 C   0  0  1  0  0  0  0  0  0  0  0  0
   -3.5582    6.0043    0.2601 C   0  0  0  0  0  0  0  0  0  0  0  0
   -4.9321    3.8962    0.7855 C   0  0  0  0  0  0  0  0  0  0  0  0
   -2.5122    4.8509    4.3969 C   0  0  0  0  0  0  0  0  0  0  0  0
   -1.0887    0.9638    1.7685 H   0  0  0  0  0  0  0  0  0  0  0  0
   -2.5712    1.4191    0.9107 H   0  0  0  0  0  0  0  0  0  0  0  0
    0.0070    2.9129    3.3392 H   0  0  0  0  0  0  0  0  0  0  0  0
   -2.1990    1.7429   -1.6985 H   0  0  0  0  0  0  0  0  0  0  0  0
   -2.9982    3.9869   -0.0966 H   0  0  0  0  0  0  0  0  0  0  0  0
   -4.0704    5.5279    3.1799 H   0  0  0  0  0  0  0  0  0  0  0  0
   -0.8108    4.0196    5.3289 H   0  0  0  0  0  0  0  0  0  0  0  0
    0.1960   -1.3785   -1.7074 H   0  0  0  0  0  0  0  0  0  0  0  0
    1.3174   -0.0064   -1.9324 H   0  0  0  0  0  0  0  0  0  0  0  0
   -1.4206   -0.2728   -3.0053 H   0  0  0  0  0  0  0  0  0  0  0  0
   -0.2969    1.1106   -3.2273 H   0  0  0  0  0  0  0  0  0  0  0  0
   -4.0170    6.0880   -0.7280 H   0  0  0  0  0  0  0  0  0  0  0  0
   -4.1403    6.6101    0.9573 H   0  0  0  0  0  0  0  0  0  0  0  0
   -2.5486    6.4166    0.1999 H   0  0  0  0  0  0  0  0  0  0  0  0
   -5.4084    3.9217   -0.1976 H   0  0  0  0  0  0  0  0  0  0  0  0
   -5.5642    4.4440    1.4872 H   0  0  0  0  0  0  0  0  0  0  0  0
   -4.8749    2.8543    1.1073 H   0  0  0  0  0  0  0  0  0  0  0  0
   -2.8603    5.3160    5.2387 H   0  0  0  0  0  0  0  0  0  0  0  0
  1  2  1  0  0  0  0 
  1  3  1  0  0  0  0 
  2  4  1  0  0  0  0 
  3  5  2  0  0  0  0 
  3  6  1  0  0  0  0 
  4  7  2  0  0  0  0 
  4  8  1  0  0  0  0 
  5  9  1  0  0  0  0 
  5 10  1  0  0  0  0 
  6 11  2  0  0  0  0 
  7 12  1  0  0  0  0 
  8 13  1  0  0  0  0 
  9 14  1  0  0  0  0 
  9 15  1  0  0  0  0 
 10 16  2  0  0  0  0 
 11 16  1  0  0  0  0 
 12 13  1  0  0  0  0 
 17  2  1  0  0  0  0 
 18  2  1  0  0  0  0 
 19  6  1  0  0  0  0 
 20  8  1  0  0  0  0 
 21  9  1  0  0  0  0 
 22 10  1  0  0  0  0 
 23 11  1  0  0  0  0 
 24 12  1  0  0  0  0 
 25 12  1  0  0  0  0 
 26 13  1  0  0  0  0 
 27 13  1  0  0  0  0 
 28 14  1  0  0  0  0 
 29 14  1  0  0  0  0 
 30 14  1  0  0  0  0 
 31 15  1  0  0  0  0 
 32 15  1  0  0  0  0 
 33 15  1  0  0  0  0 
 34 16  1  0  0  0  0 
M  END
> <cdk:Title>
fenoxazoline

> <Conformer>
1

> <SuperDrugID>
SD002791

$$$$
