pipazetate
  CDK     0628171801

 53 56  0  0  0  0  0  0  0  0999 V2000
    0.0978   -0.6791   -0.6387 C   0  0  0  0  0  0  0  0  0  0  0  0
    0.1527   -2.0465   -0.6728 O   0  0  0  0  0  0  0  0  0  0  0  0
   -0.9774   -0.1533   -1.0210 O   0  0  0  0  0  0  0  0  0  0  0  0
    1.1934    0.0860   -0.2488 N   0  0  0  0  0  0  0  0  0  0  0  0
   -0.8824   -2.9414   -1.0978 C   0  0  1  0  0  0  0  0  0  0  0  0
    1.0991    1.4733   -0.1626 C   0  0  0  0  0  0  0  0  0  0  0  0
    2.4169   -0.5264   -0.0080 C   0  0  0  0  0  0  0  0  0  0  0  0
   -0.3625   -4.3874   -1.0564 C   0  0  1  0  0  0  0  0  0  0  0  0
    2.1203    2.3095   -0.6848 C   0  0  0  0  0  0  0  0  0  0  0  0
   -0.0109    2.0990    0.4608 C   0  0  0  0  0  0  0  0  0  0  0  0
    3.6352    0.0322   -0.4708 C   0  0  0  0  0  0  0  0  0  0  0  0
    2.4823   -1.7070    0.6724 N   0  0  0  0  0  0  0  0  0  0  0  0
   -1.2927   -5.2186   -1.7729 O   0  0  0  0  0  0  0  0  0  0  0  0
    3.5910    1.5739   -1.3181 S   0  0  0  0  0  0  0  0  0  0  0  0
    1.9925    3.7110   -0.6646 C   0  0  0  0  0  0  0  0  0  0  0  0
   -0.1383    3.4986    0.4880 C   0  0  0  0  0  0  0  0  0  0  0  0
    4.8548   -0.6339   -0.2354 C   0  0  0  0  0  0  0  0  0  0  0  0
    3.6353   -2.3769    0.9205 C   0  0  0  0  0  0  0  0  0  0  0  0
   -0.9215   -6.6056   -1.8418 C   0  0  2  0  0  0  0  0  0  0  0  0
    0.8554    4.3041   -0.0914 C   0  0  0  0  0  0  0  0  0  0  0  0
    4.8580   -1.8482    0.4732 C   0  0  0  0  0  0  0  0  0  0  0  0
   -2.0292   -7.3912   -2.5832 C   0  0  1  0  0  0  0  0  0  0  0  0
   -3.4255   -7.0517   -2.1517 N   0  0  2  0  0  0  0  0  0  0  0  0
   -3.7364   -7.4090   -0.7288 C   0  0  2  0  0  0  0  0  0  0  0  0
   -4.4576   -7.5676   -3.1104 C   0  0  1  0  0  0  0  0  0  0  0  0
   -5.1472   -6.9249   -0.3107 C   0  0  2  0  0  0  0  0  0  0  0  0
   -5.8863   -7.0942   -2.7401 C   0  0  1  0  0  0  0  0  0  0  0  0
   -6.2313   -7.4589   -1.2766 C   0  0  1  0  0  0  0  0  0  0  0  0
   -1.7554   -2.8378   -0.4479 H   0  0  0  0  0  0  0  0  0  0  0  0
   -1.1744   -2.6886   -2.1200 H   0  0  0  0  0  0  0  0  0  0  0  0
    0.6243   -4.4236   -1.5279 H   0  0  0  0  0  0  0  0  0  0  0  0
   -0.2746   -4.7034   -0.0118 H   0  0  0  0  0  0  0  0  0  0  0  0
   -0.7397    1.5362    0.9053 H   0  0  0  0  0  0  0  0  0  0  0  0
    2.7265    4.3025   -1.0555 H   0  0  0  0  0  0  0  0  0  0  0  0
   -0.9542    3.9296    0.9305 H   0  0  0  0  0  0  0  0  0  0  0  0
    5.7392   -0.2428   -0.5714 H   0  0  0  0  0  0  0  0  0  0  0  0
    3.6064   -3.2627    1.4271 H   0  0  0  0  0  0  0  0  0  0  0  0
   -0.7922   -7.0202   -0.8387 H   0  0  0  0  0  0  0  0  0  0  0  0
    0.0216   -6.7199   -2.3869 H   0  0  0  0  0  0  0  0  0  0  0  0
    0.7554    5.3203   -0.0877 H   0  0  0  0  0  0  0  0  0  0  0  0
    5.7351   -2.3413    0.6600 H   0  0  0  0  0  0  0  0  0  0  0  0
   -1.9149   -7.1604   -3.6464 H   0  0  0  0  0  0  0  0  0  0  0  0
   -1.8495   -8.4623   -2.4635 H   0  0  0  0  0  0  0  0  0  0  0  0
   -3.0280   -6.9292   -0.0515 H   0  0  0  0  0  0  0  0  0  0  0  0
   -3.6604   -8.4912   -0.5844 H   0  0  0  0  0  0  0  0  0  0  0  0
   -4.2467   -7.2034   -4.1198 H   0  0  0  0  0  0  0  0  0  0  0  0
   -4.4347   -8.6617   -3.1384 H   0  0  0  0  0  0  0  0  0  0  0  0
   -5.1669   -5.8311   -0.3148 H   0  0  0  0  0  0  0  0  0  0  0  0
   -5.3648   -7.2625    0.7055 H   0  0  0  0  0  0  0  0  0  0  0  0
   -5.9534   -6.0097   -2.8686 H   0  0  0  0  0  0  0  0  0  0  0  0
   -6.6129   -7.5590   -3.4118 H   0  0  0  0  0  0  0  0  0  0  0  0
   -6.3040   -8.5457   -1.1788 H   0  0  0  0  0  0  0  0  0  0  0  0
   -7.2023   -7.0319   -1.0116 H   0  0  0  0  0  0  0  0  0  0  0  0
  1  2  1  0  0  0  0 
  1  3  2  0  0  0  0 
  1  4  1  0  0  0  0 
  2  5  1  0  0  0  0 
  4  6  1  0  0  0  0 
  4  7  1  0  0  0  0 
  5  8  1  0  0  0  0 
  6  9  2  0  0  0  0 
  6 10  1  0  0  0  0 
  7 11  2  0  0  0  0 
  7 12  1  0  0  0  0 
  8 13  1  0  0  0  0 
  9 14  1  0  0  0  0 
  9 15  1  0  0  0  0 
 10 16  2  0  0  0  0 
 11 14  1  0  0  0  0 
 11 17  1  0  0  0  0 
 12 18  2  0  0  0  0 
 13 19  1  0  0  0  0 
 15 20  2  0  0  0  0 
 16 20  1  0  0  0  0 
 17 21  2  0  0  0  0 
 18 21  1  0  0  0  0 
 19 22  1  0  0  0  0 
 22 23  1  0  0  0  0 
 23 24  1  0  0  0  0 
 23 25  1  0  0  0  0 
 24 26  1  0  0  0  0 
 25 27  1  0  0  0  0 
 26 28  1  0  0  0  0 
 27 28  1  0  0  0  0 
  5 29  1  0  0  0  0 
  5 30  1  0  0  0  0 
  8 31  1  0  0  0  0 
  8 32  1  0  0  0  0 
 10 33  1  0  0  0  0 
 15 34  1  0  0  0  0 
 16 35  1  0  0  0  0 
 17 36  1  0  0  0  0 
 18 37  1  0  0  0  0 
 19 38  1  0  0  0  0 
 19 39  1  0  0  0  0 
 20 40  1  0  0  0  0 
 21 41  1  0  0  0  0 
 22 42  1  0  0  0  0 
 22 43  1  0  0  0  0 
 24 44  1  0  0  0  0 
 24 45  1  0  0  0  0 
 25 46  1  0  0  0  0 
 25 47  1  0  0  0  0 
 26 48  1  0  0  0  0 
 26 49  1  0  0  0  0 
 27 50  1  0  0  0  0 
 27 51  1  0  0  0  0 
 28 52  1  0  0  0  0 
 28 53  1  0  0  0  0 
M  END
> <cdk:Title>
pipazetate

> <Conformer>
1

> <SuperDrugID>
SD001957

$$$$
