mefenamic acid
  CDK     0628171801

 33 34  0  0  0  0  0  0  0  0999 V2000
   -1.8395    1.1312   -2.6826 N   0  0  0  0  0  0  0  0  0  0  0  0
   -1.5229    1.2331   -4.0152 C   0  0  0  0  0  0  0  0  0  0  0  0
   -1.3195    0.2536   -1.7738 C   0  0  0  0  0  0  0  0  0  0  0  0
   -1.8063    2.4311   -4.7451 C   0  0  0  0  0  0  0  0  0  0  0  0
   -0.9379    0.1331   -4.6944 C   0  0  0  0  0  0  0  0  0  0  0  0
   -1.8592   -1.0460   -1.5480 C   0  0  0  0  0  0  0  0  0  0  0  0
   -0.2143    0.7036   -1.0222 C   0  0  0  0  0  0  0  0  0  0  0  0
   -2.3676    3.6089   -4.1576 C   0  0  0  0  0  0  0  0  0  0  0  0
   -1.4959    2.4623   -6.1304 C   0  0  0  0  0  0  0  0  0  0  0  0
   -0.6298    0.1971   -6.0604 C   0  0  0  0  0  0  0  0  0  0  0  0
   -3.0312   -1.5282   -2.3381 C   0  0  0  0  0  0  0  0  0  0  0  0
   -1.2571   -1.8857   -0.5576 C   0  0  0  0  0  0  0  0  0  0  0  0
    0.3748   -0.1241   -0.0559 C   0  0  0  0  0  0  0  0  0  0  0  0
   -2.8772    4.6124   -4.9188 O   0  0  0  0  0  0  0  0  0  0  0  0
   -2.3998    3.8100   -2.9224 O   0  0  0  0  0  0  0  0  0  0  0  0
   -0.9129    1.3636   -6.7814 C   0  0  0  0  0  0  0  0  0  0  0  0
   -1.7560   -3.2605   -0.2696 C   0  0  0  0  0  0  0  0  0  0  0  0
   -0.1435   -1.4065    0.1753 C   0  0  0  0  0  0  0  0  0  0  0  0
   -2.4777    1.7660   -2.3333 H   0  0  0  0  0  0  0  0  0  0  0  0
   -0.7368   -0.7395   -4.2043 H   0  0  0  0  0  0  0  0  0  0  0  0
    0.1740    1.6387   -1.1749 H   0  0  0  0  0  0  0  0  0  0  0  0
   -1.6822    3.2961   -6.6922 H   0  0  0  0  0  0  0  0  0  0  0  0
   -0.2046   -0.6088   -6.5250 H   0  0  0  0  0  0  0  0  0  0  0  0
   -2.7507   -2.4229   -2.8972 H   0  0  0  0  0  0  0  0  0  0  0  0
   -3.4052   -0.7975   -3.0575 H   0  0  0  0  0  0  0  0  0  0  0  0
   -3.8582   -1.7695   -1.6690 H   0  0  0  0  0  0  0  0  0  0  0  0
    1.1826    0.2061    0.4791 H   0  0  0  0  0  0  0  0  0  0  0  0
   -3.2300    5.4268   -4.5037 H   0  0  0  0  0  0  0  0  0  0  0  0
   -0.6959    1.4150   -7.7795 H   0  0  0  0  0  0  0  0  0  0  0  0
   -1.2189   -3.7436    0.5505 H   0  0  0  0  0  0  0  0  0  0  0  0
   -2.8091   -3.2240    0.0097 H   0  0  0  0  0  0  0  0  0  0  0  0
   -1.6432   -3.8873   -1.1559 H   0  0  0  0  0  0  0  0  0  0  0  0
    0.3072   -1.9884    0.8883 H   0  0  0  0  0  0  0  0  0  0  0  0
  1  2  1  0  0  0  0 
  1  3  1  0  0  0  0 
  2  4  2  0  0  0  0 
  2  5  1  0  0  0  0 
  3  6  2  0  0  0  0 
  3  7  1  0  0  0  0 
  4  8  1  0  0  0  0 
  4  9  1  0  0  0  0 
  5 10  2  0  0  0  0 
  6 11  1  0  0  0  0 
  6 12  1  0  0  0  0 
  7 13  2  0  0  0  0 
  8 14  1  0  0  0  0 
  8 15  2  0  0  0  0 
  9 16  2  0  0  0  0 
 10 16  1  0  0  0  0 
 12 17  1  0  0  0  0 
 12 18  2  0  0  0  0 
 13 18  1  0  0  0  0 
  1 19  1  0  0  0  0 
  5 20  1  0  0  0  0 
  7 21  1  0  0  0  0 
  9 22  1  0  0  0  0 
 10 23  1  0  0  0  0 
 11 24  1  0  0  0  0 
 11 25  1  0  0  0  0 
 11 26  1  0  0  0  0 
 13 27  1  0  0  0  0 
 14 28  1  0  0  0  0 
 16 29  1  0  0  0  0 
 17 30  1  0  0  0  0 
 17 31  1  0  0  0  0 
 17 32  1  0  0  0  0 
 18 33  1  0  0  0  0 
M  END
> <cdk:Title>
mefenamic acid

> <Conformer>
1

> <SuperDrugID>
SD001472

$$$$
