leuprorelin
  CDK     0628171801

171176  0  0  0  0  0  0  0  0999 V2000
  -10.0048  -10.3847   14.7891 C   0  0  0  0  0  0  0  0  0  0  0  0
   -9.3473  -11.4348   14.2278 N   0  0  0  0  0  0  0  0  0  0  0  0
   -6.7310  -13.0140   12.9567 N   0  0  0  0  0  0  0  0  0  0  0  0
   -6.7752  -12.9506   10.0434 N   0  0  0  0  0  0  0  0  0  0  0  0
   -6.5313  -11.9200    7.0799 N   0  0  0  0  0  0  0  0  0  0  0  0
   -6.1305   -9.2552    5.5053 N   0  0  0  0  0  0  0  0  0  0  0  0
   -4.9817   -9.0793    2.2425 N   0  0  0  0  0  0  0  0  0  0  0  0
   -4.4044   -5.8295    0.7440 N   0  0  0  0  0  0  0  0  0  0  0  0
   -2.5276   -5.3723    3.1894 N   0  0  0  0  0  0  0  0  0  0  0  0
    0.5658   -6.6556    4.3608 N   0  0  0  0  0  0  0  0  0  0  0  0
   -9.6233   -9.8597   15.8631 O   0  0  0  0  0  0  0  0  0  0  0  0
  -11.2277   -9.8758   14.1275 C   0  0  1  0  0  0  0  0  0  0  0  0
    1.4945   -7.7396    4.3534 C   0  0  2  0  0  0  0  0  0  0  0  0
    1.6590   -8.3888    5.7437 C   0  0  0  0  0  0  0  0  0  0  0  0
  -12.3288   -7.7362   14.6792 C   0  0  2  0  0  0  0  0  0  0  0  0
  -12.9543   -8.8989   15.3017 C   0  0  0  0  0  0  0  0  0  0  0  0
  -12.3419  -10.0404   14.9821 N   0  0  0  0  0  0  0  0  0  0  0  0
  -11.2105   -8.3549   13.8076 C   0  0  1  0  0  0  0  0  0  0  0  0
  -13.9450   -8.8399   16.0641 O   0  0  0  0  0  0  0  0  0  0  0  0
   -7.0986  -11.9663   13.7502 C   0  0  0  0  0  0  0  0  0  0  0  0
   -8.5610  -13.5771   15.0956 C   0  0  2  0  0  0  0  0  0  0  0  0
   -9.5232  -13.7228   16.2076 C   0  0  0  0  0  0  0  0  0  0  0  0
  -10.8059  -14.2600   16.1492 C   0  0  0  0  0  0  0  0  0  0  0  0
  -11.3458  -14.2405   17.3772 N   0  0  0  0  0  0  0  0  0  0  0  0
  -10.4196  -13.7035   18.1877 C   0  0  0  0  0  0  0  0  0  0  0  0
   -9.3193  -13.3902   17.4891 N   0  0  0  0  0  0  0  0  0  0  0  0
   -8.1942  -12.1014   14.7484 C   0  0  2  0  0  0  0  0  0  0  0  0
   -6.4889  -10.8726   13.6818 O   0  0  0  0  0  0  0  0  0  0  0  0
   -5.9502  -13.6841   10.8477 C   0  0  0  0  0  0  0  0  0  0  0  0
   -4.5501  -13.9829   12.9964 C   0  0  2  0  0  0  0  0  0  0  0  0
   -3.1483  -13.9964   12.5208 C   0  0  0  0  0  0  0  0  0  0  0  0
   -2.4859  -15.0743   11.9262 C   0  0  0  0  0  0  0  0  0  0  0  0
   -1.1936  -14.7567   11.7305 N   0  0  0  0  0  0  0  0  0  0  0  0
   -0.9791  -13.5135   12.1822 C   0  0  0  0  0  0  0  0  0  0  0  0
   -2.1831  -12.9953   12.6621 C   0  0  0  0  0  0  0  0  0  0  0  0
   -2.2425  -11.6952   13.2014 C   0  0  0  0  0  0  0  0  0  0  0  0
   -1.0517  -10.9389   13.2648 C   0  0  0  0  0  0  0  0  0  0  0  0
    0.1715  -11.4778   12.8023 C   0  0  0  0  0  0  0  0  0  0  0  0
    0.2146  -12.7737   12.2424 C   0  0  0  0  0  0  0  0  0  0  0  0
   -5.5427  -13.1155   12.1584 C   0  0  2  0  0  0  0  0  0  0  0  0
   -5.5929  -14.8384   10.5101 O   0  0  0  0  0  0  0  0  0  0  0  0
   -6.9152  -13.1264    7.5936 C   0  0  0  0  0  0  0  0  0  0  0  0
   -8.9877  -12.9589    9.0195 C   0  0  2  0  0  0  0  0  0  0  0  0
   -9.7800  -13.5460    7.9907 O   0  0  0  0  0  0  0  0  0  0  0  0
   -7.5170  -13.4439    8.9208 C   0  0  2  0  0  0  0  0  0  0  0  0
   -6.7710  -14.0797    6.7929 O   0  0  0  0  0  0  0  0  0  0  0  0
   -6.6424   -9.5358    6.7476 C   0  0  0  0  0  0  0  0  0  0  0  0
   -4.9960  -10.4744    8.4235 C   0  0  2  0  0  0  0  0  0  0  0  0
   -4.8471   -9.1725    9.1416 C   0  0  0  0  0  0  0  0  0  0  0  0
   -5.3898   -9.0086   10.4371 C   0  0  0  0  0  0  0  0  0  0  0  0
   -5.2707   -7.7831   11.1181 C   0  0  0  0  0  0  0  0  0  0  0  0
   -4.5982   -6.7003   10.5204 C   0  0  0  0  0  0  0  0  0  0  0  0
   -4.4644   -5.5166   11.1729 O   0  0  0  0  0  0  0  0  0  0  0  0
   -4.0566   -6.8484    9.2304 C   0  0  0  0  0  0  0  0  0  0  0  0
   -4.1797   -8.0732    8.5454 C   0  0  0  0  0  0  0  0  0  0  0  0
   -6.3810  -10.6463    7.7166 C   0  0  2  0  0  0  0  0  0  0  0  0
   -7.4381   -8.6463    7.1304 O   0  0  0  0  0  0  0  0  0  0  0  0
   -4.8161   -8.9595    3.5866 C   0  0  0  0  0  0  0  0  0  0  0  0
   -4.3654  -12.5836    2.9914 C   0  0  0  0  0  0  0  0  0  0  0  0
   -4.1529  -10.8848    4.9596 C   0  0  1  0  0  0  0  0  0  0  0  0
   -5.3564   -9.9807    4.5248 C   0  0  1  0  0  0  0  0  0  0  0  0
   -2.1507  -12.4362    4.5467 C   0  0  0  0  0  0  0  0  0  0  0  0
   -3.3803  -11.6621    3.8291 C   0  0  1  0  0  0  0  0  0  0  0  0
   -4.1152   -8.0329    4.0519 O   0  0  0  0  0  0  0  0  0  0  0  0
   -4.9545   -7.0725    0.9117 C   0  0  0  0  0  0  0  0  0  0  0  0
   -3.3775   -9.7599   -2.4142 C   0  0  0  0  0  0  0  0  0  0  0  0
   -4.1655   -9.3232   -0.0078 C   0  0  2  0  0  0  0  0  0  0  0  0
   -4.2664   -8.3593    1.2180 C   0  0  2  0  0  0  0  0  0  0  0  0
   -1.6424   -9.2101   -0.6280 C   0  0  0  0  0  0  0  0  0  0  0  0
   -3.1074   -8.9673   -1.1023 C   0  0  1  0  0  0  0  0  0  0  0  0
   -6.2009   -7.0907    0.7882 O   0  0  0  0  0  0  0  0  0  0  0  0
   -2.2005   -5.6753    1.8756 C   0  0  0  0  0  0  0  0  0  0  0  0
   -2.9859   -3.9098    0.2296 C   0  0  1  0  0  0  0  0  0  0  0  0
   -1.5740   -3.2629    0.0907 C   0  0  2  0  0  0  0  0  0  0  0  0
   -1.6414   -1.7274   -0.1122 C   0  0  1  0  0  0  0  0  0  0  0  0
   -0.3611   -1.1803   -0.2155 N   0  0  0  0  0  0  0  0  0  0  0  0
   -0.0225    0.0579   -0.2726 C   0  0  0  0  0  0  0  0  0  0  0  0
   -0.8822    1.0562   -0.2130 N   0  0  0  0  0  0  0  0  0  0  0  0
    1.2509    0.3531   -0.3927 N   0  0  0  0  0  0  0  0  0  0  0  0
   -3.0294   -5.4155    0.6593 C   0  0  2  0  0  0  0  0  0  0  0  0
   -1.0725   -6.1690    1.6313 O   0  0  0  0  0  0  0  0  0  0  0  0
   -0.7912   -6.7605    4.3491 C   0  0  0  0  0  0  0  0  0  0  0  0
   -1.6209   -5.5246    4.3060 C   0  0  2  0  0  0  0  0  0  0  0  0
   -2.5114   -5.3926    5.5616 C   0  0  2  0  0  0  0  0  0  0  0  0
   -3.6570   -4.4882    5.0976 C   0  0  2  0  0  0  0  0  0  0  0  0
   -3.7843   -4.8095    3.5982 C   0  0  1  0  0  0  0  0  0  0  0  0
   -1.3445   -7.8842    4.3360 O   0  0  0  0  0  0  0  0  0  0  0  0
   -9.7085  -11.7817   13.3966 H   0  0  0  0  0  0  0  0  0  0  0  0
   -7.3013  -13.7992   12.9755 H   0  0  0  0  0  0  0  0  0  0  0  0
   -6.9287  -12.0272   10.2968 H   0  0  0  0  0  0  0  0  0  0  0  0
   -6.3073  -11.9380    6.1379 H   0  0  0  0  0  0  0  0  0  0  0  0
   -6.4137   -8.3835    5.1828 H   0  0  0  0  0  0  0  0  0  0  0  0
   -5.6037   -9.7597    1.9445 H   0  0  0  0  0  0  0  0  0  0  0  0
   -5.0507   -5.1148    0.6252 H   0  0  0  0  0  0  0  0  0  0  0  0
    0.9385   -5.7614    4.3726 H   0  0  0  0  0  0  0  0  0  0  0  0
  -11.4298  -10.4406   13.2131 H   0  0  0  0  0  0  0  0  0  0  0  0
    2.4607   -7.3395    4.0400 H   0  0  0  0  0  0  0  0  0  0  0  0
    1.1974   -8.4947    3.6212 H   0  0  0  0  0  0  0  0  0  0  0  0
    1.8864   -7.6297    6.4940 H   0  0  0  0  0  0  0  0  0  0  0  0
    0.7448   -8.9102    6.0322 H   0  0  0  0  0  0  0  0  0  0  0  0
    2.4771   -9.1114    5.7218 H   0  0  0  0  0  0  0  0  0  0  0  0
  -11.9193   -7.0744   15.4488 H   0  0  0  0  0  0  0  0  0  0  0  0
  -13.0568   -7.1959   14.0706 H   0  0  0  0  0  0  0  0  0  0  0  0
  -12.6288  -10.9062   15.3138 H   0  0  0  0  0  0  0  0  0  0  0  0
  -10.2466   -7.8892   14.0377 H   0  0  0  0  0  0  0  0  0  0  0  0
  -11.4220   -8.1938   12.7448 H   0  0  0  0  0  0  0  0  0  0  0  0
   -8.9686  -14.0711   14.2096 H   0  0  0  0  0  0  0  0  0  0  0  0
   -7.6539  -14.1145   15.3822 H   0  0  0  0  0  0  0  0  0  0  0  0
  -11.2672  -14.6167   15.3114 H   0  0  0  0  0  0  0  0  0  0  0  0
  -10.5371  -13.5595   19.1908 H   0  0  0  0  0  0  0  0  0  0  0  0
   -8.5111  -12.9976   17.8526 H   0  0  0  0  0  0  0  0  0  0  0  0
   -7.8352  -11.6352   15.6722 H   0  0  0  0  0  0  0  0  0  0  0  0
   -4.5241  -13.6116   14.0240 H   0  0  0  0  0  0  0  0  0  0  0  0
   -4.9230  -15.0116   13.0560 H   0  0  0  0  0  0  0  0  0  0  0  0
   -2.9071  -15.9746   11.6891 H   0  0  0  0  0  0  0  0  0  0  0  0
   -0.5202  -15.3375   11.3400 H   0  0  0  0  0  0  0  0  0  0  0  0
   -3.1230  -11.3056   13.5470 H   0  0  0  0  0  0  0  0  0  0  0  0
   -1.0692   -9.9921   13.6522 H   0  0  0  0  0  0  0  0  0  0  0  0
    1.0320  -10.9299   12.8771 H   0  0  0  0  0  0  0  0  0  0  0  0
    1.0938  -13.1701   11.9031 H   0  0  0  0  0  0  0  0  0  0  0  0
   -5.0922  -12.1366   11.9741 H   0  0  0  0  0  0  0  0  0  0  0  0
   -9.4155  -13.2596    9.9797 H   0  0  0  0  0  0  0  0  0  0  0  0
   -9.0568  -11.8732    8.9367 H   0  0  0  0  0  0  0  0  0  0  0  0
  -10.6757  -13.1692    8.1090 H   0  0  0  0  0  0  0  0  0  0  0  0
   -7.5814  -14.5356    9.0056 H   0  0  0  0  0  0  0  0  0  0  0  0
   -4.8535  -11.2809    9.1450 H   0  0  0  0  0  0  0  0  0  0  0  0
   -4.1850  -10.5890    7.7082 H   0  0  0  0  0  0  0  0  0  0  0  0
   -5.8770   -9.7809   10.8961 H   0  0  0  0  0  0  0  0  0  0  0  0
   -5.6774   -7.6824   12.0512 H   0  0  0  0  0  0  0  0  0  0  0  0
   -4.8343   -5.6600   12.0669 H   0  0  0  0  0  0  0  0  0  0  0  0
   -3.5715   -6.0638    8.7878 H   0  0  0  0  0  0  0  0  0  0  0  0
   -3.7818   -8.1534    7.6058 H   0  0  0  0  0  0  0  0  0  0  0  0
   -7.1345  -10.5799    8.5061 H   0  0  0  0  0  0  0  0  0  0  0  0
   -5.0800  -11.9917    2.4164 H   0  0  0  0  0  0  0  0  0  0  0  0
   -4.9113  -13.2606    3.6534 H   0  0  0  0  0  0  0  0  0  0  0  0
   -3.7866  -13.1845    2.2870 H   0  0  0  0  0  0  0  0  0  0  0  0
   -3.4411  -10.2542    5.5003 H   0  0  0  0  0  0  0  0  0  0  0  0
   -4.5021  -11.6400    5.6517 H   0  0  0  0  0  0  0  0  0  0  0  0
   -6.0812  -10.6054    4.0019 H   0  0  0  0  0  0  0  0  0  0  0  0
   -2.5326  -13.1745    5.2563 H   0  0  0  0  0  0  0  0  0  0  0  0
   -1.5059  -11.7255    5.0685 H   0  0  0  0  0  0  0  0  0  0  0  0
   -1.5581  -12.9511    3.7880 H   0  0  0  0  0  0  0  0  0  0  0  0
   -3.0439  -10.8850    3.0853 H   0  0  0  0  0  0  0  0  0  0  0  0
   -3.3192  -10.8349   -2.2316 H   0  0  0  0  0  0  0  0  0  0  0  0
   -2.6467   -9.4958   -3.1827 H   0  0  0  0  0  0  0  0  0  0  0  0
   -4.3722   -9.5299   -2.8056 H   0  0  0  0  0  0  0  0  0  0  0  0
   -5.1584   -9.3828   -0.4669 H   0  0  0  0  0  0  0  0  0  0  0  0
   -3.9267  -10.3297    0.3515 H   0  0  0  0  0  0  0  0  0  0  0  0
   -3.2592   -8.1618    1.5778 H   0  0  0  0  0  0  0  0  0  0  0  0
   -1.4781  -10.2680   -0.4121 H   0  0  0  0  0  0  0  0  0  0  0  0
   -1.4101   -8.6386    0.2692 H   0  0  0  0  0  0  0  0  0  0  0  0
   -0.9442   -8.9004   -1.4067 H   0  0  0  0  0  0  0  0  0  0  0  0
   -3.2169   -7.9099   -1.3490 H   0  0  0  0  0  0  0  0  0  0  0  0
   -3.5648   -3.3157    0.9354 H   0  0  0  0  0  0  0  0  0  0  0  0
   -3.4885   -3.8149   -0.7383 H   0  0  0  0  0  0  0  0  0  0  0  0
   -1.0494   -3.7239   -0.7495 H   0  0  0  0  0  0  0  0  0  0  0  0
   -0.9904   -3.4472    0.9939 H   0  0  0  0  0  0  0  0  0  0  0  0
   -2.2048   -1.4998   -1.0217 H   0  0  0  0  0  0  0  0  0  0  0  0
   -2.1581   -1.2832    0.7443 H   0  0  0  0  0  0  0  0  0  0  0  0
   -0.5718    1.9748   -0.2514 H   0  0  0  0  0  0  0  0  0  0  0  0
   -1.8285    0.8741   -0.1198 H   0  0  0  0  0  0  0  0  0  0  0  0
    1.9159   -0.3520   -0.4200 H   0  0  0  0  0  0  0  0  0  0  0  0
    1.5305    1.2799   -0.4603 H   0  0  0  0  0  0  0  0  0  0  0  0
   -2.5986   -5.9664   -0.1813 H   0  0  0  0  0  0  0  0  0  0  0  0
   -0.9533   -4.6567    4.2798 H   0  0  0  0  0  0  0  0  0  0  0  0
   -1.9683   -4.9533    6.4022 H   0  0  0  0  0  0  0  0  0  0  0  0
   -2.9230   -6.3575    5.8702 H   0  0  0  0  0  0  0  0  0  0  0  0
   -3.3889   -3.4365    5.2407 H   0  0  0  0  0  0  0  0  0  0  0  0
   -4.5842   -4.6969    5.6386 H   0  0  0  0  0  0  0  0  0  0  0  0
   -4.0168   -3.8915    3.0617 H   0  0  0  0  0  0  0  0  0  0  0  0
   -4.5966   -5.5212    3.4404 H   0  0  0  0  0  0  0  0  0  0  0  0
  1  2  1  0  0  0  0 
 20  3  1  0  0  0  0 
 29  4  1  0  0  0  0 
 42  5  1  0  0  0  0 
 47  6  1  0  0  0  0 
 58  7  1  0  0  0  0 
 65  8  1  0  0  0  0 
 72  9  1  0  0  0  0 
 82 10  1  0  0  0  0 
  1 11  2  0  0  0  0 
 12  1  1  0  0  0  0 
 10 13  1  0  0  0  0 
 13 14  1  0  0  0  0 
 12 17  1  0  0  0  0 
 12 18  1  0  0  0  0 
 15 16  1  0  0  0  0 
 16 17  1  0  0  0  0 
 15 18  1  0  0  0  0 
 16 19  2  0  0  0  0 
 27  2  1  0  0  0  0 
 27 21  1  0  0  0  0 
 21 22  1  0  0  0  0 
 22 23  2  0  0  0  0 
 23 24  1  0  0  0  0 
 24 25  2  0  0  0  0 
 25 26  1  0  0  0  0 
 22 26  1  0  0  0  0 
 27 20  1  0  0  0  0 
 20 28  2  0  0  0  0 
 40  3  1  0  0  0  0 
 40 30  1  0  0  0  0 
 30 31  1  0  0  0  0 
 31 32  2  0  0  0  0 
 32 33  1  0  0  0  0 
 33 34  1  0  0  0  0 
 34 35  1  0  0  0  0 
 31 35  1  0  0  0  0 
 35 36  2  0  0  0  0 
 36 37  1  0  0  0  0 
 37 38  2  0  0  0  0 
 38 39  1  0  0  0  0 
 34 39  2  0  0  0  0 
 40 29  1  0  0  0  0 
 29 41  2  0  0  0  0 
 45  4  1  0  0  0  0 
 45 43  1  0  0  0  0 
 43 44  1  0  0  0  0 
 45 42  1  0  0  0  0 
 42 46  2  0  0  0  0 
 56  5  1  0  0  0  0 
 56 48  1  0  0  0  0 
 48 49  1  0  0  0  0 
 49 50  2  0  0  0  0 
 50 51  1  0  0  0  0 
 51 52  2  0  0  0  0 
 52 53  1  0  0  0  0 
 52 54  1  0  0  0  0 
 54 55  2  0  0  0  0 
 49 55  1  0  0  0  0 
 56 47  1  0  0  0  0 
 47 57  2  0  0  0  0 
 62 63  1  0  0  0  0 
 63 59  1  0  0  0  0 
 63 60  1  0  0  0  0 
 61 60  1  0  0  0  0 
 61  6  1  0  0  0  0 
 61 58  1  0  0  0  0 
 58 64  2  0  0  0  0 
 69 70  1  0  0  0  0 
 70 66  1  0  0  0  0 
 70 67  1  0  0  0  0 
 68 67  1  0  0  0  0 
 68  7  1  0  0  0  0 
 68 65  1  0  0  0  0 
 65 71  2  0  0  0  0 
 80  8  1  0  0  0  0 
 80 73  1  0  0  0  0 
 73 74  1  0  0  0  0 
 74 75  1  0  0  0  0 
 75 76  1  0  0  0  0 
 76 77  2  0  0  0  0 
 77 78  1  0  0  0  0 
 77 79  1  0  0  0  0 
 80 72  1  0  0  0  0 
 72 81  2  0  0  0  0 
 87 82  2  0  0  0  0 
 83 82  1  0  0  0  0 
 83 84  1  0  0  0  0 
 84 85  1  0  0  0  0 
 85 86  1  0  0  0  0 
 86  9  1  0  0  0  0 
 83  9  1  0  0  0  0 
 88  2  1  0  0  0  0 
 89  3  1  0  0  0  0 
 90  4  1  0  0  0  0 
 91  5  1  0  0  0  0 
 92  6  1  0  0  0  0 
 93  7  1  0  0  0  0 
 94  8  1  0  0  0  0 
 95 10  1  0  0  0  0 
 12 96  1  0  0  0  0 
 97 13  1  0  0  0  0 
 98 13  1  0  0  0  0 
 99 14  1  0  0  0  0 
100 14  1  0  0  0  0 
101 14  1  0  0  0  0 
102 15  1  0  0  0  0 
103 15  1  0  0  0  0 
104 17  1  0  0  0  0 
105 18  1  0  0  0  0 
106 18  1  0  0  0  0 
107 21  1  0  0  0  0 
108 21  1  0  0  0  0 
109 23  1  0  0  0  0 
110 25  1  0  0  0  0 
111 26  1  0  0  0  0 
 27112  1  0  0  0  0 
113 30  1  0  0  0  0 
114 30  1  0  0  0  0 
115 32  1  0  0  0  0 
116 33  1  0  0  0  0 
117 36  1  0  0  0  0 
118 37  1  0  0  0  0 
119 38  1  0  0  0  0 
120 39  1  0  0  0  0 
 40121  1  0  0  0  0 
122 43  1  0  0  0  0 
123 43  1  0  0  0  0 
124 44  1  0  0  0  0 
 45125  1  0  0  0  0 
126 48  1  0  0  0  0 
127 48  1  0  0  0  0 
128 50  1  0  0  0  0 
129 51  1  0  0  0  0 
130 53  1  0  0  0  0 
131 54  1  0  0  0  0 
132 55  1  0  0  0  0 
 56133  1  0  0  0  0 
134 59  1  0  0  0  0 
135 59  1  0  0  0  0 
136 59  1  0  0  0  0 
137 60  1  0  0  0  0 
138 60  1  0  0  0  0 
 61139  1  0  0  0  0 
140 62  1  0  0  0  0 
141 62  1  0  0  0  0 
142 62  1  0  0  0  0 
143 63  1  0  0  0  0 
144 66  1  0  0  0  0 
145 66  1  0  0  0  0 
146 66  1  0  0  0  0 
147 67  1  0  0  0  0 
148 67  1  0  0  0  0 
 68149  1  0  0  0  0 
150 69  1  0  0  0  0 
151 69  1  0  0  0  0 
152 69  1  0  0  0  0 
153 70  1  0  0  0  0 
154 73  1  0  0  0  0 
155 73  1  0  0  0  0 
156 74  1  0  0  0  0 
157 74  1  0  0  0  0 
158 75  1  0  0  0  0 
159 75  1  0  0  0  0 
160 78  1  0  0  0  0 
161 78  1  0  0  0  0 
162 79  1  0  0  0  0 
163 79  1  0  0  0  0 
 80164  1  0  0  0  0 
 83165  1  0  0  0  0 
166 84  1  0  0  0  0 
167 84  1  0  0  0  0 
168 85  1  0  0  0  0 
169 85  1  0  0  0  0 
170 86  1  0  0  0  0 
171 86  1  0  0  0  0 
M  END
> <cdk:Title>
leuprorelin

> <Conformer>
1

> <SuperDrugID>
SD001376

$$$$
