choline alfoscerate
  CDK     0628171802

 36 35  0  0  0  0  0  0  0  0999 V2000
   -2.3019    1.5417   -0.1716 P   0  0  2  0  0  0  0  0  0  0  0  0
   -2.5455    3.0317    0.3581 O   0  0  0  0  0  0  0  0  0  0  0  0
   -0.7673    1.1546    0.0551 O   0  0  0  0  0  0  0  0  0  0  0  0
   -2.6436    1.4768   -1.5972 O   0  0  0  0  0  0  0  0  0  0  0  0
   -3.2341    0.5582    0.6514 O   0  0  0  0  0  0  0  0  0  0  0  0
   -2.2482    3.2473    1.7525 C   0  0  1  0  0  0  0  0  0  0  0  0
   -0.4333   -0.2110   -0.2594 C   0  0  1  0  0  0  0  0  0  0  0  0
   -2.6414    4.6930    2.1491 C   0  0  1  0  0  0  0  0  0  0  0  0
    1.0970   -0.4100   -0.0765 C   0  0  1  0  0  0  0  0  0  0  0  0
   -2.3059    5.0236    3.6243 C   0  0  1  0  0  0  0  0  0  0  0  0
   -1.9629    5.6322    1.3159 O   0  0  0  0  0  0  0  0  0  0  0  0
    1.6828   -1.7906   -0.3446 N   0  0  2  0  0  0  0  0  0  0  0  0
   -3.0139    4.1813    4.5278 O   0  0  0  0  0  0  0  0  0  0  0  0
    1.0797   -2.8312    0.5701 C   0  0  0  0  0  0  0  0  0  0  0  0
    3.1730   -1.7310   -0.0722 C   0  0  0  0  0  0  0  0  0  0  0  0
    1.4827   -2.2014   -1.7853 C   0  0  0  0  0  0  0  0  0  0  0  0
   -2.8132    2.5539    2.3841 H   0  0  0  0  0  0  0  0  0  0  0  0
   -1.1790    3.1063    1.9349 H   0  0  0  0  0  0  0  0  0  0  0  0
   -0.9671   -0.8842    0.4152 H   0  0  0  0  0  0  0  0  0  0  0  0
   -0.7043   -0.4411   -1.2927 H   0  0  0  0  0  0  0  0  0  0  0  0
   -3.7159    4.8216    1.9934 H   0  0  0  0  0  0  0  0  0  0  0  0
    1.5847    0.3222   -0.7287 H   0  0  0  0  0  0  0  0  0  0  0  0
    1.3285   -0.1102    0.9511 H   0  0  0  0  0  0  0  0  0  0  0  0
   -1.2351    4.9049    3.8014 H   0  0  0  0  0  0  0  0  0  0  0  0
   -2.5797    6.0580    3.8401 H   0  0  0  0  0  0  0  0  0  0  0  0
   -2.2563    5.4317    0.4022 H   0  0  0  0  0  0  0  0  0  0  0  0
   -2.7004    4.4512    5.4168 H   0  0  0  0  0  0  0  0  0  0  0  0
    0.0174   -2.9819    0.3701 H   0  0  0  0  0  0  0  0  0  0  0  0
    1.5629   -3.8043    0.4464 H   0  0  0  0  0  0  0  0  0  0  0  0
    1.1808   -2.5427    1.6202 H   0  0  0  0  0  0  0  0  0  0  0  0
    3.6666   -0.9970   -0.7165 H   0  0  0  0  0  0  0  0  0  0  0  0
    3.6582   -2.6963   -0.2471 H   0  0  0  0  0  0  0  0  0  0  0  0
    3.3770   -1.4492    0.9655 H   0  0  0  0  0  0  0  0  0  0  0  0
    1.8548   -1.4362   -2.4725 H   0  0  0  0  0  0  0  0  0  0  0  0
    2.0077   -3.1330   -2.0152 H   0  0  0  0  0  0  0  0  0  0  0  0
    0.4292   -2.3692   -2.0169 H   0  0  0  0  0  0  0  0  0  0  0  0
  1  2  1  0  0  0  0 
  1  3  1  0  0  0  0 
  1  4  2  0  0  0  0 
  1  5  1  0  0  0  0 
  2  6  1  0  0  0  0 
  3  7  1  0  0  0  0 
  8  6  1  0  0  0  0 
  7  9  1  0  0  0  0 
  8 10  1  0  0  0  0 
  8 11  1  0  0  0  0 
  9 12  1  0  0  0  0 
 10 13  1  0  0  0  0 
 12 14  1  0  0  0  0 
 12 15  1  0  0  0  0 
 12 16  1  0  0  0  0 
  6 17  1  0  0  0  0 
  6 18  1  0  0  0  0 
  7 19  1  0  0  0  0 
  7 20  1  0  0  0  0 
  8 21  1  0  0  0  0 
  9 22  1  0  0  0  0 
  9 23  1  0  0  0  0 
 10 24  1  0  0  0  0 
 10 25  1  0  0  0  0 
 11 26  1  0  0  0  0 
 13 27  1  0  0  0  0 
 14 28  1  0  0  0  0 
 14 29  1  0  0  0  0 
 14 30  1  0  0  0  0 
 15 31  1  0  0  0  0 
 15 32  1  0  0  0  0 
 15 33  1  0  0  0  0 
 16 34  1  0  0  0  0 
 16 35  1  0  0  0  0 
 16 36  1  0  0  0  0 
M  CHG  1   5  -1
M  CHG  1  12   1
M  END
> <cdk:Title>
choline alfoscerate

> <Conformer>
1

> <SuperDrugID>
SD000548

$$$$
