gabapentin
  CDK     0628171801

 29 29  0  0  0  0  0  0  0  0999 V2000
    0.3468    2.1297    1.0473 C   0  0  2  0  0  0  0  0  0  0  0  0
    1.1596    2.9660    0.1393 C   0  0  0  0  0  0  0  0  0  0  0  0
   -0.5557    1.0336    0.3584 C   0  0  2  0  0  0  0  0  0  0  0  0
    2.4921    2.7739    0.0370 O   0  0  0  0  0  0  0  0  0  0  0  0
    0.6404    3.8797   -0.5400 O   0  0  0  0  0  0  0  0  0  0  0  0
    0.3354    0.0651   -0.5097 C   0  0  2  0  0  0  0  0  0  0  0  0
   -1.6385    1.7375   -0.5447 C   0  0  1  0  0  0  0  0  0  0  0  0
   -1.2983    0.2412    1.5007 C   0  0  2  0  0  0  0  0  0  0  0  0
    1.4801   -0.5071    0.2160 N   0  0  2  0  0  0  0  0  0  0  0  0
   -2.7650    0.7965   -1.0477 C   0  0  2  0  0  0  0  0  0  0  0  0
   -2.4485   -0.6878    1.0207 C   0  0  2  0  0  0  0  0  0  0  0  0
   -3.4623    0.0709    0.1278 C   0  0  2  0  0  0  0  0  0  0  0  0
   -0.2734    2.8059    1.6434 H   0  0  0  0  0  0  0  0  0  0  0  0
    1.0280    1.6438    1.7512 H   0  0  0  0  0  0  0  0  0  0  0  0
    3.0177    3.3499   -0.5556 H   0  0  0  0  0  0  0  0  0  0  0  0
    0.7380    0.5957   -1.3765 H   0  0  0  0  0  0  0  0  0  0  0  0
   -0.2533   -0.7675   -0.8948 H   0  0  0  0  0  0  0  0  0  0  0  0
   -2.1161    2.5470    0.0187 H   0  0  0  0  0  0  0  0  0  0  0  0
   -1.1670    2.1927   -1.4199 H   0  0  0  0  0  0  0  0  0  0  0  0
   -1.7414    0.9497    2.2077 H   0  0  0  0  0  0  0  0  0  0  0  0
   -0.5802   -0.3590    2.0655 H   0  0  0  0  0  0  0  0  0  0  0  0
    1.9399   -1.1656   -0.4174 H   0  0  0  0  0  0  0  0  0  0  0  0
    1.1113   -1.0555    0.9927 H   0  0  0  0  0  0  0  0  0  0  0  0
   -2.3546    0.0603   -1.7444 H   0  0  0  0  0  0  0  0  0  0  0  0
   -3.5070    1.3864   -1.5937 H   0  0  0  0  0  0  0  0  0  0  0  0
   -2.9722   -1.0830    1.8966 H   0  0  0  0  0  0  0  0  0  0  0  0
   -2.0401   -1.5416    0.4733 H   0  0  0  0  0  0  0  0  0  0  0  0
   -4.1973   -0.6351   -0.2678 H   0  0  0  0  0  0  0  0  0  0  0  0
   -3.9947    0.8056    0.7386 H   0  0  0  0  0  0  0  0  0  0  0  0
  1  2  1  0  0  0  0 
  1  3  1  0  0  0  0 
  2  4  1  0  0  0  0 
  2  5  2  0  0  0  0 
  3  6  1  0  0  0  0 
  3  7  1  0  0  0  0 
  3  8  1  0  0  0  0 
  6  9  1  0  0  0  0 
  7 10  1  0  0  0  0 
  8 11  1  0  0  0  0 
 10 12  1  0  0  0  0 
 11 12  1  0  0  0  0 
  1 13  1  0  0  0  0 
  1 14  1  0  0  0  0 
  4 15  1  0  0  0  0 
  6 16  1  0  0  0  0 
  6 17  1  0  0  0  0 
  7 18  1  0  0  0  0 
  7 19  1  0  0  0  0 
  8 20  1  0  0  0  0 
  8 21  1  0  0  0  0 
  9 22  1  0  0  0  0 
  9 23  1  0  0  0  0 
 10 24  1  0  0  0  0 
 10 25  1  0  0  0  0 
 11 26  1  0  0  0  0 
 11 27  1  0  0  0  0 
 12 28  1  0  0  0  0 
 12 29  1  0  0  0  0 
M  END
> <cdk:Title>
gabapentin

> <Conformer>
1

> <SuperDrugID>
SD001133

$$$$
