tretoquinol
  CDK     0628171801

 48 50  0  0  0  0  0  0  0  0999 V2000
    3.4320    1.0740    4.7879 C   0  0  1  0  0  0  0  0  0  0  0  0
    2.1942    1.9132    5.2419 C   0  0  1  0  0  0  0  0  0  0  0  0
    3.2444    0.4237    3.4616 C   0  0  0  0  0  0  0  0  0  0  0  0
    2.3972    2.4757    6.6121 C   0  0  0  0  0  0  0  0  0  0  0  0
    1.8117    2.9707    4.2683 N   0  0  1  0  0  0  0  0  0  0  0  0
    2.6710   -0.8639    3.3640 C   0  0  0  0  0  0  0  0  0  0  0  0
    3.6322    1.0788    2.2714 C   0  0  0  0  0  0  0  0  0  0  0  0
    2.6619    3.8604    6.8062 C   0  0  0  0  0  0  0  0  0  0  0  0
    2.3371    1.6191    7.7371 C   0  0  0  0  0  0  0  0  0  0  0  0
    2.6894    4.1578    4.2726 C   0  0  1  0  0  0  0  0  0  0  0  0
    2.4540   -1.4688    2.1096 C   0  0  0  0  0  0  0  0  0  0  0  0
    3.3992    0.4946    1.0103 C   0  0  0  0  0  0  0  0  0  0  0  0
    2.8611    4.3492    8.1183 C   0  0  0  0  0  0  0  0  0  0  0  0
    2.7071    4.8211    5.6709 C   0  0  2  0  0  0  0  0  0  0  0  0
    2.5513    2.1152    9.0351 C   0  0  0  0  0  0  0  0  0  0  0  0
    1.9241   -2.7279    2.0470 O   0  0  0  0  0  0  0  0  0  0  0  0
    2.7712   -0.7667    0.9263 C   0  0  0  0  0  0  0  0  0  0  0  0
    3.7587    1.1661   -0.1255 O   0  0  0  0  0  0  0  0  0  0  0  0
    2.8123    3.4837    9.2255 C   0  0  0  0  0  0  0  0  0  0  0  0
    2.5130    1.2697   10.0928 O   0  0  0  0  0  0  0  0  0  0  0  0
    2.9395   -3.7480    2.0732 C   0  0  0  0  0  0  0  0  0  0  0  0
    2.5017   -1.3218   -0.2982 O   0  0  0  0  0  0  0  0  0  0  0  0
    5.1261    0.9268   -0.5025 C   0  0  0  0  0  0  0  0  0  0  0  0
    3.0211    3.9767   10.4716 O   0  0  0  0  0  0  0  0  0  0  0  0
    1.1955   -0.9705   -0.7920 C   0  0  0  0  0  0  0  0  0  0  0  0
    4.3176    1.7117    4.7660 H   0  0  0  0  0  0  0  0  0  0  0  0
    3.6418    0.3011    5.5326 H   0  0  0  0  0  0  0  0  0  0  0  0
    1.3265    1.2471    5.2766 H   0  0  0  0  0  0  0  0  0  0  0  0
    1.8226    2.5668    3.3301 H   0  0  0  0  0  0  0  0  0  0  0  0
    2.4117   -1.3736    4.2117 H   0  0  0  0  0  0  0  0  0  0  0  0
    4.0872    1.9932    2.3152 H   0  0  0  0  0  0  0  0  0  0  0  0
    2.1389    0.6226    7.6152 H   0  0  0  0  0  0  0  0  0  0  0  0
    3.7013    3.8789    3.9727 H   0  0  0  0  0  0  0  0  0  0  0  0
    2.3142    4.8711    3.5367 H   0  0  0  0  0  0  0  0  0  0  0  0
    3.0505    5.3432    8.2741 H   0  0  0  0  0  0  0  0  0  0  0  0
    3.6089    5.4332    5.7394 H   0  0  0  0  0  0  0  0  0  0  0  0
    1.8433    5.4854    5.7552 H   0  0  0  0  0  0  0  0  0  0  0  0
    1.5617    1.1899   10.3167 H   0  0  0  0  0  0  0  0  0  0  0  0
    2.4477   -4.7190    2.0126 H   0  0  0  0  0  0  0  0  0  0  0  0
    3.6202   -3.6572    1.2222 H   0  0  0  0  0  0  0  0  0  0  0  0
    3.5147   -3.7165    3.0028 H   0  0  0  0  0  0  0  0  0  0  0  0
    5.3355    1.5046   -1.4031 H   0  0  0  0  0  0  0  0  0  0  0  0
    5.8213    1.2516    0.2767 H   0  0  0  0  0  0  0  0  0  0  0  0
    5.2968   -0.1298   -0.7259 H   0  0  0  0  0  0  0  0  0  0  0  0
    2.1254    4.1851   10.8139 H   0  0  0  0  0  0  0  0  0  0  0  0
    1.0650   -1.4387   -1.7674 H   0  0  0  0  0  0  0  0  0  0  0  0
    0.4055   -1.3366   -0.1308 H   0  0  0  0  0  0  0  0  0  0  0  0
    1.0900    0.1105   -0.9184 H   0  0  0  0  0  0  0  0  0  0  0  0
  1  3  1  0  0  0  0 
  2  1  1  0  0  0  0 
  2  4  1  0  0  0  0 
  2  5  1  0  0  0  0 
  3  6  2  0  0  0  0 
  3  7  1  0  0  0  0 
  4  8  2  0  0  0  0 
  4  9  1  0  0  0  0 
  5 10  1  0  0  0  0 
  6 11  1  0  0  0  0 
  7 12  2  0  0  0  0 
  8 13  1  0  0  0  0 
  8 14  1  0  0  0  0 
  9 15  2  0  0  0  0 
 10 14  1  0  0  0  0 
 11 16  1  0  0  0  0 
 11 17  2  0  0  0  0 
 12 17  1  0  0  0  0 
 12 18  1  0  0  0  0 
 13 19  2  0  0  0  0 
 15 19  1  0  0  0  0 
 15 20  1  0  0  0  0 
 16 21  1  0  0  0  0 
 17 22  1  0  0  0  0 
 18 23  1  0  0  0  0 
 19 24  1  0  0  0  0 
 22 25  1  0  0  0  0 
  1 26  1  0  0  0  0 
  1 27  1  0  0  0  0 
  2 28  1  0  0  0  0 
  5 29  1  0  0  0  0 
  6 30  1  0  0  0  0 
  7 31  1  0  0  0  0 
  9 32  1  0  0  0  0 
 10 33  1  0  0  0  0 
 10 34  1  0  0  0  0 
 13 35  1  0  0  0  0 
 14 36  1  0  0  0  0 
 14 37  1  0  0  0  0 
 20 38  1  0  0  0  0 
 21 39  1  0  0  0  0 
 21 40  1  0  0  0  0 
 21 41  1  0  0  0  0 
 23 42  1  0  0  0  0 
 23 43  1  0  0  0  0 
 23 44  1  0  0  0  0 
 24 45  1  0  0  0  0 
 25 46  1  0  0  0  0 
 25 47  1  0  0  0  0 
 25 48  1  0  0  0  0 
M  END
> <cdk:Title>
tretoquinol

> <Conformer>
1

> <SuperDrugID>
SD002454

$$$$
