amidefrine
  CDK     0628171801

 32 32  0  0  0  0  0  0  0  0999 V2000
   -2.6804    1.7079   -3.4953 C   0  0  1  0  0  0  0  0  0  0  0  0
   -3.6544    0.7838   -2.7171 C   0  0  1  0  0  0  0  0  0  0  0  0
   -1.7646    2.3450   -2.6033 O   0  0  0  0  0  0  0  0  0  0  0  0
   -1.9261    0.9639   -4.5468 C   0  0  0  0  0  0  0  0  0  0  0  0
   -4.6959    0.2497   -3.6289 N   0  0  2  0  0  0  0  0  0  0  0  0
   -0.8992    0.0520   -4.1994 C   0  0  0  0  0  0  0  0  0  0  0  0
   -2.2355    1.1373   -5.9155 C   0  0  0  0  0  0  0  0  0  0  0  0
   -5.6163   -0.7227   -3.0095 C   0  0  0  0  0  0  0  0  0  0  0  0
   -0.2034   -0.6883   -5.1839 C   0  0  0  0  0  0  0  0  0  0  0  0
   -1.5486    0.4133   -6.9039 C   0  0  0  0  0  0  0  0  0  0  0  0
    0.7903   -1.5816   -4.9234 N   0  0  0  0  0  0  0  0  0  0  0  0
   -0.5426   -0.4958   -6.5390 C   0  0  0  0  0  0  0  0  0  0  0  0
    1.2228   -2.2485   -3.4037 S   0  0  2  0  0  0  0  0  0  0  0  0
    2.2145   -3.7537   -3.7160 C   0  0  0  0  0  0  0  0  0  0  0  0
   -0.0845   -2.6434   -2.5640 O   0  0  0  0  0  0  0  0  0  0  0  0
    2.1012   -1.1906   -2.5792 O   0  0  0  0  0  0  0  0  0  0  0  0
   -3.2739    2.5093   -3.9453 H   0  0  0  0  0  0  0  0  0  0  0  0
   -3.0960   -0.0344   -2.2518 H   0  0  0  0  0  0  0  0  0  0  0  0
   -4.1368    1.3635   -1.9240 H   0  0  0  0  0  0  0  0  0  0  0  0
   -2.3223    2.8808   -2.0003 H   0  0  0  0  0  0  0  0  0  0  0  0
   -4.2150   -0.2429   -4.3854 H   0  0  0  0  0  0  0  0  0  0  0  0
   -0.6528   -0.0637   -3.2160 H   0  0  0  0  0  0  0  0  0  0  0  0
   -2.9697    1.7875   -6.2048 H   0  0  0  0  0  0  0  0  0  0  0  0
   -6.3476   -1.0310   -3.7579 H   0  0  0  0  0  0  0  0  0  0  0  0
   -5.0721   -1.6062   -2.6677 H   0  0  0  0  0  0  0  0  0  0  0  0
   -6.1475   -0.2713   -2.1694 H   0  0  0  0  0  0  0  0  0  0  0  0
   -1.7859    0.5440   -7.8893 H   0  0  0  0  0  0  0  0  0  0  0  0
    1.3034   -1.8976   -5.6827 H   0  0  0  0  0  0  0  0  0  0  0  0
   -0.0608   -1.0192   -7.2755 H   0  0  0  0  0  0  0  0  0  0  0  0
    3.1405   -3.4780   -4.2231 H   0  0  0  0  0  0  0  0  0  0  0  0
    2.4482   -4.2489   -2.7721 H   0  0  0  0  0  0  0  0  0  0  0  0
    1.6440   -4.4322   -4.3522 H   0  0  0  0  0  0  0  0  0  0  0  0
  1  2  1  0  0  0  0 
  1  3  1  0  0  0  0 
  1  4  1  0  0  0  0 
  2  5  1  0  0  0  0 
  4  6  2  0  0  0  0 
  4  7  1  0  0  0  0 
  5  8  1  0  0  0  0 
  6  9  1  0  0  0  0 
  7 10  2  0  0  0  0 
  9 11  1  0  0  0  0 
  9 12  2  0  0  0  0 
 10 12  1  0  0  0  0 
 11 13  1  0  0  0  0 
 13 14  1  0  0  0  0 
 13 15  2  0  0  0  0 
 13 16  2  0  0  0  0 
  1 17  1  0  0  0  0 
  2 18  1  0  0  0  0 
  2 19  1  0  0  0  0 
  3 20  1  0  0  0  0 
  5 21  1  0  0  0  0 
  6 22  1  0  0  0  0 
  7 23  1  0  0  0  0 
  8 24  1  0  0  0  0 
  8 25  1  0  0  0  0 
  8 26  1  0  0  0  0 
 10 27  1  0  0  0  0 
 11 28  1  0  0  0  0 
 12 29  1  0  0  0  0 
 14 30  1  0  0  0  0 
 14 31  1  0  0  0  0 
 14 32  1  0  0  0  0 
M  END
> <cdk:Title>
amidefrine

> <Conformer>
1

> <SuperDrugID>
SD000121

$$$$
