tripamide
  CDK     0628171801

 44 47  0  0  0  0  0  0  0  0999 V2000
    1.2937    1.9720    0.7125 N   0  0  0  0  0  0  0  0  0  0  0  0
    0.3566    0.9847    0.7385 C   0  0  0  0  0  0  0  0  0  0  0  0
    1.6825    2.5994   -0.4333 N   0  0  1  0  0  0  0  0  0  0  0  0
   -0.1470    0.6357   -0.3575 O   0  0  0  0  0  0  0  0  0  0  0  0
   -0.0830    0.3732    1.9550 C   0  0  0  0  0  0  0  0  0  0  0  0
    1.3792    4.0444   -0.4763 C   0  0  1  0  0  0  0  0  0  0  0  0
    3.1131    2.4458   -0.7564 C   0  0  1  0  0  0  0  0  0  0  0  0
    0.6305    0.5069    3.1738 C   0  0  0  0  0  0  0  0  0  0  0  0
   -1.2805   -0.3824    1.9860 C   0  0  0  0  0  0  0  0  0  0  0  0
    2.2821    4.6130   -1.5988 C   0  0  1  0  0  0  0  0  0  0  0  0
    3.4043    3.5653   -1.7846 C   0  0  2  0  0  0  0  0  0  0  0  0
    0.1560   -0.0463    4.3852 C   0  0  0  0  0  0  0  0  0  0  0  0
   -1.7674   -0.9405    3.1790 C   0  0  0  0  0  0  0  0  0  0  0  0
    1.7191    4.7590   -3.0521 C   0  0  1  0  0  0  0  0  0  0  0  0
    3.3066    3.2416   -3.3109 C   0  0  2  0  0  0  0  0  0  0  0  0
    1.1298    0.1735    5.8557 S   0  0  2  0  0  0  0  0  0  0  0  0
   -1.0717   -0.7536    4.3868 C   0  0  0  0  0  0  0  0  0  0  0  0
    3.0048    4.6355   -3.8957 C   0  0  1  0  0  0  0  0  0  0  0  0
    0.9141    3.5222   -3.5414 C   0  0  2  0  0  0  0  0  0  0  0  0
    2.0252    2.4578   -3.7159 C   0  0  2  0  0  0  0  0  0  0  0  0
    0.5631    1.5843    6.7369 N   0  0  2  0  0  0  0  0  0  0  0  0
    2.6754    0.4093    5.4972 O   0  0  0  0  0  0  0  0  0  0  0  0
    1.0389   -1.0975    6.8291 O   0  0  0  0  0  0  0  0  0  0  0  0
   -1.7767   -1.3872    5.7946 Cl  0  0  0  0  0  0  0  0  0  0  0  0
    1.6993    2.2573    1.5465 H   0  0  0  0  0  0  0  0  0  0  0  0
    0.3219    4.2291   -0.6647 H   0  0  0  0  0  0  0  0  0  0  0  0
    1.6455    4.5178    0.4740 H   0  0  0  0  0  0  0  0  0  0  0  0
    3.7267    2.5990    0.1393 H   0  0  0  0  0  0  0  0  0  0  0  0
    3.3235    1.4518   -1.1554 H   0  0  0  0  0  0  0  0  0  0  0  0
    1.5168    1.0144    3.1862 H   0  0  0  0  0  0  0  0  0  0  0  0
   -1.8320   -0.5250    1.1375 H   0  0  0  0  0  0  0  0  0  0  0  0
    2.7015    5.5754   -1.2817 H   0  0  0  0  0  0  0  0  0  0  0  0
    4.3865    4.0050   -1.5756 H   0  0  0  0  0  0  0  0  0  0  0  0
   -2.6415   -1.4745    3.1602 H   0  0  0  0  0  0  0  0  0  0  0  0
    1.1895    5.7032   -3.2101 H   0  0  0  0  0  0  0  0  0  0  0  0
    4.2207    2.7930   -3.7091 H   0  0  0  0  0  0  0  0  0  0  0  0
    2.8366    4.6344   -4.9801 H   0  0  0  0  0  0  0  0  0  0  0  0
    3.7614    5.3918   -3.6568 H   0  0  0  0  0  0  0  0  0  0  0  0
    0.4276    3.7372   -4.4978 H   0  0  0  0  0  0  0  0  0  0  0  0
    0.1482    3.2076   -2.8312 H   0  0  0  0  0  0  0  0  0  0  0  0
    1.8565    1.5764   -3.0973 H   0  0  0  0  0  0  0  0  0  0  0  0
    2.0927    2.1333   -4.7580 H   0  0  0  0  0  0  0  0  0  0  0  0
    1.0909    1.6167    7.6112 H   0  0  0  0  0  0  0  0  0  0  0  0
   -0.4122    1.4123    6.9867 H   0  0  0  0  0  0  0  0  0  0  0  0
  1  2  1  0  0  0  0 
  1  3  1  0  0  0  0 
  2  4  2  0  0  0  0 
  2  5  1  0  0  0  0 
  3  6  1  0  0  0  0 
  3  7  1  0  0  0  0 
  5  8  2  0  0  0  0 
  5  9  1  0  0  0  0 
 10  6  1  0  0  0  0 
 11  7  1  0  0  0  0 
  8 12  1  0  0  0  0 
  9 13  2  0  0  0  0 
 10 11  1  0  0  0  0 
 10 14  1  0  0  0  0 
 11 15  1  0  0  0  0 
 12 16  1  0  0  0  0 
 12 17  2  0  0  0  0 
 13 17  1  0  0  0  0 
 14 18  1  0  0  0  0 
 14 19  1  0  0  0  0 
 15 18  1  0  0  0  0 
 15 20  1  0  0  0  0 
 16 21  1  0  0  0  0 
 16 22  2  0  0  0  0 
 16 23  2  0  0  0  0 
 17 24  1  0  0  0  0 
 19 20  1  0  0  0  0 
 25  1  1  0  0  0  0 
 26  6  1  0  0  0  0 
 27  6  1  0  0  0  0 
 28  7  1  0  0  0  0 
 29  7  1  0  0  0  0 
 30  8  1  0  0  0  0 
 31  9  1  0  0  0  0 
 10 32  1  0  0  0  0 
 11 33  1  0  0  0  0 
 34 13  1  0  0  0  0 
 14 35  1  0  0  0  0 
 15 36  1  0  0  0  0 
 37 18  1  0  0  0  0 
 38 18  1  0  0  0  0 
 39 19  1  0  0  0  0 
 40 19  1  0  0  0  0 
 41 20  1  0  0  0  0 
 42 20  1  0  0  0  0 
 43 21  1  0  0  0  0 
 44 21  1  0  0  0  0 
M  END
> <cdk:Title>
tripamide

> <Conformer>
1

> <SuperDrugID>
SD002489

$$$$
