valganciclovir
  CDK     0628171801

 47 48  0  0  0  0  0  0  0  0999 V2000
   -6.8982    3.5772   -1.5637 C   0  0  0  0  0  0  0  0  0  0  0  0
   -6.1567    2.5975   -0.6074 C   0  0  2  0  0  0  0  0  0  0  0  0
   -7.0443    2.3121    0.6403 C   0  0  0  0  0  0  0  0  0  0  0  0
   -4.7384    3.1445   -0.2231 C   0  0  2  0  0  0  0  0  0  0  0  0
   -3.9212    3.3701   -1.4254 N   0  0  1  0  0  0  0  0  0  0  0  0
   -3.9884    2.2462    0.6855 C   0  0  0  0  0  0  0  0  0  0  0  0
   -3.7424    2.6195    1.8562 O   0  0  0  0  0  0  0  0  0  0  0  0
   -3.5667    1.0245    0.2382 O   0  0  0  0  0  0  0  0  0  0  0  0
   -2.9437   -0.0028    1.0247 C   0  0  2  0  0  0  0  0  0  0  0  0
   -2.1328   -0.9933    0.1253 C   0  0  2  0  0  0  0  0  0  0  0  0
   -2.5821   -2.4616    0.3324 C   0  0  2  0  0  0  0  0  0  0  0  0
   -1.8190   -3.3378   -0.4925 O   0  0  0  0  0  0  0  0  0  0  0  0
   -0.7192   -0.9583    0.4252 O   0  0  0  0  0  0  0  0  0  0  0  0
    0.0229    0.1891   -0.0334 C   0  0  2  0  0  0  0  0  0  0  0  0
    1.3134    0.1440    0.5796 N   0  0  0  0  0  0  0  0  0  0  0  0
    2.5223    0.1350   -0.0263 C   0  0  0  0  0  0  0  0  0  0  0  0
    3.5294    0.0839    0.8695 N   0  0  0  0  0  0  0  0  0  0  0  0
    2.9353    0.0433    2.0704 C   0  0  0  0  0  0  0  0  0  0  0  0
    1.5576    0.0842    1.8985 C   0  0  0  0  0  0  0  0  0  0  0  0
    0.7133    0.0440    2.9581 N   0  0  0  0  0  0  0  0  0  0  0  0
    1.2231   -0.0406    4.2183 C   0  0  0  0  0  0  0  0  0  0  0  0
    0.3815   -0.0891    5.2612 N   0  0  0  0  0  0  0  0  0  0  0  0
    2.5745   -0.0760    4.4159 N   0  0  0  0  0  0  0  0  0  0  0  0
    3.4518   -0.0384    3.3732 C   0  0  0  0  0  0  0  0  0  0  0  0
    4.6836   -0.0851    3.5795 O   0  0  0  0  0  0  0  0  0  0  0  0
   -7.8871    3.1935   -1.8220 H   0  0  0  0  0  0  0  0  0  0  0  0
   -7.0162    4.5546   -1.0924 H   0  0  0  0  0  0  0  0  0  0  0  0
   -6.3426    3.7042   -2.4938 H   0  0  0  0  0  0  0  0  0  0  0  0
   -6.0321    1.6512   -1.1446 H   0  0  0  0  0  0  0  0  0  0  0  0
   -6.6033    1.5250    1.2539 H   0  0  0  0  0  0  0  0  0  0  0  0
   -7.1525    3.2116    1.2503 H   0  0  0  0  0  0  0  0  0  0  0  0
   -8.0387    1.9752    0.3392 H   0  0  0  0  0  0  0  0  0  0  0  0
   -4.8682    4.1149    0.2663 H   0  0  0  0  0  0  0  0  0  0  0  0
   -3.0357    3.7812   -1.1224 H   0  0  0  0  0  0  0  0  0  0  0  0
   -3.7125    2.4537   -1.8302 H   0  0  0  0  0  0  0  0  0  0  0  0
   -3.7408   -0.5143    1.5733 H   0  0  0  0  0  0  0  0  0  0  0  0
   -2.2793    0.4406    1.7699 H   0  0  0  0  0  0  0  0  0  0  0  0
   -2.2903   -0.7566   -0.9335 H   0  0  0  0  0  0  0  0  0  0  0  0
   -3.6374   -2.5729    0.0710 H   0  0  0  0  0  0  0  0  0  0  0  0
   -2.4434   -2.7543    1.3766 H   0  0  0  0  0  0  0  0  0  0  0  0
   -2.1148   -4.2393   -0.2470 H   0  0  0  0  0  0  0  0  0  0  0  0
   -0.4577    1.1257    0.2607 H   0  0  0  0  0  0  0  0  0  0  0  0
    0.1059    0.1641   -1.1238 H   0  0  0  0  0  0  0  0  0  0  0  0
    2.6702    0.1648   -1.0379 H   0  0  0  0  0  0  0  0  0  0  0  0
    0.7271   -0.1453    6.1658 H   0  0  0  0  0  0  0  0  0  0  0  0
   -0.5776   -0.0714    5.1112 H   0  0  0  0  0  0  0  0  0  0  0  0
    2.9187   -0.1281    5.3221 H   0  0  0  0  0  0  0  0  0  0  0  0
  1  2  1  0  0  0  0 
  2  3  1  0  0  0  0 
  4  2  1  0  0  0  0 
  4  5  1  0  0  0  0 
  4  6  1  0  0  0  0 
  6  7  2  0  0  0  0 
  6  8  1  0  0  0  0 
  8  9  1  0  0  0  0 
 10  9  1  0  0  0  0 
 10 11  1  0  0  0  0 
 11 12  1  0  0  0  0 
 10 13  1  0  0  0  0 
 13 14  1  0  0  0  0 
 14 15  1  0  0  0  0 
 15 16  1  0  0  0  0 
 16 17  2  0  0  0  0 
 17 18  1  0  0  0  0 
 18 19  2  0  0  0  0 
 15 19  1  0  0  0  0 
 19 20  1  0  0  0  0 
 20 21  2  0  0  0  0 
 21 22  1  0  0  0  0 
 21 23  1  0  0  0  0 
 23 24  1  0  0  0  0 
 18 24  1  0  0  0  0 
 24 25  2  0  0  0  0 
 26  1  1  0  0  0  0 
 27  1  1  0  0  0  0 
 28  1  1  0  0  0  0 
 29  2  1  0  0  0  0 
 30  3  1  0  0  0  0 
 31  3  1  0  0  0  0 
 32  3  1  0  0  0  0 
  4 33  1  0  0  0  0 
 34  5  1  0  0  0  0 
 35  5  1  0  0  0  0 
 36  9  1  0  0  0  0 
 37  9  1  0  0  0  0 
 38 10  1  0  0  0  0 
 39 11  1  0  0  0  0 
 40 11  1  0  0  0  0 
 41 12  1  0  0  0  0 
 42 14  1  0  0  0  0 
 43 14  1  0  0  0  0 
 44 16  1  0  0  0  0 
 45 22  1  0  0  0  0 
 46 22  1  0  0  0  0 
 47 23  1  0  0  0  0 
M  END
> <cdk:Title>
valganciclovir

> <Conformer>
1

> <SuperDrugID>
SD002526

$$$$
