feprazone
  CDK     0628171801

 44 46  0  0  0  0  0  0  0  0999 V2000
    2.3328   -2.9175   -0.5293 O   0  0  0  0  0  0  0  0  0  0  0  0
    1.4610   -3.5893   -1.3253 C   0  0  0  0  0  0  0  0  0  0  0  0
    1.3755   -4.9288   -1.4731 N   0  0  0  0  0  0  0  0  0  0  0  0
    0.4772   -2.9978   -2.1098 C   0  0  0  0  0  0  0  0  0  0  0  0
    0.3889   -5.2104   -2.2947 N   0  0  0  0  0  0  0  0  0  0  0  0
    2.1990   -5.8221   -0.8382 C   0  0  0  0  0  0  0  0  0  0  0  0
    0.2100   -1.5499   -2.2439 C   0  0  1  0  0  0  0  0  0  0  0  0
   -0.1845   -4.0601   -2.7167 C   0  0  0  0  0  0  0  0  0  0  0  0
    0.0093   -6.4630   -2.7076 C   0  0  0  0  0  0  0  0  0  0  0  0
    1.6625   -6.8171    0.0122 C   0  0  0  0  0  0  0  0  0  0  0  0
    3.5956   -5.7840   -1.0576 C   0  0  0  0  0  0  0  0  0  0  0  0
   -0.2513   -1.0028   -0.9770 C   0  0  0  0  0  0  0  0  0  0  0  0
   -1.1382   -3.9540   -3.5236 O   0  0  0  0  0  0  0  0  0  0  0  0
    0.9332   -7.2931   -3.3823 C   0  0  0  0  0  0  0  0  0  0  0  0
   -1.2902   -6.9535   -2.4382 C   0  0  0  0  0  0  0  0  0  0  0  0
    2.5060   -7.7671    0.6180 C   0  0  0  0  0  0  0  0  0  0  0  0
    4.4384   -6.7319   -0.4492 C   0  0  0  0  0  0  0  0  0  0  0  0
   -1.5192   -1.0296   -0.5031 C   0  0  0  0  0  0  0  0  0  0  0  0
    0.5703   -8.5949   -3.7722 C   0  0  0  0  0  0  0  0  0  0  0  0
   -1.6526   -8.2562   -2.8312 C   0  0  0  0  0  0  0  0  0  0  0  0
    3.8936   -7.7247    0.3862 C   0  0  0  0  0  0  0  0  0  0  0  0
   -1.8168   -0.5006    0.8255 C   0  0  0  0  0  0  0  0  0  0  0  0
   -2.6328   -1.5867   -1.2704 C   0  0  0  0  0  0  0  0  0  0  0  0
   -0.7228   -9.0758   -3.4974 C   0  0  0  0  0  0  0  0  0  0  0  0
    3.1149   -2.7445   -1.0958 H   0  0  0  0  0  0  0  0  0  0  0  0
    1.1413   -1.0539   -2.5341 H   0  0  0  0  0  0  0  0  0  0  0  0
   -0.5084   -1.3543   -3.0428 H   0  0  0  0  0  0  0  0  0  0  0  0
    0.6555   -6.8547    0.1922 H   0  0  0  0  0  0  0  0  0  0  0  0
    4.0020   -5.0744   -1.6732 H   0  0  0  0  0  0  0  0  0  0  0  0
    0.4593   -0.6008   -0.4052 H   0  0  0  0  0  0  0  0  0  0  0  0
    1.8762   -6.9519   -3.5895 H   0  0  0  0  0  0  0  0  0  0  0  0
   -1.9704   -6.3699   -1.9422 H   0  0  0  0  0  0  0  0  0  0  0  0
    2.1101   -8.4895    1.2255 H   0  0  0  0  0  0  0  0  0  0  0  0
    5.4471   -6.7017   -0.6195 H   0  0  0  0  0  0  0  0  0  0  0  0
    1.2477   -9.1888   -4.2559 H   0  0  0  0  0  0  0  0  0  0  0  0
   -2.5921   -8.6077   -2.6292 H   0  0  0  0  0  0  0  0  0  0  0  0
    4.5067   -8.4153    0.8258 H   0  0  0  0  0  0  0  0  0  0  0  0
   -2.5250    0.3254    0.7401 H   0  0  0  0  0  0  0  0  0  0  0  0
   -0.9344   -0.1313    1.3529 H   0  0  0  0  0  0  0  0  0  0  0  0
   -2.2618   -1.2860    1.4408 H   0  0  0  0  0  0  0  0  0  0  0  0
   -3.5844   -1.5225   -0.7362 H   0  0  0  0  0  0  0  0  0  0  0  0
   -2.4547   -2.6409   -1.4836 H   0  0  0  0  0  0  0  0  0  0  0  0
   -2.7509   -1.0439   -2.2104 H   0  0  0  0  0  0  0  0  0  0  0  0
   -0.9866  -10.0201   -3.7838 H   0  0  0  0  0  0  0  0  0  0  0  0
  1  2  1  0  0  0  0 
  2  3  1  0  0  0  0 
  2  4  2  0  0  0  0 
  3  5  1  0  0  0  0 
  3  6  1  0  0  0  0 
  4  7  1  0  0  0  0 
  4  8  1  0  0  0  0 
  5  8  1  0  0  0  0 
  5  9  1  0  0  0  0 
  6 10  2  0  0  0  0 
  6 11  1  0  0  0  0 
  7 12  1  0  0  0  0 
  8 13  2  0  0  0  0 
  9 14  2  0  0  0  0 
  9 15  1  0  0  0  0 
 10 16  1  0  0  0  0 
 11 17  2  0  0  0  0 
 12 18  2  0  0  0  0 
 14 19  1  0  0  0  0 
 15 20  2  0  0  0  0 
 16 21  2  0  0  0  0 
 17 21  1  0  0  0  0 
 18 22  1  0  0  0  0 
 18 23  1  0  0  0  0 
 19 24  2  0  0  0  0 
 20 24  1  0  0  0  0 
 25  1  1  0  0  0  0 
 26  7  1  0  0  0  0 
 27  7  1  0  0  0  0 
 28 10  1  0  0  0  0 
 29 11  1  0  0  0  0 
 30 12  1  0  0  0  0 
 31 14  1  0  0  0  0 
 32 15  1  0  0  0  0 
 33 16  1  0  0  0  0 
 34 17  1  0  0  0  0 
 35 19  1  0  0  0  0 
 36 20  1  0  0  0  0 
 37 21  1  0  0  0  0 
 38 22  1  0  0  0  0 
 39 22  1  0  0  0  0 
 40 22  1  0  0  0  0 
 41 23  1  0  0  0  0 
 42 23  1  0  0  0  0 
 43 23  1  0  0  0  0 
 44 24  1  0  0  0  0 
M  END
> <cdk:Title>
feprazone

> <Conformer>
1

> <SuperDrugID>
SD001046

$$$$
