chloroprocaine
  CDK     0628171802

 37 37  0  0  0  0  0  0  0  0999 V2000
    0.4919   -0.5536    0.1228 C   0  0  0  0  0  0  0  0  0  0  0  0
   -0.7879   -0.1721    0.4148 O   0  0  0  0  0  0  0  0  0  0  0  0
    0.7446   -1.7807    0.0906 O   0  0  0  0  0  0  0  0  0  0  0  0
    1.4811    0.4457   -0.1254 C   0  0  0  0  0  0  0  0  0  0  0  0
   -1.8979   -1.0010    0.7739 C   0  0  2  0  0  0  0  0  0  0  0  0
    2.8866    0.1969   -0.1347 C   0  0  0  0  0  0  0  0  0  0  0  0
    1.0479    1.7792   -0.3535 C   0  0  0  0  0  0  0  0  0  0  0  0
   -3.1275   -0.1003    1.0387 C   0  0  2  0  0  0  0  0  0  0  0  0
    3.5896   -1.3244    0.1534 Cl  0  0  0  0  0  0  0  0  0  0  0  0
    3.7958    1.2516   -0.3668 C   0  0  0  0  0  0  0  0  0  0  0  0
    1.9585    2.8223   -0.5818 C   0  0  0  0  0  0  0  0  0  0  0  0
   -4.2674   -0.8495    1.6783 N   0  0  1  0  0  0  0  0  0  0  0  0
    3.3370    2.5613   -0.5898 C   0  0  0  0  0  0  0  0  0  0  0  0
   -4.0970   -0.9083    3.1764 C   0  0  1  0  0  0  0  0  0  0  0  0
   -5.6255   -0.3799    1.2269 C   0  0  1  0  0  0  0  0  0  0  0  0
    4.2058    3.5676   -0.8061 N   0  0  0  0  0  0  0  0  0  0  0  0
   -5.0144   -1.9065    3.9186 C   0  0  0  0  0  0  0  0  0  0  0  0
   -5.9637   -0.7449   -0.2408 C   0  0  0  0  0  0  0  0  0  0  0  0
   -1.6306   -1.5643    1.6684 H   0  0  0  0  0  0  0  0  0  0  0  0
   -2.1196   -1.7027   -0.0349 H   0  0  0  0  0  0  0  0  0  0  0  0
    0.0536    2.0180   -0.3580 H   0  0  0  0  0  0  0  0  0  0  0  0
   -3.4076    0.3225    0.0725 H   0  0  0  0  0  0  0  0  0  0  0  0
   -2.8276    0.7464    1.6656 H   0  0  0  0  0  0  0  0  0  0  0  0
    4.8030    1.0689   -0.3678 H   0  0  0  0  0  0  0  0  0  0  0  0
    1.6099    3.7718   -0.7360 H   0  0  0  0  0  0  0  0  0  0  0  0
   -3.0764   -1.2187    3.4150 H   0  0  0  0  0  0  0  0  0  0  0  0
   -4.2356    0.0882    3.6095 H   0  0  0  0  0  0  0  0  0  0  0  0
   -6.4093   -0.8433    1.8285 H   0  0  0  0  0  0  0  0  0  0  0  0
   -5.7128    0.7029    1.3603 H   0  0  0  0  0  0  0  0  0  0  0  0
    5.1612    3.3972   -0.8058 H   0  0  0  0  0  0  0  0  0  0  0  0
    3.8757    4.4683   -0.9573 H   0  0  0  0  0  0  0  0  0  0  0  0
   -6.0237   -1.5047    4.0130 H   0  0  0  0  0  0  0  0  0  0  0  0
   -5.0504   -2.8567    3.3842 H   0  0  0  0  0  0  0  0  0  0  0  0
   -4.6303   -2.0841    4.9257 H   0  0  0  0  0  0  0  0  0  0  0  0
   -7.0309   -0.6024   -0.4235 H   0  0  0  0  0  0  0  0  0  0  0  0
   -5.7141   -1.7881   -0.4393 H   0  0  0  0  0  0  0  0  0  0  0  0
   -5.4210   -0.1105   -0.9416 H   0  0  0  0  0  0  0  0  0  0  0  0
  1  2  1  0  0  0  0 
  1  3  2  0  0  0  0 
  1  4  1  0  0  0  0 
  2  5  1  0  0  0  0 
  4  6  2  0  0  0  0 
  4  7  1  0  0  0  0 
  5  8  1  0  0  0  0 
  6  9  1  0  0  0  0 
  6 10  1  0  0  0  0 
  7 11  2  0  0  0  0 
  8 12  1  0  0  0  0 
 10 13  2  0  0  0  0 
 11 13  1  0  0  0  0 
 12 14  1  0  0  0  0 
 12 15  1  0  0  0  0 
 13 16  1  0  0  0  0 
 14 17  1  0  0  0  0 
 15 18  1  0  0  0  0 
  5 19  1  0  0  0  0 
  5 20  1  0  0  0  0 
  7 21  1  0  0  0  0 
  8 22  1  0  0  0  0 
  8 23  1  0  0  0  0 
 10 24  1  0  0  0  0 
 11 25  1  0  0  0  0 
 14 26  1  0  0  0  0 
 14 27  1  0  0  0  0 
 15 28  1  0  0  0  0 
 15 29  1  0  0  0  0 
 16 30  1  0  0  0  0 
 16 31  1  0  0  0  0 
 17 32  1  0  0  0  0 
 17 33  1  0  0  0  0 
 17 34  1  0  0  0  0 
 18 35  1  0  0  0  0 
 18 36  1  0  0  0  0 
 18 37  1  0  0  0  0 
M  END
> <cdk:Title>
chloroprocaine

> <Conformer>
1

> <SuperDrugID>
SD000527

$$$$
