ergotamine
  CDK     0628171801

 78 85  0  0  0  0  0  0  0  0999 V2000
   -1.8722   -1.1071    2.7870 O   0  0  0  0  0  0  0  0  0  0  0  0
   -2.2477    0.1414    3.3699 C   0  0  1  0  0  0  0  0  0  0  0  0
   -1.9232    1.2331    2.5142 N   0  0  0  0  0  0  0  0  0  0  0  0
   -3.7834    0.2548    3.6352 C   0  0  1  0  0  0  0  0  0  0  0  0
   -1.4625    0.3071    4.5704 O   0  0  0  0  0  0  0  0  0  0  0  0
   -2.5635    1.4524    1.2337 C   0  0  1  0  0  0  0  0  0  0  0  0
   -1.0980    2.0762    3.1533 C   0  0  0  0  0  0  0  0  0  0  0  0
   -4.5494    0.5490    2.4558 N   0  0  0  0  0  0  0  0  0  0  0  0
   -4.5040   -0.9905    4.1902 C   0  0  1  0  0  0  0  0  0  0  0  0
   -0.8082    1.5906    4.5056 C   0  0  2  0  0  0  0  0  0  0  0  0
   -1.9106    0.6254    0.0807 C   0  0  2  0  0  0  0  0  0  0  0  0
   -4.0204    1.1542    1.3375 C   0  0  0  0  0  0  0  0  0  0  0  0
   -0.6643    3.1571    2.6894 O   0  0  0  0  0  0  0  0  0  0  0  0
   -5.9077    0.1166    2.5514 C   0  0  2  0  0  0  0  0  0  0  0  0
   -5.9788   -0.6787    3.8709 C   0  0  1  0  0  0  0  0  0  0  0  0
    0.6106    1.5506    4.6984 N   0  0  0  0  0  0  0  0  0  0  0  0
   -1.4136    2.5193    5.5921 C   0  0  0  0  0  0  0  0  0  0  0  0
   -0.4338    0.7779   -0.0441 C   0  0  0  0  0  0  0  0  0  0  0  0
   -4.7555    1.4322    0.3585 O   0  0  0  0  0  0  0  0  0  0  0  0
    1.4887    0.6045    4.2651 C   0  0  0  0  0  0  0  0  0  0  0  0
    0.1422    2.0589   -0.2210 C   0  0  0  0  0  0  0  0  0  0  0  0
    0.4240   -0.3493   -0.0274 C   0  0  0  0  0  0  0  0  0  0  0  0
    1.0918   -0.4559    3.7256 O   0  0  0  0  0  0  0  0  0  0  0  0
    2.9502    0.8887    4.3153 C   0  0  2  0  0  0  0  0  0  0  0  0
    1.5315    2.2118   -0.3732 C   0  0  0  0  0  0  0  0  0  0  0  0
    1.8123   -0.1984   -0.1996 C   0  0  0  0  0  0  0  0  0  0  0  0
    3.3781    1.5766    5.5416 C   0  0  0  0  0  0  0  0  0  0  0  0
    3.3367    1.6433    3.0032 C   0  0  2  0  0  0  0  0  0  0  0  0
    2.3658    1.0818   -0.3757 C   0  0  0  0  0  0  0  0  0  0  0  0
    4.1017    2.7192    5.5753 C   0  0  0  0  0  0  0  0  0  0  0  0
    4.6071    2.4147    3.1402 N   0  0  1  0  0  0  0  0  0  0  0  0
    4.4021    3.3536    6.7925 C   0  0  0  0  0  0  0  0  0  0  0  0
    4.5002    3.3826    4.2902 C   0  0  2  0  0  0  0  0  0  0  0  0
    5.8182    1.5360    3.1009 C   0  0  0  0  0  0  0  0  0  0  0  0
    5.2020    4.5840    6.7266 C   0  0  0  0  0  0  0  0  0  0  0  0
    4.0381    3.0744    8.2054 C   0  0  0  0  0  0  0  0  0  0  0  0
    5.6764    4.4499    4.3048 C   0  0  2  0  0  0  0  0  0  0  0  0
    5.7920    5.1720    5.5834 C   0  0  0  0  0  0  0  0  0  0  0  0
    5.5671    5.4517    7.7993 C   0  0  0  0  0  0  0  0  0  0  0  0
    4.4056    3.9303    9.3281 C   0  0  0  0  0  0  0  0  0  0  0  0
    6.4497    6.3314    5.9845 C   0  0  0  0  0  0  0  0  0  0  0  0
    6.2806    6.4841    7.3147 N   0  0  0  0  0  0  0  0  0  0  0  0
    5.1559    5.1120    9.1021 C   0  0  0  0  0  0  0  0  0  0  0  0
   -2.4857   -1.2396    2.0350 H   0  0  0  0  0  0  0  0  0  0  0  0
   -3.9466    1.0788    4.3404 H   0  0  0  0  0  0  0  0  0  0  0  0
   -2.4930    2.5118    0.9722 H   0  0  0  0  0  0  0  0  0  0  0  0
   -4.1966   -1.8955    3.6576 H   0  0  0  0  0  0  0  0  0  0  0  0
   -4.3348   -1.1227    5.2620 H   0  0  0  0  0  0  0  0  0  0  0  0
   -2.3491    0.9425   -0.8689 H   0  0  0  0  0  0  0  0  0  0  0  0
   -2.1743   -0.4284    0.1999 H   0  0  0  0  0  0  0  0  0  0  0  0
   -6.1528   -0.5370    1.7100 H   0  0  0  0  0  0  0  0  0  0  0  0
   -6.5935    0.9679    2.5632 H   0  0  0  0  0  0  0  0  0  0  0  0
   -6.5672   -1.5920    3.7644 H   0  0  0  0  0  0  0  0  0  0  0  0
   -6.4151   -0.0620    4.6631 H   0  0  0  0  0  0  0  0  0  0  0  0
    0.9986    2.3244    5.1352 H   0  0  0  0  0  0  0  0  0  0  0  0
   -2.4738    2.7029    5.4136 H   0  0  0  0  0  0  0  0  0  0  0  0
   -0.9013    3.4841    5.6077 H   0  0  0  0  0  0  0  0  0  0  0  0
   -1.3087    2.0533    6.5741 H   0  0  0  0  0  0  0  0  0  0  0  0
   -0.4451    2.8950   -0.2422 H   0  0  0  0  0  0  0  0  0  0  0  0
    0.0463   -1.2923    0.0993 H   0  0  0  0  0  0  0  0  0  0  0  0
    3.4850   -0.0677    4.3109 H   0  0  0  0  0  0  0  0  0  0  0  0
    1.9333    3.1454   -0.4825 H   0  0  0  0  0  0  0  0  0  0  0  0
    2.4217   -1.0197   -0.1959 H   0  0  0  0  0  0  0  0  0  0  0  0
    3.1074    1.1477    6.3982 H   0  0  0  0  0  0  0  0  0  0  0  0
    2.5551    2.3549    2.7150 H   0  0  0  0  0  0  0  0  0  0  0  0
    3.4065    0.9237    2.1840 H   0  0  0  0  0  0  0  0  0  0  0  0
    3.3756    1.1916   -0.4932 H   0  0  0  0  0  0  0  0  0  0  0  0
    3.6274    4.0106    4.0676 H   0  0  0  0  0  0  0  0  0  0  0  0
    5.7549    0.8306    2.2702 H   0  0  0  0  0  0  0  0  0  0  0  0
    6.7151    2.1231    2.9159 H   0  0  0  0  0  0  0  0  0  0  0  0
    5.9398    0.9764    4.0323 H   0  0  0  0  0  0  0  0  0  0  0  0
    3.4685    2.2306    8.5296 H   0  0  0  0  0  0  0  0  0  0  0  0
    5.5217    5.1736    3.5009 H   0  0  0  0  0  0  0  0  0  0  0  0
    6.6427    3.9766    4.1482 H   0  0  0  0  0  0  0  0  0  0  0  0
    4.1211    3.6859   10.2784 H   0  0  0  0  0  0  0  0  0  0  0  0
    6.9772    6.9570    5.3749 H   0  0  0  0  0  0  0  0  0  0  0  0
    6.6242    7.2219    7.8427 H   0  0  0  0  0  0  0  0  0  0  0  0
    5.4048    5.7194    9.8840 H   0  0  0  0  0  0  0  0  0  0  0  0
  2  1  1  0  0  0  0 
  2  3  1  0  0  0  0 
  2  4  1  0  0  0  0 
  2  5  1  0  0  0  0 
  6  3  1  0  0  0  0 
  3  7  1  0  0  0  0 
  4  8  1  0  0  0  0 
  4  9  1  0  0  0  0 
 10  5  1  0  0  0  0 
  6 11  1  0  0  0  0 
  6 12  1  0  0  0  0 
 10  7  1  0  0  0  0 
  7 13  2  0  0  0  0 
  8 12  1  0  0  0  0 
  8 14  1  0  0  0  0 
  9 15  1  0  0  0  0 
 10 16  1  0  0  0  0 
 10 17  1  0  0  0  0 
 11 18  1  0  0  0  0 
 12 19  2  0  0  0  0 
 14 15  1  0  0  0  0 
 16 20  1  0  0  0  0 
 18 21  2  0  0  0  0 
 18 22  1  0  0  0  0 
 20 23  2  0  0  0  0 
 21 25  1  0  0  0  0 
 22 26  2  0  0  0  0 
 24 20  1  0  0  0  0 
 24 27  1  0  0  0  0 
 24 28  1  0  0  0  0 
 25 29  2  0  0  0  0 
 26 29  1  0  0  0  0 
 27 30  2  0  0  0  0 
 28 31  1  0  0  0  0 
 30 32  1  0  0  0  0 
 33 30  1  0  0  0  0 
 33 31  1  0  0  0  0 
 31 34  1  0  0  0  0 
 32 35  2  0  0  0  0 
 32 36  1  0  0  0  0 
 33 37  1  0  0  0  0 
 35 38  1  0  0  0  0 
 35 39  1  0  0  0  0 
 36 40  2  0  0  0  0 
 37 38  1  0  0  0  0 
 38 41  2  0  0  0  0 
 39 42  1  0  0  0  0 
 39 43  2  0  0  0  0 
 40 43  1  0  0  0  0 
 41 42  1  0  0  0  0 
 44  1  1  0  0  0  0 
  4 45  1  0  0  0  0 
  6 46  1  0  0  0  0 
 47  9  1  0  0  0  0 
 48  9  1  0  0  0  0 
 49 11  1  0  0  0  0 
 50 11  1  0  0  0  0 
 51 14  1  0  0  0  0 
 52 14  1  0  0  0  0 
 53 15  1  0  0  0  0 
 54 15  1  0  0  0  0 
 55 16  1  0  0  0  0 
 56 17  1  0  0  0  0 
 57 17  1  0  0  0  0 
 58 17  1  0  0  0  0 
 59 21  1  0  0  0  0 
 60 22  1  0  0  0  0 
 24 61  1  0  0  0  0 
 62 25  1  0  0  0  0 
 63 26  1  0  0  0  0 
 64 27  1  0  0  0  0 
 65 28  1  0  0  0  0 
 66 28  1  0  0  0  0 
 67 29  1  0  0  0  0 
 33 68  1  0  0  0  0 
 69 34  1  0  0  0  0 
 70 34  1  0  0  0  0 
 71 34  1  0  0  0  0 
 72 36  1  0  0  0  0 
 73 37  1  0  0  0  0 
 74 37  1  0  0  0  0 
 75 40  1  0  0  0  0 
 76 41  1  0  0  0  0 
 77 42  1  0  0  0  0 
 78 43  1  0  0  0  0 
M  END
> <cdk:Title>
ergotamine

> <Conformer>
1

> <SuperDrugID>
SD000929

$$$$
