tioclomarol
  CDK     0628171801

 45 48  0  0  0  0  0  0  0  0999 V2000
   -1.3758    1.5089   -0.0710 C   0  0  1  0  0  0  0  0  0  0  0  0
   -0.3627    0.6664    0.7785 C   0  0  2  0  0  0  0  0  0  0  0  0
   -2.2069    0.7441   -1.0665 C   0  0  0  0  0  0  0  0  0  0  0  0
   -2.2659    2.3831    0.7348 C   0  0  0  0  0  0  0  0  0  0  0  0
    0.8015    0.0114   -0.0327 C   0  0  1  0  0  0  0  0  0  0  0  0
   -2.2984    1.1717   -2.4200 C   0  0  0  0  0  0  0  0  0  0  0  0
   -2.9269   -0.4294   -0.7216 C   0  0  0  0  0  0  0  0  0  0  0  0
   -3.4621    1.8911    1.9233 S   0  0  0  0  0  0  0  0  0  0  0  0
   -2.3509    3.7834    0.6609 C   0  0  0  0  0  0  0  0  0  0  0  0
    1.7535   -0.5585    0.8640 O   0  0  0  0  0  0  0  0  0  0  0  0
    0.3649   -1.0418   -0.9964 C   0  0  0  0  0  0  0  0  0  0  0  0
   -1.7284    2.3478   -2.7961 O   0  0  0  0  0  0  0  0  0  0  0  0
   -2.9812    0.4098   -3.3974 C   0  0  0  0  0  0  0  0  0  0  0  0
   -3.0015   -0.8888    0.4386 O   0  0  0  0  0  0  0  0  0  0  0  0
   -3.5845   -1.1446   -1.6733 O   0  0  0  0  0  0  0  0  0  0  0  0
   -4.0613    3.5018    2.2624 C   0  0  0  0  0  0  0  0  0  0  0  0
   -3.3189    4.3870    1.4806 C   0  0  0  0  0  0  0  0  0  0  0  0
    0.4618   -0.8356   -2.3937 C   0  0  0  0  0  0  0  0  0  0  0  0
   -0.1789   -2.2652   -0.5368 C   0  0  0  0  0  0  0  0  0  0  0  0
   -3.6229   -0.7836   -2.9830 C   0  0  0  0  0  0  0  0  0  0  0  0
   -3.0535    0.7804   -4.7615 C   0  0  0  0  0  0  0  0  0  0  0  0
   -5.3088    3.8940    3.3276 Cl  0  0  0  0  0  0  0  0  0  0  0  0
   -0.0050   -1.8039   -3.3015 C   0  0  0  0  0  0  0  0  0  0  0  0
   -0.6463   -3.2350   -1.4426 C   0  0  0  0  0  0  0  0  0  0  0  0
   -4.3059   -1.5924   -3.9080 C   0  0  0  0  0  0  0  0  0  0  0  0
   -3.7519   -0.0225   -5.6829 C   0  0  0  0  0  0  0  0  0  0  0  0
   -0.5667   -3.0037   -2.8279 C   0  0  0  0  0  0  0  0  0  0  0  0
   -4.3756   -1.2087   -5.2575 C   0  0  0  0  0  0  0  0  0  0  0  0
   -1.1449   -4.1597   -3.9202 Cl  0  0  0  0  0  0  0  0  0  0  0  0
   -0.7175    2.1916   -0.6125 H   0  0  0  0  0  0  0  0  0  0  0  0
   -0.8725   -0.0958    1.3658 H   0  0  0  0  0  0  0  0  0  0  0  0
    0.0973    1.3400    1.5064 H   0  0  0  0  0  0  0  0  0  0  0  0
    1.3303    0.8119   -0.5581 H   0  0  0  0  0  0  0  0  0  0  0  0
   -1.7571    4.3384    0.0422 H   0  0  0  0  0  0  0  0  0  0  0  0
    2.0387    0.1829    1.4389 H   0  0  0  0  0  0  0  0  0  0  0  0
   -0.9139    2.0927   -3.2764 H   0  0  0  0  0  0  0  0  0  0  0  0
   -3.4700    5.3970    1.4979 H   0  0  0  0  0  0  0  0  0  0  0  0
    0.8595    0.0303   -2.7632 H   0  0  0  0  0  0  0  0  0  0  0  0
   -0.2443   -2.4559    0.4647 H   0  0  0  0  0  0  0  0  0  0  0  0
   -2.6003    1.6343   -5.0978 H   0  0  0  0  0  0  0  0  0  0  0  0
    0.0590   -1.6256   -4.3062 H   0  0  0  0  0  0  0  0  0  0  0  0
   -1.0466   -4.1059   -1.0872 H   0  0  0  0  0  0  0  0  0  0  0  0
   -4.7525   -2.4579   -3.6008 H   0  0  0  0  0  0  0  0  0  0  0  0
   -3.8043    0.2546   -6.6655 H   0  0  0  0  0  0  0  0  0  0  0  0
   -4.8796   -1.7925   -5.9291 H   0  0  0  0  0  0  0  0  0  0  0  0
  1  2  1  0  0  0  0 
  1  3  1  0  0  0  0 
  1  4  1  0  0  0  0 
  5  2  1  0  0  0  0 
  3  6  2  0  0  0  0 
  3  7  1  0  0  0  0 
  4  8  1  0  0  0  0 
  4  9  2  0  0  0  0 
  5 10  1  0  0  0  0 
  5 11  1  0  0  0  0 
  6 12  1  0  0  0  0 
  6 13  1  0  0  0  0 
  7 14  2  0  0  0  0 
  7 15  1  0  0  0  0 
  8 16  1  0  0  0  0 
  9 17  1  0  0  0  0 
 11 18  2  0  0  0  0 
 11 19  1  0  0  0  0 
 13 20  1  0  0  0  0 
 13 21  2  0  0  0  0 
 15 20  1  0  0  0  0 
 16 17  2  0  0  0  0 
 16 22  1  0  0  0  0 
 18 23  1  0  0  0  0 
 19 24  2  0  0  0  0 
 20 25  2  0  0  0  0 
 21 26  1  0  0  0  0 
 23 27  2  0  0  0  0 
 24 27  1  0  0  0  0 
 25 28  1  0  0  0  0 
 26 28  2  0  0  0  0 
 27 29  1  0  0  0  0 
  1 30  1  0  0  0  0 
  2 31  1  0  0  0  0 
  2 32  1  0  0  0  0 
  5 33  1  0  0  0  0 
  9 34  1  0  0  0  0 
 10 35  1  0  0  0  0 
 12 36  1  0  0  0  0 
 17 37  1  0  0  0  0 
 18 38  1  0  0  0  0 
 19 39  1  0  0  0  0 
 21 40  1  0  0  0  0 
 23 41  1  0  0  0  0 
 24 42  1  0  0  0  0 
 25 43  1  0  0  0  0 
 26 44  1  0  0  0  0 
 28 45  1  0  0  0  0 
M  END
> <cdk:Title>
tioclomarol

> <Conformer>
1

> <SuperDrugID>
SD002406

$$$$
