allantoin
  CDK     0628171801

 17 17  0  0  0  0  0  0  0  0999 V2000
    2.7812    0.1919   -0.5777 N   0  0  0  0  0  0  0  0  0  0  0  0
    2.2501    1.3452   -0.1004 C   0  0  0  0  0  0  0  0  0  0  0  0
    2.1690   -1.0179   -0.6344 C   0  0  0  0  0  0  0  0  0  0  0  0
    3.0213    2.4428   -0.0979 N   0  0  0  0  0  0  0  0  0  0  0  0
    1.0814    1.4441    0.3413 O   0  0  0  0  0  0  0  0  0  0  0  0
    0.9194   -1.3477   -0.2638 N   0  0  0  0  0  0  0  0  0  0  0  0
    2.7672   -2.1839   -1.1006 C   0  0  0  0  0  0  0  0  0  0  0  0
    0.7363   -2.6573   -0.4853 C   0  0  0  0  0  0  0  0  0  0  0  0
    4.0279   -2.3251   -1.5727 O   0  0  0  0  0  0  0  0  0  0  0  0
    1.8657   -3.1689   -0.9950 N   0  0  0  0  0  0  0  0  0  0  0  0
   -0.3134   -3.2953   -0.2501 O   0  0  0  0  0  0  0  0  0  0  0  0
    3.6922    0.2353   -0.9084 H   0  0  0  0  0  0  0  0  0  0  0  0
    2.6694    3.2833    0.2345 H   0  0  0  0  0  0  0  0  0  0  0  0
    3.9330    2.3967   -0.4266 H   0  0  0  0  0  0  0  0  0  0  0  0
    0.2585   -0.7413    0.1059 H   0  0  0  0  0  0  0  0  0  0  0  0
    4.4129   -1.4237   -1.5599 H   0  0  0  0  0  0  0  0  0  0  0  0
    2.0090   -4.0959   -1.2435 H   0  0  0  0  0  0  0  0  0  0  0  0
  1  2  1  0  0  0  0 
  1  3  1  0  0  0  0 
  2  4  1  0  0  0  0 
  2  5  2  0  0  0  0 
  3  6  1  0  0  0  0 
  3  7  2  0  0  0  0 
  6  8  1  0  0  0  0 
  7  9  1  0  0  0  0 
  7 10  1  0  0  0  0 
  8 10  1  0  0  0  0 
  8 11  2  0  0  0  0 
 12  1  1  0  0  0  0 
 13  4  1  0  0  0  0 
 14  4  1  0  0  0  0 
 15  6  1  0  0  0  0 
 16  9  1  0  0  0  0 
 17 10  1  0  0  0  0 
M  END
> <cdk:Title>
allantoin

> <Conformer>
1

> <SuperDrugID>
SD003465

$$$$
