pilocarpine
  CDK     0628171801

 31 32  0  0  0  0  0  0  0  0999 V2000
   -1.4678    1.9535   -0.0135 C   0  0  1  0  0  0  0  0  0  0  0  0
   -1.9265    2.5196   -1.4002 C   0  0  2  0  0  0  0  0  0  0  0  0
   -2.2787    0.7981    0.4492 C   0  0  0  0  0  0  0  0  0  0  0  0
   -1.0660    3.6602   -2.0591 C   0  0  2  0  0  0  0  0  0  0  0  0
   -3.3786    3.0835   -1.3621 C   0  0  2  0  0  0  0  0  0  0  0  0
   -2.1513   -0.5034    0.1098 N   0  0  0  0  0  0  0  0  0  0  0  0
   -3.3418    0.8692    1.3444 C   0  0  0  0  0  0  0  0  0  0  0  0
    0.1787    4.1649   -1.2602 C   0  0  2  0  0  0  0  0  0  0  0  0
   -2.0677    4.7020   -2.3263 C   0  0  0  0  0  0  0  0  0  0  0  0
   -3.3138    4.3664   -1.9575 O   0  0  0  0  0  0  0  0  0  0  0  0
   -1.1654   -1.0798   -0.7533 C   0  0  0  0  0  0  0  0  0  0  0  0
   -3.1237   -1.1804    0.7553 C   0  0  0  0  0  0  0  0  0  0  0  0
   -3.8562   -0.3544    1.5181 N   0  0  0  0  0  0  0  0  0  0  0  0
    1.0692    5.2029   -1.9868 C   0  0  0  0  0  0  0  0  0  0  0  0
   -1.8355    5.7891   -2.9013 O   0  0  0  0  0  0  0  0  0  0  0  0
   -0.4297    1.6257   -0.0679 H   0  0  0  0  0  0  0  0  0  0  0  0
   -1.5146    2.7470    0.7355 H   0  0  0  0  0  0  0  0  0  0  0  0
   -1.9197    1.6780   -2.1021 H   0  0  0  0  0  0  0  0  0  0  0  0
   -0.7136    3.3118   -3.0351 H   0  0  0  0  0  0  0  0  0  0  0  0
   -3.7665    3.2053   -0.3497 H   0  0  0  0  0  0  0  0  0  0  0  0
   -4.0637    2.4467   -1.9273 H   0  0  0  0  0  0  0  0  0  0  0  0
   -3.6816    1.7159    1.8016 H   0  0  0  0  0  0  0  0  0  0  0  0
    0.8172    3.3039   -1.0578 H   0  0  0  0  0  0  0  0  0  0  0  0
   -0.1362    4.5839   -0.3009 H   0  0  0  0  0  0  0  0  0  0  0  0
   -1.2251   -0.6355   -1.7467 H   0  0  0  0  0  0  0  0  0  0  0  0
   -1.2941   -2.1593   -0.8572 H   0  0  0  0  0  0  0  0  0  0  0  0
   -0.1721   -0.8958   -0.3426 H   0  0  0  0  0  0  0  0  0  0  0  0
   -3.2888   -2.1887    0.6889 H   0  0  0  0  0  0  0  0  0  0  0  0
    2.0370    5.2749   -1.4848 H   0  0  0  0  0  0  0  0  0  0  0  0
    0.6030    6.1884   -1.9734 H   0  0  0  0  0  0  0  0  0  0  0  0
    1.2435    4.9051   -3.0211 H   0  0  0  0  0  0  0  0  0  0  0  0
  1  3  1  0  0  0  0 
  2  1  1  0  0  0  0 
  4  2  1  0  0  0  0 
  2  5  1  0  0  0  0 
  3  6  1  0  0  0  0 
  3  7  2  0  0  0  0 
  4  8  1  0  0  0  0 
  4  9  1  0  0  0  0 
  5 10  1  0  0  0  0 
  6 11  1  0  0  0  0 
  6 12  1  0  0  0  0 
  7 13  1  0  0  0  0 
  8 14  1  0  0  0  0 
  9 10  1  0  0  0  0 
  9 15  2  0  0  0  0 
 12 13  2  0  0  0  0 
  1 16  1  0  0  0  0 
  1 17  1  0  0  0  0 
  2 18  1  0  0  0  0 
  4 19  1  0  0  0  0 
  5 20  1  0  0  0  0 
  5 21  1  0  0  0  0 
  7 22  1  0  0  0  0 
  8 23  1  0  0  0  0 
  8 24  1  0  0  0  0 
 11 25  1  0  0  0  0 
 11 26  1  0  0  0  0 
 11 27  1  0  0  0  0 
 12 28  1  0  0  0  0 
 14 29  1  0  0  0  0 
 14 30  1  0  0  0  0 
 14 31  1  0  0  0  0 
M  END
> <cdk:Title>
pilocarpine

> <Conformer>
1

> <SuperDrugID>
SD001943

$$$$
