gliclazide
  CDK     0628171801

 43 45  0  0  0  0  0  0  0  0999 V2000
   -0.6401    0.6747    3.0903 N   0  0  0  0  0  0  0  0  0  0  0  0
   -0.1958   -0.6021    3.0445 C   0  0  0  0  0  0  0  0  0  0  0  0
   -0.8604    1.2891    4.2787 N   0  0  1  0  0  0  0  0  0  0  0  0
    0.0959   -1.1592    1.8465 N   0  0  0  0  0  0  0  0  0  0  0  0
   -0.0253   -1.2401    4.1109 O   0  0  0  0  0  0  0  0  0  0  0  0
    0.1702    2.2471    4.7097 C   0  0  1  0  0  0  0  0  0  0  0  0
   -2.1630    1.9438    4.4656 C   0  0  1  0  0  0  0  0  0  0  0  0
    0.8779   -2.6830    1.6973 S   0  0  2  0  0  0  0  0  0  0  0  0
   -0.4518    2.8666    5.9846 C   0  0  1  0  0  0  0  0  0  0  0  0
   -1.9802    2.6563    5.8278 C   0  0  2  0  0  0  0  0  0  0  0  0
    1.2618   -2.9174    0.1576 O   0  0  0  0  0  0  0  0  0  0  0  0
   -0.1259   -3.8431    2.1634 O   0  0  0  0  0  0  0  0  0  0  0  0
    2.3475   -2.6600    2.6942 C   0  0  0  0  0  0  0  0  0  0  0  0
   -0.0468    2.1829    7.3169 C   0  0  1  0  0  0  0  0  0  0  0  0
   -2.4324    1.8386    7.0636 C   0  0  1  0  0  0  0  0  0  0  0  0
    3.4488   -1.8867    2.2771 C   0  0  0  0  0  0  0  0  0  0  0  0
    2.4232   -3.3623    3.9146 C   0  0  0  0  0  0  0  0  0  0  0  0
   -1.3509    2.0928    8.1273 C   0  0  2  0  0  0  0  0  0  0  0  0
    4.6064   -1.8050    3.0733 C   0  0  0  0  0  0  0  0  0  0  0  0
    3.5804   -3.2791    4.7122 C   0  0  0  0  0  0  0  0  0  0  0  0
    4.6803   -2.4859    4.3101 C   0  0  0  0  0  0  0  0  0  0  0  0
    5.8722   -2.3822    5.1863 C   0  0  0  0  0  0  0  0  0  0  0  0
   -0.7719    1.1693    2.2656 H   0  0  0  0  0  0  0  0  0  0  0  0
   -0.1066   -0.6647    1.0370 H   0  0  0  0  0  0  0  0  0  0  0  0
    1.1245    1.7491    4.8986 H   0  0  0  0  0  0  0  0  0  0  0  0
    0.3191    3.0187    3.9478 H   0  0  0  0  0  0  0  0  0  0  0  0
   -2.3428    2.6790    3.6732 H   0  0  0  0  0  0  0  0  0  0  0  0
   -2.9824    1.2212    4.4728 H   0  0  0  0  0  0  0  0  0  0  0  0
   -0.2189    3.9360    6.0386 H   0  0  0  0  0  0  0  0  0  0  0  0
   -2.5005    3.6205    5.8209 H   0  0  0  0  0  0  0  0  0  0  0  0
    0.3402    1.1741    7.1439 H   0  0  0  0  0  0  0  0  0  0  0  0
    0.7127    2.7614    7.8509 H   0  0  0  0  0  0  0  0  0  0  0  0
   -3.4177    2.1605    7.4095 H   0  0  0  0  0  0  0  0  0  0  0  0
   -2.4729    0.7680    6.8415 H   0  0  0  0  0  0  0  0  0  0  0  0
    3.4120   -1.3709    1.3954 H   0  0  0  0  0  0  0  0  0  0  0  0
    1.6360   -3.9286    4.2383 H   0  0  0  0  0  0  0  0  0  0  0  0
   -1.5428    3.0385    8.6450 H   0  0  0  0  0  0  0  0  0  0  0  0
   -1.3117    1.2841    8.8623 H   0  0  0  0  0  0  0  0  0  0  0  0
    5.3931   -1.2403    2.7442 H   0  0  0  0  0  0  0  0  0  0  0  0
    3.6125   -3.7900    5.5979 H   0  0  0  0  0  0  0  0  0  0  0  0
    6.3835   -3.3460    5.2238 H   0  0  0  0  0  0  0  0  0  0  0  0
    6.5811   -1.6309    4.8289 H   0  0  0  0  0  0  0  0  0  0  0  0
    5.5689   -2.1040    6.1990 H   0  0  0  0  0  0  0  0  0  0  0  0
  1  2  1  0  0  0  0 
  1  3  1  0  0  0  0 
  2  4  1  0  0  0  0 
  2  5  2  0  0  0  0 
  3  6  1  0  0  0  0 
  3  7  1  0  0  0  0 
  4  8  1  0  0  0  0 
  6  9  1  0  0  0  0 
  7 10  1  0  0  0  0 
  8 11  2  0  0  0  0 
  8 12  2  0  0  0  0 
  8 13  1  0  0  0  0 
  9 10  1  0  0  0  0 
  9 14  1  0  0  0  0 
 10 15  1  0  0  0  0 
 13 16  2  0  0  0  0 
 13 17  1  0  0  0  0 
 14 18  1  0  0  0  0 
 15 18  1  0  0  0  0 
 16 19  1  0  0  0  0 
 17 20  2  0  0  0  0 
 19 21  2  0  0  0  0 
 20 21  1  0  0  0  0 
 21 22  1  0  0  0  0 
  1 23  1  0  0  0  0 
  4 24  1  0  0  0  0 
  6 25  1  0  0  0  0 
  6 26  1  0  0  0  0 
  7 27  1  0  0  0  0 
  7 28  1  0  0  0  0 
  9 29  1  0  0  0  0 
 10 30  1  0  0  0  0 
 14 31  1  0  0  0  0 
 14 32  1  0  0  0  0 
 15 33  1  0  0  0  0 
 15 34  1  0  0  0  0 
 16 35  1  0  0  0  0 
 17 36  1  0  0  0  0 
 18 37  1  0  0  0  0 
 18 38  1  0  0  0  0 
 19 39  1  0  0  0  0 
 20 40  1  0  0  0  0 
 22 41  1  0  0  0  0 
 22 42  1  0  0  0  0 
 22 43  1  0  0  0  0 
M  END
> <cdk:Title>
gliclazide

> <Conformer>
1

> <SuperDrugID>
SD001155

$$$$
