atomoxetine
  CDK     0628171801

 40 41  0  0  0  0  0  0  0  0999 V2000
    0.1074    3.0568   -0.7062 C   0  0  2  0  0  0  0  0  0  0  0  0
   -0.6768    1.9007   -1.1025 O   0  0  0  0  0  0  0  0  0  0  0  0
   -0.5365    4.3405   -1.3136 C   0  0  1  0  0  0  0  0  0  0  0  0
    1.5520    2.9467   -1.1007 C   0  0  0  0  0  0  0  0  0  0  0  0
   -0.3803    0.7261   -0.4522 C   0  0  0  0  0  0  0  0  0  0  0  0
   -2.0042    4.5822   -0.8766 C   0  0  1  0  0  0  0  0  0  0  0  0
    1.9274    2.6926   -2.4430 C   0  0  0  0  0  0  0  0  0  0  0  0
    2.5808    3.0917   -0.1369 C   0  0  0  0  0  0  0  0  0  0  0  0
   -0.9034    0.4050    0.8311 C   0  0  0  0  0  0  0  0  0  0  0  0
    0.4528   -0.1951   -1.1214 C   0  0  0  0  0  0  0  0  0  0  0  0
   -2.4726    5.8934   -1.3790 N   0  0  2  0  0  0  0  0  0  0  0  0
    3.2827    2.6007   -2.8118 C   0  0  0  0  0  0  0  0  0  0  0  0
    3.9364    3.0060   -0.5059 C   0  0  0  0  0  0  0  0  0  0  0  0
   -1.8621    1.2811    1.5531 C   0  0  0  0  0  0  0  0  0  0  0  0
   -0.5062   -0.8089    1.4433 C   0  0  0  0  0  0  0  0  0  0  0  0
    0.8189   -1.4043   -0.5066 C   0  0  0  0  0  0  0  0  0  0  0  0
   -3.8645    6.2305   -1.0261 C   0  0  0  0  0  0  0  0  0  0  0  0
    4.2885    2.7677   -1.8454 C   0  0  0  0  0  0  0  0  0  0  0  0
    0.3467   -1.7091    0.7803 C   0  0  0  0  0  0  0  0  0  0  0  0
    0.0366    3.1779    0.3799 H   0  0  0  0  0  0  0  0  0  0  0  0
    0.0549    5.2092   -1.0050 H   0  0  0  0  0  0  0  0  0  0  0  0
   -0.5103    4.2866   -2.4042 H   0  0  0  0  0  0  0  0  0  0  0  0
   -2.6442    3.7841   -1.2631 H   0  0  0  0  0  0  0  0  0  0  0  0
   -2.0571    4.5796    0.2151 H   0  0  0  0  0  0  0  0  0  0  0  0
    1.2164    2.5650   -3.1643 H   0  0  0  0  0  0  0  0  0  0  0  0
    2.3518    3.2669    0.8442 H   0  0  0  0  0  0  0  0  0  0  0  0
    0.7966    0.0142   -2.0617 H   0  0  0  0  0  0  0  0  0  0  0  0
   -2.4393    5.8558   -2.3998 H   0  0  0  0  0  0  0  0  0  0  0  0
    3.5377    2.4105   -3.7838 H   0  0  0  0  0  0  0  0  0  0  0  0
    4.6671    3.1201    0.2010 H   0  0  0  0  0  0  0  0  0  0  0  0
   -2.3096    2.0282    0.8988 H   0  0  0  0  0  0  0  0  0  0  0  0
   -2.6796    0.6871    1.9653 H   0  0  0  0  0  0  0  0  0  0  0  0
   -1.3542    1.7926    2.3724 H   0  0  0  0  0  0  0  0  0  0  0  0
   -0.8466   -1.0545    2.3761 H   0  0  0  0  0  0  0  0  0  0  0  0
    1.4275   -2.0639   -0.9965 H   0  0  0  0  0  0  0  0  0  0  0  0
   -4.5601    5.5569   -1.5282 H   0  0  0  0  0  0  0  0  0  0  0  0
   -4.0666    7.2505   -1.3577 H   0  0  0  0  0  0  0  0  0  0  0  0
   -4.0222    6.1793    0.0538 H   0  0  0  0  0  0  0  0  0  0  0  0
    5.2719    2.7139   -2.1173 H   0  0  0  0  0  0  0  0  0  0  0  0
    0.6146   -2.5885    1.2299 H   0  0  0  0  0  0  0  0  0  0  0  0
  1  2  1  0  0  0  0 
  1  3  1  0  0  0  0 
  1  4  1  0  0  0  0 
  2  5  1  0  0  0  0 
  3  6  1  0  0  0  0 
  4  7  2  0  0  0  0 
  4  8  1  0  0  0  0 
  5  9  2  0  0  0  0 
  5 10  1  0  0  0  0 
  6 11  1  0  0  0  0 
  7 12  1  0  0  0  0 
  8 13  2  0  0  0  0 
  9 14  1  0  0  0  0 
  9 15  1  0  0  0  0 
 10 16  2  0  0  0  0 
 11 17  1  0  0  0  0 
 12 18  2  0  0  0  0 
 13 18  1  0  0  0  0 
 15 19  2  0  0  0  0 
 16 19  1  0  0  0  0 
  1 20  1  0  0  0  0 
  3 21  1  0  0  0  0 
  3 22  1  0  0  0  0 
  6 23  1  0  0  0  0 
  6 24  1  0  0  0  0 
  7 25  1  0  0  0  0 
  8 26  1  0  0  0  0 
 10 27  1  0  0  0  0 
 11 28  1  0  0  0  0 
 12 29  1  0  0  0  0 
 13 30  1  0  0  0  0 
 14 31  1  0  0  0  0 
 14 32  1  0  0  0  0 
 14 33  1  0  0  0  0 
 15 34  1  0  0  0  0 
 16 35  1  0  0  0  0 
 17 36  1  0  0  0  0 
 17 37  1  0  0  0  0 
 17 38  1  0  0  0  0 
 18 39  1  0  0  0  0 
 19 40  1  0  0  0  0 
M  END
> <cdk:Title>
atomoxetine

> <Conformer>
1

> <SuperDrugID>
SD000212

$$$$
