valsartan
  CDK     0628171801

 61 63  0  0  0  0  0  0  0  0999 V2000
   -0.2549    3.5403   -0.7605 C   0  0  2  0  0  0  0  0  0  0  0  0
   -1.0498    3.7987   -1.9587 N   0  0  0  0  0  0  0  0  0  0  0  0
    1.1910    3.2879   -1.0089 C   0  0  0  0  0  0  0  0  0  0  0  0
   -1.4454    5.1979   -2.1979 C   0  0  1  0  0  0  0  0  0  0  0  0
   -1.4735    2.7432   -2.7783 C   0  0  0  0  0  0  0  0  0  0  0  0
    2.0027    4.2633   -1.6324 C   0  0  0  0  0  0  0  0  0  0  0  0
    1.7988    2.0898   -0.5700 C   0  0  0  0  0  0  0  0  0  0  0  0
   -1.5119    5.7435   -3.6783 C   0  0  2  0  0  0  0  0  0  0  0  0
   -2.6937    5.4515   -1.4328 C   0  0  0  0  0  0  0  0  0  0  0  0
   -1.0407    1.3156   -2.7091 C   0  0  1  0  0  0  0  0  0  0  0  0
   -2.3102    2.9440   -3.6895 O   0  0  0  0  0  0  0  0  0  0  0  0
    3.3795    4.0473   -1.8168 C   0  0  0  0  0  0  0  0  0  0  0  0
    3.1715    1.8640   -0.7615 C   0  0  0  0  0  0  0  0  0  0  0  0
   -0.2334    5.4049   -4.5005 C   0  0  0  0  0  0  0  0  0  0  0  0
   -1.7553    7.2823   -3.7400 C   0  0  0  0  0  0  0  0  0  0  0  0
   -2.6924    6.3128   -0.3860 O   0  0  0  0  0  0  0  0  0  0  0  0
   -3.7670    4.8813   -1.7278 O   0  0  0  0  0  0  0  0  0  0  0  0
   -0.1063    0.9270   -3.8913 C   0  0  1  0  0  0  0  0  0  0  0  0
    3.9762    2.8447   -1.3796 C   0  0  0  0  0  0  0  0  0  0  0  0
    0.5654   -0.4637   -3.7149 C   0  0  1  0  0  0  0  0  0  0  0  0
    5.3702    2.6369   -1.5054 C   0  0  0  0  0  0  0  0  0  0  0  0
    1.3038   -0.9490   -4.9839 C   0  0  0  0  0  0  0  0  0  0  0  0
    5.9965    2.1535   -2.6939 C   0  0  0  0  0  0  0  0  0  0  0  0
    6.1531    2.9072   -0.3562 C   0  0  0  0  0  0  0  0  0  0  0  0
    7.3996    1.9433   -2.6700 C   0  0  0  0  0  0  0  0  0  0  0  0
    5.2982    1.8734   -3.9048 C   0  0  0  0  0  0  0  0  0  0  0  0
    7.5388    2.6863   -0.3601 C   0  0  0  0  0  0  0  0  0  0  0  0
    8.1609    2.2010   -1.5176 C   0  0  0  0  0  0  0  0  0  0  0  0
    5.7583    1.1657   -4.9434 N   0  0  0  0  0  0  0  0  0  0  0  0
    4.0652    2.2586   -4.2685 N   0  0  0  0  0  0  0  0  0  0  0  0
    4.8723    1.1404   -5.8771 N   0  0  0  0  0  0  0  0  0  0  0  0
    3.8455    1.8079   -5.4614 N   0  0  0  0  0  0  0  0  0  0  0  0
   -0.7196    2.7274   -0.1965 H   0  0  0  0  0  0  0  0  0  0  0  0
   -0.2931    4.3801   -0.0614 H   0  0  0  0  0  0  0  0  0  0  0  0
   -0.6824    5.8395   -1.7450 H   0  0  0  0  0  0  0  0  0  0  0  0
    1.6053    5.1497   -1.9403 H   0  0  0  0  0  0  0  0  0  0  0  0
    1.2465    1.3730   -0.0936 H   0  0  0  0  0  0  0  0  0  0  0  0
   -2.3616    5.2929   -4.1935 H   0  0  0  0  0  0  0  0  0  0  0  0
   -0.5339    1.0890   -1.7761 H   0  0  0  0  0  0  0  0  0  0  0  0
   -1.9284    0.6756   -2.7340 H   0  0  0  0  0  0  0  0  0  0  0  0
    3.9446    4.7769   -2.2600 H   0  0  0  0  0  0  0  0  0  0  0  0
    3.5789    0.9853   -0.4346 H   0  0  0  0  0  0  0  0  0  0  0  0
   -0.3148    5.7972   -5.5158 H   0  0  0  0  0  0  0  0  0  0  0  0
    0.6526    5.8425   -4.0386 H   0  0  0  0  0  0  0  0  0  0  0  0
   -0.0841    4.3284   -4.5799 H   0  0  0  0  0  0  0  0  0  0  0  0
   -1.9315    7.5722   -4.8223 H   0  0  0  0  0  0  0  0  0  0  0  0
   -0.9235    7.8114   -3.1789 H   0  0  0  0  0  0  0  0  0  0  0  0
   -2.6831    7.5206   -3.2191 H   0  0  0  0  0  0  0  0  0  0  0  0
   -3.5157    6.4869    0.1138 H   0  0  0  0  0  0  0  0  0  0  0  0
   -0.6915    0.9261   -4.8137 H   0  0  0  0  0  0  0  0  0  0  0  0
    0.6821    1.6770   -3.9981 H   0  0  0  0  0  0  0  0  0  0  0  0
    1.2857   -0.4130   -2.8940 H   0  0  0  0  0  0  0  0  0  0  0  0
   -0.1932   -1.2087   -3.4600 H   0  0  0  0  0  0  0  0  0  0  0  0
    1.8097   -1.8957   -4.7855 H   0  0  0  0  0  0  0  0  0  0  0  0
    0.5976   -1.1006   -5.8029 H   0  0  0  0  0  0  0  0  0  0  0  0
    2.0502   -0.2211   -5.2963 H   0  0  0  0  0  0  0  0  0  0  0  0
    5.7202    3.2647    0.5011 H   0  0  0  0  0  0  0  0  0  0  0  0
    7.8955    1.6026   -3.4968 H   0  0  0  0  0  0  0  0  0  0  0  0
    8.0916    2.8769    0.4794 H   0  0  0  0  0  0  0  0  0  0  0  0
    9.1695    2.0339   -1.5220 H   0  0  0  0  0  0  0  0  0  0  0  0
    6.6271    0.7383   -4.9911 H   0  0  0  0  0  0  0  0  0  0  0  0
  1  2  1  0  0  0  0 
  1  3  1  0  0  0  0 
  4  2  1  0  0  0  0 
  2  5  1  0  0  0  0 
  3  6  2  0  0  0  0 
  3  7  1  0  0  0  0 
  4  8  1  0  0  0  0 
  4  9  1  0  0  0  0 
  5 10  1  0  0  0  0 
  5 11  2  0  0  0  0 
  6 12  1  0  0  0  0 
  7 13  2  0  0  0  0 
  8 14  1  0  0  0  0 
  8 15  1  0  0  0  0 
  9 16  1  0  0  0  0 
  9 17  2  0  0  0  0 
 10 18  1  0  0  0  0 
 12 19  2  0  0  0  0 
 13 19  1  0  0  0  0 
 18 20  1  0  0  0  0 
 19 21  1  0  0  0  0 
 20 22  1  0  0  0  0 
 21 23  2  0  0  0  0 
 21 24  1  0  0  0  0 
 23 25  1  0  0  0  0 
 23 26  1  0  0  0  0 
 24 27  2  0  0  0  0 
 25 28  2  0  0  0  0 
 26 29  1  0  0  0  0 
 26 30  2  0  0  0  0 
 27 28  1  0  0  0  0 
 29 31  1  0  0  0  0 
 30 32  1  0  0  0  0 
 31 32  2  0  0  0  0 
 33  1  1  0  0  0  0 
 34  1  1  0  0  0  0 
  4 35  1  0  0  0  0 
 36  6  1  0  0  0  0 
 37  7  1  0  0  0  0 
 38  8  1  0  0  0  0 
 39 10  1  0  0  0  0 
 40 10  1  0  0  0  0 
 41 12  1  0  0  0  0 
 42 13  1  0  0  0  0 
 43 14  1  0  0  0  0 
 44 14  1  0  0  0  0 
 45 14  1  0  0  0  0 
 46 15  1  0  0  0  0 
 47 15  1  0  0  0  0 
 48 15  1  0  0  0  0 
 49 16  1  0  0  0  0 
 50 18  1  0  0  0  0 
 51 18  1  0  0  0  0 
 52 20  1  0  0  0  0 
 53 20  1  0  0  0  0 
 54 22  1  0  0  0  0 
 55 22  1  0  0  0  0 
 56 22  1  0  0  0  0 
 57 24  1  0  0  0  0 
 58 25  1  0  0  0  0 
 59 27  1  0  0  0  0 
 60 28  1  0  0  0  0 
 61 29  1  0  0  0  0 
M  END
> <cdk:Title>
valsartan

> <Conformer>
1

> <SuperDrugID>
SD002531

$$$$
