rupatadine
  CDK     0628171801

 56 60  0  0  0  0  0  0  0  0999 V2000
    1.5921   -0.2736   -0.6927 Cl  0  0  0  0  0  0  0  0  0  0  0  0
   -0.0995   -0.1765   -0.6291 C   0  0  0  0  0  0  0  0  0  0  0  0
   -0.8522   -1.2531   -0.1211 C   0  0  0  0  0  0  0  0  0  0  0  0
   -0.7585    0.9863   -1.0701 C   0  0  0  0  0  0  0  0  0  0  0  0
   -2.2658   -1.1919   -0.0727 C   0  0  0  0  0  0  0  0  0  0  0  0
   -2.1602    1.0767   -1.0028 C   0  0  0  0  0  0  0  0  0  0  0  0
   -2.9266   -0.0188   -0.5344 C   0  0  0  0  0  0  0  0  0  0  0  0
   -3.0617   -2.3348    0.4634 C   0  0  2  0  0  0  0  0  0  0  0  0
   -4.3230    0.0600   -0.5164 C   0  0  0  0  0  0  0  0  0  0  0  0
   -3.7889   -1.9688    1.7874 C   0  0  1  0  0  0  0  0  0  0  0  0
   -4.8445    0.1952    0.7756 C   0  0  0  0  0  0  0  0  0  0  0  0
   -5.0842    0.0142   -1.6523 C   0  0  0  0  0  0  0  0  0  0  0  0
   -4.6235   -0.7240    1.8491 C   0  0  0  0  0  0  0  0  0  0  0  0
   -5.5819    1.3179    1.0090 N   0  0  0  0  0  0  0  0  0  0  0  0
   -6.5594    0.0732   -1.6349 C   0  0  2  0  0  0  0  0  0  0  0  0
   -4.5139   -0.0980   -3.0153 C   0  0  1  0  0  0  0  0  0  0  0  0
   -5.2300   -0.4272    3.0963 C   0  0  0  0  0  0  0  0  0  0  0  0
   -6.1517    1.6171    2.1997 C   0  0  0  0  0  0  0  0  0  0  0  0
   -7.2239   -1.0145   -2.5148 C   0  0  2  0  0  0  0  0  0  0  0  0
   -5.2088   -1.1757   -3.8909 C   0  0  1  0  0  0  0  0  0  0  0  0
   -5.9947    0.7370    3.2795 C   0  0  0  0  0  0  0  0  0  0  0  0
   -6.6924   -0.9867   -3.9130 N   0  0  1  0  0  0  0  0  0  0  0  0
   -7.3841   -1.9119   -4.8710 C   0  0  2  0  0  0  0  0  0  0  0  0
   -8.8412   -1.6311   -5.0102 C   0  0  0  0  0  0  0  0  0  0  0  0
   -9.8041   -2.3342   -4.2466 C   0  0  0  0  0  0  0  0  0  0  0  0
   -9.3072   -0.6106   -5.8677 C   0  0  0  0  0  0  0  0  0  0  0  0
  -11.1738   -1.9868   -4.2921 C   0  0  0  0  0  0  0  0  0  0  0  0
  -10.6293   -0.3155   -5.9299 N   0  0  0  0  0  0  0  0  0  0  0  0
  -12.1572   -2.6627   -3.4116 C   0  0  0  0  0  0  0  0  0  0  0  0
  -11.5581   -0.9570   -5.1788 C   0  0  0  0  0  0  0  0  0  0  0  0
   -0.3656   -2.0902    0.2128 H   0  0  0  0  0  0  0  0  0  0  0  0
   -0.2218    1.7768   -1.4368 H   0  0  0  0  0  0  0  0  0  0  0  0
   -2.6191    1.9458   -1.3017 H   0  0  0  0  0  0  0  0  0  0  0  0
   -2.4184   -3.1989    0.6586 H   0  0  0  0  0  0  0  0  0  0  0  0
   -3.7954   -2.6541   -0.2836 H   0  0  0  0  0  0  0  0  0  0  0  0
   -4.4220   -2.8197    2.0586 H   0  0  0  0  0  0  0  0  0  0  0  0
   -3.0198   -1.8812    2.5606 H   0  0  0  0  0  0  0  0  0  0  0  0
   -6.8693    1.0561   -2.0018 H   0  0  0  0  0  0  0  0  0  0  0  0
   -6.9889   -0.0546   -0.6400 H   0  0  0  0  0  0  0  0  0  0  0  0
   -4.6215    0.8707   -3.5132 H   0  0  0  0  0  0  0  0  0  0  0  0
   -3.4521   -0.3503   -3.0188 H   0  0  0  0  0  0  0  0  0  0  0  0
   -5.1118   -1.0595    3.8939 H   0  0  0  0  0  0  0  0  0  0  0  0
   -6.6926    2.4769    2.3024 H   0  0  0  0  0  0  0  0  0  0  0  0
   -8.2948   -0.8064   -2.5116 H   0  0  0  0  0  0  0  0  0  0  0  0
   -7.0721   -2.0016   -2.0645 H   0  0  0  0  0  0  0  0  0  0  0  0
   -4.8053   -1.1015   -4.9057 H   0  0  0  0  0  0  0  0  0  0  0  0
   -4.9553   -2.1701   -3.5079 H   0  0  0  0  0  0  0  0  0  0  0  0
   -6.4223    0.9441    4.1853 H   0  0  0  0  0  0  0  0  0  0  0  0
   -7.2251   -2.9503   -4.5656 H   0  0  0  0  0  0  0  0  0  0  0  0
   -6.9287   -1.8045   -5.8602 H   0  0  0  0  0  0  0  0  0  0  0  0
   -9.5004   -3.0890   -3.6256 H   0  0  0  0  0  0  0  0  0  0  0  0
   -8.6581   -0.0777   -6.4486 H   0  0  0  0  0  0  0  0  0  0  0  0
  -11.9095   -2.4633   -2.3668 H   0  0  0  0  0  0  0  0  0  0  0  0
  -13.1743   -2.3061   -3.5889 H   0  0  0  0  0  0  0  0  0  0  0  0
  -12.1380   -3.7413   -3.5794 H   0  0  0  0  0  0  0  0  0  0  0  0
  -12.5353   -0.6718   -5.2616 H   0  0  0  0  0  0  0  0  0  0  0  0
  1  2  1  0  0  0  0 
  2  3  2  0  0  0  0 
  2  4  1  0  0  0  0 
  3  5  1  0  0  0  0 
  4  6  2  0  0  0  0 
  5  7  2  0  0  0  0 
  5  8  1  0  0  0  0 
  6  7  1  0  0  0  0 
  7  9  1  0  0  0  0 
  8 10  1  0  0  0  0 
  9 11  1  0  0  0  0 
  9 12  2  0  0  0  0 
 10 13  1  0  0  0  0 
 11 13  2  0  0  0  0 
 11 14  1  0  0  0  0 
 12 15  1  0  0  0  0 
 12 16  1  0  0  0  0 
 13 17  1  0  0  0  0 
 14 18  2  0  0  0  0 
 15 19  1  0  0  0  0 
 16 20  1  0  0  0  0 
 17 21  2  0  0  0  0 
 18 21  1  0  0  0  0 
 19 22  1  0  0  0  0 
 20 22  1  0  0  0  0 
 22 23  1  0  0  0  0 
 23 24  1  0  0  0  0 
 24 25  2  0  0  0  0 
 24 26  1  0  0  0  0 
 25 27  1  0  0  0  0 
 26 28  2  0  0  0  0 
 27 29  1  0  0  0  0 
 27 30  2  0  0  0  0 
 28 30  1  0  0  0  0 
  3 31  1  0  0  0  0 
  4 32  1  0  0  0  0 
  6 33  1  0  0  0  0 
  8 34  1  0  0  0  0 
  8 35  1  0  0  0  0 
 10 36  1  0  0  0  0 
 10 37  1  0  0  0  0 
 15 38  1  0  0  0  0 
 15 39  1  0  0  0  0 
 16 40  1  0  0  0  0 
 16 41  1  0  0  0  0 
 17 42  1  0  0  0  0 
 18 43  1  0  0  0  0 
 19 44  1  0  0  0  0 
 19 45  1  0  0  0  0 
 20 46  1  0  0  0  0 
 20 47  1  0  0  0  0 
 21 48  1  0  0  0  0 
 23 49  1  0  0  0  0 
 23 50  1  0  0  0  0 
 25 51  1  0  0  0  0 
 26 52  1  0  0  0  0 
 29 53  1  0  0  0  0 
 29 54  1  0  0  0  0 
 29 55  1  0  0  0  0 
 30 56  1  0  0  0  0 
M  END
> <cdk:Title>
rupatadine

> <Conformer>
1

> <SuperDrugID>
SD002172

$$$$
