acetylcholine
  CDK     0628171802

 26 25  0  0  0  0  0  0  0  0999 V2000
    2.6654    1.1316    0.3619 C   0  0  0  0  0  0  0  0  0  0  0  0
    1.4551    0.6814    1.0600 C   0  0  0  0  0  0  0  0  0  0  0  0
    1.0031    1.3365    2.0272 O   0  0  0  0  0  0  0  0  0  0  0  0
    0.8604   -0.4714    0.6386 O   0  0  0  0  0  0  0  0  0  0  0  0
   -0.3088   -1.1026    1.1783 C   0  0  1  0  0  0  0  0  0  0  0  0
   -1.6204   -0.3174    0.8699 C   0  0  1  0  0  0  0  0  0  0  0  0
   -2.9351   -0.8740    1.4035 N   0  0  2  0  0  0  0  0  0  0  0  0
   -4.0691    0.0063    0.9213 C   0  0  0  0  0  0  0  0  0  0  0  0
   -2.9493   -0.8675    2.9137 C   0  0  0  0  0  0  0  0  0  0  0  0
   -3.1866   -2.2759    0.8975 C   0  0  0  0  0  0  0  0  0  0  0  0
    3.4515    0.3822    0.4699 H   0  0  0  0  0  0  0  0  0  0  0  0
    2.4459    1.2657   -0.6982 H   0  0  0  0  0  0  0  0  0  0  0  0
    3.0254    2.0785    0.7676 H   0  0  0  0  0  0  0  0  0  0  0  0
   -0.3609   -2.0877    0.7128 H   0  0  0  0  0  0  0  0  0  0  0  0
   -0.1643   -1.2399    2.2517 H   0  0  0  0  0  0  0  0  0  0  0  0
   -1.4878    0.7041    1.2388 H   0  0  0  0  0  0  0  0  0  0  0  0
   -1.6744   -0.2384   -0.2207 H   0  0  0  0  0  0  0  0  0  0  0  0
   -5.0387   -0.3439    1.2893 H   0  0  0  0  0  0  0  0  0  0  0  0
   -3.9486    1.0386    1.2610 H   0  0  0  0  0  0  0  0  0  0  0  0
   -4.1265    0.0264   -0.1708 H   0  0  0  0  0  0  0  0  0  0  0  0
   -2.1960   -1.5377    3.3302 H   0  0  0  0  0  0  0  0  0  0  0  0
   -3.9146   -1.1961    3.3084 H   0  0  0  0  0  0  0  0  0  0  0  0
   -2.7558    0.1348    3.3066 H   0  0  0  0  0  0  0  0  0  0  0  0
   -2.4429   -2.9833    1.2713 H   0  0  0  0  0  0  0  0  0  0  0  0
   -3.1621   -2.3142   -0.1964 H   0  0  0  0  0  0  0  0  0  0  0  0
   -4.1630   -2.6512    1.2191 H   0  0  0  0  0  0  0  0  0  0  0  0
  1  2  1  0  0  0  0 
  2  3  2  0  0  0  0 
  2  4  1  0  0  0  0 
  4  5  1  0  0  0  0 
  5  6  1  0  0  0  0 
  6  7  1  0  0  0  0 
  7  8  1  0  0  0  0 
  7  9  1  0  0  0  0 
  7 10  1  0  0  0  0 
  1 11  1  0  0  0  0 
  1 12  1  0  0  0  0 
  1 13  1  0  0  0  0 
  5 14  1  0  0  0  0 
  5 15  1  0  0  0  0 
  6 16  1  0  0  0  0 
  6 17  1  0  0  0  0 
  8 18  1  0  0  0  0 
  8 19  1  0  0  0  0 
  8 20  1  0  0  0  0 
  9 21  1  0  0  0  0 
  9 22  1  0  0  0  0 
  9 23  1  0  0  0  0 
 10 24  1  0  0  0  0 
 10 25  1  0  0  0  0 
 10 26  1  0  0  0  0 
M  CHG  1   7   1
M  END
> <cdk:Title>
acetylcholine

> <Conformer>
1

> <SuperDrugID>
SD000042

$$$$
