etretinate
  CDK     0628171801

 56 56  0  0  0  0  0  0  0  0999 V2000
   -6.2689    7.4869   -3.4597 C   0  0  0  0  0  0  0  0  0  0  0  0
   -5.0405    7.3173   -2.9412 C   0  0  0  0  0  0  0  0  0  0  0  0
   -6.7748    8.7174   -3.8886 C   0  0  0  0  0  0  0  0  0  0  0  0
   -4.5353    6.0966   -2.6121 C   0  0  0  0  0  0  0  0  0  0  0  0
   -7.1448    8.8904   -5.2646 C   0  0  0  0  0  0  0  0  0  0  0  0
   -6.9475    9.7857   -2.9589 C   0  0  0  0  0  0  0  0  0  0  0  0
   -5.0637    5.3877   -1.5866 C   0  0  0  0  0  0  0  0  0  0  0  0
   -3.4098    5.6049   -3.4107 C   0  0  0  0  0  0  0  0  0  0  0  0
   -6.8613    7.7823   -6.2397 C   0  0  0  0  0  0  0  0  0  0  0  0
   -7.7560   10.1160   -5.6826 C   0  0  0  0  0  0  0  0  0  0  0  0
   -6.5723    9.6999   -1.5162 C   0  0  0  0  0  0  0  0  0  0  0  0
   -7.5071   10.9950   -3.4122 C   0  0  0  0  0  0  0  0  0  0  0  0
   -4.6599    4.1414   -1.2453 C   0  0  0  0  0  0  0  0  0  0  0  0
   -8.2112   10.3327   -7.0891 C   0  0  0  0  0  0  0  0  0  0  0  0
   -7.9413   11.1545   -4.7355 C   0  0  0  0  0  0  0  0  0  0  0  0
   -4.2022    3.8097   -0.0261 C   0  0  0  0  0  0  0  0  0  0  0  0
   -8.5314   12.3503   -5.0634 O   0  0  0  0  0  0  0  0  0  0  0  0
   -3.7120    2.5619    0.2247 C   0  0  0  0  0  0  0  0  0  0  0  0
   -9.9432   12.3718   -4.7736 C   0  0  0  0  0  0  0  0  0  0  0  0
   -2.4495    2.2833   -0.1823 C   0  0  0  0  0  0  0  0  0  0  0  0
   -4.5904    1.6043    0.8957 C   0  0  0  0  0  0  0  0  0  0  0  0
   -1.7441    1.0940   -0.0600 C   0  0  0  0  0  0  0  0  0  0  0  0
   -0.4888    1.0627   -0.5959 O   0  0  0  0  0  0  0  0  0  0  0  0
   -2.1946    0.0694    0.5053 O   0  0  0  0  0  0  0  0  0  0  0  0
    0.4441   -0.0227   -0.5772 C   0  0  1  0  0  0  0  0  0  0  0  0
    1.7071    0.4042   -1.3467 C   0  0  0  0  0  0  0  0  0  0  0  0
   -6.8521    6.6889   -3.5876 H   0  0  0  0  0  0  0  0  0  0  0  0
   -4.4464    8.1055   -2.8313 H   0  0  0  0  0  0  0  0  0  0  0  0
   -5.7995    5.7836   -1.0441 H   0  0  0  0  0  0  0  0  0  0  0  0
   -2.5704    5.3565   -2.7556 H   0  0  0  0  0  0  0  0  0  0  0  0
   -3.0477    6.3324   -4.1448 H   0  0  0  0  0  0  0  0  0  0  0  0
   -3.7103    4.7086   -3.9549 H   0  0  0  0  0  0  0  0  0  0  0  0
   -7.4673    6.9099   -5.9914 H   0  0  0  0  0  0  0  0  0  0  0  0
   -5.8048    7.5077   -6.1873 H   0  0  0  0  0  0  0  0  0  0  0  0
   -7.0619    8.0220   -7.2809 H   0  0  0  0  0  0  0  0  0  0  0  0
   -5.5043    9.8987   -1.4063 H   0  0  0  0  0  0  0  0  0  0  0  0
   -7.1159   10.4234   -0.9058 H   0  0  0  0  0  0  0  0  0  0  0  0
   -6.7940    8.7145   -1.1039 H   0  0  0  0  0  0  0  0  0  0  0  0
   -7.6199   11.7799   -2.7669 H   0  0  0  0  0  0  0  0  0  0  0  0
   -4.6831    3.4453   -1.9587 H   0  0  0  0  0  0  0  0  0  0  0  0
   -8.9551    9.5789   -7.3574 H   0  0  0  0  0  0  0  0  0  0  0  0
   -8.6649   11.3090   -7.2625 H   0  0  0  0  0  0  0  0  0  0  0  0
   -7.3579   10.2595   -7.7638 H   0  0  0  0  0  0  0  0  0  0  0  0
   -4.1847    4.4792    0.7102 H   0  0  0  0  0  0  0  0  0  0  0  0
  -10.3459   13.3315   -5.0946 H   0  0  0  0  0  0  0  0  0  0  0  0
  -10.4779   11.5843   -5.3112 H   0  0  0  0  0  0  0  0  0  0  0  0
  -10.1296   12.2689   -3.7019 H   0  0  0  0  0  0  0  0  0  0  0  0
   -1.9389    3.0130   -0.6369 H   0  0  0  0  0  0  0  0  0  0  0  0
   -4.7654    0.7407    0.2501 H   0  0  0  0  0  0  0  0  0  0  0  0
   -5.5693    2.0249    1.1471 H   0  0  0  0  0  0  0  0  0  0  0  0
   -4.1319    1.2673    1.8263 H   0  0  0  0  0  0  0  0  0  0  0  0
    0.7036   -0.2653    0.4557 H   0  0  0  0  0  0  0  0  0  0  0  0
    0.0025   -0.9041   -1.0490 H   0  0  0  0  0  0  0  0  0  0  0  0
    2.4507   -0.3944   -1.3279 H   0  0  0  0  0  0  0  0  0  0  0  0
    1.4538    0.6266   -2.3847 H   0  0  0  0  0  0  0  0  0  0  0  0
    2.1382    1.2984   -0.8932 H   0  0  0  0  0  0  0  0  0  0  0  0
  1  2  2  0  0  0  0 
  1  3  1  0  0  0  0 
  2  4  1  0  0  0  0 
  3  5  2  0  0  0  0 
  3  6  1  0  0  0  0 
  4  7  2  0  0  0  0 
  4  8  1  0  0  0  0 
  5  9  1  0  0  0  0 
  5 10  1  0  0  0  0 
  6 11  1  0  0  0  0 
  6 12  2  0  0  0  0 
  7 13  1  0  0  0  0 
 10 14  1  0  0  0  0 
 10 15  2  0  0  0  0 
 12 15  1  0  0  0  0 
 13 16  2  0  0  0  0 
 15 17  1  0  0  0  0 
 16 18  1  0  0  0  0 
 17 19  1  0  0  0  0 
 18 20  2  0  0  0  0 
 18 21  1  0  0  0  0 
 20 22  1  0  0  0  0 
 22 23  1  0  0  0  0 
 22 24  2  0  0  0  0 
 23 25  1  0  0  0  0 
 25 26  1  0  0  0  0 
  1 27  1  0  0  0  0 
  2 28  1  0  0  0  0 
  7 29  1  0  0  0  0 
  8 30  1  0  0  0  0 
  8 31  1  0  0  0  0 
  8 32  1  0  0  0  0 
  9 33  1  0  0  0  0 
  9 34  1  0  0  0  0 
  9 35  1  0  0  0  0 
 11 36  1  0  0  0  0 
 11 37  1  0  0  0  0 
 11 38  1  0  0  0  0 
 12 39  1  0  0  0  0 
 13 40  1  0  0  0  0 
 14 41  1  0  0  0  0 
 14 42  1  0  0  0  0 
 14 43  1  0  0  0  0 
 16 44  1  0  0  0  0 
 19 45  1  0  0  0  0 
 19 46  1  0  0  0  0 
 19 47  1  0  0  0  0 
 20 48  1  0  0  0  0 
 21 49  1  0  0  0  0 
 21 50  1  0  0  0  0 
 21 51  1  0  0  0  0 
 25 52  1  0  0  0  0 
 25 53  1  0  0  0  0 
 26 54  1  0  0  0  0 
 26 55  1  0  0  0  0 
 26 56  1  0  0  0  0 
M  END
> <cdk:Title>
etretinate

> <Conformer>
1

> <SuperDrugID>
SD000997

$$$$
