trimethidinium
  CDK     0628171801

 55 56  0  0  0  0  0  0  0  0999 V2000
    2.6916   -1.0130    0.6822 C   0  0  2  0  0  0  0  0  0  0  0  0
    3.5670    0.2487    0.4704 C   0  0  1  0  0  0  0  0  0  0  0  0
    1.2197   -0.5460    0.4113 C   0  0  2  0  0  0  0  0  0  0  0  0
    2.5424    1.3721    0.1485 C   0  0  2  0  0  0  0  0  0  0  0  0
    0.5787   -0.0037    1.7565 C   0  0  1  0  0  0  0  0  0  0  0  0
    2.0185    2.0674    1.4584 C   0  0  2  0  0  0  0  0  0  0  0  0
    1.2428    1.1917    2.4662 N   0  0  2  0  0  0  0  0  0  0  0  0
    0.3515   -1.7332   -0.1252 C   0  0  0  0  0  0  0  0  0  0  0  0
    1.4052    0.6262   -0.6285 C   0  0  2  0  0  0  0  0  0  0  0  0
    0.1327    1.5071   -0.9132 C   0  0  0  0  0  0  0  0  0  0  0  0
    1.8819    0.1631   -2.0638 C   0  0  0  0  0  0  0  0  0  0  0  0
    2.1903    0.7857    3.6093 C   0  0  1  0  0  0  0  0  0  0  0  0
    1.7124   -0.0734    4.8301 C   0  0  2  0  0  0  0  0  0  0  0  0
    0.1577    2.0417    3.1075 C   0  0  0  0  0  0  0  0  0  0  0  0
    2.9023   -0.4840    5.7636 C   0  0  2  0  0  0  0  0  0  0  0  0
    2.6674   -1.5126    6.8641 N   0  0  2  0  0  0  0  0  0  0  0  0
    3.9940   -1.7989    7.5390 C   0  0  0  0  0  0  0  0  0  0  0  0
    2.1356   -2.8127    6.3044 C   0  0  0  0  0  0  0  0  0  0  0  0
    1.7059   -0.9849    7.9013 C   0  0  0  0  0  0  0  0  0  0  0  0
    2.8164   -1.4424    1.6787 H   0  0  0  0  0  0  0  0  0  0  0  0
    3.0042   -1.7857   -0.0258 H   0  0  0  0  0  0  0  0  0  0  0  0
    4.1964    0.4809    1.3297 H   0  0  0  0  0  0  0  0  0  0  0  0
    4.2469    0.1030   -0.3740 H   0  0  0  0  0  0  0  0  0  0  0  0
    3.0163    2.1308   -0.4849 H   0  0  0  0  0  0  0  0  0  0  0  0
   -0.4633    0.2319    1.5198 H   0  0  0  0  0  0  0  0  0  0  0  0
    0.4927   -0.8503    2.4326 H   0  0  0  0  0  0  0  0  0  0  0  0
    1.4172    2.9150    1.1200 H   0  0  0  0  0  0  0  0  0  0  0  0
    2.8819    2.5495    1.9275 H   0  0  0  0  0  0  0  0  0  0  0  0
    0.7830   -2.1803   -1.0206 H   0  0  0  0  0  0  0  0  0  0  0  0
    0.2728   -2.5209    0.6259 H   0  0  0  0  0  0  0  0  0  0  0  0
   -0.6559   -1.3953   -0.3710 H   0  0  0  0  0  0  0  0  0  0  0  0
    0.3912    2.3508   -1.5573 H   0  0  0  0  0  0  0  0  0  0  0  0
   -0.6381    0.9204   -1.4146 H   0  0  0  0  0  0  0  0  0  0  0  0
   -0.3194    1.9191   -0.0185 H   0  0  0  0  0  0  0  0  0  0  0  0
    2.2216    1.0209   -2.6508 H   0  0  0  0  0  0  0  0  0  0  0  0
    1.0688   -0.3146   -2.6153 H   0  0  0  0  0  0  0  0  0  0  0  0
    2.7010   -0.5540   -2.0361 H   0  0  0  0  0  0  0  0  0  0  0  0
    3.0338    0.2518    3.1931 H   0  0  0  0  0  0  0  0  0  0  0  0
    2.6144    1.6909    4.0556 H   0  0  0  0  0  0  0  0  0  0  0  0
    1.2298   -0.9766    4.4696 H   0  0  0  0  0  0  0  0  0  0  0  0
    0.9808    0.4892    5.4159 H   0  0  0  0  0  0  0  0  0  0  0  0
   -0.5174    2.4706    2.3621 H   0  0  0  0  0  0  0  0  0  0  0  0
   -0.4694    1.4608    3.7876 H   0  0  0  0  0  0  0  0  0  0  0  0
    0.5752    2.8814    3.6701 H   0  0  0  0  0  0  0  0  0  0  0  0
    3.2830    0.4427    6.2081 H   0  0  0  0  0  0  0  0  0  0  0  0
    3.6974   -0.8621    5.1121 H   0  0  0  0  0  0  0  0  0  0  0  0
    4.4434   -0.8904    7.9494 H   0  0  0  0  0  0  0  0  0  0  0  0
    4.7140   -2.2320    6.8379 H   0  0  0  0  0  0  0  0  0  0  0  0
    3.8816   -2.5081    8.3649 H   0  0  0  0  0  0  0  0  0  0  0  0
    1.1047   -2.7152    5.9575 H   0  0  0  0  0  0  0  0  0  0  0  0
    2.1355   -3.6051    7.0594 H   0  0  0  0  0  0  0  0  0  0  0  0
    2.7395   -3.1609    5.4615 H   0  0  0  0  0  0  0  0  0  0  0  0
    1.5713   -1.7026    8.7178 H   0  0  0  0  0  0  0  0  0  0  0  0
    2.0654   -0.0495    8.3397 H   0  0  0  0  0  0  0  0  0  0  0  0
    0.7203   -0.7935    7.4701 H   0  0  0  0  0  0  0  0  0  0  0  0
  1  2  1  0  0  0  0 
  1  3  1  0  0  0  0 
  2  4  1  0  0  0  0 
  3  5  1  0  0  0  0 
  4  6  1  0  0  0  0 
  5  7  1  0  0  0  0 
  7  6  1  0  0  0  0 
  3  8  1  0  0  0  0 
  3  9  1  0  0  0  0 
  9  4  1  0  0  0  0 
  9 10  1  0  0  0  0 
  9 11  1  0  0  0  0 
  7 12  1  0  0  0  0 
 12 13  1  0  0  0  0 
  7 14  1  0  0  0  0 
 13 15  1  0  0  0  0 
 15 16  1  0  0  0  0 
 16 17  1  0  0  0  0 
 16 18  1  0  0  0  0 
 16 19  1  0  0  0  0 
  1 20  1  0  0  0  0 
  1 21  1  0  0  0  0 
  2 22  1  0  0  0  0 
  2 23  1  0  0  0  0 
  4 24  1  0  0  0  0 
  5 25  1  0  0  0  0 
  5 26  1  0  0  0  0 
  6 27  1  0  0  0  0 
  6 28  1  0  0  0  0 
  8 29  1  0  0  0  0 
  8 30  1  0  0  0  0 
  8 31  1  0  0  0  0 
 10 32  1  0  0  0  0 
 10 33  1  0  0  0  0 
 10 34  1  0  0  0  0 
 11 35  1  0  0  0  0 
 11 36  1  0  0  0  0 
 11 37  1  0  0  0  0 
 12 38  1  0  0  0  0 
 12 39  1  0  0  0  0 
 13 40  1  0  0  0  0 
 13 41  1  0  0  0  0 
 14 42  1  0  0  0  0 
 14 43  1  0  0  0  0 
 14 44  1  0  0  0  0 
 15 45  1  0  0  0  0 
 15 46  1  0  0  0  0 
 17 47  1  0  0  0  0 
 17 48  1  0  0  0  0 
 17 49  1  0  0  0  0 
 18 50  1  0  0  0  0 
 18 51  1  0  0  0  0 
 18 52  1  0  0  0  0 
 19 53  1  0  0  0  0 
 19 54  1  0  0  0  0 
 19 55  1  0  0  0  0 
M  CHG  1   7   1
M  CHG  1  16   1
M  END
> <cdk:Title>
trimethidinium

> <Conformer>
1

> <SuperDrugID>
SD003279

$$$$
