androisoxazole
  CDK     0628171801

 55 59  0  0  0  0  0  0  0  0999 V2000
    6.4007   -3.0467   -0.2008 C   0  0  0  0  0  0  0  0  0  0  0  0
    6.0872   -2.9172   -1.7393 C   0  0  1  0  0  0  0  0  0  0  0  0
    4.6438   -2.2908   -1.9833 C   0  0  2  0  0  0  0  0  0  0  0  0
    7.1528   -1.9960   -2.4806 C   0  0  1  0  0  0  0  0  0  0  0  0
    6.1910   -4.3622   -2.3825 C   0  0  1  0  0  0  0  0  0  0  0  0
    4.5566   -0.7663   -1.5674 C   0  0  2  0  0  0  0  0  0  0  0  0
    3.4477   -3.1405   -1.4158 C   0  0  1  0  0  0  0  0  0  0  0  0
    7.0680   -0.4957   -2.0769 C   0  0  1  0  0  0  0  0  0  0  0  0
    8.6258   -2.5204   -2.3850 C   0  0  2  0  0  0  0  0  0  0  0  0
    7.5887   -4.8164   -2.5590 C   0  0  0  0  0  0  0  0  0  0  0  0
    3.1193   -0.2214   -1.8549 C   0  0  1  0  0  0  0  0  0  0  0  0
    5.6473    0.0706   -2.3052 C   0  0  1  0  0  0  0  0  0  0  0  0
    2.0521   -2.4902   -1.6556 C   0  0  1  0  0  0  0  0  0  0  0  0
    8.6958   -3.9828   -2.5582 C   0  0  0  0  0  0  0  0  0  0  0  0
    8.0974   -6.0893   -2.7632 C   0  0  0  0  0  0  0  0  0  0  0  0
    1.9764   -1.0104   -1.1343 C   0  0  1  0  0  0  0  0  0  0  0  0
    2.8063    1.2575   -1.5487 C   0  0  1  0  0  0  0  0  0  0  0  0
    9.7980   -4.7344   -2.7253 N   0  0  0  0  0  0  0  0  0  0  0  0
    9.4450   -5.9889   -2.8508 O   0  0  0  0  0  0  0  0  0  0  0  0
    2.0914   -1.0294    0.4439 C   0  0  0  0  0  0  0  0  0  0  0  0
    0.7175   -0.1455   -1.5508 C   0  0  1  0  0  0  0  0  0  0  0  0
    1.2586    1.3263   -1.5358 C   0  0  2  0  0  0  0  0  0  0  0  0
    0.0723   -0.4951   -2.9287 C   0  0  0  0  0  0  0  0  0  0  0  0
   -0.3547   -0.2760   -0.6086 O   0  0  0  0  0  0  0  0  0  0  0  0
    4.4881   -2.3044   -3.0689 H   0  0  0  0  0  0  0  0  0  0  0  0
    4.7464   -0.6569   -0.4997 H   0  0  0  0  0  0  0  0  0  0  0  0
    6.9077   -2.0258   -3.5512 H   0  0  0  0  0  0  0  0  0  0  0  0
    2.9902   -0.3283   -2.9396 H   0  0  0  0  0  0  0  0  0  0  0  0
    5.7289   -3.7571    0.2804 H   0  0  0  0  0  0  0  0  0  0  0  0
    7.4123   -3.4105   -0.0276 H   0  0  0  0  0  0  0  0  0  0  0  0
    6.3058   -2.0970    0.3206 H   0  0  0  0  0  0  0  0  0  0  0  0
    5.6635   -5.0947   -1.7672 H   0  0  0  0  0  0  0  0  0  0  0  0
    5.7265   -4.3740   -3.3717 H   0  0  0  0  0  0  0  0  0  0  0  0
    3.4363   -4.1240   -1.8931 H   0  0  0  0  0  0  0  0  0  0  0  0
    3.5734   -3.3152   -0.3484 H   0  0  0  0  0  0  0  0  0  0  0  0
    7.3474   -0.3689   -1.0283 H   0  0  0  0  0  0  0  0  0  0  0  0
    7.7750    0.0845   -2.6787 H   0  0  0  0  0  0  0  0  0  0  0  0
    9.0667   -2.2658   -1.4186 H   0  0  0  0  0  0  0  0  0  0  0  0
    9.2263   -2.0466   -3.1655 H   0  0  0  0  0  0  0  0  0  0  0  0
    5.4436    0.0890   -3.3801 H   0  0  0  0  0  0  0  0  0  0  0  0
    5.6338    1.1031   -1.9489 H   0  0  0  0  0  0  0  0  0  0  0  0
    1.8699   -2.5254   -2.7312 H   0  0  0  0  0  0  0  0  0  0  0  0
    1.2793   -3.0967   -1.1770 H   0  0  0  0  0  0  0  0  0  0  0  0
    7.5580   -6.9540   -2.8298 H   0  0  0  0  0  0  0  0  0  0  0  0
    3.2153    1.5454   -0.5761 H   0  0  0  0  0  0  0  0  0  0  0  0
    3.2272    1.9153   -2.3136 H   0  0  0  0  0  0  0  0  0  0  0  0
    3.0421   -1.4236    0.7953 H   0  0  0  0  0  0  0  0  0  0  0  0
    1.3059   -1.6581    0.8698 H   0  0  0  0  0  0  0  0  0  0  0  0
    1.9812   -0.0332    0.8729 H   0  0  0  0  0  0  0  0  0  0  0  0
    0.9069    1.9053   -2.3957 H   0  0  0  0  0  0  0  0  0  0  0  0
    0.9278    1.8528   -0.6353 H   0  0  0  0  0  0  0  0  0  0  0  0
    0.7961   -0.4268   -3.7414 H   0  0  0  0  0  0  0  0  0  0  0  0
   -0.7453    0.1937   -3.1489 H   0  0  0  0  0  0  0  0  0  0  0  0
   -0.3424   -1.5044   -2.9111 H   0  0  0  0  0  0  0  0  0  0  0  0
   -1.0214    0.3893   -0.8815 H   0  0  0  0  0  0  0  0  0  0  0  0
  2  1  1  0  0  0  0 
  3  2  1  0  0  0  0 
  2  4  1  0  0  0  0 
  2  5  1  0  0  0  0 
  6  3  1  0  0  0  0 
  3  7  1  0  0  0  0 
  3 25  1  0  0  0  0 
  4  8  1  0  0  0  0 
  4  9  1  0  0  0  0 
  4 27  1  0  0  0  0 
  5 10  1  0  0  0  0 
 11  6  1  0  0  0  0 
  6 12  1  0  0  0  0 
  6 26  1  0  0  0  0 
  7 13  1  0  0  0  0 
  8 12  1  0  0  0  0 
  9 14  1  0  0  0  0 
 10 14  1  0  0  0  0 
 10 15  2  0  0  0  0 
 11 16  1  0  0  0  0 
 11 17  1  0  0  0  0 
 11 28  1  0  0  0  0 
 16 13  1  0  0  0  0 
 14 18  2  0  0  0  0 
 15 19  1  0  0  0  0 
 16 20  1  0  0  0  0 
 16 21  1  0  0  0  0 
 17 22  1  0  0  0  0 
 18 19  1  0  0  0  0 
 21 22  1  0  0  0  0 
 21 23  1  0  0  0  0 
 21 24  1  0  0  0  0 
  1 29  1  0  0  0  0 
  1 30  1  0  0  0  0 
  1 31  1  0  0  0  0 
  5 32  1  0  0  0  0 
  5 33  1  0  0  0  0 
  7 34  1  0  0  0  0 
  7 35  1  0  0  0  0 
  8 36  1  0  0  0  0 
  8 37  1  0  0  0  0 
  9 38  1  0  0  0  0 
  9 39  1  0  0  0  0 
 12 40  1  0  0  0  0 
 12 41  1  0  0  0  0 
 13 42  1  0  0  0  0 
 13 43  1  0  0  0  0 
 15 44  1  0  0  0  0 
 17 45  1  0  0  0  0 
 17 46  1  0  0  0  0 
 20 47  1  0  0  0  0 
 20 48  1  0  0  0  0 
 20 49  1  0  0  0  0 
 22 50  1  0  0  0  0 
 22 51  1  0  0  0  0 
 23 52  1  0  0  0  0 
 23 53  1  0  0  0  0 
 23 54  1  0  0  0  0 
 24 55  1  0  0  0  0 
M  END
> <cdk:Title>
androisoxazole

> <Conformer>
1

> <SuperDrugID>
SD000176

$$$$
