vismodegib
  CDK     0628171801

 41 43  0  0  0  0  0  0  0  0999 V2000
    0.0765   -0.4776   -3.0879 Cl  0  0  0  0  0  0  0  0  0  0  0  0
    1.3822    0.1106   -2.1695 C   0  0  0  0  0  0  0  0  0  0  0  0
    2.5889    0.6083   -2.7404 C   0  0  0  0  0  0  0  0  0  0  0  0
    1.2024    0.1236   -0.7722 C   0  0  0  0  0  0  0  0  0  0  0  0
    3.5555    1.1756   -1.8684 C   0  0  0  0  0  0  0  0  0  0  0  0
    2.8515    0.5275   -4.1423 C   0  0  0  0  0  0  0  0  0  0  0  0
    2.1899    0.6551    0.0711 C   0  0  0  0  0  0  0  0  0  0  0  0
    3.3752    1.1997   -0.4677 C   0  0  0  0  0  0  0  0  0  0  0  0
    3.4394    1.5771   -4.8900 C   0  0  0  0  0  0  0  0  0  0  0  0
    2.5272   -0.6184   -4.8072 N   0  0  0  0  0  0  0  0  0  0  0  0
    4.3368    1.7890    0.3076 N   0  0  0  0  0  0  0  0  0  0  0  0
    3.6495    1.4167   -6.2737 C   0  0  0  0  0  0  0  0  0  0  0  0
    2.7091   -0.8064   -6.1386 C   0  0  0  0  0  0  0  0  0  0  0  0
    4.8100    1.3581    1.5178 C   0  0  0  0  0  0  0  0  0  0  0  0
    3.2765    0.2204   -6.9106 C   0  0  0  0  0  0  0  0  0  0  0  0
    4.4574    0.2406    1.9658 O   0  0  0  0  0  0  0  0  0  0  0  0
    5.7278    2.1517    2.2679 C   0  0  0  0  0  0  0  0  0  0  0  0
    5.6662    2.2549    3.6878 C   0  0  0  0  0  0  0  0  0  0  0  0
    6.7425    2.8780    1.5952 C   0  0  0  0  0  0  0  0  0  0  0  0
    4.4640    1.5101    4.6296 Cl  0  0  0  0  0  0  0  0  0  0  0  0
    6.6086    3.0365    4.3879 C   0  0  0  0  0  0  0  0  0  0  0  0
    7.6758    3.6595    2.3020 C   0  0  0  0  0  0  0  0  0  0  0  0
    7.6152    3.7417    3.7047 C   0  0  0  0  0  0  0  0  0  0  0  0
    8.7757    4.7176    4.6260 S   0  0  1  0  0  0  0  0  0  0  0  0
    7.9481    6.2029    5.3122 C   0  0  0  0  0  0  0  0  0  0  0  0
    9.3556    3.8460    5.8426 O   0  0  0  0  0  0  0  0  0  0  0  0
   10.0056    5.1808    3.7052 O   0  0  0  0  0  0  0  0  0  0  0  0
    0.3428   -0.2440   -0.3550 H   0  0  0  0  0  0  0  0  0  0  0  0
    4.4239    1.5610   -2.2504 H   0  0  0  0  0  0  0  0  0  0  0  0
    2.0243    0.6632    1.0803 H   0  0  0  0  0  0  0  0  0  0  0  0
    3.7062    2.4581   -4.4443 H   0  0  0  0  0  0  0  0  0  0  0  0
    4.7288    2.6013   -0.0473 H   0  0  0  0  0  0  0  0  0  0  0  0
    4.0711    2.1731   -6.8186 H   0  0  0  0  0  0  0  0  0  0  0  0
    2.4287   -1.6866   -6.5720 H   0  0  0  0  0  0  0  0  0  0  0  0
    3.4144    0.1001   -7.9168 H   0  0  0  0  0  0  0  0  0  0  0  0
    6.8244    2.8396    0.5758 H   0  0  0  0  0  0  0  0  0  0  0  0
    6.5584    3.0995    5.4079 H   0  0  0  0  0  0  0  0  0  0  0  0
    8.4004    4.1637    1.7876 H   0  0  0  0  0  0  0  0  0  0  0  0
    7.6809    6.8811    4.5027 H   0  0  0  0  0  0  0  0  0  0  0  0
    8.6188    6.7159    6.0013 H   0  0  0  0  0  0  0  0  0  0  0  0
    7.0439    5.9091    5.8454 H   0  0  0  0  0  0  0  0  0  0  0  0
  1  2  1  0  0  0  0 
  2  3  2  0  0  0  0 
  2  4  1  0  0  0  0 
  3  5  1  0  0  0  0 
  3  6  1  0  0  0  0 
  4  7  2  0  0  0  0 
  5  8  2  0  0  0  0 
  6  9  2  0  0  0  0 
  6 10  1  0  0  0  0 
  7  8  1  0  0  0  0 
  8 11  1  0  0  0  0 
  9 12  1  0  0  0  0 
 10 13  2  0  0  0  0 
 11 14  1  0  0  0  0 
 12 15  2  0  0  0  0 
 13 15  1  0  0  0  0 
 14 16  2  0  0  0  0 
 14 17  1  0  0  0  0 
 17 18  2  0  0  0  0 
 17 19  1  0  0  0  0 
 18 20  1  0  0  0  0 
 18 21  1  0  0  0  0 
 19 22  2  0  0  0  0 
 21 23  2  0  0  0  0 
 22 23  1  0  0  0  0 
 23 24  1  0  0  0  0 
 24 25  1  0  0  0  0 
 24 26  2  0  0  0  0 
 24 27  2  0  0  0  0 
  4 28  1  0  0  0  0 
  5 29  1  0  0  0  0 
  7 30  1  0  0  0  0 
  9 31  1  0  0  0  0 
 11 32  1  0  0  0  0 
 12 33  1  0  0  0  0 
 13 34  1  0  0  0  0 
 15 35  1  0  0  0  0 
 19 36  1  0  0  0  0 
 21 37  1  0  0  0  0 
 22 38  1  0  0  0  0 
 25 39  1  0  0  0  0 
 25 40  1  0  0  0  0 
 25 41  1  0  0  0  0 
M  END
> <cdk:Title>
vismodegib

> <Conformer>
1

> <SuperDrugID>
SD003438

$$$$
