Iofetamine (123I)
  CDK     0628171801

 32 32  0  0  0  0  0  0  0  0999 V2000
    0.3112   -0.6726    0.4072 C   0  0  1  0  0  0  0  0  0  0  0  0
   -0.3775    0.3447    1.3717 C   0  0  2  0  0  0  0  0  0  0  0  0
    1.6865   -0.2982   -0.0314 C   0  0  0  0  0  0  0  0  0  0  0  0
    0.4918    0.5544    2.5654 N   0  0  1  0  0  0  0  0  0  0  0  0
   -1.8069   -0.1403    1.7409 C   0  0  0  0  0  0  0  0  0  0  0  0
    1.9015    0.9088   -0.7394 C   0  0  0  0  0  0  0  0  0  0  0  0
    2.8000   -1.1395    0.2168 C   0  0  0  0  0  0  0  0  0  0  0  0
    0.1312    1.6000    3.5657 C   0  0  2  0  0  0  0  0  0  0  0  0
    3.1929    1.2939   -1.1378 C   0  0  0  0  0  0  0  0  0  0  0  0
    4.0932   -0.7608   -0.1918 C   0  0  0  0  0  0  0  0  0  0  0  0
    0.1017    3.0357    2.9794 C   0  0  0  0  0  0  0  0  0  0  0  0
    1.1576    1.5306    4.7241 C   0  0  0  0  0  0  0  0  0  0  0  0
    4.2910    0.4623   -0.8573 C   0  0  0  0  0  0  0  0  0  0  0  0
    6.1800    1.0293   -1.4262 I   0  0  0  0  0  0  0  0  0  0  0  0
    0.3196   -1.6558    0.8871 H   0  0  0  0  0  0  0  0  0  0  0  0
   -0.2933   -0.7644   -0.4985 H   0  0  0  0  0  0  0  0  0  0  0  0
   -0.4853    1.2882    0.8318 H   0  0  0  0  0  0  0  0  0  0  0  0
    0.5388   -0.3388    3.0607 H   0  0  0  0  0  0  0  0  0  0  0  0
   -2.3824   -0.3532    0.8369 H   0  0  0  0  0  0  0  0  0  0  0  0
   -1.7577   -1.0467    2.3460 H   0  0  0  0  0  0  0  0  0  0  0  0
   -2.3439    0.6263    2.3007 H   0  0  0  0  0  0  0  0  0  0  0  0
    1.1178    1.5209   -0.9739 H   0  0  0  0  0  0  0  0  0  0  0  0
    2.6820   -2.0377    0.6928 H   0  0  0  0  0  0  0  0  0  0  0  0
   -0.8518    1.3771    3.9914 H   0  0  0  0  0  0  0  0  0  0  0  0
    3.3258    2.1786   -1.6328 H   0  0  0  0  0  0  0  0  0  0  0  0
    4.8879   -1.3767   -0.0041 H   0  0  0  0  0  0  0  0  0  0  0  0
   -0.6955    3.1331    2.2429 H   0  0  0  0  0  0  0  0  0  0  0  0
   -0.0873    3.7616    3.7735 H   0  0  0  0  0  0  0  0  0  0  0  0
    1.0555    3.2732    2.5040 H   0  0  0  0  0  0  0  0  0  0  0  0
    0.8857    2.2351    5.5141 H   0  0  0  0  0  0  0  0  0  0  0  0
    1.1772    0.5280    5.1547 H   0  0  0  0  0  0  0  0  0  0  0  0
    2.1591    1.7777    4.3635 H   0  0  0  0  0  0  0  0  0  0  0  0
  1  2  1  0  0  0  0 
  1  3  1  0  0  0  0 
  2  4  1  0  0  0  0 
  2  5  1  0  0  0  0 
  3  6  2  0  0  0  0 
  3  7  1  0  0  0  0 
  4  8  1  0  0  0  0 
  6  9  1  0  0  0  0 
  7 10  2  0  0  0  0 
  8 11  1  0  0  0  0 
  8 12  1  0  0  0  0 
  9 13  2  0  0  0  0 
 10 13  1  0  0  0  0 
 13 14  1  0  0  0  0 
  1 15  1  0  0  0  0 
  1 16  1  0  0  0  0 
  2 17  1  0  0  0  0 
  4 18  1  0  0  0  0 
  5 19  1  0  0  0  0 
  5 20  1  0  0  0  0 
  5 21  1  0  0  0  0 
  6 22  1  0  0  0  0 
  7 23  1  0  0  0  0 
  8 24  1  0  0  0  0 
  9 25  1  0  0  0  0 
 10 26  1  0  0  0  0 
 11 27  1  0  0  0  0 
 11 28  1  0  0  0  0 
 11 29  1  0  0  0  0 
 12 30  1  0  0  0  0 
 12 31  1  0  0  0  0 
 12 32  1  0  0  0  0 
M  ISO  1  14 123
M  END
> <cdk:Title>
Iofetamine (123I)

> <Conformer>
1

> <SuperDrugID>
SD001292

$$$$
