iguratimod
  CDK     0628171802

 40 42  0  0  0  0  0  0  0  0999 V2000
   -1.8537    7.0355   -6.7220 C   0  0  0  0  0  0  0  0  0  0  0  0
   -1.1639    6.1389   -5.8732 C   0  0  0  0  0  0  0  0  0  0  0  0
   -1.7498    5.7802   -4.6334 C   0  0  0  0  0  0  0  0  0  0  0  0
   -2.9402    6.4119   -4.2100 C   0  0  0  0  0  0  0  0  0  0  0  0
   -3.6095    7.3423   -5.0361 C   0  0  0  0  0  0  0  0  0  0  0  0
   -3.0633    7.6229   -6.3116 C   0  0  0  0  0  0  0  0  0  0  0  0
   -3.7033    8.4946   -7.1401 O   0  0  0  0  0  0  0  0  0  0  0  0
   -4.7969    8.0147   -4.6554 C   0  0  0  0  0  0  0  0  0  0  0  0
   -5.4394    8.9284   -5.5267 C   0  0  0  0  0  0  0  0  0  0  0  0
   -4.8525    9.1381   -6.7943 C   0  0  0  0  0  0  0  0  0  0  0  0
   -5.2921    7.7961   -3.5229 O   0  0  0  0  0  0  0  0  0  0  0  0
   -6.5626    9.5758   -5.0789 N   0  0  0  0  0  0  0  0  0  0  0  0
   -7.5664   10.1537   -5.7917 C   0  0  0  0  0  0  0  0  0  0  0  0
   -7.6452   10.1549   -7.0402 O   0  0  0  0  0  0  0  0  0  0  0  0
   -1.1351    4.8768   -3.7981 O   0  0  0  0  0  0  0  0  0  0  0  0
   -1.6189    3.5992   -3.9368 C   0  0  0  0  0  0  0  0  0  0  0  0
   -0.9942    2.6783   -4.8084 C   0  0  0  0  0  0  0  0  0  0  0  0
   -1.4639    1.3548   -4.9065 C   0  0  0  0  0  0  0  0  0  0  0  0
   -2.5602    0.9388   -4.1292 C   0  0  0  0  0  0  0  0  0  0  0  0
   -3.1864    1.8460   -3.2548 C   0  0  0  0  0  0  0  0  0  0  0  0
   -2.7145    3.1683   -3.1567 C   0  0  0  0  0  0  0  0  0  0  0  0
    0.0604    5.6150   -6.1690 N   0  0  0  0  0  0  0  0  0  0  0  0
    1.1672    6.1658   -7.3597 S   0  0  2  0  0  0  0  0  0  0  0  0
    0.7317    5.4993   -9.0062 C   0  0  0  0  0  0  0  0  0  0  0  0
    2.6328    5.6573   -6.9488 O   0  0  0  0  0  0  0  0  0  0  0  0
    1.1796    7.7693   -7.4008 O   0  0  0  0  0  0  0  0  0  0  0  0
   -1.4791    7.2805   -7.6398 H   0  0  0  0  0  0  0  0  0  0  0  0
   -3.3122    6.1937   -3.2829 H   0  0  0  0  0  0  0  0  0  0  0  0
   -5.2496    9.7878   -7.4679 H   0  0  0  0  0  0  0  0  0  0  0  0
   -6.6703    9.6084   -4.1144 H   0  0  0  0  0  0  0  0  0  0  0  0
   -8.3244   10.6012   -5.2771 H   0  0  0  0  0  0  0  0  0  0  0  0
   -0.1905    2.9604   -5.3707 H   0  0  0  0  0  0  0  0  0  0  0  0
   -1.0058    0.6942   -5.5395 H   0  0  0  0  0  0  0  0  0  0  0  0
   -2.9008   -0.0227   -4.1990 H   0  0  0  0  0  0  0  0  0  0  0  0
   -3.9818    1.5440   -2.6873 H   0  0  0  0  0  0  0  0  0  0  0  0
   -3.1692    3.8152   -2.5098 H   0  0  0  0  0  0  0  0  0  0  0  0
    0.3712    4.8868   -5.6106 H   0  0  0  0  0  0  0  0  0  0  0  0
   -0.3131    5.7177   -9.2278 H   0  0  0  0  0  0  0  0  0  0  0  0
    1.3650    5.9671   -9.7614 H   0  0  0  0  0  0  0  0  0  0  0  0
    0.8864    4.4193   -9.0210 H   0  0  0  0  0  0  0  0  0  0  0  0
  1  2  1  0  0  0  0 
  1  6  2  0  0  0  0 
  2  3  2  0  0  0  0 
  3  4  1  0  0  0  0 
  4  5  2  0  0  0  0 
  5  6  1  0  0  0  0 
  8  9  1  0  0  0  0 
  9 10  2  0  0  0  0 
  7 10  1  0  0  0  0 
  5  8  1  0  0  0  0 
  7  6  1  0  0  0  0 
  8 11  2  0  0  0  0 
  9 12  1  0  0  0  0 
 12 13  1  0  0  0  0 
 13 14  2  0  0  0  0 
  3 15  1  0  0  0  0 
 15 16  1  0  0  0  0 
 17 18  1  0  0  0  0 
 18 19  2  0  0  0  0 
 19 20  1  0  0  0  0 
 20 21  2  0  0  0  0 
 16 17  2  0  0  0  0 
 16 21  1  0  0  0  0 
  2 22  1  0  0  0  0 
 22 23  1  0  0  0  0 
 23 24  1  0  0  0  0 
 23 25  2  0  0  0  0 
 23 26  2  0  0  0  0 
  1 27  1  0  0  0  0 
  4 28  1  0  0  0  0 
 10 29  1  0  0  0  0 
 12 30  1  0  0  0  0 
 13 31  1  0  0  0  0 
 17 32  1  0  0  0  0 
 18 33  1  0  0  0  0 
 19 34  1  0  0  0  0 
 20 35  1  0  0  0  0 
 21 36  1  0  0  0  0 
 22 37  1  0  0  0  0 
 24 38  1  0  0  0  0 
 24 39  1  0  0  0  0 
 24 40  1  0  0  0  0 
M  END
> <cdk:Title>
iguratimod

> <Conformer>
1

> <SuperDrugID>
SD003832

$$$$
