tocopherol succinate
  CDK     0628171801

 92 93  0  0  0  0  0  0  0  0999 V2000
   -3.2234   -0.6789   -3.0208 C   0  0  0  0  0  0  0  0  0  0  0  0
   -2.1481   -0.3602   -2.0267 C   0  0  0  0  0  0  0  0  0  0  0  0
   -2.3268    0.6943   -1.0964 C   0  0  0  0  0  0  0  0  0  0  0  0
   -0.9364   -1.1109   -2.0068 C   0  0  0  0  0  0  0  0  0  0  0  0
   -1.3555    0.9597   -0.0953 C   0  0  0  0  0  0  0  0  0  0  0  0
   -3.5018    1.4186   -1.1702 O   0  0  0  0  0  0  0  0  0  0  0  0
   -0.7592   -2.2483   -2.9685 C   0  0  0  0  0  0  0  0  0  0  0  0
    0.0883   -0.7764   -1.0753 C   0  0  0  0  0  0  0  0  0  0  0  0
   -0.1655    0.1720   -0.0431 C   0  0  0  0  0  0  0  0  0  0  0  0
   -1.6046    2.0882    0.8627 C   0  0  1  0  0  0  0  0  0  0  0  0
   -3.5203    2.7914   -0.7213 C   0  0  1  0  0  0  0  0  0  0  0  0
    1.2898   -1.4313   -1.2681 O   0  0  0  0  0  0  0  0  0  0  0  0
    0.7635    0.3036    1.1191 C   0  0  0  0  0  0  0  0  0  0  0  0
   -2.9845    2.7918    0.7442 C   0  0  1  0  0  0  0  0  0  0  0  0
   -2.6689    3.7380   -1.6433 C   0  0  2  0  0  0  0  0  0  0  0  0
   -5.0243    3.2105   -0.7196 C   0  0  0  0  0  0  0  0  0  0  0  0
    2.6179   -1.1377   -1.0925 C   0  0  0  0  0  0  0  0  0  0  0  0
   -3.0296    3.7436   -3.1565 C   0  0  2  0  0  0  0  0  0  0  0  0
    3.6161   -2.1295   -1.5500 C   0  0  2  0  0  0  0  0  0  0  0  0
    3.0134   -0.0340   -0.6524 O   0  0  0  0  0  0  0  0  0  0  0  0
   -2.2621    4.8143   -3.9880 C   0  0  1  0  0  0  0  0  0  0  0  0
    3.5352   -3.4845   -0.8000 C   0  0  2  0  0  0  0  0  0  0  0  0
   -0.6975    4.7395   -4.0124 C   0  0  1  0  0  0  0  0  0  0  0  0
    4.3230   -4.5339   -1.4740 C   0  0  0  0  0  0  0  0  0  0  0  0
   -0.1759    3.4142   -4.6602 C   0  0  1  0  0  0  0  0  0  0  0  0
   -0.1208    5.9991   -4.7247 C   0  0  0  0  0  0  0  0  0  0  0  0
    3.7100   -5.6126   -2.0138 O   0  0  0  0  0  0  0  0  0  0  0  0
    5.5692   -4.4456   -1.5586 O   0  0  0  0  0  0  0  0  0  0  0  0
    1.3660    3.2322   -4.5990 C   0  0  2  0  0  0  0  0  0  0  0  0
    1.8221    1.8345   -5.1009 C   0  0  2  0  0  0  0  0  0  0  0  0
    3.3717    1.6056   -5.0924 C   0  0  1  0  0  0  0  0  0  0  0  0
    3.9304    1.4923   -3.6357 C   0  0  2  0  0  0  0  0  0  0  0  0
    3.7202    0.3510   -5.9448 C   0  0  0  0  0  0  0  0  0  0  0  0
    5.4686    1.3273   -3.5044 C   0  0  2  0  0  0  0  0  0  0  0  0
    5.9378    1.4577   -1.9887 C   0  0  1  0  0  0  0  0  0  0  0  0
    7.5216    1.3213   -1.8434 C   0  0  1  0  0  0  0  0  0  0  0  0
    7.9362    1.6638   -0.3852 C   0  0  0  0  0  0  0  0  0  0  0  0
    8.0746   -0.0763   -2.2427 C   0  0  0  0  0  0  0  0  0  0  0  0
   -3.5556   -1.7098   -2.8869 H   0  0  0  0  0  0  0  0  0  0  0  0
   -2.8431   -0.5522   -4.0370 H   0  0  0  0  0  0  0  0  0  0  0  0
   -4.1122   -0.0552   -2.9347 H   0  0  0  0  0  0  0  0  0  0  0  0
    0.1646   -2.8084   -2.8339 H   0  0  0  0  0  0  0  0  0  0  0  0
   -1.5681   -2.9713   -2.8450 H   0  0  0  0  0  0  0  0  0  0  0  0
   -0.7689   -1.8734   -3.9934 H   0  0  0  0  0  0  0  0  0  0  0  0
   -1.5291    1.7296    1.8899 H   0  0  0  0  0  0  0  0  0  0  0  0
   -0.8215    2.8360    0.7111 H   0  0  0  0  0  0  0  0  0  0  0  0
    1.4257   -0.5534    1.2245 H   0  0  0  0  0  0  0  0  0  0  0  0
    1.3579    1.2130    1.0212 H   0  0  0  0  0  0  0  0  0  0  0  0
    0.2174    0.3390    2.0601 H   0  0  0  0  0  0  0  0  0  0  0  0
   -3.6882    2.2529    1.3877 H   0  0  0  0  0  0  0  0  0  0  0  0
   -2.9174    3.8142    1.1291 H   0  0  0  0  0  0  0  0  0  0  0  0
   -1.6221    3.4444   -1.5659 H   0  0  0  0  0  0  0  0  0  0  0  0
   -2.7489    4.7601   -1.2629 H   0  0  0  0  0  0  0  0  0  0  0  0
   -5.4781    3.0336   -1.6945 H   0  0  0  0  0  0  0  0  0  0  0  0
   -5.5962    2.6247    0.0029 H   0  0  0  0  0  0  0  0  0  0  0  0
   -5.1362    4.2676   -0.4689 H   0  0  0  0  0  0  0  0  0  0  0  0
   -4.0900    3.9681   -3.2718 H   0  0  0  0  0  0  0  0  0  0  0  0
   -2.8713    2.7496   -3.5774 H   0  0  0  0  0  0  0  0  0  0  0  0
    4.6304   -1.7325   -1.4394 H   0  0  0  0  0  0  0  0  0  0  0  0
    3.4400   -2.2902   -2.6174 H   0  0  0  0  0  0  0  0  0  0  0  0
   -2.6286    4.7650   -5.0173 H   0  0  0  0  0  0  0  0  0  0  0  0
   -2.5575    5.7904   -3.5920 H   0  0  0  0  0  0  0  0  0  0  0  0
    2.4957   -3.8136   -0.7365 H   0  0  0  0  0  0  0  0  0  0  0  0
    3.9067   -3.3660    0.2212 H   0  0  0  0  0  0  0  0  0  0  0  0
   -0.3398    4.7798   -2.9798 H   0  0  0  0  0  0  0  0  0  0  0  0
   -0.6210    2.5646   -4.1374 H   0  0  0  0  0  0  0  0  0  0  0  0
   -0.4991    3.3688   -5.7046 H   0  0  0  0  0  0  0  0  0  0  0  0
   -0.5565    6.9111   -4.3140 H   0  0  0  0  0  0  0  0  0  0  0  0
    0.9585    6.0695   -4.5785 H   0  0  0  0  0  0  0  0  0  0  0  0
   -0.3286    5.9652   -5.7964 H   0  0  0  0  0  0  0  0  0  0  0  0
    4.2355   -6.3050   -2.4714 H   0  0  0  0  0  0  0  0  0  0  0  0
    1.6837    3.3810   -3.5664 H   0  0  0  0  0  0  0  0  0  0  0  0
    1.8485    3.9899   -5.2206 H   0  0  0  0  0  0  0  0  0  0  0  0
    1.4498    1.7290   -6.1249 H   0  0  0  0  0  0  0  0  0  0  0  0
    1.3387    1.0617   -4.4955 H   0  0  0  0  0  0  0  0  0  0  0  0
    3.8450    2.4666   -5.5774 H   0  0  0  0  0  0  0  0  0  0  0  0
    3.4470    0.6461   -3.1459 H   0  0  0  0  0  0  0  0  0  0  0  0
    3.6604    2.3937   -3.0849 H   0  0  0  0  0  0  0  0  0  0  0  0
    3.3259   -0.5544   -5.4768 H   0  0  0  0  0  0  0  0  0  0  0  0
    4.7992    0.2493   -6.0617 H   0  0  0  0  0  0  0  0  0  0  0  0
    3.2984    0.4385   -6.9480 H   0  0  0  0  0  0  0  0  0  0  0  0
    5.9611    2.1044   -4.0935 H   0  0  0  0  0  0  0  0  0  0  0  0
    5.7564    0.3519   -3.8979 H   0  0  0  0  0  0  0  0  0  0  0  0
    5.4879    2.3700   -1.4348 H   0  0  0  0  0  0  0  0  0  0  0  0
    5.5117    0.6010   -1.4618 H   0  0  0  0  0  0  0  0  0  0  0  0
    7.9865    2.0681   -2.4948 H   0  0  0  0  0  0  0  0  0  0  0  0
    7.5913    2.6639   -0.1152 H   0  0  0  0  0  0  0  0  0  0  0  0
    9.0227    1.6442   -0.2797 H   0  0  0  0  0  0  0  0  0  0  0  0
    7.5044    0.9474    0.3174 H   0  0  0  0  0  0  0  0  0  0  0  0
    7.9300   -0.2600   -3.3065 H   0  0  0  0  0  0  0  0  0  0  0  0
    9.1473   -0.1309   -2.0463 H   0  0  0  0  0  0  0  0  0  0  0  0
    7.5765   -0.8666   -1.6768 H   0  0  0  0  0  0  0  0  0  0  0  0
  1  2  1  0  0  0  0 
  2  3  2  0  0  0  0 
  2  4  1  0  0  0  0 
  3  5  1  0  0  0  0 
  3  6  1  0  0  0  0 
  4  7  1  0  0  0  0 
  4  8  2  0  0  0  0 
  5  9  2  0  0  0  0 
  5 10  1  0  0  0  0 
 11  6  1  0  0  0  0 
  8  9  1  0  0  0  0 
  8 12  1  0  0  0  0 
  9 13  1  0  0  0  0 
 10 14  1  0  0  0  0 
 11 14  1  0  0  0  0 
 11 15  1  0  0  0  0 
 11 16  1  0  0  0  0 
 12 17  1  0  0  0  0 
 15 18  1  0  0  0  0 
 17 19  1  0  0  0  0 
 17 20  2  0  0  0  0 
 18 21  1  0  0  0  0 
 19 22  1  0  0  0  0 
 23 21  1  0  0  0  0 
 22 24  1  0  0  0  0 
 23 25  1  0  0  0  0 
 23 26  1  0  0  0  0 
 24 27  1  0  0  0  0 
 24 28  2  0  0  0  0 
 25 29  1  0  0  0  0 
 29 30  1  0  0  0  0 
 31 30  1  0  0  0  0 
 31 32  1  0  0  0  0 
 31 33  1  0  0  0  0 
 32 34  1  0  0  0  0 
 34 35  1  0  0  0  0 
 35 36  1  0  0  0  0 
 36 37  1  0  0  0  0 
 36 38  1  0  0  0  0 
  1 39  1  0  0  0  0 
  1 40  1  0  0  0  0 
  1 41  1  0  0  0  0 
  7 42  1  0  0  0  0 
  7 43  1  0  0  0  0 
  7 44  1  0  0  0  0 
 10 45  1  0  0  0  0 
 10 46  1  0  0  0  0 
 13 47  1  0  0  0  0 
 13 48  1  0  0  0  0 
 13 49  1  0  0  0  0 
 14 50  1  0  0  0  0 
 14 51  1  0  0  0  0 
 15 52  1  0  0  0  0 
 15 53  1  0  0  0  0 
 16 54  1  0  0  0  0 
 16 55  1  0  0  0  0 
 16 56  1  0  0  0  0 
 18 57  1  0  0  0  0 
 18 58  1  0  0  0  0 
 19 59  1  0  0  0  0 
 19 60  1  0  0  0  0 
 21 61  1  0  0  0  0 
 21 62  1  0  0  0  0 
 22 63  1  0  0  0  0 
 22 64  1  0  0  0  0 
 23 65  1  0  0  0  0 
 25 66  1  0  0  0  0 
 25 67  1  0  0  0  0 
 26 68  1  0  0  0  0 
 26 69  1  0  0  0  0 
 26 70  1  0  0  0  0 
 27 71  1  0  0  0  0 
 29 72  1  0  0  0  0 
 29 73  1  0  0  0  0 
 30 74  1  0  0  0  0 
 30 75  1  0  0  0  0 
 31 76  1  0  0  0  0 
 32 77  1  0  0  0  0 
 32 78  1  0  0  0  0 
 33 79  1  0  0  0  0 
 33 80  1  0  0  0  0 
 33 81  1  0  0  0  0 
 34 82  1  0  0  0  0 
 34 83  1  0  0  0  0 
 35 84  1  0  0  0  0 
 35 85  1  0  0  0  0 
 36 86  1  0  0  0  0 
 37 87  1  0  0  0  0 
 37 88  1  0  0  0  0 
 37 89  1  0  0  0  0 
 38 90  1  0  0  0  0 
 38 91  1  0  0  0  0 
 38 92  1  0  0  0  0 
M  END
> <cdk:Title>
tocopherol succinate

> <Conformer>
1

> <SuperDrugID>
SD002421

$$$$
