mesterolone
  CDK     0628171801

 54 57  0  0  0  0  0  0  0  0999 V2000
   -2.6992   -0.0430   -1.0445 C   0  0  2  0  0  0  0  0  0  0  0  0
   -3.7526   -0.0025   -2.2453 C   0  0  2  0  0  0  0  0  0  0  0  0
   -1.8529    1.3019   -1.1026 C   0  0  1  0  0  0  0  0  0  0  0  0
   -1.6757   -1.2707   -1.1411 C   0  0  1  0  0  0  0  0  0  0  0  0
   -4.6410    1.3086   -2.2780 C   0  0  2  0  0  0  0  0  0  0  0  0
   -4.6338   -1.2989   -2.4044 C   0  0  1  0  0  0  0  0  0  0  0  0
   -2.7384    2.5862   -1.0735 C   0  0  2  0  0  0  0  0  0  0  0  0
   -0.6944    1.3694   -0.0534 C   0  0  2  0  0  0  0  0  0  0  0  0
   -1.0150   -1.5217   -2.5394 C   0  0  0  0  0  0  0  0  0  0  0  0
   -0.5390   -1.1837   -0.0628 C   0  0  1  0  0  0  0  0  0  0  0  0
   -5.5630    1.2666   -3.5444 C   0  0  1  0  0  0  0  0  0  0  0  0
   -3.7607    2.5951   -2.2392 C   0  0  2  0  0  0  0  0  0  0  0  0
   -5.6275   -1.2486   -3.6056 C   0  0  1  0  0  0  0  0  0  0  0  0
    0.1243    0.1384   -0.0945 C   0  0  0  0  0  0  0  0  0  0  0  0
   -6.5228    0.0345   -3.5654 C   0  0  1  0  0  0  0  0  0  0  0  0
   -6.4762    2.4650   -3.8822 C   0  0  1  0  0  0  0  0  0  0  0  0
    1.3698    0.2112   -0.2205 O   0  0  0  0  0  0  0  0  0  0  0  0
   -7.5383   -0.0552   -2.3634 C   0  0  0  0  0  0  0  0  0  0  0  0
   -7.3090    0.3354   -4.8815 C   0  0  2  0  0  0  0  0  0  0  0  0
   -7.4973    1.8797   -4.8926 C   0  0  2  0  0  0  0  0  0  0  0  0
   -8.5559   -0.3528   -5.0015 O   0  0  0  0  0  0  0  0  0  0  0  0
   -5.2832    1.3512   -1.3994 H   0  0  0  0  0  0  0  0  0  0  0  0
   -3.1621    0.0520   -3.1654 H   0  0  0  0  0  0  0  0  0  0  0  0
   -4.8761    1.1918   -4.4009 H   0  0  0  0  0  0  0  0  0  0  0  0
   -1.3498    1.3379   -2.0745 H   0  0  0  0  0  0  0  0  0  0  0  0
   -3.4743   -0.1620    0.3281 C   0  0  0  0  0  0  0  0  0  0  0  0
   -2.2264   -2.1913   -0.9204 H   0  0  0  0  0  0  0  0  0  0  0  0
   -3.9992   -2.1743   -2.5479 H   0  0  0  0  0  0  0  0  0  0  0  0
   -5.2041   -1.4745   -1.4942 H   0  0  0  0  0  0  0  0  0  0  0  0
   -2.1035    3.4718   -1.1706 H   0  0  0  0  0  0  0  0  0  0  0  0
   -3.2675    2.6705   -0.1220 H   0  0  0  0  0  0  0  0  0  0  0  0
   -1.0901    1.4955    0.9562 H   0  0  0  0  0  0  0  0  0  0  0  0
   -0.0627    2.2392   -0.2613 H   0  0  0  0  0  0  0  0  0  0  0  0
   -1.7588   -1.7201   -3.3087 H   0  0  0  0  0  0  0  0  0  0  0  0
   -0.4094   -0.6700   -2.8521 H   0  0  0  0  0  0  0  0  0  0  0  0
   -0.3674   -2.4019   -2.5026 H   0  0  0  0  0  0  0  0  0  0  0  0
   -0.9510   -1.3436    0.9362 H   0  0  0  0  0  0  0  0  0  0  0  0
    0.1954   -1.9825   -0.2115 H   0  0  0  0  0  0  0  0  0  0  0  0
   -4.4005    3.4749   -2.1279 H   0  0  0  0  0  0  0  0  0  0  0  0
   -3.2176    2.6985   -3.1832 H   0  0  0  0  0  0  0  0  0  0  0  0
   -5.0466   -1.2743   -4.5331 H   0  0  0  0  0  0  0  0  0  0  0  0
   -6.2527   -2.1459   -3.6001 H   0  0  0  0  0  0  0  0  0  0  0  0
   -6.9789    2.8358   -2.9844 H   0  0  0  0  0  0  0  0  0  0  0  0
   -5.9062    3.2850   -4.3278 H   0  0  0  0  0  0  0  0  0  0  0  0
   -7.0458   -0.0962   -1.3947 H   0  0  0  0  0  0  0  0  0  0  0  0
   -8.2190    0.7964   -2.3418 H   0  0  0  0  0  0  0  0  0  0  0  0
   -8.1442   -0.9587   -2.4575 H   0  0  0  0  0  0  0  0  0  0  0  0
   -6.7080    0.0496   -5.7512 H   0  0  0  0  0  0  0  0  0  0  0  0
   -7.3153    2.2719   -5.8973 H   0  0  0  0  0  0  0  0  0  0  0  0
   -8.5113    2.1567   -4.5956 H   0  0  0  0  0  0  0  0  0  0  0  0
   -8.3243   -1.3051   -4.9623 H   0  0  0  0  0  0  0  0  0  0  0  0
   -2.8203   -0.0306    1.1878 H   0  0  0  0  0  0  0  0  0  0  0  0
   -3.9399   -1.1426    0.4355 H   0  0  0  0  0  0  0  0  0  0  0  0
   -4.2592    0.5833    0.4333 H   0  0  0  0  0  0  0  0  0  0  0  0
  2  1  1  0  0  0  0 
  1  3  1  0  0  0  0 
  1  4  1  0  0  0  0 
  5  2  1  0  0  0  0 
  2  6  1  0  0  0  0 
  2 23  1  0  0  0  0 
  3  7  1  0  0  0  0 
  3  8  1  0  0  0  0 
  3 25  1  0  0  0  0 
  4  9  1  0  0  0  0 
  4 10  1  0  0  0  0 
 11  5  1  0  0  0  0 
  5 12  1  0  0  0  0 
  5 22  1  0  0  0  0 
  6 13  1  0  0  0  0 
  7 12  1  0  0  0  0 
  8 14  1  0  0  0  0 
 10 14  1  0  0  0  0 
 11 15  1  0  0  0  0 
 11 16  1  0  0  0  0 
 11 24  1  0  0  0  0 
 15 13  1  0  0  0  0 
 14 17  2  0  0  0  0 
 15 18  1  0  0  0  0 
 15 19  1  0  0  0  0 
 16 20  1  0  0  0  0 
 19 20  1  0  0  0  0 
 19 21  1  0  0  0  0 
  1 26  1  0  0  0  0 
  4 27  1  0  0  0  0 
  6 28  1  0  0  0  0 
  6 29  1  0  0  0  0 
  7 30  1  0  0  0  0 
  7 31  1  0  0  0  0 
  8 32  1  0  0  0  0 
  8 33  1  0  0  0  0 
  9 34  1  0  0  0  0 
  9 35  1  0  0  0  0 
  9 36  1  0  0  0  0 
 10 37  1  0  0  0  0 
 10 38  1  0  0  0  0 
 12 39  1  0  0  0  0 
 12 40  1  0  0  0  0 
 13 41  1  0  0  0  0 
 13 42  1  0  0  0  0 
 16 43  1  0  0  0  0 
 16 44  1  0  0  0  0 
 18 45  1  0  0  0  0 
 18 46  1  0  0  0  0 
 18 47  1  0  0  0  0 
 19 48  1  0  0  0  0 
 20 49  1  0  0  0  0 
 20 50  1  0  0  0  0 
 21 51  1  0  0  0  0 
 26 52  1  0  0  0  0 
 26 53  1  0  0  0  0 
 26 54  1  0  0  0  0 
M  END
> <cdk:Title>
mesterolone

> <Conformer>
1

> <SuperDrugID>
SD002884

$$$$
