Flutemetamol (18F)
  CDK     0628171801

 30 32  0  0  0  0  0  0  0  0999 V2000
   -8.4842    3.3165    2.3777 F   0  0  0  0  0  0  0  0  0  0  0  0
   -7.9400    2.1543    2.1247 C   0  0  0  0  0  0  0  0  0  0  0  0
   -6.5671    2.1111    1.8224 C   0  0  0  0  0  0  0  0  0  0  0  0
   -8.7083    0.9685    2.1575 C   0  0  0  0  0  0  0  0  0  0  0  0
   -5.9147    0.8842    1.5601 C   0  0  0  0  0  0  0  0  0  0  0  0
  -10.0377    1.0722    2.4662 N   0  0  0  0  0  0  0  0  0  0  0  0
   -8.0624   -0.2589    1.8727 C   0  0  0  0  0  0  0  0  0  0  0  0
   -4.5179    0.8566    1.3192 C   0  0  0  0  0  0  0  0  0  0  0  0
   -6.6875   -0.2992    1.5773 C   0  0  0  0  0  0  0  0  0  0  0  0
  -11.0118    0.0388    2.3927 C   0  0  0  0  0  0  0  0  0  0  0  0
   -3.4383   -0.5333    1.3956 S   0  0  0  0  0  0  0  0  0  0  0  0
   -3.7369    1.9315    1.0375 N   0  0  0  0  0  0  0  0  0  0  0  0
   -1.9794    0.3851    1.0927 C   0  0  0  0  0  0  0  0  0  0  0  0
   -2.4013    1.7107    0.9140 C   0  0  0  0  0  0  0  0  0  0  0  0
   -0.6309    0.0036    1.0317 C   0  0  0  0  0  0  0  0  0  0  0  0
   -1.4395    2.7027    0.6477 C   0  0  0  0  0  0  0  0  0  0  0  0
    0.3297    1.0048    0.7640 C   0  0  0  0  0  0  0  0  0  0  0  0
   -0.0753    2.3469    0.5771 C   0  0  0  0  0  0  0  0  0  0  0  0
    1.6488    0.6984    0.6836 O   0  0  0  0  0  0  0  0  0  0  0  0
   -6.0415    2.9893    1.8100 H   0  0  0  0  0  0  0  0  0  0  0  0
  -10.3601    1.9438    2.7473 H   0  0  0  0  0  0  0  0  0  0  0  0
   -8.5834   -1.1391    1.8843 H   0  0  0  0  0  0  0  0  0  0  0  0
   -6.2623   -1.2069    1.3755 H   0  0  0  0  0  0  0  0  0  0  0  0
  -11.9647    0.4272    2.7510 H   0  0  0  0  0  0  0  0  0  0  0  0
  -10.7303   -0.8109    3.0166 H   0  0  0  0  0  0  0  0  0  0  0  0
  -11.1309   -0.2849    1.3570 H   0  0  0  0  0  0  0  0  0  0  0  0
   -0.3560   -0.9680    1.1823 H   0  0  0  0  0  0  0  0  0  0  0  0
   -1.7258    3.6750    0.5130 H   0  0  0  0  0  0  0  0  0  0  0  0
    0.6232    3.0692    0.3913 H   0  0  0  0  0  0  0  0  0  0  0  0
    1.6956   -0.2807    0.6800 H   0  0  0  0  0  0  0  0  0  0  0  0
  1  2  1  0  0  0  0 
  2  3  2  0  0  0  0 
  2  4  1  0  0  0  0 
  3  5  1  0  0  0  0 
  4  6  1  0  0  0  0 
  4  7  2  0  0  0  0 
  5  8  1  0  0  0  0 
  5  9  2  0  0  0  0 
  6 10  1  0  0  0  0 
  7  9  1  0  0  0  0 
  8 11  1  0  0  0  0 
  8 12  2  0  0  0  0 
 11 13  1  0  0  0  0 
 12 14  1  0  0  0  0 
 13 14  1  0  0  0  0 
 13 15  2  0  0  0  0 
 14 16  2  0  0  0  0 
 15 17  1  0  0  0  0 
 16 18  1  0  0  0  0 
 17 18  2  0  0  0  0 
 17 19  1  0  0  0  0 
  3 20  1  0  0  0  0 
  6 21  1  0  0  0  0 
  7 22  1  0  0  0  0 
  9 23  1  0  0  0  0 
 10 24  1  0  0  0  0 
 10 25  1  0  0  0  0 
 10 26  1  0  0  0  0 
 15 27  1  0  0  0  0 
 16 28  1  0  0  0  0 
 18 29  1  0  0  0  0 
 19 30  1  0  0  0  0 
M  ISO  1   1  18
M  END
> <cdk:Title>
Flutemetamol (18F)

> <Conformer>
1

> <SuperDrugID>
SD003484

$$$$
