chlorhexidine
  CDK     0628171802

 64 65  0  0  0  0  0  0  0  0999 V2000
    3.6352   -8.6785    6.2448 Cl  0  0  0  0  0  0  0  0  0  0  0  0
    4.4725   -7.5170    5.3397 C   0  0  0  0  0  0  0  0  0  0  0  0
    5.7946   -7.7674    4.9221 C   0  0  0  0  0  0  0  0  0  0  0  0
    6.4965   -6.8057    4.1740 C   0  0  0  0  0  0  0  0  0  0  0  0
    5.8783   -5.5921    3.8100 C   0  0  0  0  0  0  0  0  0  0  0  0
    6.6049   -4.6973    3.1503 N   0  0  0  0  0  0  0  0  0  0  0  0
    6.3250   -3.8420    2.2265 C   0  0  0  0  0  0  0  0  0  0  0  0
    5.1515   -3.7782    1.6269 N   0  0  0  0  0  0  0  0  0  0  0  0
    7.2462   -2.9809    1.8021 N   0  0  0  0  0  0  0  0  0  0  0  0
    8.2478   -2.4875    2.5348 C   0  0  0  0  0  0  0  0  0  0  0  0
    9.3729   -2.3530    1.9480 N   0  0  0  0  0  0  0  0  0  0  0  0
    8.1697   -2.1032    3.8159 N   0  0  0  0  0  0  0  0  0  0  0  0
    6.9973   -1.6179    4.4863 C   0  0  1  0  0  0  0  0  0  0  0  0
    6.6933   -2.3842    5.8023 C   0  0  2  0  0  0  0  0  0  0  0  0
    5.3371   -1.9559    6.4387 C   0  0  2  0  0  0  0  0  0  0  0  0
    5.1160   -2.5338    7.8642 C   0  0  1  0  0  0  0  0  0  0  0  0
    3.7299   -2.1584    8.4654 C   0  0  2  0  0  0  0  0  0  0  0  0
    3.5912   -2.5717    9.9562 C   0  0  2  0  0  0  0  0  0  0  0  0
    2.2899   -2.3787   10.4347 N   0  0  0  0  0  0  0  0  0  0  0  0
    1.8224   -2.5359   11.6260 C   0  0  0  0  0  0  0  0  0  0  0  0
    2.6115   -2.9053   12.6279 N   0  0  0  0  0  0  0  0  0  0  0  0
    0.5098   -2.3008   11.7414 N   0  0  0  0  0  0  0  0  0  0  0  0
   -0.3127   -2.3575   12.7957 C   0  0  0  0  0  0  0  0  0  0  0  0
   -1.5330   -2.1050   12.5047 N   0  0  0  0  0  0  0  0  0  0  0  0
    0.0400   -2.6845   14.0486 N   0  0  0  0  0  0  0  0  0  0  0  0
   -0.5110   -2.2521   15.2322 C   0  0  0  0  0  0  0  0  0  0  0  0
   -1.2893   -1.0748   15.3722 C   0  0  0  0  0  0  0  0  0  0  0  0
   -1.7935   -0.6826   16.6270 C   0  0  0  0  0  0  0  0  0  0  0  0
   -1.5185   -1.4527   17.7722 C   0  0  0  0  0  0  0  0  0  0  0  0
   -2.1105   -0.9718   19.2847 Cl  0  0  0  0  0  0  0  0  0  0  0  0
   -0.7421   -2.6209   17.6516 C   0  0  0  0  0  0  0  0  0  0  0  0
   -0.2431   -3.0132   16.3937 C   0  0  0  0  0  0  0  0  0  0  0  0
    4.5532   -5.3445    4.2361 C   0  0  0  0  0  0  0  0  0  0  0  0
    3.8542   -6.2980    4.9994 C   0  0  0  0  0  0  0  0  0  0  0  0
    6.2528   -8.6483    5.1620 H   0  0  0  0  0  0  0  0  0  0  0  0
    7.4625   -6.9969    3.8960 H   0  0  0  0  0  0  0  0  0  0  0  0
    5.0098   -3.1382    0.9099 H   0  0  0  0  0  0  0  0  0  0  0  0
    4.4316   -4.3728    1.8890 H   0  0  0  0  0  0  0  0  0  0  0  0
    7.1854   -2.6840    0.8783 H   0  0  0  0  0  0  0  0  0  0  0  0
   10.1057   -2.0018    2.4075 H   0  0  0  0  0  0  0  0  0  0  0  0
    9.0006   -2.0799    4.3175 H   0  0  0  0  0  0  0  0  0  0  0  0
    7.1870   -0.5695    4.7266 H   0  0  0  0  0  0  0  0  0  0  0  0
    6.1174   -1.6430    3.8370 H   0  0  0  0  0  0  0  0  0  0  0  0
    7.5108   -2.2042    6.5074 H   0  0  0  0  0  0  0  0  0  0  0  0
    6.6562   -3.4574    5.5996 H   0  0  0  0  0  0  0  0  0  0  0  0
    4.5245   -2.2933    5.7881 H   0  0  0  0  0  0  0  0  0  0  0  0
    5.2946   -0.8628    6.4943 H   0  0  0  0  0  0  0  0  0  0  0  0
    5.2025   -3.6230    7.8334 H   0  0  0  0  0  0  0  0  0  0  0  0
    5.9046   -2.1516    8.5185 H   0  0  0  0  0  0  0  0  0  0  0  0
    2.9441   -2.6444    7.8805 H   0  0  0  0  0  0  0  0  0  0  0  0
    3.5890   -1.0774    8.3856 H   0  0  0  0  0  0  0  0  0  0  0  0
    4.2932   -1.9767   10.5467 H   0  0  0  0  0  0  0  0  0  0  0  0
    3.8482   -3.6292   10.0650 H   0  0  0  0  0  0  0  0  0  0  0  0
    2.2708   -2.9852   13.5292 H   0  0  0  0  0  0  0  0  0  0  0  0
    3.5495   -3.0933   12.4609 H   0  0  0  0  0  0  0  0  0  0  0  0
    0.0738   -2.0422   10.9124 H   0  0  0  0  0  0  0  0  0  0  0  0
   -2.2008   -2.1366   13.1582 H   0  0  0  0  0  0  0  0  0  0  0  0
    0.7737   -3.3107   14.1372 H   0  0  0  0  0  0  0  0  0  0  0  0
   -1.4861   -0.4787   14.5670 H   0  0  0  0  0  0  0  0  0  0  0  0
   -2.3551    0.1698   16.7002 H   0  0  0  0  0  0  0  0  0  0  0  0
   -0.5349   -3.1888   18.4774 H   0  0  0  0  0  0  0  0  0  0  0  0
    0.3216   -3.8645   16.3329 H   0  0  0  0  0  0  0  0  0  0  0  0
    4.0989   -4.4568    4.0189 H   0  0  0  0  0  0  0  0  0  0  0  0
    2.8999   -6.0961    5.3087 H   0  0  0  0  0  0  0  0  0  0  0  0
  1  2  1  0  0  0  0 
  2  3  2  0  0  0  0 
  3  4  1  0  0  0  0 
  4  5  2  0  0  0  0 
  6  5  1  0  0  0  0 
  6  7  2  0  0  0  0 
  7  8  1  0  0  0  0 
  7  9  1  0  0  0  0 
  9 10  1  0  0  0  0 
 10 11  2  0  0  0  0 
 10 12  1  0  0  0  0 
 12 13  1  0  0  0  0 
 13 14  1  0  0  0  0 
 14 15  1  0  0  0  0 
 15 16  1  0  0  0  0 
 16 17  1  0  0  0  0 
 17 18  1  0  0  0  0 
 19 18  1  0  0  0  0 
 19 20  2  0  0  0  0 
 20 21  1  0  0  0  0 
 20 22  1  0  0  0  0 
 22 23  1  0  0  0  0 
 23 24  2  0  0  0  0 
 23 25  1  0  0  0  0 
 25 26  1  0  0  0  0 
 26 27  2  0  0  0  0 
 27 28  1  0  0  0  0 
 28 29  2  0  0  0  0 
 29 30  1  0  0  0  0 
 29 31  1  0  0  0  0 
 31 32  2  0  0  0  0 
 26 32  1  0  0  0  0 
  5 33  1  0  0  0  0 
 33 34  2  0  0  0  0 
  2 34  1  0  0  0  0 
 35  3  1  0  0  0  0 
 36  4  1  0  0  0  0 
 37  8  1  0  0  0  0 
 38  8  1  0  0  0  0 
 39  9  1  0  0  0  0 
 40 11  1  0  0  0  0 
 41 12  1  0  0  0  0 
 42 13  1  0  0  0  0 
 43 13  1  0  0  0  0 
 44 14  1  0  0  0  0 
 45 14  1  0  0  0  0 
 46 15  1  0  0  0  0 
 47 15  1  0  0  0  0 
 48 16  1  0  0  0  0 
 49 16  1  0  0  0  0 
 50 17  1  0  0  0  0 
 51 17  1  0  0  0  0 
 52 18  1  0  0  0  0 
 53 18  1  0  0  0  0 
 54 21  1  0  0  0  0 
 55 21  1  0  0  0  0 
 56 22  1  0  0  0  0 
 57 24  1  0  0  0  0 
 58 25  1  0  0  0  0 
 59 27  1  0  0  0  0 
 60 28  1  0  0  0  0 
 61 31  1  0  0  0  0 
 62 32  1  0  0  0  0 
 63 33  1  0  0  0  0 
 64 34  1  0  0  0  0 
M  END
> <cdk:Title>
chlorhexidine

> <Conformer>
1

> <SuperDrugID>
SD000521

$$$$
