propallylonal
  CDK     0628171801

 29 29  0  0  0  0  0  0  0  0999 V2000
    0.2924    1.8606    0.4160 C   0  0  1  0  0  0  0  0  0  0  0  0
    0.9231    2.3295    1.6507 C   0  0  0  0  0  0  0  0  0  0  0  0
   -1.2278    1.4123    0.4756 C   0  0  1  0  0  0  0  0  0  0  0  0
    1.7046    1.1195    2.7888 Br  0  0  0  0  0  0  0  0  0  0  0  0
    1.0060    3.6257    1.9833 C   0  0  0  0  0  0  0  0  0  0  0  0
   -1.5494    0.2136    1.4764 C   0  0  1  0  0  0  0  0  0  0  0  0
   -2.0485    2.6145    0.8852 C   0  0  0  0  0  0  0  0  0  0  0  0
   -1.5985    1.0274   -0.9386 C   0  0  0  0  0  0  0  0  0  0  0  0
   -3.0696   -0.1534    1.5560 C   0  0  0  0  0  0  0  0  0  0  0  0
   -0.7513   -1.1113    1.2571 C   0  0  0  0  0  0  0  0  0  0  0  0
   -1.9687    3.0942    2.0398 O   0  0  0  0  0  0  0  0  0  0  0  0
   -2.9363    3.2263    0.0605 N   0  0  0  0  0  0  0  0  0  0  0  0
   -1.0377    0.0697   -1.5196 O   0  0  0  0  0  0  0  0  0  0  0  0
   -2.5215    1.7008   -1.6767 N   0  0  0  0  0  0  0  0  0  0  0  0
   -3.1733    2.7817   -1.1922 C   0  0  0  0  0  0  0  0  0  0  0  0
   -4.0145    3.3768   -1.8990 O   0  0  0  0  0  0  0  0  0  0  0  0
    0.3931    2.6500   -0.3401 H   0  0  0  0  0  0  0  0  0  0  0  0
    0.9143    1.0475    0.0340 H   0  0  0  0  0  0  0  0  0  0  0  0
    1.4635    3.9063    2.8171 H   0  0  0  0  0  0  0  0  0  0  0  0
    0.6117    4.3299    1.4065 H   0  0  0  0  0  0  0  0  0  0  0  0
   -1.2737    0.5525    2.4801 H   0  0  0  0  0  0  0  0  0  0  0  0
   -3.6713    0.7089    1.8478 H   0  0  0  0  0  0  0  0  0  0  0  0
   -3.2417   -0.9359    2.3001 H   0  0  0  0  0  0  0  0  0  0  0  0
   -3.4316   -0.5153    0.5911 H   0  0  0  0  0  0  0  0  0  0  0  0
    0.3100   -0.9247    1.1102 H   0  0  0  0  0  0  0  0  0  0  0  0
   -0.8480   -1.7575    2.1336 H   0  0  0  0  0  0  0  0  0  0  0  0
   -1.1287   -1.6656    0.3962 H   0  0  0  0  0  0  0  0  0  0  0  0
   -3.4263    3.9977    0.3860 H   0  0  0  0  0  0  0  0  0  0  0  0
   -2.7116    1.4049   -2.5804 H   0  0  0  0  0  0  0  0  0  0  0  0
  1  2  1  0  0  0  0 
  1  3  1  0  0  0  0 
  2  4  1  0  0  0  0 
  2  5  2  0  0  0  0 
  3  6  1  0  0  0  0 
  3  7  1  0  0  0  0 
  3  8  1  0  0  0  0 
  6  9  1  0  0  0  0 
  6 10  1  0  0  0  0 
  7 11  2  0  0  0  0 
  7 12  1  0  0  0  0 
  8 13  2  0  0  0  0 
  8 14  1  0  0  0  0 
 12 15  1  0  0  0  0 
 14 15  1  0  0  0  0 
 15 16  2  0  0  0  0 
 17  1  1  0  0  0  0 
 18  1  1  0  0  0  0 
 19  5  1  0  0  0  0 
 20  5  1  0  0  0  0 
 21  6  1  0  0  0  0 
 22  9  1  0  0  0  0 
 23  9  1  0  0  0  0 
 24  9  1  0  0  0  0 
 25 10  1  0  0  0  0 
 26 10  1  0  0  0  0 
 27 10  1  0  0  0  0 
 28 12  1  0  0  0  0 
 29 14  1  0  0  0  0 
M  END
> <cdk:Title>
propallylonal

> <Conformer>
1

> <SuperDrugID>
SD003009

$$$$
