hydrogen peroxide
  CDK     0628171801

  4  3  0  0  0  0  0  0  0  0999 V2000
    0.9574    0.5811   -0.3351 O   0  0  0  0  0  0  0  0  0  0  0  0
    0.3526   -0.5811   -0.3351 O   0  0  0  0  0  0  0  0  0  0  0  0
    1.6667    0.4894    0.3351 H   0  0  0  0  0  0  0  0  0  0  0  0
   -0.3567   -0.4894    0.3351 H   0  0  0  0  0  0  0  0  0  0  0  0
  1  2  1  0  0  0  0 
  1  3  1  0  0  0  0 
  2  4  1  0  0  0  0 
M  END
> <cdk:Title>
hydrogen peroxide

> <Conformer>
1

> <SuperDrugID>
SD002836

$$$$
