sibutramine
  CDK     0628171801

 45 46  0  0  0  0  0  0  0  0999 V2000
    3.5596    1.1871   -2.1882 C   0  0  1  0  0  0  0  0  0  0  0  0
    3.8120    2.7102   -2.4788 C   0  0  1  0  0  0  0  0  0  0  0  0
    4.6802    0.3061   -2.7143 N   0  0  1  0  0  0  0  0  0  0  0  0
    3.1827    0.7851   -0.6939 C   0  0  1  0  0  0  0  0  0  0  0  0
    2.6127    3.7078   -2.3511 C   0  0  2  0  0  0  0  0  0  0  0  0
    4.4252   -0.3107   -4.0532 C   0  0  0  0  0  0  0  0  0  0  0  0
    6.0919    0.7839   -2.5993 C   0  0  0  0  0  0  0  0  0  0  0  0
    1.6504    0.9274   -0.3590 C   0  0  2  0  0  0  0  0  0  0  0  0
    2.9516   -0.7662   -0.5439 C   0  0  1  0  0  0  0  0  0  0  0  0
    4.0866    1.3901    0.3650 C   0  0  0  0  0  0  0  0  0  0  0  0
    1.5960    3.6223   -3.5283 C   0  0  0  0  0  0  0  0  0  0  0  0
    3.1370    5.1657   -2.2021 C   0  0  0  0  0  0  0  0  0  0  0  0
    1.4712   -0.5842   -0.1966 C   0  0  2  0  0  0  0  0  0  0  0  0
    3.8064    2.6529    0.9519 C   0  0  0  0  0  0  0  0  0  0  0  0
    5.2711    0.7407    0.7963 C   0  0  0  0  0  0  0  0  0  0  0  0
    4.6425    3.2229    1.9315 C   0  0  0  0  0  0  0  0  0  0  0  0
    6.1190    1.3072    1.7671 C   0  0  0  0  0  0  0  0  0  0  0  0
    5.8068    2.5525    2.3395 C   0  0  0  0  0  0  0  0  0  0  0  0
    6.8288    3.2375    3.5045 Cl  0  0  0  0  0  0  0  0  0  0  0  0
    2.6743    0.9410   -2.7815 H   0  0  0  0  0  0  0  0  0  0  0  0
    4.6213    3.0412   -1.8256 H   0  0  0  0  0  0  0  0  0  0  0  0
    4.1883    2.7971   -3.5004 H   0  0  0  0  0  0  0  0  0  0  0  0
    2.0647    3.4856   -1.4385 H   0  0  0  0  0  0  0  0  0  0  0  0
    5.2122   -1.0217   -4.3132 H   0  0  0  0  0  0  0  0  0  0  0  0
    3.4840   -0.8640   -4.0500 H   0  0  0  0  0  0  0  0  0  0  0  0
    4.3729    0.4589   -4.8265 H   0  0  0  0  0  0  0  0  0  0  0  0
    6.2881    1.2455   -1.6349 H   0  0  0  0  0  0  0  0  0  0  0  0
    6.7801   -0.0573   -2.7058 H   0  0  0  0  0  0  0  0  0  0  0  0
    6.3178    1.5125   -3.3810 H   0  0  0  0  0  0  0  0  0  0  0  0
    1.0371    1.3109   -1.1783 H   0  0  0  0  0  0  0  0  0  0  0  0
    1.4026    1.4368    0.5753 H   0  0  0  0  0  0  0  0  0  0  0  0
    3.0715   -1.3422   -1.4651 H   0  0  0  0  0  0  0  0  0  0  0  0
    3.4826   -1.2521    0.2764 H   0  0  0  0  0  0  0  0  0  0  0  0
    1.1982    2.6130   -3.6434 H   0  0  0  0  0  0  0  0  0  0  0  0
    0.7517    4.2917   -3.3452 H   0  0  0  0  0  0  0  0  0  0  0  0
    2.0662    3.9184   -4.4673 H   0  0  0  0  0  0  0  0  0  0  0  0
    3.7764    5.2527   -1.3191 H   0  0  0  0  0  0  0  0  0  0  0  0
    2.3023    5.8588   -2.0789 H   0  0  0  0  0  0  0  0  0  0  0  0
    3.7162    5.4611   -3.0814 H   0  0  0  0  0  0  0  0  0  0  0  0
    0.7848   -1.0160   -0.9304 H   0  0  0  0  0  0  0  0  0  0  0  0
    1.2348   -0.8836    0.8300 H   0  0  0  0  0  0  0  0  0  0  0  0
    2.9819    3.1823    0.6738 H   0  0  0  0  0  0  0  0  0  0  0  0
    5.5411   -0.1577    0.3928 H   0  0  0  0  0  0  0  0  0  0  0  0
    4.3974    4.1271    2.3421 H   0  0  0  0  0  0  0  0  0  0  0  0
    6.9647    0.8074    2.0500 H   0  0  0  0  0  0  0  0  0  0  0  0
  1  2  1  0  0  0  0 
  1  3  1  0  0  0  0 
  1  4  1  0  0  0  0 
  2  5  1  0  0  0  0 
  3  6  1  0  0  0  0 
  3  7  1  0  0  0  0 
  4  8  1  0  0  0  0 
  4  9  1  0  0  0  0 
  4 10  1  0  0  0  0 
  5 11  1  0  0  0  0 
  5 12  1  0  0  0  0 
  8 13  1  0  0  0  0 
  9 13  1  0  0  0  0 
 10 14  2  0  0  0  0 
 10 15  1  0  0  0  0 
 14 16  1  0  0  0  0 
 15 17  2  0  0  0  0 
 16 18  2  0  0  0  0 
 17 18  1  0  0  0  0 
 18 19  1  0  0  0  0 
  1 20  1  0  0  0  0 
  2 21  1  0  0  0  0 
  2 22  1  0  0  0  0 
  5 23  1  0  0  0  0 
  6 24  1  0  0  0  0 
  6 25  1  0  0  0  0 
  6 26  1  0  0  0  0 
  7 27  1  0  0  0  0 
  7 28  1  0  0  0  0 
  7 29  1  0  0  0  0 
  8 30  1  0  0  0  0 
  8 31  1  0  0  0  0 
  9 32  1  0  0  0  0 
  9 33  1  0  0  0  0 
 11 34  1  0  0  0  0 
 11 35  1  0  0  0  0 
 11 36  1  0  0  0  0 
 12 37  1  0  0  0  0 
 12 38  1  0  0  0  0 
 12 39  1  0  0  0  0 
 13 40  1  0  0  0  0 
 13 41  1  0  0  0  0 
 14 42  1  0  0  0  0 
 15 43  1  0  0  0  0 
 16 44  1  0  0  0  0 
 17 45  1  0  0  0  0 
M  END
> <cdk:Title>
sibutramine

> <Conformer>
1

> <SuperDrugID>
SD002194

$$$$
