nafamostat
  CDK     0628171801

 43 45  0  0  0  0  0  0  0  0999 V2000
    3.6176    1.5799    4.7924 C   0  0  0  0  0  0  0  0  0  0  0  0
    4.0197    1.7286    5.9990 N   0  0  0  0  0  0  0  0  0  0  0  0
    2.3076    1.6276    4.6362 N   0  0  0  0  0  0  0  0  0  0  0  0
    4.5129    1.3854    3.7318 C   0  0  0  0  0  0  0  0  0  0  0  0
    4.1097    1.5050    2.3738 C   0  0  0  0  0  0  0  0  0  0  0  0
    5.8702    1.0632    3.9889 C   0  0  0  0  0  0  0  0  0  0  0  0
    5.0234    1.3294    1.3077 C   0  0  0  0  0  0  0  0  0  0  0  0
    6.7871    0.8709    2.9443 C   0  0  0  0  0  0  0  0  0  0  0  0
    6.3762    1.0038    1.6023 C   0  0  0  0  0  0  0  0  0  0  0  0
    4.6273    1.4805   -0.0441 C   0  0  0  0  0  0  0  0  0  0  0  0
    7.2975    0.8334    0.5486 C   0  0  0  0  0  0  0  0  0  0  0  0
    5.5629    1.3376   -1.0868 C   0  0  0  0  0  0  0  0  0  0  0  0
    6.9037    1.0260   -0.7889 C   0  0  0  0  0  0  0  0  0  0  0  0
    7.8682    0.9390   -1.7466 O   0  0  0  0  0  0  0  0  0  0  0  0
    8.3676    2.0461   -2.3660 C   0  0  0  0  0  0  0  0  0  0  0  0
    7.6831    2.5674   -3.2779 O   0  0  0  0  0  0  0  0  0  0  0  0
    9.6206    2.5830   -1.9550 C   0  0  0  0  0  0  0  0  0  0  0  0
   10.4543    1.8655   -1.0635 C   0  0  0  0  0  0  0  0  0  0  0  0
   10.0584    3.8602   -2.3824 C   0  0  0  0  0  0  0  0  0  0  0  0
   11.6463    2.4251   -0.5732 C   0  0  0  0  0  0  0  0  0  0  0  0
   11.2640    4.4147   -1.9084 C   0  0  0  0  0  0  0  0  0  0  0  0
   12.0592    3.7128   -0.9720 C   0  0  0  0  0  0  0  0  0  0  0  0
   13.1955    4.1446   -0.4291 N   0  0  0  0  0  0  0  0  0  0  0  0
   13.7223    5.2975   -0.2209 C   0  0  0  0  0  0  0  0  0  0  0  0
   13.1653    6.4592   -0.4964 N   0  0  0  0  0  0  0  0  0  0  0  0
   14.9013    5.2985    0.3576 N   0  0  0  0  0  0  0  0  0  0  0  0
    3.4096    1.8588    6.6931 H   0  0  0  0  0  0  0  0  0  0  0  0
    1.7344    1.7328    5.4114 H   0  0  0  0  0  0  0  0  0  0  0  0
    1.9053    1.5558    3.7581 H   0  0  0  0  0  0  0  0  0  0  0  0
    3.1387    1.7363    2.1472 H   0  0  0  0  0  0  0  0  0  0  0  0
    6.2146    0.9612    4.9491 H   0  0  0  0  0  0  0  0  0  0  0  0
    7.7578    0.6380    3.1753 H   0  0  0  0  0  0  0  0  0  0  0  0
    3.6567    1.7026   -0.2810 H   0  0  0  0  0  0  0  0  0  0  0  0
    8.2710    0.5948    0.7533 H   0  0  0  0  0  0  0  0  0  0  0  0
    5.2698    1.4624   -2.0595 H   0  0  0  0  0  0  0  0  0  0  0  0
   10.2040    0.9244   -0.7528 H   0  0  0  0  0  0  0  0  0  0  0  0
    9.4979    4.4067   -3.0418 H   0  0  0  0  0  0  0  0  0  0  0  0
   12.2090    1.8826    0.0908 H   0  0  0  0  0  0  0  0  0  0  0  0
   11.5535    5.3259   -2.2652 H   0  0  0  0  0  0  0  0  0  0  0  0
   13.6435    7.2812   -0.3031 H   0  0  0  0  0  0  0  0  0  0  0  0
   12.2757    6.5028   -0.8761 H   0  0  0  0  0  0  0  0  0  0  0  0
   15.3388    6.1361    0.5767 H   0  0  0  0  0  0  0  0  0  0  0  0
   15.3352    4.4573    0.5764 H   0  0  0  0  0  0  0  0  0  0  0  0
  1  2  2  0  0  0  0 
  1  3  1  0  0  0  0 
  1  4  1  0  0  0  0 
  4  5  1  0  0  0  0 
  4  6  2  0  0  0  0 
  5  7  2  0  0  0  0 
  6  8  1  0  0  0  0 
  7  9  1  0  0  0  0 
  7 10  1  0  0  0  0 
  8  9  2  0  0  0  0 
  9 11  1  0  0  0  0 
 10 12  2  0  0  0  0 
 11 13  2  0  0  0  0 
 12 13  1  0  0  0  0 
 13 14  1  0  0  0  0 
 14 15  1  0  0  0  0 
 15 16  2  0  0  0  0 
 15 17  1  0  0  0  0 
 17 18  2  0  0  0  0 
 17 19  1  0  0  0  0 
 18 20  1  0  0  0  0 
 19 21  2  0  0  0  0 
 20 22  2  0  0  0  0 
 21 22  1  0  0  0  0 
 22 23  1  0  0  0  0 
 23 24  2  0  0  0  0 
 24 25  1  0  0  0  0 
 24 26  1  0  0  0  0 
 27  2  1  0  0  0  0 
 28  3  1  0  0  0  0 
 29  3  1  0  0  0  0 
 30  5  1  0  0  0  0 
 31  6  1  0  0  0  0 
 32  8  1  0  0  0  0 
 33 10  1  0  0  0  0 
 34 11  1  0  0  0  0 
 35 12  1  0  0  0  0 
 36 18  1  0  0  0  0 
 37 19  1  0  0  0  0 
 38 20  1  0  0  0  0 
 39 21  1  0  0  0  0 
 40 25  1  0  0  0  0 
 41 25  1  0  0  0  0 
 42 26  1  0  0  0  0 
 43 26  1  0  0  0  0 
M  END
> <cdk:Title>
nafamostat

> <Conformer>
1

> <SuperDrugID>
SD001663

$$$$
