ipragliflozin
  CDK     0628171802

 49 52  0  0  0  0  0  0  0  0999 V2000
   -2.7987   -2.0886   -6.2134 C   0  0  0  0  0  0  0  0  0  0  0  0
   -3.3233   -1.8817   -7.5076 C   0  0  0  0  0  0  0  0  0  0  0  0
   -3.7930   -0.6079   -7.8948 C   0  0  0  0  0  0  0  0  0  0  0  0
   -3.7400    0.4763   -6.9960 C   0  0  0  0  0  0  0  0  0  0  0  0
   -3.2133    0.2483   -5.7146 C   0  0  0  0  0  0  0  0  0  0  0  0
   -2.7489   -1.0129   -5.3044 C   0  0  0  0  0  0  0  0  0  0  0  0
   -3.0016    1.3470   -4.3664 S   0  0  0  0  0  0  0  0  0  0  0  0
   -2.2767   -1.0641   -3.9760 C   0  0  0  0  0  0  0  0  0  0  0  0
   -2.3444    0.1440   -3.2652 C   0  0  0  0  0  0  0  0  0  0  0  0
   -1.9659    0.3816   -1.8589 C   0  0  2  0  0  0  0  0  0  0  0  0
   -0.5438    0.8086   -1.7345 C   0  0  0  0  0  0  0  0  0  0  0  0
   -0.1759    2.1511   -1.4744 C   0  0  0  0  0  0  0  0  0  0  0  0
    1.1781    2.4962   -1.3188 C   0  0  0  0  0  0  0  0  0  0  0  0
    2.1761    1.5162   -1.4434 C   0  0  0  0  0  0  0  0  0  0  0  0
    1.8558    0.1772   -1.7654 C   0  0  0  0  0  0  0  0  0  0  0  0
    0.4826   -0.1570   -1.8752 C   0  0  0  0  0  0  0  0  0  0  0  0
   -1.0687    3.1013   -1.3771 F   0  0  0  0  0  0  0  0  0  0  0  0
    2.9829   -0.7983   -1.9417 C   0  0  1  0  0  0  0  0  0  0  0  0
    2.6871   -2.2479   -2.4481 C   0  0  1  0  0  0  0  0  0  0  0  0
    2.4645   -2.3063   -3.9872 C   0  0  2  0  0  0  0  0  0  0  0  0
    3.6012   -1.5916   -4.7696 C   0  0  1  0  0  0  0  0  0  0  0  0
    3.9633   -0.1980   -4.1674 C   0  0  2  0  0  0  0  0  0  0  0  0
    4.0734   -0.2377   -2.7200 O   0  0  0  0  0  0  0  0  0  0  0  0
    3.7921   -3.0842   -2.1007 O   0  0  0  0  0  0  0  0  0  0  0  0
    1.2056   -1.7367   -4.3393 O   0  0  0  0  0  0  0  0  0  0  0  0
    4.7659   -2.4166   -4.7833 O   0  0  0  0  0  0  0  0  0  0  0  0
    3.0900    0.9701   -4.7022 C   0  0  2  0  0  0  0  0  0  0  0  0
    3.5552    2.2096   -4.1807 O   0  0  0  0  0  0  0  0  0  0  0  0
   -2.4614   -3.0159   -5.9406 H   0  0  0  0  0  0  0  0  0  0  0  0
   -3.3640   -2.6603   -8.1676 H   0  0  0  0  0  0  0  0  0  0  0  0
   -4.1741   -0.4707   -8.8324 H   0  0  0  0  0  0  0  0  0  0  0  0
   -4.0759    1.4022   -7.2660 H   0  0  0  0  0  0  0  0  0  0  0  0
   -1.9176   -1.9245   -3.5560 H   0  0  0  0  0  0  0  0  0  0  0  0
   -2.1240   -0.5299   -1.2761 H   0  0  0  0  0  0  0  0  0  0  0  0
   -2.6468    1.1271   -1.4439 H   0  0  0  0  0  0  0  0  0  0  0  0
    1.4454    3.4638   -1.1176 H   0  0  0  0  0  0  0  0  0  0  0  0
    3.1519    1.7972   -1.3121 H   0  0  0  0  0  0  0  0  0  0  0  0
    0.2049   -1.1235   -2.0462 H   0  0  0  0  0  0  0  0  0  0  0  0
    3.3866   -0.9097   -0.9305 H   0  0  0  0  0  0  0  0  0  0  0  0
    1.8300   -2.6790   -1.9271 H   0  0  0  0  0  0  0  0  0  0  0  0
    2.4239   -3.3555   -4.2959 H   0  0  0  0  0  0  0  0  0  0  0  0
    3.2995   -1.4835   -5.8145 H   0  0  0  0  0  0  0  0  0  0  0  0
    4.9778    0.0388   -4.5050 H   0  0  0  0  0  0  0  0  0  0  0  0
    4.5761   -2.6596   -2.5064 H   0  0  0  0  0  0  0  0  0  0  0  0
    1.1108   -1.8881   -5.3019 H   0  0  0  0  0  0  0  0  0  0  0  0
    5.3946   -1.9501   -5.3754 H   0  0  0  0  0  0  0  0  0  0  0  0
    2.0419    0.8449   -4.4336 H   0  0  0  0  0  0  0  0  0  0  0  0
    3.1639    1.0222   -5.7909 H   0  0  0  0  0  0  0  0  0  0  0  0
    2.9618    2.8869   -4.5716 H   0  0  0  0  0  0  0  0  0  0  0  0
  1  2  1  0  0  0  0 
  1  6  2  0  0  0  0 
  2  3  2  0  0  0  0 
  3  4  1  0  0  0  0 
  4  5  2  0  0  0  0 
  5  6  1  0  0  0  0 
  8  9  2  0  0  0  0 
  7  9  1  0  0  0  0 
  7  5  1  0  0  0  0 
  6  8  1  0  0  0  0 
  9 10  1  0  0  0  0 
 10 11  1  0  0  0  0 
 12 13  1  0  0  0  0 
 13 14  2  0  0  0  0 
 14 15  1  0  0  0  0 
 15 16  2  0  0  0  0 
 11 12  2  0  0  0  0 
 11 16  1  0  0  0  0 
 12 17  1  0  0  0  0 
 18 15  1  0  0  0  0 
 19 20  1  0  0  0  0 
 20 21  1  0  0  0  0 
 21 22  1  0  0  0  0 
 22 23  1  0  0  0  0 
 18 19  1  0  0  0  0 
 18 23  1  0  0  0  0 
 19 24  1  0  0  0  0 
 20 25  1  0  0  0  0 
 21 26  1  0  0  0  0 
 22 27  1  0  0  0  0 
 27 28  1  0  0  0  0 
  1 29  1  0  0  0  0 
  2 30  1  0  0  0  0 
  3 31  1  0  0  0  0 
  4 32  1  0  0  0  0 
  8 33  1  0  0  0  0 
 10 34  1  0  0  0  0 
 10 35  1  0  0  0  0 
 13 36  1  0  0  0  0 
 14 37  1  0  0  0  0 
 16 38  1  0  0  0  0 
 18 39  1  0  0  0  0 
 19 40  1  0  0  0  0 
 20 41  1  0  0  0  0 
 21 42  1  0  0  0  0 
 22 43  1  0  0  0  0 
 24 44  1  0  0  0  0 
 25 45  1  0  0  0  0 
 26 46  1  0  0  0  0 
 27 47  1  0  0  0  0 
 27 48  1  0  0  0  0 
 28 49  1  0  0  0  0 
M  END
> <cdk:Title>
ipragliflozin

> <Conformer>
1

> <SuperDrugID>
SD003828

$$$$
