butazolamide
  CDK     0628171801

 25 25  0  0  0  0  0  0  0  0999 V2000
    1.4141   -3.6818    3.1124 N   0  0  0  0  0  0  0  0  0  0  0  0
    2.0384   -3.7787    4.3220 C   0  0  0  0  0  0  0  0  0  0  0  0
    0.7848   -2.5823    2.6274 C   0  0  0  0  0  0  0  0  0  0  0  0
    2.7359   -5.0322    4.6875 C   0  0  2  0  0  0  0  0  0  0  0  0
    2.0491   -2.8261    5.1390 O   0  0  0  0  0  0  0  0  0  0  0  0
    0.0188   -2.4365    1.0554 S   0  0  0  0  0  0  0  0  0  0  0  0
    0.6063   -1.3731    3.2111 N   0  0  0  0  0  0  0  0  0  0  0  0
    3.8674   -5.3870    3.6867 C   0  0  1  0  0  0  0  0  0  0  0  0
   -0.4829   -0.7752    1.3086 C   0  0  0  0  0  0  0  0  0  0  0  0
   -0.0434   -0.4475    2.5417 N   0  0  0  0  0  0  0  0  0  0  0  0
    4.6884   -6.6266    4.1088 C   0  0  0  0  0  0  0  0  0  0  0  0
   -1.4037    0.2497    0.2110 S   0  0  1  0  0  0  0  0  0  0  0  0
   -3.0128   -0.4241    0.0101 N   0  0  2  0  0  0  0  0  0  0  0  0
   -1.5375    1.7314    0.8102 O   0  0  0  0  0  0  0  0  0  0  0  0
   -0.6907    0.3164   -1.2244 O   0  0  0  0  0  0  0  0  0  0  0  0
    1.4279   -4.4658    2.5400 H   0  0  0  0  0  0  0  0  0  0  0  0
    2.0062   -5.8448    4.7192 H   0  0  0  0  0  0  0  0  0  0  0  0
    3.1662   -4.9361    5.6888 H   0  0  0  0  0  0  0  0  0  0  0  0
    3.4325   -5.5858    2.7042 H   0  0  0  0  0  0  0  0  0  0  0  0
    4.5492   -4.5382    3.5881 H   0  0  0  0  0  0  0  0  0  0  0  0
    4.0400   -7.5000    4.2100 H   0  0  0  0  0  0  0  0  0  0  0  0
    5.1962   -6.4485    5.0597 H   0  0  0  0  0  0  0  0  0  0  0  0
    5.4423   -6.8379    3.3475 H   0  0  0  0  0  0  0  0  0  0  0  0
   -3.5129    0.1845   -0.6400 H   0  0  0  0  0  0  0  0  0  0  0  0
   -3.4811   -0.3375    0.9143 H   0  0  0  0  0  0  0  0  0  0  0  0
  1  2  1  0  0  0  0 
  1  3  1  0  0  0  0 
  2  4  1  0  0  0  0 
  2  5  2  0  0  0  0 
  3  6  1  0  0  0  0 
  3  7  2  0  0  0  0 
  4  8  1  0  0  0  0 
  6  9  1  0  0  0  0 
  7 10  1  0  0  0  0 
  8 11  1  0  0  0  0 
  9 10  2  0  0  0  0 
  9 12  1  0  0  0  0 
 12 13  1  0  0  0  0 
 12 14  2  0  0  0  0 
 12 15  2  0  0  0  0 
  1 16  1  0  0  0  0 
  4 17  1  0  0  0  0 
  4 18  1  0  0  0  0 
  8 19  1  0  0  0  0 
  8 20  1  0  0  0  0 
 11 21  1  0  0  0  0 
 11 22  1  0  0  0  0 
 11 23  1  0  0  0  0 
 13 24  1  0  0  0  0 
 13 25  1  0  0  0  0 
M  END
> <cdk:Title>
butazolamide

> <Conformer>
1

> <SuperDrugID>
SD003158

$$$$
