saroglitazar
  CDK     0628171802

 60 62  0  0  0  0  0  0  0  0999 V2000
    1.7409   -5.3217   -1.1204 C   0  0  0  0  0  0  0  0  0  0  0  0
    2.5005   -5.6174   -2.2707 C   0  0  0  0  0  0  0  0  0  0  0  0
    1.8389   -5.9867   -3.4577 C   0  0  0  0  0  0  0  0  0  0  0  0
    0.4341   -6.0095   -3.5123 C   0  0  0  0  0  0  0  0  0  0  0  0
   -0.3389   -5.6650   -2.3772 C   0  0  0  0  0  0  0  0  0  0  0  0
    0.3367   -5.3598   -1.1725 C   0  0  0  0  0  0  0  0  0  0  0  0
   -1.8289   -5.6045   -2.4307 C   0  0  2  0  0  0  0  0  0  0  0  0
    3.8704   -5.5733   -2.2677 O   0  0  0  0  0  0  0  0  0  0  0  0
    4.4346   -4.2437   -2.2605 C   0  0  2  0  0  0  0  0  0  0  0  0
    4.1452   -3.4136   -3.5416 C   0  0  2  0  0  0  0  0  0  0  0  0
    4.6882   -2.0819   -3.4339 N   0  0  0  0  0  0  0  0  0  0  0  0
    4.1397   -1.0573   -2.7212 C   0  0  0  0  0  0  0  0  0  0  0  0
    4.9930    0.0391   -2.8099 C   0  0  0  0  0  0  0  0  0  0  0  0
    6.0630   -0.3308   -3.6035 C   0  0  0  0  0  0  0  0  0  0  0  0
    5.8571   -1.6543   -3.9840 C   0  0  0  0  0  0  0  0  0  0  0  0
    2.9237   -1.0252   -1.9907 C   0  0  0  0  0  0  0  0  0  0  0  0
    1.6796   -1.1442   -2.6503 C   0  0  0  0  0  0  0  0  0  0  0  0
    0.4768   -1.0636   -1.9247 C   0  0  0  0  0  0  0  0  0  0  0  0
    0.4934   -0.8819   -0.5282 C   0  0  0  0  0  0  0  0  0  0  0  0
    1.7303   -0.7621    0.1367 C   0  0  0  0  0  0  0  0  0  0  0  0
    2.9349   -0.8276   -0.5897 C   0  0  0  0  0  0  0  0  0  0  0  0
   -1.0247   -0.7881    0.3535 S   0  0  0  0  0  0  0  0  0  0  0  0
   -0.9925   -2.2183    1.4798 C   0  0  0  0  0  0  0  0  0  0  0  0
    6.7963   -2.4329   -4.8197 C   0  0  0  0  0  0  0  0  0  0  0  0
   -2.3945   -4.1485   -2.3110 C   0  0  1  0  0  0  0  0  0  0  0  0
   -2.1268   -3.2811   -3.4824 C   0  0  0  0  0  0  0  0  0  0  0  0
   -3.8313   -4.1538   -2.1444 O   0  0  0  0  0  0  0  0  0  0  0  0
   -4.3136   -4.3845   -0.8047 C   0  0  2  0  0  0  0  0  0  0  0  0
   -5.8117   -4.0446   -0.7500 C   0  0  0  0  0  0  0  0  0  0  0  0
   -1.3307   -3.6604   -4.5076 O   0  0  0  0  0  0  0  0  0  0  0  0
   -2.6323   -2.1362   -3.5327 O   0  0  0  0  0  0  0  0  0  0  0  0
    2.2056   -5.0714   -0.2449 H   0  0  0  0  0  0  0  0  0  0  0  0
    2.3849   -6.2290   -4.2874 H   0  0  0  0  0  0  0  0  0  0  0  0
   -0.0197   -6.2687   -4.3918 H   0  0  0  0  0  0  0  0  0  0  0  0
   -0.1943   -5.1571   -0.3231 H   0  0  0  0  0  0  0  0  0  0  0  0
   -2.2105   -6.2183   -1.6110 H   0  0  0  0  0  0  0  0  0  0  0  0
   -2.2121   -6.0551   -3.3523 H   0  0  0  0  0  0  0  0  0  0  0  0
    5.5172   -4.3681   -2.1818 H   0  0  0  0  0  0  0  0  0  0  0  0
    4.1125   -3.7003   -1.3687 H   0  0  0  0  0  0  0  0  0  0  0  0
    3.0722   -3.3483   -3.7268 H   0  0  0  0  0  0  0  0  0  0  0  0
    4.5668   -3.9555   -4.3918 H   0  0  0  0  0  0  0  0  0  0  0  0
    4.8568    0.9542   -2.3760 H   0  0  0  0  0  0  0  0  0  0  0  0
    6.8580    0.2607   -3.8542 H   0  0  0  0  0  0  0  0  0  0  0  0
    1.6368   -1.2732   -3.6649 H   0  0  0  0  0  0  0  0  0  0  0  0
   -0.4106   -1.1323   -2.4201 H   0  0  0  0  0  0  0  0  0  0  0  0
    1.7623   -0.6228    1.1491 H   0  0  0  0  0  0  0  0  0  0  0  0
    3.8207   -0.7321   -0.0862 H   0  0  0  0  0  0  0  0  0  0  0  0
   -1.9166   -2.2517    2.0561 H   0  0  0  0  0  0  0  0  0  0  0  0
   -0.1480   -2.1339    2.1626 H   0  0  0  0  0  0  0  0  0  0  0  0
   -0.9000   -3.1363    0.9025 H   0  0  0  0  0  0  0  0  0  0  0  0
    7.6639   -1.8359   -5.1043 H   0  0  0  0  0  0  0  0  0  0  0  0
    7.1444   -3.3020   -4.2609 H   0  0  0  0  0  0  0  0  0  0  0  0
    6.2958   -2.7681   -5.7287 H   0  0  0  0  0  0  0  0  0  0  0  0
   -1.9250   -3.6442   -1.4601 H   0  0  0  0  0  0  0  0  0  0  0  0
   -3.7939   -3.7534   -0.0763 H   0  0  0  0  0  0  0  0  0  0  0  0
   -4.1768   -5.4330   -0.5321 H   0  0  0  0  0  0  0  0  0  0  0  0
   -6.3555   -4.6552   -1.4721 H   0  0  0  0  0  0  0  0  0  0  0  0
   -6.2020   -4.2427    0.2498 H   0  0  0  0  0  0  0  0  0  0  0  0
   -5.9640   -2.9893   -0.9859 H   0  0  0  0  0  0  0  0  0  0  0  0
   -1.1563   -3.0473   -5.2508 H   0  0  0  0  0  0  0  0  0  0  0  0
  1  2  2  0  0  0  0 
  1  6  1  0  0  0  0 
  2  3  1  0  0  0  0 
  3  4  2  0  0  0  0 
  4  5  1  0  0  0  0 
  5  6  2  0  0  0  0 
  5  7  1  0  0  0  0 
  2  8  1  0  0  0  0 
  8  9  1  0  0  0  0 
  9 10  1  0  0  0  0 
 10 11  1  0  0  0  0 
 12 13  2  0  0  0  0 
 13 14  1  0  0  0  0 
 14 15  2  0  0  0  0 
 11 12  1  0  0  0  0 
 11 15  1  0  0  0  0 
 12 16  1  0  0  0  0 
 17 18  1  0  0  0  0 
 18 19  2  0  0  0  0 
 19 20  1  0  0  0  0 
 20 21  2  0  0  0  0 
 16 17  2  0  0  0  0 
 16 21  1  0  0  0  0 
 19 22  1  0  0  0  0 
 22 23  1  0  0  0  0 
 15 24  1  0  0  0  0 
  7 25  1  0  0  0  0 
 25 26  1  0  0  0  0 
 25 27  1  0  0  0  0 
 27 28  1  0  0  0  0 
 28 29  1  0  0  0  0 
 26 30  1  0  0  0  0 
 26 31  2  0  0  0  0 
  1 32  1  0  0  0  0 
  3 33  1  0  0  0  0 
  4 34  1  0  0  0  0 
  6 35  1  0  0  0  0 
  7 36  1  0  0  0  0 
  7 37  1  0  0  0  0 
  9 38  1  0  0  0  0 
  9 39  1  0  0  0  0 
 10 40  1  0  0  0  0 
 10 41  1  0  0  0  0 
 13 42  1  0  0  0  0 
 14 43  1  0  0  0  0 
 17 44  1  0  0  0  0 
 18 45  1  0  0  0  0 
 20 46  1  0  0  0  0 
 21 47  1  0  0  0  0 
 23 48  1  0  0  0  0 
 23 49  1  0  0  0  0 
 23 50  1  0  0  0  0 
 24 51  1  0  0  0  0 
 24 52  1  0  0  0  0 
 24 53  1  0  0  0  0 
 25 54  1  0  0  0  0 
 28 55  1  0  0  0  0 
 28 56  1  0  0  0  0 
 29 57  1  0  0  0  0 
 29 58  1  0  0  0  0 
 29 59  1  0  0  0  0 
 30 60  1  0  0  0  0 
M  END
> <cdk:Title>
saroglitazar

> <Conformer>
1

> <SuperDrugID>
SD003885

$$$$
