hexyldecanoic acid
  CDK     0628171801

 50 49  0  0  0  0  0  0  0  0999 V2000
    1.3181    5.2813    1.4018 C   0  0  1  0  0  0  0  0  0  0  0  0
   -0.0663    5.9931    1.2500 C   0  0  2  0  0  0  0  0  0  0  0  0
    2.1984    5.4367    0.1198 C   0  0  1  0  0  0  0  0  0  0  0  0
    2.0396    5.7484    2.6144 C   0  0  0  0  0  0  0  0  0  0  0  0
   -1.0202    5.7707    2.4608 C   0  0  2  0  0  0  0  0  0  0  0  0
    3.5444    4.6579    0.1822 C   0  0  1  0  0  0  0  0  0  0  0  0
    2.2574    4.8966    3.6440 O   0  0  0  0  0  0  0  0  0  0  0  0
    2.4521    6.9276    2.7155 O   0  0  0  0  0  0  0  0  0  0  0  0
   -2.3917    6.4867    2.3198 C   0  0  1  0  0  0  0  0  0  0  0  0
    4.4022    4.8161   -1.1004 C   0  0  1  0  0  0  0  0  0  0  0  0
   -3.2671    6.3423    3.5971 C   0  0  1  0  0  0  0  0  0  0  0  0
    5.7699    4.0900   -0.9897 C   0  0  1  0  0  0  0  0  0  0  0  0
   -4.6322    7.0781    3.5042 C   0  0  1  0  0  0  0  0  0  0  0  0
    6.6362    4.2625   -2.2641 C   0  0  2  0  0  0  0  0  0  0  0  0
   -5.4777    6.9236    4.8005 C   0  0  2  0  0  0  0  0  0  0  0  0
    8.0083    3.5624   -2.1548 C   0  0  0  0  0  0  0  0  0  0  0  0
   -6.8527    7.6421    4.7317 C   0  0  2  0  0  0  0  0  0  0  0  0
   -7.6826    7.4630    6.0245 C   0  0  0  0  0  0  0  0  0  0  0  0
    1.1131    4.2132    1.5226 H   0  0  0  0  0  0  0  0  0  0  0  0
   -0.5609    5.6087    0.3523 H   0  0  0  0  0  0  0  0  0  0  0  0
    0.0877    7.0686    1.1086 H   0  0  0  0  0  0  0  0  0  0  0  0
    1.6309    5.0679   -0.7398 H   0  0  0  0  0  0  0  0  0  0  0  0
    2.4064    6.4986   -0.0535 H   0  0  0  0  0  0  0  0  0  0  0  0
   -0.5343    6.1423    3.3666 H   0  0  0  0  0  0  0  0  0  0  0  0
   -1.1926    4.6966    2.5828 H   0  0  0  0  0  0  0  0  0  0  0  0
    4.1302    5.0185    1.0321 H   0  0  0  0  0  0  0  0  0  0  0  0
    3.3314    3.5958    0.3400 H   0  0  0  0  0  0  0  0  0  0  0  0
    2.7206    5.1984    4.4531 H   0  0  0  0  0  0  0  0  0  0  0  0
   -2.2228    7.5489    2.1255 H   0  0  0  0  0  0  0  0  0  0  0  0
   -2.9310    6.0666    1.4663 H   0  0  0  0  0  0  0  0  0  0  0  0
    3.8495    4.4108   -1.9522 H   0  0  0  0  0  0  0  0  0  0  0  0
    4.5813    5.8789   -1.2840 H   0  0  0  0  0  0  0  0  0  0  0  0
   -3.4503    5.2799    3.7826 H   0  0  0  0  0  0  0  0  0  0  0  0
   -2.7126    6.7418    4.4508 H   0  0  0  0  0  0  0  0  0  0  0  0
    6.3184    4.4879   -0.1315 H   0  0  0  0  0  0  0  0  0  0  0  0
    5.5964    3.0244   -0.8161 H   0  0  0  0  0  0  0  0  0  0  0  0
   -4.4531    8.1409    3.3206 H   0  0  0  0  0  0  0  0  0  0  0  0
   -5.1970    6.6758    2.6586 H   0  0  0  0  0  0  0  0  0  0  0  0
    6.8032    5.3268   -2.4471 H   0  0  0  0  0  0  0  0  0  0  0  0
    6.1018    3.8504   -3.1239 H   0  0  0  0  0  0  0  0  0  0  0  0
   -4.9115    7.3310    5.6430 H   0  0  0  0  0  0  0  0  0  0  0  0
   -5.6466    5.8594    4.9877 H   0  0  0  0  0  0  0  0  0  0  0  0
    8.5754    3.7183   -3.0742 H   0  0  0  0  0  0  0  0  0  0  0  0
    8.5792    3.9727   -1.3200 H   0  0  0  0  0  0  0  0  0  0  0  0
    7.8783    2.4894   -2.0036 H   0  0  0  0  0  0  0  0  0  0  0  0
   -7.4289    7.2466    3.8911 H   0  0  0  0  0  0  0  0  0  0  0  0
   -6.6969    8.7112    4.5634 H   0  0  0  0  0  0  0  0  0  0  0  0
   -7.1490    7.8791    6.8811 H   0  0  0  0  0  0  0  0  0  0  0  0
   -7.8782    6.4050    6.2086 H   0  0  0  0  0  0  0  0  0  0  0  0
   -8.6385    7.9805    5.9264 H   0  0  0  0  0  0  0  0  0  0  0  0
  1  2  1  0  0  0  0 
  1  3  1  0  0  0  0 
  1  4  1  0  0  0  0 
  2  5  1  0  0  0  0 
  3  6  1  0  0  0  0 
  4  7  1  0  0  0  0 
  4  8  2  0  0  0  0 
  5  9  1  0  0  0  0 
  6 10  1  0  0  0  0 
  9 11  1  0  0  0  0 
 10 12  1  0  0  0  0 
 11 13  1  0  0  0  0 
 12 14  1  0  0  0  0 
 13 15  1  0  0  0  0 
 14 16  1  0  0  0  0 
 15 17  1  0  0  0  0 
 17 18  1  0  0  0  0 
  1 19  1  0  0  0  0 
  2 20  1  0  0  0  0 
  2 21  1  0  0  0  0 
  3 22  1  0  0  0  0 
  3 23  1  0  0  0  0 
  5 24  1  0  0  0  0 
  5 25  1  0  0  0  0 
  6 26  1  0  0  0  0 
  6 27  1  0  0  0  0 
  7 28  1  0  0  0  0 
  9 29  1  0  0  0  0 
  9 30  1  0  0  0  0 
 10 31  1  0  0  0  0 
 10 32  1  0  0  0  0 
 11 33  1  0  0  0  0 
 11 34  1  0  0  0  0 
 12 35  1  0  0  0  0 
 12 36  1  0  0  0  0 
 13 37  1  0  0  0  0 
 13 38  1  0  0  0  0 
 14 39  1  0  0  0  0 
 14 40  1  0  0  0  0 
 15 41  1  0  0  0  0 
 15 42  1  0  0  0  0 
 16 43  1  0  0  0  0 
 16 44  1  0  0  0  0 
 16 45  1  0  0  0  0 
 17 46  1  0  0  0  0 
 17 47  1  0  0  0  0 
 18 48  1  0  0  0  0 
 18 49  1  0  0  0  0 
 18 50  1  0  0  0  0 
M  END
> <cdk:Title>
hexyldecanoic acid

> <Conformer>
1

> <SuperDrugID>
SD002833

$$$$
