ibopamine
  CDK     0628171801

 47 47  0  0  0  0  0  0  0  0999 V2000
    2.8603   -6.0215    2.7216 O   0  0  0  0  0  0  0  0  0  0  0  0
    4.1390   -6.4951    2.8403 C   0  0  0  0  0  0  0  0  0  0  0  0
    2.2932   -4.8669    2.2509 C   0  0  0  0  0  0  0  0  0  0  0  0
    4.3272   -7.8062    3.5087 C   0  0  2  0  0  0  0  0  0  0  0  0
    5.1425   -5.8471    2.4612 O   0  0  0  0  0  0  0  0  0  0  0  0
    0.8821   -4.7496    2.3390 C   0  0  0  0  0  0  0  0  0  0  0  0
    3.0388   -3.7819    1.7369 C   0  0  0  0  0  0  0  0  0  0  0  0
    4.9595   -7.5998    4.9104 C   0  0  0  0  0  0  0  0  0  0  0  0
    5.1354   -8.8210    2.6518 C   0  0  0  0  0  0  0  0  0  0  0  0
    0.0480   -5.7427    2.7966 O   0  0  0  0  0  0  0  0  0  0  0  0
    0.2600   -3.5351    1.9810 C   0  0  0  0  0  0  0  0  0  0  0  0
    2.4051   -2.5903    1.3516 C   0  0  0  0  0  0  0  0  0  0  0  0
    0.1172   -7.1071    2.6682 C   0  0  0  0  0  0  0  0  0  0  0  0
    1.0063   -2.4452    1.4735 C   0  0  0  0  0  0  0  0  0  0  0  0
   -0.8561   -7.9696    3.3854 C   0  0  1  0  0  0  0  0  0  0  0  0
    0.9336   -7.6482    1.8850 O   0  0  0  0  0  0  0  0  0  0  0  0
    0.3457   -1.1634    1.1013 C   0  0  2  0  0  0  0  0  0  0  0  0
   -0.8445   -7.7050    4.9148 C   0  0  0  0  0  0  0  0  0  0  0  0
   -2.2775   -7.8245    2.7819 C   0  0  0  0  0  0  0  0  0  0  0  0
   -0.6087   -1.2645   -0.1133 C   0  0  2  0  0  0  0  0  0  0  0  0
   -1.1089    0.0915   -0.4319 N   0  0  2  0  0  0  0  0  0  0  0  0
   -2.0306    0.1718   -1.5805 C   0  0  0  0  0  0  0  0  0  0  0  0
    3.3376   -8.2446    3.6690 H   0  0  0  0  0  0  0  0  0  0  0  0
    4.0512   -3.8359    1.6480 H   0  0  0  0  0  0  0  0  0  0  0  0
    5.0203   -8.5495    5.4456 H   0  0  0  0  0  0  0  0  0  0  0  0
    5.9658   -7.1850    4.8206 H   0  0  0  0  0  0  0  0  0  0  0  0
    4.3485   -6.9159    5.5063 H   0  0  0  0  0  0  0  0  0  0  0  0
    5.1874   -9.7860    3.1625 H   0  0  0  0  0  0  0  0  0  0  0  0
    6.1558   -8.4716    2.4745 H   0  0  0  0  0  0  0  0  0  0  0  0
    4.6450   -8.9761    1.6886 H   0  0  0  0  0  0  0  0  0  0  0  0
   -0.7536   -3.4429    2.0919 H   0  0  0  0  0  0  0  0  0  0  0  0
    2.9793   -1.8247    0.9881 H   0  0  0  0  0  0  0  0  0  0  0  0
   -0.5584   -9.0149    3.2492 H   0  0  0  0  0  0  0  0  0  0  0  0
    1.0970   -0.4045    0.8604 H   0  0  0  0  0  0  0  0  0  0  0  0
   -0.2128   -0.7979    1.9670 H   0  0  0  0  0  0  0  0  0  0  0  0
   -1.4654   -8.4434    5.4263 H   0  0  0  0  0  0  0  0  0  0  0  0
   -1.2295   -6.7106    5.1509 H   0  0  0  0  0  0  0  0  0  0  0  0
    0.1703   -7.7884    5.3076 H   0  0  0  0  0  0  0  0  0  0  0  0
   -2.9646   -8.5290    3.2560 H   0  0  0  0  0  0  0  0  0  0  0  0
   -2.6630   -6.8140    2.9279 H   0  0  0  0  0  0  0  0  0  0  0  0
   -2.2612   -8.0416    1.7118 H   0  0  0  0  0  0  0  0  0  0  0  0
   -1.4484   -1.9211    0.1254 H   0  0  0  0  0  0  0  0  0  0  0  0
   -0.0679   -1.6684   -0.9741 H   0  0  0  0  0  0  0  0  0  0  0  0
   -0.2895    0.6570   -0.6668 H   0  0  0  0  0  0  0  0  0  0  0  0
   -2.2540    1.2224   -1.7695 H   0  0  0  0  0  0  0  0  0  0  0  0
   -1.5745   -0.2554   -2.4740 H   0  0  0  0  0  0  0  0  0  0  0  0
   -2.9655   -0.3473   -1.3646 H   0  0  0  0  0  0  0  0  0  0  0  0
  1  2  1  0  0  0  0 
  1  3  1  0  0  0  0 
  2  4  1  0  0  0  0 
  2  5  2  0  0  0  0 
  3  6  2  0  0  0  0 
  3  7  1  0  0  0  0 
  4  8  1  0  0  0  0 
  4  9  1  0  0  0  0 
  6 10  1  0  0  0  0 
  6 11  1  0  0  0  0 
  7 12  2  0  0  0  0 
 10 13  1  0  0  0  0 
 11 14  2  0  0  0  0 
 12 14  1  0  0  0  0 
 13 15  1  0  0  0  0 
 13 16  2  0  0  0  0 
 14 17  1  0  0  0  0 
 15 18  1  0  0  0  0 
 15 19  1  0  0  0  0 
 17 20  1  0  0  0  0 
 20 21  1  0  0  0  0 
 21 22  1  0  0  0  0 
  4 23  1  0  0  0  0 
  7 24  1  0  0  0  0 
  8 25  1  0  0  0  0 
  8 26  1  0  0  0  0 
  8 27  1  0  0  0  0 
  9 28  1  0  0  0  0 
  9 29  1  0  0  0  0 
  9 30  1  0  0  0  0 
 11 31  1  0  0  0  0 
 12 32  1  0  0  0  0 
 15 33  1  0  0  0  0 
 17 34  1  0  0  0  0 
 17 35  1  0  0  0  0 
 18 36  1  0  0  0  0 
 18 37  1  0  0  0  0 
 18 38  1  0  0  0  0 
 19 39  1  0  0  0  0 
 19 40  1  0  0  0  0 
 19 41  1  0  0  0  0 
 20 42  1  0  0  0  0 
 20 43  1  0  0  0  0 
 21 44  1  0  0  0  0 
 22 45  1  0  0  0  0 
 22 46  1  0  0  0  0 
 22 47  1  0  0  0  0 
M  END
> <cdk:Title>
ibopamine

> <Conformer>
1

> <SuperDrugID>
SD001248

$$$$
