albendazole
  CDK     0628171801

 33 34  0  0  0  0  0  0  0  0999 V2000
    7.1796   -1.8460   -5.2533 N   0  0  0  0  0  0  0  0  0  0  0  0
    7.6674   -2.9746   -5.8254 C   0  0  0  0  0  0  0  0  0  0  0  0
    5.9349   -1.6647   -4.7429 C   0  0  0  0  0  0  0  0  0  0  0  0
    8.9683   -2.9307   -6.2323 O   0  0  0  0  0  0  0  0  0  0  0  0
    6.9757   -4.0108   -5.9708 O   0  0  0  0  0  0  0  0  0  0  0  0
    4.9152   -2.5536   -4.6950 N   0  0  0  0  0  0  0  0  0  0  0  0
    5.5605   -0.5042   -4.1766 N   0  0  0  0  0  0  0  0  0  0  0  0
    9.7324   -3.9673   -6.8589 C   0  0  0  0  0  0  0  0  0  0  0  0
    3.9004   -1.9354   -4.0704 C   0  0  0  0  0  0  0  0  0  0  0  0
    4.3088   -0.6493   -3.7336 C   0  0  0  0  0  0  0  0  0  0  0  0
    2.6110   -2.3914   -3.7424 C   0  0  0  0  0  0  0  0  0  0  0  0
    3.4669    0.2337   -3.0416 C   0  0  0  0  0  0  0  0  0  0  0  0
    1.7494   -1.5197   -3.0391 C   0  0  0  0  0  0  0  0  0  0  0  0
    2.1767   -0.2160   -2.6806 C   0  0  0  0  0  0  0  0  0  0  0  0
    1.1130    0.8464   -1.7721 S   0  0  0  0  0  0  0  0  0  0  0  0
    1.7742    0.8090   -0.0688 C   0  0  2  0  0  0  0  0  0  0  0  0
    1.6544   -0.6022    0.5585 C   0  0  1  0  0  0  0  0  0  0  0  0
    2.1634   -0.6552    2.0138 C   0  0  0  0  0  0  0  0  0  0  0  0
    7.7900   -1.0929   -5.1899 H   0  0  0  0  0  0  0  0  0  0  0  0
    6.1072    0.2941   -4.0991 H   0  0  0  0  0  0  0  0  0  0  0  0
   10.5695   -4.2207   -6.2073 H   0  0  0  0  0  0  0  0  0  0  0  0
   10.1178   -3.5923   -7.8075 H   0  0  0  0  0  0  0  0  0  0  0  0
    9.1460   -4.8684   -7.0505 H   0  0  0  0  0  0  0  0  0  0  0  0
    2.3074   -3.3329   -4.0013 H   0  0  0  0  0  0  0  0  0  0  0  0
    3.7922    1.1716   -2.8002 H   0  0  0  0  0  0  0  0  0  0  0  0
    0.8119   -1.8417   -2.7834 H   0  0  0  0  0  0  0  0  0  0  0  0
    1.2062    1.5245    0.5301 H   0  0  0  0  0  0  0  0  0  0  0  0
    2.8183    1.1315   -0.0874 H   0  0  0  0  0  0  0  0  0  0  0  0
    0.6067   -0.9146    0.5440 H   0  0  0  0  0  0  0  0  0  0  0  0
    2.2307   -1.3188   -0.0321 H   0  0  0  0  0  0  0  0  0  0  0  0
    2.0486   -1.6685    2.4020 H   0  0  0  0  0  0  0  0  0  0  0  0
    1.5886    0.0275    2.6419 H   0  0  0  0  0  0  0  0  0  0  0  0
    3.2190   -0.3809    2.0601 H   0  0  0  0  0  0  0  0  0  0  0  0
  1  2  1  0  0  0  0 
  1  3  1  0  0  0  0 
  2  4  1  0  0  0  0 
  2  5  2  0  0  0  0 
  3  6  2  0  0  0  0 
  3  7  1  0  0  0  0 
  4  8  1  0  0  0  0 
  6  9  1  0  0  0  0 
  7 10  1  0  0  0  0 
  9 10  1  0  0  0  0 
  9 11  2  0  0  0  0 
 10 12  2  0  0  0  0 
 11 13  1  0  0  0  0 
 12 14  1  0  0  0  0 
 13 14  2  0  0  0  0 
 14 15  1  0  0  0  0 
 15 16  1  0  0  0  0 
 16 17  1  0  0  0  0 
 17 18  1  0  0  0  0 
 19  1  1  0  0  0  0 
 20  7  1  0  0  0  0 
 21  8  1  0  0  0  0 
 22  8  1  0  0  0  0 
 23  8  1  0  0  0  0 
 24 11  1  0  0  0  0 
 25 12  1  0  0  0  0 
 26 13  1  0  0  0  0 
 27 16  1  0  0  0  0 
 28 16  1  0  0  0  0 
 29 17  1  0  0  0  0 
 30 17  1  0  0  0  0 
 31 18  1  0  0  0  0 
 32 18  1  0  0  0  0 
 33 18  1  0  0  0  0 
M  END
> <cdk:Title>
albendazole

> <Conformer>
1

> <SuperDrugID>
SD000077

$$$$
