ferrous chloride
  CDK     0628171801

  3  2  0  0  0  0  0  0  0  0999 V2000
   -0.0912   -0.1290    0.0000 Fe  0  0  0  0  0  0  0  0  0  0  0  0
   -0.5603    2.0995    0.0000 Cl  0  0  0  0  0  0  0  0  0  0  0  0
    2.1662    0.1716    0.0000 Cl  0  0  0  0  0  0  0  0  0  0  0  0
  1  2  1  0  0  0  0 
  1  3  1  0  0  0  0 
M  END
> <cdk:Title>
ferrous chloride

> <Conformer>
1

> <SuperDrugID>
SD003613

$$$$
