dimethazan
  CDK     0628171801

 35 36  0  0  0  0  0  0  0  0999 V2000
    1.8330    0.5823   -1.2746 C   0  0  1  0  0  0  0  0  0  0  0  0
    1.2187    0.4038    0.1431 C   0  0  2  0  0  0  0  0  0  0  0  0
    3.2720    0.5415   -1.2921 N   0  0  0  0  0  0  0  0  0  0  0  0
    1.4363   -0.9087    0.8296 N   0  0  1  0  0  0  0  0  0  0  0  0
    4.1150   -0.3505   -1.8672 C   0  0  0  0  0  0  0  0  0  0  0  0
    4.0587    1.4620   -0.6908 C   0  0  0  0  0  0  0  0  0  0  0  0
    0.8965   -2.1033    0.1253 C   0  0  0  0  0  0  0  0  0  0  0  0
    2.7660   -1.1338    1.4637 C   0  0  0  0  0  0  0  0  0  0  0  0
    5.4145    0.0338   -1.5508 C   0  0  0  0  0  0  0  0  0  0  0  0
    3.9424   -1.5040   -2.6587 C   0  0  0  0  0  0  0  0  0  0  0  0
    5.3590    1.1662   -0.8322 N   0  0  0  0  0  0  0  0  0  0  0  0
    6.5120   -0.6795   -1.9332 N   0  0  0  0  0  0  0  0  0  0  0  0
    2.7815   -1.8569   -2.9747 O   0  0  0  0  0  0  0  0  0  0  0  0
    5.0454   -2.2116   -3.0885 N   0  0  0  0  0  0  0  0  0  0  0  0
    7.8159   -0.2024   -1.5262 C   0  0  0  0  0  0  0  0  0  0  0  0
    6.3108   -1.8098   -2.6963 C   0  0  0  0  0  0  0  0  0  0  0  0
    4.8384   -3.3538   -3.9648 C   0  0  0  0  0  0  0  0  0  0  0  0
    7.3122   -2.4781   -3.0523 O   0  0  0  0  0  0  0  0  0  0  0  0
    1.3938   -0.1540   -1.9456 H   0  0  0  0  0  0  0  0  0  0  0  0
    1.5198    1.5589   -1.6532 H   0  0  0  0  0  0  0  0  0  0  0  0
    0.1372    0.5529    0.0581 H   0  0  0  0  0  0  0  0  0  0  0  0
    1.5787    1.2129    0.7837 H   0  0  0  0  0  0  0  0  0  0  0  0
    3.7239    2.2839   -0.1826 H   0  0  0  0  0  0  0  0  0  0  0  0
   -0.0726   -1.8817   -0.3304 H   0  0  0  0  0  0  0  0  0  0  0  0
    0.7535   -2.9181    0.8382 H   0  0  0  0  0  0  0  0  0  0  0  0
    1.5829   -2.4400   -0.6542 H   0  0  0  0  0  0  0  0  0  0  0  0
    3.1470   -0.2220    1.9252 H   0  0  0  0  0  0  0  0  0  0  0  0
    2.6712   -1.8842    2.2493 H   0  0  0  0  0  0  0  0  0  0  0  0
    3.4983   -1.4908    0.7397 H   0  0  0  0  0  0  0  0  0  0  0  0
    8.0392    0.7285   -2.0518 H   0  0  0  0  0  0  0  0  0  0  0  0
    7.8351   -0.0105   -0.4499 H   0  0  0  0  0  0  0  0  0  0  0  0
    8.6207   -0.9075   -1.7381 H   0  0  0  0  0  0  0  0  0  0  0  0
    4.2472   -4.1211   -3.4578 H   0  0  0  0  0  0  0  0  0  0  0  0
    5.7622   -3.8224   -4.3089 H   0  0  0  0  0  0  0  0  0  0  0  0
    4.2973   -3.0339   -4.8586 H   0  0  0  0  0  0  0  0  0  0  0  0
  1  2  1  0  0  0  0 
  1  3  1  0  0  0  0 
  2  4  1  0  0  0  0 
  3  5  1  0  0  0  0 
  3  6  1  0  0  0  0 
  4  7  1  0  0  0  0 
  4  8  1  0  0  0  0 
  5  9  2  0  0  0  0 
  5 10  1  0  0  0  0 
  6 11  2  0  0  0  0 
  9 11  1  0  0  0  0 
  9 12  1  0  0  0  0 
 10 13  2  0  0  0  0 
 10 14  1  0  0  0  0 
 12 15  1  0  0  0  0 
 12 16  1  0  0  0  0 
 14 16  1  0  0  0  0 
 14 17  1  0  0  0  0 
 16 18  2  0  0  0  0 
  1 19  1  0  0  0  0 
  1 20  1  0  0  0  0 
  2 21  1  0  0  0  0 
  2 22  1  0  0  0  0 
  6 23  1  0  0  0  0 
  7 24  1  0  0  0  0 
  7 25  1  0  0  0  0 
  7 26  1  0  0  0  0 
  8 27  1  0  0  0  0 
  8 28  1  0  0  0  0 
  8 29  1  0  0  0  0 
 15 30  1  0  0  0  0 
 15 31  1  0  0  0  0 
 15 32  1  0  0  0  0 
 17 33  1  0  0  0  0 
 17 34  1  0  0  0  0 
 17 35  1  0  0  0  0 
M  END
> <cdk:Title>
dimethazan

> <Conformer>
1

> <SuperDrugID>
SD003188

$$$$
