prenalterol
  CDK     0628171801

 35 35  0  0  0  0  0  0  0  0999 V2000
   -1.7557   -2.9720   -0.6388 O   0  0  0  0  0  0  0  0  0  0  0  0
   -2.6720   -2.1918   -1.4371 C   0  0  2  0  0  0  0  0  0  0  0  0
   -1.7051   -2.6196    0.6855 C   0  0  0  0  0  0  0  0  0  0  0  0
   -2.1950   -0.7358   -1.6889 C   0  0  2  0  0  0  0  0  0  0  0  0
   -0.6031   -1.8883    1.1788 C   0  0  0  0  0  0  0  0  0  0  0  0
   -2.7239   -3.0170    1.5767 C   0  0  0  0  0  0  0  0  0  0  0  0
   -3.2157    0.0853   -2.5184 C   0  0  2  0  0  0  0  0  0  0  0  0
   -0.9365   -0.7579   -2.3644 O   0  0  0  0  0  0  0  0  0  0  0  0
   -0.5262   -1.5516    2.5433 C   0  0  0  0  0  0  0  0  0  0  0  0
   -2.6501   -2.6780    2.9407 C   0  0  0  0  0  0  0  0  0  0  0  0
   -2.7079    1.4661   -2.6803 N   0  0  1  0  0  0  0  0  0  0  0  0
   -1.5448   -1.9541    3.4314 C   0  0  0  0  0  0  0  0  0  0  0  0
   -3.6022    2.4647   -3.3191 C   0  0  1  0  0  0  0  0  0  0  0  0
   -1.4620   -1.6694    4.7558 O   0  0  0  0  0  0  0  0  0  0  0  0
   -2.9825    3.8599   -3.0533 C   0  0  0  0  0  0  0  0  0  0  0  0
   -3.7782    2.2170   -4.8401 C   0  0  0  0  0  0  0  0  0  0  0  0
   -3.6724   -2.1924   -0.9935 H   0  0  0  0  0  0  0  0  0  0  0  0
   -2.7524   -2.6963   -2.4016 H   0  0  0  0  0  0  0  0  0  0  0  0
   -2.0550   -0.2345   -0.7280 H   0  0  0  0  0  0  0  0  0  0  0  0
    0.1500   -1.6092    0.5467 H   0  0  0  0  0  0  0  0  0  0  0  0
   -3.5199   -3.5595    1.2337 H   0  0  0  0  0  0  0  0  0  0  0  0
   -4.1782    0.1037   -1.9990 H   0  0  0  0  0  0  0  0  0  0  0  0
   -3.3496   -0.3849   -3.4942 H   0  0  0  0  0  0  0  0  0  0  0  0
   -0.3275   -1.2402   -1.7663 H   0  0  0  0  0  0  0  0  0  0  0  0
    0.2764   -1.0205    2.8914 H   0  0  0  0  0  0  0  0  0  0  0  0
   -3.3956   -2.9718    3.5766 H   0  0  0  0  0  0  0  0  0  0  0  0
   -2.5293    1.8053   -1.7332 H   0  0  0  0  0  0  0  0  0  0  0  0
   -4.5853    2.4380   -2.8403 H   0  0  0  0  0  0  0  0  0  0  0  0
   -0.5147   -1.4765    4.9205 H   0  0  0  0  0  0  0  0  0  0  0  0
   -2.8891    4.0322   -1.9795 H   0  0  0  0  0  0  0  0  0  0  0  0
   -1.9895    3.9266   -3.5024 H   0  0  0  0  0  0  0  0  0  0  0  0
   -3.6091    4.6503   -3.4694 H   0  0  0  0  0  0  0  0  0  0  0  0
   -2.8054    2.1335   -5.3270 H   0  0  0  0  0  0  0  0  0  0  0  0
   -4.3381    1.2984   -5.0180 H   0  0  0  0  0  0  0  0  0  0  0  0
   -4.3280    3.0404   -5.3001 H   0  0  0  0  0  0  0  0  0  0  0  0
  1  2  1  0  0  0  0 
  1  3  1  0  0  0  0 
  4  2  1  0  0  0  0 
  3  5  2  0  0  0  0 
  3  6  1  0  0  0  0 
  4  7  1  0  0  0  0 
  4  8  1  0  0  0  0 
  5  9  1  0  0  0  0 
  6 10  2  0  0  0  0 
  7 11  1  0  0  0  0 
  9 12  2  0  0  0  0 
 10 12  1  0  0  0  0 
 11 13  1  0  0  0  0 
 12 14  1  0  0  0  0 
 13 15  1  0  0  0  0 
 13 16  1  0  0  0  0 
  2 17  1  0  0  0  0 
  2 18  1  0  0  0  0 
  4 19  1  0  0  0  0 
  5 20  1  0  0  0  0 
  6 21  1  0  0  0  0 
  7 22  1  0  0  0  0 
  7 23  1  0  0  0  0 
  8 24  1  0  0  0  0 
  9 25  1  0  0  0  0 
 10 26  1  0  0  0  0 
 11 27  1  0  0  0  0 
 13 28  1  0  0  0  0 
 14 29  1  0  0  0  0 
 15 30  1  0  0  0  0 
 15 31  1  0  0  0  0 
 15 32  1  0  0  0  0 
 16 33  1  0  0  0  0 
 16 34  1  0  0  0  0 
 16 35  1  0  0  0  0 
M  END
> <cdk:Title>
prenalterol

> <Conformer>
1

> <SuperDrugID>
SD002025

$$$$
