iobitridol
  CDK     0628171801

 63 63  0  0  0  0  0  0  0  0999 V2000
   -5.7422   -1.4136    3.4353 C   0  0  0  0  0  0  0  0  0  0  0  0
   -5.8661   -2.6939    2.9015 N   0  0  0  0  0  0  0  0  0  0  0  0
   -6.5039   -1.0196    4.3515 O   0  0  0  0  0  0  0  0  0  0  0  0
   -4.7985   -0.4423    3.0228 C   0  0  0  0  0  0  0  0  0  0  0  0
   -6.9276   -3.5780    3.3628 C   0  0  1  0  0  0  0  0  0  0  0  0
   -4.9174   -3.1751    1.9198 C   0  0  0  0  0  0  0  0  0  0  0  0
   -5.0183    0.2982    1.8348 C   0  0  0  0  0  0  0  0  0  0  0  0
   -3.6711   -0.1612    3.8320 C   0  0  0  0  0  0  0  0  0  0  0  0
   -6.5549   -4.3676    4.6573 C   0  0  2  0  0  0  0  0  0  0  0  0
   -6.7166   -0.0317    0.7015 I   0  0  0  0  0  0  0  0  0  0  0  0
   -4.0886    1.2904    1.4401 C   0  0  0  0  0  0  0  0  0  0  0  0
   -3.2967   -1.2862    5.5212 I   0  0  0  0  0  0  0  0  0  0  0  0
   -2.7857    0.8815    3.4740 C   0  0  0  0  0  0  0  0  0  0  0  0
   -5.8079   -5.7025    4.4061 C   0  0  2  0  0  0  0  0  0  0  0  0
   -7.7398   -4.6747    5.3965 O   0  0  0  0  0  0  0  0  0  0  0  0
   -4.2822    1.9928    0.2301 C   0  0  0  0  0  0  0  0  0  0  0  0
   -2.9715    1.5762    2.2582 C   0  0  0  0  0  0  0  0  0  0  0  0
   -1.7437    1.2443    4.2720 N   0  0  0  0  0  0  0  0  0  0  0  0
   -4.5148   -5.5007    3.8497 O   0  0  0  0  0  0  0  0  0  0  0  0
   -5.0270    3.1638    0.1167 N   0  0  0  0  0  0  0  0  0  0  0  0
   -3.7407    1.4501   -0.7628 O   0  0  0  0  0  0  0  0  0  0  0  0
   -1.6169    3.0319    1.7090 I   0  0  0  0  0  0  0  0  0  0  0  0
   -1.8462    1.8611    5.4894 C   0  0  0  0  0  0  0  0  0  0  0  0
   -5.2934    3.7589   -1.1835 C   0  0  2  0  0  0  0  0  0  0  0  0
   -5.5795    3.8009    1.2955 C   0  0  0  0  0  0  0  0  0  0  0  0
   -0.6438    2.3135    6.2564 C   0  0  1  0  0  0  0  0  0  0  0  0
   -2.9773    2.1011    5.9789 O   0  0  0  0  0  0  0  0  0  0  0  0
   -4.6522    5.1629   -1.4011 C   0  0  2  0  0  0  0  0  0  0  0  0
   -0.4829    1.5318    7.5903 C   0  0  2  0  0  0  0  0  0  0  0  0
    0.6881    2.2768    5.4504 C   0  0  1  0  0  0  0  0  0  0  0  0
   -4.7968    5.6776   -2.8579 C   0  0  1  0  0  0  0  0  0  0  0  0
   -3.2639    5.1355   -1.0758 O   0  0  0  0  0  0  0  0  0  0  0  0
   -1.6028    1.7389    8.4456 O   0  0  0  0  0  0  0  0  0  0  0  0
    0.6183    3.1576    4.3334 O   0  0  0  0  0  0  0  0  0  0  0  0
   -6.2155    5.8035   -3.1570 O   0  0  0  0  0  0  0  0  0  0  0  0
   -7.8271   -2.9861    3.5603 H   0  0  0  0  0  0  0  0  0  0  0  0
   -7.2306   -4.2720    2.5725 H   0  0  0  0  0  0  0  0  0  0  0  0
   -3.9256   -3.2487    2.3711 H   0  0  0  0  0  0  0  0  0  0  0  0
   -4.8631   -2.4970    1.0686 H   0  0  0  0  0  0  0  0  0  0  0  0
   -5.1761   -4.1605    1.5260 H   0  0  0  0  0  0  0  0  0  0  0  0
   -5.9319   -3.7380    5.2992 H   0  0  0  0  0  0  0  0  0  0  0  0
   -6.3859   -6.3436    3.7364 H   0  0  0  0  0  0  0  0  0  0  0  0
   -5.6738   -6.2261    5.3554 H   0  0  0  0  0  0  0  0  0  0  0  0
   -8.1021   -3.8070    5.6757 H   0  0  0  0  0  0  0  0  0  0  0  0
   -0.8535    1.1124    3.9167 H   0  0  0  0  0  0  0  0  0  0  0  0
   -4.1421   -6.4042    3.7568 H   0  0  0  0  0  0  0  0  0  0  0  0
   -6.3767    3.8442   -1.2981 H   0  0  0  0  0  0  0  0  0  0  0  0
   -4.9649    3.1118   -2.0002 H   0  0  0  0  0  0  0  0  0  0  0  0
   -6.2186    3.1082    1.8465 H   0  0  0  0  0  0  0  0  0  0  0  0
   -4.7699    4.1274    1.9505 H   0  0  0  0  0  0  0  0  0  0  0  0
   -6.1863    4.6786    1.0613 H   0  0  0  0  0  0  0  0  0  0  0  0
   -0.8074    3.3647    6.5173 H   0  0  0  0  0  0  0  0  0  0  0  0
   -5.1295    5.8856   -0.7341 H   0  0  0  0  0  0  0  0  0  0  0  0
    0.4055    1.8788    8.1257 H   0  0  0  0  0  0  0  0  0  0  0  0
   -0.3723    0.4618    7.3956 H   0  0  0  0  0  0  0  0  0  0  0  0
    1.5246    2.6031    6.0742 H   0  0  0  0  0  0  0  0  0  0  0  0
    0.9029    1.2634    5.1010 H   0  0  0  0  0  0  0  0  0  0  0  0
   -4.4073    6.7424   -2.8694 H   0  0  0  0  0  0  0  0  0  0  0  0
   -4.2297    4.9226   -3.5348 H   0  0  0  0  0  0  0  0  0  0  0  0
   -3.2258    4.9304   -0.1170 H   0  0  0  0  0  0  0  0  0  0  0  0
   -1.4063    1.2054    9.2439 H   0  0  0  0  0  0  0  0  0  0  0  0
    1.4784    3.0517    3.8772 H   0  0  0  0  0  0  0  0  0  0  0  0
   -6.2584    6.1207   -4.0844 H   0  0  0  0  0  0  0  0  0  0  0  0
  1  2  1  0  0  0  0 
  1  3  2  0  0  0  0 
  1  4  1  0  0  0  0 
  2  5  1  0  0  0  0 
  2  6  1  0  0  0  0 
  4  7  2  0  0  0  0 
  4  8  1  0  0  0  0 
  5  9  1  0  0  0  0 
  7 10  1  0  0  0  0 
  7 11  1  0  0  0  0 
  8 12  1  0  0  0  0 
  8 13  2  0  0  0  0 
  9 14  1  0  0  0  0 
  9 15  1  0  0  0  0 
 11 16  1  0  0  0  0 
 11 17  2  0  0  0  0 
 13 17  1  0  0  0  0 
 13 18  1  0  0  0  0 
 14 19  1  0  0  0  0 
 16 20  1  0  0  0  0 
 16 21  2  0  0  0  0 
 17 22  1  0  0  0  0 
 18 23  1  0  0  0  0 
 20 24  1  0  0  0  0 
 20 25  1  0  0  0  0 
 23 26  1  0  0  0  0 
 23 27  2  0  0  0  0 
 24 28  1  0  0  0  0 
 26 29  1  0  0  0  0 
 26 30  1  0  0  0  0 
 28 31  1  0  0  0  0 
 28 32  1  0  0  0  0 
 29 33  1  0  0  0  0 
 30 34  1  0  0  0  0 
 31 35  1  0  0  0  0 
  5 36  1  0  0  0  0 
  5 37  1  0  0  0  0 
  6 38  1  0  0  0  0 
  6 39  1  0  0  0  0 
  6 40  1  0  0  0  0 
  9 41  1  0  0  0  0 
 14 42  1  0  0  0  0 
 14 43  1  0  0  0  0 
 15 44  1  0  0  0  0 
 18 45  1  0  0  0  0 
 19 46  1  0  0  0  0 
 24 47  1  0  0  0  0 
 24 48  1  0  0  0  0 
 25 49  1  0  0  0  0 
 25 50  1  0  0  0  0 
 25 51  1  0  0  0  0 
 26 52  1  0  0  0  0 
 28 53  1  0  0  0  0 
 29 54  1  0  0  0  0 
 29 55  1  0  0  0  0 
 30 56  1  0  0  0  0 
 30 57  1  0  0  0  0 
 31 58  1  0  0  0  0 
 31 59  1  0  0  0  0 
 32 60  1  0  0  0  0 
 33 61  1  0  0  0  0 
 34 62  1  0  0  0  0 
 35 63  1  0  0  0  0 
M  END
> <cdk:Title>
iobitridol

> <Conformer>
1

> <SuperDrugID>
SD001284

$$$$
