norgestimate
  CDK     0628171801

 58 61  0  0  0  0  0  0  0  0999 V2000
    3.5839   -7.2286    0.6406 C   0  0  1  0  0  0  0  0  0  0  0  0
    3.8575   -8.7485    0.6602 C   0  0  1  0  0  0  0  0  0  0  0  0
    3.2781   -9.3584    1.9677 C   0  0  1  0  0  0  0  0  0  0  0  0
    1.8897   -8.9653    2.1815 C   0  0  0  0  0  0  0  0  0  0  0  0
    1.3130   -7.8659    1.6410 C   0  0  0  0  0  0  0  0  0  0  0  0
    2.0606   -6.8930    0.8051 C   0  0  1  0  0  0  0  0  0  0  0  0
    1.8311   -5.4289    1.3494 C   0  0  2  0  0  0  0  0  0  0  0  0
   -0.1186   -7.6104    1.8515 C   0  0  2  0  0  0  0  0  0  0  0  0
   -0.3901   -6.1758    2.3675 C   0  0  2  0  0  0  0  0  0  0  0  0
    0.2931   -5.1056    1.4644 C   0  0  1  0  0  0  0  0  0  0  0  0
    2.3121   -2.8760    1.1378 C   0  0  1  0  0  0  0  0  0  0  0  0
    2.5836   -4.3019    0.5597 C   0  0  1  0  0  0  0  0  0  0  0  0
    0.0961   -3.6549    2.0184 C   0  0  1  0  0  0  0  0  0  0  0  0
    0.7790   -2.5126    1.1764 C   0  0  1  0  0  0  0  0  0  0  0  0
   -1.3326   -3.1387    2.2909 C   0  0  2  0  0  0  0  0  0  0  0  0
   -1.1619   -1.6029    2.4051 C   0  0  1  0  0  0  0  0  0  0  0  0
    0.3257   -1.2581    2.0400 C   0  0  1  0  0  0  0  0  0  0  0  0
    3.3698  -10.7487    1.9482 N   0  0  0  0  0  0  0  0  0  0  0  0
    4.3806  -11.3329    1.9135 O   0  0  0  0  0  0  0  0  0  0  0  0
    0.2189   -2.3879   -0.3137 C   0  0  2  0  0  0  0  0  0  0  0  0
    1.0101   -1.5122   -1.3282 C   0  0  0  0  0  0  0  0  0  0  0  0
    1.0782   -1.0832    3.1933 C   0  0  0  0  0  0  0  0  0  0  0  0
    1.7104   -0.9385    4.1960 C   0  0  0  0  0  0  0  0  0  0  0  0
    0.4064   -0.0171    1.3093 O   0  0  0  0  0  0  0  0  0  0  0  0
   -0.0448    1.2305    1.6533 C   0  0  0  0  0  0  0  0  0  0  0  0
    0.1303    2.3211    0.6889 C   0  0  0  0  0  0  0  0  0  0  0  0
   -0.5978    1.4501    2.7564 O   0  0  0  0  0  0  0  0  0  0  0  0
    4.1603   -6.7762    1.4526 H   0  0  0  0  0  0  0  0  0  0  0  0
    3.9564   -6.8168   -0.3017 H   0  0  0  0  0  0  0  0  0  0  0  0
    3.3934   -9.2144   -0.2151 H   0  0  0  0  0  0  0  0  0  0  0  0
    4.9355   -8.9254    0.6087 H   0  0  0  0  0  0  0  0  0  0  0  0
    3.8541   -8.9925    2.8236 H   0  0  0  0  0  0  0  0  0  0  0  0
    1.3404   -9.5536    2.7680 H   0  0  0  0  0  0  0  0  0  0  0  0
    1.6234   -6.9493   -0.1981 H   0  0  0  0  0  0  0  0  0  0  0  0
    2.2501   -5.4061    2.3636 H   0  0  0  0  0  0  0  0  0  0  0  0
   -0.5749   -8.3090    2.5608 H   0  0  0  0  0  0  0  0  0  0  0  0
   -0.6315   -7.7469    0.8951 H   0  0  0  0  0  0  0  0  0  0  0  0
   -0.0242   -6.0879    3.3961 H   0  0  0  0  0  0  0  0  0  0  0  0
   -1.4710   -6.0121    2.3809 H   0  0  0  0  0  0  0  0  0  0  0  0
   -0.1677   -5.1844    0.4767 H   0  0  0  0  0  0  0  0  0  0  0  0
    2.7376   -2.8576    2.1430 H   0  0  0  0  0  0  0  0  0  0  0  0
    2.8691   -2.1299    0.5691 H   0  0  0  0  0  0  0  0  0  0  0  0
    3.6624   -4.4683    0.6142 H   0  0  0  0  0  0  0  0  0  0  0  0
    2.3069   -4.3447   -0.4953 H   0  0  0  0  0  0  0  0  0  0  0  0
    0.5697   -3.6900    3.0100 H   0  0  0  0  0  0  0  0  0  0  0  0
   -1.7397   -3.5552    3.2181 H   0  0  0  0  0  0  0  0  0  0  0  0
   -2.0006   -3.3984    1.4651 H   0  0  0  0  0  0  0  0  0  0  0  0
   -1.8466   -1.1198    1.7022 H   0  0  0  0  0  0  0  0  0  0  0  0
   -1.4414   -1.2570    3.4060 H   0  0  0  0  0  0  0  0  0  0  0  0
   -0.8011   -1.9973   -0.2989 H   0  0  0  0  0  0  0  0  0  0  0  0
    0.1491   -3.3689   -0.7805 H   0  0  0  0  0  0  0  0  0  0  0  0
    0.4190   -1.3880   -2.2380 H   0  0  0  0  0  0  0  0  0  0  0  0
    1.9536   -1.9866   -1.6052 H   0  0  0  0  0  0  0  0  0  0  0  0
    1.2285   -0.5217   -0.9381 H   0  0  0  0  0  0  0  0  0  0  0  0
    2.1938   -0.8281    4.9720 H   0  0  0  0  0  0  0  0  0  0  0  0
   -0.3559    2.0593   -0.2513 H   0  0  0  0  0  0  0  0  0  0  0  0
   -0.2993    3.2524    1.0613 H   0  0  0  0  0  0  0  0  0  0  0  0
    1.1931    2.4728    0.5112 H   0  0  0  0  0  0  0  0  0  0  0  0
  1  2  1  0  0  0  0 
  2  3  1  0  0  0  0 
  3  4  1  0  0  0  0 
  4  5  2  0  0  0  0 
  6  5  1  0  0  0  0 
  6  1  1  0  0  0  0 
  8  9  1  0  0  0  0 
 10  9  1  0  0  0  0 
  7 10  1  0  0  0  0 
  5  8  1  0  0  0  0 
  7  6  1  0  0  0  0 
 11 12  1  0  0  0  0 
 13 14  1  0  0  0  0 
 14 11  1  0  0  0  0 
  7 12  1  0  0  0  0 
 10 13  1  0  0  0  0 
 15 16  1  0  0  0  0 
 17 16  1  0  0  0  0 
 13 15  1  0  0  0  0 
 14 17  1  0  0  0  0 
  3 18  1  0  0  0  0 
 18 19  2  0  0  0  0 
 14 20  1  0  0  0  0 
 20 21  1  0  0  0  0 
 17 22  1  0  0  0  0 
 22 23  3  0  0  0  0 
 17 24  1  0  0  0  0 
 24 25  1  0  0  0  0 
 25 26  1  0  0  0  0 
 25 27  2  0  0  0  0 
 28  1  1  0  0  0  0 
 29  1  1  0  0  0  0 
 30  2  1  0  0  0  0 
 31  2  1  0  0  0  0 
 32  3  1  0  0  0  0 
 33  4  1  0  0  0  0 
  6 34  1  0  0  0  0 
  7 35  1  0  0  0  0 
 36  8  1  0  0  0  0 
 37  8  1  0  0  0  0 
 38  9  1  0  0  0  0 
 39  9  1  0  0  0  0 
 10 40  1  0  0  0  0 
 41 11  1  0  0  0  0 
 42 11  1  0  0  0  0 
 43 12  1  0  0  0  0 
 44 12  1  0  0  0  0 
 13 45  1  0  0  0  0 
 46 15  1  0  0  0  0 
 47 15  1  0  0  0  0 
 48 16  1  0  0  0  0 
 49 16  1  0  0  0  0 
 50 20  1  0  0  0  0 
 51 20  1  0  0  0  0 
 52 21  1  0  0  0  0 
 53 21  1  0  0  0  0 
 54 21  1  0  0  0  0 
 55 23  1  0  0  0  0 
 56 26  1  0  0  0  0 
 57 26  1  0  0  0  0 
 58 26  1  0  0  0  0 
M  END
> <cdk:Title>
norgestimate

> <Conformer>
1

> <SuperDrugID>
SD001760

$$$$
