bufetolol
  CDK     0628171801

 52 53  0  0  0  0  0  0  0  0999 V2000
    3.9235   -2.5575   -0.6873 O   0  0  0  0  0  0  0  0  0  0  0  0
    3.5703   -3.8877   -1.1230 C   0  0  1  0  0  0  0  0  0  0  0  0
    3.9681   -2.4549    0.6765 C   0  0  0  0  0  0  0  0  0  0  0  0
    3.7569   -3.9952   -2.6536 C   0  0  1  0  0  0  0  0  0  0  0  0
    2.8599   -1.9547    1.3966 C   0  0  0  0  0  0  0  0  0  0  0  0
    5.1336   -2.8531    1.3680 C   0  0  0  0  0  0  0  0  0  0  0  0
    3.6245   -5.4354   -3.1833 C   0  0  2  0  0  0  0  0  0  0  0  0
    2.7596   -3.2316   -3.3443 O   0  0  0  0  0  0  0  0  0  0  0  0
    1.7286   -1.5516    0.7382 O   0  0  0  0  0  0  0  0  0  0  0  0
    2.9091   -1.9028    2.8053 C   0  0  0  0  0  0  0  0  0  0  0  0
    5.1775   -2.7915    2.7715 C   0  0  0  0  0  0  0  0  0  0  0  0
    3.2744   -5.2015   -4.6518 C   0  0  2  0  0  0  0  0  0  0  0  0
    2.5271   -3.8560   -4.6169 C   0  0  1  0  0  0  0  0  0  0  0  0
    1.7058   -0.1355    0.4558 C   0  0  1  0  0  0  0  0  0  0  0  0
    4.0641   -2.3173    3.4907 C   0  0  0  0  0  0  0  0  0  0  0  0
    0.4937    0.2120   -0.4469 C   0  0  2  0  0  0  0  0  0  0  0  0
    0.5256   -0.5371   -1.8040 C   0  0  2  0  0  0  0  0  0  0  0  0
    0.4795    1.6185   -0.6890 O   0  0  0  0  0  0  0  0  0  0  0  0
   -0.6863   -0.2297   -2.6026 N   0  0  1  0  0  0  0  0  0  0  0  0
   -0.9187   -0.9326   -3.9003 C   0  0  2  0  0  0  0  0  0  0  0  0
   -1.2386   -2.4465   -3.6863 C   0  0  0  0  0  0  0  0  0  0  0  0
    0.2822   -0.7541   -4.8806 C   0  0  0  0  0  0  0  0  0  0  0  0
   -2.1729   -0.2299   -4.5013 C   0  0  0  0  0  0  0  0  0  0  0  0
    4.2162   -4.6398   -0.6554 H   0  0  0  0  0  0  0  0  0  0  0  0
    2.5290   -4.1062   -0.8626 H   0  0  0  0  0  0  0  0  0  0  0  0
    4.7509   -3.6083   -2.9149 H   0  0  0  0  0  0  0  0  0  0  0  0
    5.9470   -3.1964    0.8508 H   0  0  0  0  0  0  0  0  0  0  0  0
    2.8083   -5.9644   -2.6826 H   0  0  0  0  0  0  0  0  0  0  0  0
    4.5542   -5.9977   -3.0676 H   0  0  0  0  0  0  0  0  0  0  0  0
    2.1008   -1.5625    3.3305 H   0  0  0  0  0  0  0  0  0  0  0  0
    6.0166   -3.0940    3.2705 H   0  0  0  0  0  0  0  0  0  0  0  0
    2.6535   -6.0056   -5.0515 H   0  0  0  0  0  0  0  0  0  0  0  0
    4.1873   -5.1149   -5.2474 H   0  0  0  0  0  0  0  0  0  0  0  0
    1.4514   -4.0183   -4.7259 H   0  0  0  0  0  0  0  0  0  0  0  0
    2.8659   -3.1993   -5.4233 H   0  0  0  0  0  0  0  0  0  0  0  0
    1.6218    0.4273    1.3917 H   0  0  0  0  0  0  0  0  0  0  0  0
    2.6237    0.1790   -0.0538 H   0  0  0  0  0  0  0  0  0  0  0  0
    4.0979   -2.2723    4.5118 H   0  0  0  0  0  0  0  0  0  0  0  0
   -0.4266   -0.0468    0.0846 H   0  0  0  0  0  0  0  0  0  0  0  0
    0.5724   -1.6099   -1.6175 H   0  0  0  0  0  0  0  0  0  0  0  0
    1.4212   -0.2327   -2.3503 H   0  0  0  0  0  0  0  0  0  0  0  0
    0.4291    2.0306    0.1987 H   0  0  0  0  0  0  0  0  0  0  0  0
   -1.4963   -0.4330   -2.0109 H   0  0  0  0  0  0  0  0  0  0  0  0
   -1.4917   -2.9277   -4.6351 H   0  0  0  0  0  0  0  0  0  0  0  0
   -0.3865   -2.9778   -3.2618 H   0  0  0  0  0  0  0  0  0  0  0  0
   -2.0833   -2.5681   -3.0050 H   0  0  0  0  0  0  0  0  0  0  0  0
    0.5106    0.3054   -5.0187 H   0  0  0  0  0  0  0  0  0  0  0  0
    0.0592   -1.1898   -5.8575 H   0  0  0  0  0  0  0  0  0  0  0  0
    1.1766   -1.2438   -4.4947 H   0  0  0  0  0  0  0  0  0  0  0  0
   -1.9802    0.8342   -4.6575 H   0  0  0  0  0  0  0  0  0  0  0  0
   -3.0257   -0.3213   -3.8248 H   0  0  0  0  0  0  0  0  0  0  0  0
   -2.4500   -0.6718   -5.4604 H   0  0  0  0  0  0  0  0  0  0  0  0
  1  2  1  0  0  0  0 
  1  3  1  0  0  0  0 
  2  4  1  0  0  0  0 
  3  5  2  0  0  0  0 
  3  6  1  0  0  0  0 
  4  7  1  0  0  0  0 
  4  8  1  0  0  0  0 
  5  9  1  0  0  0  0 
  5 10  1  0  0  0  0 
  6 11  2  0  0  0  0 
  7 12  1  0  0  0  0 
  8 13  1  0  0  0  0 
  9 14  1  0  0  0  0 
 10 15  2  0  0  0  0 
 11 15  1  0  0  0  0 
 12 13  1  0  0  0  0 
 14 16  1  0  0  0  0 
 16 17  1  0  0  0  0 
 16 18  1  0  0  0  0 
 17 19  1  0  0  0  0 
 19 20  1  0  0  0  0 
 20 21  1  0  0  0  0 
 20 22  1  0  0  0  0 
 20 23  1  0  0  0  0 
  2 24  1  0  0  0  0 
  2 25  1  0  0  0  0 
  4 26  1  0  0  0  0 
  6 27  1  0  0  0  0 
  7 28  1  0  0  0  0 
  7 29  1  0  0  0  0 
 10 30  1  0  0  0  0 
 11 31  1  0  0  0  0 
 12 32  1  0  0  0  0 
 12 33  1  0  0  0  0 
 13 34  1  0  0  0  0 
 13 35  1  0  0  0  0 
 14 36  1  0  0  0  0 
 14 37  1  0  0  0  0 
 15 38  1  0  0  0  0 
 16 39  1  0  0  0  0 
 17 40  1  0  0  0  0 
 17 41  1  0  0  0  0 
 18 42  1  0  0  0  0 
 19 43  1  0  0  0  0 
 21 44  1  0  0  0  0 
 21 45  1  0  0  0  0 
 21 46  1  0  0  0  0 
 22 47  1  0  0  0  0 
 22 48  1  0  0  0  0 
 22 49  1  0  0  0  0 
 23 50  1  0  0  0  0 
 23 51  1  0  0  0  0 
 23 52  1  0  0  0  0 
M  END
> <cdk:Title>
bufetolol

> <Conformer>
1

> <SuperDrugID>
SD002645

$$$$
