glibornuride
  CDK     0628171801

 51 53  0  0  0  0  0  0  0  0999 V2000
    0.5891   -1.6223    2.1601 C   0  0  0  0  0  0  0  0  0  0  0  0
    0.5043   -0.8634    0.8037 C   0  0  1  0  0  0  0  0  0  0  0  0
   -0.8186   -1.0698   -0.0191 C   0  0  1  0  0  0  0  0  0  0  0  0
    0.5887    0.7025    0.9560 C   0  0  1  0  0  0  0  0  0  0  0  0
    1.6304   -1.3177   -0.1925 C   0  0  1  0  0  0  0  0  0  0  0  0
   -1.1518   -2.5460   -0.4753 C   0  0  0  0  0  0  0  0  0  0  0  0
   -2.1620   -0.5861    0.6569 C   0  0  0  0  0  0  0  0  0  0  0  0
   -0.2448   -0.1342   -1.1385 C   0  0  1  0  0  0  0  0  0  0  0  0
    1.8932    1.1715    1.2993 O   0  0  0  0  0  0  0  0  0  0  0  0
    0.0614    1.2264   -0.4184 C   0  0  2  0  0  0  0  0  0  0  0  0
    1.0913   -0.8283   -1.5555 C   0  0  2  0  0  0  0  0  0  0  0  0
    0.9537    2.1033   -1.1285 N   0  0  0  0  0  0  0  0  0  0  0  0
    1.1479    3.4246   -0.8729 C   0  0  0  0  0  0  0  0  0  0  0  0
    2.0564    4.0713   -1.6422 N   0  0  0  0  0  0  0  0  0  0  0  0
    0.4989    4.0230    0.0174 O   0  0  0  0  0  0  0  0  0  0  0  0
    2.3803    5.7594   -1.5940 S   0  0  2  0  0  0  0  0  0  0  0  0
    3.8780    5.9973   -2.1212 O   0  0  0  0  0  0  0  0  0  0  0  0
    2.2668    6.3128   -0.0924 O   0  0  0  0  0  0  0  0  0  0  0  0
    1.2043    6.5370   -2.6688 C   0  0  0  0  0  0  0  0  0  0  0  0
    1.3638    6.4449   -4.0660 C   0  0  0  0  0  0  0  0  0  0  0  0
    0.0602    7.1697   -2.1420 C   0  0  0  0  0  0  0  0  0  0  0  0
    0.3558    6.9163   -4.9275 C   0  0  0  0  0  0  0  0  0  0  0  0
   -0.9451    7.6475   -3.0039 C   0  0  0  0  0  0  0  0  0  0  0  0
   -0.8234    7.4964   -4.4056 C   0  0  0  0  0  0  0  0  0  0  0  0
   -1.9112    7.9146   -5.3212 C   0  0  0  0  0  0  0  0  0  0  0  0
    0.5065   -2.7001    2.0060 H   0  0  0  0  0  0  0  0  0  0  0  0
   -0.2110   -1.3102    2.8326 H   0  0  0  0  0  0  0  0  0  0  0  0
    1.5459   -1.4202    2.6462 H   0  0  0  0  0  0  0  0  0  0  0  0
   -0.0710    1.0390    1.7604 H   0  0  0  0  0  0  0  0  0  0  0  0
    2.6014   -0.8746    0.0405 H   0  0  0  0  0  0  0  0  0  0  0  0
    1.7672   -2.4023   -0.2056 H   0  0  0  0  0  0  0  0  0  0  0  0
   -0.3003   -3.1055   -0.8534 H   0  0  0  0  0  0  0  0  0  0  0  0
   -1.9028   -2.5270   -1.2697 H   0  0  0  0  0  0  0  0  0  0  0  0
   -1.5534   -3.1316    0.3562 H   0  0  0  0  0  0  0  0  0  0  0  0
   -2.3906   -1.2036    1.5304 H   0  0  0  0  0  0  0  0  0  0  0  0
   -2.1488    0.4407    1.0057 H   0  0  0  0  0  0  0  0  0  0  0  0
   -2.9927   -0.6630   -0.0507 H   0  0  0  0  0  0  0  0  0  0  0  0
   -0.9261   -0.0131   -1.9857 H   0  0  0  0  0  0  0  0  0  0  0  0
    1.7911    2.1407    1.4020 H   0  0  0  0  0  0  0  0  0  0  0  0
   -0.8798    1.7704   -0.2879 H   0  0  0  0  0  0  0  0  0  0  0  0
    0.9081   -1.6652   -2.2333 H   0  0  0  0  0  0  0  0  0  0  0  0
    1.8009   -0.1647   -2.0507 H   0  0  0  0  0  0  0  0  0  0  0  0
    1.4664    1.7240   -1.8560 H   0  0  0  0  0  0  0  0  0  0  0  0
    2.5334    3.5526   -2.3085 H   0  0  0  0  0  0  0  0  0  0  0  0
    2.2012    6.0138   -4.4643 H   0  0  0  0  0  0  0  0  0  0  0  0
   -0.0604    7.2679   -1.1308 H   0  0  0  0  0  0  0  0  0  0  0  0
    0.4814    6.8209   -5.9379 H   0  0  0  0  0  0  0  0  0  0  0  0
   -1.7693    8.0999   -2.5983 H   0  0  0  0  0  0  0  0  0  0  0  0
   -2.7995    8.2419   -4.7766 H   0  0  0  0  0  0  0  0  0  0  0  0
   -1.5748    8.7369   -5.9535 H   0  0  0  0  0  0  0  0  0  0  0  0
   -2.2015    7.0757   -5.9579 H   0  0  0  0  0  0  0  0  0  0  0  0
  2  1  1  0  0  0  0 
  2  3  1  0  0  0  0 
  4  2  1  0  0  0  0 
  2  5  1  0  0  0  0 
  3  6  1  0  0  0  0 
  3  7  1  0  0  0  0 
  4  9  1  0  0  0  0 
 10  4  1  0  0  0  0 
  5 11  1  0  0  0  0 
  8  3  1  0  0  0  0 
 10  8  1  0  0  0  0 
  8 11  1  0  0  0  0 
 10 12  1  0  0  0  0 
 12 13  1  0  0  0  0 
 13 14  1  0  0  0  0 
 13 15  2  0  0  0  0 
 14 16  1  0  0  0  0 
 16 17  2  0  0  0  0 
 16 18  2  0  0  0  0 
 16 19  1  0  0  0  0 
 19 20  2  0  0  0  0 
 19 21  1  0  0  0  0 
 20 22  1  0  0  0  0 
 21 23  2  0  0  0  0 
 22 24  2  0  0  0  0 
 23 24  1  0  0  0  0 
 24 25  1  0  0  0  0 
  1 26  1  0  0  0  0 
  1 27  1  0  0  0  0 
  1 28  1  0  0  0  0 
  4 29  1  0  0  0  0 
  5 30  1  0  0  0  0 
  5 31  1  0  0  0  0 
  6 32  1  0  0  0  0 
  6 33  1  0  0  0  0 
  6 34  1  0  0  0  0 
  7 35  1  0  0  0  0 
  7 36  1  0  0  0  0 
  7 37  1  0  0  0  0 
  8 38  1  0  0  0  0 
  9 39  1  0  0  0  0 
 10 40  1  0  0  0  0 
 11 41  1  0  0  0  0 
 11 42  1  0  0  0  0 
 12 43  1  0  0  0  0 
 14 44  1  0  0  0  0 
 20 45  1  0  0  0  0 
 21 46  1  0  0  0  0 
 22 47  1  0  0  0  0 
 23 48  1  0  0  0  0 
 25 49  1  0  0  0  0 
 25 50  1  0  0  0  0 
 25 51  1  0  0  0  0 
M  END
> <cdk:Title>
glibornuride

> <Conformer>
1

> <SuperDrugID>
SD001154

$$$$
