diflorasone diacetate
  CDK     0628171801

 67 70  0  0  0  0  0  0  0  0999 V2000
   -4.1477   -6.8550   -8.6565 C   0  0  0  0  0  0  0  0  0  0  0  0
   -3.5411   -7.3510   -9.9199 C   0  0  2  0  0  0  0  0  0  0  0  0
   -5.3764   -7.0802   -8.5689 O   0  0  0  0  0  0  0  0  0  0  0  0
   -3.4073   -6.1761   -7.5233 C   0  0  2  0  0  0  0  0  0  0  0  0
   -2.1264   -7.5692   -9.8521 O   0  0  0  0  0  0  0  0  0  0  0  0
   -2.2709   -5.4847   -8.1040 O   0  0  0  0  0  0  0  0  0  0  0  0
   -2.8409   -7.1992   -6.4451 C   0  0  2  0  0  0  0  0  0  0  0  0
   -4.1804   -5.0976   -6.6359 C   0  0  1  0  0  0  0  0  0  0  0  0
   -1.3628   -8.1874  -10.7992 C   0  0  0  0  0  0  0  0  0  0  0  0
   -2.2172   -4.5027   -9.0565 C   0  0  0  0  0  0  0  0  0  0  0  0
   -3.9528   -8.2604   -6.0727 C   0  0  0  0  0  0  0  0  0  0  0  0
   -2.4729   -6.2180   -5.2825 C   0  0  1  0  0  0  0  0  0  0  0  0
   -1.5188   -7.9692   -6.8198 C   0  0  2  0  0  0  0  0  0  0  0  0
   -5.7268   -4.9586   -6.7409 C   0  0  0  0  0  0  0  0  0  0  0  0
   -3.7294   -5.3314   -5.1603 C   0  0  2  0  0  0  0  0  0  0  0  0
    0.0776   -8.3443  -10.5531 C   0  0  0  0  0  0  0  0  0  0  0  0
   -1.8770   -8.6455  -11.8482 O   0  0  0  0  0  0  0  0  0  0  0  0
   -0.8988   -4.0201   -9.4826 C   0  0  0  0  0  0  0  0  0  0  0  0
   -3.2529   -4.0362   -9.5878 O   0  0  0  0  0  0  0  0  0  0  0  0
   -1.8864   -6.9165   -4.0067 C   0  0  1  0  0  0  0  0  0  0  0  0
   -0.8065   -8.6704   -5.6176 C   0  0  1  0  0  0  0  0  0  0  0  0
   -0.5784   -7.7388   -4.3617 C   0  0  1  0  0  0  0  0  0  0  0  0
   -1.5965   -5.8985   -2.8594 C   0  0  1  0  0  0  0  0  0  0  0  0
   -1.5050   -9.8676   -5.2946 O   0  0  0  0  0  0  0  0  0  0  0  0
    0.3636   -6.8190   -4.8085 F   0  0  0  0  0  0  0  0  0  0  0  0
    0.0621   -8.4291   -3.0667 C   0  0  2  0  0  0  0  0  0  0  0  0
   -0.9469   -6.5718   -1.6226 C   0  0  1  0  0  0  0  0  0  0  0  0
   -0.7990   -9.5854   -2.4326 C   0  0  0  0  0  0  0  0  0  0  0  0
    0.2371   -7.3614   -2.0186 C   0  0  0  0  0  0  0  0  0  0  0  0
    1.3474   -9.0804   -3.4327 C   0  0  0  0  0  0  0  0  0  0  0  0
   -0.7176   -5.5846   -0.6850 F   0  0  0  0  0  0  0  0  0  0  0  0
    1.4554   -7.1123   -1.4817 C   0  0  0  0  0  0  0  0  0  0  0  0
    2.5224   -8.7658   -2.8672 C   0  0  0  0  0  0  0  0  0  0  0  0
    2.5892   -7.8024   -1.8812 C   0  0  0  0  0  0  0  0  0  0  0  0
    3.6962   -7.5480   -1.3460 O   0  0  0  0  0  0  0  0  0  0  0  0
   -3.7522   -6.6344  -10.7155 H   0  0  0  0  0  0  0  0  0  0  0  0
   -4.0097   -8.3027  -10.1848 H   0  0  0  0  0  0  0  0  0  0  0  0
   -3.8165   -4.0986   -6.9020 H   0  0  0  0  0  0  0  0  0  0  0  0
   -4.0714   -8.9848   -6.8811 H   0  0  0  0  0  0  0  0  0  0  0  0
   -4.9232   -7.7953   -5.9131 H   0  0  0  0  0  0  0  0  0  0  0  0
   -3.7287   -8.8210   -5.1718 H   0  0  0  0  0  0  0  0  0  0  0  0
   -1.6786   -5.5400   -5.6248 H   0  0  0  0  0  0  0  0  0  0  0  0
   -0.7957   -7.2786   -7.2623 H   0  0  0  0  0  0  0  0  0  0  0  0
   -1.7324   -8.7237   -7.5807 H   0  0  0  0  0  0  0  0  0  0  0  0
   -6.0822   -4.1697   -6.0746 H   0  0  0  0  0  0  0  0  0  0  0  0
   -6.2326   -5.8842   -6.4636 H   0  0  0  0  0  0  0  0  0  0  0  0
   -6.0114   -4.6858   -7.7591 H   0  0  0  0  0  0  0  0  0  0  0  0
   -4.4948   -5.8437   -4.5696 H   0  0  0  0  0  0  0  0  0  0  0  0
   -3.4988   -4.3846   -4.6628 H   0  0  0  0  0  0  0  0  0  0  0  0
    0.5419   -8.9622  -11.3272 H   0  0  0  0  0  0  0  0  0  0  0  0
    0.5575   -7.3636  -10.5444 H   0  0  0  0  0  0  0  0  0  0  0  0
    0.2358   -8.8212   -9.5848 H   0  0  0  0  0  0  0  0  0  0  0  0
   -0.8416   -2.9343   -9.3814 H   0  0  0  0  0  0  0  0  0  0  0  0
   -0.7400   -4.2969  -10.5266 H   0  0  0  0  0  0  0  0  0  0  0  0
   -0.1097   -4.4700   -8.8763 H   0  0  0  0  0  0  0  0  0  0  0  0
   -2.6479   -7.5959   -3.6239 H   0  0  0  0  0  0  0  0  0  0  0  0
    0.1652   -9.0053   -5.9929 H   0  0  0  0  0  0  0  0  0  0  0  0
   -0.9362   -5.1072   -3.2258 H   0  0  0  0  0  0  0  0  0  0  0  0
   -2.5314   -5.4277   -2.5463 H   0  0  0  0  0  0  0  0  0  0  0  0
   -1.4988  -10.4010   -6.1183 H   0  0  0  0  0  0  0  0  0  0  0  0
   -1.6780   -7.2364   -1.1590 H   0  0  0  0  0  0  0  0  0  0  0  0
   -0.7819  -10.4976   -3.0304 H   0  0  0  0  0  0  0  0  0  0  0  0
   -0.4184   -9.8550   -1.4438 H   0  0  0  0  0  0  0  0  0  0  0  0
   -1.8427   -9.3025   -2.3157 H   0  0  0  0  0  0  0  0  0  0  0  0
    1.3513   -9.7984   -4.1208 H   0  0  0  0  0  0  0  0  0  0  0  0
    1.5698   -6.4135   -0.7844 H   0  0  0  0  0  0  0  0  0  0  0  0
    3.3500   -9.2359   -3.1598 H   0  0  0  0  0  0  0  0  0  0  0  0
  1  2  1  0  0  0  0 
  1  3  2  0  0  0  0 
  4  1  1  0  0  0  0 
  2  5  1  0  0  0  0 
  4  6  1  0  0  0  0 
  7  4  1  0  0  0  0 
  4  8  1  0  0  0  0 
  5  9  1  0  0  0  0 
  6 10  1  0  0  0  0 
  7 11  1  0  0  0  0 
 12  7  1  0  0  0  0 
  7 13  1  0  0  0  0 
  8 14  1  0  0  0  0 
  8 15  1  0  0  0  0 
  9 16  1  0  0  0  0 
  9 17  2  0  0  0  0 
 10 18  1  0  0  0  0 
 10 19  2  0  0  0  0 
 12 15  1  0  0  0  0 
 20 12  1  0  0  0  0 
 21 13  1  0  0  0  0 
 22 20  1  0  0  0  0 
 20 23  1  0  0  0  0 
 22 21  1  0  0  0  0 
 21 24  1  0  0  0  0 
 22 25  1  0  0  0  0 
 22 26  1  0  0  0  0 
 27 23  1  0  0  0  0 
 26 28  1  0  0  0  0 
 26 29  1  0  0  0  0 
 26 30  1  0  0  0  0 
 27 29  1  0  0  0  0 
 27 31  1  0  0  0  0 
 29 32  2  0  0  0  0 
 30 33  2  0  0  0  0 
 32 34  1  0  0  0  0 
 33 34  1  0  0  0  0 
 34 35  2  0  0  0  0 
 36  2  1  0  0  0  0 
 37  2  1  0  0  0  0 
  8 38  1  0  0  0  0 
 39 11  1  0  0  0  0 
 40 11  1  0  0  0  0 
 41 11  1  0  0  0  0 
 12 42  1  0  0  0  0 
 43 13  1  0  0  0  0 
 44 13  1  0  0  0  0 
 45 14  1  0  0  0  0 
 46 14  1  0  0  0  0 
 47 14  1  0  0  0  0 
 48 15  1  0  0  0  0 
 49 15  1  0  0  0  0 
 50 16  1  0  0  0  0 
 51 16  1  0  0  0  0 
 52 16  1  0  0  0  0 
 53 18  1  0  0  0  0 
 54 18  1  0  0  0  0 
 55 18  1  0  0  0  0 
 20 56  1  0  0  0  0 
 21 57  1  0  0  0  0 
 58 23  1  0  0  0  0 
 59 23  1  0  0  0  0 
 60 24  1  0  0  0  0 
 27 61  1  0  0  0  0 
 62 28  1  0  0  0  0 
 63 28  1  0  0  0  0 
 64 28  1  0  0  0  0 
 65 30  1  0  0  0  0 
 66 32  1  0  0  0  0 
 67 33  1  0  0  0  0 
M  END
> <cdk:Title>
diflorasone diacetate

> <Conformer>
1

> <SuperDrugID>
SD003592

$$$$
