sulfadicramide
  CDK     0628171801

 31 31  0  0  0  0  0  0  0  0999 V2000
   -0.1214    0.1580   -0.1258 S   0  0  2  0  0  0  0  0  0  0  0  0
   -0.5079   -0.9721    1.1121 N   0  0  0  0  0  0  0  0  0  0  0  0
   -0.2181   -0.5989   -1.5376 O   0  0  0  0  0  0  0  0  0  0  0  0
    1.3849    0.6667    0.0889 O   0  0  0  0  0  0  0  0  0  0  0  0
   -1.2774    1.5028   -0.0708 C   0  0  0  0  0  0  0  0  0  0  0  0
   -0.7067   -0.6428    2.4182 C   0  0  0  0  0  0  0  0  0  0  0  0
   -0.8581    2.8427   -0.2097 C   0  0  0  0  0  0  0  0  0  0  0  0
   -2.6418    1.2252    0.1547 C   0  0  0  0  0  0  0  0  0  0  0  0
   -1.1074   -1.6418    3.3013 C   0  0  0  0  0  0  0  0  0  0  0  0
   -0.5238    0.5425    2.7846 O   0  0  0  0  0  0  0  0  0  0  0  0
   -1.7912    3.8923   -0.0951 C   0  0  0  0  0  0  0  0  0  0  0  0
   -3.5725    2.2721    0.2741 C   0  0  0  0  0  0  0  0  0  0  0  0
   -1.5959   -1.5101    4.5596 C   0  0  0  0  0  0  0  0  0  0  0  0
   -3.1493    3.6111    0.1634 C   0  0  0  0  0  0  0  0  0  0  0  0
   -1.9581   -2.6981    5.3362 C   0  0  0  0  0  0  0  0  0  0  0  0
   -1.8030   -0.2130    5.2064 C   0  0  0  0  0  0  0  0  0  0  0  0
   -4.0444    4.6076    0.3105 N   0  0  0  0  0  0  0  0  0  0  0  0
   -0.6176   -1.9008    0.8528 H   0  0  0  0  0  0  0  0  0  0  0  0
    0.1257    3.0627   -0.3837 H   0  0  0  0  0  0  0  0  0  0  0  0
   -2.9661    0.2603    0.2478 H   0  0  0  0  0  0  0  0  0  0  0  0
   -1.0275   -2.5665    2.9418 H   0  0  0  0  0  0  0  0  0  0  0  0
   -1.4738    4.8597   -0.1934 H   0  0  0  0  0  0  0  0  0  0  0  0
   -4.5567    2.0521    0.4474 H   0  0  0  0  0  0  0  0  0  0  0  0
   -1.3442   -2.7496    6.2376 H   0  0  0  0  0  0  0  0  0  0  0  0
   -1.8205   -3.6334    4.7897 H   0  0  0  0  0  0  0  0  0  0  0  0
   -3.0081   -2.6451    5.6313 H   0  0  0  0  0  0  0  0  0  0  0  0
   -2.2354   -0.3008    6.2067 H   0  0  0  0  0  0  0  0  0  0  0  0
   -2.4855    0.3969    4.6101 H   0  0  0  0  0  0  0  0  0  0  0  0
   -0.8511    0.3087    5.3166 H   0  0  0  0  0  0  0  0  0  0  0  0
   -3.7658    5.5332    0.2303 H   0  0  0  0  0  0  0  0  0  0  0  0
   -4.9726    4.3988    0.5024 H   0  0  0  0  0  0  0  0  0  0  0  0
  1  2  1  0  0  0  0 
  1  3  2  0  0  0  0 
  1  4  2  0  0  0  0 
  1  5  1  0  0  0  0 
  2  6  1  0  0  0  0 
  5  7  2  0  0  0  0 
  5  8  1  0  0  0  0 
  6  9  1  0  0  0  0 
  6 10  2  0  0  0  0 
  7 11  1  0  0  0  0 
  8 12  2  0  0  0  0 
  9 13  2  0  0  0  0 
 11 14  2  0  0  0  0 
 12 14  1  0  0  0  0 
 13 15  1  0  0  0  0 
 13 16  1  0  0  0  0 
 14 17  1  0  0  0  0 
  2 18  1  0  0  0  0 
  7 19  1  0  0  0  0 
  8 20  1  0  0  0  0 
  9 21  1  0  0  0  0 
 11 22  1  0  0  0  0 
 12 23  1  0  0  0  0 
 15 24  1  0  0  0  0 
 15 25  1  0  0  0  0 
 15 26  1  0  0  0  0 
 16 27  1  0  0  0  0 
 16 28  1  0  0  0  0 
 16 29  1  0  0  0  0 
 17 30  1  0  0  0  0 
 17 31  1  0  0  0  0 
M  END
> <cdk:Title>
sulfadicramide

> <Conformer>
1

> <SuperDrugID>
SD003061

$$$$
