guanoxabenz
  CDK     0628171801

 23 23  0  0  0  0  0  0  0  0999 V2000
   -4.0316    0.1729    1.7479 C   0  0  0  0  0  0  0  0  0  0  0  0
   -3.1324   -0.4705    1.0971 N   0  0  0  0  0  0  0  0  0  0  0  0
   -4.1378    1.5680    1.7199 C   0  0  0  0  0  0  0  0  0  0  0  0
   -2.9893   -1.6991    1.1027 N   0  0  0  0  0  0  0  0  0  0  0  0
   -3.7645    2.3476    0.5816 C   0  0  0  0  0  0  0  0  0  0  0  0
   -4.6404    2.2584    2.8646 C   0  0  0  0  0  0  0  0  0  0  0  0
   -2.1156   -2.3516    0.4253 C   0  0  0  0  0  0  0  0  0  0  0  0
   -3.2535    1.6932   -0.9037 Cl  0  0  0  0  0  0  0  0  0  0  0  0
   -3.8389    3.7556    0.6235 C   0  0  0  0  0  0  0  0  0  0  0  0
   -5.1674    1.4779    4.2814 Cl  0  0  0  0  0  0  0  0  0  0  0  0
   -4.7135    3.6658    2.8850 C   0  0  0  0  0  0  0  0  0  0  0  0
   -2.1147   -3.6683    0.5633 N   0  0  0  0  0  0  0  0  0  0  0  0
   -1.2557   -1.7398   -0.3776 N   0  0  0  0  0  0  0  0  0  0  0  0
   -4.3006    4.4115    1.7734 C   0  0  0  0  0  0  0  0  0  0  0  0
   -1.2660   -4.4469   -0.0537 O   0  0  0  0  0  0  0  0  0  0  0  0
   -4.6601   -0.3498    2.3138 H   0  0  0  0  0  0  0  0  0  0  0  0
   -3.5616    4.3187   -0.1859 H   0  0  0  0  0  0  0  0  0  0  0  0
   -5.0635    4.1604    3.7115 H   0  0  0  0  0  0  0  0  0  0  0  0
   -2.7629   -4.0728    1.1628 H   0  0  0  0  0  0  0  0  0  0  0  0
   -0.6119   -2.2503   -0.8934 H   0  0  0  0  0  0  0  0  0  0  0  0
   -1.2723   -0.7718   -0.4493 H   0  0  0  0  0  0  0  0  0  0  0  0
   -4.3426    5.4328    1.8019 H   0  0  0  0  0  0  0  0  0  0  0  0
   -1.7135   -5.3188   -0.1023 H   0  0  0  0  0  0  0  0  0  0  0  0
  1  2  2  0  0  0  0 
  1  3  1  0  0  0  0 
  4  2  1  0  0  0  0 
  3  5  2  0  0  0  0 
  3  6  1  0  0  0  0 
  4  7  2  0  0  0  0 
  5  8  1  0  0  0  0 
  5  9  1  0  0  0  0 
  6 10  1  0  0  0  0 
  6 11  2  0  0  0  0 
  7 12  1  0  0  0  0 
  7 13  1  0  0  0  0 
  9 14  2  0  0  0  0 
 11 14  1  0  0  0  0 
 12 15  1  0  0  0  0 
 16  1  1  0  0  0  0 
 17  9  1  0  0  0  0 
 18 11  1  0  0  0  0 
 19 12  1  0  0  0  0 
 20 13  1  0  0  0  0 
 21 13  1  0  0  0  0 
 22 14  1  0  0  0  0 
 23 15  1  0  0  0  0 
M  END
> <cdk:Title>
guanoxabenz

> <Conformer>
1

> <SuperDrugID>
SD001193

$$$$
