oxytocin
  CDK     0628171801

135137  0  0  0  0  0  0  0  0999 V2000
   -6.4544   -8.4061   -0.5055 H   0  0  0  0  0  0  0  0  0  0  0  0
   -5.8545   -7.8733   -1.1404 N   0  0  2  0  0  0  0  0  0  0  0  0
   -4.4745   -5.5664   -2.2075 N   0  0  0  0  0  0  0  0  0  0  0  0
   -2.9050   -2.3589   -2.9057 N   0  0  0  0  0  0  0  0  0  0  0  0
   -1.5900   -0.7246   -0.8091 N   0  0  0  0  0  0  0  0  0  0  0  0
   -3.4023    0.4388    1.8495 N   0  0  0  0  0  0  0  0  0  0  0  0
   -6.5860    0.1633    0.9310 N   0  0  0  0  0  0  0  0  0  0  0  0
   -5.0917   -2.5217    1.9950 N   0  0  0  0  0  0  0  0  0  0  0  0
   -2.7934   -2.1847    4.1125 N   0  0  0  0  0  0  0  0  0  0  0  0
   -1.9421    0.3849    6.1871 N   0  0  0  0  0  0  0  0  0  0  0  0
   -3.1148    3.8376    6.4979 N   0  0  0  0  0  0  0  0  0  0  0  0
   -5.7852   -5.8664   -2.4882 C   0  0  0  0  0  0  0  0  0  0  0  0
   -8.0757   -4.4248   -0.6912 S   0  0  0  0  0  0  0  0  0  0  0  0
   -7.1952   -5.9736   -0.3193 C   0  0  2  0  0  0  0  0  0  0  0  0
   -6.6212   -6.6949   -1.5716 C   0  0  2  0  0  0  0  0  0  0  0  0
   -6.3063   -5.4952   -3.5666 O   0  0  0  0  0  0  0  0  0  0  0  0
   -3.7669   -3.4064   -3.1304 C   0  0  0  0  0  0  0  0  0  0  0  0
   -3.3689   -5.5909   -4.4289 C   0  0  1  0  0  0  0  0  0  0  0  0
   -2.0431   -5.4910   -5.1068 C   0  0  0  0  0  0  0  0  0  0  0  0
   -0.8805   -6.0260   -4.4976 C   0  0  0  0  0  0  0  0  0  0  0  0
    0.3598   -6.0040   -5.1606 C   0  0  0  0  0  0  0  0  0  0  0  0
    0.4628   -5.4510   -6.4498 C   0  0  0  0  0  0  0  0  0  0  0  0
    1.6550   -5.4331   -7.1000 O   0  0  0  0  0  0  0  0  0  0  0  0
   -0.6814   -4.9149   -7.0692 C   0  0  0  0  0  0  0  0  0  0  0  0
   -1.9227   -4.9319   -6.4033 C   0  0  0  0  0  0  0  0  0  0  0  0
   -3.5058   -4.8793   -3.0398 C   0  0  2  0  0  0  0  0  0  0  0  0
   -4.9235   -3.0390   -3.4370 O   0  0  0  0  0  0  0  0  0  0  0  0
   -1.2420   -1.9665   -1.2640 C   0  0  0  0  0  0  0  0  0  0  0  0
   -0.7602   -1.3733   -3.6907 C   0  0  2  0  0  0  0  0  0  0  0  0
    0.7799   -1.3272   -3.4484 C   0  0  0  0  0  0  0  0  0  0  0  0
   -1.4818   -2.3509   -2.6843 C   0  0  2  0  0  0  0  0  0  0  0  0
   -0.5924   -0.6962   -6.2344 C   0  0  0  0  0  0  0  0  0  0  0  0
   -1.0670   -1.7313   -5.1833 C   0  0  2  0  0  0  0  0  0  0  0  0
   -0.6906   -2.7955   -0.5011 O   0  0  0  0  0  0  0  0  0  0  0  0
   -2.5442    0.7064    0.8159 C   0  0  0  0  0  0  0  0  0  0  0  0
   -0.0498    0.5271    0.7015 C   0  0  1  0  0  0  0  0  0  0  0  0
    1.1755   -0.4241    0.8087 C   0  0  2  0  0  0  0  0  0  0  0  0
    2.4453    0.2985    1.0434 C   0  0  0  0  0  0  0  0  0  0  0  0
    3.4694    0.2380    0.1711 N   0  0  0  0  0  0  0  0  0  0  0  0
    2.6002    0.9807    2.0821 O   0  0  0  0  0  0  0  0  0  0  0  0
   -1.4126   -0.2131    0.5258 C   0  0  2  0  0  0  0  0  0  0  0  0
   -2.6920    1.7155    0.0854 O   0  0  0  0  0  0  0  0  0  0  0  0
   -5.5880    1.0729    1.1154 C   0  0  0  0  0  0  0  0  0  0  0  0
   -4.2709    2.6218    2.6866 C   0  0  1  0  0  0  0  0  0  0  0  0
   -5.3309    3.3285    3.4459 C   0  0  0  0  0  0  0  0  0  0  0  0
   -6.4968    2.7620    3.8120 N   0  0  0  0  0  0  0  0  0  0  0  0
   -5.1385    4.5166    3.7922 O   0  0  0  0  0  0  0  0  0  0  0  0
   -4.5885    1.1598    2.2197 C   0  0  2  0  0  0  0  0  0  0  0  0
   -5.5143    1.9048    0.1817 O   0  0  0  0  0  0  0  0  0  0  0  0
   -6.1117   -1.7364    2.5132 C   0  0  0  0  0  0  0  0  0  0  0  0
   -8.2619   -3.5270    1.2052 S   0  0  0  0  0  0  0  0  0  0  0  0
   -8.0517   -1.7506    0.8259 C   0  0  2  0  0  0  0  0  0  0  0  0
   -7.0950   -0.9083    1.7430 C   0  0  2  0  0  0  0  0  0  0  0  0
   -6.3103   -1.7581    3.7529 O   0  0  0  0  0  0  0  0  0  0  0  0
   -3.8117   -3.0845    4.0729 C   0  0  0  0  0  0  0  0  0  0  0  0
   -4.3742   -3.5099    2.7707 C   0  0  2  0  0  0  0  0  0  0  0  0
   -3.2652   -4.0489    1.8365 C   0  0  2  0  0  0  0  0  0  0  0  0
   -3.8745   -3.8236    0.4588 C   0  0  2  0  0  0  0  0  0  0  0  0
   -4.6981   -2.5383    0.6172 C   0  0  1  0  0  0  0  0  0  0  0  0
   -4.2592   -3.6177    5.1169 O   0  0  0  0  0  0  0  0  0  0  0  0
   -1.5990   -0.4583    5.1779 C   0  0  0  0  0  0  0  0  0  0  0  0
    1.3176   -3.7711    6.4032 C   0  0  0  0  0  0  0  0  0  0  0  0
   -0.8163   -2.8765    5.3138 C   0  0  2  0  0  0  0  0  0  0  0  0
   -2.0114   -1.8774    5.2696 C   0  0  2  0  0  0  0  0  0  0  0  0
   -0.6764   -3.2219    7.8876 C   0  0  0  0  0  0  0  0  0  0  0  0
    0.0864   -2.8379    6.5875 C   0  0  1  0  0  0  0  0  0  0  0  0
   -0.9728   -0.0552    4.1679 O   0  0  0  0  0  0  0  0  0  0  0  0
   -3.0540    2.4963    6.4597 C   0  0  0  0  0  0  0  0  0  0  0  0
   -1.7705    1.8041    6.2107 C   0  0  2  0  0  0  0  0  0  0  0  0
   -4.1249    1.8715    6.6408 O   0  0  0  0  0  0  0  0  0  0  0  0
   -5.0642   -7.5350   -0.5854 H   0  0  0  0  0  0  0  0  0  0  0  0
   -4.1448   -5.8835   -1.3520 H   0  0  0  0  0  0  0  0  0  0  0  0
   -3.3147   -1.4783   -2.9319 H   0  0  0  0  0  0  0  0  0  0  0  0
   -1.9925   -0.1225   -1.4559 H   0  0  0  0  0  0  0  0  0  0  0  0
   -3.2006   -0.3452    2.3826 H   0  0  0  0  0  0  0  0  0  0  0  0
   -7.0796    0.2949    0.1046 H   0  0  0  0  0  0  0  0  0  0  0  0
   -2.5191   -1.7827    3.2721 H   0  0  0  0  0  0  0  0  0  0  0  0
   -2.3712   -0.0139    6.9616 H   0  0  0  0  0  0  0  0  0  0  0  0
   -2.3177    4.3706    6.3552 H   0  0  0  0  0  0  0  0  0  0  0  0
   -3.9642    4.2740    6.6680 H   0  0  0  0  0  0  0  0  0  0  0  0
   -7.9152   -6.6348    0.1678 H   0  0  0  0  0  0  0  0  0  0  0  0
   -6.4078   -5.7764    0.4031 H   0  0  0  0  0  0  0  0  0  0  0  0
   -7.4732   -7.0872   -2.1353 H   0  0  0  0  0  0  0  0  0  0  0  0
   -4.1648   -5.2297   -5.0860 H   0  0  0  0  0  0  0  0  0  0  0  0
   -3.5496   -6.6619   -4.2983 H   0  0  0  0  0  0  0  0  0  0  0  0
   -0.9285   -6.4518   -3.5693 H   0  0  0  0  0  0  0  0  0  0  0  0
    1.1855   -6.4020   -4.7064 H   0  0  0  0  0  0  0  0  0  0  0  0
    2.2601   -5.9894   -6.5654 H   0  0  0  0  0  0  0  0  0  0  0  0
   -0.6144   -4.5107   -8.0046 H   0  0  0  0  0  0  0  0  0  0  0  0
   -2.7397   -4.5382   -6.8755 H   0  0  0  0  0  0  0  0  0  0  0  0
   -2.5712   -5.0211   -2.4990 H   0  0  0  0  0  0  0  0  0  0  0  0
   -1.1453   -0.3634   -3.5166 H   0  0  0  0  0  0  0  0  0  0  0  0
    1.0046   -1.0024   -2.4353 H   0  0  0  0  0  0  0  0  0  0  0  0
    1.2175   -2.3152   -3.6042 H   0  0  0  0  0  0  0  0  0  0  0  0
    1.2640   -0.6152   -4.1167 H   0  0  0  0  0  0  0  0  0  0  0  0
   -1.0699   -3.3480   -2.8567 H   0  0  0  0  0  0  0  0  0  0  0  0
   -0.8904    0.3168   -5.9508 H   0  0  0  0  0  0  0  0  0  0  0  0
    0.4931   -0.7331   -6.3456 H   0  0  0  0  0  0  0  0  0  0  0  0
   -1.0392   -0.9269   -7.2046 H   0  0  0  0  0  0  0  0  0  0  0  0
   -2.1454   -1.8448   -5.3218 H   0  0  0  0  0  0  0  0  0  0  0  0
   -0.5994   -2.6890   -5.4104 H   0  0  0  0  0  0  0  0  0  0  0  0
   -0.0947    1.1188    1.6217 H   0  0  0  0  0  0  0  0  0  0  0  0
    0.0986    1.2229   -0.1308 H   0  0  0  0  0  0  0  0  0  0  0  0
    1.2554   -1.0132   -0.1037 H   0  0  0  0  0  0  0  0  0  0  0  0
    1.0251   -1.1223    1.6355 H   0  0  0  0  0  0  0  0  0  0  0  0
    4.2880    0.7261    0.3533 H   0  0  0  0  0  0  0  0  0  0  0  0
    3.3953   -0.2918   -0.6382 H   0  0  0  0  0  0  0  0  0  0  0  0
   -1.4504   -1.0373    1.2456 H   0  0  0  0  0  0  0  0  0  0  0  0
   -4.0138    3.2396    1.8219 H   0  0  0  0  0  0  0  0  0  0  0  0
   -3.3883    2.5948    3.3288 H   0  0  0  0  0  0  0  0  0  0  0  0
   -6.6896    1.8414    3.5798 H   0  0  0  0  0  0  0  0  0  0  0  0
   -7.1471    3.2757    4.3160 H   0  0  0  0  0  0  0  0  0  0  0  0
   -4.9752    0.6316    3.0915 H   0  0  0  0  0  0  0  0  0  0  0  0
   -9.0525   -1.3081    0.8510 H   0  0  0  0  0  0  0  0  0  0  0  0
   -7.7150   -1.6837   -0.2104 H   0  0  0  0  0  0  0  0  0  0  0  0
   -7.7509   -0.4119    2.4684 H   0  0  0  0  0  0  0  0  0  0  0  0
   -5.0808   -4.3296    2.9538 H   0  0  0  0  0  0  0  0  0  0  0  0
   -3.0509   -5.1055    2.0200 H   0  0  0  0  0  0  0  0  0  0  0  0
   -2.3345   -3.4777    1.9074 H   0  0  0  0  0  0  0  0  0  0  0  0
   -4.5275   -4.6564    0.2303 H   0  0  0  0  0  0  0  0  0  0  0  0
   -3.1158   -3.7490   -0.3139 H   0  0  0  0  0  0  0  0  0  0  0  0
   -5.5381   -2.5608   -0.0732 H   0  0  0  0  0  0  0  0  0  0  0  0
   -4.0835   -1.6712    0.3896 H   0  0  0  0  0  0  0  0  0  0  0  0
    1.8965   -3.4733    5.5259 H   0  0  0  0  0  0  0  0  0  0  0  0
    0.9999   -4.8099    6.2761 H   0  0  0  0  0  0  0  0  0  0  0  0
    1.9758   -3.7122    7.2737 H   0  0  0  0  0  0  0  0  0  0  0  0
   -0.1966   -2.6915    4.4320 H   0  0  0  0  0  0  0  0  0  0  0  0
   -1.2066   -3.8948    5.2185 H   0  0  0  0  0  0  0  0  0  0  0  0
   -2.6198   -2.0125    6.1694 H   0  0  0  0  0  0  0  0  0  0  0  0
   -1.1904   -4.1790    7.7669 H   0  0  0  0  0  0  0  0  0  0  0  0
   -1.4109   -2.4572    8.1422 H   0  0  0  0  0  0  0  0  0  0  0  0
    0.0159   -3.3029    8.7289 H   0  0  0  0  0  0  0  0  0  0  0  0
    0.4672   -1.8207    6.7107 H   0  0  0  0  0  0  0  0  0  0  0  0
   -1.3450    2.1805    5.2759 H   0  0  0  0  0  0  0  0  0  0  0  0
   -1.0748    2.0385    7.0191 H   0  0  0  0  0  0  0  0  0  0  0  0
  1  2  1  0  0  0  0 
 12  3  1  0  0  0  0 
 17  4  1  0  0  0  0 
 28  5  1  0  0  0  0 
 35  6  1  0  0  0  0 
 43  7  1  0  0  0  0 
 50  8  1  0  0  0  0 
 55  9  1  0  0  0  0 
 61 10  1  0  0  0  0 
 68 11  1  0  0  0  0 
 13 51  1  0  0  0  0 
 15  2  1  0  0  0  0 
 15 14  1  0  0  0  0 
 14 13  1  0  0  0  0 
 15 12  1  0  0  0  0 
 12 16  2  0  0  0  0 
 26  3  1  0  0  0  0 
 26 18  1  0  0  0  0 
 18 19  1  0  0  0  0 
 19 20  2  0  0  0  0 
 20 21  1  0  0  0  0 
 21 22  2  0  0  0  0 
 22 23  1  0  0  0  0 
 22 24  1  0  0  0  0 
 24 25  2  0  0  0  0 
 19 25  1  0  0  0  0 
 26 17  1  0  0  0  0 
 17 27  2  0  0  0  0 
 32 33  1  0  0  0  0 
 33 29  1  0  0  0  0 
 29 30  1  0  0  0  0 
 29 31  1  0  0  0  0 
 31  4  1  0  0  0  0 
 31 28  1  0  0  0  0 
 28 34  2  0  0  0  0 
 41  5  1  0  0  0  0 
 41 36  1  0  0  0  0 
 36 37  1  0  0  0  0 
 37 38  1  0  0  0  0 
 38 39  1  0  0  0  0 
 38 40  2  0  0  0  0 
 41 35  1  0  0  0  0 
 35 42  2  0  0  0  0 
 48  6  1  0  0  0  0 
 48 44  1  0  0  0  0 
 44 45  1  0  0  0  0 
 45 46  1  0  0  0  0 
 45 47  2  0  0  0  0 
 48 43  1  0  0  0  0 
 43 49  2  0  0  0  0 
 53  7  1  0  0  0  0 
 53 52  1  0  0  0  0 
 52 51  1  0  0  0  0 
 53 50  1  0  0  0  0 
 50 54  2  0  0  0  0 
 60 55  2  0  0  0  0 
 56 55  1  0  0  0  0 
 56 57  1  0  0  0  0 
 57 58  1  0  0  0  0 
 58 59  1  0  0  0  0 
 59  8  1  0  0  0  0 
 56  8  1  0  0  0  0 
 65 66  1  0  0  0  0 
 66 62  1  0  0  0  0 
 66 63  1  0  0  0  0 
 63 64  1  0  0  0  0 
 64  9  1  0  0  0  0 
 64 61  1  0  0  0  0 
 61 67  2  0  0  0  0 
 10 69  1  0  0  0  0 
 69 68  1  0  0  0  0 
 68 70  2  0  0  0  0 
  2 71  1  0  0  0  0 
  3 72  1  0  0  0  0 
  4 73  1  0  0  0  0 
  5 74  1  0  0  0  0 
  6 75  1  0  0  0  0 
  7 76  1  0  0  0  0 
  9 77  1  0  0  0  0 
 10 78  1  0  0  0  0 
 11 79  1  0  0  0  0 
 11 80  1  0  0  0  0 
 14 81  1  0  0  0  0 
 14 82  1  0  0  0  0 
 15 83  1  0  0  0  0 
 18 84  1  0  0  0  0 
 18 85  1  0  0  0  0 
 20 86  1  0  0  0  0 
 21 87  1  0  0  0  0 
 23 88  1  0  0  0  0 
 24 89  1  0  0  0  0 
 25 90  1  0  0  0  0 
 26 91  1  0  0  0  0 
 29 92  1  0  0  0  0 
 30 93  1  0  0  0  0 
 30 94  1  0  0  0  0 
 30 95  1  0  0  0  0 
 31 96  1  0  0  0  0 
 32 97  1  0  0  0  0 
 32 98  1  0  0  0  0 
 32 99  1  0  0  0  0 
 33100  1  0  0  0  0 
 33101  1  0  0  0  0 
 36102  1  0  0  0  0 
 36103  1  0  0  0  0 
 37104  1  0  0  0  0 
 37105  1  0  0  0  0 
 39106  1  0  0  0  0 
 39107  1  0  0  0  0 
 41108  1  0  0  0  0 
 44109  1  0  0  0  0 
 44110  1  0  0  0  0 
 46111  1  0  0  0  0 
 46112  1  0  0  0  0 
 48113  1  0  0  0  0 
 52114  1  0  0  0  0 
 52115  1  0  0  0  0 
 53116  1  0  0  0  0 
 56117  1  0  0  0  0 
 57118  1  0  0  0  0 
 57119  1  0  0  0  0 
 58120  1  0  0  0  0 
 58121  1  0  0  0  0 
 59122  1  0  0  0  0 
 59123  1  0  0  0  0 
 62124  1  0  0  0  0 
 62125  1  0  0  0  0 
 62126  1  0  0  0  0 
 63127  1  0  0  0  0 
 63128  1  0  0  0  0 
 64129  1  0  0  0  0 
 65130  1  0  0  0  0 
 65131  1  0  0  0  0 
 65132  1  0  0  0  0 
 66133  1  0  0  0  0 
 69134  1  0  0  0  0 
 69135  1  0  0  0  0 
M  END
> <cdk:Title>
oxytocin

> <Conformer>
1

> <SuperDrugID>
SD001829

$$$$
