moxestrol
  CDK     0628171801

 50 53  0  0  0  0  0  0  0  0999 V2000
   -4.0018    1.9435   -2.0338 O   0  0  0  0  0  0  0  0  0  0  0  0
   -3.7349    2.6428   -3.2637 C   0  0  0  0  0  0  0  0  0  0  0  0
   -4.2678    2.7529   -0.8631 C   0  0  2  0  0  0  0  0  0  0  0  0
   -3.8958    1.9001    0.4114 C   0  0  1  0  0  0  0  0  0  0  0  0
   -5.7211    3.3468   -0.8071 C   0  0  1  0  0  0  0  0  0  0  0  0
   -5.0301    0.8559    0.7360 C   0  0  2  0  0  0  0  0  0  0  0  0
   -2.5202    1.2693    0.3996 C   0  0  0  0  0  0  0  0  0  0  0  0
   -6.8485    2.3151   -0.4297 C   0  0  2  0  0  0  0  0  0  0  0  0
   -6.3946    1.5999    0.8847 C   0  0  1  0  0  0  0  0  0  0  0  0
   -4.6351    0.0329    1.9917 C   0  0  2  0  0  0  0  0  0  0  0  0
   -2.2775   -0.0052    1.0011 C   0  0  0  0  0  0  0  0  0  0  0  0
   -1.4142    1.9463   -0.1779 C   0  0  0  0  0  0  0  0  0  0  0  0
   -7.0872    1.3480   -1.6564 C   0  0  0  0  0  0  0  0  0  0  0  0
   -8.2495    2.8832    0.0356 C   0  0  1  0  0  0  0  0  0  0  0  0
   -7.6491    0.8317    1.3563 C   0  0  1  0  0  0  0  0  0  0  0  0
   -3.3387   -0.7679    1.7192 C   0  0  2  0  0  0  0  0  0  0  0  0
   -0.9940   -0.5972    0.9092 C   0  0  0  0  0  0  0  0  0  0  0  0
   -0.1478    1.3489   -0.2650 C   0  0  0  0  0  0  0  0  0  0  0  0
   -8.1882    4.0689    0.7491 C   0  0  0  0  0  0  0  0  0  0  0  0
   -9.1285    3.1739   -1.0560 O   0  0  0  0  0  0  0  0  0  0  0  0
   -8.8377    1.7305    0.9205 C   0  0  1  0  0  0  0  0  0  0  0  0
    0.0598    0.0647    0.2575 C   0  0  0  0  0  0  0  0  0  0  0  0
   -8.1346    5.0919    1.3635 C   0  0  0  0  0  0  0  0  0  0  0  0
    1.2688   -0.5357    0.1384 O   0  0  0  0  0  0  0  0  0  0  0  0
   -5.1047    0.1459   -0.0897 H   0  0  0  0  0  0  0  0  0  0  0  0
   -3.8588    2.6120    1.2433 H   0  0  0  0  0  0  0  0  0  0  0  0
   -6.2219    2.3602    1.6594 H   0  0  0  0  0  0  0  0  0  0  0  0
   -3.4239    1.9103   -4.0088 H   0  0  0  0  0  0  0  0  0  0  0  0
   -2.9272    3.3699   -3.1489 H   0  0  0  0  0  0  0  0  0  0  0  0
   -4.6293    3.1467   -3.6309 H   0  0  0  0  0  0  0  0  0  0  0  0
   -3.6024    3.6239   -0.8745 H   0  0  0  0  0  0  0  0  0  0  0  0
   -5.6953    4.1431   -0.0602 H   0  0  0  0  0  0  0  0  0  0  0  0
   -5.9612    3.8317   -1.7544 H   0  0  0  0  0  0  0  0  0  0  0  0
   -5.4286   -0.6707    2.2540 H   0  0  0  0  0  0  0  0  0  0  0  0
   -4.4766    0.6982    2.8453 H   0  0  0  0  0  0  0  0  0  0  0  0
   -1.5106    2.8872   -0.5564 H   0  0  0  0  0  0  0  0  0  0  0  0
   -6.1981    0.7919   -1.9362 H   0  0  0  0  0  0  0  0  0  0  0  0
   -7.3978    1.9204   -2.5329 H   0  0  0  0  0  0  0  0  0  0  0  0
   -7.8689    0.6142   -1.4559 H   0  0  0  0  0  0  0  0  0  0  0  0
   -7.7100   -0.1509    0.8796 H   0  0  0  0  0  0  0  0  0  0  0  0
   -7.6402    0.6940    2.4411 H   0  0  0  0  0  0  0  0  0  0  0  0
   -3.5882   -1.6447    1.1153 H   0  0  0  0  0  0  0  0  0  0  0  0
   -2.9549   -1.1240    2.6811 H   0  0  0  0  0  0  0  0  0  0  0  0
   -0.8185   -1.5206    1.3172 H   0  0  0  0  0  0  0  0  0  0  0  0
    0.6211    1.8515   -0.7126 H   0  0  0  0  0  0  0  0  0  0  0  0
   -9.9946    3.3866   -0.6470 H   0  0  0  0  0  0  0  0  0  0  0  0
   -9.3775    2.1021    1.7995 H   0  0  0  0  0  0  0  0  0  0  0  0
   -9.5467    1.1294    0.3421 H   0  0  0  0  0  0  0  0  0  0  0  0
   -8.0906    5.8816    1.8364 H   0  0  0  0  0  0  0  0  0  0  0  0
    1.7449   -0.0270   -0.5505 H   0  0  0  0  0  0  0  0  0  0  0  0
  1  2  1  0  0  0  0 
  3  1  1  0  0  0  0 
  4  3  1  0  0  0  0 
  3  5  1  0  0  0  0 
  6  4  1  0  0  0  0 
  4  7  1  0  0  0  0 
  4 26  1  0  0  0  0 
  8  5  1  0  0  0  0 
  9  6  1  0  0  0  0 
  6 10  1  0  0  0  0 
  6 25  1  0  0  0  0 
  7 11  2  0  0  0  0 
  7 12  1  0  0  0  0 
  8  9  1  0  0  0  0 
  8 13  1  0  0  0  0 
 14  8  1  0  0  0  0 
  9 15  1  0  0  0  0 
  9 27  1  0  0  0  0 
 10 16  1  0  0  0  0 
 11 16  1  0  0  0  0 
 11 17  1  0  0  0  0 
 12 18  2  0  0  0  0 
 14 19  1  0  0  0  0 
 14 20  1  0  0  0  0 
 14 21  1  0  0  0  0 
 15 21  1  0  0  0  0 
 17 22  2  0  0  0  0 
 18 22  1  0  0  0  0 
 19 23  3  0  0  0  0 
 22 24  1  0  0  0  0 
  2 28  1  0  0  0  0 
  2 29  1  0  0  0  0 
  2 30  1  0  0  0  0 
  3 31  1  0  0  0  0 
  5 32  1  0  0  0  0 
  5 33  1  0  0  0  0 
 10 34  1  0  0  0  0 
 10 35  1  0  0  0  0 
 12 36  1  0  0  0  0 
 13 37  1  0  0  0  0 
 13 38  1  0  0  0  0 
 13 39  1  0  0  0  0 
 15 40  1  0  0  0  0 
 15 41  1  0  0  0  0 
 16 42  1  0  0  0  0 
 16 43  1  0  0  0  0 
 17 44  1  0  0  0  0 
 18 45  1  0  0  0  0 
 20 46  1  0  0  0  0 
 21 47  1  0  0  0  0 
 21 48  1  0  0  0  0 
 23 49  1  0  0  0  0 
 24 50  1  0  0  0  0 
M  END
> <cdk:Title>
moxestrol

> <Conformer>
1

> <SuperDrugID>
SD002903

$$$$
