tropicamide
  CDK     0628171801

 41 42  0  0  0  0  0  0  0  0999 V2000
   -3.2790    0.3600   -3.1090 C   0  0  1  0  0  0  0  0  0  0  0  0
   -3.7456    1.2199   -1.9633 C   0  0  0  0  0  0  0  0  0  0  0  0
   -4.4674   -0.4407   -3.7267 C   0  0  2  0  0  0  0  0  0  0  0  0
   -2.5042    1.0636   -4.1922 C   0  0  0  0  0  0  0  0  0  0  0  0
   -3.1913    1.2892   -0.6774 N   0  0  0  0  0  0  0  0  0  0  0  0
   -4.7632    1.9154   -2.2115 O   0  0  0  0  0  0  0  0  0  0  0  0
   -5.1415   -1.2151   -2.7374 O   0  0  0  0  0  0  0  0  0  0  0  0
   -1.6562    0.2971   -5.0351 C   0  0  0  0  0  0  0  0  0  0  0  0
   -2.5626    2.4637   -4.4253 C   0  0  0  0  0  0  0  0  0  0  0  0
   -3.9433    1.9544    0.3865 C   0  0  1  0  0  0  0  0  0  0  0  0
   -1.8830    0.7358   -0.3511 C   0  0  1  0  0  0  0  0  0  0  0  0
   -0.8889    0.8973   -6.0506 C   0  0  0  0  0  0  0  0  0  0  0  0
   -1.7907    3.0692   -5.4355 C   0  0  0  0  0  0  0  0  0  0  0  0
   -5.1323    1.1670    0.8265 C   0  0  0  0  0  0  0  0  0  0  0  0
   -0.7203    1.5664   -0.9414 C   0  0  0  0  0  0  0  0  0  0  0  0
   -0.9513    2.2870   -6.2461 C   0  0  0  0  0  0  0  0  0  0  0  0
   -4.9674   -0.1408    1.3404 C   0  0  0  0  0  0  0  0  0  0  0  0
   -6.4438    1.7007    0.7647 C   0  0  0  0  0  0  0  0  0  0  0  0
   -6.0870   -0.8677    1.7841 C   0  0  0  0  0  0  0  0  0  0  0  0
   -7.5321    0.9376    1.2279 C   0  0  0  0  0  0  0  0  0  0  0  0
   -7.3224   -0.3098    1.7195 N   0  0  0  0  0  0  0  0  0  0  0  0
   -2.6190   -0.4050   -2.7024 H   0  0  0  0  0  0  0  0  0  0  0  0
   -4.1204   -1.1278   -4.5021 H   0  0  0  0  0  0  0  0  0  0  0  0
   -5.1887    0.2409   -4.1820 H   0  0  0  0  0  0  0  0  0  0  0  0
   -5.8732   -1.6577   -3.2170 H   0  0  0  0  0  0  0  0  0  0  0  0
   -1.5835   -0.7162   -4.9127 H   0  0  0  0  0  0  0  0  0  0  0  0
   -3.1666    3.0658   -3.8654 H   0  0  0  0  0  0  0  0  0  0  0  0
   -3.3330    2.1298    1.2770 H   0  0  0  0  0  0  0  0  0  0  0  0
   -4.2408    2.9542    0.0563 H   0  0  0  0  0  0  0  0  0  0  0  0
   -1.7209    0.6962    0.7299 H   0  0  0  0  0  0  0  0  0  0  0  0
   -1.8012   -0.2998   -0.6782 H   0  0  0  0  0  0  0  0  0  0  0  0
   -0.2849    0.3238   -6.6450 H   0  0  0  0  0  0  0  0  0  0  0  0
   -1.8388    4.0818   -5.5784 H   0  0  0  0  0  0  0  0  0  0  0  0
   -0.8115    2.6118   -0.6344 H   0  0  0  0  0  0  0  0  0  0  0  0
   -0.7223    1.5144   -2.0303 H   0  0  0  0  0  0  0  0  0  0  0  0
    0.2356    1.1774   -0.5807 H   0  0  0  0  0  0  0  0  0  0  0  0
   -0.3852    2.7295   -6.9744 H   0  0  0  0  0  0  0  0  0  0  0  0
   -4.0408   -0.5680    1.3971 H   0  0  0  0  0  0  0  0  0  0  0  0
   -6.6169    2.6377    0.3928 H   0  0  0  0  0  0  0  0  0  0  0  0
   -5.9769   -1.8124    2.1570 H   0  0  0  0  0  0  0  0  0  0  0  0
   -8.4812    1.3159    1.1994 H   0  0  0  0  0  0  0  0  0  0  0  0
  1  2  1  0  0  0  0 
  1  3  1  0  0  0  0 
  1  4  1  0  0  0  0 
  2  5  1  0  0  0  0 
  2  6  2  0  0  0  0 
  3  7  1  0  0  0  0 
  4  8  2  0  0  0  0 
  4  9  1  0  0  0  0 
  5 10  1  0  0  0  0 
  5 11  1  0  0  0  0 
  8 12  1  0  0  0  0 
  9 13  2  0  0  0  0 
 10 14  1  0  0  0  0 
 11 15  1  0  0  0  0 
 12 16  2  0  0  0  0 
 13 16  1  0  0  0  0 
 14 17  2  0  0  0  0 
 14 18  1  0  0  0  0 
 17 19  1  0  0  0  0 
 18 20  2  0  0  0  0 
 19 21  2  0  0  0  0 
 20 21  1  0  0  0  0 
  1 22  1  0  0  0  0 
  3 23  1  0  0  0  0 
  3 24  1  0  0  0  0 
  7 25  1  0  0  0  0 
  8 26  1  0  0  0  0 
  9 27  1  0  0  0  0 
 10 28  1  0  0  0  0 
 10 29  1  0  0  0  0 
 11 30  1  0  0  0  0 
 11 31  1  0  0  0  0 
 12 32  1  0  0  0  0 
 13 33  1  0  0  0  0 
 15 34  1  0  0  0  0 
 15 35  1  0  0  0  0 
 15 36  1  0  0  0  0 
 16 37  1  0  0  0  0 
 17 38  1  0  0  0  0 
 18 39  1  0  0  0  0 
 19 40  1  0  0  0  0 
 20 41  1  0  0  0  0 
M  END
> <cdk:Title>
tropicamide

> <Conformer>
1

> <SuperDrugID>
SD002503

$$$$
