ensulizole
  CDK     0628171801

 29 31  0  0  0  0  0  0  0  0999 V2000
    4.6009    2.2569   -5.0231 S   0  0  1  0  0  0  0  0  0  0  0  0
    6.1286    1.7902   -5.1659 O   0  0  0  0  0  0  0  0  0  0  0  0
    4.4906    3.7940   -5.4668 O   0  0  0  0  0  0  0  0  0  0  0  0
    3.6618    1.3304   -6.1139 O   0  0  0  0  0  0  0  0  0  0  0  0
    4.0321    2.0427   -3.3633 C   0  0  0  0  0  0  0  0  0  0  0  0
    2.9322    1.1964   -3.0861 C   0  0  0  0  0  0  0  0  0  0  0  0
    4.6856    2.7256   -2.3070 C   0  0  0  0  0  0  0  0  0  0  0  0
    2.5201    1.0541   -1.7506 C   0  0  0  0  0  0  0  0  0  0  0  0
    4.2638    2.5566   -0.9695 C   0  0  0  0  0  0  0  0  0  0  0  0
    3.1791    1.7033   -0.7127 C   0  0  0  0  0  0  0  0  0  0  0  0
    1.5252    0.3509   -1.2008 N   0  0  0  0  0  0  0  0  0  0  0  0
    2.5967    1.3615    0.4486 N   0  0  0  0  0  0  0  0  0  0  0  0
    1.5759    0.5335    0.1328 C   0  0  0  0  0  0  0  0  0  0  0  0
    0.6908   -0.0544    1.0597 C   0  0  0  0  0  0  0  0  0  0  0  0
    1.1830   -0.8407    2.1273 C   0  0  0  0  0  0  0  0  0  0  0  0
   -0.7058    0.1290    0.9329 C   0  0  0  0  0  0  0  0  0  0  0  0
    0.2959   -1.4379    3.0442 C   0  0  0  0  0  0  0  0  0  0  0  0
   -1.5912   -0.4502    1.8625 C   0  0  0  0  0  0  0  0  0  0  0  0
   -1.0906   -1.2372    2.9158 C   0  0  0  0  0  0  0  0  0  0  0  0
    4.0234    0.4221   -6.0463 H   0  0  0  0  0  0  0  0  0  0  0  0
    2.4416    0.6931   -3.8276 H   0  0  0  0  0  0  0  0  0  0  0  0
    5.4707    3.3481   -2.5059 H   0  0  0  0  0  0  0  0  0  0  0  0
    4.7341    3.0464   -0.2059 H   0  0  0  0  0  0  0  0  0  0  0  0
    0.8869   -0.2039   -1.6765 H   0  0  0  0  0  0  0  0  0  0  0  0
    2.1870   -0.9987    2.2379 H   0  0  0  0  0  0  0  0  0  0  0  0
   -1.0900    0.6939    0.1721 H   0  0  0  0  0  0  0  0  0  0  0  0
    0.6580   -2.0220    3.8036 H   0  0  0  0  0  0  0  0  0  0  0  0
   -2.6002   -0.3006    1.7728 H   0  0  0  0  0  0  0  0  0  0  0  0
   -1.7332   -1.6635    3.5853 H   0  0  0  0  0  0  0  0  0  0  0  0
  1  2  2  0  0  0  0 
  1  3  2  0  0  0  0 
  1  4  1  0  0  0  0 
  1  5  1  0  0  0  0 
  5  6  1  0  0  0  0 
  5  7  2  0  0  0  0 
  6  8  2  0  0  0  0 
  7  9  1  0  0  0  0 
  8 10  1  0  0  0  0 
  8 11  1  0  0  0  0 
  9 10  2  0  0  0  0 
 10 12  1  0  0  0  0 
 11 13  1  0  0  0  0 
 12 13  2  0  0  0  0 
 13 14  1  0  0  0  0 
 14 15  2  0  0  0  0 
 14 16  1  0  0  0  0 
 15 17  1  0  0  0  0 
 16 18  2  0  0  0  0 
 17 19  2  0  0  0  0 
 18 19  1  0  0  0  0 
 20  4  1  0  0  0  0 
 21  6  1  0  0  0  0 
 22  7  1  0  0  0  0 
 23  9  1  0  0  0  0 
 24 11  1  0  0  0  0 
 25 15  1  0  0  0  0 
 26 16  1  0  0  0  0 
 27 17  1  0  0  0  0 
 28 18  1  0  0  0  0 
 29 19  1  0  0  0  0 
M  END
> <cdk:Title>
ensulizole

> <Conformer>
1

> <SuperDrugID>
SD002753

$$$$
