benzydamine
  CDK     0628171801

 46 48  0  0  0  0  0  0  0  0999 V2000
    0.0347    0.5695    2.0143 C   0  0  2  0  0  0  0  0  0  0  0  0
   -0.7863   -0.5948    2.1898 N   0  0  0  0  0  0  0  0  0  0  0  0
    1.3706    0.2368    1.4428 C   0  0  0  0  0  0  0  0  0  0  0  0
   -1.3027   -1.3658    1.2112 C   0  0  0  0  0  0  0  0  0  0  0  0
   -1.1622   -1.0724    3.3463 N   0  0  0  0  0  0  0  0  0  0  0  0
    2.2974   -0.5087    2.2101 C   0  0  0  0  0  0  0  0  0  0  0  0
    1.7482    0.6483    0.1403 C   0  0  0  0  0  0  0  0  0  0  0  0
   -1.9989   -2.4068    1.8118 C   0  0  0  0  0  0  0  0  0  0  0  0
   -1.2480   -1.2626   -0.1908 C   0  0  0  0  0  0  0  0  0  0  0  0
   -1.9204   -2.1753    3.1764 C   0  0  0  0  0  0  0  0  0  0  0  0
    3.5689   -0.8244    1.6949 C   0  0  0  0  0  0  0  0  0  0  0  0
    3.0075    0.3044   -0.3872 C   0  0  0  0  0  0  0  0  0  0  0  0
   -2.6214   -3.4144    1.0551 C   0  0  0  0  0  0  0  0  0  0  0  0
   -1.8733   -2.2555   -0.9698 C   0  0  0  0  0  0  0  0  0  0  0  0
   -2.5023   -2.9229    4.1627 O   0  0  0  0  0  0  0  0  0  0  0  0
    3.9240   -0.4196    0.3956 C   0  0  0  0  0  0  0  0  0  0  0  0
   -2.5544   -3.3278   -0.3517 C   0  0  0  0  0  0  0  0  0  0  0  0
   -3.8896   -2.5860    4.3771 C   0  0  1  0  0  0  0  0  0  0  0  0
   -4.5109   -3.5520    5.4162 C   0  0  2  0  0  0  0  0  0  0  0  0
   -4.5427   -5.0321    4.9398 C   0  0  1  0  0  0  0  0  0  0  0  0
   -5.2291   -5.9797    5.8814 N   0  0  2  0  0  0  0  0  0  0  0  0
   -4.5462   -6.1200    7.2035 C   0  0  0  0  0  0  0  0  0  0  0  0
   -5.4870   -7.3088    5.2489 C   0  0  0  0  0  0  0  0  0  0  0  0
    0.1876    1.0758    2.9723 H   0  0  0  0  0  0  0  0  0  0  0  0
   -0.5065    1.2722    1.3751 H   0  0  0  0  0  0  0  0  0  0  0  0
    2.0537   -0.8194    3.1553 H   0  0  0  0  0  0  0  0  0  0  0  0
    1.1068    1.1959   -0.4399 H   0  0  0  0  0  0  0  0  0  0  0  0
   -0.7727   -0.4832   -0.6413 H   0  0  0  0  0  0  0  0  0  0  0  0
    4.2361   -1.3461    2.2669 H   0  0  0  0  0  0  0  0  0  0  0  0
    3.2570    0.5820   -1.3400 H   0  0  0  0  0  0  0  0  0  0  0  0
   -3.1131   -4.1861    1.5073 H   0  0  0  0  0  0  0  0  0  0  0  0
   -1.8345   -2.1951   -1.9894 H   0  0  0  0  0  0  0  0  0  0  0  0
    4.8465   -0.6517    0.0201 H   0  0  0  0  0  0  0  0  0  0  0  0
   -3.0054   -4.0402   -0.9282 H   0  0  0  0  0  0  0  0  0  0  0  0
   -3.9673   -1.5652    4.7652 H   0  0  0  0  0  0  0  0  0  0  0  0
   -4.4697   -2.6478    3.4495 H   0  0  0  0  0  0  0  0  0  0  0  0
   -5.5339   -3.2288    5.6316 H   0  0  0  0  0  0  0  0  0  0  0  0
   -3.9298   -3.4684    6.3370 H   0  0  0  0  0  0  0  0  0  0  0  0
   -5.0671   -5.0444    3.9793 H   0  0  0  0  0  0  0  0  0  0  0  0
   -3.5189   -5.3722    4.7563 H   0  0  0  0  0  0  0  0  0  0  0  0
   -4.6379   -5.1962    7.7750 H   0  0  0  0  0  0  0  0  0  0  0  0
   -5.0018   -6.9079    7.8082 H   0  0  0  0  0  0  0  0  0  0  0  0
   -3.4864   -6.3540    7.0776 H   0  0  0  0  0  0  0  0  0  0  0  0
   -6.0877   -7.1943    4.3442 H   0  0  0  0  0  0  0  0  0  0  0  0
   -6.0496   -7.9576    5.9241 H   0  0  0  0  0  0  0  0  0  0  0  0
   -4.5505   -7.8072    4.9862 H   0  0  0  0  0  0  0  0  0  0  0  0
  1  2  1  0  0  0  0 
  1  3  1  0  0  0  0 
  2  4  1  0  0  0  0 
  2  5  1  0  0  0  0 
  3  6  2  0  0  0  0 
  3  7  1  0  0  0  0 
  4  8  1  0  0  0  0 
  4  9  2  0  0  0  0 
  5 10  2  0  0  0  0 
  6 11  1  0  0  0  0 
  7 12  2  0  0  0  0 
  8 10  1  0  0  0  0 
  8 13  2  0  0  0  0 
  9 14  1  0  0  0  0 
 10 15  1  0  0  0  0 
 11 16  2  0  0  0  0 
 12 16  1  0  0  0  0 
 13 17  1  0  0  0  0 
 14 17  2  0  0  0  0 
 15 18  1  0  0  0  0 
 18 19  1  0  0  0  0 
 19 20  1  0  0  0  0 
 20 21  1  0  0  0  0 
 21 22  1  0  0  0  0 
 21 23  1  0  0  0  0 
  1 24  1  0  0  0  0 
  1 25  1  0  0  0  0 
  6 26  1  0  0  0  0 
  7 27  1  0  0  0  0 
  9 28  1  0  0  0  0 
 11 29  1  0  0  0  0 
 12 30  1  0  0  0  0 
 13 31  1  0  0  0  0 
 14 32  1  0  0  0  0 
 16 33  1  0  0  0  0 
 17 34  1  0  0  0  0 
 18 35  1  0  0  0  0 
 18 36  1  0  0  0  0 
 19 37  1  0  0  0  0 
 19 38  1  0  0  0  0 
 20 39  1  0  0  0  0 
 20 40  1  0  0  0  0 
 22 41  1  0  0  0  0 
 22 42  1  0  0  0  0 
 22 43  1  0  0  0  0 
 23 44  1  0  0  0  0 
 23 45  1  0  0  0  0 
 23 46  1  0  0  0  0 
M  END
> <cdk:Title>
benzydamine

> <Conformer>
1

> <SuperDrugID>
SD003290

$$$$
