levomenthol
  CDK     0628171802

 31 31  0  0  0  0  0  0  0  0999 V2000
    1.6582   -0.9181    0.9015 C   0  0  2  0  0  0  0  0  0  0  0  0
    0.7452   -2.1758    0.7998 C   0  0  1  0  0  0  0  0  0  0  0  0
   -0.1068   -2.3730    2.0903 C   0  0  1  0  0  0  0  0  0  0  0  0
   -0.9505   -1.0917    2.3567 C   0  0  2  0  0  0  0  0  0  0  0  0
   -0.0579    0.1711    2.4719 C   0  0  1  0  0  0  0  0  0  0  0  0
    0.8595    0.3914    1.2241 C   0  0  1  0  0  0  0  0  0  0  0  0
   -0.9962   -3.6442    2.0300 C   0  0  0  0  0  0  0  0  0  0  0  0
    2.3713   -0.7687   -0.3282 O   0  0  0  0  0  0  0  0  0  0  0  0
    1.7679    1.6787    1.3149 C   0  0  1  0  0  0  0  0  0  0  0  0
    0.9436    2.9960    1.4071 C   0  0  0  0  0  0  0  0  0  0  0  0
    2.8502    1.6541    2.4365 C   0  0  0  0  0  0  0  0  0  0  0  0
    2.3904   -1.1063    1.6919 H   0  0  0  0  0  0  0  0  0  0  0  0
    0.0848   -2.0806   -0.0677 H   0  0  0  0  0  0  0  0  0  0  0  0
    1.3728   -3.0575    0.6429 H   0  0  0  0  0  0  0  0  0  0  0  0
    0.5772   -2.5119    2.9341 H   0  0  0  0  0  0  0  0  0  0  0  0
   -1.5145   -1.2040    3.2879 H   0  0  0  0  0  0  0  0  0  0  0  0
   -1.6707   -0.9455    1.5450 H   0  0  0  0  0  0  0  0  0  0  0  0
   -0.7210    1.0274    2.6059 H   0  0  0  0  0  0  0  0  0  0  0  0
    0.5547    0.0818    3.3711 H   0  0  0  0  0  0  0  0  0  0  0  0
    0.1891    0.5502    0.3722 H   0  0  0  0  0  0  0  0  0  0  0  0
   -0.3763   -4.5321    1.8900 H   0  0  0  0  0  0  0  0  0  0  0  0
   -1.5472   -3.7631    2.9663 H   0  0  0  0  0  0  0  0  0  0  0  0
   -1.7118   -3.5820    1.2082 H   0  0  0  0  0  0  0  0  0  0  0  0
    2.9135   -1.5817   -0.4065 H   0  0  0  0  0  0  0  0  0  0  0  0
    2.3152    1.7482    0.3693 H   0  0  0  0  0  0  0  0  0  0  0  0
    0.2017    3.0420    0.6064 H   0  0  0  0  0  0  0  0  0  0  0  0
    1.6001    3.8633    1.3066 H   0  0  0  0  0  0  0  0  0  0  0  0
    0.4314    3.0723    2.3687 H   0  0  0  0  0  0  0  0  0  0  0  0
    3.5337    0.8152    2.3072 H   0  0  0  0  0  0  0  0  0  0  0  0
    3.4517    2.5651    2.4009 H   0  0  0  0  0  0  0  0  0  0  0  0
    2.3923    1.5884    3.4248 H   0  0  0  0  0  0  0  0  0  0  0  0
  1  2  1  0  0  0  0 
  2  3  1  0  0  0  0 
  3  4  1  0  0  0  0 
  4  5  1  0  0  0  0 
  5  6  1  0  0  0  0 
  1  6  1  0  0  0  0 
  3  7  1  0  0  0  0 
  1  8  1  0  0  0  0 
  6  9  1  0  0  0  0 
  9 10  1  0  0  0  0 
  9 11  1  0  0  0  0 
  1 12  1  0  0  0  0 
  2 13  1  0  0  0  0 
  2 14  1  0  0  0  0 
  3 15  1  0  0  0  0 
  4 16  1  0  0  0  0 
  4 17  1  0  0  0  0 
  5 18  1  0  0  0  0 
  5 19  1  0  0  0  0 
  6 20  1  0  0  0  0 
  7 21  1  0  0  0  0 
  7 22  1  0  0  0  0 
  7 23  1  0  0  0  0 
  8 24  1  0  0  0  0 
  9 25  1  0  0  0  0 
 10 26  1  0  0  0  0 
 10 27  1  0  0  0  0 
 10 28  1  0  0  0  0 
 11 29  1  0  0  0  0 
 11 30  1  0  0  0  0 
 11 31  1  0  0  0  0 
M  END
> <cdk:Title>
levomenthol

> <Conformer>
1

> <SuperDrugID>
SD000830

$$$$
