pirenzepine
  CDK     0628171801

 47 50  0  0  0  0  0  0  0  0999 V2000
   -2.8511   -2.2109    3.4814 C   0  0  0  0  0  0  0  0  0  0  0  0
   -2.5813   -0.9339    2.7684 C   0  0  1  0  0  0  0  0  0  0  0  0
   -3.8326   -2.1708    4.2651 O   0  0  0  0  0  0  0  0  0  0  0  0
   -2.1148   -3.3908    3.3508 N   0  0  0  0  0  0  0  0  0  0  0  0
   -2.6364   -1.0519    1.2750 N   0  0  1  0  0  0  0  0  0  0  0  0
   -1.1045   -3.5351    2.4303 C   0  0  0  0  0  0  0  0  0  0  0  0
   -2.4003   -4.4697    4.1674 C   0  0  0  0  0  0  0  0  0  0  0  0
   -4.0110   -1.2904    0.7267 C   0  0  1  0  0  0  0  0  0  0  0  0
   -1.9625    0.1009    0.6007 C   0  0  1  0  0  0  0  0  0  0  0  0
   -1.1341   -4.5493    1.4369 C   0  0  0  0  0  0  0  0  0  0  0  0
   -0.0544   -2.6642    2.4386 N   0  0  0  0  0  0  0  0  0  0  0  0
   -2.8757   -5.7124    3.6604 C   0  0  0  0  0  0  0  0  0  0  0  0
   -2.2594   -4.3019    5.5681 C   0  0  0  0  0  0  0  0  0  0  0  0
   -3.9932   -1.4524   -0.8142 C   0  0  1  0  0  0  0  0  0  0  0  0
   -1.9389   -0.0715   -0.9368 C   0  0  2  0  0  0  0  0  0  0  0  0
   -2.1283   -5.4697    1.3073 N   0  0  0  0  0  0  0  0  0  0  0  0
   -0.0928   -4.6009    0.4849 C   0  0  0  0  0  0  0  0  0  0  0  0
    0.9614   -2.7004    1.5393 C   0  0  0  0  0  0  0  0  0  0  0  0
   -2.9447   -5.9835    2.2649 C   0  0  0  0  0  0  0  0  0  0  0  0
   -3.2887   -6.7094    4.5829 C   0  0  0  0  0  0  0  0  0  0  0  0
   -2.6369   -5.3161    6.4629 C   0  0  0  0  0  0  0  0  0  0  0  0
   -3.3247   -0.2783   -1.4541 N   0  0  1  0  0  0  0  0  0  0  0  0
    0.9624   -3.6759    0.5300 C   0  0  0  0  0  0  0  0  0  0  0  0
   -3.7754   -6.8143    1.8285 O   0  0  0  0  0  0  0  0  0  0  0  0
   -3.1705   -6.5150    5.9693 C   0  0  0  0  0  0  0  0  0  0  0  0
   -3.3956   -0.2885   -2.9419 C   0  0  0  0  0  0  0  0  0  0  0  0
   -3.2846   -0.1548    3.0897 H   0  0  0  0  0  0  0  0  0  0  0  0
   -1.5914   -0.6041    3.0991 H   0  0  0  0  0  0  0  0  0  0  0  0
   -4.4452   -2.1971    1.1539 H   0  0  0  0  0  0  0  0  0  0  0  0
   -4.6657   -0.4541    0.9859 H   0  0  0  0  0  0  0  0  0  0  0  0
   -2.4785    1.0348    0.8462 H   0  0  0  0  0  0  0  0  0  0  0  0
   -0.9297    0.1786    0.9512 H   0  0  0  0  0  0  0  0  0  0  0  0
   -1.8875   -3.4257    5.9456 H   0  0  0  0  0  0  0  0  0  0  0  0
   -3.4735   -2.3809   -1.0721 H   0  0  0  0  0  0  0  0  0  0  0  0
   -5.0289   -1.5326   -1.1598 H   0  0  0  0  0  0  0  0  0  0  0  0
   -1.2963   -0.9195   -1.1987 H   0  0  0  0  0  0  0  0  0  0  0  0
   -1.5068    0.8345   -1.3733 H   0  0  0  0  0  0  0  0  0  0  0  0
   -2.2413   -5.8438    0.4190 H   0  0  0  0  0  0  0  0  0  0  0  0
   -0.0927   -5.3183   -0.2469 H   0  0  0  0  0  0  0  0  0  0  0  0
    1.7197   -2.0192    1.5987 H   0  0  0  0  0  0  0  0  0  0  0  0
   -3.6739   -7.5983    4.2547 H   0  0  0  0  0  0  0  0  0  0  0  0
   -2.5286   -5.1789    7.4697 H   0  0  0  0  0  0  0  0  0  0  0  0
    1.7170   -3.7141   -0.1591 H   0  0  0  0  0  0  0  0  0  0  0  0
   -3.4655   -7.2491    6.6177 H   0  0  0  0  0  0  0  0  0  0  0  0
   -4.4343   -0.3478   -3.2715 H   0  0  0  0  0  0  0  0  0  0  0  0
   -2.9786    0.6360   -3.3466 H   0  0  0  0  0  0  0  0  0  0  0  0
   -2.8437   -1.1333   -3.3598 H   0  0  0  0  0  0  0  0  0  0  0  0
  1  2  1  0  0  0  0 
  1  3  2  0  0  0  0 
  1  4  1  0  0  0  0 
  2  5  1  0  0  0  0 
  4  6  1  0  0  0  0 
  4  7  1  0  0  0  0 
  5  8  1  0  0  0  0 
  5  9  1  0  0  0  0 
  6 10  2  0  0  0  0 
  6 11  1  0  0  0  0 
  7 12  2  0  0  0  0 
  7 13  1  0  0  0  0 
  8 14  1  0  0  0  0 
  9 15  1  0  0  0  0 
 10 16  1  0  0  0  0 
 10 17  1  0  0  0  0 
 11 18  2  0  0  0  0 
 12 19  1  0  0  0  0 
 12 20  1  0  0  0  0 
 13 21  2  0  0  0  0 
 14 22  1  0  0  0  0 
 15 22  1  0  0  0  0 
 16 19  1  0  0  0  0 
 17 23  2  0  0  0  0 
 18 23  1  0  0  0  0 
 19 24  2  0  0  0  0 
 20 25  2  0  0  0  0 
 21 25  1  0  0  0  0 
 22 26  1  0  0  0  0 
  2 27  1  0  0  0  0 
  2 28  1  0  0  0  0 
  8 29  1  0  0  0  0 
  8 30  1  0  0  0  0 
  9 31  1  0  0  0  0 
  9 32  1  0  0  0  0 
 13 33  1  0  0  0  0 
 14 34  1  0  0  0  0 
 14 35  1  0  0  0  0 
 15 36  1  0  0  0  0 
 15 37  1  0  0  0  0 
 16 38  1  0  0  0  0 
 17 39  1  0  0  0  0 
 18 40  1  0  0  0  0 
 20 41  1  0  0  0  0 
 21 42  1  0  0  0  0 
 23 43  1  0  0  0  0 
 25 44  1  0  0  0  0 
 26 45  1  0  0  0  0 
 26 46  1  0  0  0  0 
 26 47  1  0  0  0  0 
M  END
> <cdk:Title>
pirenzepine

> <Conformer>
1

> <SuperDrugID>
SD001975

$$$$
