cloperastine
  CDK     0628171802

 47 49  0  0  0  0  0  0  0  0999 V2000
   -0.9810   -1.5688   -0.0447 C   0  0  2  0  0  0  0  0  0  0  0  0
    0.4070   -1.4576   -0.4542 O   0  0  0  0  0  0  0  0  0  0  0  0
   -1.1108   -1.8952    1.4095 C   0  0  0  0  0  0  0  0  0  0  0  0
   -1.7144   -2.5978   -0.8439 C   0  0  0  0  0  0  0  0  0  0  0  0
    0.6397   -0.8334   -1.7378 C   0  0  2  0  0  0  0  0  0  0  0  0
   -0.1607   -2.6968    2.0876 C   0  0  0  0  0  0  0  0  0  0  0  0
   -2.2201   -1.4099    2.1466 C   0  0  0  0  0  0  0  0  0  0  0  0
   -1.1706   -3.8924   -1.0341 C   0  0  0  0  0  0  0  0  0  0  0  0
   -2.9641   -2.3004   -1.4387 C   0  0  0  0  0  0  0  0  0  0  0  0
    2.1360   -0.9271   -2.1207 C   0  0  2  0  0  0  0  0  0  0  0  0
   -0.3120   -2.9979    3.4554 C   0  0  0  0  0  0  0  0  0  0  0  0
   -2.3741   -1.7090    3.5126 C   0  0  0  0  0  0  0  0  0  0  0  0
   -1.8535   -4.8571   -1.7988 C   0  0  0  0  0  0  0  0  0  0  0  0
   -3.6593   -3.2711   -2.1829 C   0  0  0  0  0  0  0  0  0  0  0  0
    2.7377   -2.2945   -1.9925 N   0  0  2  0  0  0  0  0  0  0  0  0
   -1.4202   -2.5057    4.1709 C   0  0  0  0  0  0  0  0  0  0  0  0
   -3.1008   -4.5483   -2.3671 C   0  0  0  0  0  0  0  0  0  0  0  0
    4.2367   -2.2669   -2.0534 C   0  0  2  0  0  0  0  0  0  0  0  0
    2.1793   -3.3108   -2.9437 C   0  0  1  0  0  0  0  0  0  0  0  0
   -1.6044   -2.8586    5.8163 Cl  0  0  0  0  0  0  0  0  0  0  0  0
    4.8490   -3.6502   -1.7155 C   0  0  2  0  0  0  0  0  0  0  0  0
    2.7065   -4.7287   -2.6106 C   0  0  1  0  0  0  0  0  0  0  0  0
    4.2548   -4.7720   -2.6046 C   0  0  1  0  0  0  0  0  0  0  0  0
   -1.4353   -0.5805   -0.1908 H   0  0  0  0  0  0  0  0  0  0  0  0
    0.3613    0.2233   -1.6860 H   0  0  0  0  0  0  0  0  0  0  0  0
    0.0405   -1.2974   -2.5243 H   0  0  0  0  0  0  0  0  0  0  0  0
    0.6522   -3.0686    1.5913 H   0  0  0  0  0  0  0  0  0  0  0  0
   -2.9282   -0.8286    1.6914 H   0  0  0  0  0  0  0  0  0  0  0  0
   -0.2692   -4.1374   -0.6196 H   0  0  0  0  0  0  0  0  0  0  0  0
   -3.3817   -1.3727   -1.3332 H   0  0  0  0  0  0  0  0  0  0  0  0
    2.6642   -0.2396   -1.4548 H   0  0  0  0  0  0  0  0  0  0  0  0
    2.2646   -0.5571   -3.1423 H   0  0  0  0  0  0  0  0  0  0  0  0
    0.3902   -3.5730    3.9266 H   0  0  0  0  0  0  0  0  0  0  0  0
   -3.1812   -1.3397    4.0216 H   0  0  0  0  0  0  0  0  0  0  0  0
   -1.4417   -5.7826   -1.9397 H   0  0  0  0  0  0  0  0  0  0  0  0
   -4.5701   -3.0504   -2.5914 H   0  0  0  0  0  0  0  0  0  0  0  0
   -3.6019   -5.2496   -2.9176 H   0  0  0  0  0  0  0  0  0  0  0  0
    4.6343   -1.5474   -1.3320 H   0  0  0  0  0  0  0  0  0  0  0  0
    4.5687   -1.9589   -3.0505 H   0  0  0  0  0  0  0  0  0  0  0  0
    1.0919   -3.3496   -2.8805 H   0  0  0  0  0  0  0  0  0  0  0  0
    2.4399   -3.0588   -3.9757 H   0  0  0  0  0  0  0  0  0  0  0  0
    4.6561   -3.8768   -0.6627 H   0  0  0  0  0  0  0  0  0  0  0  0
    5.9330   -3.6084   -1.8596 H   0  0  0  0  0  0  0  0  0  0  0  0
    2.3326   -5.0261   -1.6253 H   0  0  0  0  0  0  0  0  0  0  0  0
    2.3284   -5.4421   -3.3473 H   0  0  0  0  0  0  0  0  0  0  0  0
    4.6261   -4.6579   -3.6272 H   0  0  0  0  0  0  0  0  0  0  0  0
    4.5921   -5.7438   -2.2337 H   0  0  0  0  0  0  0  0  0  0  0  0
  1  2  1  0  0  0  0 
  1  3  1  0  0  0  0 
  1  4  1  0  0  0  0 
  2  5  1  0  0  0  0 
  3  6  2  0  0  0  0 
  3  7  1  0  0  0  0 
  4  8  2  0  0  0  0 
  4  9  1  0  0  0  0 
  5 10  1  0  0  0  0 
  6 11  1  0  0  0  0 
  7 12  2  0  0  0  0 
  8 13  1  0  0  0  0 
  9 14  2  0  0  0  0 
 10 15  1  0  0  0  0 
 11 16  2  0  0  0  0 
 12 16  1  0  0  0  0 
 13 17  2  0  0  0  0 
 14 17  1  0  0  0  0 
 15 18  1  0  0  0  0 
 15 19  1  0  0  0  0 
 16 20  1  0  0  0  0 
 18 21  1  0  0  0  0 
 19 22  1  0  0  0  0 
 21 23  1  0  0  0  0 
 22 23  1  0  0  0  0 
  1 24  1  0  0  0  0 
  5 25  1  0  0  0  0 
  5 26  1  0  0  0  0 
  6 27  1  0  0  0  0 
  7 28  1  0  0  0  0 
  8 29  1  0  0  0  0 
  9 30  1  0  0  0  0 
 10 31  1  0  0  0  0 
 10 32  1  0  0  0  0 
 11 33  1  0  0  0  0 
 12 34  1  0  0  0  0 
 13 35  1  0  0  0  0 
 14 36  1  0  0  0  0 
 17 37  1  0  0  0  0 
 18 38  1  0  0  0  0 
 18 39  1  0  0  0  0 
 19 40  1  0  0  0  0 
 19 41  1  0  0  0  0 
 21 42  1  0  0  0  0 
 21 43  1  0  0  0  0 
 22 44  1  0  0  0  0 
 22 45  1  0  0  0  0 
 23 46  1  0  0  0  0 
 23 47  1  0  0  0  0 
M  END
> <cdk:Title>
cloperastine

> <Conformer>
1

> <SuperDrugID>
SD000624

$$$$
