flunoxaprofen
  CDK     0628171801

 33 35  0  0  0  0  0  0  0  0999 V2000
    5.1074    3.7760   -3.2487 C   0  0  1  0  0  0  0  0  0  0  0  0
    5.1946    5.1664   -2.7458 C   0  0  0  0  0  0  0  0  0  0  0  0
    6.4518    3.2595   -3.8320 C   0  0  0  0  0  0  0  0  0  0  0  0
    4.5338    2.8811   -2.1947 C   0  0  0  0  0  0  0  0  0  0  0  0
    4.3683    6.1163   -3.2446 O   0  0  0  0  0  0  0  0  0  0  0  0
    5.9950    5.4938   -1.8399 O   0  0  0  0  0  0  0  0  0  0  0  0
    3.2006    2.4115   -2.3254 C   0  0  0  0  0  0  0  0  0  0  0  0
    5.2817    2.4921   -1.0445 C   0  0  0  0  0  0  0  0  0  0  0  0
    2.6722    1.5648   -1.3412 C   0  0  0  0  0  0  0  0  0  0  0  0
    4.7356    1.6321   -0.0665 C   0  0  0  0  0  0  0  0  0  0  0  0
    3.4210    1.1767   -0.2412 C   0  0  0  0  0  0  0  0  0  0  0  0
    1.4659    0.9971   -1.2518 N   0  0  0  0  0  0  0  0  0  0  0  0
    2.6659    0.3584    0.5184 O   0  0  0  0  0  0  0  0  0  0  0  0
    1.4672    0.2587   -0.1199 C   0  0  0  0  0  0  0  0  0  0  0  0
    0.3747   -0.5262    0.3257 C   0  0  0  0  0  0  0  0  0  0  0  0
    0.5035   -1.3711    1.4545 C   0  0  0  0  0  0  0  0  0  0  0  0
   -0.8671   -0.4998   -0.3574 C   0  0  0  0  0  0  0  0  0  0  0  0
   -0.5662   -2.1878    1.8694 C   0  0  0  0  0  0  0  0  0  0  0  0
   -1.9380   -1.3138    0.0564 C   0  0  0  0  0  0  0  0  0  0  0  0
   -1.7847   -2.1659    1.1654 C   0  0  0  0  0  0  0  0  0  0  0  0
   -2.7719   -2.9345    1.5392 F   0  0  0  0  0  0  0  0  0  0  0  0
    4.4264    3.7988   -4.1049 H   0  0  0  0  0  0  0  0  0  0  0  0
    6.3297    2.2533   -4.2384 H   0  0  0  0  0  0  0  0  0  0  0  0
    6.7850    3.9127   -4.6402 H   0  0  0  0  0  0  0  0  0  0  0  0
    7.2342    3.2325   -3.0729 H   0  0  0  0  0  0  0  0  0  0  0  0
    4.3948    7.0282   -2.8916 H   0  0  0  0  0  0  0  0  0  0  0  0
    2.6159    2.6780   -3.1199 H   0  0  0  0  0  0  0  0  0  0  0  0
    6.2373    2.8316   -0.9094 H   0  0  0  0  0  0  0  0  0  0  0  0
    5.2826    1.3448    0.7485 H   0  0  0  0  0  0  0  0  0  0  0  0
    1.3779   -1.4107    1.9842 H   0  0  0  0  0  0  0  0  0  0  0  0
   -1.0080    0.1099   -1.1673 H   0  0  0  0  0  0  0  0  0  0  0  0
   -0.4538   -2.7996    2.6825 H   0  0  0  0  0  0  0  0  0  0  0  0
   -2.8257   -1.2842   -0.4545 H   0  0  0  0  0  0  0  0  0  0  0  0
  1  2  1  0  0  0  0 
  1  3  1  0  0  0  0 
  1  4  1  0  0  0  0 
  2  5  1  0  0  0  0 
  2  6  2  0  0  0  0 
  4  7  1  0  0  0  0 
  4  8  2  0  0  0  0 
  7  9  2  0  0  0  0 
  8 10  1  0  0  0  0 
  9 11  1  0  0  0  0 
  9 12  1  0  0  0  0 
 10 11  2  0  0  0  0 
 11 13  1  0  0  0  0 
 12 14  2  0  0  0  0 
 13 14  1  0  0  0  0 
 14 15  1  0  0  0  0 
 15 16  2  0  0  0  0 
 15 17  1  0  0  0  0 
 16 18  1  0  0  0  0 
 17 19  2  0  0  0  0 
 18 20  2  0  0  0  0 
 19 20  1  0  0  0  0 
 20 21  1  0  0  0  0 
  1 22  1  0  0  0  0 
  3 23  1  0  0  0  0 
  3 24  1  0  0  0  0 
  3 25  1  0  0  0  0 
  5 26  1  0  0  0  0 
  7 27  1  0  0  0  0 
  8 28  1  0  0  0  0 
 10 29  1  0  0  0  0 
 16 30  1  0  0  0  0 
 17 31  1  0  0  0  0 
 18 32  1  0  0  0  0 
 19 33  1  0  0  0  0 
M  END
> <cdk:Title>
flunoxaprofen

> <Conformer>
1

> <SuperDrugID>
SD001077

$$$$
