etravirine
  CDK     0628171801

 43 45  0  0  0  0  0  0  0  0999 V2000
    0.1194    2.1092    0.0037 O   0  0  0  0  0  0  0  0  0  0  0  0
    0.9609    2.7654    0.8705 C   0  0  0  0  0  0  0  0  0  0  0  0
   -0.5969    1.0560    0.5231 C   0  0  0  0  0  0  0  0  0  0  0  0
    0.5860    3.0974    2.1365 N   0  0  0  0  0  0  0  0  0  0  0  0
    2.2252    3.1827    0.4084 C   0  0  0  0  0  0  0  0  0  0  0  0
   -0.1005   -0.2681    0.3706 C   0  0  0  0  0  0  0  0  0  0  0  0
   -1.8620    1.2798    1.1351 C   0  0  0  0  0  0  0  0  0  0  0  0
    1.3750    3.8032    2.9848 C   0  0  0  0  0  0  0  0  0  0  0  0
    2.7788    2.7951   -1.3300 Br  0  0  0  0  0  0  0  0  0  0  0  0
    3.0443    3.9129    1.2945 C   0  0  0  0  0  0  0  0  0  0  0  0
    1.1851   -0.5260   -0.3257 C   0  0  0  0  0  0  0  0  0  0  0  0
   -0.8585   -1.3534    0.8696 C   0  0  0  0  0  0  0  0  0  0  0  0
   -2.4759    2.6280    1.2674 C   0  0  0  0  0  0  0  0  0  0  0  0
   -2.5907    0.1738    1.6292 C   0  0  0  0  0  0  0  0  0  0  0  0
    0.8442    4.1184    4.1977 N   0  0  0  0  0  0  0  0  0  0  0  0
    2.5993    4.1979    2.5452 N   0  0  0  0  0  0  0  0  0  0  0  0
    4.2575    4.3663    0.9325 N   0  0  0  0  0  0  0  0  0  0  0  0
   -2.0991   -1.1401    1.5019 C   0  0  0  0  0  0  0  0  0  0  0  0
    1.4341    4.6892    5.2908 C   0  0  0  0  0  0  0  0  0  0  0  0
   -2.7980   -2.1438    1.9546 C   0  0  0  0  0  0  0  0  0  0  0  0
    0.5765    5.3537    6.1968 C   0  0  0  0  0  0  0  0  0  0  0  0
    2.8152    4.6282    5.5932 C   0  0  0  0  0  0  0  0  0  0  0  0
    1.0797    5.9675    7.3591 C   0  0  0  0  0  0  0  0  0  0  0  0
    3.3253    5.2345    6.7584 C   0  0  0  0  0  0  0  0  0  0  0  0
    2.4611    5.9184    7.6414 C   0  0  0  0  0  0  0  0  0  0  0  0
    2.9397    6.5043    8.7036 C   0  0  0  0  0  0  0  0  0  0  0  0
   -3.4209   -3.0194    2.3592 N   0  0  0  0  0  0  0  0  0  0  0  0
    3.3605    7.0275    9.6349 N   0  0  0  0  0  0  0  0  0  0  0  0
    2.0055   -0.0574    0.2195 H   0  0  0  0  0  0  0  0  0  0  0  0
    1.1452   -0.1146   -1.3353 H   0  0  0  0  0  0  0  0  0  0  0  0
    1.4051   -1.5924   -0.4111 H   0  0  0  0  0  0  0  0  0  0  0  0
   -0.5025   -2.3097    0.7636 H   0  0  0  0  0  0  0  0  0  0  0  0
   -1.8865    3.4118    0.7907 H   0  0  0  0  0  0  0  0  0  0  0  0
   -3.4616    2.6303    0.7985 H   0  0  0  0  0  0  0  0  0  0  0  0
   -2.5904    2.8840    2.3235 H   0  0  0  0  0  0  0  0  0  0  0  0
   -3.4993    0.3340    2.0780 H   0  0  0  0  0  0  0  0  0  0  0  0
   -0.1067    3.9434    4.2861 H   0  0  0  0  0  0  0  0  0  0  0  0
    4.5868    4.2206    0.0332 H   0  0  0  0  0  0  0  0  0  0  0  0
    4.8043    4.8526    1.5680 H   0  0  0  0  0  0  0  0  0  0  0  0
   -0.4308    5.4028    6.0130 H   0  0  0  0  0  0  0  0  0  0  0  0
    3.4636    4.1312    4.9822 H   0  0  0  0  0  0  0  0  0  0  0  0
    0.4280    6.4474    7.9882 H   0  0  0  0  0  0  0  0  0  0  0  0
    4.3318    5.1687    6.9528 H   0  0  0  0  0  0  0  0  0  0  0  0
  1  2  1  0  0  0  0 
  1  3  1  0  0  0  0 
  2  4  2  0  0  0  0 
  2  5  1  0  0  0  0 
  3  6  2  0  0  0  0 
  3  7  1  0  0  0  0 
  4  8  1  0  0  0  0 
  5  9  1  0  0  0  0 
  5 10  2  0  0  0  0 
  6 11  1  0  0  0  0 
  6 12  1  0  0  0  0 
  7 13  1  0  0  0  0 
  7 14  2  0  0  0  0 
  8 15  1  0  0  0  0 
  8 16  2  0  0  0  0 
 10 16  1  0  0  0  0 
 10 17  1  0  0  0  0 
 12 18  2  0  0  0  0 
 14 18  1  0  0  0  0 
 15 19  1  0  0  0  0 
 18 20  1  0  0  0  0 
 19 21  2  0  0  0  0 
 19 22  1  0  0  0  0 
 21 23  1  0  0  0  0 
 22 24  2  0  0  0  0 
 23 25  2  0  0  0  0 
 24 25  1  0  0  0  0 
 25 26  1  0  0  0  0 
 20 27  3  0  0  0  0 
 26 28  3  0  0  0  0 
 11 29  1  0  0  0  0 
 11 30  1  0  0  0  0 
 11 31  1  0  0  0  0 
 12 32  1  0  0  0  0 
 13 33  1  0  0  0  0 
 13 34  1  0  0  0  0 
 13 35  1  0  0  0  0 
 14 36  1  0  0  0  0 
 15 37  1  0  0  0  0 
 17 38  1  0  0  0  0 
 17 39  1  0  0  0  0 
 21 40  1  0  0  0  0 
 22 41  1  0  0  0  0 
 23 42  1  0  0  0  0 
 24 43  1  0  0  0  0 
M  END
> <cdk:Title>
etravirine

> <Conformer>
1

> <SuperDrugID>
SD000996

$$$$
