uracil mustard
  CDK     0628171801

 26 26  0  0  0  0  0  0  0  0999 V2000
    3.2618   -1.4523   -0.9099 N   0  0  0  0  0  0  0  0  0  0  0  0
    3.2799   -0.5518    0.2328 C   0  0  1  0  0  0  0  0  0  0  0  0
    4.3368   -1.4724   -1.8855 C   0  0  1  0  0  0  0  0  0  0  0  0
    2.1922   -2.3050   -1.0707 C   0  0  0  0  0  0  0  0  0  0  0  0
    3.2621    0.9576   -0.1214 C   0  0  1  0  0  0  0  0  0  0  0  0
    5.6255   -2.1691   -1.3848 C   0  0  2  0  0  0  0  0  0  0  0  0
    1.9499   -3.3917   -0.1975 C   0  0  0  0  0  0  0  0  0  0  0  0
    1.2746   -2.1281   -2.1296 C   0  0  0  0  0  0  0  0  0  0  0  0
    1.9479    1.3817   -1.2149 Cl  0  0  0  0  0  0  0  0  0  0  0  0
    5.4076   -3.9074   -1.1974 Cl  0  0  0  0  0  0  0  0  0  0  0  0
    2.7066   -3.6370    0.7689 O   0  0  0  0  0  0  0  0  0  0  0  0
    0.8819   -4.2073   -0.3949 N   0  0  0  0  0  0  0  0  0  0  0  0
    0.2174   -2.9662   -2.2779 N   0  0  0  0  0  0  0  0  0  0  0  0
    0.0206   -4.0013   -1.4241 C   0  0  0  0  0  0  0  0  0  0  0  0
   -0.9541   -4.7664   -1.5922 O   0  0  0  0  0  0  0  0  0  0  0  0
    2.4212   -0.7298    0.8917 H   0  0  0  0  0  0  0  0  0  0  0  0
    4.1688   -0.7530    0.8368 H   0  0  0  0  0  0  0  0  0  0  0  0
    4.0306   -1.9766   -2.8082 H   0  0  0  0  0  0  0  0  0  0  0  0
    4.5837   -0.4502   -2.1803 H   0  0  0  0  0  0  0  0  0  0  0  0
    3.1342    1.5419    0.7935 H   0  0  0  0  0  0  0  0  0  0  0  0
    4.2077    1.2540   -0.5768 H   0  0  0  0  0  0  0  0  0  0  0  0
    5.9492   -1.7493   -0.4307 H   0  0  0  0  0  0  0  0  0  0  0  0
    6.4243   -2.0135   -2.1141 H   0  0  0  0  0  0  0  0  0  0  0  0
    1.3950   -1.3619   -2.7946 H   0  0  0  0  0  0  0  0  0  0  0  0
    0.7318   -4.9523    0.2111 H   0  0  0  0  0  0  0  0  0  0  0  0
   -0.4097   -2.8186   -3.0023 H   0  0  0  0  0  0  0  0  0  0  0  0
  1  2  1  0  0  0  0 
  1  3  1  0  0  0  0 
  1  4  1  0  0  0  0 
  2  5  1  0  0  0  0 
  3  6  1  0  0  0  0 
  4  7  1  0  0  0  0 
  4  8  2  0  0  0  0 
  5  9  1  0  0  0  0 
  6 10  1  0  0  0  0 
  7 11  2  0  0  0  0 
  7 12  1  0  0  0  0 
  8 13  1  0  0  0  0 
 12 14  1  0  0  0  0 
 13 14  1  0  0  0  0 
 14 15  2  0  0  0  0 
 16  2  1  0  0  0  0 
 17  2  1  0  0  0  0 
 18  3  1  0  0  0  0 
 19  3  1  0  0  0  0 
 20  5  1  0  0  0  0 
 21  5  1  0  0  0  0 
 22  6  1  0  0  0  0 
 23  6  1  0  0  0  0 
 24  8  1  0  0  0  0 
 25 12  1  0  0  0  0 
 26 13  1  0  0  0  0 
M  END
> <cdk:Title>
uracil mustard

> <Conformer>
1

> <SuperDrugID>
SD002520

$$$$
