micinicate
  CDK     0628171801

 55 57  0  0  0  0  0  0  0  0999 V2000
    1.3190    0.0758   -0.2499 C   0  0  0  0  0  0  0  0  0  0  0  0
   -0.0361    0.0181   -0.3337 N   0  0  0  0  0  0  0  0  0  0  0  0
   -0.8270    1.1108   -0.1953 C   0  0  0  0  0  0  0  0  0  0  0  0
   -0.2401    2.3660    0.0317 C   0  0  0  0  0  0  0  0  0  0  0  0
    1.1605    2.4581    0.1246 C   0  0  0  0  0  0  0  0  0  0  0  0
    1.9776    1.3070   -0.0064 C   0  0  0  0  0  0  0  0  0  0  0  0
    3.3911    1.3983    0.1142 C   0  0  0  0  0  0  0  0  0  0  0  0
    4.1374    0.4287   -0.1621 O   0  0  0  0  0  0  0  0  0  0  0  0
    3.9440    2.5676    0.5586 O   0  0  0  0  0  0  0  0  0  0  0  0
    5.3195    2.9271    0.7665 C   0  0  1  0  0  0  0  0  0  0  0  0
    5.3289    4.3606    1.1267 C   0  0  0  0  0  0  0  0  0  0  0  0
    6.0233    2.0776    1.7708 C   0  0  0  0  0  0  0  0  0  0  0  0
    5.8107    2.8230   -0.2066 H   0  0  0  0  0  0  0  0  0  0  0  0
    6.0191    0.7466    3.8332 C   0  0  0  0  0  0  0  0  0  0  0  0
    5.3748    1.6351    2.9498 C   0  0  0  0  0  0  0  0  0  0  0  0
    7.3556    1.6586    1.5354 C   0  0  0  0  0  0  0  0  0  0  0  0
    8.0001    0.7733    2.4188 C   0  0  0  0  0  0  0  0  0  0  0  0
    7.3250    0.3033    3.5589 C   0  0  0  0  0  0  0  0  0  0  0  0
    6.1829    5.2038    0.4783 O   0  0  0  0  0  0  0  0  0  0  0  0
    4.5413    4.8204    1.9860 O   0  0  0  0  0  0  0  0  0  0  0  0
    5.7725    6.2755   -0.3896 C   0  0  1  0  0  0  0  0  0  0  0  0
    6.9905    7.2104   -0.6308 C   0  0  2  0  0  0  0  0  0  0  0  0
    5.2747    5.6249   -1.7132 C   0  0  1  0  0  0  0  0  0  0  0  0
    5.0431    6.6402   -2.8667 C   0  0  1  0  0  0  0  0  0  0  0  0
    6.3236    7.5062   -3.0860 C   0  0  2  0  0  0  0  0  0  0  0  0
    6.8103    8.2530   -1.7914 C   0  0  1  0  0  0  0  0  0  0  0  0
    5.8108    9.3955   -1.4001 C   0  0  0  0  0  0  0  0  0  0  0  0
    8.2043    8.9190   -2.0534 C   0  0  0  0  0  0  0  0  0  0  0  0
    4.6013    5.9219   -4.1703 C   0  0  0  0  0  0  0  0  0  0  0  0
    4.2155    7.2930   -2.5816 H   0  0  0  0  0  0  0  0  0  0  0  0
    4.9657    6.8536    0.0748 H   0  0  0  0  0  0  0  0  0  0  0  0
    1.8449   -0.7939   -0.3600 H   0  0  0  0  0  0  0  0  0  0  0  0
   -1.8432    1.0152   -0.2563 H   0  0  0  0  0  0  0  0  0  0  0  0
   -0.8213    3.2017    0.1287 H   0  0  0  0  0  0  0  0  0  0  0  0
    1.5740    3.3800    0.2867 H   0  0  0  0  0  0  0  0  0  0  0  0
    5.5350    0.4127    4.6698 H   0  0  0  0  0  0  0  0  0  0  0  0
    4.4218    1.9435    3.1607 H   0  0  0  0  0  0  0  0  0  0  0  0
    7.8642    1.9890    0.7100 H   0  0  0  0  0  0  0  0  0  0  0  0
    8.9558    0.4631    2.2263 H   0  0  0  0  0  0  0  0  0  0  0  0
    7.7831   -0.3619    4.1849 H   0  0  0  0  0  0  0  0  0  0  0  0
    7.8515    6.5735   -0.8570 H   0  0  0  0  0  0  0  0  0  0  0  0
    7.2214    7.7356    0.3010 H   0  0  0  0  0  0  0  0  0  0  0  0
    6.0112    4.8826   -2.0365 H   0  0  0  0  0  0  0  0  0  0  0  0
    4.3418    5.0925   -1.5107 H   0  0  0  0  0  0  0  0  0  0  0  0
    6.1392    8.2338   -3.8825 H   0  0  0  0  0  0  0  0  0  0  0  0
    7.1243    6.8463   -3.4355 H   0  0  0  0  0  0  0  0  0  0  0  0
    6.1816    9.9579   -0.5408 H   0  0  0  0  0  0  0  0  0  0  0  0
    5.6835   10.0943   -2.2313 H   0  0  0  0  0  0  0  0  0  0  0  0
    4.8271    9.0077   -1.1366 H   0  0  0  0  0  0  0  0  0  0  0  0
    8.5569    9.4360   -1.1561 H   0  0  0  0  0  0  0  0  0  0  0  0
    8.1494    9.6456   -2.8668 H   0  0  0  0  0  0  0  0  0  0  0  0
    8.9533    8.1693   -2.3206 H   0  0  0  0  0  0  0  0  0  0  0  0
    3.6808    5.3599   -4.0015 H   0  0  0  0  0  0  0  0  0  0  0  0
    4.4120    6.6519   -4.9592 H   0  0  0  0  0  0  0  0  0  0  0  0
    5.3730    5.2309   -4.5124 H   0  0  0  0  0  0  0  0  0  0  0  0
  1  2  2  0  0  0  0 
  2  3  1  0  0  0  0 
  3  4  2  0  0  0  0 
  4  5  1  0  0  0  0 
  5  6  2  0  0  0  0 
  1  6  1  0  0  0  0 
  6  7  1  0  0  0  0 
  7  8  2  0  0  0  0 
  7  9  1  0  0  0  0 
 10  9  1  0  0  0  0 
 10 11  1  0  0  0  0 
 10 12  1  0  0  0  0 
 10 13  1  0  0  0  0 
 15 12  2  0  0  0  0 
 12 16  1  0  0  0  0 
 14 15  1  0  0  0  0 
 16 17  2  0  0  0  0 
 17 18  1  0  0  0  0 
 14 18  2  0  0  0  0 
 11 19  1  0  0  0  0 
 11 20  2  0  0  0  0 
 21 19  1  0  0  0  0 
 22 21  1  0  0  0  0 
 21 23  1  0  0  0  0 
 23 24  1  0  0  0  0 
 24 25  1  0  0  0  0 
 25 26  1  0  0  0  0 
 22 26  1  0  0  0  0 
 26 27  1  0  0  0  0 
 26 28  1  0  0  0  0 
 24 29  1  0  0  0  0 
 24 30  1  0  0  0  0 
 21 31  1  0  0  0  0 
  1 32  1  0  0  0  0 
  3 33  1  0  0  0  0 
  4 34  1  0  0  0  0 
  5 35  1  0  0  0  0 
 14 36  1  0  0  0  0 
 15 37  1  0  0  0  0 
 16 38  1  0  0  0  0 
 17 39  1  0  0  0  0 
 18 40  1  0  0  0  0 
 22 41  1  0  0  0  0 
 22 42  1  0  0  0  0 
 23 43  1  0  0  0  0 
 23 44  1  0  0  0  0 
 25 45  1  0  0  0  0 
 25 46  1  0  0  0  0 
 27 47  1  0  0  0  0 
 27 48  1  0  0  0  0 
 27 49  1  0  0  0  0 
 28 50  1  0  0  0  0 
 28 51  1  0  0  0  0 
 28 52  1  0  0  0  0 
 29 53  1  0  0  0  0 
 29 54  1  0  0  0  0 
 29 55  1  0  0  0  0 
M  END
> <cdk:Title>
micinicate

> <Conformer>
1

> <SuperDrugID>
SD001599

$$$$
