ethaverine
  CDK     0628171801

 58 60  0  0  0  0  0  0  0  0999 V2000
   -1.1562   -6.3377   -1.7123 C   0  0  1  0  0  0  0  0  0  0  0  0
    0.1057   -5.8787   -1.0731 C   0  0  0  0  0  0  0  0  0  0  0  0
   -0.9186   -6.6611   -3.1462 C   0  0  0  0  0  0  0  0  0  0  0  0
    0.5941   -4.5378   -1.0747 C   0  0  0  0  0  0  0  0  0  0  0  0
    0.8631   -6.8530   -0.4968 N   0  0  0  0  0  0  0  0  0  0  0  0
   -0.9748   -5.6639   -4.1498 C   0  0  0  0  0  0  0  0  0  0  0  0
   -0.6039   -7.9833   -3.5365 C   0  0  0  0  0  0  0  0  0  0  0  0
    1.8736   -4.2834   -0.4937 C   0  0  0  0  0  0  0  0  0  0  0  0
   -0.1124   -3.4422   -1.6329 C   0  0  0  0  0  0  0  0  0  0  0  0
    2.0701   -6.6366    0.0757 C   0  0  0  0  0  0  0  0  0  0  0  0
   -0.6936   -5.9611   -5.4966 C   0  0  0  0  0  0  0  0  0  0  0  0
   -0.3787   -8.3009   -4.8872 C   0  0  0  0  0  0  0  0  0  0  0  0
    2.4011   -2.9720   -0.4874 C   0  0  0  0  0  0  0  0  0  0  0  0
    2.6088   -5.3432    0.0800 C   0  0  0  0  0  0  0  0  0  0  0  0
    0.4487   -2.1519   -1.6879 C   0  0  0  0  0  0  0  0  0  0  0  0
   -0.6981   -4.9543   -6.4284 O   0  0  0  0  0  0  0  0  0  0  0  0
   -0.4438   -7.2983   -5.8751 C   0  0  0  0  0  0  0  0  0  0  0  0
    1.6850   -1.9043   -1.0591 C   0  0  0  0  0  0  0  0  0  0  0  0
   -0.2262   -1.1430   -2.3289 O   0  0  0  0  0  0  0  0  0  0  0  0
    0.6042   -4.3623   -6.6279 C   0  0  1  0  0  0  0  0  0  0  0  0
   -0.2600   -7.6231   -7.1930 O   0  0  0  0  0  0  0  0  0  0  0  0
    2.1833   -0.6316   -0.9995 O   0  0  0  0  0  0  0  0  0  0  0  0
    0.0950   -1.0593   -3.7349 C   0  0  1  0  0  0  0  0  0  0  0  0
    0.5201   -3.2660   -7.7068 C   0  0  0  0  0  0  0  0  0  0  0  0
   -1.5035   -7.9188   -7.8630 C   0  0  1  0  0  0  0  0  0  0  0  0
    1.6607    0.1045    0.1274 C   0  0  1  0  0  0  0  0  0  0  0  0
   -0.7422    0.0568   -4.3852 C   0  0  0  0  0  0  0  0  0  0  0  0
   -1.2207   -8.2550   -9.3374 C   0  0  0  0  0  0  0  0  0  0  0  0
    2.1811    1.5514    0.0928 C   0  0  0  0  0  0  0  0  0  0  0  0
   -1.5292   -7.2238   -1.1855 H   0  0  0  0  0  0  0  0  0  0  0  0
   -1.9495   -5.5979   -1.6106 H   0  0  0  0  0  0  0  0  0  0  0  0
   -1.2257   -4.7062   -3.9199 H   0  0  0  0  0  0  0  0  0  0  0  0
   -0.5365   -8.7271   -2.8390 H   0  0  0  0  0  0  0  0  0  0  0  0
   -1.0523   -3.5540   -2.0124 H   0  0  0  0  0  0  0  0  0  0  0  0
    2.5851   -7.4139    0.4957 H   0  0  0  0  0  0  0  0  0  0  0  0
   -0.1652   -9.2641   -5.1503 H   0  0  0  0  0  0  0  0  0  0  0  0
    3.3127   -2.7847   -0.0652 H   0  0  0  0  0  0  0  0  0  0  0  0
    3.5273   -5.1880    0.5023 H   0  0  0  0  0  0  0  0  0  0  0  0
    0.9738   -3.9072   -5.7033 H   0  0  0  0  0  0  0  0  0  0  0  0
    1.3218   -5.1182   -6.9610 H   0  0  0  0  0  0  0  0  0  0  0  0
    1.1560   -0.8289   -3.8740 H   0  0  0  0  0  0  0  0  0  0  0  0
   -0.1337   -1.9981   -4.2496 H   0  0  0  0  0  0  0  0  0  0  0  0
    0.1804   -3.6918   -8.6526 H   0  0  0  0  0  0  0  0  0  0  0  0
   -0.1776   -2.4865   -7.3968 H   0  0  0  0  0  0  0  0  0  0  0  0
    1.5030   -2.8156   -7.8597 H   0  0  0  0  0  0  0  0  0  0  0  0
   -2.0006   -8.7771   -7.3997 H   0  0  0  0  0  0  0  0  0  0  0  0
   -2.1812   -7.0594   -7.8334 H   0  0  0  0  0  0  0  0  0  0  0  0
    0.5665    0.1430    0.1024 H   0  0  0  0  0  0  0  0  0  0  0  0
    1.9744   -0.3597    1.0680 H   0  0  0  0  0  0  0  0  0  0  0  0
   -0.4767    0.1607   -5.4388 H   0  0  0  0  0  0  0  0  0  0  0  0
   -0.5607    1.0080   -3.8823 H   0  0  0  0  0  0  0  0  0  0  0  0
   -1.8036   -0.1861   -4.3139 H   0  0  0  0  0  0  0  0  0  0  0  0
   -0.7589   -7.4009   -9.8362 H   0  0  0  0  0  0  0  0  0  0  0  0
   -0.5497   -9.1130   -9.4096 H   0  0  0  0  0  0  0  0  0  0  0  0
   -2.1549   -8.4964   -9.8485 H   0  0  0  0  0  0  0  0  0  0  0  0
    1.8104    2.0966    0.9634 H   0  0  0  0  0  0  0  0  0  0  0  0
    1.8313    2.0528   -0.8107 H   0  0  0  0  0  0  0  0  0  0  0  0
    3.2716    1.5635    0.1069 H   0  0  0  0  0  0  0  0  0  0  0  0
  1  2  1  0  0  0  0 
  1  3  1  0  0  0  0 
  2  4  2  0  0  0  0 
  2  5  1  0  0  0  0 
  3  6  2  0  0  0  0 
  3  7  1  0  0  0  0 
  4  8  1  0  0  0  0 
  4  9  1  0  0  0  0 
  5 10  2  0  0  0  0 
  6 11  1  0  0  0  0 
  7 12  2  0  0  0  0 
  8 13  1  0  0  0  0 
  8 14  2  0  0  0  0 
  9 15  2  0  0  0  0 
 10 14  1  0  0  0  0 
 11 16  1  0  0  0  0 
 11 17  2  0  0  0  0 
 12 17  1  0  0  0  0 
 13 18  2  0  0  0  0 
 15 18  1  0  0  0  0 
 15 19  1  0  0  0  0 
 16 20  1  0  0  0  0 
 17 21  1  0  0  0  0 
 18 22  1  0  0  0  0 
 19 23  1  0  0  0  0 
 20 24  1  0  0  0  0 
 21 25  1  0  0  0  0 
 22 26  1  0  0  0  0 
 23 27  1  0  0  0  0 
 25 28  1  0  0  0  0 
 26 29  1  0  0  0  0 
  1 30  1  0  0  0  0 
  1 31  1  0  0  0  0 
  6 32  1  0  0  0  0 
  7 33  1  0  0  0  0 
  9 34  1  0  0  0  0 
 10 35  1  0  0  0  0 
 12 36  1  0  0  0  0 
 13 37  1  0  0  0  0 
 14 38  1  0  0  0  0 
 20 39  1  0  0  0  0 
 20 40  1  0  0  0  0 
 23 41  1  0  0  0  0 
 23 42  1  0  0  0  0 
 24 43  1  0  0  0  0 
 24 44  1  0  0  0  0 
 24 45  1  0  0  0  0 
 25 46  1  0  0  0  0 
 25 47  1  0  0  0  0 
 26 48  1  0  0  0  0 
 26 49  1  0  0  0  0 
 27 50  1  0  0  0  0 
 27 51  1  0  0  0  0 
 27 52  1  0  0  0  0 
 28 53  1  0  0  0  0 
 28 54  1  0  0  0  0 
 28 55  1  0  0  0  0 
 29 56  1  0  0  0  0 
 29 57  1  0  0  0  0 
 29 58  1  0  0  0  0 
M  END
> <cdk:Title>
ethaverine

> <Conformer>
1

> <SuperDrugID>
SD000961

$$$$
