piribedil
  CDK     0628171801

 40 43  0  0  0  0  0  0  0  0999 V2000
   -3.2197   -1.2867   -2.2256 C   0  0  2  0  0  0  0  0  0  0  0  0
   -2.1825   -0.6830   -3.1097 C   0  0  0  0  0  0  0  0  0  0  0  0
   -2.8202   -1.3137   -0.7791 N   0  0  1  0  0  0  0  0  0  0  0  0
   -1.1277   -1.4683   -3.6395 C   0  0  0  0  0  0  0  0  0  0  0  0
   -2.2080    0.7089   -3.3924 C   0  0  0  0  0  0  0  0  0  0  0  0
   -2.4916    0.0269   -0.1927 C   0  0  1  0  0  0  0  0  0  0  0  0
   -3.8032   -2.0511    0.0785 C   0  0  1  0  0  0  0  0  0  0  0  0
   -0.1113   -0.8456   -4.3837 C   0  0  0  0  0  0  0  0  0  0  0  0
   -1.1730    1.3196   -4.1273 C   0  0  0  0  0  0  0  0  0  0  0  0
   -2.0161   -0.0954    1.2724 C   0  0  1  0  0  0  0  0  0  0  0  0
   -3.3086   -2.1478    1.5445 C   0  0  2  0  0  0  0  0  0  0  0  0
   -0.1238    0.5219   -4.6068 C   0  0  0  0  0  0  0  0  0  0  0  0
    0.9586   -1.4327   -4.9475 O   0  0  0  0  0  0  0  0  0  0  0  0
   -2.9719   -0.8379    2.0669 N   0  0  0  0  0  0  0  0  0  0  0  0
    0.9505    0.9342   -5.3025 O   0  0  0  0  0  0  0  0  0  0  0  0
    1.6191   -0.3125   -5.5677 C   0  0  1  0  0  0  0  0  0  0  0  0
   -3.5129   -0.3302    3.2392 C   0  0  0  0  0  0  0  0  0  0  0  0
   -3.1960    0.9176    3.6920 N   0  0  0  0  0  0  0  0  0  0  0  0
   -4.3860   -1.0494    4.0014 N   0  0  0  0  0  0  0  0  0  0  0  0
   -3.6971    1.4510    4.8343 C   0  0  0  0  0  0  0  0  0  0  0  0
   -4.9286   -0.5830    5.1554 C   0  0  0  0  0  0  0  0  0  0  0  0
   -4.5876    0.6986    5.6141 C   0  0  0  0  0  0  0  0  0  0  0  0
   -3.4061   -2.3101   -2.5649 H   0  0  0  0  0  0  0  0  0  0  0  0
   -4.1659   -0.7495   -2.3381 H   0  0  0  0  0  0  0  0  0  0  0  0
   -1.0893   -2.4777   -3.4854 H   0  0  0  0  0  0  0  0  0  0  0  0
   -2.9704    1.2936   -3.0420 H   0  0  0  0  0  0  0  0  0  0  0  0
   -1.6717    0.4941   -0.7404 H   0  0  0  0  0  0  0  0  0  0  0  0
   -3.3599    0.6903   -0.2409 H   0  0  0  0  0  0  0  0  0  0  0  0
   -4.7761   -1.5489    0.0616 H   0  0  0  0  0  0  0  0  0  0  0  0
   -3.9370   -3.0703   -0.2945 H   0  0  0  0  0  0  0  0  0  0  0  0
   -1.1777    2.3257   -4.3029 H   0  0  0  0  0  0  0  0  0  0  0  0
   -1.0634   -0.6317    1.2854 H   0  0  0  0  0  0  0  0  0  0  0  0
   -1.8210    0.9131    1.6439 H   0  0  0  0  0  0  0  0  0  0  0  0
   -2.4086   -2.7689    1.5697 H   0  0  0  0  0  0  0  0  0  0  0  0
   -4.0727   -2.6668    2.1267 H   0  0  0  0  0  0  0  0  0  0  0  0
    2.6460   -0.2547   -5.2012 H   0  0  0  0  0  0  0  0  0  0  0  0
    1.6485   -0.4699   -6.6473 H   0  0  0  0  0  0  0  0  0  0  0  0
   -3.4221    2.3922    5.1210 H   0  0  0  0  0  0  0  0  0  0  0  0
   -5.5787   -1.1659    5.6857 H   0  0  0  0  0  0  0  0  0  0  0  0
   -4.9737    1.0713    6.4848 H   0  0  0  0  0  0  0  0  0  0  0  0
  1  2  1  0  0  0  0 
  1  3  1  0  0  0  0 
  2  4  2  0  0  0  0 
  2  5  1  0  0  0  0 
  3  6  1  0  0  0  0 
  3  7  1  0  0  0  0 
  4  8  1  0  0  0  0 
  5  9  2  0  0  0  0 
  6 10  1  0  0  0  0 
  7 11  1  0  0  0  0 
  8 12  2  0  0  0  0 
  8 13  1  0  0  0  0 
  9 12  1  0  0  0  0 
 10 14  1  0  0  0  0 
 11 14  1  0  0  0  0 
 12 15  1  0  0  0  0 
 13 16  1  0  0  0  0 
 14 17  1  0  0  0  0 
 15 16  1  0  0  0  0 
 17 18  2  0  0  0  0 
 17 19  1  0  0  0  0 
 18 20  1  0  0  0  0 
 19 21  2  0  0  0  0 
 20 22  2  0  0  0  0 
 21 22  1  0  0  0  0 
  1 23  1  0  0  0  0 
  1 24  1  0  0  0  0 
  4 25  1  0  0  0  0 
  5 26  1  0  0  0  0 
  6 27  1  0  0  0  0 
  6 28  1  0  0  0  0 
  7 29  1  0  0  0  0 
  7 30  1  0  0  0  0 
  9 31  1  0  0  0  0 
 10 32  1  0  0  0  0 
 10 33  1  0  0  0  0 
 11 34  1  0  0  0  0 
 11 35  1  0  0  0  0 
 16 36  1  0  0  0  0 
 16 37  1  0  0  0  0 
 20 38  1  0  0  0  0 
 21 39  1  0  0  0  0 
 22 40  1  0  0  0  0 
M  END
> <cdk:Title>
piribedil

> <Conformer>
1

> <SuperDrugID>
SD001977

$$$$
