bepridil
  CDK     0628171801

 61 63  0  0  0  0  0  0  0  0999 V2000
    1.2019   -4.7628    0.6428 N   0  0  0  0  0  0  0  0  0  0  0  0
    0.3866   -3.7164    0.0255 C   0  0  2  0  0  0  0  0  0  0  0  0
    0.6641   -5.6587    1.6561 C   0  0  1  0  0  0  0  0  0  0  0  0
    2.4930   -4.9681    0.1801 C   0  0  0  0  0  0  0  0  0  0  0  0
    0.1843   -3.8598   -1.5244 C   0  0  1  0  0  0  0  0  0  0  0  0
   -0.2633   -5.0330    2.6356 C   0  0  0  0  0  0  0  0  0  0  0  0
    3.4089   -3.8963    0.0338 C   0  0  0  0  0  0  0  0  0  0  0  0
    2.9166   -6.2659   -0.2058 C   0  0  0  0  0  0  0  0  0  0  0  0
   -0.5320   -5.2117   -1.8411 C   0  0  1  0  0  0  0  0  0  0  0  0
   -0.5527   -2.6727   -2.1049 N   0  0  1  0  0  0  0  0  0  0  0  0
    0.2239   -4.1227    3.6017 C   0  0  0  0  0  0  0  0  0  0  0  0
   -1.6486   -5.3193    2.6002 C   0  0  0  0  0  0  0  0  0  0  0  0
    4.6828   -4.1051   -0.5254 C   0  0  0  0  0  0  0  0  0  0  0  0
    4.1935   -6.4779   -0.7558 C   0  0  0  0  0  0  0  0  0  0  0  0
   -1.9112   -5.1320   -1.4322 O   0  0  0  0  0  0  0  0  0  0  0  0
    0.1329   -1.3564   -2.0087 C   0  0  1  0  0  0  0  0  0  0  0  0
   -0.9624   -2.7615   -3.5330 C   0  0  1  0  0  0  0  0  0  0  0  0
   -0.6584   -3.5134    4.5140 C   0  0  0  0  0  0  0  0  0  0  0  0
   -2.5321   -4.6981    3.4997 C   0  0  0  0  0  0  0  0  0  0  0  0
    5.0726   -5.3946   -0.9263 C   0  0  0  0  0  0  0  0  0  0  0  0
   -2.6978   -6.3181   -1.6581 C   0  0  1  0  0  0  0  0  0  0  0  0
   -0.6363   -0.4070   -2.9457 C   0  0  1  0  0  0  0  0  0  0  0  0
   -1.3031   -1.3270   -3.9814 C   0  0  1  0  0  0  0  0  0  0  0  0
   -2.0372   -3.7922    4.4552 C   0  0  0  0  0  0  0  0  0  0  0  0
   -4.2079   -5.9564   -1.5384 C   0  0  1  0  0  0  0  0  0  0  0  0
   -5.1218   -7.1138   -2.0358 C   0  0  0  0  0  0  0  0  0  0  0  0
   -4.5785   -5.5045   -0.0974 C   0  0  0  0  0  0  0  0  0  0  0  0
    0.8580   -2.7613    0.2512 H   0  0  0  0  0  0  0  0  0  0  0  0
   -0.6089   -3.6564    0.4698 H   0  0  0  0  0  0  0  0  0  0  0  0
    0.1639   -6.4795    1.1353 H   0  0  0  0  0  0  0  0  0  0  0  0
    1.4753   -6.1103    2.2384 H   0  0  0  0  0  0  0  0  0  0  0  0
    1.1718   -3.9006   -1.9968 H   0  0  0  0  0  0  0  0  0  0  0  0
    3.1552   -2.9525    0.3312 H   0  0  0  0  0  0  0  0  0  0  0  0
    2.2886   -7.0682   -0.1004 H   0  0  0  0  0  0  0  0  0  0  0  0
   -0.4691   -5.4051   -2.9160 H   0  0  0  0  0  0  0  0  0  0  0  0
   -0.0307   -6.0426   -1.3400 H   0  0  0  0  0  0  0  0  0  0  0  0
    1.2237   -3.8990    3.6456 H   0  0  0  0  0  0  0  0  0  0  0  0
   -2.0253   -5.9731    1.9089 H   0  0  0  0  0  0  0  0  0  0  0  0
    5.3227   -3.3170   -0.6454 H   0  0  0  0  0  0  0  0  0  0  0  0
    4.4766   -7.4190   -1.0400 H   0  0  0  0  0  0  0  0  0  0  0  0
    0.1011   -0.9655   -0.9906 H   0  0  0  0  0  0  0  0  0  0  0  0
    1.1769   -1.4310   -2.3327 H   0  0  0  0  0  0  0  0  0  0  0  0
   -0.1506   -3.1588   -4.1542 H   0  0  0  0  0  0  0  0  0  0  0  0
   -1.8421   -3.4022   -3.6430 H   0  0  0  0  0  0  0  0  0  0  0  0
   -0.2969   -2.8630    5.2155 H   0  0  0  0  0  0  0  0  0  0  0  0
   -3.5323   -4.9014    3.4539 H   0  0  0  0  0  0  0  0  0  0  0  0
    5.9920   -5.5445   -1.3445 H   0  0  0  0  0  0  0  0  0  0  0  0
   -2.5077   -6.7183   -2.6590 H   0  0  0  0  0  0  0  0  0  0  0  0
   -2.4305   -7.0818   -0.9213 H   0  0  0  0  0  0  0  0  0  0  0  0
   -1.3991    0.1433   -2.3858 H   0  0  0  0  0  0  0  0  0  0  0  0
    0.0391    0.3108   -3.4208 H   0  0  0  0  0  0  0  0  0  0  0  0
   -0.9147   -1.1352   -4.9852 H   0  0  0  0  0  0  0  0  0  0  0  0
   -2.3862   -1.1719   -3.9820 H   0  0  0  0  0  0  0  0  0  0  0  0
   -2.6804   -3.3311    5.1032 H   0  0  0  0  0  0  0  0  0  0  0  0
   -4.3936   -5.1031   -2.1982 H   0  0  0  0  0  0  0  0  0  0  0  0
   -4.8345   -7.3010   -3.1583 H   0  0  0  0  0  0  0  0  0  0  0  0
   -6.1953   -6.7954   -1.8624 H   0  0  0  0  0  0  0  0  0  0  0  0
   -4.9685   -7.9915   -1.3386 H   0  0  0  0  0  0  0  0  0  0  0  0
   -3.9436   -4.6758    0.2217 H   0  0  0  0  0  0  0  0  0  0  0  0
   -5.6146   -5.1627   -0.0585 H   0  0  0  0  0  0  0  0  0  0  0  0
   -4.4565   -6.3280    0.6082 H   0  0  0  0  0  0  0  0  0  0  0  0
  1  2  1  0  0  0  0 
  1  3  1  0  0  0  0 
  1  4  1  0  0  0  0 
  5  2  1  0  0  0  0 
  3  6  1  0  0  0  0 
  4  7  2  0  0  0  0 
  4  8  1  0  0  0  0 
  5  9  1  0  0  0  0 
  5 10  1  0  0  0  0 
  6 11  2  0  0  0  0 
  6 12  1  0  0  0  0 
  7 13  1  0  0  0  0 
  8 14  2  0  0  0  0 
  9 15  1  0  0  0  0 
 10 16  1  0  0  0  0 
 10 17  1  0  0  0  0 
 11 18  1  0  0  0  0 
 12 19  2  0  0  0  0 
 13 20  2  0  0  0  0 
 14 20  1  0  0  0  0 
 15 21  1  0  0  0  0 
 16 22  1  0  0  0  0 
 17 23  1  0  0  0  0 
 18 24  2  0  0  0  0 
 19 24  1  0  0  0  0 
 21 25  1  0  0  0  0 
 22 23  1  0  0  0  0 
 25 26  1  0  0  0  0 
 25 27  1  0  0  0  0 
  2 28  1  0  0  0  0 
  2 29  1  0  0  0  0 
  3 30  1  0  0  0  0 
  3 31  1  0  0  0  0 
  5 32  1  0  0  0  0 
  7 33  1  0  0  0  0 
  8 34  1  0  0  0  0 
  9 35  1  0  0  0  0 
  9 36  1  0  0  0  0 
 11 37  1  0  0  0  0 
 12 38  1  0  0  0  0 
 13 39  1  0  0  0  0 
 14 40  1  0  0  0  0 
 16 41  1  0  0  0  0 
 16 42  1  0  0  0  0 
 17 43  1  0  0  0  0 
 17 44  1  0  0  0  0 
 18 45  1  0  0  0  0 
 19 46  1  0  0  0  0 
 20 47  1  0  0  0  0 
 21 48  1  0  0  0  0 
 21 49  1  0  0  0  0 
 22 50  1  0  0  0  0 
 22 51  1  0  0  0  0 
 23 52  1  0  0  0  0 
 23 53  1  0  0  0  0 
 24 54  1  0  0  0  0 
 25 55  1  0  0  0  0 
 26 56  1  0  0  0  0 
 26 57  1  0  0  0  0 
 26 58  1  0  0  0  0 
 27 59  1  0  0  0  0 
 27 60  1  0  0  0  0 
 27 61  1  0  0  0  0 
M  END
> <cdk:Title>
bepridil

> <Conformer>
1

> <SuperDrugID>
SD000288

$$$$
