melatonin
  CDK     0628171801

 33 34  0  0  0  0  0  0  0  0999 V2000
    1.2236   -4.9835    5.4397 C   0  0  2  0  0  0  0  0  0  0  0  0
    1.8684   -4.7619    6.8330 C   0  0  2  0  0  0  0  0  0  0  0  0
    0.8980   -6.4040    5.1817 C   0  0  0  0  0  0  0  0  0  0  0  0
    2.6313   -3.5521    6.8516 N   0  0  0  0  0  0  0  0  0  0  0  0
    1.6795   -7.3402    4.5034 C   0  0  0  0  0  0  0  0  0  0  0  0
   -0.2526   -7.0919    5.5758 C   0  0  0  0  0  0  0  0  0  0  0  0
    3.2360   -3.0255    7.9510 C   0  0  0  0  0  0  0  0  0  0  0  0
    0.9808   -8.5473    4.5086 C   0  0  0  0  0  0  0  0  0  0  0  0
    2.9410   -7.2422    3.8854 C   0  0  0  0  0  0  0  0  0  0  0  0
   -0.1836   -8.3654    5.1487 N   0  0  0  0  0  0  0  0  0  0  0  0
    4.0994   -1.8396    7.8256 C   0  0  0  0  0  0  0  0  0  0  0  0
    3.0891   -3.5404    9.0849 O   0  0  0  0  0  0  0  0  0  0  0  0
    1.5112   -9.7018    3.9096 C   0  0  0  0  0  0  0  0  0  0  0  0
    3.4930   -8.3935    3.2752 C   0  0  0  0  0  0  0  0  0  0  0  0
    2.7746   -9.6137    3.2876 C   0  0  0  0  0  0  0  0  0  0  0  0
    4.7026   -8.3291    2.6344 O   0  0  0  0  0  0  0  0  0  0  0  0
    5.8251   -8.3938    3.5333 C   0  0  0  0  0  0  0  0  0  0  0  0
    1.9010   -4.6323    4.6594 H   0  0  0  0  0  0  0  0  0  0  0  0
    0.3125   -4.3868    5.3631 H   0  0  0  0  0  0  0  0  0  0  0  0
    2.5388   -5.5913    7.0775 H   0  0  0  0  0  0  0  0  0  0  0  0
    1.0774   -4.7195    7.5859 H   0  0  0  0  0  0  0  0  0  0  0  0
    2.7577   -3.0885    6.0101 H   0  0  0  0  0  0  0  0  0  0  0  0
   -1.0310   -6.6949    6.1029 H   0  0  0  0  0  0  0  0  0  0  0  0
    3.4530   -6.3578    3.8711 H   0  0  0  0  0  0  0  0  0  0  0  0
   -0.8658   -9.0414    5.2810 H   0  0  0  0  0  0  0  0  0  0  0  0
    5.1168   -2.0982    8.1275 H   0  0  0  0  0  0  0  0  0  0  0  0
    4.1262   -1.4716    6.7980 H   0  0  0  0  0  0  0  0  0  0  0  0
    3.7268   -1.0430    8.4712 H   0  0  0  0  0  0  0  0  0  0  0  0
    0.9922  -10.5817    3.9254 H   0  0  0  0  0  0  0  0  0  0  0  0
    3.1703  -10.4425    2.8372 H   0  0  0  0  0  0  0  0  0  0  0  0
    6.7402   -8.3193    2.9437 H   0  0  0  0  0  0  0  0  0  0  0  0
    5.8150   -7.5641    4.2461 H   0  0  0  0  0  0  0  0  0  0  0  0
    5.8440   -9.3430    4.0762 H   0  0  0  0  0  0  0  0  0  0  0  0
  1  2  1  0  0  0  0 
  1  3  1  0  0  0  0 
  2  4  1  0  0  0  0 
  3  5  1  0  0  0  0 
  3  6  2  0  0  0  0 
  4  7  1  0  0  0  0 
  5  8  1  0  0  0  0 
  5  9  2  0  0  0  0 
  6 10  1  0  0  0  0 
  7 11  1  0  0  0  0 
  7 12  2  0  0  0  0 
  8 10  1  0  0  0  0 
  8 13  2  0  0  0  0 
  9 14  1  0  0  0  0 
 13 15  1  0  0  0  0 
 14 15  2  0  0  0  0 
 14 16  1  0  0  0  0 
 16 17  1  0  0  0  0 
  1 18  1  0  0  0  0 
  1 19  1  0  0  0  0 
  2 20  1  0  0  0  0 
  2 21  1  0  0  0  0 
  4 22  1  0  0  0  0 
  6 23  1  0  0  0  0 
  9 24  1  0  0  0  0 
 10 25  1  0  0  0  0 
 11 26  1  0  0  0  0 
 11 27  1  0  0  0  0 
 11 28  1  0  0  0  0 
 13 29  1  0  0  0  0 
 15 30  1  0  0  0  0 
 17 31  1  0  0  0  0 
 17 32  1  0  0  0  0 
 17 33  1  0  0  0  0 
M  END
> <cdk:Title>
melatonin

> <Conformer>
1

> <SuperDrugID>
SD001478

$$$$
