docetaxel
  CDK     0628171802

111116  0  0  0  0  0  0  0  0999 V2000
   -4.3491   -0.4004   -4.2933 O   0  0  0  0  0  0  0  0  0  0  0  0
   -4.2789   -1.7595   -4.2192 C   0  0  0  0  0  0  0  0  0  0  0  0
   -4.4194    0.5862   -3.2321 C   0  0  2  0  0  0  0  0  0  0  0  0
   -4.1094   -2.5546   -5.4446 C   0  0  0  0  0  0  0  0  0  0  0  0
   -4.3594   -2.3407   -3.1165 O   0  0  0  0  0  0  0  0  0  0  0  0
   -3.0213    0.7307   -2.4579 C   0  0  1  0  0  0  0  0  0  0  0  0
   -5.7653    0.4423   -2.4648 C   0  0  2  0  0  0  0  0  0  0  0  0
   -5.0504    1.8527   -3.8623 C   0  0  1  0  0  0  0  0  0  0  0  0
   -1.9075    1.3374   -3.4475 C   0  0  2  0  0  0  0  0  0  0  0  0
   -3.1584    1.2750   -0.9410 C   0  0  1  0  0  0  0  0  0  0  0  0
   -6.3465    1.5586   -3.2067 O   0  0  0  0  0  0  0  0  0  0  0  0
   -5.7908    0.7765   -0.9588 C   0  0  2  0  0  0  0  0  0  0  0  0
   -2.2069    0.9899   -4.8248 O   0  0  0  0  0  0  0  0  0  0  0  0
   -0.3389    0.9752   -3.3920 C   0  0  1  0  0  0  0  0  0  0  0  0
   -3.4279    2.8206   -0.8441 C   0  0  0  0  0  0  0  0  0  0  0  0
   -4.4223    0.5595   -0.2826 C   0  0  2  0  0  0  0  0  0  0  0  0
   -1.9659    0.9257   -0.0333 C   0  0  0  0  0  0  0  0  0  0  0  0
   -2.4350    1.8101   -5.9034 C   0  0  0  0  0  0  0  0  0  0  0  0
    0.2342    1.4486   -4.6296 O   0  0  0  0  0  0  0  0  0  0  0  0
    0.5301    1.7077   -2.2890 C   0  0  2  0  0  0  0  0  0  0  0  0
   -0.0536   -0.5824   -3.4110 C   0  0  2  0  0  0  0  0  0  0  0  0
   -4.5966    0.9421    1.0893 O   0  0  0  0  0  0  0  0  0  0  0  0
   -2.0851    0.0022    0.8121 O   0  0  0  0  0  0  0  0  0  0  0  0
   -0.6038    1.5503    0.0541 C   0  0  1  0  0  0  0  0  0  0  0  0
   -2.5482    3.0456   -5.7193 O   0  0  0  0  0  0  0  0  0  0  0  0
   -2.5190    1.2649   -7.2129 C   0  0  0  0  0  0  0  0  0  0  0  0
    0.3367    3.2801   -2.3299 C   0  0  0  0  0  0  0  0  0  0  0  0
    2.0996    1.6303   -2.5538 C   0  0  0  0  0  0  0  0  0  0  0  0
    0.2304    0.9767   -1.0195 C   0  0  0  0  0  0  0  0  0  0  0  0
    0.6445   -1.1852   -2.1392 C   0  0  1  0  0  0  0  0  0  0  0  0
   -0.6902    2.9614    0.2101 O   0  0  0  0  0  0  0  0  0  0  0  0
   -2.2209   -0.1001   -7.4518 C   0  0  0  0  0  0  0  0  0  0  0  0
   -2.8480    2.0765   -8.3281 C   0  0  0  0  0  0  0  0  0  0  0  0
    0.5840   -0.3460   -0.9272 C   0  0  0  0  0  0  0  0  0  0  0  0
    0.1725   -2.5382   -1.9531 O   0  0  0  0  0  0  0  0  0  0  0  0
   -2.2380   -0.6308   -8.7555 C   0  0  0  0  0  0  0  0  0  0  0  0
   -2.8503    1.5516   -9.6335 C   0  0  0  0  0  0  0  0  0  0  0  0
    0.8870   -1.0302    0.3408 C   0  0  0  0  0  0  0  0  0  0  0  0
   -1.0366   -2.9964   -1.5060 C   0  0  0  0  0  0  0  0  0  0  0  0
   -2.5418    0.1981   -9.8484 C   0  0  0  0  0  0  0  0  0  0  0  0
   -1.3060   -4.4514   -1.5619 C   0  0  1  0  0  0  0  0  0  0  0  0
   -1.8792   -2.1948   -1.0473 O   0  0  0  0  0  0  0  0  0  0  0  0
   -2.7904   -4.8699   -1.2797 C   0  0  1  0  0  0  0  0  0  0  0  0
   -0.9285   -4.8702   -2.8737 O   0  0  0  0  0  0  0  0  0  0  0  0
   -3.0311   -6.1994   -1.7734 N   0  0  0  0  0  0  0  0  0  0  0  0
   -3.1463   -4.7258    0.1674 C   0  0  0  0  0  0  0  0  0  0  0  0
   -3.6877   -6.5120   -2.9285 C   0  0  0  0  0  0  0  0  0  0  0  0
   -4.0095   -3.6869    0.6015 C   0  0  0  0  0  0  0  0  0  0  0  0
   -2.5904   -5.5820    1.1491 C   0  0  0  0  0  0  0  0  0  0  0  0
   -3.6537   -7.8150   -3.3413 O   0  0  0  0  0  0  0  0  0  0  0  0
   -4.2651   -5.6388   -3.6183 O   0  0  0  0  0  0  0  0  0  0  0  0
   -4.2527   -3.4676    1.9688 C   0  0  0  0  0  0  0  0  0  0  0  0
   -2.8571   -5.3833    2.5172 C   0  0  0  0  0  0  0  0  0  0  0  0
   -4.2429   -8.4460   -4.5019 C   0  0  1  0  0  0  0  0  0  0  0  0
   -3.6741   -4.3150    2.9284 C   0  0  0  0  0  0  0  0  0  0  0  0
   -5.7961   -8.3746   -4.4032 C   0  0  0  0  0  0  0  0  0  0  0  0
   -3.7388   -7.7931   -5.8280 C   0  0  0  0  0  0  0  0  0  0  0  0
   -3.7717   -9.9296   -4.4499 C   0  0  0  0  0  0  0  0  0  0  0  0
   -3.1374   -3.0541   -5.4205 H   0  0  0  0  0  0  0  0  0  0  0  0
   -4.1555   -1.9117   -6.3259 H   0  0  0  0  0  0  0  0  0  0  0  0
   -4.8965   -3.3076   -5.5275 H   0  0  0  0  0  0  0  0  0  0  0  0
   -2.7172   -0.2999   -2.3257 H   0  0  0  0  0  0  0  0  0  0  0  0
   -6.2238   -0.5676   -2.6197 H   0  0  0  0  0  0  0  0  0  0  0  0
   -4.5253    2.7852   -3.5532 H   0  0  0  0  0  0  0  0  0  0  0  0
   -5.0507    1.8195   -4.9794 H   0  0  0  0  0  0  0  0  0  0  0  0
   -2.0159    2.4126   -3.3782 H   0  0  0  0  0  0  0  0  0  0  0  0
   -6.5273    0.1287   -0.4726 H   0  0  0  0  0  0  0  0  0  0  0  0
   -6.1373    1.7976   -0.7897 H   0  0  0  0  0  0  0  0  0  0  0  0
   -4.3821    3.1152   -1.2700 H   0  0  0  0  0  0  0  0  0  0  0  0
   -3.4290    3.1565    0.1969 H   0  0  0  0  0  0  0  0  0  0  0  0
   -2.6830    3.3972   -1.3694 H   0  0  0  0  0  0  0  0  0  0  0  0
   -4.2544   -0.5227   -0.2907 H   0  0  0  0  0  0  0  0  0  0  0  0
   -0.0209    2.3909   -4.6955 H   0  0  0  0  0  0  0  0  0  0  0  0
    0.5884   -0.8409   -4.2600 H   0  0  0  0  0  0  0  0  0  0  0  0
   -0.9821   -1.1192   -3.6076 H   0  0  0  0  0  0  0  0  0  0  0  0
   -5.3263    0.3806    1.4256 H   0  0  0  0  0  0  0  0  0  0  0  0
   -0.1464    1.3014    1.0160 H   0  0  0  0  0  0  0  0  0  0  0  0
   -0.6718    3.6012   -2.1357 H   0  0  0  0  0  0  0  0  0  0  0  0
    0.5884    3.6921   -3.3101 H   0  0  0  0  0  0  0  0  0  0  0  0
    0.9757    3.7828   -1.5997 H   0  0  0  0  0  0  0  0  0  0  0  0
    2.4682    0.6366   -2.7710 H   0  0  0  0  0  0  0  0  0  0  0  0
    2.4082    2.2320   -3.4137 H   0  0  0  0  0  0  0  0  0  0  0  0
    2.6512    1.9926   -1.6810 H   0  0  0  0  0  0  0  0  0  0  0  0
    1.7017   -1.3444   -2.3615 H   0  0  0  0  0  0  0  0  0  0  0  0
    0.2303    3.2644    0.3656 H   0  0  0  0  0  0  0  0  0  0  0  0
   -1.9762   -0.7252   -6.6810 H   0  0  0  0  0  0  0  0  0  0  0  0
   -3.0811    3.0645   -8.2045 H   0  0  0  0  0  0  0  0  0  0  0  0
   -2.0213   -1.6182   -8.9109 H   0  0  0  0  0  0  0  0  0  0  0  0
   -3.0717    2.1576  -10.4269 H   0  0  0  0  0  0  0  0  0  0  0  0
   -0.0113   -1.4473    0.7903 H   0  0  0  0  0  0  0  0  0  0  0  0
    1.3699   -0.3631    1.0559 H   0  0  0  0  0  0  0  0  0  0  0  0
    1.5931   -1.8507    0.1873 H   0  0  0  0  0  0  0  0  0  0  0  0
   -2.5353   -0.1816  -10.7976 H   0  0  0  0  0  0  0  0  0  0  0  0
   -0.6279   -4.9465   -0.8624 H   0  0  0  0  0  0  0  0  0  0  0  0
   -3.4150   -4.1871   -1.8510 H   0  0  0  0  0  0  0  0  0  0  0  0
   -0.9247   -5.8501   -2.8304 H   0  0  0  0  0  0  0  0  0  0  0  0
   -2.6495   -6.9361   -1.2722 H   0  0  0  0  0  0  0  0  0  0  0  0
   -4.4538   -3.0618   -0.0744 H   0  0  0  0  0  0  0  0  0  0  0  0
   -1.9774   -6.3523    0.8753 H   0  0  0  0  0  0  0  0  0  0  0  0
   -4.8441   -2.6864    2.2654 H   0  0  0  0  0  0  0  0  0  0  0  0
   -2.4499   -6.0103    3.2146 H   0  0  0  0  0  0  0  0  0  0  0  0
   -3.8493   -4.1562    3.9244 H   0  0  0  0  0  0  0  0  0  0  0  0
   -6.1425   -7.3407   -4.4447 H   0  0  0  0  0  0  0  0  0  0  0  0
   -6.2601   -8.9249   -5.2236 H   0  0  0  0  0  0  0  0  0  0  0  0
   -6.1345   -8.8069   -3.4591 H   0  0  0  0  0  0  0  0  0  0  0  0
   -4.1224   -6.7797   -5.9450 H   0  0  0  0  0  0  0  0  0  0  0  0
   -4.0674   -8.3702   -6.6946 H   0  0  0  0  0  0  0  0  0  0  0  0
   -2.6489   -7.7450   -5.8413 H   0  0  0  0  0  0  0  0  0  0  0  0
   -4.1482  -10.4223   -3.5491 H   0  0  0  0  0  0  0  0  0  0  0  0
   -2.6789   -9.9828   -4.4346 H   0  0  0  0  0  0  0  0  0  0  0  0
   -4.1319  -10.4840   -5.3213 H   0  0  0  0  0  0  0  0  0  0  0  0
  1  2  1  0  0  0  0 
  2  4  1  0  0  0  0 
  2  5  2  0  0  0  0 
  3  1  1  0  0  0  0 
  6  3  1  0  0  0  0 
  3  7  1  0  0  0  0 
  3  8  1  0  0  0  0 
  6  9  1  0  0  0  0 
  6 10  1  0  0  0  0 
  7 11  1  0  0  0  0 
  7 12  1  0  0  0  0 
  8 11  1  0  0  0  0 
  9 13  1  0  0  0  0 
  9 14  1  0  0  0  0 
 10 15  1  0  0  0  0 
 10 16  1  0  0  0  0 
 10 17  1  0  0  0  0 
 16 12  1  0  0  0  0 
 13 18  1  0  0  0  0 
 14 19  1  0  0  0  0 
 14 20  1  0  0  0  0 
 14 21  1  0  0  0  0 
 16 22  1  0  0  0  0 
 17 23  2  0  0  0  0 
 24 17  1  0  0  0  0 
 18 25  2  0  0  0  0 
 18 26  1  0  0  0  0 
 20 27  1  0  0  0  0 
 20 28  1  0  0  0  0 
 20 29  1  0  0  0  0 
 30 21  1  0  0  0  0 
 24 29  1  0  0  0  0 
 24 31  1  0  0  0  0 
 26 32  2  0  0  0  0 
 26 33  1  0  0  0  0 
 29 34  2  0  0  0  0 
 30 34  1  0  0  0  0 
 30 35  1  0  0  0  0 
 32 36  1  0  0  0  0 
 33 37  2  0  0  0  0 
 34 38  1  0  0  0  0 
 35 39  1  0  0  0  0 
 36 40  2  0  0  0  0 
 37 40  1  0  0  0  0 
 41 39  1  0  0  0  0 
 39 42  2  0  0  0  0 
 41 43  1  0  0  0  0 
 41 44  1  0  0  0  0 
 43 45  1  0  0  0  0 
 43 46  1  0  0  0  0 
 45 47  1  0  0  0  0 
 46 48  2  0  0  0  0 
 46 49  1  0  0  0  0 
 47 50  1  0  0  0  0 
 47 51  2  0  0  0  0 
 48 52  1  0  0  0  0 
 49 53  2  0  0  0  0 
 50 54  1  0  0  0  0 
 52 55  2  0  0  0  0 
 53 55  1  0  0  0  0 
 54 56  1  0  0  0  0 
 54 57  1  0  0  0  0 
 54 58  1  0  0  0  0 
 59  4  1  0  0  0  0 
 60  4  1  0  0  0  0 
 61  4  1  0  0  0  0 
  6 62  1  0  0  0  0 
  7 63  1  0  0  0  0 
 64  8  1  0  0  0  0 
 65  8  1  0  0  0  0 
  9 66  1  0  0  0  0 
 67 12  1  0  0  0  0 
 68 12  1  0  0  0  0 
 69 15  1  0  0  0  0 
 70 15  1  0  0  0  0 
 71 15  1  0  0  0  0 
 16 72  1  0  0  0  0 
 73 19  1  0  0  0  0 
 74 21  1  0  0  0  0 
 75 21  1  0  0  0  0 
 76 22  1  0  0  0  0 
 24 77  1  0  0  0  0 
 78 27  1  0  0  0  0 
 79 27  1  0  0  0  0 
 80 27  1  0  0  0  0 
 81 28  1  0  0  0  0 
 82 28  1  0  0  0  0 
 83 28  1  0  0  0  0 
 30 84  1  0  0  0  0 
 85 31  1  0  0  0  0 
 86 32  1  0  0  0  0 
 87 33  1  0  0  0  0 
 88 36  1  0  0  0  0 
 89 37  1  0  0  0  0 
 90 38  1  0  0  0  0 
 91 38  1  0  0  0  0 
 92 38  1  0  0  0  0 
 93 40  1  0  0  0  0 
 41 94  1  0  0  0  0 
 43 95  1  0  0  0  0 
 96 44  1  0  0  0  0 
 97 45  1  0  0  0  0 
 98 48  1  0  0  0  0 
 99 49  1  0  0  0  0 
100 52  1  0  0  0  0 
101 53  1  0  0  0  0 
102 55  1  0  0  0  0 
103 56  1  0  0  0  0 
104 56  1  0  0  0  0 
105 56  1  0  0  0  0 
106 57  1  0  0  0  0 
107 57  1  0  0  0  0 
108 57  1  0  0  0  0 
109 58  1  0  0  0  0 
110 58  1  0  0  0  0 
111 58  1  0  0  0  0 
M  END
> <cdk:Title>
docetaxel

> <Conformer>
1

> <SuperDrugID>
SD000834

$$$$
