pinazepam
  CDK     0628171801

 35 37  0  0  0  0  0  0  0  0999 V2000
    3.0458   -0.4852   -0.6021 C   0  0  1  0  0  0  0  0  0  0  0  0
    3.3838   -1.3589    0.5175 N   0  0  0  0  0  0  0  0  0  0  0  0
    4.4357   -1.0130    1.3800 C   0  0  0  0  0  0  0  0  0  0  0  0
    2.6536   -2.5311    0.6957 C   0  0  0  0  0  0  0  0  0  0  0  0
    5.4384   -1.9383    1.8267 C   0  0  0  0  0  0  0  0  0  0  0  0
    4.5080    0.3268    1.8495 C   0  0  0  0  0  0  0  0  0  0  0  0
    1.6812   -2.8126   -0.0489 O   0  0  0  0  0  0  0  0  0  0  0  0
    3.0011   -3.5327    1.7275 C   0  0  2  0  0  0  0  0  0  0  0  0
    5.4099   -3.3120    1.4979 C   0  0  0  0  0  0  0  0  0  0  0  0
    6.4791   -1.4677    2.6735 C   0  0  0  0  0  0  0  0  0  0  0  0
    5.5450    0.7706    2.6857 C   0  0  0  0  0  0  0  0  0  0  0  0
    4.2976   -3.9698    1.4826 N   0  0  0  0  0  0  0  0  0  0  0  0
    6.5626   -4.0485    1.1645 C   0  0  0  0  0  0  0  0  0  0  0  0
    6.5397   -0.1278    3.0948 C   0  0  0  0  0  0  0  0  0  0  0  0
    6.7180   -5.3987    1.5785 C   0  0  0  0  0  0  0  0  0  0  0  0
    7.5957   -3.4788    0.3743 C   0  0  0  0  0  0  0  0  0  0  0  0
    7.7975    0.4022    4.0961 Cl  0  0  0  0  0  0  0  0  0  0  0  0
    7.8388   -6.1570    1.1923 C   0  0  0  0  0  0  0  0  0  0  0  0
    8.7345   -4.2269    0.0185 C   0  0  0  0  0  0  0  0  0  0  0  0
    8.8517   -5.5685    0.4173 C   0  0  0  0  0  0  0  0  0  0  0  0
    1.9211    0.2625   -0.3533 C   0  0  0  0  0  0  0  0  0  0  0  0
    0.9484    0.9171   -0.1218 C   0  0  0  0  0  0  0  0  0  0  0  0
    3.8593    0.2065   -0.8317 H   0  0  0  0  0  0  0  0  0  0  0  0
    2.8850   -1.0691   -1.5130 H   0  0  0  0  0  0  0  0  0  0  0  0
    3.7934    1.0067    1.5845 H   0  0  0  0  0  0  0  0  0  0  0  0
    2.3393   -4.3997    1.6712 H   0  0  0  0  0  0  0  0  0  0  0  0
    2.9118   -3.1050    2.7290 H   0  0  0  0  0  0  0  0  0  0  0  0
    7.2048   -2.1080    3.0081 H   0  0  0  0  0  0  0  0  0  0  0  0
    5.5713    1.7478    2.9912 H   0  0  0  0  0  0  0  0  0  0  0  0
    6.0087   -5.8474    2.1649 H   0  0  0  0  0  0  0  0  0  0  0  0
    7.5221   -2.5156    0.0343 H   0  0  0  0  0  0  0  0  0  0  0  0
    7.9169   -7.1380    1.4744 H   0  0  0  0  0  0  0  0  0  0  0  0
    9.4753   -3.7992   -0.5411 H   0  0  0  0  0  0  0  0  0  0  0  0
    9.6697   -6.1167    0.1395 H   0  0  0  0  0  0  0  0  0  0  0  0
    0.1966    1.4227    0.0609 H   0  0  0  0  0  0  0  0  0  0  0  0
  1  2  1  0  0  0  0 
  2  3  1  0  0  0  0 
  2  4  1  0  0  0  0 
  3  5  2  0  0  0  0 
  3  6  1  0  0  0  0 
  4  7  2  0  0  0  0 
  4  8  1  0  0  0  0 
  5  9  1  0  0  0  0 
  5 10  1  0  0  0  0 
  6 11  2  0  0  0  0 
  8 12  1  0  0  0  0 
  9 12  2  0  0  0  0 
  9 13  1  0  0  0  0 
 10 14  2  0  0  0  0 
 11 14  1  0  0  0  0 
 13 15  2  0  0  0  0 
 13 16  1  0  0  0  0 
 14 17  1  0  0  0  0 
 15 18  1  0  0  0  0 
 16 19  2  0  0  0  0 
 18 20  2  0  0  0  0 
 19 20  1  0  0  0  0 
  1 21  1  0  0  0  0 
 21 22  3  0  0  0  0 
  1 23  1  0  0  0  0 
  1 24  1  0  0  0  0 
  6 25  1  0  0  0  0 
  8 26  1  0  0  0  0 
  8 27  1  0  0  0  0 
 10 28  1  0  0  0  0 
 11 29  1  0  0  0  0 
 15 30  1  0  0  0  0 
 16 31  1  0  0  0  0 
 18 32  1  0  0  0  0 
 19 33  1  0  0  0  0 
 20 34  1  0  0  0  0 
 22 35  1  0  0  0  0 
M  END
> <cdk:Title>
pinazepam

> <Conformer>
1

> <SuperDrugID>
SD001952

$$$$
