butibufen
  CDK     0628171801

 36 36  0  0  0  0  0  0  0  0999 V2000
   -1.9571    0.8773   -4.2091 C   0  0  1  0  0  0  0  0  0  0  0  0
   -3.1204    0.3765   -3.4370 C   0  0  0  0  0  0  0  0  0  0  0  0
   -2.0366    2.4206   -4.4353 C   0  0  2  0  0  0  0  0  0  0  0  0
   -0.6873    0.4041   -3.5692 C   0  0  0  0  0  0  0  0  0  0  0  0
   -3.9653   -0.5266   -3.9823 O   0  0  0  0  0  0  0  0  0  0  0  0
   -3.3501    0.7464   -2.2630 O   0  0  0  0  0  0  0  0  0  0  0  0
   -0.8554    3.0098   -5.2431 C   0  0  0  0  0  0  0  0  0  0  0  0
    0.1036   -0.5913   -4.1917 C   0  0  0  0  0  0  0  0  0  0  0  0
   -0.2387    0.9377   -2.3372 C   0  0  0  0  0  0  0  0  0  0  0  0
    1.3146   -1.0158   -3.6204 C   0  0  0  0  0  0  0  0  0  0  0  0
    0.9767    0.5205   -1.7684 C   0  0  0  0  0  0  0  0  0  0  0  0
    1.7767   -0.4498   -2.4120 C   0  0  0  0  0  0  0  0  0  0  0  0
    3.0952   -0.8522   -1.8552 C   0  0  1  0  0  0  0  0  0  0  0  0
    4.3070   -0.3419   -2.7027 C   0  0  1  0  0  0  0  0  0  0  0  0
    4.3642    1.2107   -2.7905 C   0  0  0  0  0  0  0  0  0  0  0  0
    5.6441   -0.9001   -2.1439 C   0  0  0  0  0  0  0  0  0  0  0  0
   -2.0340    0.4366   -5.2092 H   0  0  0  0  0  0  0  0  0  0  0  0
   -2.0940    2.9455   -3.4786 H   0  0  0  0  0  0  0  0  0  0  0  0
   -2.9562    2.6450   -4.9833 H   0  0  0  0  0  0  0  0  0  0  0  0
   -4.7118   -0.8791   -3.4544 H   0  0  0  0  0  0  0  0  0  0  0  0
    0.0824    2.8846   -4.6978 H   0  0  0  0  0  0  0  0  0  0  0  0
   -0.7716    2.5182   -6.2146 H   0  0  0  0  0  0  0  0  0  0  0  0
   -1.0180    4.0782   -5.4045 H   0  0  0  0  0  0  0  0  0  0  0  0
   -0.1919   -1.0156   -5.0741 H   0  0  0  0  0  0  0  0  0  0  0  0
   -0.7888    1.6483   -1.8493 H   0  0  0  0  0  0  0  0  0  0  0  0
    1.8627   -1.7363   -4.0968 H   0  0  0  0  0  0  0  0  0  0  0  0
    1.2786    0.9450   -0.8884 H   0  0  0  0  0  0  0  0  0  0  0  0
    3.2036   -0.4879   -0.8296 H   0  0  0  0  0  0  0  0  0  0  0  0
    3.1159   -1.9443   -1.8022 H   0  0  0  0  0  0  0  0  0  0  0  0
    4.2080   -0.7250   -3.7238 H   0  0  0  0  0  0  0  0  0  0  0  0
    3.4708    1.6034   -3.2800 H   0  0  0  0  0  0  0  0  0  0  0  0
    4.4374    1.6490   -1.7928 H   0  0  0  0  0  0  0  0  0  0  0  0
    5.2302    1.5289   -3.3755 H   0  0  0  0  0  0  0  0  0  0  0  0
    5.8184   -0.5385   -1.1282 H   0  0  0  0  0  0  0  0  0  0  0  0
    5.6247   -1.9918   -2.1285 H   0  0  0  0  0  0  0  0  0  0  0  0
    6.4798   -0.5871   -2.7739 H   0  0  0  0  0  0  0  0  0  0  0  0
  1  2  1  0  0  0  0 
  1  3  1  0  0  0  0 
  1  4  1  0  0  0  0 
  2  5  1  0  0  0  0 
  2  6  2  0  0  0  0 
  3  7  1  0  0  0  0 
  4  8  2  0  0  0  0 
  4  9  1  0  0  0  0 
  8 10  1  0  0  0  0 
  9 11  2  0  0  0  0 
 10 12  2  0  0  0  0 
 11 12  1  0  0  0  0 
 12 13  1  0  0  0  0 
 13 14  1  0  0  0  0 
 14 15  1  0  0  0  0 
 14 16  1  0  0  0  0 
  1 17  1  0  0  0  0 
  3 18  1  0  0  0  0 
  3 19  1  0  0  0  0 
  5 20  1  0  0  0  0 
  7 21  1  0  0  0  0 
  7 22  1  0  0  0  0 
  7 23  1  0  0  0  0 
  8 24  1  0  0  0  0 
  9 25  1  0  0  0  0 
 10 26  1  0  0  0  0 
 11 27  1  0  0  0  0 
 13 28  1  0  0  0  0 
 13 29  1  0  0  0  0 
 14 30  1  0  0  0  0 
 15 31  1  0  0  0  0 
 15 32  1  0  0  0  0 
 15 33  1  0  0  0  0 
 16 34  1  0  0  0  0 
 16 35  1  0  0  0  0 
 16 36  1  0  0  0  0 
M  END
> <cdk:Title>
butibufen

> <Conformer>
1

> <SuperDrugID>
SD000389

$$$$
