flurithromycin
  CDK     0628171801

118120  0  0  0  0  0  0  0  0999 V2000
   -2.5713    3.1039    4.8184 O   0  0  0  0  0  0  0  0  0  0  0  0
   -2.8916    1.7349    4.4387 C   0  0  1  0  0  0  0  0  0  0  0  0
   -2.3302    3.4862    6.1927 C   0  0  1  0  0  0  0  0  0  0  0  0
   -1.7430    0.6725    4.7121 C   0  0  2  0  0  0  0  0  0  0  0  0
   -4.3761    1.3528    4.8170 C   0  0  1  0  0  0  0  0  0  0  0  0
   -2.1595    5.0309    6.2286 C   0  0  2  0  0  0  0  0  0  0  0  0
   -3.3970    3.0965    7.0842 O   0  0  0  0  0  0  0  0  0  0  0  0
   -1.8093    0.0585    6.1461 C   0  0  0  0  0  0  0  0  0  0  0  0
   -0.2776    1.1596    4.3226 C   0  0  1  0  0  0  0  0  0  0  0  0
   -5.3610    2.5144    4.4708 C   0  0  0  0  0  0  0  0  0  0  0  0
   -4.9204    0.1169    4.1903 C   0  0  0  0  0  0  0  0  0  0  0  0
   -1.8595    5.5624    7.6747 C   0  0  2  0  0  0  0  0  0  0  0  0
   -3.2427    3.4517    8.4762 C   0  0  2  0  0  0  0  0  0  0  0  0
    0.7299    0.2360    4.8359 O   0  0  0  0  0  0  0  0  0  0  0  0
    0.0472    1.4173    2.7901 C   0  0  2  0  0  0  0  0  0  0  0  0
   -6.0111   -0.3222    4.6242 O   0  0  0  0  0  0  0  0  0  0  0  0
   -4.3005   -0.4980    3.1351 O   0  0  0  0  0  0  0  0  0  0  0  0
   -1.9838    7.0100    7.5474 O   0  0  0  0  0  0  0  0  0  0  0  0
   -0.3830    5.2358    8.0969 C   0  0  0  0  0  0  0  0  0  0  0  0
   -2.9330    4.9725    8.6652 C   0  0  2  0  0  0  0  0  0  0  0  0
   -2.2998    2.4843    9.2386 C   0  0  0  0  0  0  0  0  0  0  0  0
    1.4927    0.6468    6.0025 C   0  0  1  0  0  0  0  0  0  0  0  0
    1.4620    2.0757    2.6649 C   0  0  0  0  0  0  0  0  0  0  0  0
   -0.8601    2.4018    2.2877 O   0  0  0  0  0  0  0  0  0  0  0  0
   -0.0552    0.1227    1.8914 C   0  0  2  0  0  0  0  0  0  0  0  0
   -4.8323   -1.4754    2.2114 C   0  0  2  0  0  0  0  0  0  0  0  0
   -1.8347    7.8515    8.7138 C   0  0  0  0  0  0  0  0  0  0  0  0
   -4.1660    5.6862    8.5213 O   0  0  0  0  0  0  0  0  0  0  0  0
    2.2059   -0.5916    6.6438 C   0  0  2  0  0  0  0  0  0  0  0  0
    2.4268    1.6772    5.5972 O   0  0  0  0  0  0  0  0  0  0  0  0
    0.1136    0.2486    0.3180 C   0  0  2  0  0  0  0  0  0  0  0  0
   -5.1968   -2.8143    2.9499 C   0  0  1  0  0  0  0  0  0  0  0  0
   -3.8701   -1.5631    0.9478 C   0  0  1  0  0  0  0  0  0  0  0  0
    1.9829   -0.6152    8.0588 O   0  0  0  0  0  0  0  0  0  0  0  0
    3.7481   -0.5661    6.3573 C   0  0  1  0  0  0  0  0  0  0  0  0
    3.4179    2.0228    6.5907 C   0  0  1  0  0  0  0  0  0  0  0  0
    1.5555   -0.2413   -0.0597 C   0  0  0  0  0  0  0  0  0  0  0  0
    0.0951    1.5631   -0.0867 F   0  0  0  0  0  0  0  0  0  0  0  0
   -0.9469   -0.4456   -0.5256 C   0  0  0  0  0  0  0  0  0  0  0  0
   -5.9922   -3.8411    2.1081 C   0  0  0  0  0  0  0  0  0  0  0  0
   -2.7307   -2.6030    1.1873 C   0  0  0  0  0  0  0  0  0  0  0  0
   -4.6383   -2.0403   -0.1662 O   0  0  0  0  0  0  0  0  0  0  0  0
   -3.3651   -0.1269    0.4887 C   0  0  1  0  0  0  0  0  0  0  0  0
    4.0624   -0.7661    4.8821 N   0  0  2  0  0  0  0  0  0  0  0  0
    4.2792    0.7739    6.9871 C   0  0  1  0  0  0  0  0  0  0  0  0
    4.2592    3.2092    6.0600 C   0  0  0  0  0  0  0  0  0  0  0  0
   -0.5806   -1.4302   -1.2188 O   0  0  0  0  0  0  0  0  0  0  0  0
   -2.3905   -0.0355   -0.7521 C   0  0  1  0  0  0  0  0  0  0  0  0
   -4.5470    0.6471    0.2406 O   0  0  0  0  0  0  0  0  0  0  0  0
    3.6465   -2.1048    4.3442 C   0  0  0  0  0  0  0  0  0  0  0  0
    5.4715   -0.4607    4.4733 C   0  0  0  0  0  0  0  0  0  0  0  0
   -2.4551    1.3362   -1.4959 C   0  0  0  0  0  0  0  0  0  0  0  0
   -1.3975    3.0219    6.4941 H   0  0  0  0  0  0  0  0  0  0  0  0
    0.8193    1.0831    6.7452 H   0  0  0  0  0  0  0  0  0  0  0  0
   -2.9382    1.8116    3.3523 H   0  0  0  0  0  0  0  0  0  0  0  0
   -1.9566   -0.1872    4.0802 H   0  0  0  0  0  0  0  0  0  0  0  0
   -4.4256    1.1975    5.8933 H   0  0  0  0  0  0  0  0  0  0  0  0
   -3.1694    5.4568    5.9176 H   0  0  0  0  0  0  0  0  0  0  0  0
   -1.2724    5.2904    5.5650 H   0  0  0  0  0  0  0  0  0  0  0  0
   -2.7944   -0.3524    6.3607 H   0  0  0  0  0  0  0  0  0  0  0  0
   -1.5708    0.7909    6.9101 H   0  0  0  0  0  0  0  0  0  0  0  0
   -1.1089   -0.7723    6.2454 H   0  0  0  0  0  0  0  0  0  0  0  0
   -0.1494    2.1299    4.8028 H   0  0  0  0  0  0  0  0  0  0  0  0
   -6.3915    2.2510    4.7182 H   0  0  0  0  0  0  0  0  0  0  0  0
   -5.1179    3.4114    5.0386 H   0  0  0  0  0  0  0  0  0  0  0  0
   -5.3110    2.7536    3.4061 H   0  0  0  0  0  0  0  0  0  0  0  0
   -4.2274    3.2703    8.9176 H   0  0  0  0  0  0  0  0  0  0  0  0
   -0.0888    4.2166    7.8659 H   0  0  0  0  0  0  0  0  0  0  0  0
    0.3111    5.8960    7.5723 H   0  0  0  0  0  0  0  0  0  0  0  0
   -0.2408    5.3798    9.1691 H   0  0  0  0  0  0  0  0  0  0  0  0
   -2.6171    5.1486    9.6969 H   0  0  0  0  0  0  0  0  0  0  0  0
   -1.2868    2.5141    8.8473 H   0  0  0  0  0  0  0  0  0  0  0  0
   -2.2693    2.7406   10.2994 H   0  0  0  0  0  0  0  0  0  0  0  0
   -2.6709    1.4617    9.1466 H   0  0  0  0  0  0  0  0  0  0  0  0
    1.5392    2.9482    3.3150 H   0  0  0  0  0  0  0  0  0  0  0  0
    1.6618    2.4242    1.6540 H   0  0  0  0  0  0  0  0  0  0  0  0
    2.2467    1.3700    2.9382 H   0  0  0  0  0  0  0  0  0  0  0  0
   -0.7054    3.2015    2.8330 H   0  0  0  0  0  0  0  0  0  0  0  0
   -1.0012   -0.3502    2.0874 H   0  0  0  0  0  0  0  0  0  0  0  0
    0.6675   -0.5982    2.2832 H   0  0  0  0  0  0  0  0  0  0  0  0
   -5.7806   -1.0523    1.8592 H   0  0  0  0  0  0  0  0  0  0  0  0
   -1.8537    8.8915    8.3867 H   0  0  0  0  0  0  0  0  0  0  0  0
   -0.8867    7.6846    9.2258 H   0  0  0  0  0  0  0  0  0  0  0  0
   -2.6551    7.7061    9.4175 H   0  0  0  0  0  0  0  0  0  0  0  0
   -4.4797    5.4916    7.6144 H   0  0  0  0  0  0  0  0  0  0  0  0
    1.7537   -1.5183    6.2908 H   0  0  0  0  0  0  0  0  0  0  0  0
   -4.2986   -3.2887    3.3515 H   0  0  0  0  0  0  0  0  0  0  0  0
   -5.8306   -2.5945    3.8082 H   0  0  0  0  0  0  0  0  0  0  0  0
    1.0120   -0.6961    8.1691 H   0  0  0  0  0  0  0  0  0  0  0  0
    4.2152   -1.3864    6.9127 H   0  0  0  0  0  0  0  0  0  0  0  0
    2.8904    2.3918    7.4795 H   0  0  0  0  0  0  0  0  0  0  0  0
    1.7626   -0.0785   -1.1199 H   0  0  0  0  0  0  0  0  0  0  0  0
    2.3220    0.2833    0.5148 H   0  0  0  0  0  0  0  0  0  0  0  0
    1.6599   -1.3094    0.1488 H   0  0  0  0  0  0  0  0  0  0  0  0
   -6.3724   -4.6351    2.7526 H   0  0  0  0  0  0  0  0  0  0  0  0
   -5.3683   -4.3114    1.3498 H   0  0  0  0  0  0  0  0  0  0  0  0
   -6.8399   -3.3575    1.6188 H   0  0  0  0  0  0  0  0  0  0  0  0
   -2.0587   -2.6761    0.3441 H   0  0  0  0  0  0  0  0  0  0  0  0
   -2.1617   -2.3608    2.0802 H   0  0  0  0  0  0  0  0  0  0  0  0
   -3.1301   -3.6050    1.3191 H   0  0  0  0  0  0  0  0  0  0  0  0
   -4.9730   -2.9226    0.0787 H   0  0  0  0  0  0  0  0  0  0  0  0
   -2.8865    0.3843    1.3151 H   0  0  0  0  0  0  0  0  0  0  0  0
    4.2489    0.6801    8.0769 H   0  0  0  0  0  0  0  0  0  0  0  0
    5.3335    0.9244    6.7591 H   0  0  0  0  0  0  0  0  0  0  0  0
    4.7838    2.9301    5.1459 H   0  0  0  0  0  0  0  0  0  0  0  0
    3.6113    4.0608    5.8421 H   0  0  0  0  0  0  0  0  0  0  0  0
    4.9920    3.5175    6.8090 H   0  0  0  0  0  0  0  0  0  0  0  0
   -2.8126   -0.7326   -1.4862 H   0  0  0  0  0  0  0  0  0  0  0  0
   -4.2470    1.5790    0.1918 H   0  0  0  0  0  0  0  0  0  0  0  0
    2.5641   -2.2138    4.3530 H   0  0  0  0  0  0  0  0  0  0  0  0
    3.9410   -2.2323    3.3005 H   0  0  0  0  0  0  0  0  0  0  0  0
    4.0896   -2.9163    4.9267 H   0  0  0  0  0  0  0  0  0  0  0  0
    5.6687    0.6080    4.5542 H   0  0  0  0  0  0  0  0  0  0  0  0
    5.6586   -0.7131    3.4265 H   0  0  0  0  0  0  0  0  0  0  0  0
    6.1859   -1.0081    5.0942 H   0  0  0  0  0  0  0  0  0  0  0  0
   -2.3165    2.1650   -0.8003 H   0  0  0  0  0  0  0  0  0  0  0  0
   -1.6917    1.3995   -2.2775 H   0  0  0  0  0  0  0  0  0  0  0  0
   -3.4265    1.4642   -1.9821 H   0  0  0  0  0  0  0  0  0  0  0  0
  3  1  1  0  0  0  0 
  2  1  1  0  0  0  0 
  4  2  1  0  0  0  0 
  2  5  1  0  0  0  0 
  3  6  1  0  0  0  0 
  3  7  1  0  0  0  0 
  3 53  1  0  0  0  0 
  4  8  1  0  0  0  0 
  9  4  1  0  0  0  0 
  5 10  1  0  0  0  0 
  5 11  1  0  0  0  0 
 12  6  1  0  0  0  0 
 13  7  1  0  0  0  0 
  9 14  1  0  0  0  0 
 15  9  1  0  0  0  0 
 11 16  2  0  0  0  0 
 11 17  1  0  0  0  0 
 12 18  1  0  0  0  0 
 12 19  1  0  0  0  0 
 20 12  1  0  0  0  0 
 20 13  1  0  0  0  0 
 13 21  1  0  0  0  0 
 22 14  1  0  0  0  0 
 15 23  1  0  0  0  0 
 15 24  1  0  0  0  0 
 15 25  1  0  0  0  0 
 26 17  1  0  0  0  0 
 18 27  1  0  0  0  0 
 20 28  1  0  0  0  0 
 29 22  1  0  0  0  0 
 22 30  1  0  0  0  0 
 22 54  1  0  0  0  0 
 31 25  1  0  0  0  0 
 26 32  1  0  0  0  0 
 26 33  1  0  0  0  0 
 29 34  1  0  0  0  0 
 29 35  1  0  0  0  0 
 36 30  1  0  0  0  0 
 31 37  1  0  0  0  0 
 31 38  1  0  0  0  0 
 31 39  1  0  0  0  0 
 32 40  1  0  0  0  0 
 33 41  1  0  0  0  0 
 33 42  1  0  0  0  0 
 33 43  1  0  0  0  0 
 35 44  1  0  0  0  0 
 35 45  1  0  0  0  0 
 36 45  1  0  0  0  0 
 36 46  1  0  0  0  0 
 39 47  2  0  0  0  0 
 48 39  1  0  0  0  0 
 43 48  1  0  0  0  0 
 43 49  1  0  0  0  0 
 44 50  1  0  0  0  0 
 44 51  1  0  0  0  0 
 48 52  1  0  0  0  0 
  2 55  1  0  0  0  0 
  4 56  1  0  0  0  0 
  5 57  1  0  0  0  0 
  6 58  1  0  0  0  0 
  6 59  1  0  0  0  0 
  8 60  1  0  0  0  0 
  8 61  1  0  0  0  0 
  8 62  1  0  0  0  0 
  9 63  1  0  0  0  0 
 10 64  1  0  0  0  0 
 10 65  1  0  0  0  0 
 10 66  1  0  0  0  0 
 13 67  1  0  0  0  0 
 19 68  1  0  0  0  0 
 19 69  1  0  0  0  0 
 19 70  1  0  0  0  0 
 20 71  1  0  0  0  0 
 21 72  1  0  0  0  0 
 21 73  1  0  0  0  0 
 21 74  1  0  0  0  0 
 23 75  1  0  0  0  0 
 23 76  1  0  0  0  0 
 23 77  1  0  0  0  0 
 24 78  1  0  0  0  0 
 25 79  1  0  0  0  0 
 25 80  1  0  0  0  0 
 26 81  1  0  0  0  0 
 27 82  1  0  0  0  0 
 27 83  1  0  0  0  0 
 27 84  1  0  0  0  0 
 28 85  1  0  0  0  0 
 29 86  1  0  0  0  0 
 32 87  1  0  0  0  0 
 32 88  1  0  0  0  0 
 34 89  1  0  0  0  0 
 35 90  1  0  0  0  0 
 36 91  1  0  0  0  0 
 37 92  1  0  0  0  0 
 37 93  1  0  0  0  0 
 37 94  1  0  0  0  0 
 40 95  1  0  0  0  0 
 40 96  1  0  0  0  0 
 40 97  1  0  0  0  0 
 41 98  1  0  0  0  0 
 41 99  1  0  0  0  0 
 41100  1  0  0  0  0 
 42101  1  0  0  0  0 
 43102  1  0  0  0  0 
 45103  1  0  0  0  0 
 45104  1  0  0  0  0 
 46105  1  0  0  0  0 
 46106  1  0  0  0  0 
 46107  1  0  0  0  0 
 48108  1  0  0  0  0 
 49109  1  0  0  0  0 
 50110  1  0  0  0  0 
 50111  1  0  0  0  0 
 50112  1  0  0  0  0 
 51113  1  0  0  0  0 
 51114  1  0  0  0  0 
 51115  1  0  0  0  0 
 52116  1  0  0  0  0 
 52117  1  0  0  0  0 
 52118  1  0  0  0  0 
M  END
> <cdk:Title>
flurithromycin

> <Conformer>
1

> <SuperDrugID>
SD001094

$$$$
