epervudine
  CDK     0628171801

 37 38  0  0  0  0  0  0  0  0999 V2000
    4.3722   -4.7304    0.7290 O   0  0  0  0  0  0  0  0  0  0  0  0
    5.3634   -4.0293    0.4164 C   0  0  0  0  0  0  0  0  0  0  0  0
    5.3121   -2.6597    0.3335 N   0  0  0  0  0  0  0  0  0  0  0  0
    6.5124   -4.6979    0.1595 N   0  0  0  0  0  0  0  0  0  0  0  0
    4.0640   -1.9449    0.5693 C   0  0  2  0  0  0  0  0  0  0  0  0
    6.4697   -1.9857    0.0327 C   0  0  0  0  0  0  0  0  0  0  0  0
    7.6555   -4.0538   -0.1709 C   0  0  0  0  0  0  0  0  0  0  0  0
    4.0131   -0.6654   -0.0944 O   0  0  0  0  0  0  0  0  0  0  0  0
    3.7979   -1.6884    2.0724 C   0  0  1  0  0  0  0  0  0  0  0  0
    7.6927   -2.6425   -0.2350 C   0  0  0  0  0  0  0  0  0  0  0  0
    8.6575   -4.7657   -0.4072 O   0  0  0  0  0  0  0  0  0  0  0  0
    3.7370    0.3594    0.8708 C   0  0  1  0  0  0  0  0  0  0  0  0
    4.1729   -0.2128    2.2352 C   0  0  1  0  0  0  0  0  0  0  0  0
    8.9412   -1.8744   -0.5603 C   0  0  2  0  0  0  0  0  0  0  0  0
    4.4286    1.6836    0.4674 C   0  0  2  0  0  0  0  0  0  0  0  0
    3.5151    0.4028    3.3378 O   0  0  0  0  0  0  0  0  0  0  0  0
    9.4082   -0.9900    0.6297 C   0  0  0  0  0  0  0  0  0  0  0  0
    8.7987   -1.0462   -1.8677 C   0  0  0  0  0  0  0  0  0  0  0  0
    5.8477    1.5883    0.5439 O   0  0  0  0  0  0  0  0  0  0  0  0
    6.5167   -5.6672    0.2115 H   0  0  0  0  0  0  0  0  0  0  0  0
    3.2297   -2.5149    0.1460 H   0  0  0  0  0  0  0  0  0  0  0  0
    6.4650   -0.9673   -0.0021 H   0  0  0  0  0  0  0  0  0  0  0  0
    2.7366   -1.8393    2.3004 H   0  0  0  0  0  0  0  0  0  0  0  0
    4.3940   -2.3305    2.7244 H   0  0  0  0  0  0  0  0  0  0  0  0
    2.6528    0.5233    0.8797 H   0  0  0  0  0  0  0  0  0  0  0  0
    5.2539   -0.1293    2.3776 H   0  0  0  0  0  0  0  0  0  0  0  0
    9.7612   -2.5750   -0.7442 H   0  0  0  0  0  0  0  0  0  0  0  0
    4.0889    2.4904    1.1193 H   0  0  0  0  0  0  0  0  0  0  0  0
    4.1573    1.9349   -0.5594 H   0  0  0  0  0  0  0  0  0  0  0  0
    3.8289    1.3313    3.3277 H   0  0  0  0  0  0  0  0  0  0  0  0
   10.3651   -0.5178    0.3936 H   0  0  0  0  0  0  0  0  0  0  0  0
    8.6847   -0.2018    0.8501 H   0  0  0  0  0  0  0  0  0  0  0  0
    9.5447   -1.6012    1.5255 H   0  0  0  0  0  0  0  0  0  0  0  0
    9.7559   -0.5869   -2.1255 H   0  0  0  0  0  0  0  0  0  0  0  0
    8.0578   -0.2509   -1.7590 H   0  0  0  0  0  0  0  0  0  0  0  0
    8.5000   -1.6938   -2.6952 H   0  0  0  0  0  0  0  0  0  0  0  0
    6.1768    2.4773    0.2967 H   0  0  0  0  0  0  0  0  0  0  0  0
  1  2  2  0  0  0  0 
  2  3  1  0  0  0  0 
  2  4  1  0  0  0  0 
  3  6  1  0  0  0  0 
  4  7  1  0  0  0  0 
  5  3  1  0  0  0  0 
  5  8  1  0  0  0  0 
  5  9  1  0  0  0  0 
  6 10  2  0  0  0  0 
  7 10  1  0  0  0  0 
  7 11  2  0  0  0  0 
 12  8  1  0  0  0  0 
 13  9  1  0  0  0  0 
 10 14  1  0  0  0  0 
 12 13  1  0  0  0  0 
 12 15  1  0  0  0  0 
 13 16  1  0  0  0  0 
 14 17  1  0  0  0  0 
 14 18  1  0  0  0  0 
 15 19  1  0  0  0  0 
 20  4  1  0  0  0  0 
  5 21  1  0  0  0  0 
 22  6  1  0  0  0  0 
 23  9  1  0  0  0  0 
 24  9  1  0  0  0  0 
 12 25  1  0  0  0  0 
 13 26  1  0  0  0  0 
 27 14  1  0  0  0  0 
 28 15  1  0  0  0  0 
 29 15  1  0  0  0  0 
 30 16  1  0  0  0  0 
 31 17  1  0  0  0  0 
 32 17  1  0  0  0  0 
 33 17  1  0  0  0  0 
 34 18  1  0  0  0  0 
 35 18  1  0  0  0  0 
 36 18  1  0  0  0  0 
 37 19  1  0  0  0  0 
M  END
> <cdk:Title>
epervudine

> <Conformer>
1

> <SuperDrugID>
SD000910

$$$$
