seratrodast
  CDK     0628171801

 52 53  0  0  0  0  0  0  0  0999 V2000
    1.3073   -1.1421    0.0027 C   0  0  0  0  0  0  0  0  0  0  0  0
    2.6479   -1.1160   -0.1971 C   0  0  0  0  0  0  0  0  0  0  0  0
    0.7726   -2.2072    0.7462 C   0  0  0  0  0  0  0  0  0  0  0  0
    0.4344   -0.1663   -0.5029 C   0  0  0  0  0  0  0  0  0  0  0  0
    3.3995   -0.2132   -1.0626 C   0  0  1  0  0  0  0  0  0  0  0  0
    0.7987   -3.5462    0.2546 C   0  0  0  0  0  0  0  0  0  0  0  0
    0.2309   -1.9452    2.0304 C   0  0  0  0  0  0  0  0  0  0  0  0
   -0.6039   -0.5060   -1.4062 C   0  0  0  0  0  0  0  0  0  0  0  0
    0.5633    1.1932   -0.1189 C   0  0  0  0  0  0  0  0  0  0  0  0
    4.2723    0.8029   -0.2788 C   0  0  1  0  0  0  0  0  0  0  0  0
    1.2374   -3.9022   -1.1325 C   0  0  0  0  0  0  0  0  0  0  0  0
    0.3756   -4.5974    1.1085 C   0  0  0  0  0  0  0  0  0  0  0  0
    0.1902   -0.6552    2.4712 O   0  0  0  0  0  0  0  0  0  0  0  0
   -0.2399   -2.9945    2.8619 C   0  0  0  0  0  0  0  0  0  0  0  0
   -1.4418    0.4872   -1.9516 C   0  0  0  0  0  0  0  0  0  0  0  0
   -0.2749    2.1855   -0.6602 C   0  0  0  0  0  0  0  0  0  0  0  0
    5.0614    1.7468   -1.2275 C   0  0  1  0  0  0  0  0  0  0  0  0
    0.4637   -5.8895    0.6781 O   0  0  0  0  0  0  0  0  0  0  0  0
   -0.1486   -4.3411    2.4024 C   0  0  0  0  0  0  0  0  0  0  0  0
   -0.8138   -2.6958    4.2104 C   0  0  0  0  0  0  0  0  0  0  0  0
   -1.2705    1.8337   -1.5867 C   0  0  0  0  0  0  0  0  0  0  0  0
    5.8758    2.8211   -0.4610 C   0  0  2  0  0  0  0  0  0  0  0  0
   -0.5851   -5.4756    3.2748 C   0  0  0  0  0  0  0  0  0  0  0  0
    6.4906    3.8022   -1.3760 C   0  0  0  0  0  0  0  0  0  0  0  0
    7.8325    3.8671   -1.5240 O   0  0  0  0  0  0  0  0  0  0  0  0
    5.7765    4.5992   -2.0259 O   0  0  0  0  0  0  0  0  0  0  0  0
    3.2033   -1.8121    0.2519 H   0  0  0  0  0  0  0  0  0  0  0  0
    4.0568   -0.8296   -1.6844 H   0  0  0  0  0  0  0  0  0  0  0  0
    2.7391    0.3243   -1.7459 H   0  0  0  0  0  0  0  0  0  0  0  0
   -0.7575   -1.4789   -1.6809 H   0  0  0  0  0  0  0  0  0  0  0  0
    1.2667    1.4731    0.5691 H   0  0  0  0  0  0  0  0  0  0  0  0
    3.6329    1.4093    0.3655 H   0  0  0  0  0  0  0  0  0  0  0  0
    4.9815    0.2621    0.3543 H   0  0  0  0  0  0  0  0  0  0  0  0
    0.4593   -4.4978   -1.6167 H   0  0  0  0  0  0  0  0  0  0  0  0
    1.4152   -3.0399   -1.7744 H   0  0  0  0  0  0  0  0  0  0  0  0
    2.1598   -4.4875   -1.0957 H   0  0  0  0  0  0  0  0  0  0  0  0
   -0.7040   -0.5389    2.8578 H   0  0  0  0  0  0  0  0  0  0  0  0
   -2.1740    0.2316   -2.6191 H   0  0  0  0  0  0  0  0  0  0  0  0
   -0.1586    3.1646   -0.3802 H   0  0  0  0  0  0  0  0  0  0  0  0
    5.7479    1.1460   -1.8328 H   0  0  0  0  0  0  0  0  0  0  0  0
    4.3542    2.2404   -1.9017 H   0  0  0  0  0  0  0  0  0  0  0  0
    1.2249   -5.9295    0.0641 H   0  0  0  0  0  0  0  0  0  0  0  0
   -0.8227   -1.6368    4.4631 H   0  0  0  0  0  0  0  0  0  0  0  0
   -0.2321   -3.2020    4.9825 H   0  0  0  0  0  0  0  0  0  0  0  0
   -1.8486   -3.0426    4.2562 H   0  0  0  0  0  0  0  0  0  0  0  0
   -1.8758    2.5535   -1.9915 H   0  0  0  0  0  0  0  0  0  0  0  0
    6.6564    2.3231    0.1209 H   0  0  0  0  0  0  0  0  0  0  0  0
    5.2273    3.3589    0.2373 H   0  0  0  0  0  0  0  0  0  0  0  0
   -1.6228   -5.3387    3.5826 H   0  0  0  0  0  0  0  0  0  0  0  0
   -0.5284   -6.4484    2.7865 H   0  0  0  0  0  0  0  0  0  0  0  0
    0.0493   -5.5204    4.1623 H   0  0  0  0  0  0  0  0  0  0  0  0
    8.2283    4.5322   -2.1243 H   0  0  0  0  0  0  0  0  0  0  0  0
  1  2  2  0  0  0  0 
  1  3  1  0  0  0  0 
  1  4  1  0  0  0  0 
  2  5  1  0  0  0  0 
  3  6  2  0  0  0  0 
  3  7  1  0  0  0  0 
  4  8  2  0  0  0  0 
  4  9  1  0  0  0  0 
  5 10  1  0  0  0  0 
  6 11  1  0  0  0  0 
  6 12  1  0  0  0  0 
  7 13  1  0  0  0  0 
  7 14  2  0  0  0  0 
  8 15  1  0  0  0  0 
  9 16  2  0  0  0  0 
 10 17  1  0  0  0  0 
 12 18  1  0  0  0  0 
 12 19  2  0  0  0  0 
 14 19  1  0  0  0  0 
 14 20  1  0  0  0  0 
 15 21  2  0  0  0  0 
 16 21  1  0  0  0  0 
 17 22  1  0  0  0  0 
 19 23  1  0  0  0  0 
 22 24  1  0  0  0  0 
 24 25  1  0  0  0  0 
 24 26  2  0  0  0  0 
 27  2  1  0  0  0  0 
 28  5  1  0  0  0  0 
 29  5  1  0  0  0  0 
 30  8  1  0  0  0  0 
 31  9  1  0  0  0  0 
 32 10  1  0  0  0  0 
 33 10  1  0  0  0  0 
 34 11  1  0  0  0  0 
 35 11  1  0  0  0  0 
 36 11  1  0  0  0  0 
 37 13  1  0  0  0  0 
 38 15  1  0  0  0  0 
 39 16  1  0  0  0  0 
 40 17  1  0  0  0  0 
 41 17  1  0  0  0  0 
 42 18  1  0  0  0  0 
 43 20  1  0  0  0  0 
 44 20  1  0  0  0  0 
 45 20  1  0  0  0  0 
 46 21  1  0  0  0  0 
 47 22  1  0  0  0  0 
 48 22  1  0  0  0  0 
 49 23  1  0  0  0  0 
 50 23  1  0  0  0  0 
 51 23  1  0  0  0  0 
 52 25  1  0  0  0  0 
M  END
> <cdk:Title>
seratrodast

> <Conformer>
1

> <SuperDrugID>
SD002186

$$$$
