tritoqualine
  CDK     0628171801

 68 72  0  0  0  0  0  0  0  0999 V2000
   -1.1631   -2.4457   -6.8736 O   0  0  0  0  0  0  0  0  0  0  0  0
   -2.4367   -2.9857   -7.2906 C   0  0  1  0  0  0  0  0  0  0  0  0
   -1.2127   -1.9029   -5.6161 C   0  0  0  0  0  0  0  0  0  0  0  0
   -2.2581   -3.8019   -8.5815 C   0  0  0  0  0  0  0  0  0  0  0  0
   -1.4371   -0.5236   -5.4342 C   0  0  0  0  0  0  0  0  0  0  0  0
   -1.0281   -2.7185   -4.4731 C   0  0  0  0  0  0  0  0  0  0  0  0
   -1.5754    0.5325   -6.4549 C   0  0  1  0  0  0  0  0  0  0  0  0
   -1.5922    0.0024   -4.1516 C   0  0  0  0  0  0  0  0  0  0  0  0
   -0.7098   -4.0406   -4.6342 O   0  0  0  0  0  0  0  0  0  0  0  0
   -1.1659   -2.1801   -3.1670 C   0  0  0  0  0  0  0  0  0  0  0  0
   -1.9255    1.6538   -5.6306 O   0  0  0  0  0  0  0  0  0  0  0  0
   -0.2863    0.7890   -7.3821 C   0  0  1  0  0  0  0  0  0  0  0  0
   -1.4397   -0.8003   -2.9990 C   0  0  0  0  0  0  0  0  0  0  0  0
   -1.9086    1.3470   -4.3079 C   0  0  0  0  0  0  0  0  0  0  0  0
    0.7125   -4.2403   -4.7772 C   0  0  1  0  0  0  0  0  0  0  0  0
   -0.9880   -2.9964   -2.0747 O   0  0  0  0  0  0  0  0  0  0  0  0
   -0.6056    1.8704   -8.3788 C   0  0  0  0  0  0  0  0  0  0  0  0
    0.9817    1.1303   -6.6500 N   0  0  0  0  0  0  0  0  0  0  0  0
   -1.5314   -0.2774   -1.7578 N   0  0  0  0  0  0  0  0  0  0  0  0
   -2.1507    2.1683   -3.3970 O   0  0  0  0  0  0  0  0  0  0  0  0
    1.0065   -5.7388   -4.9600 C   0  0  0  0  0  0  0  0  0  0  0  0
   -2.2002   -3.6219   -1.6016 C   0  0  1  0  0  0  0  0  0  0  0  0
   -1.4248    1.5823   -9.5106 C   0  0  0  0  0  0  0  0  0  0  0  0
   -0.0925    3.1978   -8.2226 C   0  0  0  0  0  0  0  0  0  0  0  0
    1.6926    0.0623   -5.8984 C   0  0  0  0  0  0  0  0  0  0  0  0
    1.0718    2.4884   -6.0535 C   0  0  1  0  0  0  0  0  0  0  0  0
   -1.8754   -4.4994   -0.3767 C   0  0  0  0  0  0  0  0  0  0  0  0
   -1.9274    0.3309   -9.7577 O   0  0  0  0  0  0  0  0  0  0  0  0
   -1.7651    2.6189  -10.4030 C   0  0  0  0  0  0  0  0  0  0  0  0
   -0.4461    4.2106   -9.1506 C   0  0  0  0  0  0  0  0  0  0  0  0
    0.8575    3.5659   -7.1383 C   0  0  2  0  0  0  0  0  0  0  0  0
   -1.1898   -0.4103  -10.7502 C   0  0  0  0  0  0  0  0  0  0  0  0
   -1.2914    3.9045  -10.2258 C   0  0  0  0  0  0  0  0  0  0  0  0
   -2.5417    2.5211  -11.5013 O   0  0  0  0  0  0  0  0  0  0  0  0
   -1.7355    4.7450  -11.1814 O   0  0  0  0  0  0  0  0  0  0  0  0
   -2.4949    3.8598  -12.0274 C   0  0  2  0  0  0  0  0  0  0  0  0
   -2.8608   -3.6526   -6.5314 H   0  0  0  0  0  0  0  0  0  0  0  0
   -3.1491   -2.1775   -7.4808 H   0  0  0  0  0  0  0  0  0  0  0  0
   -3.2323   -4.1580   -8.9242 H   0  0  0  0  0  0  0  0  0  0  0  0
   -1.6161   -4.6656   -8.3913 H   0  0  0  0  0  0  0  0  0  0  0  0
   -1.8084   -3.1839   -9.3613 H   0  0  0  0  0  0  0  0  0  0  0  0
   -2.4333    0.2801   -7.0806 H   0  0  0  0  0  0  0  0  0  0  0  0
    0.0327   -0.0850   -8.0130 H   0  0  0  0  0  0  0  0  0  0  0  0
    1.0987   -3.7071   -5.6527 H   0  0  0  0  0  0  0  0  0  0  0  0
    1.2448   -3.8889   -3.8869 H   0  0  0  0  0  0  0  0  0  0  0  0
   -1.7234    0.6646   -1.6349 H   0  0  0  0  0  0  0  0  0  0  0  0
   -1.3927   -0.8434   -0.9808 H   0  0  0  0  0  0  0  0  0  0  0  0
    0.6424   -6.2999   -4.0974 H   0  0  0  0  0  0  0  0  0  0  0  0
    0.5160   -6.1108   -5.8619 H   0  0  0  0  0  0  0  0  0  0  0  0
    2.0836   -5.8936   -5.0541 H   0  0  0  0  0  0  0  0  0  0  0  0
   -2.9376   -2.8707   -1.3000 H   0  0  0  0  0  0  0  0  0  0  0  0
   -2.6389   -4.2574   -2.3773 H   0  0  0  0  0  0  0  0  0  0  0  0
    2.7610    0.2852   -5.8972 H   0  0  0  0  0  0  0  0  0  0  0  0
    1.5559   -0.9137   -6.3660 H   0  0  0  0  0  0  0  0  0  0  0  0
    1.3432    0.0179   -4.8662 H   0  0  0  0  0  0  0  0  0  0  0  0
    0.3449    2.6139   -5.2530 H   0  0  0  0  0  0  0  0  0  0  0  0
    2.0577    2.6480   -5.6096 H   0  0  0  0  0  0  0  0  0  0  0  0
   -2.7857   -4.9786   -0.0106 H   0  0  0  0  0  0  0  0  0  0  0  0
   -1.4552   -3.8878    0.4244 H   0  0  0  0  0  0  0  0  0  0  0  0
   -1.1547   -5.2741   -0.6465 H   0  0  0  0  0  0  0  0  0  0  0  0
   -0.0940    5.1669   -9.0507 H   0  0  0  0  0  0  0  0  0  0  0  0
    0.5199    4.4823   -6.6456 H   0  0  0  0  0  0  0  0  0  0  0  0
    1.8243    3.7722   -7.6063 H   0  0  0  0  0  0  0  0  0  0  0  0
   -1.7685   -1.3017  -10.9956 H   0  0  0  0  0  0  0  0  0  0  0  0
   -1.0427    0.1566  -11.6753 H   0  0  0  0  0  0  0  0  0  0  0  0
   -0.2186   -0.7272  -10.3630 H   0  0  0  0  0  0  0  0  0  0  0  0
   -3.5146    4.2373  -12.1255 H   0  0  0  0  0  0  0  0  0  0  0  0
   -2.0431    3.8374  -13.0218 H   0  0  0  0  0  0  0  0  0  0  0  0
  1  2  1  0  0  0  0 
  1  3  1  0  0  0  0 
  2  4  1  0  0  0  0 
  3  5  2  0  0  0  0 
  3  6  1  0  0  0  0 
  5  7  1  0  0  0  0 
  5  8  1  0  0  0  0 
  6  9  1  0  0  0  0 
  6 10  2  0  0  0  0 
  7 11  1  0  0  0  0 
  7 12  1  0  0  0  0 
  8 13  2  0  0  0  0 
  8 14  1  0  0  0  0 
  9 15  1  0  0  0  0 
 10 13  1  0  0  0  0 
 10 16  1  0  0  0  0 
 11 14  1  0  0  0  0 
 12 17  1  0  0  0  0 
 12 18  1  0  0  0  0 
 13 19  1  0  0  0  0 
 14 20  2  0  0  0  0 
 15 21  1  0  0  0  0 
 16 22  1  0  0  0  0 
 17 23  2  0  0  0  0 
 17 24  1  0  0  0  0 
 18 25  1  0  0  0  0 
 18 26  1  0  0  0  0 
 22 27  1  0  0  0  0 
 23 28  1  0  0  0  0 
 23 29  1  0  0  0  0 
 24 30  2  0  0  0  0 
 24 31  1  0  0  0  0 
 26 31  1  0  0  0  0 
 28 32  1  0  0  0  0 
 29 33  2  0  0  0  0 
 29 34  1  0  0  0  0 
 30 33  1  0  0  0  0 
 33 35  1  0  0  0  0 
 34 36  1  0  0  0  0 
 35 36  1  0  0  0  0 
  2 37  1  0  0  0  0 
  2 38  1  0  0  0  0 
  4 39  1  0  0  0  0 
  4 40  1  0  0  0  0 
  4 41  1  0  0  0  0 
  7 42  1  0  0  0  0 
 12 43  1  0  0  0  0 
 15 44  1  0  0  0  0 
 15 45  1  0  0  0  0 
 19 46  1  0  0  0  0 
 19 47  1  0  0  0  0 
 21 48  1  0  0  0  0 
 21 49  1  0  0  0  0 
 21 50  1  0  0  0  0 
 22 51  1  0  0  0  0 
 22 52  1  0  0  0  0 
 25 53  1  0  0  0  0 
 25 54  1  0  0  0  0 
 25 55  1  0  0  0  0 
 26 56  1  0  0  0  0 
 26 57  1  0  0  0  0 
 27 58  1  0  0  0  0 
 27 59  1  0  0  0  0 
 27 60  1  0  0  0  0 
 30 61  1  0  0  0  0 
 31 62  1  0  0  0  0 
 31 63  1  0  0  0  0 
 32 64  1  0  0  0  0 
 32 65  1  0  0  0  0 
 32 66  1  0  0  0  0 
 36 67  1  0  0  0  0 
 36 68  1  0  0  0  0 
M  END
> <cdk:Title>
tritoqualine

> <Conformer>
1

> <SuperDrugID>
SD002494

$$$$
