isoniazid
  CDK     0628171801

 17 17  0  0  0  0  0  0  0  0999 V2000
    0.4109    0.3532   -0.1480 N   0  0  1  0  0  0  0  0  0  0  0  0
    1.4238   -0.0742    0.6337 N   0  0  0  0  0  0  0  0  0  0  0  0
    1.5038   -1.3393    1.1332 C   0  0  0  0  0  0  0  0  0  0  0  0
    0.5504   -2.1210    0.8990 O   0  0  0  0  0  0  0  0  0  0  0  0
    2.6294   -1.7909    1.8907 C   0  0  0  0  0  0  0  0  0  0  0  0
    2.7167   -3.1345    2.3443 C   0  0  0  0  0  0  0  0  0  0  0  0
    3.8419   -3.5673    3.0715 C   0  0  0  0  0  0  0  0  0  0  0  0
    4.8454   -2.6990    3.3491 N   0  0  0  0  0  0  0  0  0  0  0  0
    4.8108   -1.4076    2.9416 C   0  0  0  0  0  0  0  0  0  0  0  0
    3.7113   -0.9279    2.2069 C   0  0  0  0  0  0  0  0  0  0  0  0
   -0.0383    1.1427    0.3180 H   0  0  0  0  0  0  0  0  0  0  0  0
    0.8114    0.6664   -1.0365 H   0  0  0  0  0  0  0  0  0  0  0  0
    2.1312    0.5577    0.8324 H   0  0  0  0  0  0  0  0  0  0  0  0
    1.9728   -3.8103    2.1514 H   0  0  0  0  0  0  0  0  0  0  0  0
    3.9107   -4.5337    3.3954 H   0  0  0  0  0  0  0  0  0  0  0  0
    5.5868   -0.7853    3.1730 H   0  0  0  0  0  0  0  0  0  0  0  0
    3.7183    0.0499    1.9122 H   0  0  0  0  0  0  0  0  0  0  0  0
  1  2  1  0  0  0  0 
  2  3  1  0  0  0  0 
  3  4  2  0  0  0  0 
  3  5  1  0  0  0  0 
  5  6  2  0  0  0  0 
  6  7  1  0  0  0  0 
  7  8  2  0  0  0  0 
  8  9  1  0  0  0  0 
  9 10  2  0  0  0  0 
  5 10  1  0  0  0  0 
 11  1  1  0  0  0  0 
 12  1  1  0  0  0  0 
 13  2  1  0  0  0  0 
 14  6  1  0  0  0  0 
 15  7  1  0  0  0  0 
 16  9  1  0  0  0  0 
 17 10  1  0  0  0  0 
M  END
> <cdk:Title>
isoniazid

> <Conformer>
1

> <SuperDrugID>
SD001327

$$$$
