tribenoside
  CDK     0628171801

 69 72  0  0  0  0  0  0  0  0999 V2000
   -1.8862   -2.4154   -1.2623 C   0  0  2  0  0  0  0  0  0  0  0  0
   -1.2903   -1.1210   -1.0271 O   0  0  0  0  0  0  0  0  0  0  0  0
   -1.8873   -2.6299   -2.8009 C   0  0  1  0  0  0  0  0  0  0  0  0
   -3.2950   -2.4848   -0.5889 C   0  0  2  0  0  0  0  0  0  0  0  0
   -0.6217   -0.9290    0.2358 C   0  0  2  0  0  0  0  0  0  0  0  0
   -0.5701   -2.7928   -3.3690 O   0  0  0  0  0  0  0  0  0  0  0  0
   -4.2125   -3.8114   -0.7740 C   0  0  2  0  0  0  0  0  0  0  0  0
   -4.2621   -1.5707   -1.2519 O   0  0  0  0  0  0  0  0  0  0  0  0
    0.1626    0.3260    0.1556 C   0  0  0  0  0  0  0  0  0  0  0  0
    0.1214   -1.5969   -3.7831 C   0  0  2  0  0  0  0  0  0  0  0  0
   -3.4073   -5.0036   -0.9459 O   0  0  0  0  0  0  0  0  0  0  0  0
   -5.1863   -3.6687   -2.0210 C   0  0  2  0  0  0  0  0  0  0  0  0
   -5.3324   -2.1260   -2.1479 C   0  0  2  0  0  0  0  0  0  0  0  0
    1.5775    0.3073    0.1093 C   0  0  0  0  0  0  0  0  0  0  0  0
   -0.5015    1.5744    0.1203 C   0  0  0  0  0  0  0  0  0  0  0  0
    1.3479   -1.9896   -4.5212 C   0  0  0  0  0  0  0  0  0  0  0  0
   -2.9197   -5.5878    0.2795 C   0  0  2  0  0  0  0  0  0  0  0  0
   -6.4305   -4.3428   -1.8255 O   0  0  0  0  0  0  0  0  0  0  0  0
   -5.1407   -1.7054   -3.5121 O   0  0  0  0  0  0  0  0  0  0  0  0
    2.3100    1.5070    0.0431 C   0  0  0  0  0  0  0  0  0  0  0  0
    0.2301    2.7744    0.0592 C   0  0  0  0  0  0  0  0  0  0  0  0
    2.4069   -2.6276   -3.8323 C   0  0  0  0  0  0  0  0  0  0  0  0
    1.4920   -1.7508   -5.9105 C   0  0  0  0  0  0  0  0  0  0  0  0
   -1.9281   -6.6520   -0.0093 C   0  0  0  0  0  0  0  0  0  0  0  0
   -5.1490   -0.2776   -3.7047 C   0  0  2  0  0  0  0  0  0  0  0  0
    1.6354    2.7408    0.0202 C   0  0  0  0  0  0  0  0  0  0  0  0
    3.5850   -3.0004   -4.5064 C   0  0  0  0  0  0  0  0  0  0  0  0
    2.6689   -2.1280   -6.5858 C   0  0  0  0  0  0  0  0  0  0  0  0
   -2.1396   -7.9909    0.3987 C   0  0  0  0  0  0  0  0  0  0  0  0
   -0.7219   -6.3340   -0.6785 C   0  0  0  0  0  0  0  0  0  0  0  0
   -4.8420    0.0396   -5.1788 C   0  0  0  0  0  0  0  0  0  0  0  0
    3.7185   -2.7449   -5.8822 C   0  0  0  0  0  0  0  0  0  0  0  0
   -1.1545   -8.9721    0.1791 C   0  0  0  0  0  0  0  0  0  0  0  0
    0.2620   -7.3139   -0.8992 C   0  0  0  0  0  0  0  0  0  0  0  0
    0.0485   -8.6324   -0.4641 C   0  0  0  0  0  0  0  0  0  0  0  0
   -3.2242   -2.2379    0.4727 H   0  0  0  0  0  0  0  0  0  0  0  0
   -1.2619   -3.2016   -0.8346 H   0  0  0  0  0  0  0  0  0  0  0  0
   -2.3960   -3.5654   -3.0246 H   0  0  0  0  0  0  0  0  0  0  0  0
   -2.4423   -1.8301   -3.2965 H   0  0  0  0  0  0  0  0  0  0  0  0
    0.0379   -1.7737    0.4562 H   0  0  0  0  0  0  0  0  0  0  0  0
   -1.3475   -0.8477    1.0496 H   0  0  0  0  0  0  0  0  0  0  0  0
   -4.9250   -3.9977    0.0828 H   0  0  0  0  0  0  0  0  0  0  0  0
    0.4181   -1.0023   -2.9174 H   0  0  0  0  0  0  0  0  0  0  0  0
   -0.5227   -0.9794   -4.4155 H   0  0  0  0  0  0  0  0  0  0  0  0
   -4.7135   -4.0818   -2.9159 H   0  0  0  0  0  0  0  0  0  0  0  0
   -6.3085   -1.8023   -1.7765 H   0  0  0  0  0  0  0  0  0  0  0  0
    2.0858   -0.5801    0.1224 H   0  0  0  0  0  0  0  0  0  0  0  0
   -1.5233    1.6177    0.1457 H   0  0  0  0  0  0  0  0  0  0  0  0
   -3.7696   -5.9847    0.8441 H   0  0  0  0  0  0  0  0  0  0  0  0
   -2.4265   -4.8356    0.8999 H   0  0  0  0  0  0  0  0  0  0  0  0
   -6.9461   -4.1687   -2.6402 H   0  0  0  0  0  0  0  0  0  0  0  0
    3.3324    1.4816    0.0120 H   0  0  0  0  0  0  0  0  0  0  0  0
   -0.2605    3.6713    0.0447 H   0  0  0  0  0  0  0  0  0  0  0  0
    2.3255   -2.8252   -2.8319 H   0  0  0  0  0  0  0  0  0  0  0  0
    0.7384   -1.3069   -6.4418 H   0  0  0  0  0  0  0  0  0  0  0  0
   -4.3868    0.2062   -3.0879 H   0  0  0  0  0  0  0  0  0  0  0  0
   -6.1274    0.1337   -3.4453 H   0  0  0  0  0  0  0  0  0  0  0  0
    2.1648    3.6136   -0.0249 H   0  0  0  0  0  0  0  0  0  0  0  0
    4.3417   -3.4616   -3.9953 H   0  0  0  0  0  0  0  0  0  0  0  0
    2.7596   -1.9574   -7.5889 H   0  0  0  0  0  0  0  0  0  0  0  0
   -3.0094   -8.2611    0.8647 H   0  0  0  0  0  0  0  0  0  0  0  0
   -0.5437   -5.3847   -1.0072 H   0  0  0  0  0  0  0  0  0  0  0  0
   -5.6429   -0.3355   -5.8175 H   0  0  0  0  0  0  0  0  0  0  0  0
   -4.7540    1.1190   -5.3189 H   0  0  0  0  0  0  0  0  0  0  0  0
   -3.9020   -0.4303   -5.4734 H   0  0  0  0  0  0  0  0  0  0  0  0
    4.5758   -3.0129   -6.3690 H   0  0  0  0  0  0  0  0  0  0  0  0
   -1.3126   -9.9319    0.4910 H   0  0  0  0  0  0  0  0  0  0  0  0
    1.1332   -7.0643   -1.3724 H   0  0  0  0  0  0  0  0  0  0  0  0
    0.7678   -9.3418   -0.6160 H   0  0  0  0  0  0  0  0  0  0  0  0
  1  2  1  0  0  0  0 
  1  3  1  0  0  0  0 
  4  1  1  0  0  0  0 
  2  5  1  0  0  0  0 
  3  6  1  0  0  0  0 
  7  4  1  0  0  0  0 
  4  8  1  0  0  0  0 
  4 36  1  0  0  0  0 
  5  9  1  0  0  0  0 
  6 10  1  0  0  0  0 
  7 11  1  0  0  0  0 
 12  7  1  0  0  0  0 
  8 13  1  0  0  0  0 
  9 14  2  0  0  0  0 
  9 15  1  0  0  0  0 
 10 16  1  0  0  0  0 
 11 17  1  0  0  0  0 
 12 13  1  0  0  0  0 
 12 18  1  0  0  0  0 
 13 19  1  0  0  0  0 
 14 20  1  0  0  0  0 
 15 21  2  0  0  0  0 
 16 22  2  0  0  0  0 
 16 23  1  0  0  0  0 
 17 24  1  0  0  0  0 
 19 25  1  0  0  0  0 
 20 26  2  0  0  0  0 
 21 26  1  0  0  0  0 
 22 27  1  0  0  0  0 
 23 28  2  0  0  0  0 
 24 29  2  0  0  0  0 
 24 30  1  0  0  0  0 
 25 31  1  0  0  0  0 
 27 32  2  0  0  0  0 
 28 32  1  0  0  0  0 
 29 33  1  0  0  0  0 
 30 34  2  0  0  0  0 
 33 35  2  0  0  0  0 
 34 35  1  0  0  0  0 
  1 37  1  0  0  0  0 
  3 38  1  0  0  0  0 
  3 39  1  0  0  0  0 
  5 40  1  0  0  0  0 
  5 41  1  0  0  0  0 
  7 42  1  0  0  0  0 
 10 43  1  0  0  0  0 
 10 44  1  0  0  0  0 
 12 45  1  0  0  0  0 
 13 46  1  0  0  0  0 
 14 47  1  0  0  0  0 
 15 48  1  0  0  0  0 
 17 49  1  0  0  0  0 
 17 50  1  0  0  0  0 
 18 51  1  0  0  0  0 
 20 52  1  0  0  0  0 
 21 53  1  0  0  0  0 
 22 54  1  0  0  0  0 
 23 55  1  0  0  0  0 
 25 56  1  0  0  0  0 
 25 57  1  0  0  0  0 
 26 58  1  0  0  0  0 
 27 59  1  0  0  0  0 
 28 60  1  0  0  0  0 
 29 61  1  0  0  0  0 
 30 62  1  0  0  0  0 
 31 63  1  0  0  0  0 
 31 64  1  0  0  0  0 
 31 65  1  0  0  0  0 
 32 66  1  0  0  0  0 
 33 67  1  0  0  0  0 
 34 68  1  0  0  0  0 
 35 69  1  0  0  0  0 
M  END
> <cdk:Title>
tribenoside

> <Conformer>
1

> <SuperDrugID>
SD002460

$$$$
