tramadol
  CDK     0628171801

 44 45  0  0  0  0  0  0  0  0999 V2000
   -0.4875   -2.7561   -1.5224 O   0  0  0  0  0  0  0  0  0  0  0  0
   -1.0574   -3.7336   -2.4035 C   0  0  1  0  0  0  0  0  0  0  0  0
   -0.8424   -5.1858   -1.7851 C   0  0  1  0  0  0  0  0  0  0  0  0
   -2.6039   -3.4484   -2.4217 C   0  0  1  0  0  0  0  0  0  0  0  0
   -0.3095   -3.4833   -3.7050 C   0  0  0  0  0  0  0  0  0  0  0  0
   -1.1365   -5.3154   -0.2366 C   0  0  1  0  0  0  0  0  0  0  0  0
   -1.6271   -6.2420   -2.6310 C   0  0  2  0  0  0  0  0  0  0  0  0
   -3.4251   -4.5113   -3.2089 C   0  0  2  0  0  0  0  0  0  0  0  0
   -0.9069   -2.9480   -4.8826 C   0  0  0  0  0  0  0  0  0  0  0  0
    1.0945   -3.7072   -3.7590 C   0  0  0  0  0  0  0  0  0  0  0  0
   -0.0496   -5.9763    0.5698 N   0  0  1  0  0  0  0  0  0  0  0  0
   -3.1491   -5.9517   -2.7145 C   0  0  1  0  0  0  0  0  0  0  0  0
   -0.1648   -2.6966   -6.0563 C   0  0  0  0  0  0  0  0  0  0  0  0
    1.8429   -3.4637   -4.9238 C   0  0  0  0  0  0  0  0  0  0  0  0
   -0.1468   -5.6708    2.0295 C   0  0  0  0  0  0  0  0  0  0  0  0
    0.0899   -7.4438    0.3324 C   0  0  0  0  0  0  0  0  0  0  0  0
   -0.7359   -2.1378   -7.1708 O   0  0  0  0  0  0  0  0  0  0  0  0
    1.2142   -2.9609   -6.0700 C   0  0  0  0  0  0  0  0  0  0  0  0
   -1.5959   -3.0205   -7.9140 C   0  0  0  0  0  0  0  0  0  0  0  0
   -0.7186   -1.8846   -1.9064 H   0  0  0  0  0  0  0  0  0  0  0  0
    0.2080   -5.4456   -1.8935 H   0  0  0  0  0  0  0  0  0  0  0  0
   -2.9795   -3.4350   -1.3953 H   0  0  0  0  0  0  0  0  0  0  0  0
   -2.8088   -2.4528   -2.8222 H   0  0  0  0  0  0  0  0  0  0  0  0
   -1.2860   -4.3123    0.1660 H   0  0  0  0  0  0  0  0  0  0  0  0
   -2.0780   -5.8380   -0.0508 H   0  0  0  0  0  0  0  0  0  0  0  0
   -1.4856   -7.2449   -2.2232 H   0  0  0  0  0  0  0  0  0  0  0  0
   -1.2224   -6.2506   -3.6466 H   0  0  0  0  0  0  0  0  0  0  0  0
   -3.1923   -4.4666   -4.2740 H   0  0  0  0  0  0  0  0  0  0  0  0
   -4.4907   -4.2940   -3.1023 H   0  0  0  0  0  0  0  0  0  0  0  0
   -1.8935   -2.7019   -4.9082 H   0  0  0  0  0  0  0  0  0  0  0  0
    1.6040   -4.0346   -2.9359 H   0  0  0  0  0  0  0  0  0  0  0  0
   -3.6112   -6.6647   -3.4027 H   0  0  0  0  0  0  0  0  0  0  0  0
   -3.6203   -6.0987   -1.7405 H   0  0  0  0  0  0  0  0  0  0  0  0
    2.8491   -3.6432   -4.9334 H   0  0  0  0  0  0  0  0  0  0  0  0
    0.6881   -6.1137    2.5775 H   0  0  0  0  0  0  0  0  0  0  0  0
   -0.1024   -4.5928    2.1952 H   0  0  0  0  0  0  0  0  0  0  0  0
   -1.0803   -6.0523    2.4488 H   0  0  0  0  0  0  0  0  0  0  0  0
    0.3072   -7.6462   -0.7152 H   0  0  0  0  0  0  0  0  0  0  0  0
    0.9248   -7.8472    0.9094 H   0  0  0  0  0  0  0  0  0  0  0  0
   -0.8201   -7.9784    0.6202 H   0  0  0  0  0  0  0  0  0  0  0  0
    1.7636   -2.7707   -6.9107 H   0  0  0  0  0  0  0  0  0  0  0  0
   -1.9020   -2.5052   -8.8259 H   0  0  0  0  0  0  0  0  0  0  0  0
   -1.0844   -3.9445   -8.1989 H   0  0  0  0  0  0  0  0  0  0  0  0
   -2.4967   -3.2604   -7.3448 H   0  0  0  0  0  0  0  0  0  0  0  0
  2  1  1  0  0  0  0 
  3  2  1  0  0  0  0 
  2  4  1  0  0  0  0 
  2  5  1  0  0  0  0 
  3  6  1  0  0  0  0 
  3  7  1  0  0  0  0 
  4  8  1  0  0  0  0 
  5  9  2  0  0  0  0 
  5 10  1  0  0  0  0 
  6 11  1  0  0  0  0 
  7 12  1  0  0  0  0 
  8 12  1  0  0  0  0 
  9 13  1  0  0  0  0 
 10 14  2  0  0  0  0 
 11 15  1  0  0  0  0 
 11 16  1  0  0  0  0 
 13 17  1  0  0  0  0 
 13 18  2  0  0  0  0 
 14 18  1  0  0  0  0 
 17 19  1  0  0  0  0 
  1 20  1  0  0  0  0 
  3 21  1  0  0  0  0 
  4 22  1  0  0  0  0 
  4 23  1  0  0  0  0 
  6 24  1  0  0  0  0 
  6 25  1  0  0  0  0 
  7 26  1  0  0  0  0 
  7 27  1  0  0  0  0 
  8 28  1  0  0  0  0 
  8 29  1  0  0  0  0 
  9 30  1  0  0  0  0 
 10 31  1  0  0  0  0 
 12 32  1  0  0  0  0 
 12 33  1  0  0  0  0 
 14 34  1  0  0  0  0 
 15 35  1  0  0  0  0 
 15 36  1  0  0  0  0 
 15 37  1  0  0  0  0 
 16 38  1  0  0  0  0 
 16 39  1  0  0  0  0 
 16 40  1  0  0  0  0 
 18 41  1  0  0  0  0 
 19 42  1  0  0  0  0 
 19 43  1  0  0  0  0 
 19 44  1  0  0  0  0 
M  END
> <cdk:Title>
tramadol

> <Conformer>
1

> <SuperDrugID>
SD002442

$$$$
