tobuterol
  CDK     0628171801

 65 67  0  0  0  0  0  0  0  0999 V2000
    5.0717   -0.5771    3.0126 O   0  0  0  0  0  0  0  0  0  0  0  0
    5.7412    0.6138    2.9742 C   0  0  0  0  0  0  0  0  0  0  0  0
    3.7235   -0.6017    2.8145 C   0  0  0  0  0  0  0  0  0  0  0  0
    5.9450    1.1231    1.8465 O   0  0  0  0  0  0  0  0  0  0  0  0
    6.1556    1.2651    4.1722 C   0  0  0  0  0  0  0  0  0  0  0  0
    2.9111   -0.5744    3.9572 C   0  0  0  0  0  0  0  0  0  0  0  0
    3.1311   -0.5436    1.5372 C   0  0  0  0  0  0  0  0  0  0  0  0
    6.1204    0.5954    5.4194 C   0  0  0  0  0  0  0  0  0  0  0  0
    6.5702    2.6198    4.1657 C   0  0  0  0  0  0  0  0  0  0  0  0
    1.5231   -0.4077    3.8436 C   0  0  0  0  0  0  0  0  0  0  0  0
    1.7290   -0.3848    1.3967 C   0  0  0  0  0  0  0  0  0  0  0  0
    6.4900    1.2490    6.6100 C   0  0  0  0  0  0  0  0  0  0  0  0
    6.9426    3.2748    5.3545 C   0  0  0  0  0  0  0  0  0  0  0  0
    0.8132   -0.2207    4.9891 O   0  0  0  0  0  0  0  0  0  0  0  0
    0.9329   -0.3331    2.5683 C   0  0  0  0  0  0  0  0  0  0  0  0
    1.1285   -0.1354    0.0522 C   0  0  2  0  0  0  0  0  0  0  0  0
    6.9116    2.5967    6.5926 C   0  0  0  0  0  0  0  0  0  0  0  0
    0.6350    1.0496    5.4570 C   0  0  0  0  0  0  0  0  0  0  0  0
    1.1024    1.3942   -0.2110 C   0  0  2  0  0  0  0  0  0  0  0  0
   -0.1864   -0.6863   -0.0496 O   0  0  0  0  0  0  0  0  0  0  0  0
    7.3103    3.3012    7.8344 C   0  0  0  0  0  0  0  0  0  0  0  0
   -0.2159    1.7549    4.8621 O   0  0  0  0  0  0  0  0  0  0  0  0
    1.4226    1.5640    6.5314 C   0  0  0  0  0  0  0  0  0  0  0  0
    0.5178    1.7228   -1.5354 N   0  0  1  0  0  0  0  0  0  0  0  0
    1.4375    2.9572    6.7886 C   0  0  0  0  0  0  0  0  0  0  0  0
    2.2400    0.7138    7.3244 C   0  0  0  0  0  0  0  0  0  0  0  0
    0.4326    3.1567   -1.9618 C   0  0  2  0  0  0  0  0  0  0  0  0
    2.2270    3.5086    7.8119 C   0  0  0  0  0  0  0  0  0  0  0  0
    3.0467    1.3025    8.3708 C   0  0  0  0  0  0  0  0  0  0  0  0
    1.8469    3.8046   -2.0904 C   0  0  0  0  0  0  0  0  0  0  0  0
   -0.4518    4.0004   -0.9909 C   0  0  0  0  0  0  0  0  0  0  0  0
   -0.2451    3.1312   -3.3668 C   0  0  0  0  0  0  0  0  0  0  0  0
    3.0389    2.6893    8.6224 C   0  0  0  0  0  0  0  0  0  0  0  0
    3.8512    3.2533    9.7243 C   0  0  0  0  0  0  0  0  0  0  0  0
    3.3412   -0.6244    4.8809 H   0  0  0  0  0  0  0  0  0  0  0  0
    3.7353   -0.5797    0.7136 H   0  0  0  0  0  0  0  0  0  0  0  0
    5.8199   -0.3797    5.4792 H   0  0  0  0  0  0  0  0  0  0  0  0
    6.5999    3.1525    3.2922 H   0  0  0  0  0  0  0  0  0  0  0  0
    6.4492    0.7285    7.4900 H   0  0  0  0  0  0  0  0  0  0  0  0
    7.2341    4.2559    5.3093 H   0  0  0  0  0  0  0  0  0  0  0  0
   -0.0776   -0.2016    2.5047 H   0  0  0  0  0  0  0  0  0  0  0  0
    1.7316   -0.6186   -0.7219 H   0  0  0  0  0  0  0  0  0  0  0  0
    2.1273    1.7697   -0.1605 H   0  0  0  0  0  0  0  0  0  0  0  0
    0.5150    1.8730    0.5752 H   0  0  0  0  0  0  0  0  0  0  0  0
   -0.4792   -0.4857   -0.9637 H   0  0  0  0  0  0  0  0  0  0  0  0
    6.6466    4.1515    8.0081 H   0  0  0  0  0  0  0  0  0  0  0  0
    8.3336    3.6688    7.7409 H   0  0  0  0  0  0  0  0  0  0  0  0
    7.2653    2.6447    8.7066 H   0  0  0  0  0  0  0  0  0  0  0  0
    1.0781    1.2329   -2.2362 H   0  0  0  0  0  0  0  0  0  0  0  0
    0.8743    3.6005    6.2239 H   0  0  0  0  0  0  0  0  0  0  0  0
    2.2032   -0.3319    7.0790 H   0  0  0  0  0  0  0  0  0  0  0  0
    2.2008    4.5217    7.9592 H   0  0  0  0  0  0  0  0  0  0  0  0
    3.6333    0.6826    8.9321 H   0  0  0  0  0  0  0  0  0  0  0  0
    2.5025    3.1759   -2.6951 H   0  0  0  0  0  0  0  0  0  0  0  0
    2.3075    3.9339   -1.1100 H   0  0  0  0  0  0  0  0  0  0  0  0
    1.7842    4.7890   -2.5587 H   0  0  0  0  0  0  0  0  0  0  0  0
    0.0409    4.1281   -0.0256 H   0  0  0  0  0  0  0  0  0  0  0  0
   -0.6402    4.9954   -1.4007 H   0  0  0  0  0  0  0  0  0  0  0  0
   -1.4116    3.5085   -0.8233 H   0  0  0  0  0  0  0  0  0  0  0  0
   -0.3555    4.1414   -3.7692 H   0  0  0  0  0  0  0  0  0  0  0  0
    0.3506    2.5488   -4.0737 H   0  0  0  0  0  0  0  0  0  0  0  0
   -1.2383    2.6799   -3.3076 H   0  0  0  0  0  0  0  0  0  0  0  0
    3.3768    3.0165   10.6784 H   0  0  0  0  0  0  0  0  0  0  0  0
    3.9426    4.3383    9.6445 H   0  0  0  0  0  0  0  0  0  0  0  0
    4.8572    2.8298    9.7149 H   0  0  0  0  0  0  0  0  0  0  0  0
  1  2  1  0  0  0  0 
  1  3  1  0  0  0  0 
  2  4  2  0  0  0  0 
  2  5  1  0  0  0  0 
  3  6  2  0  0  0  0 
  3  7  1  0  0  0  0 
  5  8  2  0  0  0  0 
  5  9  1  0  0  0  0 
  6 10  1  0  0  0  0 
  7 11  2  0  0  0  0 
  8 12  1  0  0  0  0 
  9 13  2  0  0  0  0 
 10 14  1  0  0  0  0 
 10 15  2  0  0  0  0 
 11 15  1  0  0  0  0 
 16 11  1  0  0  0  0 
 12 17  2  0  0  0  0 
 13 17  1  0  0  0  0 
 14 18  1  0  0  0  0 
 16 19  1  0  0  0  0 
 16 20  1  0  0  0  0 
 17 21  1  0  0  0  0 
 18 22  2  0  0  0  0 
 18 23  1  0  0  0  0 
 19 24  1  0  0  0  0 
 23 25  2  0  0  0  0 
 23 26  1  0  0  0  0 
 24 27  1  0  0  0  0 
 25 28  1  0  0  0  0 
 26 29  2  0  0  0  0 
 27 30  1  0  0  0  0 
 27 31  1  0  0  0  0 
 27 32  1  0  0  0  0 
 28 33  2  0  0  0  0 
 29 33  1  0  0  0  0 
 33 34  1  0  0  0  0 
  6 35  1  0  0  0  0 
  7 36  1  0  0  0  0 
  8 37  1  0  0  0  0 
  9 38  1  0  0  0  0 
 12 39  1  0  0  0  0 
 13 40  1  0  0  0  0 
 15 41  1  0  0  0  0 
 16 42  1  0  0  0  0 
 19 43  1  0  0  0  0 
 19 44  1  0  0  0  0 
 20 45  1  0  0  0  0 
 21 46  1  0  0  0  0 
 21 47  1  0  0  0  0 
 21 48  1  0  0  0  0 
 24 49  1  0  0  0  0 
 25 50  1  0  0  0  0 
 26 51  1  0  0  0  0 
 28 52  1  0  0  0  0 
 29 53  1  0  0  0  0 
 30 54  1  0  0  0  0 
 30 55  1  0  0  0  0 
 30 56  1  0  0  0  0 
 31 57  1  0  0  0  0 
 31 58  1  0  0  0  0 
 31 59  1  0  0  0  0 
 32 60  1  0  0  0  0 
 32 61  1  0  0  0  0 
 32 62  1  0  0  0  0 
 34 63  1  0  0  0  0 
 34 64  1  0  0  0  0 
 34 65  1  0  0  0  0 
M  END
> <cdk:Title>
tobuterol

> <Conformer>
1

> <SuperDrugID>
SD002417

$$$$
