betanaphthol
  CDK     0628171801

 19 20  0  0  0  0  0  0  0  0999 V2000
    0.9699   -0.2231   -0.2846 O   0  0  0  0  0  0  0  0  0  0  0  0
    0.2533    0.2138    0.7793 C   0  0  0  0  0  0  0  0  0  0  0  0
    0.8955    0.5304    1.9913 C   0  0  0  0  0  0  0  0  0  0  0  0
    0.1445    0.9763    3.1032 C   0  0  0  0  0  0  0  0  0  0  0  0
    0.7750    1.2977    4.3264 C   0  0  0  0  0  0  0  0  0  0  0  0
    0.0141    1.7400    5.4232 C   0  0  0  0  0  0  0  0  0  0  0  0
   -1.3812    1.8654    5.3101 C   0  0  0  0  0  0  0  0  0  0  0  0
   -2.0230    1.5497    4.0998 C   0  0  0  0  0  0  0  0  0  0  0  0
   -1.2715    1.1037    2.9879 C   0  0  0  0  0  0  0  0  0  0  0  0
   -1.9017    0.7844    1.7647 C   0  0  0  0  0  0  0  0  0  0  0  0
   -1.1421    0.3441    0.6664 C   0  0  0  0  0  0  0  0  0  0  0  0
    1.7652   -0.6511    0.0961 H   0  0  0  0  0  0  0  0  0  0  0  0
    1.9131    0.4326    2.0559 H   0  0  0  0  0  0  0  0  0  0  0  0
    1.7901    1.2142    4.4306 H   0  0  0  0  0  0  0  0  0  0  0  0
    0.4775    1.9704    6.3044 H   0  0  0  0  0  0  0  0  0  0  0  0
   -1.9318    2.1867    6.1095 H   0  0  0  0  0  0  0  0  0  0  0  0
   -3.0403    1.6483    4.0386 H   0  0  0  0  0  0  0  0  0  0  0  0
   -2.9165    0.8683    1.6603 H   0  0  0  0  0  0  0  0  0  0  0  0
   -1.6097    0.1141   -0.2134 H   0  0  0  0  0  0  0  0  0  0  0  0
  1  2  1  0  0  0  0 
  2  3  1  0  0  0  0 
  3  4  2  0  0  0  0 
  4  5  1  0  0  0  0 
  5  6  2  0  0  0  0 
  6  7  1  0  0  0  0 
  7  8  2  0  0  0  0 
  8  9  1  0  0  0  0 
  4  9  1  0  0  0  0 
  9 10  2  0  0  0  0 
 10 11  1  0  0  0  0 
  2 11  2  0  0  0  0 
  1 12  1  0  0  0  0 
  3 13  1  0  0  0  0 
  5 14  1  0  0  0  0 
  6 15  1  0  0  0  0 
  7 16  1  0  0  0  0 
  8 17  1  0  0  0  0 
 10 18  1  0  0  0  0 
 11 19  1  0  0  0  0 
M  END
> <cdk:Title>
betanaphthol

> <Conformer>
1

> <SuperDrugID>
SD002906

$$$$
