cefalexin pivoxil
  CDK     0628171801

 59 61  0  0  0  0  0  0  0  0999 V2000
    1.1710   -1.4432    0.3910 C   0  0  0  0  0  0  0  0  0  0  0  0
    1.8772   -0.2949    0.5884 O   0  0  0  0  0  0  0  0  0  0  0  0
    1.5903   -2.5582    0.7821 O   0  0  0  0  0  0  0  0  0  0  0  0
   -0.0854   -1.3116   -0.1715 C   0  0  0  0  0  0  0  0  0  0  0  0
    3.1547   -0.1435    1.2041 C   0  0  2  0  0  0  0  0  0  0  0  0
   -1.1293   -1.5746    0.6381 N   0  0  0  0  0  0  0  0  0  0  0  0
   -0.2799   -0.8491   -1.4400 C   0  0  0  0  0  0  0  0  0  0  0  0
    3.1242   -0.5319    2.5862 O   0  0  0  0  0  0  0  0  0  0  0  0
   -2.5185   -1.6820    0.3652 C   0  0  1  0  0  0  0  0  0  0  0  0
   -1.2895   -1.6885    1.9640 C   0  0  0  0  0  0  0  0  0  0  0  0
    0.8434   -0.6714   -2.3696 C   0  0  0  0  0  0  0  0  0  0  0  0
   -1.6160   -0.4923   -1.9586 C   0  0  2  0  0  0  0  0  0  0  0  0
    4.1916   -0.4951    3.4480 C   0  0  0  0  0  0  0  0  0  0  0  0
   -2.7495   -1.6756    1.9059 C   0  0  1  0  0  0  0  0  0  0  0  0
   -2.9195   -0.2559   -0.6896 S   0  0  0  0  0  0  0  0  0  0  0  0
   -0.4900   -1.7059    2.9279 O   0  0  0  0  0  0  0  0  0  0  0  0
    4.0974   -1.0033    4.8555 C   0  0  2  0  0  0  0  0  0  0  0  0
    5.2915   -0.0553    3.0323 O   0  0  0  0  0  0  0  0  0  0  0  0
   -3.2396   -0.4642    2.4908 N   0  0  0  0  0  0  0  0  0  0  0  0
    4.9915   -2.2810    4.9679 C   0  0  0  0  0  0  0  0  0  0  0  0
    2.6225   -1.3572    5.2405 C   0  0  0  0  0  0  0  0  0  0  0  0
    4.6181    0.0831    5.8527 C   0  0  0  0  0  0  0  0  0  0  0  0
   -3.9766   -0.3868    3.6324 C   0  0  0  0  0  0  0  0  0  0  0  0
   -4.3070    0.9356    4.2137 C   0  0  2  0  0  0  0  0  0  0  0  0
   -4.3567   -1.4292    4.2190 O   0  0  0  0  0  0  0  0  0  0  0  0
   -3.7284    1.0100    5.5624 N   0  0  1  0  0  0  0  0  0  0  0  0
   -5.7791    1.1917    4.2326 C   0  0  0  0  0  0  0  0  0  0  0  0
   -6.6370    0.4586    5.0906 C   0  0  0  0  0  0  0  0  0  0  0  0
   -6.3569    2.1676    3.3846 C   0  0  0  0  0  0  0  0  0  0  0  0
   -8.0262    0.6808    5.0888 C   0  0  0  0  0  0  0  0  0  0  0  0
   -7.7472    2.3926    3.3800 C   0  0  0  0  0  0  0  0  0  0  0  0
   -8.5803    1.6449    4.2308 C   0  0  0  0  0  0  0  0  0  0  0  0
   -2.7633   -2.6352   -0.1159 H   0  0  0  0  0  0  0  0  0  0  0  0
    3.4308    0.9089    1.1288 H   0  0  0  0  0  0  0  0  0  0  0  0
    3.8881   -0.7391    0.6579 H   0  0  0  0  0  0  0  0  0  0  0  0
    1.5097    0.1212   -2.0230 H   0  0  0  0  0  0  0  0  0  0  0  0
    0.5182   -0.4113   -3.3779 H   0  0  0  0  0  0  0  0  0  0  0  0
    1.4054   -1.6023   -2.4619 H   0  0  0  0  0  0  0  0  0  0  0  0
   -1.9444   -1.2762   -2.6432 H   0  0  0  0  0  0  0  0  0  0  0  0
   -1.5693    0.4474   -2.5132 H   0  0  0  0  0  0  0  0  0  0  0  0
   -3.1869   -2.6066    2.2785 H   0  0  0  0  0  0  0  0  0  0  0  0
   -2.9912    0.3726    2.0640 H   0  0  0  0  0  0  0  0  0  0  0  0
    4.6653   -3.0481    4.2605 H   0  0  0  0  0  0  0  0  0  0  0  0
    6.0379   -2.0470    4.7522 H   0  0  0  0  0  0  0  0  0  0  0  0
    4.9482   -2.7051    5.9737 H   0  0  0  0  0  0  0  0  0  0  0  0
    2.2183   -2.1302    4.5828 H   0  0  0  0  0  0  0  0  0  0  0  0
    1.9831   -0.4739    5.1626 H   0  0  0  0  0  0  0  0  0  0  0  0
    2.5629   -1.7247    6.2684 H   0  0  0  0  0  0  0  0  0  0  0  0
    4.0343    1.0022    5.7624 H   0  0  0  0  0  0  0  0  0  0  0  0
    5.6669    0.3241    5.6612 H   0  0  0  0  0  0  0  0  0  0  0  0
    4.5421   -0.2667    6.8855 H   0  0  0  0  0  0  0  0  0  0  0  0
   -3.7969    1.7116    3.6347 H   0  0  0  0  0  0  0  0  0  0  0  0
   -3.9960    1.9097    5.9639 H   0  0  0  0  0  0  0  0  0  0  0  0
   -4.1785    0.2834    6.1237 H   0  0  0  0  0  0  0  0  0  0  0  0
   -6.2571   -0.2458    5.7272 H   0  0  0  0  0  0  0  0  0  0  0  0
   -5.7703    2.7219    2.7576 H   0  0  0  0  0  0  0  0  0  0  0  0
   -8.6315    0.1406    5.7113 H   0  0  0  0  0  0  0  0  0  0  0  0
   -8.1524    3.0972    2.7578 H   0  0  0  0  0  0  0  0  0  0  0  0
   -9.5894    1.8001    4.2242 H   0  0  0  0  0  0  0  0  0  0  0  0
  1  2  1  0  0  0  0 
  1  3  2  0  0  0  0 
  1  4  1  0  0  0  0 
  2  5  1  0  0  0  0 
  4  6  1  0  0  0  0 
  4  7  2  0  0  0  0 
  5  8  1  0  0  0  0 
  9  6  1  0  0  0  0 
  6 10  1  0  0  0  0 
  7 11  1  0  0  0  0 
  7 12  1  0  0  0  0 
  8 13  1  0  0  0  0 
 14  9  1  0  0  0  0 
  9 15  1  0  0  0  0 
  9 33  1  0  0  0  0 
 14 10  1  0  0  0  0 
 10 16  2  0  0  0  0 
 12 15  1  0  0  0  0 
 13 17  1  0  0  0  0 
 13 18  2  0  0  0  0 
 14 19  1  0  0  0  0 
 17 20  1  0  0  0  0 
 17 21  1  0  0  0  0 
 17 22  1  0  0  0  0 
 19 23  1  0  0  0  0 
 24 23  1  0  0  0  0 
 23 25  2  0  0  0  0 
 24 26  1  0  0  0  0 
 24 27  1  0  0  0  0 
 27 28  2  0  0  0  0 
 27 29  1  0  0  0  0 
 28 30  1  0  0  0  0 
 29 31  2  0  0  0  0 
 30 32  2  0  0  0  0 
 31 32  1  0  0  0  0 
  5 34  1  0  0  0  0 
  5 35  1  0  0  0  0 
 11 36  1  0  0  0  0 
 11 37  1  0  0  0  0 
 11 38  1  0  0  0  0 
 12 39  1  0  0  0  0 
 12 40  1  0  0  0  0 
 14 41  1  0  0  0  0 
 19 42  1  0  0  0  0 
 20 43  1  0  0  0  0 
 20 44  1  0  0  0  0 
 20 45  1  0  0  0  0 
 21 46  1  0  0  0  0 
 21 47  1  0  0  0  0 
 21 48  1  0  0  0  0 
 22 49  1  0  0  0  0 
 22 50  1  0  0  0  0 
 22 51  1  0  0  0  0 
 24 52  1  0  0  0  0 
 26 53  1  0  0  0  0 
 26 54  1  0  0  0  0 
 28 55  1  0  0  0  0 
 29 56  1  0  0  0  0 
 30 57  1  0  0  0  0 
 31 58  1  0  0  0  0 
 32 59  1  0  0  0  0 
M  END
> <cdk:Title>
cefalexin pivoxil

> <Conformer>
1

> <SuperDrugID>
SD001990

$$$$
