sodium thiosalicylate
  CDK     0628171802

 16 16  0  0  0  0  0  0  0  0999 V2000
   -0.0327   -1.7707    0.0482 C   0  0  0  0  0  0  0  0  0  0  0  0
    1.2573   -1.7749   -0.5481 C   0  0  0  0  0  0  0  0  0  0  0  0
    1.4776   -1.2590   -1.8378 C   0  0  0  0  0  0  0  0  0  0  0  0
    0.4082   -0.7218   -2.5685 C   0  0  0  0  0  0  0  0  0  0  0  0
   -0.8781   -0.7031   -2.0069 C   0  0  0  0  0  0  0  0  0  0  0  0
   -1.1114   -1.2190   -0.7120 C   0  0  0  0  0  0  0  0  0  0  0  0
   -0.1684   -2.3253    1.3608 C   0  0  0  0  0  0  0  0  0  0  0  0
   -2.7712   -1.1187   -0.1734 S   0  0  0  0  0  0  0  0  0  0  0  0
    0.8934   -2.8366    2.0345 O   0  0  0  0  0  0  0  0  0  0  0  0
   -1.2535   -2.3895    1.9815 O   0  0  0  0  0  0  0  0  0  0  0  0
    2.0657   -2.1594   -0.0518 H   0  0  0  0  0  0  0  0  0  0  0  0
    2.4155   -1.2756   -2.2464 H   0  0  0  0  0  0  0  0  0  0  0  0
    0.5649   -0.3460   -3.5080 H   0  0  0  0  0  0  0  0  0  0  0  0
   -1.6449   -0.3043   -2.5586 H   0  0  0  0  0  0  0  0  0  0  0  0
   -2.4591   -0.5792    1.0365 H   0  0  0  0  0  0  0  0  0  0  0  0
    0.7737   -3.2191    2.9296 H   0  0  0  0  0  0  0  0  0  0  0  0
  1  2  2  0  0  0  0 
  1  6  1  0  0  0  0 
  2  3  1  0  0  0  0 
  3  4  2  0  0  0  0 
  4  5  1  0  0  0  0 
  5  6  2  0  0  0  0 
  1  7  1  0  0  0  0 
  6  8  1  0  0  0  0 
  7  9  1  0  0  0  0 
  7 10  2  0  0  0  0 
  2 11  1  0  0  0  0 
  3 12  1  0  0  0  0 
  4 13  1  0  0  0  0 
  5 14  1  0  0  0  0 
  8 15  1  0  0  0  0 
  9 16  1  0  0  0  0 
M  END
> <cdk:Title>
sodium thiosalicylate

> <Conformer>
1

> <SuperDrugID>
SD003801

$$$$
