praziquantel
  CDK     0628171801

 47 50  0  0  0  0  0  0  0  0999 V2000
    0.2738   -4.8086    0.2244 O   0  0  0  0  0  0  0  0  0  0  0  0
    0.5148   -3.6384    0.6059 C   0  0  0  0  0  0  0  0  0  0  0  0
    1.7999   -3.2102    0.9069 N   0  0  0  0  0  0  0  0  0  0  0  0
   -0.6632   -2.7399    0.7126 C   0  0  2  0  0  0  0  0  0  0  0  0
    2.0300   -1.8486    1.3854 C   0  0  2  0  0  0  0  0  0  0  0  0
    2.9522   -4.0651    0.7010 C   0  0  1  0  0  0  0  0  0  0  0  0
   -0.3630   -1.3972    1.1817 N   0  0  0  0  0  0  0  0  0  0  0  0
    3.2586   -1.6765    2.2354 C   0  0  0  0  0  0  0  0  0  0  0  0
    0.7499   -1.3121    2.1061 C   0  0  1  0  0  0  0  0  0  0  0  0
    3.8276   -4.1290    1.9749 C   0  0  1  0  0  0  0  0  0  0  0  0
   -1.1315   -0.3042    0.7640 C   0  0  0  0  0  0  0  0  0  0  0  0
    4.0939   -2.7851    2.5463 C   0  0  0  0  0  0  0  0  0  0  0  0
    3.6304   -0.3946    2.7160 C   0  0  0  0  0  0  0  0  0  0  0  0
   -2.1163   -0.5193    0.0140 O   0  0  0  0  0  0  0  0  0  0  0  0
   -0.8869    1.1342    1.1248 C   0  0  2  0  0  0  0  0  0  0  0  0
    5.2124   -2.6085    3.3938 C   0  0  0  0  0  0  0  0  0  0  0  0
    4.7546   -0.2270    3.5414 C   0  0  0  0  0  0  0  0  0  0  0  0
   -2.1277    2.0679    0.9380 C   0  0  1  0  0  0  0  0  0  0  0  0
    0.3275    1.7269    0.3397 C   0  0  2  0  0  0  0  0  0  0  0  0
    5.5399   -1.3366    3.8904 C   0  0  0  0  0  0  0  0  0  0  0  0
   -1.8333    3.5277    1.3709 C   0  0  2  0  0  0  0  0  0  0  0  0
    0.6332    3.1951    0.7422 C   0  0  2  0  0  0  0  0  0  0  0  0
   -0.6099    4.1150    0.6230 C   0  0  2  0  0  0  0  0  0  0  0  0
    2.1902   -1.2393    0.4902 H   0  0  0  0  0  0  0  0  0  0  0  0
   -1.3797   -3.1819    1.4100 H   0  0  0  0  0  0  0  0  0  0  0  0
   -1.1150   -2.7212   -0.2851 H   0  0  0  0  0  0  0  0  0  0  0  0
    2.6939   -5.0897    0.4155 H   0  0  0  0  0  0  0  0  0  0  0  0
    3.5478   -3.6470   -0.1180 H   0  0  0  0  0  0  0  0  0  0  0  0
    0.5316   -1.9304    2.9828 H   0  0  0  0  0  0  0  0  0  0  0  0
    0.9180   -0.3098    2.4861 H   0  0  0  0  0  0  0  0  0  0  0  0
    3.3450   -4.7478    2.7359 H   0  0  0  0  0  0  0  0  0  0  0  0
    4.7747   -4.6036    1.6986 H   0  0  0  0  0  0  0  0  0  0  0  0
    3.0869    0.4350    2.4689 H   0  0  0  0  0  0  0  0  0  0  0  0
   -0.6773    1.1677    2.1950 H   0  0  0  0  0  0  0  0  0  0  0  0
    5.8061   -3.4040    3.6416 H   0  0  0  0  0  0  0  0  0  0  0  0
    4.9993    0.7041    3.8884 H   0  0  0  0  0  0  0  0  0  0  0  0
   -2.4443    2.0701   -0.1086 H   0  0  0  0  0  0  0  0  0  0  0  0
   -2.9613    1.6880    1.5348 H   0  0  0  0  0  0  0  0  0  0  0  0
    0.1239    1.6927   -0.7339 H   0  0  0  0  0  0  0  0  0  0  0  0
    1.2245    1.1330    0.5204 H   0  0  0  0  0  0  0  0  0  0  0  0
    6.3534   -1.2166    4.4972 H   0  0  0  0  0  0  0  0  0  0  0  0
   -1.6442    3.5538    2.4474 H   0  0  0  0  0  0  0  0  0  0  0  0
   -2.7151    4.1410    1.1709 H   0  0  0  0  0  0  0  0  0  0  0  0
    1.4316    3.5852    0.1055 H   0  0  0  0  0  0  0  0  0  0  0  0
    0.9969    3.2135    1.7728 H   0  0  0  0  0  0  0  0  0  0  0  0
   -0.3718    5.0964    1.0391 H   0  0  0  0  0  0  0  0  0  0  0  0
   -0.8598    4.2558   -0.4307 H   0  0  0  0  0  0  0  0  0  0  0  0
  1  2  2  0  0  0  0 
  2  3  1  0  0  0  0 
  2  4  1  0  0  0  0 
  5  3  1  0  0  0  0 
  3  6  1  0  0  0  0 
  4  7  1  0  0  0  0 
  5  8  1  0  0  0  0 
  5  9  1  0  0  0  0 
  6 10  1  0  0  0  0 
  7  9  1  0  0  0  0 
  7 11  1  0  0  0  0 
  8 12  2  0  0  0  0 
  8 13  1  0  0  0  0 
 10 12  1  0  0  0  0 
 11 14  2  0  0  0  0 
 11 15  1  0  0  0  0 
 12 16  1  0  0  0  0 
 13 17  2  0  0  0  0 
 15 18  1  0  0  0  0 
 15 19  1  0  0  0  0 
 16 20  2  0  0  0  0 
 17 20  1  0  0  0  0 
 18 21  1  0  0  0  0 
 19 22  1  0  0  0  0 
 21 23  1  0  0  0  0 
 22 23  1  0  0  0  0 
  5 24  1  0  0  0  0 
  4 25  1  0  0  0  0 
  4 26  1  0  0  0  0 
  6 27  1  0  0  0  0 
  6 28  1  0  0  0  0 
  9 29  1  0  0  0  0 
  9 30  1  0  0  0  0 
 10 31  1  0  0  0  0 
 10 32  1  0  0  0  0 
 13 33  1  0  0  0  0 
 15 34  1  0  0  0  0 
 16 35  1  0  0  0  0 
 17 36  1  0  0  0  0 
 18 37  1  0  0  0  0 
 18 38  1  0  0  0  0 
 19 39  1  0  0  0  0 
 19 40  1  0  0  0  0 
 20 41  1  0  0  0  0 
 21 42  1  0  0  0  0 
 21 43  1  0  0  0  0 
 22 44  1  0  0  0  0 
 22 45  1  0  0  0  0 
 23 46  1  0  0  0  0 
 23 47  1  0  0  0  0 
M  END
> <cdk:Title>
praziquantel

> <Conformer>
1

> <SuperDrugID>
SD002010

$$$$
