sulfametomidine
  CDK     0628171801

 34 35  0  0  0  0  0  0  0  0999 V2000
   -2.5667   -0.4411   -2.7765 N   0  0  0  0  0  0  0  0  0  0  0  0
   -2.3496    1.0990   -3.5045 S   0  0  1  0  0  0  0  0  0  0  0  0
   -3.2563   -1.4789   -3.3028 C   0  0  0  0  0  0  0  0  0  0  0  0
   -1.1579    0.9921   -4.5746 O   0  0  0  0  0  0  0  0  0  0  0  0
   -3.6901    1.5529   -4.2591 O   0  0  0  0  0  0  0  0  0  0  0  0
   -1.8860    2.2418   -2.2296 C   0  0  0  0  0  0  0  0  0  0  0  0
   -3.3413   -2.6683   -2.5549 C   0  0  0  0  0  0  0  0  0  0  0  0
   -3.8688   -1.4226   -4.5168 N   0  0  0  0  0  0  0  0  0  0  0  0
   -2.6132    3.4260   -1.9832 C   0  0  0  0  0  0  0  0  0  0  0  0
   -0.7631    1.9418   -1.4312 C   0  0  0  0  0  0  0  0  0  0  0  0
   -4.0693   -3.7470   -3.0890 C   0  0  0  0  0  0  0  0  0  0  0  0
   -4.5587   -2.4763   -5.0333 C   0  0  0  0  0  0  0  0  0  0  0  0
   -2.2188    4.2977   -0.9476 C   0  0  0  0  0  0  0  0  0  0  0  0
   -0.3709    2.8104   -0.3965 C   0  0  0  0  0  0  0  0  0  0  0  0
   -4.1910   -4.9173   -2.3949 O   0  0  0  0  0  0  0  0  0  0  0  0
   -4.6488   -3.6235   -4.3106 N   0  0  0  0  0  0  0  0  0  0  0  0
   -5.1975   -2.3927   -6.3558 C   0  0  0  0  0  0  0  0  0  0  0  0
   -1.0931    3.9954   -0.1531 C   0  0  0  0  0  0  0  0  0  0  0  0
   -5.3489   -4.9215   -1.5404 C   0  0  0  0  0  0  0  0  0  0  0  0
   -0.7032    4.8276    0.8327 N   0  0  0  0  0  0  0  0  0  0  0  0
   -2.1441   -0.5815   -1.9154 H   0  0  0  0  0  0  0  0  0  0  0  0
   -2.8938   -2.7526   -1.6392 H   0  0  0  0  0  0  0  0  0  0  0  0
   -3.4316    3.6608   -2.5501 H   0  0  0  0  0  0  0  0  0  0  0  0
   -0.2247    1.0870   -1.5952 H   0  0  0  0  0  0  0  0  0  0  0  0
   -2.7543    5.1527   -0.7765 H   0  0  0  0  0  0  0  0  0  0  0  0
    0.4432    2.5740    0.1757 H   0  0  0  0  0  0  0  0  0  0  0  0
   -6.2629   -2.6168   -6.2783 H   0  0  0  0  0  0  0  0  0  0  0  0
   -5.0829   -1.3951   -6.7823 H   0  0  0  0  0  0  0  0  0  0  0  0
   -4.7338   -3.1146   -7.0287 H   0  0  0  0  0  0  0  0  0  0  0  0
   -5.3879   -5.8768   -1.0179 H   0  0  0  0  0  0  0  0  0  0  0  0
   -5.2969   -4.1294   -0.7880 H   0  0  0  0  0  0  0  0  0  0  0  0
   -6.2697   -4.8145   -2.1196 H   0  0  0  0  0  0  0  0  0  0  0  0
   -1.1950    5.6475    1.0029 H   0  0  0  0  0  0  0  0  0  0  0  0
    0.0733    4.6058    1.3731 H   0  0  0  0  0  0  0  0  0  0  0  0
  1  2  1  0  0  0  0 
  1  3  1  0  0  0  0 
  2  4  2  0  0  0  0 
  2  5  2  0  0  0  0 
  2  6  1  0  0  0  0 
  3  7  2  0  0  0  0 
  3  8  1  0  0  0  0 
  6  9  2  0  0  0  0 
  6 10  1  0  0  0  0 
  7 11  1  0  0  0  0 
  8 12  2  0  0  0  0 
  9 13  1  0  0  0  0 
 10 14  2  0  0  0  0 
 11 15  1  0  0  0  0 
 11 16  2  0  0  0  0 
 12 16  1  0  0  0  0 
 12 17  1  0  0  0  0 
 13 18  2  0  0  0  0 
 14 18  1  0  0  0  0 
 15 19  1  0  0  0  0 
 18 20  1  0  0  0  0 
  1 21  1  0  0  0  0 
  7 22  1  0  0  0  0 
  9 23  1  0  0  0  0 
 10 24  1  0  0  0  0 
 13 25  1  0  0  0  0 
 14 26  1  0  0  0  0 
 17 27  1  0  0  0  0 
 17 28  1  0  0  0  0 
 17 29  1  0  0  0  0 
 19 30  1  0  0  0  0 
 19 31  1  0  0  0  0 
 19 32  1  0  0  0  0 
 20 33  1  0  0  0  0 
 20 34  1  0  0  0  0 
M  END
> <cdk:Title>
sulfametomidine

> <Conformer>
1

> <SuperDrugID>
SD002259

$$$$
