cefcapene
  CDK     0628171801

 49 51  0  0  0  0  0  0  0  0999 V2000
   -4.8639   -3.6856   -0.0642 N   0  0  0  0  0  0  0  0  0  0  0  0
   -6.1716   -3.5863   -0.4034 C   0  0  0  0  0  0  0  0  0  0  0  0
   -6.4939   -2.7124   -1.4397 C   0  0  0  0  0  0  0  0  0  0  0  0
   -7.0552   -4.2605    0.1780 O   0  0  0  0  0  0  0  0  0  0  0  0
   -7.3521   -1.6799   -1.2667 C   0  0  0  0  0  0  0  0  0  0  0  0
   -5.8595   -2.9067   -2.6798 C   0  0  0  0  0  0  0  0  0  0  0  0
   -5.5133   -1.8644   -3.4986 N   0  0  0  0  0  0  0  0  0  0  0  0
   -4.8779   -2.1528   -4.6574 C   0  0  0  0  0  0  0  0  0  0  0  0
   -4.7305   -3.8979   -4.7320 S   0  0  0  0  0  0  0  0  0  0  0  0
   -5.5013   -4.1732   -3.1838 C   0  0  0  0  0  0  0  0  0  0  0  0
   -4.4194   -1.2807   -5.5659 N   0  0  0  0  0  0  0  0  0  0  0  0
   -8.0260   -1.2967   -0.0309 C   0  0  1  0  0  0  0  0  0  0  0  0
   -7.0869   -0.6144    0.9918 C   0  0  0  0  0  0  0  0  0  0  0  0
   -4.2982   -4.5137    0.9478 C   0  0  1  0  0  0  0  0  0  0  0  0
   -3.0287   -5.3016    0.5107 C   0  0  2  0  0  0  0  0  0  0  0  0
   -2.2643   -4.3362    1.2217 N   0  0  0  0  0  0  0  0  0  0  0  0
   -3.3505   -3.7173    1.7173 C   0  0  0  0  0  0  0  0  0  0  0  0
   -3.5122   -2.7166    2.4526 O   0  0  0  0  0  0  0  0  0  0  0  0
   -0.9485   -4.0213    1.1908 C   0  0  0  0  0  0  0  0  0  0  0  0
   -0.1801   -4.3970    0.1237 C   0  0  0  0  0  0  0  0  0  0  0  0
   -2.4920   -5.2389   -1.2255 S   0  0  0  0  0  0  0  0  0  0  0  0
   -0.6852   -5.2591   -0.9667 C   0  0  2  0  0  0  0  0  0  0  0  0
   -0.4806   -3.2662    2.2676 C   0  0  0  0  0  0  0  0  0  0  0  0
   -0.8395   -3.5977    3.5326 O   0  0  0  0  0  0  0  0  0  0  0  0
    0.2442   -2.2545    2.1257 O   0  0  0  0  0  0  0  0  0  0  0  0
    1.2092   -3.9557   -0.0503 C   0  0  1  0  0  0  0  0  0  0  0  0
    1.1459   -2.6942   -0.7262 O   0  0  0  0  0  0  0  0  0  0  0  0
    2.1921   -1.9211   -1.1193 C   0  0  0  0  0  0  0  0  0  0  0  0
    1.9304   -0.7852   -1.7836 N   0  0  0  0  0  0  0  0  0  0  0  0
    3.3817   -2.2325   -0.8839 O   0  0  0  0  0  0  0  0  0  0  0  0
   -4.2433   -3.1276   -0.5625 H   0  0  0  0  0  0  0  0  0  0  0  0
   -7.5408   -1.0931   -2.0468 H   0  0  0  0  0  0  0  0  0  0  0  0
   -5.6528   -5.0830   -2.7475 H   0  0  0  0  0  0  0  0  0  0  0  0
   -3.9586   -1.6051   -6.3554 H   0  0  0  0  0  0  0  0  0  0  0  0
   -4.5416   -0.3291   -5.4280 H   0  0  0  0  0  0  0  0  0  0  0  0
   -8.8275   -0.5913   -0.2730 H   0  0  0  0  0  0  0  0  0  0  0  0
   -8.5066   -2.1632    0.4312 H   0  0  0  0  0  0  0  0  0  0  0  0
   -7.6597   -0.3323    1.8776 H   0  0  0  0  0  0  0  0  0  0  0  0
   -6.2853   -1.2839    1.3036 H   0  0  0  0  0  0  0  0  0  0  0  0
   -6.6434    0.2861    0.5614 H   0  0  0  0  0  0  0  0  0  0  0  0
   -4.9917   -5.0805    1.5733 H   0  0  0  0  0  0  0  0  0  0  0  0
   -2.9351   -6.2990    0.9534 H   0  0  0  0  0  0  0  0  0  0  0  0
   -0.3953   -6.2881   -0.7420 H   0  0  0  0  0  0  0  0  0  0  0  0
   -0.2444   -4.9889   -1.9316 H   0  0  0  0  0  0  0  0  0  0  0  0
   -0.5100   -3.0749    4.2955 H   0  0  0  0  0  0  0  0  0  0  0  0
    1.7438   -3.8666    0.8969 H   0  0  0  0  0  0  0  0  0  0  0  0
    1.7851   -4.6554   -0.6639 H   0  0  0  0  0  0  0  0  0  0  0  0
    2.6571   -0.2104   -2.0721 H   0  0  0  0  0  0  0  0  0  0  0  0
    1.0128   -0.5385   -1.9824 H   0  0  0  0  0  0  0  0  0  0  0  0
  1  2  1  0  0  0  0 
  2  3  1  0  0  0  0 
  2  4  2  0  0  0  0 
  3  5  2  0  0  0  0 
  3  6  1  0  0  0  0 
  6  7  1  0  0  0  0 
  7  8  2  0  0  0  0 
  8  9  1  0  0  0  0 
  9 10  1  0  0  0  0 
  6 10  2  0  0  0  0 
  8 11  1  0  0  0  0 
  5 12  1  0  0  0  0 
 12 13  1  0  0  0  0 
 14 15  1  0  0  0  0 
 15 16  1  0  0  0  0 
 16 17  1  0  0  0  0 
 14 17  1  0  0  0  0 
 17 18  2  0  0  0  0 
 16 19  1  0  0  0  0 
 19 20  2  0  0  0  0 
 15 21  1  0  0  0  0 
 21 22  1  0  0  0  0 
 20 22  1  0  0  0  0 
 19 23  1  0  0  0  0 
 23 24  1  0  0  0  0 
 23 25  2  0  0  0  0 
 26 27  1  0  0  0  0 
 27 28  1  0  0  0  0 
 28 29  1  0  0  0  0 
 28 30  2  0  0  0  0 
 20 26  1  0  0  0  0 
 14  1  1  0  0  0  0 
 31  1  1  0  0  0  0 
  5 32  1  0  0  0  0 
 33 10  1  0  0  0  0 
 34 11  1  0  0  0  0 
 35 11  1  0  0  0  0 
 36 12  1  0  0  0  0 
 37 12  1  0  0  0  0 
 38 13  1  0  0  0  0 
 39 13  1  0  0  0  0 
 40 13  1  0  0  0  0 
 14 41  1  0  0  0  0 
 15 42  1  0  0  0  0 
 43 22  1  0  0  0  0 
 44 22  1  0  0  0  0 
 45 24  1  0  0  0  0 
 46 26  1  0  0  0  0 
 47 26  1  0  0  0  0 
 48 29  1  0  0  0  0 
 49 29  1  0  0  0  0 
M  END
> <cdk:Title>
cefcapene

> <Conformer>
1

> <SuperDrugID>
SD003391

$$$$
