cefuroxime pivoxetil
  CDK     0628171802

 67 69  0  0  0  0  0  0  0  0999 V2000
   -2.3272    2.7355    1.6602 C   0  0  0  0  0  0  0  0  0  0  0  0
   -3.4268    2.5571    2.4258 N   0  0  0  0  0  0  0  0  0  0  0  0
   -4.2922    3.4766    3.0801 C   0  0  2  0  0  0  0  0  0  0  0  0
   -3.2516    4.8065    3.7591 S   0  0  0  0  0  0  0  0  0  0  0  0
   -2.2255    5.1447    2.2871 C   0  0  1  0  0  0  0  0  0  0  0  0
   -1.7216    3.9548    1.5764 C   0  0  0  0  0  0  0  0  0  0  0  0
   -4.7546    2.2873    3.9797 C   0  0  1  0  0  0  0  0  0  0  0  0
   -3.9449    1.4927    3.0552 C   0  0  0  0  0  0  0  0  0  0  0  0
   -1.7922    1.5938    1.0777 C   0  0  0  0  0  0  0  0  0  0  0  0
   -0.5415    1.2037    1.4624 O   0  0  0  0  0  0  0  0  0  0  0  0
   -2.4730    0.9077    0.2776 O   0  0  0  0  0  0  0  0  0  0  0  0
   -0.4957    4.1805    0.7984 C   0  0  1  0  0  0  0  0  0  0  0  0
    0.6181    4.0064    1.6826 O   0  0  0  0  0  0  0  0  0  0  0  0
    1.9327    4.1623    1.3741 C   0  0  0  0  0  0  0  0  0  0  0  0
    2.8401    3.9682    2.3425 N   0  0  0  0  0  0  0  0  0  0  0  0
    2.3149    4.4855    0.2268 O   0  0  0  0  0  0  0  0  0  0  0  0
   -3.7074    0.2643    3.0064 O   0  0  0  0  0  0  0  0  0  0  0  0
   -4.1516    2.2846    5.2749 N   0  0  0  0  0  0  0  0  0  0  0  0
   -4.0055    1.2061    6.0879 C   0  0  0  0  0  0  0  0  0  0  0  0
   -3.0248    1.2198    7.0745 C   0  0  0  0  0  0  0  0  0  0  0  0
   -4.6920    0.1717    5.9050 O   0  0  0  0  0  0  0  0  0  0  0  0
   -1.7585    1.7485    6.8055 C   0  0  0  0  0  0  0  0  0  0  0  0
   -3.2249    0.7145    8.2407 N   0  0  0  0  0  0  0  0  0  0  0  0
   -4.3078    0.1997    8.6850 O   0  0  0  0  0  0  0  0  0  0  0  0
   -4.0110   -0.7604    9.7067 C   0  0  0  0  0  0  0  0  0  0  0  0
   -1.4133    2.4496    5.6922 O   0  0  0  0  0  0  0  0  0  0  0  0
   -0.1054    2.7909    5.7586 C   0  0  0  0  0  0  0  0  0  0  0  0
    0.4267    2.2906    6.9382 C   0  0  0  0  0  0  0  0  0  0  0  0
   -0.6098    1.6442    7.5958 C   0  0  0  0  0  0  0  0  0  0  0  0
    0.1699    0.0296    1.0598 C   0  0  1  0  0  0  0  0  0  0  0  0
    1.5605    0.0937    1.7267 C   0  0  0  0  0  0  0  0  0  0  0  0
   -0.5659   -1.1318    1.4743 O   0  0  0  0  0  0  0  0  0  0  0  0
   -0.2912   -2.4428    1.1896 C   0  0  0  0  0  0  0  0  0  0  0  0
    0.6840   -2.7279    0.4528 O   0  0  0  0  0  0  0  0  0  0  0  0
   -1.0991   -3.5487    1.7904 C   0  0  2  0  0  0  0  0  0  0  0  0
   -1.6171   -4.4888    0.6572 C   0  0  0  0  0  0  0  0  0  0  0  0
   -2.3366   -3.0326    2.5949 C   0  0  0  0  0  0  0  0  0  0  0  0
   -0.2294   -4.3826    2.6046 O   0  0  0  0  0  0  0  0  0  0  0  0
    0.3706   -3.8236    3.7939 C   0  0  0  0  0  0  0  0  0  0  0  0
   -5.0669    3.8581    2.4049 H   0  0  0  0  0  0  0  0  0  0  0  0
   -2.8259    5.7305    1.5909 H   0  0  0  0  0  0  0  0  0  0  0  0
   -1.4017    5.7711    2.6374 H   0  0  0  0  0  0  0  0  0  0  0  0
   -5.8219    2.0650    3.9413 H   0  0  0  0  0  0  0  0  0  0  0  0
   -0.4001    3.4983   -0.0506 H   0  0  0  0  0  0  0  0  0  0  0  0
   -0.4798    5.1936    0.3842 H   0  0  0  0  0  0  0  0  0  0  0  0
    3.7867    4.0805    2.1588 H   0  0  0  0  0  0  0  0  0  0  0  0
    2.5486    3.7174    3.2338 H   0  0  0  0  0  0  0  0  0  0  0  0
   -3.7156    3.1044    5.5570 H   0  0  0  0  0  0  0  0  0  0  0  0
   -4.9523   -1.0870   10.1511 H   0  0  0  0  0  0  0  0  0  0  0  0
   -3.5144   -1.6318    9.2722 H   0  0  0  0  0  0  0  0  0  0  0  0
   -3.3862   -0.3405   10.5018 H   0  0  0  0  0  0  0  0  0  0  0  0
    0.4032    3.3265    5.0532 H   0  0  0  0  0  0  0  0  0  0  0  0
    1.3930    2.3784    7.2604 H   0  0  0  0  0  0  0  0  0  0  0  0
   -0.5352    1.1658    8.4943 H   0  0  0  0  0  0  0  0  0  0  0  0
    0.2771    0.0336   -0.0259 H   0  0  0  0  0  0  0  0  0  0  0  0
    2.1924   -0.7259    1.3859 H   0  0  0  0  0  0  0  0  0  0  0  0
    1.4600    0.0324    2.8116 H   0  0  0  0  0  0  0  0  0  0  0  0
    2.0531    1.0338    1.4751 H   0  0  0  0  0  0  0  0  0  0  0  0
   -2.2719   -3.9500   -0.0320 H   0  0  0  0  0  0  0  0  0  0  0  0
   -0.7855   -4.9056    0.0837 H   0  0  0  0  0  0  0  0  0  0  0  0
   -2.1784   -5.3258    1.0793 H   0  0  0  0  0  0  0  0  0  0  0  0
   -2.8474   -3.8628    3.0850 H   0  0  0  0  0  0  0  0  0  0  0  0
   -3.0478   -2.5340    1.9327 H   0  0  0  0  0  0  0  0  0  0  0  0
   -2.0375   -2.3194    3.3638 H   0  0  0  0  0  0  0  0  0  0  0  0
    1.1336   -4.5171    4.1486 H   0  0  0  0  0  0  0  0  0  0  0  0
   -0.3727   -3.7055    4.5828 H   0  0  0  0  0  0  0  0  0  0  0  0
    0.8537   -2.8634    3.6049 H   0  0  0  0  0  0  0  0  0  0  0  0
  1  2  1  0  0  0  0 
  3  2  1  0  0  0  0 
  3  4  1  0  0  0  0 
  4  5  1  0  0  0  0 
  5  6  1  0  0  0  0 
  1  6  2  0  0  0  0 
  7  8  1  0  0  0  0 
  8  2  1  0  0  0  0 
  3  7  1  0  0  0  0 
  1  9  1  0  0  0  0 
  9 10  1  0  0  0  0 
  9 11  2  0  0  0  0 
  6 12  1  0  0  0  0 
 12 13  1  0  0  0  0 
 13 14  1  0  0  0  0 
 14 15  1  0  0  0  0 
 14 16  2  0  0  0  0 
  8 17  2  0  0  0  0 
  7 18  1  0  0  0  0 
 18 19  1  0  0  0  0 
 19 20  1  0  0  0  0 
 19 21  2  0  0  0  0 
 20 22  1  0  0  0  0 
 20 23  2  0  0  0  0 
 23 24  1  0  0  0  0 
 24 25  1  0  0  0  0 
 26 27  1  0  0  0  0 
 27 28  2  0  0  0  0 
 28 29  1  0  0  0  0 
 22 26  1  0  0  0  0 
 22 29  2  0  0  0  0 
 10 30  1  0  0  0  0 
 30 31  1  0  0  0  0 
 30 32  1  0  0  0  0 
 32 33  1  0  0  0  0 
 33 34  2  0  0  0  0 
 33 35  1  0  0  0  0 
 35 36  1  0  0  0  0 
 35 37  1  0  0  0  0 
 35 38  1  0  0  0  0 
 38 39  1  0  0  0  0 
  3 40  1  0  0  0  0 
 41  5  1  0  0  0  0 
 42  5  1  0  0  0  0 
  7 43  1  0  0  0  0 
 44 12  1  0  0  0  0 
 45 12  1  0  0  0  0 
 46 15  1  0  0  0  0 
 47 15  1  0  0  0  0 
 48 18  1  0  0  0  0 
 49 25  1  0  0  0  0 
 50 25  1  0  0  0  0 
 51 25  1  0  0  0  0 
 52 27  1  0  0  0  0 
 53 28  1  0  0  0  0 
 54 29  1  0  0  0  0 
 55 30  1  0  0  0  0 
 56 31  1  0  0  0  0 
 57 31  1  0  0  0  0 
 58 31  1  0  0  0  0 
 59 36  1  0  0  0  0 
 60 36  1  0  0  0  0 
 61 36  1  0  0  0  0 
 62 37  1  0  0  0  0 
 63 37  1  0  0  0  0 
 64 37  1  0  0  0  0 
 65 39  1  0  0  0  0 
 66 39  1  0  0  0  0 
 67 39  1  0  0  0  0 
M  END
> <cdk:Title>
cefuroxime pivoxetil

> <Conformer>
1

> <SuperDrugID>
SD000494

$$$$
