trinitrophenol
  CDK     0628171802

 19 19  0  0  0  0  0  0  0  0999 V2000
   -3.1525    1.3560    0.2676 N   0  0  0  0  0  0  0  0  0  0  0  0
   -3.3899    0.2376    0.8286 O   0  0  0  0  0  0  0  0  0  0  0  0
   -4.1068    2.0210    0.1640 O   0  0  0  0  0  0  0  0  0  0  0  0
   -1.9200    1.7258   -0.1584 C   0  0  0  0  0  0  0  0  0  0  0  0
   -1.6602    2.9763   -0.7864 C   0  0  0  0  0  0  0  0  0  0  0  0
   -0.8219    0.8461    0.0150 C   0  0  0  0  0  0  0  0  0  0  0  0
   -2.6913    3.8407   -0.9805 O   0  0  0  0  0  0  0  0  0  0  0  0
   -0.3589    3.3499   -1.2269 C   0  0  0  0  0  0  0  0  0  0  0  0
    0.4930    1.1584   -0.4022 C   0  0  0  0  0  0  0  0  0  0  0  0
   -0.0938    4.5359   -1.8250 N   0  0  0  0  0  0  0  0  0  0  0  0
    0.6884    2.4172   -1.0187 C   0  0  0  0  0  0  0  0  0  0  0  0
    1.5112    0.2902   -0.2189 N   0  0  0  0  0  0  0  0  0  0  0  0
    1.0691    4.8723   -2.2215 O   0  0  0  0  0  0  0  0  0  0  0  0
   -0.8970    5.3578   -2.0319 O   0  0  0  0  0  0  0  0  0  0  0  0
    2.6092    0.5131   -0.5520 O   0  0  0  0  0  0  0  0  0  0  0  0
    1.3624   -0.8466    0.3300 O   0  0  0  0  0  0  0  0  0  0  0  0
   -0.9833   -0.0586    0.4622 H   0  0  0  0  0  0  0  0  0  0  0  0
   -2.7095    4.3921   -0.1702 H   0  0  0  0  0  0  0  0  0  0  0  0
    1.6324    2.6600   -1.3269 H   0  0  0  0  0  0  0  0  0  0  0  0
  1  2  1  0  0  0  0 
  1  3  2  0  0  0  0 
  1  4  1  0  0  0  0 
  4  5  2  0  0  0  0 
  4  6  1  0  0  0  0 
  5  7  1  0  0  0  0 
  5  8  1  0  0  0  0 
  6  9  2  0  0  0  0 
  8 10  1  0  0  0  0 
  8 11  2  0  0  0  0 
  9 11  1  0  0  0  0 
  9 12  1  0  0  0  0 
 10 13  1  0  0  0  0 
 10 14  2  0  0  0  0 
 12 15  2  0  0  0  0 
 12 16  1  0  0  0  0 
  6 17  1  0  0  0  0 
  7 18  1  0  0  0  0 
 11 19  1  0  0  0  0 
M  CHG  1   1   1
M  CHG  1   2  -1
M  CHG  1  10   1
M  CHG  1  12   1
M  CHG  1  13  -1
M  CHG  1  16  -1
M  END
> <cdk:Title>
trinitrophenol

> <Conformer>
1

> <SuperDrugID>
SD003669

$$$$
