dicycloverine
  CDK     0628171802

 57 58  0  0  0  0  0  0  0  0999 V2000
   -1.1139    3.0516    1.0610 C   0  0  0  0  0  0  0  0  0  0  0  0
   -0.2216    2.9763    2.0856 O   0  0  0  0  0  0  0  0  0  0  0  0
   -1.5119    4.1929    0.7237 O   0  0  0  0  0  0  0  0  0  0  0  0
   -1.6516    1.8147    0.3830 C   0  0  1  0  0  0  0  0  0  0  0  0
    0.3367    4.0174    2.8914 C   0  0  2  0  0  0  0  0  0  0  0  0
   -3.2099    1.7853    0.6533 C   0  0  2  0  0  0  0  0  0  0  0  0
   -1.5001    2.0151   -1.1786 C   0  0  1  0  0  0  0  0  0  0  0  0
   -0.9231    0.4699    0.8842 C   0  0  1  0  0  0  0  0  0  0  0  0
    1.1740    3.3438    4.0084 C   0  0  2  0  0  0  0  0  0  0  0  0
   -3.9824    0.7062   -0.1564 C   0  0  2  0  0  0  0  0  0  0  0  0
   -2.2255    0.9433   -2.0404 C   0  0  2  0  0  0  0  0  0  0  0  0
    0.6211    0.4109    0.5829 C   0  0  2  0  0  0  0  0  0  0  0  0
   -1.1999    0.0646    2.3806 C   0  0  1  0  0  0  0  0  0  0  0  0
    1.5881    4.2692    5.1247 N   0  0  2  0  0  0  0  0  0  0  0  0
   -3.7309    0.8395   -1.6812 C   0  0  1  0  0  0  0  0  0  0  0  0
    1.3052   -0.9002    1.0494 C   0  0  2  0  0  0  0  0  0  0  0  0
   -0.4748   -1.2327    2.8303 C   0  0  2  0  0  0  0  0  0  0  0  0
    2.8761    3.8529    5.7847 C   0  0  1  0  0  0  0  0  0  0  0  0
    0.4571    4.4797    6.1042 C   0  0  1  0  0  0  0  0  0  0  0  0
    1.0445   -1.1754    2.5481 C   0  0  1  0  0  0  0  0  0  0  0  0
    4.1448    3.9963    4.9080 C   0  0  0  0  0  0  0  0  0  0  0  0
    0.6529    5.5859    7.1690 C   0  0  0  0  0  0  0  0  0  0  0  0
   -0.4786    4.6068    3.3086 H   0  0  0  0  0  0  0  0  0  0  0  0
    0.9663    4.6674    2.2787 H   0  0  0  0  0  0  0  0  0  0  0  0
   -3.6563    2.7487    0.3853 H   0  0  0  0  0  0  0  0  0  0  0  0
   -3.4232    1.6537    1.7150 H   0  0  0  0  0  0  0  0  0  0  0  0
   -1.9241    2.9800   -1.4755 H   0  0  0  0  0  0  0  0  0  0  0  0
   -0.4508    2.0563   -1.4689 H   0  0  0  0  0  0  0  0  0  0  0  0
   -1.3428   -0.3586    0.3107 H   0  0  0  0  0  0  0  0  0  0  0  0
    2.0362    2.9110    3.5015 H   0  0  0  0  0  0  0  0  0  0  0  0
    0.6151    2.4974    4.4206 H   0  0  0  0  0  0  0  0  0  0  0  0
   -5.0540    0.8175    0.0331 H   0  0  0  0  0  0  0  0  0  0  0  0
   -3.6990   -0.2932    0.1803 H   0  0  0  0  0  0  0  0  0  0  0  0
   -1.7467   -0.0310   -1.9212 H   0  0  0  0  0  0  0  0  0  0  0  0
   -2.1345    1.2154   -3.0959 H   0  0  0  0  0  0  0  0  0  0  0  0
    1.1437    1.2407    1.0565 H   0  0  0  0  0  0  0  0  0  0  0  0
    0.8014    0.4882   -0.4891 H   0  0  0  0  0  0  0  0  0  0  0  0
   -0.9070    0.8602    3.0628 H   0  0  0  0  0  0  0  0  0  0  0  0
   -2.2659   -0.1118    2.5313 H   0  0  0  0  0  0  0  0  0  0  0  0
   -4.1645   -0.0236   -2.1940 H   0  0  0  0  0  0  0  0  0  0  0  0
   -4.2432    1.7344   -2.0468 H   0  0  0  0  0  0  0  0  0  0  0  0
    2.3830   -0.8235    0.8810 H   0  0  0  0  0  0  0  0  0  0  0  0
    0.9319   -1.7374    0.4520 H   0  0  0  0  0  0  0  0  0  0  0  0
   -0.9083   -2.0907    2.3073 H   0  0  0  0  0  0  0  0  0  0  0  0
   -0.6321   -1.3815    3.9024 H   0  0  0  0  0  0  0  0  0  0  0  0
    3.0666    4.4822    6.6536 H   0  0  0  0  0  0  0  0  0  0  0  0
    2.7990    2.8224    6.1423 H   0  0  0  0  0  0  0  0  0  0  0  0
   -0.4456    4.7629    5.5610 H   0  0  0  0  0  0  0  0  0  0  0  0
    0.2358    3.5423    6.6218 H   0  0  0  0  0  0  0  0  0  0  0  0
    1.5020   -2.1289    2.8249 H   0  0  0  0  0  0  0  0  0  0  0  0
    1.5066   -0.3910    3.1556 H   0  0  0  0  0  0  0  0  0  0  0  0
    4.1621    4.9720    4.4217 H   0  0  0  0  0  0  0  0  0  0  0  0
    5.0351    3.9037    5.5334 H   0  0  0  0  0  0  0  0  0  0  0  0
    4.1943    3.2176    4.1487 H   0  0  0  0  0  0  0  0  0  0  0  0
   -0.3026    5.8079    7.6492 H   0  0  0  0  0  0  0  0  0  0  0  0
    1.0318    6.4976    6.7069 H   0  0  0  0  0  0  0  0  0  0  0  0
    1.3427    5.2600    7.9474 H   0  0  0  0  0  0  0  0  0  0  0  0
  1  2  1  0  0  0  0 
  1  3  2  0  0  0  0 
  1  4  1  0  0  0  0 
  2  5  1  0  0  0  0 
  4  6  1  0  0  0  0 
  4  7  1  0  0  0  0 
  4  8  1  0  0  0  0 
  5  9  1  0  0  0  0 
  6 10  1  0  0  0  0 
  7 11  1  0  0  0  0 
  8 12  1  0  0  0  0 
  8 13  1  0  0  0  0 
  9 14  1  0  0  0  0 
 10 15  1  0  0  0  0 
 11 15  1  0  0  0  0 
 12 16  1  0  0  0  0 
 13 17  1  0  0  0  0 
 14 18  1  0  0  0  0 
 14 19  1  0  0  0  0 
 16 20  1  0  0  0  0 
 17 20  1  0  0  0  0 
 18 21  1  0  0  0  0 
 19 22  1  0  0  0  0 
  5 23  1  0  0  0  0 
  5 24  1  0  0  0  0 
  6 25  1  0  0  0  0 
  6 26  1  0  0  0  0 
  7 27  1  0  0  0  0 
  7 28  1  0  0  0  0 
  8 29  1  0  0  0  0 
  9 30  1  0  0  0  0 
  9 31  1  0  0  0  0 
 10 32  1  0  0  0  0 
 10 33  1  0  0  0  0 
 11 34  1  0  0  0  0 
 11 35  1  0  0  0  0 
 12 36  1  0  0  0  0 
 12 37  1  0  0  0  0 
 13 38  1  0  0  0  0 
 13 39  1  0  0  0  0 
 15 40  1  0  0  0  0 
 15 41  1  0  0  0  0 
 16 42  1  0  0  0  0 
 16 43  1  0  0  0  0 
 17 44  1  0  0  0  0 
 17 45  1  0  0  0  0 
 18 46  1  0  0  0  0 
 18 47  1  0  0  0  0 
 19 48  1  0  0  0  0 
 19 49  1  0  0  0  0 
 20 50  1  0  0  0  0 
 20 51  1  0  0  0  0 
 21 52  1  0  0  0  0 
 21 53  1  0  0  0  0 
 21 54  1  0  0  0  0 
 22 55  1  0  0  0  0 
 22 56  1  0  0  0  0 
 22 57  1  0  0  0  0 
M  END
> <cdk:Title>
dicycloverine

> <Conformer>
1

> <SuperDrugID>
SD000771

$$$$
