ombitasvir
  CDK     0628171802

132137  0  0  0  0  0  0  0  0999 V2000
    8.0311   -0.8753    2.1401 C   0  0  0  0  0  0  0  0  0  0  0  0
    7.8581    0.1715    1.2048 C   0  0  0  0  0  0  0  0  0  0  0  0
    8.9407    0.9687    0.7861 C   0  0  0  0  0  0  0  0  0  0  0  0
   10.2597    0.7718    1.2793 C   0  0  0  0  0  0  0  0  0  0  0  0
   10.4241   -0.3046    2.1908 C   0  0  0  0  0  0  0  0  0  0  0  0
    9.3454   -1.1057    2.6083 C   0  0  0  0  0  0  0  0  0  0  0  0
    6.9531   -1.6199    2.6128 N   0  0  0  0  0  0  0  0  0  0  0  0
    7.0134   -2.9946    3.0505 C   0  0  1  0  0  0  0  0  0  0  0  0
    5.5416   -3.4517    3.0677 C   0  0  1  0  0  0  0  0  0  0  0  0
    4.8027   -2.1818    3.4999 C   0  0  1  0  0  0  0  0  0  0  0  0
    5.6475   -1.0476    2.8646 C   0  0  1  0  0  0  0  0  0  0  0  0
    5.6743    0.1522    3.7622 C   0  0  0  0  0  0  0  0  0  0  0  0
    7.8765   -3.9603    2.3044 C   0  0  0  0  0  0  0  0  0  0  0  0
    8.1006   -3.8650    0.9109 C   0  0  0  0  0  0  0  0  0  0  0  0
    9.0257   -4.7157    0.2762 C   0  0  0  0  0  0  0  0  0  0  0  0
    9.7147   -5.7031    1.0113 C   0  0  0  0  0  0  0  0  0  0  0  0
    9.4245   -5.8603    2.3837 C   0  0  0  0  0  0  0  0  0  0  0  0
    8.5192   -4.9974    3.0198 C   0  0  0  0  0  0  0  0  0  0  0  0
   10.7119   -6.3920    0.3938 N   0  0  0  0  0  0  0  0  0  0  0  0
   11.1198   -7.6762    0.6143 C   0  0  0  0  0  0  0  0  0  0  0  0
    4.8234    1.2538    3.5174 C   0  0  0  0  0  0  0  0  0  0  0  0
    4.8194    2.3635    4.3832 C   0  0  0  0  0  0  0  0  0  0  0  0
    5.6801    2.4087    5.4997 C   0  0  0  0  0  0  0  0  0  0  0  0
    6.5389    1.3162    5.7458 C   0  0  0  0  0  0  0  0  0  0  0  0
    6.5272    0.1990    4.8930 C   0  0  0  0  0  0  0  0  0  0  0  0
    5.5896    3.4819    6.3328 N   0  0  0  0  0  0  0  0  0  0  0  0
    6.5908    4.1403    6.9914 C   0  0  0  0  0  0  0  0  0  0  0  0
    7.7964    3.8756    6.7680 O   0  0  0  0  0  0  0  0  0  0  0  0
   10.4031   -8.4834    1.2539 O   0  0  0  0  0  0  0  0  0  0  0  0
    6.2850    5.2000    7.9983 C   0  0  1  0  0  0  0  0  0  0  0  0
    4.8709    5.4273    8.2226 N   0  0  0  0  0  0  0  0  0  0  0  0
    4.4858    5.0547    9.5507 C   0  0  1  0  0  0  0  0  0  0  0  0
    5.7655    5.2173   10.3797 C   0  0  1  0  0  0  0  0  0  0  0  0
    6.8664    4.8255    9.3909 C   0  0  2  0  0  0  0  0  0  0  0  0
    4.0098    5.9110    7.2412 C   0  0  0  0  0  0  0  0  0  0  0  0
    2.5136    5.9465    7.2970 C   0  0  2  0  0  0  0  0  0  0  0  0
    4.5171    6.3147    6.1647 O   0  0  0  0  0  0  0  0  0  0  0  0
    1.9088    7.2029    8.0181 C   0  0  2  0  0  0  0  0  0  0  0  0
    0.3500    7.1684    7.9940 C   0  0  0  0  0  0  0  0  0  0  0  0
    2.4278    8.5358    7.4055 C   0  0  0  0  0  0  0  0  0  0  0  0
    2.0269    4.7198    7.8645 N   0  0  0  0  0  0  0  0  0  0  0  0
    1.5190    3.6655    7.1783 C   0  0  0  0  0  0  0  0  0  0  0  0
    1.4321    3.6569    5.8133 O   0  0  0  0  0  0  0  0  0  0  0  0
    1.1230    2.6935    7.8593 O   0  0  0  0  0  0  0  0  0  0  0  0
    0.8995    2.6095    4.9997 C   0  0  0  0  0  0  0  0  0  0  0  0
   12.4494   -8.1515    0.1322 C   0  0  1  0  0  0  0  0  0  0  0  0
   13.2286   -7.1520   -0.5726 N   0  0  0  0  0  0  0  0  0  0  0  0
   13.3336   -8.5849    1.3355 C   0  0  2  0  0  0  0  0  0  0  0  0
   14.7228   -8.0407    0.9948 C   0  0  2  0  0  0  0  0  0  0  0  0
   14.4032   -6.7909    0.1640 C   0  0  1  0  0  0  0  0  0  0  0  0
   12.8312   -6.6021   -1.7898 C   0  0  0  0  0  0  0  0  0  0  0  0
   13.3550   -5.3519   -2.4297 C   0  0  2  0  0  0  0  0  0  0  0  0
   11.8829   -7.1594   -2.3962 O   0  0  0  0  0  0  0  0  0  0  0  0
   14.6857   -5.5221   -3.2476 C   0  0  1  0  0  0  0  0  0  0  0  0
   13.4542   -4.3417   -1.4114 N   0  0  0  0  0  0  0  0  0  0  0  0
   14.5190   -6.5228   -4.4285 C   0  0  0  0  0  0  0  0  0  0  0  0
   15.2210   -4.1557   -3.7713 C   0  0  0  0  0  0  0  0  0  0  0  0
   12.6495   -3.2552   -1.2556 C   0  0  0  0  0  0  0  0  0  0  0  0
   11.5872   -3.0106   -2.0848 O   0  0  0  0  0  0  0  0  0  0  0  0
   12.9109   -2.4965   -0.2941 O   0  0  0  0  0  0  0  0  0  0  0  0
   10.6780   -1.9033   -2.0324 C   0  0  0  0  0  0  0  0  0  0  0  0
   11.4469    1.6581    0.9115 C   0  0  2  0  0  0  0  0  0  0  0  0
   12.6365    0.8086    0.3449 C   0  0  0  0  0  0  0  0  0  0  0  0
   11.9376    2.4205    2.1894 C   0  0  0  0  0  0  0  0  0  0  0  0
   11.1256    2.7479   -0.1727 C   0  0  0  0  0  0  0  0  0  0  0  0
    6.9327    0.3719    0.8180 H   0  0  0  0  0  0  0  0  0  0  0  0
    8.7319    1.7087    0.1153 H   0  0  0  0  0  0  0  0  0  0  0  0
   11.3437   -0.5154    2.5824 H   0  0  0  0  0  0  0  0  0  0  0  0
    9.5323   -1.8521    3.2805 H   0  0  0  0  0  0  0  0  0  0  0  0
    7.3618   -2.9499    4.0903 H   0  0  0  0  0  0  0  0  0  0  0  0
    5.2073   -3.7517    2.0693 H   0  0  0  0  0  0  0  0  0  0  0  0
    5.3765   -4.2742    3.7697 H   0  0  0  0  0  0  0  0  0  0  0  0
    3.7688   -2.1752    3.1429 H   0  0  0  0  0  0  0  0  0  0  0  0
    4.7938   -2.1307    4.5949 H   0  0  0  0  0  0  0  0  0  0  0  0
    5.1895   -0.8059    1.8990 H   0  0  0  0  0  0  0  0  0  0  0  0
    7.6117   -3.1608    0.3531 H   0  0  0  0  0  0  0  0  0  0  0  0
    9.2034   -4.6029   -0.7256 H   0  0  0  0  0  0  0  0  0  0  0  0
    9.8986   -6.5722    2.9425 H   0  0  0  0  0  0  0  0  0  0  0  0
    8.3508   -5.1191    4.0215 H   0  0  0  0  0  0  0  0  0  0  0  0
   11.2138   -5.8869   -0.2620 H   0  0  0  0  0  0  0  0  0  0  0  0
    4.1898    1.2506    2.7126 H   0  0  0  0  0  0  0  0  0  0  0  0
    4.1801    3.1406    4.1931 H   0  0  0  0  0  0  0  0  0  0  0  0
    7.1559    1.3103    6.5611 H   0  0  0  0  0  0  0  0  0  0  0  0
    7.1453   -0.5860    5.1109 H   0  0  0  0  0  0  0  0  0  0  0  0
    4.6939    3.8259    6.4622 H   0  0  0  0  0  0  0  0  0  0  0  0
    6.7418    6.1410    7.6724 H   0  0  0  0  0  0  0  0  0  0  0  0
    3.7054    5.6862    9.9753 H   0  0  0  0  0  0  0  0  0  0  0  0
    4.1555    4.0119    9.5607 H   0  0  0  0  0  0  0  0  0  0  0  0
    5.8857    6.2621   10.6801 H   0  0  0  0  0  0  0  0  0  0  0  0
    5.7596    4.5795   11.2678 H   0  0  0  0  0  0  0  0  0  0  0  0
    7.7918    5.3688    9.6041 H   0  0  0  0  0  0  0  0  0  0  0  0
    7.0581    3.7512    9.4852 H   0  0  0  0  0  0  0  0  0  0  0  0
    2.1583    6.0109    6.2611 H   0  0  0  0  0  0  0  0  0  0  0  0
    2.2063    7.1987    9.0703 H   0  0  0  0  0  0  0  0  0  0  0  0
   -0.0215    6.3050    8.5517 H   0  0  0  0  0  0  0  0  0  0  0  0
   -0.0659    8.0644    8.4609 H   0  0  0  0  0  0  0  0  0  0  0  0
   -0.0261    7.1050    6.9692 H   0  0  0  0  0  0  0  0  0  0  0  0
    3.5030    8.6299    7.5617 H   0  0  0  0  0  0  0  0  0  0  0  0
    1.9485    9.3904    7.8857 H   0  0  0  0  0  0  0  0  0  0  0  0
    2.2252    8.5780    6.3331 H   0  0  0  0  0  0  0  0  0  0  0  0
    2.0558    4.6382    8.8331 H   0  0  0  0  0  0  0  0  0  0  0  0
    0.8920    2.9400    3.9605 H   0  0  0  0  0  0  0  0  0  0  0  0
   -0.1229    2.3798    5.3065 H   0  0  0  0  0  0  0  0  0  0  0  0
    1.5205    1.7163    5.0815 H   0  0  0  0  0  0  0  0  0  0  0  0
   12.3036   -9.0154   -0.5242 H   0  0  0  0  0  0  0  0  0  0  0  0
   13.3529   -9.6713    1.4534 H   0  0  0  0  0  0  0  0  0  0  0  0
   13.0042   -8.1374    2.2807 H   0  0  0  0  0  0  0  0  0  0  0  0
   15.2712   -8.7678    0.3885 H   0  0  0  0  0  0  0  0  0  0  0  0
   15.3039   -7.8016    1.8893 H   0  0  0  0  0  0  0  0  0  0  0  0
   15.2606   -6.5541   -0.4633 H   0  0  0  0  0  0  0  0  0  0  0  0
   14.1890   -5.9442    0.8240 H   0  0  0  0  0  0  0  0  0  0  0  0
   12.6094   -5.0244   -3.1652 H   0  0  0  0  0  0  0  0  0  0  0  0
   15.4646   -5.9288   -2.6028 H   0  0  0  0  0  0  0  0  0  0  0  0
   14.1649   -4.4473   -0.7610 H   0  0  0  0  0  0  0  0  0  0  0  0
   14.2574   -7.5151   -4.0571 H   0  0  0  0  0  0  0  0  0  0  0  0
   15.4508   -6.6152   -4.9897 H   0  0  0  0  0  0  0  0  0  0  0  0
   13.7353   -6.1889   -5.1114 H   0  0  0  0  0  0  0  0  0  0  0  0
   15.5061   -3.5126   -2.9365 H   0  0  0  0  0  0  0  0  0  0  0  0
   16.1070   -4.2976   -4.3929 H   0  0  0  0  0  0  0  0  0  0  0  0
   14.4600   -3.6413   -4.3612 H   0  0  0  0  0  0  0  0  0  0  0  0
   10.2283   -1.8124   -1.0411 H   0  0  0  0  0  0  0  0  0  0  0  0
    9.8857   -2.0647   -2.7637 H   0  0  0  0  0  0  0  0  0  0  0  0
   11.1940   -0.9778   -2.2871 H   0  0  0  0  0  0  0  0  0  0  0  0
   13.4754    1.4487    0.0608 H   0  0  0  0  0  0  0  0  0  0  0  0
   13.0161    0.0970    1.0789 H   0  0  0  0  0  0  0  0  0  0  0  0
   12.3272    0.2547   -0.5407 H   0  0  0  0  0  0  0  0  0  0  0  0
   12.7953    3.0580    1.9592 H   0  0  0  0  0  0  0  0  0  0  0  0
   12.2484    1.7304    2.9759 H   0  0  0  0  0  0  0  0  0  0  0  0
   11.1442    3.0562    2.5902 H   0  0  0  0  0  0  0  0  0  0  0  0
   12.0079    3.3513   -0.4013 H   0  0  0  0  0  0  0  0  0  0  0  0
   10.3475    3.4320    0.1744 H   0  0  0  0  0  0  0  0  0  0  0  0
   10.7907    2.2833   -1.1039 H   0  0  0  0  0  0  0  0  0  0  0  0
  1  2  2  0  0  0  0 
  1  6  1  0  0  0  0 
  2  3  1  0  0  0  0 
  3  4  2  0  0  0  0 
  4  5  1  0  0  0  0 
  5  6  2  0  0  0  0 
  1  7  1  0  0  0  0 
  8  9  1  0  0  0  0 
  9 10  1  0  0  0  0 
 11 10  1  0  0  0  0 
  8  7  1  0  0  0  0 
 11  7  1  0  0  0  0 
 11 12  1  0  0  0  0 
  8 13  1  0  0  0  0 
 14 15  1  0  0  0  0 
 15 16  2  0  0  0  0 
 16 17  1  0  0  0  0 
 17 18  2  0  0  0  0 
 13 14  2  0  0  0  0 
 13 18  1  0  0  0  0 
 16 19  1  0  0  0  0 
 19 20  1  0  0  0  0 
 21 22  1  0  0  0  0 
 22 23  2  0  0  0  0 
 23 24  1  0  0  0  0 
 24 25  2  0  0  0  0 
 12 21  2  0  0  0  0 
 12 25  1  0  0  0  0 
 23 26  1  0  0  0  0 
 26 27  1  0  0  0  0 
 27 28  2  0  0  0  0 
 20 29  2  0  0  0  0 
 30 27  1  0  0  0  0 
 31 32  1  0  0  0  0 
 32 33  1  0  0  0  0 
 33 34  1  0  0  0  0 
 30 31  1  0  0  0  0 
 30 34  1  0  0  0  0 
 31 35  1  0  0  0  0 
 36 35  1  0  0  0  0 
 35 37  2  0  0  0  0 
 36 38  1  0  0  0  0 
 38 39  1  0  0  0  0 
 38 40  1  0  0  0  0 
 36 41  1  0  0  0  0 
 41 42  1  0  0  0  0 
 42 43  1  0  0  0  0 
 42 44  2  0  0  0  0 
 43 45  1  0  0  0  0 
 46 20  1  0  0  0  0 
 48 49  1  0  0  0  0 
 49 50  1  0  0  0  0 
 47 50  1  0  0  0  0 
 46 47  1  0  0  0  0 
 46 48  1  0  0  0  0 
 47 51  1  0  0  0  0 
 52 51  1  0  0  0  0 
 51 53  2  0  0  0  0 
 52 54  1  0  0  0  0 
 52 55  1  0  0  0  0 
 54 56  1  0  0  0  0 
 54 57  1  0  0  0  0 
 55 58  1  0  0  0  0 
 58 59  1  0  0  0  0 
 58 60  2  0  0  0  0 
 59 61  1  0  0  0  0 
  4 62  1  0  0  0  0 
 62 63  1  0  0  0  0 
 62 64  1  0  0  0  0 
 62 65  1  0  0  0  0 
 66  2  1  0  0  0  0 
 67  3  1  0  0  0  0 
 68  5  1  0  0  0  0 
 69  6  1  0  0  0  0 
  8 70  1  0  0  0  0 
 71  9  1  0  0  0  0 
 72  9  1  0  0  0  0 
 73 10  1  0  0  0  0 
 74 10  1  0  0  0  0 
 11 75  1  0  0  0  0 
 76 14  1  0  0  0  0 
 77 15  1  0  0  0  0 
 78 17  1  0  0  0  0 
 79 18  1  0  0  0  0 
 80 19  1  0  0  0  0 
 81 21  1  0  0  0  0 
 82 22  1  0  0  0  0 
 83 24  1  0  0  0  0 
 84 25  1  0  0  0  0 
 85 26  1  0  0  0  0 
 30 86  1  0  0  0  0 
 87 32  1  0  0  0  0 
 88 32  1  0  0  0  0 
 89 33  1  0  0  0  0 
 90 33  1  0  0  0  0 
 91 34  1  0  0  0  0 
 92 34  1  0  0  0  0 
 36 93  1  0  0  0  0 
 94 38  1  0  0  0  0 
 95 39  1  0  0  0  0 
 96 39  1  0  0  0  0 
 97 39  1  0  0  0  0 
 98 40  1  0  0  0  0 
 99 40  1  0  0  0  0 
100 40  1  0  0  0  0 
101 41  1  0  0  0  0 
102 45  1  0  0  0  0 
103 45  1  0  0  0  0 
104 45  1  0  0  0  0 
 46105  1  0  0  0  0 
106 48  1  0  0  0  0 
107 48  1  0  0  0  0 
108 49  1  0  0  0  0 
109 49  1  0  0  0  0 
110 50  1  0  0  0  0 
111 50  1  0  0  0  0 
 52112  1  0  0  0  0 
113 54  1  0  0  0  0 
114 55  1  0  0  0  0 
115 56  1  0  0  0  0 
116 56  1  0  0  0  0 
117 56  1  0  0  0  0 
118 57  1  0  0  0  0 
119 57  1  0  0  0  0 
120 57  1  0  0  0  0 
121 61  1  0  0  0  0 
122 61  1  0  0  0  0 
123 61  1  0  0  0  0 
124 63  1  0  0  0  0 
125 63  1  0  0  0  0 
126 63  1  0  0  0  0 
127 64  1  0  0  0  0 
128 64  1  0  0  0  0 
129 64  1  0  0  0  0 
130 65  1  0  0  0  0 
131 65  1  0  0  0  0 
132 65  1  0  0  0  0 
M  END
> <cdk:Title>
ombitasvir

> <Conformer>
1

> <SuperDrugID>
SD003845

$$$$
