clomipramine
  CDK     0628171802

 45 47  0  0  0  0  0  0  0  0999 V2000
    4.9401   -1.9027   -6.3678 C   0  0  2  0  0  0  0  0  0  0  0  0
    6.4206   -1.5594   -6.7198 C   0  0  2  0  0  0  0  0  0  0  0  0
    4.6806   -2.2677   -4.9829 N   0  0  0  0  0  0  0  0  0  0  0  0
    6.6632   -1.3045   -8.2349 C   0  0  1  0  0  0  0  0  0  0  0  0
    3.5398   -1.8501   -4.3205 C   0  0  0  0  0  0  0  0  0  0  0  0
    5.5180   -3.1360   -4.3308 C   0  0  0  0  0  0  0  0  0  0  0  0
    6.1502   -2.4004   -9.1210 N   0  0  2  0  0  0  0  0  0  0  0  0
    3.5463   -1.2448   -3.0232 C   0  0  0  0  0  0  0  0  0  0  0  0
    2.2934   -2.0879   -4.9536 C   0  0  0  0  0  0  0  0  0  0  0  0
    6.2760   -2.6939   -3.2184 C   0  0  0  0  0  0  0  0  0  0  0  0
    5.6378   -4.4738   -4.7707 C   0  0  0  0  0  0  0  0  0  0  0  0
    6.9574   -3.6553   -9.0885 C   0  0  0  0  0  0  0  0  0  0  0  0
    5.8522   -1.9494  -10.5101 C   0  0  0  0  0  0  0  0  0  0  0  0
    4.7620   -0.9680   -2.1945 C   0  0  2  0  0  0  0  0  0  0  0  0
    2.3119   -0.8751   -2.4324 C   0  0  0  0  0  0  0  0  0  0  0  0
    1.0822   -1.7103   -4.3496 C   0  0  0  0  0  0  0  0  0  0  0  0
    6.1624   -1.2809   -2.7755 C   0  0  1  0  0  0  0  0  0  0  0  0
    7.1298   -3.6065   -2.5569 C   0  0  0  0  0  0  0  0  0  0  0  0
    6.4902   -5.3713   -4.1048 C   0  0  0  0  0  0  0  0  0  0  0  0
    1.0929   -1.0964   -3.0881 C   0  0  0  0  0  0  0  0  0  0  0  0
   -0.3869   -1.9906   -5.1416 Cl  0  0  0  0  0  0  0  0  0  0  0  0
    7.2327   -4.9380   -2.9948 C   0  0  0  0  0  0  0  0  0  0  0  0
    4.6117   -2.7370   -6.9919 H   0  0  0  0  0  0  0  0  0  0  0  0
    4.3371   -1.0333   -6.6517 H   0  0  0  0  0  0  0  0  0  0  0  0
    7.0813   -2.3656   -6.3983 H   0  0  0  0  0  0  0  0  0  0  0  0
    6.7157   -0.6634   -6.1685 H   0  0  0  0  0  0  0  0  0  0  0  0
    6.1680   -0.3587   -8.4774 H   0  0  0  0  0  0  0  0  0  0  0  0
    7.7346   -1.1558   -8.4088 H   0  0  0  0  0  0  0  0  0  0  0  0
    2.2585   -2.5563   -5.8621 H   0  0  0  0  0  0  0  0  0  0  0  0
    5.1005   -4.8022   -5.5761 H   0  0  0  0  0  0  0  0  0  0  0  0
    7.9482   -3.5020   -9.5243 H   0  0  0  0  0  0  0  0  0  0  0  0
    7.0753   -4.0174   -8.0676 H   0  0  0  0  0  0  0  0  0  0  0  0
    6.4476   -4.4436   -9.6442 H   0  0  0  0  0  0  0  0  0  0  0  0
    5.3605   -2.7447  -11.0730 H   0  0  0  0  0  0  0  0  0  0  0  0
    5.1681   -1.0979  -10.4963 H   0  0  0  0  0  0  0  0  0  0  0  0
    6.7665   -1.6582  -11.0316 H   0  0  0  0  0  0  0  0  0  0  0  0
    4.6665   -1.5306   -1.2591 H   0  0  0  0  0  0  0  0  0  0  0  0
    4.7597    0.0959   -1.9360 H   0  0  0  0  0  0  0  0  0  0  0  0
    2.2863   -0.4319   -1.5104 H   0  0  0  0  0  0  0  0  0  0  0  0
    6.9082   -1.0496   -2.0090 H   0  0  0  0  0  0  0  0  0  0  0  0
    6.3630   -0.6098   -3.6135 H   0  0  0  0  0  0  0  0  0  0  0  0
    7.6824   -3.3102   -1.7495 H   0  0  0  0  0  0  0  0  0  0  0  0
    6.5660   -6.3389   -4.4245 H   0  0  0  0  0  0  0  0  0  0  0  0
    0.2173   -0.8126   -2.6402 H   0  0  0  0  0  0  0  0  0  0  0  0
    7.8476   -5.5911   -2.5056 H   0  0  0  0  0  0  0  0  0  0  0  0
  1  2  1  0  0  0  0 
  1  3  1  0  0  0  0 
  2  4  1  0  0  0  0 
  3  5  1  0  0  0  0 
  3  6  1  0  0  0  0 
  4  7  1  0  0  0  0 
  5  8  2  0  0  0  0 
  5  9  1  0  0  0  0 
  6 10  2  0  0  0  0 
  6 11  1  0  0  0  0 
  7 12  1  0  0  0  0 
  7 13  1  0  0  0  0 
  8 14  1  0  0  0  0 
  8 15  1  0  0  0  0 
  9 16  2  0  0  0  0 
 10 17  1  0  0  0  0 
 10 18  1  0  0  0  0 
 11 19  2  0  0  0  0 
 14 17  1  0  0  0  0 
 15 20  2  0  0  0  0 
 16 20  1  0  0  0  0 
 16 21  1  0  0  0  0 
 18 22  2  0  0  0  0 
 19 22  1  0  0  0  0 
  1 23  1  0  0  0  0 
  1 24  1  0  0  0  0 
  2 25  1  0  0  0  0 
  2 26  1  0  0  0  0 
  4 27  1  0  0  0  0 
  4 28  1  0  0  0  0 
  9 29  1  0  0  0  0 
 11 30  1  0  0  0  0 
 12 31  1  0  0  0  0 
 12 32  1  0  0  0  0 
 12 33  1  0  0  0  0 
 13 34  1  0  0  0  0 
 13 35  1  0  0  0  0 
 13 36  1  0  0  0  0 
 14 37  1  0  0  0  0 
 14 38  1  0  0  0  0 
 15 39  1  0  0  0  0 
 17 40  1  0  0  0  0 
 17 41  1  0  0  0  0 
 18 42  1  0  0  0  0 
 19 43  1  0  0  0  0 
 20 44  1  0  0  0  0 
 22 45  1  0  0  0  0 
M  END
> <cdk:Title>
clomipramine

> <Conformer>
1

> <SuperDrugID>
SD000618

$$$$
