cefalotin
  CDK     0628171802

 42 44  0  0  0  0  0  0  0  0999 V2000
    0.7235   -3.9973    2.2974 C   0  0  0  0  0  0  0  0  0  0  0  0
    1.2319   -2.8501    2.8038 O   0  0  0  0  0  0  0  0  0  0  0  0
    1.2687   -5.0727    2.6365 O   0  0  0  0  0  0  0  0  0  0  0  0
   -0.3965   -4.0019    1.4728 C   0  0  0  0  0  0  0  0  0  0  0  0
   -1.4188   -4.7940    1.8693 N   0  0  0  0  0  0  0  0  0  0  0  0
   -0.5177   -3.2312    0.3516 C   0  0  0  0  0  0  0  0  0  0  0  0
   -2.5445   -5.3051    1.1679 C   0  0  1  0  0  0  0  0  0  0  0  0
   -1.8514   -5.2327    3.0634 C   0  0  0  0  0  0  0  0  0  0  0  0
    0.5286   -2.3213   -0.1404 C   0  0  2  0  0  0  0  0  0  0  0  0
   -1.7268   -3.2534   -0.5036 C   0  0  2  0  0  0  0  0  0  0  0  0
   -3.1165   -5.7531    2.5460 C   0  0  1  0  0  0  0  0  0  0  0  0
   -3.2514   -3.8780    0.2875 S   0  0  0  0  0  0  0  0  0  0  0  0
   -1.3921   -5.1539    4.2264 O   0  0  0  0  0  0  0  0  0  0  0  0
    0.0874   -0.9758    0.0918 O   0  0  0  0  0  0  0  0  0  0  0  0
   -4.2427   -5.0095    3.0120 N   0  0  0  0  0  0  0  0  0  0  0  0
    0.6903    0.1707   -0.3356 C   0  0  0  0  0  0  0  0  0  0  0  0
   -4.9456   -5.2699    4.1438 C   0  0  0  0  0  0  0  0  0  0  0  0
    0.0665    1.4729   -0.0600 C   0  0  0  0  0  0  0  0  0  0  0  0
    1.7625    0.1351   -0.9828 O   0  0  0  0  0  0  0  0  0  0  0  0
   -5.9850   -4.3110    4.5698 C   0  0  1  0  0  0  0  0  0  0  0  0
   -4.7118   -6.2881    4.8378 O   0  0  0  0  0  0  0  0  0  0  0  0
   -5.3868   -3.0505    5.0596 C   0  0  0  0  0  0  0  0  0  0  0  0
   -4.6266   -2.1067    4.3491 C   0  0  0  0  0  0  0  0  0  0  0  0
   -5.5044   -2.4470    6.7048 S   0  0  0  0  0  0  0  0  0  0  0  0
   -4.1956   -0.9900    5.0919 C   0  0  0  0  0  0  0  0  0  0  0  0
   -4.5811   -0.9828    6.4338 C   0  0  0  0  0  0  0  0  0  0  0  0
   -2.2824   -6.1317    0.4976 H   0  0  0  0  0  0  0  0  0  0  0  0
    2.0064   -2.8788    3.4045 H   0  0  0  0  0  0  0  0  0  0  0  0
    0.6784   -2.4803   -1.2129 H   0  0  0  0  0  0  0  0  0  0  0  0
    1.5030   -2.4612    0.3273 H   0  0  0  0  0  0  0  0  0  0  0  0
   -1.5212   -3.8944   -1.3624 H   0  0  0  0  0  0  0  0  0  0  0  0
   -1.9688   -2.2559   -0.8814 H   0  0  0  0  0  0  0  0  0  0  0  0
   -3.2005   -6.8375    2.6472 H   0  0  0  0  0  0  0  0  0  0  0  0
   -4.5060   -4.2250    2.5060 H   0  0  0  0  0  0  0  0  0  0  0  0
   -0.8651    1.3518    0.4951 H   0  0  0  0  0  0  0  0  0  0  0  0
   -0.1550    1.9762   -1.0016 H   0  0  0  0  0  0  0  0  0  0  0  0
    0.7482    2.0928    0.5239 H   0  0  0  0  0  0  0  0  0  0  0  0
   -6.6569   -4.1022    3.7347 H   0  0  0  0  0  0  0  0  0  0  0  0
   -6.5853   -4.7472    5.3739 H   0  0  0  0  0  0  0  0  0  0  0  0
   -4.4049   -2.2123    3.3576 H   0  0  0  0  0  0  0  0  0  0  0  0
   -3.6354   -0.2381    4.6862 H   0  0  0  0  0  0  0  0  0  0  0  0
   -4.3689   -0.2648    7.1289 H   0  0  0  0  0  0  0  0  0  0  0  0
  1  2  1  0  0  0  0 
  1  3  2  0  0  0  0 
  1  4  1  0  0  0  0 
  4  5  1  0  0  0  0 
  4  6  2  0  0  0  0 
  7  5  1  0  0  0  0 
  5  8  1  0  0  0  0 
  6  9  1  0  0  0  0 
  6 10  1  0  0  0  0 
 11  7  1  0  0  0  0 
  7 12  1  0  0  0  0 
  7 27  1  0  0  0  0 
 11  8  1  0  0  0  0 
  8 13  2  0  0  0  0 
  9 14  1  0  0  0  0 
 10 12  1  0  0  0  0 
 11 15  1  0  0  0  0 
 14 16  1  0  0  0  0 
 15 17  1  0  0  0  0 
 16 18  1  0  0  0  0 
 16 19  2  0  0  0  0 
 17 20  1  0  0  0  0 
 17 21  2  0  0  0  0 
 20 22  1  0  0  0  0 
 22 23  2  0  0  0  0 
 22 24  1  0  0  0  0 
 23 25  1  0  0  0  0 
 24 26  1  0  0  0  0 
 25 26  2  0  0  0  0 
  2 28  1  0  0  0  0 
  9 29  1  0  0  0  0 
  9 30  1  0  0  0  0 
 10 31  1  0  0  0  0 
 10 32  1  0  0  0  0 
 11 33  1  0  0  0  0 
 15 34  1  0  0  0  0 
 18 35  1  0  0  0  0 
 18 36  1  0  0  0  0 
 18 37  1  0  0  0  0 
 20 38  1  0  0  0  0 
 20 39  1  0  0  0  0 
 23 40  1  0  0  0  0 
 25 41  1  0  0  0  0 
 26 42  1  0  0  0  0 
M  END
> <cdk:Title>
cefalotin

> <Conformer>
1

> <SuperDrugID>
SD000501

$$$$
