carbon dioxide
  CDK     0628171801

  3  2  0  0  0  0  0  0  0  0999 V2000
    1.1520    0.0000    0.0000 O   0  0  0  0  0  0  0  0  0  0  0  0
    0.0000    0.0000    0.0000 C   0  0  0  0  0  0  0  0  0  0  0  0
   -1.1520    0.0000    0.0000 O   0  0  0  0  0  0  0  0  0  0  0  0
  1  2  2  0  0  0  0 
  2  3  2  0  0  0  0 
M  END
> <cdk:Title>
carbon dioxide

> <Conformer>
1

> <SuperDrugID>
SD003456

$$$$
