dabigatran etexilate
  CDK     0628171802

 87 90  0  0  0  0  0  0  0  0999 V2000
   10.8807   -0.6252   -1.0251 C   0  0  0  0  0  0  0  0  0  0  0  0
    9.6646   -0.7140   -1.7164 C   0  0  0  0  0  0  0  0  0  0  0  0
    9.3998    0.0591   -2.8420 C   0  0  0  0  0  0  0  0  0  0  0  0
   10.3834    0.9365   -3.3410 C   0  0  0  0  0  0  0  0  0  0  0  0
   11.6247    1.0199   -2.6724 C   0  0  0  0  0  0  0  0  0  0  0  0
   11.8898    0.2356   -1.5196 C   0  0  0  0  0  0  0  0  0  0  0  0
    8.1429   -0.2328   -3.2389 N   0  0  0  0  0  0  0  0  0  0  0  0
    7.6885   -1.1977   -2.3963 C   0  0  0  0  0  0  0  0  0  0  0  0
    8.6084   -1.4881   -1.4564 N   0  0  0  0  0  0  0  0  0  0  0  0
   13.2020    0.3786   -0.8365 C   0  0  0  0  0  0  0  0  0  0  0  0
   13.7205    1.5184   -0.5425 O   0  0  0  0  0  0  0  0  0  0  0  0
   13.9677   -0.7446   -0.4721 N   0  0  0  0  0  0  0  0  0  0  0  0
   15.2481   -0.6225    0.2271 C   0  0  2  0  0  0  0  0  0  0  0  0
   13.5356   -2.0326   -0.7245 C   0  0  0  0  0  0  0  0  0  0  0  0
   13.2704   -2.8438    0.3386 N   0  0  0  0  0  0  0  0  0  0  0  0
   12.7796   -4.1040    0.2213 C   0  0  0  0  0  0  0  0  0  0  0  0
   12.5146   -4.6281   -1.0553 C   0  0  0  0  0  0  0  0  0  0  0  0
   12.7858   -3.8358   -2.1851 C   0  0  0  0  0  0  0  0  0  0  0  0
   13.3120   -2.5386   -2.0267 C   0  0  0  0  0  0  0  0  0  0  0  0
   16.3115    0.2428   -0.5189 C   0  0  1  0  0  0  0  0  0  0  0  0
   17.7285   -0.0750   -0.2497 C   0  0  0  0  0  0  0  0  0  0  0  0
   18.6040   -0.0629   -1.2976 O   0  0  0  0  0  0  0  0  0  0  0  0
   18.1235   -0.2798    0.9223 O   0  0  0  0  0  0  0  0  0  0  0  0
   20.0223   -0.2499   -1.2417 C   0  0  1  0  0  0  0  0  0  0  0  0
   20.6024   -0.1181   -2.6616 C   0  0  0  0  0  0  0  0  0  0  0  0
    7.4060    0.3620   -4.3162 C   0  0  0  0  0  0  0  0  0  0  0  0
    6.3863   -1.8831   -2.4222 C   0  0  1  0  0  0  0  0  0  0  0  0
    5.6653   -1.5720   -1.2315 N   0  0  0  0  0  0  0  0  0  0  0  0
    4.3118   -1.5735   -1.1140 C   0  0  0  0  0  0  0  0  0  0  0  0
    3.4401   -1.0221   -2.0823 C   0  0  0  0  0  0  0  0  0  0  0  0
    2.0472   -1.1331   -1.9235 C   0  0  0  0  0  0  0  0  0  0  0  0
    1.5095   -1.7912   -0.7947 C   0  0  0  0  0  0  0  0  0  0  0  0
    2.3805   -2.3016    0.1926 C   0  0  0  0  0  0  0  0  0  0  0  0
    3.7711   -2.1821    0.0370 C   0  0  0  0  0  0  0  0  0  0  0  0
    0.1429   -1.9340   -0.6496 C   0  0  0  0  0  0  0  0  0  0  0  0
   -0.4042   -3.0706   -1.0257 N   0  0  0  0  0  0  0  0  0  0  0  0
   -0.6572   -1.0503   -0.1649 N   0  0  0  0  0  0  0  0  0  0  0  0
   -0.4559    0.1696    0.3056 C   0  0  0  0  0  0  0  0  0  0  0  0
   -1.4720    0.7588    0.7406 O   0  0  0  0  0  0  0  0  0  0  0  0
    0.7752    0.7728    0.3298 O   0  0  0  0  0  0  0  0  0  0  0  0
    1.0543    2.0871    0.8309 C   0  0  1  0  0  0  0  0  0  0  0  0
    2.5543    2.4318    0.6829 C   0  0  1  0  0  0  0  0  0  0  0  0
    2.8533    3.8803    1.1552 C   0  0  1  0  0  0  0  0  0  0  0  0
    4.3351    4.2840    0.9469 C   0  0  1  0  0  0  0  0  0  0  0  0
    4.6019    5.7641    1.3331 C   0  0  2  0  0  0  0  0  0  0  0  0
    6.0532    6.2060    1.0432 C   0  0  0  0  0  0  0  0  0  0  0  0
   11.0170   -1.1758   -0.1753 H   0  0  0  0  0  0  0  0  0  0  0  0
   10.2149    1.5000   -4.1754 H   0  0  0  0  0  0  0  0  0  0  0  0
   12.3389    1.6562   -3.0379 H   0  0  0  0  0  0  0  0  0  0  0  0
   15.6944   -1.6058    0.4226 H   0  0  0  0  0  0  0  0  0  0  0  0
   15.0538   -0.1772    1.2076 H   0  0  0  0  0  0  0  0  0  0  0  0
   12.6009   -4.6608    1.0606 H   0  0  0  0  0  0  0  0  0  0  0  0
   12.1309   -5.5695   -1.1587 H   0  0  0  0  0  0  0  0  0  0  0  0
   12.5944   -4.2029   -3.1206 H   0  0  0  0  0  0  0  0  0  0  0  0
   13.5150   -1.9678   -2.8495 H   0  0  0  0  0  0  0  0  0  0  0  0
   16.1355    0.1758   -1.5947 H   0  0  0  0  0  0  0  0  0  0  0  0
   16.1844    1.2865   -0.2275 H   0  0  0  0  0  0  0  0  0  0  0  0
   20.4718    0.5095   -0.5967 H   0  0  0  0  0  0  0  0  0  0  0  0
   20.2508   -1.2390   -0.8389 H   0  0  0  0  0  0  0  0  0  0  0  0
   21.6892   -0.2191   -2.6343 H   0  0  0  0  0  0  0  0  0  0  0  0
   20.1904   -0.8958   -3.3080 H   0  0  0  0  0  0  0  0  0  0  0  0
   20.3501    0.8587   -3.0799 H   0  0  0  0  0  0  0  0  0  0  0  0
    7.1552   -0.4005   -5.0539 H   0  0  0  0  0  0  0  0  0  0  0  0
    6.4819    0.8009   -3.9340 H   0  0  0  0  0  0  0  0  0  0  0  0
    7.9617    1.1510   -4.8218 H   0  0  0  0  0  0  0  0  0  0  0  0
    5.8348   -1.6298   -3.3240 H   0  0  0  0  0  0  0  0  0  0  0  0
    6.5569   -2.9605   -2.4430 H   0  0  0  0  0  0  0  0  0  0  0  0
    6.1814   -1.4660   -0.4158 H   0  0  0  0  0  0  0  0  0  0  0  0
    3.8093   -0.5322   -2.9022 H   0  0  0  0  0  0  0  0  0  0  0  0
    1.4318   -0.7363   -2.6392 H   0  0  0  0  0  0  0  0  0  0  0  0
    2.0135   -2.7703    1.0253 H   0  0  0  0  0  0  0  0  0  0  0  0
    4.3911   -2.5600    0.7598 H   0  0  0  0  0  0  0  0  0  0  0  0
   -1.3574   -3.2035   -0.9234 H   0  0  0  0  0  0  0  0  0  0  0  0
    0.1377   -3.7799   -1.4061 H   0  0  0  0  0  0  0  0  0  0  0  0
    0.4571    2.8128    0.2719 H   0  0  0  0  0  0  0  0  0  0  0  0
    0.7727    2.1341    1.8869 H   0  0  0  0  0  0  0  0  0  0  0  0
    3.1426    1.7233    1.2723 H   0  0  0  0  0  0  0  0  0  0  0  0
    2.8422    2.3222   -0.3674 H   0  0  0  0  0  0  0  0  0  0  0  0
    2.2220    4.5697    0.5867 H   0  0  0  0  0  0  0  0  0  0  0  0
    2.5974    3.9783    2.2157 H   0  0  0  0  0  0  0  0  0  0  0  0
    4.9754    3.6296    1.5471 H   0  0  0  0  0  0  0  0  0  0  0  0
    4.5922    4.1434   -0.1073 H   0  0  0  0  0  0  0  0  0  0  0  0
    4.3985    5.9077    2.3992 H   0  0  0  0  0  0  0  0  0  0  0  0
    3.9284    6.4153    0.7673 H   0  0  0  0  0  0  0  0  0  0  0  0
    6.1841    7.2487    1.3372 H   0  0  0  0  0  0  0  0  0  0  0  0
    6.7589    5.5920    1.6060 H   0  0  0  0  0  0  0  0  0  0  0  0
    6.2730    6.1147   -0.0223 H   0  0  0  0  0  0  0  0  0  0  0  0
  1  2  2  0  0  0  0 
  1  6  1  0  0  0  0 
  2  3  1  0  0  0  0 
  3  4  2  0  0  0  0 
  4  5  1  0  0  0  0 
  5  6  2  0  0  0  0 
  7  8  1  0  0  0  0 
  8  9  2  0  0  0  0 
  2  9  1  0  0  0  0 
  3  7  1  0  0  0  0 
  6 10  1  0  0  0  0 
 10 11  2  0  0  0  0 
 10 12  1  0  0  0  0 
 12 13  1  0  0  0  0 
 12 14  1  0  0  0  0 
 15 16  1  0  0  0  0 
 16 17  2  0  0  0  0 
 17 18  1  0  0  0  0 
 18 19  2  0  0  0  0 
 14 15  2  0  0  0  0 
 14 19  1  0  0  0  0 
 13 20  1  0  0  0  0 
 20 21  1  0  0  0  0 
 21 22  1  0  0  0  0 
 21 23  2  0  0  0  0 
 22 24  1  0  0  0  0 
 24 25  1  0  0  0  0 
  7 26  1  0  0  0  0 
  8 27  1  0  0  0  0 
 27 28  1  0  0  0  0 
 28 29  1  0  0  0  0 
 30 31  1  0  0  0  0 
 31 32  2  0  0  0  0 
 32 33  1  0  0  0  0 
 33 34  2  0  0  0  0 
 29 30  2  0  0  0  0 
 29 34  1  0  0  0  0 
 32 35  1  0  0  0  0 
 35 36  1  0  0  0  0 
 35 37  2  0  0  0  0 
 37 38  1  0  0  0  0 
 38 39  2  0  0  0  0 
 38 40  1  0  0  0  0 
 40 41  1  0  0  0  0 
 41 42  1  0  0  0  0 
 42 43  1  0  0  0  0 
 43 44  1  0  0  0  0 
 44 45  1  0  0  0  0 
 45 46  1  0  0  0  0 
 47  1  1  0  0  0  0 
 48  4  1  0  0  0  0 
 49  5  1  0  0  0  0 
 50 13  1  0  0  0  0 
 51 13  1  0  0  0  0 
 52 16  1  0  0  0  0 
 53 17  1  0  0  0  0 
 54 18  1  0  0  0  0 
 55 19  1  0  0  0  0 
 56 20  1  0  0  0  0 
 57 20  1  0  0  0  0 
 58 24  1  0  0  0  0 
 59 24  1  0  0  0  0 
 60 25  1  0  0  0  0 
 61 25  1  0  0  0  0 
 62 25  1  0  0  0  0 
 63 26  1  0  0  0  0 
 64 26  1  0  0  0  0 
 65 26  1  0  0  0  0 
 66 27  1  0  0  0  0 
 67 27  1  0  0  0  0 
 68 28  1  0  0  0  0 
 69 30  1  0  0  0  0 
 70 31  1  0  0  0  0 
 71 33  1  0  0  0  0 
 72 34  1  0  0  0  0 
 73 36  1  0  0  0  0 
 74 36  1  0  0  0  0 
 75 41  1  0  0  0  0 
 76 41  1  0  0  0  0 
 77 42  1  0  0  0  0 
 78 42  1  0  0  0  0 
 79 43  1  0  0  0  0 
 80 43  1  0  0  0  0 
 81 44  1  0  0  0  0 
 82 44  1  0  0  0  0 
 83 45  1  0  0  0  0 
 84 45  1  0  0  0  0 
 85 46  1  0  0  0  0 
 86 46  1  0  0  0  0 
 87 46  1  0  0  0  0 
M  END
> <cdk:Title>
dabigatran etexilate

> <Conformer>
1

> <SuperDrugID>
SD000683

$$$$
