ketoprofen
  CDK     0628171801

 33 34  0  0  0  0  0  0  0  0999 V2000
   -1.8913    1.4864   -0.1973 C   0  0  0  0  0  0  0  0  0  0  0  0
   -1.6753    0.9014    0.8962 O   0  0  0  0  0  0  0  0  0  0  0  0
   -1.4942    0.6906   -1.3651 C   0  0  0  0  0  0  0  0  0  0  0  0
   -2.4959    2.8101   -0.0203 C   0  0  0  0  0  0  0  0  0  0  0  0
   -1.5667    1.0777   -2.7352 C   0  0  0  0  0  0  0  0  0  0  0  0
   -0.9638   -0.6211   -1.1566 C   0  0  0  0  0  0  0  0  0  0  0  0
   -2.9405    3.6838   -1.0530 C   0  0  0  0  0  0  0  0  0  0  0  0
   -2.6991    3.3185    1.3047 C   0  0  0  0  0  0  0  0  0  0  0  0
   -1.2518    0.2196   -3.8233 C   0  0  0  0  0  0  0  0  0  0  0  0
   -0.5802   -1.4718   -2.2038 C   0  0  0  0  0  0  0  0  0  0  0  0
   -3.4683    4.9652   -0.8025 C   0  0  0  0  0  0  0  0  0  0  0  0
   -3.2593    4.5808    1.5729 C   0  0  0  0  0  0  0  0  0  0  0  0
   -1.4531    0.6445   -5.2500 C   0  0  2  0  0  0  0  0  0  0  0  0
   -0.7432   -1.0611   -3.5291 C   0  0  0  0  0  0  0  0  0  0  0  0
   -3.6339    5.4144    0.5131 C   0  0  0  0  0  0  0  0  0  0  0  0
   -2.4815   -0.1958   -5.9150 C   0  0  0  0  0  0  0  0  0  0  0  0
   -0.1102    0.7232   -6.0312 C   0  0  0  0  0  0  0  0  0  0  0  0
   -3.7520   -0.1886   -5.4510 O   0  0  0  0  0  0  0  0  0  0  0  0
   -2.2350   -0.9052   -6.9176 O   0  0  0  0  0  0  0  0  0  0  0  0
   -1.8413    2.0066   -2.9885 H   0  0  0  0  0  0  0  0  0  0  0  0
   -0.8372   -1.0000   -0.2150 H   0  0  0  0  0  0  0  0  0  0  0  0
   -2.9215    3.4355   -2.0259 H   0  0  0  0  0  0  0  0  0  0  0  0
   -2.4430    2.7693    2.1268 H   0  0  0  0  0  0  0  0  0  0  0  0
   -0.1882   -2.3936   -2.0001 H   0  0  0  0  0  0  0  0  0  0  0  0
   -3.7416    5.5716   -1.5813 H   0  0  0  0  0  0  0  0  0  0  0  0
   -3.3910    4.8892    2.5396 H   0  0  0  0  0  0  0  0  0  0  0  0
   -1.8623    1.6582   -5.2771 H   0  0  0  0  0  0  0  0  0  0  0  0
   -0.4860   -1.7040   -4.2799 H   0  0  0  0  0  0  0  0  0  0  0  0
   -4.0276    6.3386    0.7009 H   0  0  0  0  0  0  0  0  0  0  0  0
   -0.2791    1.1262   -7.0336 H   0  0  0  0  0  0  0  0  0  0  0  0
    0.5838    1.3876   -5.5123 H   0  0  0  0  0  0  0  0  0  0  0  0
    0.3511   -0.2626   -6.1321 H   0  0  0  0  0  0  0  0  0  0  0  0
   -4.4444   -0.7095   -5.9069 H   0  0  0  0  0  0  0  0  0  0  0  0
  1  2  2  0  0  0  0 
  1  3  1  0  0  0  0 
  1  4  1  0  0  0  0 
  3  5  2  0  0  0  0 
  3  6  1  0  0  0  0 
  4  7  2  0  0  0  0 
  4  8  1  0  0  0  0 
  5  9  1  0  0  0  0 
  6 10  2  0  0  0  0 
  7 11  1  0  0  0  0 
  8 12  2  0  0  0  0 
 13  9  1  0  0  0  0 
  9 14  2  0  0  0  0 
 10 14  1  0  0  0  0 
 11 15  2  0  0  0  0 
 12 15  1  0  0  0  0 
 13 16  1  0  0  0  0 
 13 17  1  0  0  0  0 
 16 18  1  0  0  0  0 
 16 19  2  0  0  0  0 
  5 20  1  0  0  0  0 
  6 21  1  0  0  0  0 
  7 22  1  0  0  0  0 
  8 23  1  0  0  0  0 
 10 24  1  0  0  0  0 
 11 25  1  0  0  0  0 
 12 26  1  0  0  0  0 
 13 27  1  0  0  0  0 
 14 28  1  0  0  0  0 
 15 29  1  0  0  0  0 
 17 30  1  0  0  0  0 
 17 31  1  0  0  0  0 
 17 32  1  0  0  0  0 
 18 33  1  0  0  0  0 
M  END
> <cdk:Title>
ketoprofen

> <Conformer>
1

> <SuperDrugID>
SD001351

$$$$
