tropisetron
  CDK     0628171801

 41 44  0  0  0  0  0  0  0  0999 V2000
    1.1633   -0.0794   -2.0465 C   0  0  0  0  0  0  0  0  0  0  0  0
   -0.2587   -0.0076   -1.6085 N   0  0  1  0  0  0  0  0  0  0  0  0
   -0.9905   -1.2970   -1.5219 C   0  0  1  0  0  0  0  0  0  0  0  0
   -0.6933   -1.8403   -0.1005 C   0  0  2  0  0  0  0  0  0  0  0  0
   -0.3698   -0.5810    0.7330 C   0  0  2  0  0  0  0  0  0  0  0  0
   -0.5213    0.5906   -0.2724 C   0  0  2  0  0  0  0  0  0  0  0  0
   -1.9668    1.1757   -0.3252 C   0  0  2  0  0  0  0  0  0  0  0  0
   -3.0451    0.1395   -0.7885 C   0  0  1  0  0  0  0  0  0  0  0  0
   -2.4931   -0.9546   -1.7616 C   0  0  1  0  0  0  0  0  0  0  0  0
   -3.5964   -0.5121    0.3735 O   0  0  0  0  0  0  0  0  0  0  0  0
   -4.8512   -0.3776    0.8980 C   0  0  0  0  0  0  0  0  0  0  0  0
   -5.6830    0.3972    0.3706 O   0  0  0  0  0  0  0  0  0  0  0  0
   -5.1864   -1.1059    2.0548 C   0  0  0  0  0  0  0  0  0  0  0  0
   -4.5503   -2.2674    2.5059 C   0  0  0  0  0  0  0  0  0  0  0  0
   -5.1395   -2.6972    3.6337 N   0  0  0  0  0  0  0  0  0  0  0  0
   -6.1325   -1.8560    3.9499 C   0  0  0  0  0  0  0  0  0  0  0  0
   -6.1907   -0.8432    2.9912 C   0  0  0  0  0  0  0  0  0  0  0  0
   -7.1341    0.1971    3.1100 C   0  0  0  0  0  0  0  0  0  0  0  0
   -8.0166    0.1885    4.2107 C   0  0  0  0  0  0  0  0  0  0  0  0
   -7.9583   -0.8485    5.1687 C   0  0  0  0  0  0  0  0  0  0  0  0
   -7.0126   -1.8874    5.0430 C   0  0  0  0  0  0  0  0  0  0  0  0
    1.7659   -0.6906   -1.3725 H   0  0  0  0  0  0  0  0  0  0  0  0
    1.5901    0.9252   -2.0913 H   0  0  0  0  0  0  0  0  0  0  0  0
    1.2164   -0.5053   -3.0515 H   0  0  0  0  0  0  0  0  0  0  0  0
   -0.6683   -2.0141   -2.2847 H   0  0  0  0  0  0  0  0  0  0  0  0
    0.1737   -2.5061   -0.1252 H   0  0  0  0  0  0  0  0  0  0  0  0
   -1.5409   -2.3964    0.3086 H   0  0  0  0  0  0  0  0  0  0  0  0
    0.6586   -0.6239    1.1043 H   0  0  0  0  0  0  0  0  0  0  0  0
   -1.0400   -0.4798    1.5898 H   0  0  0  0  0  0  0  0  0  0  0  0
    0.1754    1.4019   -0.0368 H   0  0  0  0  0  0  0  0  0  0  0  0
   -1.9600    2.0202   -1.0189 H   0  0  0  0  0  0  0  0  0  0  0  0
   -2.2301    1.5801    0.6568 H   0  0  0  0  0  0  0  0  0  0  0  0
   -3.8325    0.6913   -1.3148 H   0  0  0  0  0  0  0  0  0  0  0  0
   -2.5924   -0.5978   -2.7900 H   0  0  0  0  0  0  0  0  0  0  0  0
   -3.0901   -1.8674   -1.6804 H   0  0  0  0  0  0  0  0  0  0  0  0
   -3.7626   -2.7312    2.0491 H   0  0  0  0  0  0  0  0  0  0  0  0
   -4.8827   -3.4843    4.1397 H   0  0  0  0  0  0  0  0  0  0  0  0
   -7.1750    0.9517    2.4244 H   0  0  0  0  0  0  0  0  0  0  0  0
   -8.6982    0.9412    4.3167 H   0  0  0  0  0  0  0  0  0  0  0  0
   -8.6044   -0.8434    5.9613 H   0  0  0  0  0  0  0  0  0  0  0  0
   -6.9637   -2.6402    5.7325 H   0  0  0  0  0  0  0  0  0  0  0  0
  1  2  1  0  0  0  0 
  3  2  1  0  0  0  0 
  3  4  1  0  0  0  0 
  4  5  1  0  0  0  0 
  5  6  1  0  0  0  0 
  6  2  1  0  0  0  0 
  6  7  1  0  0  0  0 
  7  8  1  0  0  0  0 
  8  9  1  0  0  0  0 
  3  9  1  0  0  0  0 
  8 10  1  0  0  0  0 
 10 11  1  0  0  0  0 
 11 12  2  0  0  0  0 
 11 13  1  0  0  0  0 
 13 14  2  0  0  0  0 
 14 15  1  0  0  0  0 
 15 16  1  0  0  0  0 
 16 17  1  0  0  0  0 
 13 17  1  0  0  0  0 
 17 18  2  0  0  0  0 
 18 19  1  0  0  0  0 
 19 20  2  0  0  0  0 
 20 21  1  0  0  0  0 
 16 21  2  0  0  0  0 
  1 22  1  0  0  0  0 
  1 23  1  0  0  0  0 
  1 24  1  0  0  0  0 
  3 25  1  0  0  0  0 
  4 26  1  0  0  0  0 
  4 27  1  0  0  0  0 
  5 28  1  0  0  0  0 
  5 29  1  0  0  0  0 
  6 30  1  0  0  0  0 
  7 31  1  0  0  0  0 
  7 32  1  0  0  0  0 
  8 33  1  0  0  0  0 
  9 34  1  0  0  0  0 
  9 35  1  0  0  0  0 
 14 36  1  0  0  0  0 
 15 37  1  0  0  0  0 
 18 38  1  0  0  0  0 
 19 39  1  0  0  0  0 
 20 40  1  0  0  0  0 
 21 41  1  0  0  0  0 
M  END
> <cdk:Title>
tropisetron

> <Conformer>
1

> <SuperDrugID>
SD002504

$$$$
