oxyphenisatine
  CDK     0628171801

 39 42  0  0  0  0  0  0  0  0999 V2000
    0.4677    4.8682   -0.0552 O   0  0  0  0  0  0  0  0  0  0  0  0
    1.4394    4.2838    0.4780 C   0  0  0  0  0  0  0  0  0  0  0  0
    1.8382    2.8662    0.2187 C   0  0  1  0  0  0  0  0  0  0  0  0
    2.2504    4.9175    1.3411 N   0  0  0  0  0  0  0  0  0  0  0  0
    3.0432    2.8604    1.0942 C   0  0  0  0  0  0  0  0  0  0  0  0
    0.6770    1.9936    0.6515 C   0  0  0  0  0  0  0  0  0  0  0  0
    2.3430    2.5823   -1.1817 C   0  0  0  0  0  0  0  0  0  0  0  0
    3.2341    4.1012    1.7053 C   0  0  0  0  0  0  0  0  0  0  0  0
    3.9690    1.8204    1.3271 C   0  0  0  0  0  0  0  0  0  0  0  0
   -0.4810    1.9082   -0.1689 C   0  0  0  0  0  0  0  0  0  0  0  0
    0.6655    1.2503    1.8615 C   0  0  0  0  0  0  0  0  0  0  0  0
    2.8420    3.6070   -2.0312 C   0  0  0  0  0  0  0  0  0  0  0  0
    2.4108    1.2483   -1.6690 C   0  0  0  0  0  0  0  0  0  0  0  0
    4.3396    4.3599    2.5332 C   0  0  0  0  0  0  0  0  0  0  0  0
    5.0863    2.0613    2.1510 C   0  0  0  0  0  0  0  0  0  0  0  0
   -1.5832    1.1059    0.1831 C   0  0  0  0  0  0  0  0  0  0  0  0
   -0.4325    0.4459    2.2197 C   0  0  0  0  0  0  0  0  0  0  0  0
    3.3686    3.3168   -3.3022 C   0  0  0  0  0  0  0  0  0  0  0  0
    2.9318    0.9551   -2.9427 C   0  0  0  0  0  0  0  0  0  0  0  0
    5.2738    3.3264    2.7482 C   0  0  0  0  0  0  0  0  0  0  0  0
   -1.5555    0.3641    1.3770 C   0  0  0  0  0  0  0  0  0  0  0  0
    3.4169    1.9904   -3.7606 C   0  0  0  0  0  0  0  0  0  0  0  0
   -2.6114   -0.4222    1.7048 O   0  0  0  0  0  0  0  0  0  0  0  0
    3.9379    1.7309   -4.9840 O   0  0  0  0  0  0  0  0  0  0  0  0
    2.1461    5.8356    1.6376 H   0  0  0  0  0  0  0  0  0  0  0  0
    3.8410    0.9034    0.8972 H   0  0  0  0  0  0  0  0  0  0  0  0
   -0.5317    2.4391   -1.0417 H   0  0  0  0  0  0  0  0  0  0  0  0
    1.4523    1.2898    2.5096 H   0  0  0  0  0  0  0  0  0  0  0  0
    2.8452    4.5838   -1.7309 H   0  0  0  0  0  0  0  0  0  0  0  0
    2.0875    0.4656   -1.0941 H   0  0  0  0  0  0  0  0  0  0  0  0
    4.4690    5.2781    2.9622 H   0  0  0  0  0  0  0  0  0  0  0  0
    5.7671    1.3163    2.3103 H   0  0  0  0  0  0  0  0  0  0  0  0
   -2.4037    1.0622   -0.4307 H   0  0  0  0  0  0  0  0  0  0  0  0
   -0.4137   -0.0789    3.0976 H   0  0  0  0  0  0  0  0  0  0  0  0
    3.7238    4.0757   -3.8889 H   0  0  0  0  0  0  0  0  0  0  0  0
    2.9631   -0.0142   -3.2676 H   0  0  0  0  0  0  0  0  0  0  0  0
    6.0913    3.4948    3.3373 H   0  0  0  0  0  0  0  0  0  0  0  0
   -2.3303   -0.9254    2.4986 H   0  0  0  0  0  0  0  0  0  0  0  0
    3.8665    0.7611   -5.1031 H   0  0  0  0  0  0  0  0  0  0  0  0
  1  2  2  0  0  0  0 
  2  3  1  0  0  0  0 
  2  4  1  0  0  0  0 
  3  5  1  0  0  0  0 
  3  6  1  0  0  0  0 
  3  7  1  0  0  0  0 
  4  8  1  0  0  0  0 
  5  8  2  0  0  0  0 
  5  9  1  0  0  0  0 
  6 10  2  0  0  0  0 
  6 11  1  0  0  0  0 
  7 12  2  0  0  0  0 
  7 13  1  0  0  0  0 
  8 14  1  0  0  0  0 
  9 15  2  0  0  0  0 
 10 16  1  0  0  0  0 
 11 17  2  0  0  0  0 
 12 18  1  0  0  0  0 
 13 19  2  0  0  0  0 
 14 20  2  0  0  0  0 
 15 20  1  0  0  0  0 
 16 21  2  0  0  0  0 
 17 21  1  0  0  0  0 
 18 22  2  0  0  0  0 
 19 22  1  0  0  0  0 
 21 23  1  0  0  0  0 
 22 24  1  0  0  0  0 
  4 25  1  0  0  0  0 
  9 26  1  0  0  0  0 
 10 27  1  0  0  0  0 
 11 28  1  0  0  0  0 
 12 29  1  0  0  0  0 
 13 30  1  0  0  0  0 
 14 31  1  0  0  0  0 
 15 32  1  0  0  0  0 
 16 33  1  0  0  0  0 
 17 34  1  0  0  0  0 
 18 35  1  0  0  0  0 
 19 36  1  0  0  0  0 
 20 37  1  0  0  0  0 
 23 38  1  0  0  0  0 
 24 39  1  0  0  0  0 
M  END
> <cdk:Title>
oxyphenisatine

> <Conformer>
1

> <SuperDrugID>
SD001825

$$$$
