fentonium
  CDK     0628171801

 70 74  0  0  0  0  0  0  0  0999 V2000
    4.5171   -3.1486    2.3377 N   0  0  1  0  0  0  0  0  0  0  0  0
    4.3404   -1.9185    1.4612 C   0  0  1  0  0  0  0  0  0  0  0  0
    3.7195   -0.8262    2.3922 C   0  0  2  0  0  0  0  0  0  0  0  0
    4.2339   -1.2131    3.7957 C   0  0  2  0  0  0  0  0  0  0  0  0
    5.1533   -2.4414    3.5220 C   0  0  2  0  0  0  0  0  0  0  0  0
    6.6227   -1.9482    3.2566 C   0  0  2  0  0  0  0  0  0  0  0  0
    6.8018   -1.1235    1.9341 C   0  0  1  0  0  0  0  0  0  0  0  0
    5.6845   -1.3735    0.8594 C   0  0  1  0  0  0  0  0  0  0  0  0
    6.8922    0.2780    2.2545 O   0  0  0  0  0  0  0  0  0  0  0  0
    7.3434    1.2679    1.4245 C   0  0  0  0  0  0  0  0  0  0  0  0
    6.5472    2.2106    1.2127 O   0  0  0  0  0  0  0  0  0  0  0  0
    8.7363    1.2941    0.8901 C   0  0  2  0  0  0  0  0  0  0  0  0
    9.3726    2.7173    0.8821 C   0  0  1  0  0  0  0  0  0  0  0  0
   10.7305    2.6644    0.4462 O   0  0  0  0  0  0  0  0  0  0  0  0
    8.8260    0.6466   -0.4597 C   0  0  0  0  0  0  0  0  0  0  0  0
    9.6851   -0.4622   -0.6731 C   0  0  0  0  0  0  0  0  0  0  0  0
    9.7950   -1.0644   -1.9410 C   0  0  0  0  0  0  0  0  0  0  0  0
    9.0427   -0.5707   -3.0210 C   0  0  0  0  0  0  0  0  0  0  0  0
    8.1881    0.5296   -2.8340 C   0  0  0  0  0  0  0  0  0  0  0  0
    8.0834    1.1329   -1.5662 C   0  0  0  0  0  0  0  0  0  0  0  0
    3.1505   -3.8035    2.6260 C   0  0  2  0  0  0  0  0  0  0  0  0
    5.3756   -4.2484    1.7242 C   0  0  0  0  0  0  0  0  0  0  0  0
    3.1092   -4.9188    3.6202 C   0  0  0  0  0  0  0  0  0  0  0  0
    3.1183   -4.7251    5.0265 C   0  0  0  0  0  0  0  0  0  0  0  0
    3.0685   -6.0960    3.1879 O   0  0  0  0  0  0  0  0  0  0  0  0
    3.2330   -4.3041    7.8387 C   0  0  0  0  0  0  0  0  0  0  0  0
    4.0380   -5.2916    7.2283 C   0  0  0  0  0  0  0  0  0  0  0  0
    3.9789   -5.4997    5.8388 C   0  0  0  0  0  0  0  0  0  0  0  0
    2.2859   -3.7657    5.6497 C   0  0  0  0  0  0  0  0  0  0  0  0
    2.3563   -3.5446    7.0347 C   0  0  0  0  0  0  0  0  0  0  0  0
    3.2611   -4.0897    9.2366 C   0  0  0  0  0  0  0  0  0  0  0  0
    3.5946   -2.6082   11.1590 C   0  0  0  0  0  0  0  0  0  0  0  0
    3.1871   -3.6372   12.0276 C   0  0  0  0  0  0  0  0  0  0  0  0
    2.8291   -4.8948   11.5086 C   0  0  0  0  0  0  0  0  0  0  0  0
    2.8729   -5.1235   10.1206 C   0  0  0  0  0  0  0  0  0  0  0  0
    3.6296   -2.8314    9.7696 C   0  0  0  0  0  0  0  0  0  0  0  0
    3.6603   -2.1184    0.6257 H   0  0  0  0  0  0  0  0  0  0  0  0
    2.6268   -0.8567    2.3563 H   0  0  0  0  0  0  0  0  0  0  0  0
    4.0196    0.1926    2.1313 H   0  0  0  0  0  0  0  0  0  0  0  0
    3.3994   -1.4906    4.4423 H   0  0  0  0  0  0  0  0  0  0  0  0
    4.7539   -0.3826    4.2814 H   0  0  0  0  0  0  0  0  0  0  0  0
    5.1892   -3.0814    4.4063 H   0  0  0  0  0  0  0  0  0  0  0  0
    7.2829   -2.8191    3.2296 H   0  0  0  0  0  0  0  0  0  0  0  0
    6.9584   -1.3542    4.1119 H   0  0  0  0  0  0  0  0  0  0  0  0
    7.7631   -1.4190    1.5030 H   0  0  0  0  0  0  0  0  0  0  0  0
    6.0526   -2.0759    0.1089 H   0  0  0  0  0  0  0  0  0  0  0  0
    5.4756   -0.4524    0.3077 H   0  0  0  0  0  0  0  0  0  0  0  0
    9.3396    0.7229    1.6046 H   0  0  0  0  0  0  0  0  0  0  0  0
    8.8236    3.3955    0.2236 H   0  0  0  0  0  0  0  0  0  0  0  0
    9.3632    3.1369    1.8908 H   0  0  0  0  0  0  0  0  0  0  0  0
   11.0627    3.5838    0.5211 H   0  0  0  0  0  0  0  0  0  0  0  0
   10.2470   -0.8389    0.0946 H   0  0  0  0  0  0  0  0  0  0  0  0
   10.4234   -1.8600   -2.0775 H   0  0  0  0  0  0  0  0  0  0  0  0
    9.1193   -1.0085   -3.9418 H   0  0  0  0  0  0  0  0  0  0  0  0
    7.6438    0.8925   -3.6207 H   0  0  0  0  0  0  0  0  0  0  0  0
    7.4603    1.9363   -1.4590 H   0  0  0  0  0  0  0  0  0  0  0  0
    2.7446   -4.1891    1.6830 H   0  0  0  0  0  0  0  0  0  0  0  0
    2.3978   -3.0826    2.9352 H   0  0  0  0  0  0  0  0  0  0  0  0
    5.5405   -5.0611    2.4352 H   0  0  0  0  0  0  0  0  0  0  0  0
    6.3680   -3.9334    1.4093 H   0  0  0  0  0  0  0  0  0  0  0  0
    4.8963   -4.6679    0.8347 H   0  0  0  0  0  0  0  0  0  0  0  0
    4.6773   -5.8625    7.7857 H   0  0  0  0  0  0  0  0  0  0  0  0
    4.5807   -6.2147    5.4212 H   0  0  0  0  0  0  0  0  0  0  0  0
    1.6123   -3.2191    5.1080 H   0  0  0  0  0  0  0  0  0  0  0  0
    1.7509   -2.8337    7.4541 H   0  0  0  0  0  0  0  0  0  0  0  0
    3.8629   -1.6964   11.5368 H   0  0  0  0  0  0  0  0  0  0  0  0
    3.1462   -3.4691   13.0357 H   0  0  0  0  0  0  0  0  0  0  0  0
    2.5316   -5.6422   12.1403 H   0  0  0  0  0  0  0  0  0  0  0  0
    2.6023   -6.0438    9.7610 H   0  0  0  0  0  0  0  0  0  0  0  0
    3.9248   -2.0694    9.1519 H   0  0  0  0  0  0  0  0  0  0  0  0
  2  1  1  0  0  0  0 
  2  3  1  0  0  0  0 
  3  4  1  0  0  0  0 
  5  4  1  0  0  0  0 
  5  1  1  0  0  0  0 
  5  6  1  0  0  0  0 
  7  6  1  0  0  0  0 
  7  8  1  0  0  0  0 
  2  8  1  0  0  0  0 
  7  9  1  0  0  0  0 
  9 10  1  0  0  0  0 
 10 11  2  0  0  0  0 
 12 10  1  0  0  0  0 
 12 13  1  0  0  0  0 
 13 14  1  0  0  0  0 
 12 15  1  0  0  0  0 
 15 16  2  0  0  0  0 
 16 17  1  0  0  0  0 
 17 18  2  0  0  0  0 
 18 19  1  0  0  0  0 
 19 20  2  0  0  0  0 
 15 20  1  0  0  0  0 
  1 21  1  0  0  0  0 
  1 22  1  0  0  0  0 
 21 23  1  0  0  0  0 
 23 24  1  0  0  0  0 
 23 25  2  0  0  0  0 
 28 24  2  0  0  0  0 
 24 29  1  0  0  0  0 
 26 27  2  0  0  0  0 
 27 28  1  0  0  0  0 
 29 30  2  0  0  0  0 
 26 30  1  0  0  0  0 
 26 31  1  0  0  0  0 
 35 31  2  0  0  0  0 
 31 36  1  0  0  0  0 
 32 33  1  0  0  0  0 
 33 34  2  0  0  0  0 
 34 35  1  0  0  0  0 
 32 36  2  0  0  0  0 
  2 37  1  0  0  0  0 
 38  3  1  0  0  0  0 
 39  3  1  0  0  0  0 
 40  4  1  0  0  0  0 
 41  4  1  0  0  0  0 
  5 42  1  0  0  0  0 
 43  6  1  0  0  0  0 
 44  6  1  0  0  0  0 
  7 45  1  0  0  0  0 
 46  8  1  0  0  0  0 
 47  8  1  0  0  0  0 
 12 48  1  0  0  0  0 
 49 13  1  0  0  0  0 
 50 13  1  0  0  0  0 
 51 14  1  0  0  0  0 
 52 16  1  0  0  0  0 
 53 17  1  0  0  0  0 
 54 18  1  0  0  0  0 
 55 19  1  0  0  0  0 
 56 20  1  0  0  0  0 
 57 21  1  0  0  0  0 
 58 21  1  0  0  0  0 
 59 22  1  0  0  0  0 
 60 22  1  0  0  0  0 
 61 22  1  0  0  0  0 
 62 27  1  0  0  0  0 
 63 28  1  0  0  0  0 
 64 29  1  0  0  0  0 
 65 30  1  0  0  0  0 
 66 32  1  0  0  0  0 
 67 33  1  0  0  0  0 
 68 34  1  0  0  0  0 
 69 35  1  0  0  0  0 
 70 36  1  0  0  0  0 
M  CHG  1   1   1
M  END
> <cdk:Title>
fentonium

> <Conformer>
1

> <SuperDrugID>
SD001044

$$$$
