phenytoin
  CDK     0628171801

 31 33  0  0  0  0  0  0  0  0999 V2000
   -0.9964   -0.9932   -2.4757 O   0  0  0  0  0  0  0  0  0  0  0  0
   -0.5036   -1.6285   -1.5160 C   0  0  0  0  0  0  0  0  0  0  0  0
    0.1744   -1.0244   -0.3385 C   0  0  2  0  0  0  0  0  0  0  0  0
   -0.5015   -2.9628   -1.4558 N   0  0  0  0  0  0  0  0  0  0  0  0
    0.5298   -2.2464    0.3188 N   0  0  0  0  0  0  0  0  0  0  0  0
   -0.8453   -0.1955    0.4107 C   0  0  0  0  0  0  0  0  0  0  0  0
    1.4839   -0.3343   -0.6332 C   0  0  0  0  0  0  0  0  0  0  0  0
    0.1252   -3.3382   -0.3450 C   0  0  0  0  0  0  0  0  0  0  0  0
   -1.3765   -0.5959    1.6660 C   0  0  0  0  0  0  0  0  0  0  0  0
   -1.3222    1.0247   -0.1376 C   0  0  0  0  0  0  0  0  0  0  0  0
    2.2298   -0.5897   -1.8178 C   0  0  0  0  0  0  0  0  0  0  0  0
    2.0608    0.5461    0.3183 C   0  0  0  0  0  0  0  0  0  0  0  0
    0.3113   -4.5199    0.0178 O   0  0  0  0  0  0  0  0  0  0  0  0
   -2.3473    0.1740    2.3322 C   0  0  0  0  0  0  0  0  0  0  0  0
   -2.2973    1.7955    0.5248 C   0  0  0  0  0  0  0  0  0  0  0  0
    3.4755    0.0217   -2.0492 C   0  0  0  0  0  0  0  0  0  0  0  0
    3.3022    1.1666    0.0858 C   0  0  0  0  0  0  0  0  0  0  0  0
   -2.8191    1.3637    1.7565 C   0  0  0  0  0  0  0  0  0  0  0  0
    4.0087    0.9080   -1.1000 C   0  0  0  0  0  0  0  0  0  0  0  0
   -0.8855   -3.5553   -2.1212 H   0  0  0  0  0  0  0  0  0  0  0  0
    1.0115   -2.2829    1.1612 H   0  0  0  0  0  0  0  0  0  0  0  0
   -1.0690   -1.4617    2.1119 H   0  0  0  0  0  0  0  0  0  0  0  0
   -0.9646    1.3600   -1.0348 H   0  0  0  0  0  0  0  0  0  0  0  0
    1.8852   -1.2371   -2.5287 H   0  0  0  0  0  0  0  0  0  0  0  0
    1.5814    0.7428    1.1993 H   0  0  0  0  0  0  0  0  0  0  0  0
   -2.7138   -0.1332    3.2340 H   0  0  0  0  0  0  0  0  0  0  0  0
   -2.6303    2.6692    0.1096 H   0  0  0  0  0  0  0  0  0  0  0  0
    3.9963   -0.1824   -2.9062 H   0  0  0  0  0  0  0  0  0  0  0  0
    3.6941    1.8033    0.7837 H   0  0  0  0  0  0  0  0  0  0  0  0
   -3.5394    1.9126    2.2304 H   0  0  0  0  0  0  0  0  0  0  0  0
    4.9115    1.3575   -1.2694 H   0  0  0  0  0  0  0  0  0  0  0  0
  1  2  2  0  0  0  0 
  2  3  1  0  0  0  0 
  2  4  1  0  0  0  0 
  3  5  1  0  0  0  0 
  3  6  1  0  0  0  0 
  3  7  1  0  0  0  0 
  4  8  1  0  0  0  0 
  5  8  1  0  0  0  0 
  6  9  2  0  0  0  0 
  6 10  1  0  0  0  0 
  7 11  2  0  0  0  0 
  7 12  1  0  0  0  0 
  8 13  2  0  0  0  0 
  9 14  1  0  0  0  0 
 10 15  2  0  0  0  0 
 11 16  1  0  0  0  0 
 12 17  2  0  0  0  0 
 14 18  2  0  0  0  0 
 15 18  1  0  0  0  0 
 16 19  2  0  0  0  0 
 17 19  1  0  0  0  0 
  4 20  1  0  0  0  0 
  5 21  1  0  0  0  0 
  9 22  1  0  0  0  0 
 10 23  1  0  0  0  0 
 11 24  1  0  0  0  0 
 12 25  1  0  0  0  0 
 14 26  1  0  0  0  0 
 15 27  1  0  0  0  0 
 16 28  1  0  0  0  0 
 17 29  1  0  0  0  0 
 18 30  1  0  0  0  0 
 19 31  1  0  0  0  0 
M  END
> <cdk:Title>
phenytoin

> <Conformer>
1

> <SuperDrugID>
SD001931

$$$$
