mercaptopurine
  CDK     0628171801

 14 15  0  0  0  0  0  0  0  0999 V2000
    1.6880    0.0283    0.0000 S   0  0  0  0  0  0  0  0  0  0  0  0
   -0.0141    0.0223    0.0000 C   0  0  0  0  0  0  0  0  0  0  0  0
   -0.6871    1.1766    0.0000 N   0  0  0  0  0  0  0  0  0  0  0  0
   -2.0533    1.2190    0.0000 C   0  0  0  0  0  0  0  0  0  0  0  0
   -2.7782    0.0646    0.0000 N   0  0  0  0  0  0  0  0  0  0  0  0
   -2.1165   -1.1184    0.0000 C   0  0  0  0  0  0  0  0  0  0  0  0
   -0.7262   -1.1574    0.0000 C   0  0  0  0  0  0  0  0  0  0  0  0
   -0.3673   -2.4452    0.0000 N   0  0  0  0  0  0  0  0  0  0  0  0
   -1.4983   -3.1720    0.0000 C   0  0  0  0  0  0  0  0  0  0  0  0
   -2.5859   -2.3748    0.0000 N   0  0  0  0  0  0  0  0  0  0  0  0
   -0.1931    2.0121    0.0000 H   0  0  0  0  0  0  0  0  0  0  0  0
   -2.5339    2.1198    0.0000 H   0  0  0  0  0  0  0  0  0  0  0  0
    0.5389   -2.7901    0.0000 H   0  0  0  0  0  0  0  0  0  0  0  0
   -1.5269   -4.1915    0.0000 H   0  0  0  0  0  0  0  0  0  0  0  0
  1  2  2  0  0  0  0 
  2  3  1  0  0  0  0 
  3  4  1  0  0  0  0 
  4  5  2  0  0  0  0 
  5  6  1  0  0  0  0 
  6  7  2  0  0  0  0 
  2  7  1  0  0  0  0 
  7  8  1  0  0  0  0 
  8  9  1  0  0  0  0 
  9 10  2  0  0  0  0 
  6 10  1  0  0  0  0 
 11  3  1  0  0  0  0 
 12  4  1  0  0  0  0 
 13  8  1  0  0  0  0 
 14  9  1  0  0  0  0 
M  END
> <cdk:Title>
mercaptopurine

> <Conformer>
1

> <SuperDrugID>
SD001511

$$$$
