mebutamate
  CDK     0628171801

 36 35  0  0  0  0  0  0  0  0999 V2000
   -8.1358    5.9284   -1.7881 C   0  0  1  0  0  0  0  0  0  0  0  0
   -8.6382    4.6409   -2.6024 C   0  0  2  0  0  0  0  0  0  0  0  0
   -7.4853    5.4939   -0.4186 C   0  0  2  0  0  0  0  0  0  0  0  0
   -7.0238    6.7203   -2.5793 C   0  0  1  0  0  0  0  0  0  0  0  0
   -9.3168    6.9114   -1.4834 C   0  0  0  0  0  0  0  0  0  0  0  0
   -8.9626    4.8922   -4.1227 C   0  0  2  0  0  0  0  0  0  0  0  0
   -9.8382    3.8872   -1.9377 C   0  0  0  0  0  0  0  0  0  0  0  0
   -7.0099    6.6166    0.3466 O   0  0  0  0  0  0  0  0  0  0  0  0
   -5.9589    5.8396   -2.9713 O   0  0  0  0  0  0  0  0  0  0  0  0
   -9.1633    3.6307   -4.9986 C   0  0  0  0  0  0  0  0  0  0  0  0
   -6.3305    6.5707    1.5259 C   0  0  0  0  0  0  0  0  0  0  0  0
   -4.8800    6.1393   -3.7442 C   0  0  0  0  0  0  0  0  0  0  0  0
   -6.0109    7.7244    2.1318 N   0  0  0  0  0  0  0  0  0  0  0  0
   -5.9836    5.4916    2.0543 O   0  0  0  0  0  0  0  0  0  0  0  0
   -3.9716    5.1792   -3.9695 N   0  0  0  0  0  0  0  0  0  0  0  0
   -4.7143    7.2723   -4.2489 O   0  0  0  0  0  0  0  0  0  0  0  0
   -7.8058    3.9294   -2.5927 H   0  0  0  0  0  0  0  0  0  0  0  0
   -6.6495    4.8124   -0.6054 H   0  0  0  0  0  0  0  0  0  0  0  0
   -8.2053    4.9687    0.2089 H   0  0  0  0  0  0  0  0  0  0  0  0
   -7.4447    7.2080   -3.4630 H   0  0  0  0  0  0  0  0  0  0  0  0
   -6.5936    7.5200   -1.9698 H   0  0  0  0  0  0  0  0  0  0  0  0
   -9.8502    7.1801   -2.3955 H   0  0  0  0  0  0  0  0  0  0  0  0
   -8.9556    7.8352   -1.0255 H   0  0  0  0  0  0  0  0  0  0  0  0
  -10.0311    6.4640   -0.7902 H   0  0  0  0  0  0  0  0  0  0  0  0
   -8.1363    5.4179   -4.5962 H   0  0  0  0  0  0  0  0  0  0  0  0
   -9.8494    5.5230   -4.2146 H   0  0  0  0  0  0  0  0  0  0  0  0
   -9.6740    3.6991   -0.8792 H   0  0  0  0  0  0  0  0  0  0  0  0
   -9.9890    2.9098   -2.3986 H   0  0  0  0  0  0  0  0  0  0  0  0
  -10.7625    4.4570   -2.0447 H   0  0  0  0  0  0  0  0  0  0  0  0
   -8.3175    2.9505   -4.8894 H   0  0  0  0  0  0  0  0  0  0  0  0
  -10.0813    3.1085   -4.7347 H   0  0  0  0  0  0  0  0  0  0  0  0
   -9.2351    3.9234   -6.0474 H   0  0  0  0  0  0  0  0  0  0  0  0
   -5.5186    7.7175    2.9667 H   0  0  0  0  0  0  0  0  0  0  0  0
   -6.2701    8.5686    1.7332 H   0  0  0  0  0  0  0  0  0  0  0  0
   -4.0998    4.2949   -3.5930 H   0  0  0  0  0  0  0  0  0  0  0  0
   -3.1831    5.3672   -4.5015 H   0  0  0  0  0  0  0  0  0  0  0  0
  1  2  1  0  0  0  0 
  1  3  1  0  0  0  0 
  1  4  1  0  0  0  0 
  1  5  1  0  0  0  0 
  2  6  1  0  0  0  0 
  2  7  1  0  0  0  0 
  3  8  1  0  0  0  0 
  4  9  1  0  0  0  0 
  6 10  1  0  0  0  0 
  8 11  1  0  0  0  0 
  9 12  1  0  0  0  0 
 11 13  1  0  0  0  0 
 11 14  2  0  0  0  0 
 12 15  1  0  0  0  0 
 12 16  2  0  0  0  0 
 17  2  1  0  0  0  0 
 18  3  1  0  0  0  0 
 19  3  1  0  0  0  0 
 20  4  1  0  0  0  0 
 21  4  1  0  0  0  0 
 22  5  1  0  0  0  0 
 23  5  1  0  0  0  0 
 24  5  1  0  0  0  0 
 25  6  1  0  0  0  0 
 26  6  1  0  0  0  0 
 27  7  1  0  0  0  0 
 28  7  1  0  0  0  0 
 29  7  1  0  0  0  0 
 30 10  1  0  0  0  0 
 31 10  1  0  0  0  0 
 32 10  1  0  0  0  0 
 33 13  1  0  0  0  0 
 34 13  1  0  0  0  0 
 35 15  1  0  0  0  0 
 36 15  1  0  0  0  0 
M  END
> <cdk:Title>
mebutamate

> <Conformer>
1

> <SuperDrugID>
SD001454

$$$$
