dibrompropamidine
  CDK     0628171801

 43 44  0  0  0  0  0  0  0  0999 V2000
    2.4923   -5.7881   -1.7931 O   0  0  0  0  0  0  0  0  0  0  0  0
    1.3567   -6.0702   -0.9455 C   0  0  1  0  0  0  0  0  0  0  0  0
    2.6030   -4.4465   -2.0608 C   0  0  0  0  0  0  0  0  0  0  0  0
    1.2421   -7.5899   -0.6721 C   0  0  1  0  0  0  0  0  0  0  0  0
    1.9781   -3.8813   -3.1902 C   0  0  0  0  0  0  0  0  0  0  0  0
    3.3421   -3.6204   -1.1932 C   0  0  0  0  0  0  0  0  0  0  0  0
    0.0257   -7.9382    0.2200 C   0  0  2  0  0  0  0  0  0  0  0  0
    1.0544   -4.9563   -4.4014 Br  0  0  0  0  0  0  0  0  0  0  0  0
    2.0435   -2.4916   -3.4074 C   0  0  0  0  0  0  0  0  0  0  0  0
    3.4075   -2.2343   -1.4198 C   0  0  0  0  0  0  0  0  0  0  0  0
    0.1229   -7.2202    1.4692 O   0  0  0  0  0  0  0  0  0  0  0  0
    2.7459   -1.6307   -2.5219 C   0  0  0  0  0  0  0  0  0  0  0  0
   -0.9642   -7.3780    2.2836 C   0  0  0  0  0  0  0  0  0  0  0  0
    2.7823   -0.2417   -2.7201 C   0  0  0  0  0  0  0  0  0  0  0  0
   -2.0509   -6.4832    2.2296 C   0  0  0  0  0  0  0  0  0  0  0  0
   -0.9798   -8.4312    3.2141 C   0  0  0  0  0  0  0  0  0  0  0  0
    3.5470    0.5236   -2.0350 N   0  0  0  0  0  0  0  0  0  0  0  0
    2.0308    0.3751   -3.6162 N   0  0  0  0  0  0  0  0  0  0  0  0
   -2.0308   -5.0313    1.0606 Br  0  0  0  0  0  0  0  0  0  0  0  0
   -3.1660   -6.6813    3.0662 C   0  0  0  0  0  0  0  0  0  0  0  0
   -2.0932   -8.6204    4.0498 C   0  0  0  0  0  0  0  0  0  0  0  0
   -3.2267   -7.7673    3.9809 C   0  0  0  0  0  0  0  0  0  0  0  0
   -4.3592   -7.9945    4.7788 C   0  0  0  0  0  0  0  0  0  0  0  0
   -5.4638   -7.3670    4.6239 N   0  0  0  0  0  0  0  0  0  0  0  0
   -4.3853   -8.8867    5.7505 N   0  0  0  0  0  0  0  0  0  0  0  0
    1.4679   -5.5489    0.0117 H   0  0  0  0  0  0  0  0  0  0  0  0
    0.4292   -5.7347   -1.4226 H   0  0  0  0  0  0  0  0  0  0  0  0
    1.1460   -8.1181   -1.6249 H   0  0  0  0  0  0  0  0  0  0  0  0
    2.1558   -7.9385   -0.1828 H   0  0  0  0  0  0  0  0  0  0  0  0
    3.8194   -4.0267   -0.3841 H   0  0  0  0  0  0  0  0  0  0  0  0
    0.0207   -9.0174    0.4007 H   0  0  0  0  0  0  0  0  0  0  0  0
   -0.8893   -7.6745   -0.3214 H   0  0  0  0  0  0  0  0  0  0  0  0
    1.5621   -2.1177   -4.2292 H   0  0  0  0  0  0  0  0  0  0  0  0
    3.9401   -1.6673   -0.7533 H   0  0  0  0  0  0  0  0  0  0  0  0
   -0.1793   -9.0649    3.2795 H   0  0  0  0  0  0  0  0  0  0  0  0
    3.5535    1.4477   -2.1800 H   0  0  0  0  0  0  0  0  0  0  0  0
    1.4039   -0.1265   -4.1619 H   0  0  0  0  0  0  0  0  0  0  0  0
    2.1017    1.3371   -3.7293 H   0  0  0  0  0  0  0  0  0  0  0  0
   -3.9384   -6.0126    2.9986 H   0  0  0  0  0  0  0  0  0  0  0  0
   -2.0583   -9.4049    4.7056 H   0  0  0  0  0  0  0  0  0  0  0  0
   -5.5656   -6.7166    3.9609 H   0  0  0  0  0  0  0  0  0  0  0  0
   -5.1981   -9.0257    6.2621 H   0  0  0  0  0  0  0  0  0  0  0  0
   -3.5959   -9.4082    5.9579 H   0  0  0  0  0  0  0  0  0  0  0  0
  1  2  1  0  0  0  0 
  1  3  1  0  0  0  0 
  2  4  1  0  0  0  0 
  3  5  2  0  0  0  0 
  3  6  1  0  0  0  0 
  4  7  1  0  0  0  0 
  5  8  1  0  0  0  0 
  5  9  1  0  0  0  0 
  6 10  2  0  0  0  0 
  7 11  1  0  0  0  0 
  9 12  2  0  0  0  0 
 10 12  1  0  0  0  0 
 11 13  1  0  0  0  0 
 12 14  1  0  0  0  0 
 13 15  2  0  0  0  0 
 13 16  1  0  0  0  0 
 14 17  2  0  0  0  0 
 14 18  1  0  0  0  0 
 15 19  1  0  0  0  0 
 15 20  1  0  0  0  0 
 16 21  2  0  0  0  0 
 20 22  2  0  0  0  0 
 21 22  1  0  0  0  0 
 22 23  1  0  0  0  0 
 23 24  2  0  0  0  0 
 23 25  1  0  0  0  0 
  2 26  1  0  0  0  0 
  2 27  1  0  0  0  0 
  4 28  1  0  0  0  0 
  4 29  1  0  0  0  0 
  6 30  1  0  0  0  0 
  7 31  1  0  0  0  0 
  7 32  1  0  0  0  0 
  9 33  1  0  0  0  0 
 10 34  1  0  0  0  0 
 16 35  1  0  0  0  0 
 17 36  1  0  0  0  0 
 18 37  1  0  0  0  0 
 18 38  1  0  0  0  0 
 20 39  1  0  0  0  0 
 21 40  1  0  0  0  0 
 24 41  1  0  0  0  0 
 25 42  1  0  0  0  0 
 25 43  1  0  0  0  0 
M  END
> <cdk:Title>
dibrompropamidine

> <Conformer>
1

> <SuperDrugID>
SD002720

$$$$
