dilazep
  CDK     0628171802

 87 89  0  0  0  0  0  0  0  0999 V2000
    2.0987    2.6556    3.8033 C   0  0  0  0  0  0  0  0  0  0  0  0
    3.1471    2.2444    4.5780 O   0  0  0  0  0  0  0  0  0  0  0  0
    1.5056    3.7178    4.1148 O   0  0  0  0  0  0  0  0  0  0  0  0
    1.6836    1.8904    2.6764 C   0  0  0  0  0  0  0  0  0  0  0  0
    3.5913    2.8606    5.7936 C   0  0  1  0  0  0  0  0  0  0  0  0
    2.2374    0.6127    2.4093 C   0  0  0  0  0  0  0  0  0  0  0  0
    0.6792    2.3707    1.8020 C   0  0  0  0  0  0  0  0  0  0  0  0
    4.8660    2.1523    6.2970 C   0  0  2  0  0  0  0  0  0  0  0  0
    1.7791   -0.1755    1.3335 C   0  0  0  0  0  0  0  0  0  0  0  0
    0.2216    1.6002    0.7141 C   0  0  0  0  0  0  0  0  0  0  0  0
    5.2360    2.5254    7.7620 C   0  0  1  0  0  0  0  0  0  0  0  0
    2.2999   -1.4299    1.1467 O   0  0  0  0  0  0  0  0  0  0  0  0
    0.7522    0.3107    0.4953 C   0  0  0  0  0  0  0  0  0  0  0  0
   -0.7633    2.0914   -0.1011 O   0  0  0  0  0  0  0  0  0  0  0  0
    4.3689    1.9382    8.8426 N   0  0  1  0  0  0  0  0  0  0  0  0
    3.3575   -1.4771    0.1734 C   0  0  0  0  0  0  0  0  0  0  0  0
    0.2919   -0.4528   -0.5465 O   0  0  0  0  0  0  0  0  0  0  0  0
   -0.2489    2.7840   -1.2528 C   0  0  0  0  0  0  0  0  0  0  0  0
    4.0866    0.4631    8.8312 C   0  0  1  0  0  0  0  0  0  0  0  0
    4.6302    2.4830   10.2136 C   0  0  1  0  0  0  0  0  0  0  0  0
   -0.7884   -1.3280   -0.1773 C   0  0  0  0  0  0  0  0  0  0  0  0
    5.3320   -0.4671    8.7890 C   0  0  1  0  0  0  0  0  0  0  0  0
    6.0064    2.1164   10.8413 C   0  0  2  0  0  0  0  0  0  0  0  0
    6.5512    0.1091    9.4348 N   0  0  0  0  0  0  0  0  0  0  0  0
    6.3705    0.6055   10.8383 C   0  0  1  0  0  0  0  0  0  0  0  0
    7.8670   -0.5259    9.0839 C   0  0  1  0  0  0  0  0  0  0  0  0
    8.1745   -0.4385    7.5568 C   0  0  1  0  0  0  0  0  0  0  0  0
    9.6724   -0.4005    7.1819 C   0  0  1  0  0  0  0  0  0  0  0  0
    9.7188   -0.0890    5.7841 O   0  0  0  0  0  0  0  0  0  0  0  0
   10.7902    0.2574    5.0183 C   0  0  0  0  0  0  0  0  0  0  0  0
   11.9236    0.2978    5.5555 O   0  0  0  0  0  0  0  0  0  0  0  0
   10.5942    0.5950    3.6476 C   0  0  0  0  0  0  0  0  0  0  0  0
   11.6783    0.9931    2.8302 C   0  0  0  0  0  0  0  0  0  0  0  0
    9.3038    0.5545    3.0596 C   0  0  0  0  0  0  0  0  0  0  0  0
   11.4898    1.3214    1.4723 C   0  0  0  0  0  0  0  0  0  0  0  0
    9.0983    0.9019    1.7089 C   0  0  0  0  0  0  0  0  0  0  0  0
   12.5664    1.6754    0.7059 O   0  0  0  0  0  0  0  0  0  0  0  0
   10.1938    1.3035    0.9147 C   0  0  0  0  0  0  0  0  0  0  0  0
    7.8280    0.8925    1.1945 O   0  0  0  0  0  0  0  0  0  0  0  0
   13.1395    0.5601   -0.0011 C   0  0  0  0  0  0  0  0  0  0  0  0
   10.0103    1.6115   -0.4097 O   0  0  0  0  0  0  0  0  0  0  0  0
    7.5208   -0.2640    0.3946 C   0  0  0  0  0  0  0  0  0  0  0  0
    9.7441    3.0013   -0.6651 C   0  0  0  0  0  0  0  0  0  0  0  0
    3.8199    3.9139    5.6110 H   0  0  0  0  0  0  0  0  0  0  0  0
    2.7937    2.7894    6.5384 H   0  0  0  0  0  0  0  0  0  0  0  0
    2.9745    0.2305    3.0063 H   0  0  0  0  0  0  0  0  0  0  0  0
    0.2629    3.2930    1.9530 H   0  0  0  0  0  0  0  0  0  0  0  0
    5.6887    2.4349    5.6312 H   0  0  0  0  0  0  0  0  0  0  0  0
    4.7463    1.0732    6.2008 H   0  0  0  0  0  0  0  0  0  0  0  0
    6.2741    2.2403    7.9265 H   0  0  0  0  0  0  0  0  0  0  0  0
    5.2031    3.6155    7.8477 H   0  0  0  0  0  0  0  0  0  0  0  0
    3.7333   -2.4999    0.1329 H   0  0  0  0  0  0  0  0  0  0  0  0
    2.9966   -1.2058   -0.8216 H   0  0  0  0  0  0  0  0  0  0  0  0
    4.1859   -0.8230    0.4513 H   0  0  0  0  0  0  0  0  0  0  0  0
   -1.0950    3.0976   -1.8648 H   0  0  0  0  0  0  0  0  0  0  0  0
    0.3097    3.6779   -0.9648 H   0  0  0  0  0  0  0  0  0  0  0  0
    0.3896    2.1361   -1.8594 H   0  0  0  0  0  0  0  0  0  0  0  0
    3.4915    0.1922    9.7092 H   0  0  0  0  0  0  0  0  0  0  0  0
    3.4424    0.2392    7.9793 H   0  0  0  0  0  0  0  0  0  0  0  0
    4.5445    3.5726   10.1767 H   0  0  0  0  0  0  0  0  0  0  0  0
    3.8351    2.1560   10.8902 H   0  0  0  0  0  0  0  0  0  0  0  0
   -1.0750   -1.9018   -1.0587 H   0  0  0  0  0  0  0  0  0  0  0  0
   -0.4849   -2.0331    0.6009 H   0  0  0  0  0  0  0  0  0  0  0  0
   -1.6617   -0.7637    0.1594 H   0  0  0  0  0  0  0  0  0  0  0  0
    5.0943   -1.4272    9.2560 H   0  0  0  0  0  0  0  0  0  0  0  0
    5.5357   -0.6685    7.7372 H   0  0  0  0  0  0  0  0  0  0  0  0
    5.9995    2.4660   11.8789 H   0  0  0  0  0  0  0  0  0  0  0  0
    6.7945    2.6697   10.3225 H   0  0  0  0  0  0  0  0  0  0  0  0
    7.2906    0.4879   11.4186 H   0  0  0  0  0  0  0  0  0  0  0  0
    5.6022    0.0343   11.3668 H   0  0  0  0  0  0  0  0  0  0  0  0
    8.6645   -0.0010    9.6141 H   0  0  0  0  0  0  0  0  0  0  0  0
    7.8877   -1.5684    9.4183 H   0  0  0  0  0  0  0  0  0  0  0  0
    7.7549   -1.3774    7.0736 H   0  0  0  0  0  0  0  0  0  0  0  0
    7.7650    0.5582    7.1992 H   0  0  0  0  0  0  0  0  0  0  0  0
   10.1745    0.3874    7.7499 H   0  0  0  0  0  0  0  0  0  0  0  0
   10.1582   -1.3621    7.3783 H   0  0  0  0  0  0  0  0  0  0  0  0
   12.6236    1.0428    3.2161 H   0  0  0  0  0  0  0  0  0  0  0  0
    8.4900    0.2718    3.6105 H   0  0  0  0  0  0  0  0  0  0  0  0
   13.9765    0.9281   -0.5943 H   0  0  0  0  0  0  0  0  0  0  0  0
   13.5225   -0.1978    0.6867 H   0  0  0  0  0  0  0  0  0  0  0  0
   12.4169    0.1012   -0.6810 H   0  0  0  0  0  0  0  0  0  0  0  0
    6.5238   -0.1254   -0.0225 H   0  0  0  0  0  0  0  0  0  0  0  0
    8.2152   -0.3829   -0.4402 H   0  0  0  0  0  0  0  0  0  0  0  0
    7.5166   -1.1754    0.9960 H   0  0  0  0  0  0  0  0  0  0  0  0
    9.6120    3.1244   -1.7403 H   0  0  0  0  0  0  0  0  0  0  0  0
    8.8287    3.3354   -0.1711 H   0  0  0  0  0  0  0  0  0  0  0  0
   10.5787    3.6327   -0.3533 H   0  0  0  0  0  0  0  0  0  0  0  0
  1  2  1  0  0  0  0 
  1  3  2  0  0  0  0 
  1  4  1  0  0  0  0 
  2  5  1  0  0  0  0 
  4  6  2  0  0  0  0 
  4  7  1  0  0  0  0 
  5  8  1  0  0  0  0 
  6  9  1  0  0  0  0 
  7 10  2  0  0  0  0 
  8 11  1  0  0  0  0 
  9 12  1  0  0  0  0 
  9 13  2  0  0  0  0 
 10 13  1  0  0  0  0 
 10 14  1  0  0  0  0 
 11 15  1  0  0  0  0 
 12 16  1  0  0  0  0 
 13 17  1  0  0  0  0 
 14 18  1  0  0  0  0 
 15 19  1  0  0  0  0 
 15 20  1  0  0  0  0 
 17 21  1  0  0  0  0 
 19 22  1  0  0  0  0 
 20 23  1  0  0  0  0 
 22 24  1  0  0  0  0 
 23 25  1  0  0  0  0 
 24 25  1  0  0  0  0 
 24 26  1  0  0  0  0 
 26 27  1  0  0  0  0 
 27 28  1  0  0  0  0 
 28 29  1  0  0  0  0 
 29 30  1  0  0  0  0 
 30 31  2  0  0  0  0 
 30 32  1  0  0  0  0 
 32 33  2  0  0  0  0 
 32 34  1  0  0  0  0 
 33 35  1  0  0  0  0 
 34 36  2  0  0  0  0 
 35 37  1  0  0  0  0 
 35 38  2  0  0  0  0 
 36 38  1  0  0  0  0 
 36 39  1  0  0  0  0 
 37 40  1  0  0  0  0 
 38 41  1  0  0  0  0 
 39 42  1  0  0  0  0 
 41 43  1  0  0  0  0 
  5 44  1  0  0  0  0 
  5 45  1  0  0  0  0 
  6 46  1  0  0  0  0 
  7 47  1  0  0  0  0 
  8 48  1  0  0  0  0 
  8 49  1  0  0  0  0 
 11 50  1  0  0  0  0 
 11 51  1  0  0  0  0 
 16 52  1  0  0  0  0 
 16 53  1  0  0  0  0 
 16 54  1  0  0  0  0 
 18 55  1  0  0  0  0 
 18 56  1  0  0  0  0 
 18 57  1  0  0  0  0 
 19 58  1  0  0  0  0 
 19 59  1  0  0  0  0 
 20 60  1  0  0  0  0 
 20 61  1  0  0  0  0 
 21 62  1  0  0  0  0 
 21 63  1  0  0  0  0 
 21 64  1  0  0  0  0 
 22 65  1  0  0  0  0 
 22 66  1  0  0  0  0 
 23 67  1  0  0  0  0 
 23 68  1  0  0  0  0 
 25 69  1  0  0  0  0 
 25 70  1  0  0  0  0 
 26 71  1  0  0  0  0 
 26 72  1  0  0  0  0 
 27 73  1  0  0  0  0 
 27 74  1  0  0  0  0 
 28 75  1  0  0  0  0 
 28 76  1  0  0  0  0 
 33 77  1  0  0  0  0 
 34 78  1  0  0  0  0 
 40 79  1  0  0  0  0 
 40 80  1  0  0  0  0 
 40 81  1  0  0  0  0 
 42 82  1  0  0  0  0 
 42 83  1  0  0  0  0 
 42 84  1  0  0  0  0 
 43 85  1  0  0  0  0 
 43 86  1  0  0  0  0 
 43 87  1  0  0  0  0 
M  END
> <cdk:Title>
dilazep

> <Conformer>
1

> <SuperDrugID>
SD000795

$$$$
