ganirelix
  CDK     0628171801

225230  0  0  0  0  0  0  0  0999 V2000
   -7.9438   -1.1099    6.0039 C   0  0  0  0  0  0  0  0  0  0  0  0
   -8.0920   -2.5989    5.9107 C   0  0  1  0  0  0  0  0  0  0  0  0
   -8.8395   -0.4753    5.3918 O   0  0  0  0  0  0  0  0  0  0  0  0
   -6.9548   -0.3792    6.6650 N   0  0  0  0  0  0  0  0  0  0  0  0
   -6.8699   -3.1604    5.4128 N   0  0  0  0  0  0  0  0  0  0  0  0
   -8.5882   -3.2745    7.2275 C   0  0  2  0  0  0  0  0  0  0  0  0
   -5.7699   -0.8816    7.3305 C   0  0  2  0  0  0  0  0  0  0  0  0
   -6.9787    1.0580    6.6933 C   0  0  2  0  0  0  0  0  0  0  0  0
   -6.5130   -3.2235    4.0931 C   0  0  0  0  0  0  0  0  0  0  0  0
   -9.9148   -2.6726    7.7997 C   0  0  1  0  0  0  0  0  0  0  0  0
   -5.9803   -1.5480    8.6417 C   0  0  0  0  0  0  0  0  0  0  0  0
   -4.8475    0.3567    7.5298 C   0  0  2  0  0  0  0  0  0  0  0  0
   -5.5026    1.4651    6.7009 C   0  0  1  0  0  0  0  0  0  0  0  0
   -5.1357   -3.6004    3.6853 C   0  0  1  0  0  0  0  0  0  0  0  0
   -7.3321   -2.9109    3.1949 O   0  0  0  0  0  0  0  0  0  0  0  0
  -10.1110   -2.8029    9.3455 C   0  0  1  0  0  0  0  0  0  0  0  0
   -5.3129   -2.7053    8.9201 N   0  0  0  0  0  0  0  0  0  0  0  0
   -6.7283   -1.0065    9.4911 O   0  0  0  0  0  0  0  0  0  0  0  0
   -4.2623   -2.5318    4.0946 N   0  0  0  0  0  0  0  0  0  0  0  0
   -4.6962   -4.9874    4.2520 C   0  0  1  0  0  0  0  0  0  0  0  0
  -10.5748   -1.4731    9.9996 C   0  0  2  0  0  0  0  0  0  0  0  0
   -5.2605   -3.3759   10.1874 C   0  0  1  0  0  0  0  0  0  0  0  0
   -3.7863   -1.5290    3.2907 C   0  0  0  0  0  0  0  0  0  0  0  0
   -3.2453   -5.4589    3.8972 C   0  0  2  0  0  0  0  0  0  0  0  0
  -10.7925   -1.6229   11.3648 N   0  0  0  0  0  0  0  0  0  0  0  0
   -6.2440   -4.4828   10.2377 C   0  0  0  0  0  0  0  0  0  0  0  0
   -3.8200   -3.8984   10.4159 C   0  0  0  0  0  0  0  0  0  0  0  0
   -2.9065   -0.4637    3.8439 C   0  0  2  0  0  0  0  0  0  0  0  0
   -4.0656   -1.5010    2.0674 O   0  0  0  0  0  0  0  0  0  0  0  0
   -2.9405   -5.4656    2.3719 C   0  0  0  0  0  0  0  0  0  0  0  0
   -2.9540   -6.8608    4.5067 C   0  0  0  0  0  0  0  0  0  0  0  0
  -11.2451   -0.8164   12.2664 C   0  0  0  0  0  0  0  0  0  0  0  0
   -7.1575   -4.5578   11.2240 N   0  0  0  0  0  0  0  0  0  0  0  0
   -6.2414   -5.3857    9.3697 O   0  0  0  0  0  0  0  0  0  0  0  0
   -3.3030    0.8294    3.3471 N   0  0  0  0  0  0  0  0  0  0  0  0
   -1.4176   -0.6966    3.4449 C   0  0  1  0  0  0  0  0  0  0  0  0
  -11.4149   -1.2589   13.5126 N   0  0  0  0  0  0  0  0  0  0  0  0
  -11.6340    0.4549   12.1151 N   0  0  0  0  0  0  0  0  0  0  0  0
   -2.8918    2.0366    3.8463 C   0  0  0  0  0  0  0  0  0  0  0  0
   -0.7599   -1.9670    4.0512 C   0  0  2  0  0  0  0  0  0  0  0  0
  -11.1240   -2.5720   13.9999 C   0  0  1  0  0  0  0  0  0  0  0  0
  -11.0420    1.4940   11.3323 C   0  0  1  0  0  0  0  0  0  0  0  0
   -3.1030    3.2857    3.0701 C   0  0  2  0  0  0  0  0  0  0  0  0
   -2.2797    2.0993    4.9398 O   0  0  0  0  0  0  0  0  0  0  0  0
    0.7337   -2.0498    3.6536 C   0  0  1  0  0  0  0  0  0  0  0  0
  -11.4532   -2.6716   15.5026 C   0  0  0  0  0  0  0  0  0  0  0  0
  -12.0176    2.0143   10.2569 C   0  0  0  0  0  0  0  0  0  0  0  0
   -4.6095    3.6626    2.9617 C   0  0  2  0  0  0  0  0  0  0  0  0
   -2.5389    3.0723    1.7685 N   0  0  0  0  0  0  0  0  0  0  0  0
    1.5026   -3.2578    4.2472 C   0  0  2  0  0  0  0  0  0  0  0  0
   -4.8238    4.9986    2.3331 C   0  0  0  0  0  0  0  0  0  0  0  0
   -1.7253    3.9067    1.0534 C   0  0  0  0  0  0  0  0  0  0  0  0
    2.6420   -3.3782    3.4725 N   0  0  0  0  0  0  0  0  0  0  0  0
   -4.4467    6.1751    3.0248 C   0  0  0  0  0  0  0  0  0  0  0  0
   -5.3969    5.1288    1.0449 C   0  0  0  0  0  0  0  0  0  0  0  0
   -1.1335    3.4949   -0.2571 C   0  0  1  0  0  0  0  0  0  0  0  0
   -1.4531    5.0485    1.4982 O   0  0  0  0  0  0  0  0  0  0  0  0
    3.6966   -4.1100    3.4066 C   0  0  0  0  0  0  0  0  0  0  0  0
   -4.6202    7.4426    2.4420 C   0  0  0  0  0  0  0  0  0  0  0  0
   -5.5786    6.3985    0.4641 C   0  0  0  0  0  0  0  0  0  0  0  0
    0.2991    3.4868   -0.0624 N   0  0  0  0  0  0  0  0  0  0  0  0
   -1.7483    2.1772   -0.8221 C   0  0  1  0  0  0  0  0  0  0  0  0
    4.0933   -5.1111    4.1996 N   0  0  0  0  0  0  0  0  0  0  0  0
    4.5235   -3.8716    2.3842 N   0  0  0  0  0  0  0  0  0  0  0  0
   -5.1825    7.5586    1.1580 C   0  0  0  0  0  0  0  0  0  0  0  0
    1.3497    3.1120   -0.8666 C   0  0  0  0  0  0  0  0  0  0  0  0
   -3.1736    2.2073   -0.8650 O   0  0  0  0  0  0  0  0  0  0  0  0
    3.6980   -5.4583    5.5281 C   0  0  1  0  0  0  0  0  0  0  0  0
    4.3547   -2.9015    1.3343 C   0  0  1  0  0  0  0  0  0  0  0  0
   -5.3354    8.7893    0.6061 O   0  0  0  0  0  0  0  0  0  0  0  0
    1.3141    2.4213   -2.1953 C   0  0  2  0  0  0  0  0  0  0  0  0
    2.4675    3.3931   -0.3743 O   0  0  0  0  0  0  0  0  0  0  0  0
    3.0016   -6.8335    5.5532 C   0  0  0  0  0  0  0  0  0  0  0  0
    4.9880   -1.5508    1.7312 C   0  0  0  0  0  0  0  0  0  0  0  0
    2.5957    1.9187   -2.6200 N   0  0  0  0  0  0  0  0  0  0  0  0
    0.7662    3.3541   -3.3274 C   0  0  2  0  0  0  0  0  0  0  0  0
    3.3333    0.9183   -2.0519 C   0  0  0  0  0  0  0  0  0  0  0  0
    0.2351    2.6241   -4.5189 C   0  0  0  0  0  0  0  0  0  0  0  0
    4.6246    0.5212   -2.6830 C   0  0  1  0  0  0  0  0  0  0  0  0
    2.9077    0.3275   -1.0317 O   0  0  0  0  0  0  0  0  0  0  0  0
   -1.1546    2.5919   -4.7905 C   0  0  0  0  0  0  0  0  0  0  0  0
    1.0859    1.9484   -5.4275 C   0  0  0  0  0  0  0  0  0  0  0  0
    5.6725    1.6786   -2.7803 C   0  0  2  0  0  0  0  0  0  0  0  0
    5.3151   -0.5014   -1.9501 N   0  0  0  0  0  0  0  0  0  0  0  0
   -1.6563    1.9121   -5.9140 C   0  0  0  0  0  0  0  0  0  0  0  0
    0.5735    1.2979   -6.5036 N   0  0  0  0  0  0  0  0  0  0  0  0
    5.2801    2.8150   -3.6505 C   0  0  0  0  0  0  0  0  0  0  0  0
    5.8194   -1.6603   -2.4589 C   0  0  0  0  0  0  0  0  0  0  0  0
   -0.7556    1.2585   -6.7703 C   0  0  0  0  0  0  0  0  0  0  0  0
    5.1029    4.1129   -3.1176 C   0  0  0  0  0  0  0  0  0  0  0  0
    5.0647    2.6108   -5.0335 C   0  0  0  0  0  0  0  0  0  0  0  0
    6.9043   -2.3324   -1.7095 C   0  0  1  0  0  0  0  0  0  0  0  0
    5.5087   -2.0672   -3.6030 O   0  0  0  0  0  0  0  0  0  0  0  0
    4.6841    5.1727   -3.9419 C   0  0  0  0  0  0  0  0  0  0  0  0
    4.6475    3.6690   -5.8590 C   0  0  0  0  0  0  0  0  0  0  0  0
    6.9630   -3.8837   -1.8710 C   0  0  2  0  0  0  0  0  0  0  0  0
    8.1008   -1.7271   -2.2174 N   0  0  0  0  0  0  0  0  0  0  0  0
    4.4480    4.9518   -5.3133 C   0  0  0  0  0  0  0  0  0  0  0  0
    8.0252   -4.4714   -1.0041 C   0  0  0  0  0  0  0  0  0  0  0  0
    9.0136   -1.0088   -1.5102 C   0  0  0  0  0  0  0  0  0  0  0  0
    3.9257    6.2217   -6.3050 Cl  0  0  0  0  0  0  0  0  0  0  0  0
    9.3793   -4.4449   -1.4116 C   0  0  0  0  0  0  0  0  0  0  0  0
    7.7096   -5.0045    0.2646 C   0  0  0  0  0  0  0  0  0  0  0  0
   10.2133   -0.5239   -2.2080 C   0  0  0  0  0  0  0  0  0  0  0  0
    8.8704   -0.7739   -0.2868 O   0  0  0  0  0  0  0  0  0  0  0  0
   10.4183   -4.8591   -0.5474 C   0  0  0  0  0  0  0  0  0  0  0  0
    8.7223   -5.4498    1.1288 C   0  0  0  0  0  0  0  0  0  0  0  0
   10.0788   -5.3626    0.7484 C   0  0  0  0  0  0  0  0  0  0  0  0
   11.7724   -4.7529   -0.9645 C   0  0  0  0  0  0  0  0  0  0  0  0
   11.0893   -5.7595    1.6497 C   0  0  0  0  0  0  0  0  0  0  0  0
   12.8376   -5.1262   -0.1262 C   0  0  0  0  0  0  0  0  0  0  0  0
   12.4854   -5.6288    1.1820 C   0  0  0  0  0  0  0  0  0  0  0  0
   -8.8830   -2.8354    5.1868 H   0  0  0  0  0  0  0  0  0  0  0  0
   -6.2199   -3.4610    6.0671 H   0  0  0  0  0  0  0  0  0  0  0  0
   -7.8047   -3.2225    7.9706 H   0  0  0  0  0  0  0  0  0  0  0  0
   -8.7508   -4.3395    7.0366 H   0  0  0  0  0  0  0  0  0  0  0  0
   -5.2483   -1.5584    6.6502 H   0  0  0  0  0  0  0  0  0  0  0  0
   -7.4779    1.3965    7.6068 H   0  0  0  0  0  0  0  0  0  0  0  0
   -7.4698    1.5166    5.8305 H   0  0  0  0  0  0  0  0  0  0  0  0
   -9.9744   -1.6169    7.5354 H   0  0  0  0  0  0  0  0  0  0  0  0
  -10.7581   -3.1498    7.2929 H   0  0  0  0  0  0  0  0  0  0  0  0
   -3.8276    0.1621    7.1887 H   0  0  0  0  0  0  0  0  0  0  0  0
   -4.7967    0.6865    8.5735 H   0  0  0  0  0  0  0  0  0  0  0  0
   -5.1098    1.4585    5.6815 H   0  0  0  0  0  0  0  0  0  0  0  0
   -5.3563    2.4548    7.1417 H   0  0  0  0  0  0  0  0  0  0  0  0
   -5.1292   -3.6948    2.5948 H   0  0  0  0  0  0  0  0  0  0  0  0
  -10.8522   -3.5815    9.5474 H   0  0  0  0  0  0  0  0  0  0  0  0
   -9.1813   -3.1080    9.8298 H   0  0  0  0  0  0  0  0  0  0  0  0
   -4.7973   -3.0987    8.1980 H   0  0  0  0  0  0  0  0  0  0  0  0
   -3.9953   -2.5159    5.0278 H   0  0  0  0  0  0  0  0  0  0  0  0
   -4.7798   -4.9594    5.3424 H   0  0  0  0  0  0  0  0  0  0  0  0
   -5.4032   -5.7417    3.8915 H   0  0  0  0  0  0  0  0  0  0  0  0
  -11.5011   -1.1455    9.5212 H   0  0  0  0  0  0  0  0  0  0  0  0
   -9.7945   -0.7318    9.8270 H   0  0  0  0  0  0  0  0  0  0  0  0
   -5.4702   -2.6683   10.9971 H   0  0  0  0  0  0  0  0  0  0  0  0
   -2.5454   -4.7653    4.3689 H   0  0  0  0  0  0  0  0  0  0  0  0
   -3.7412   -4.3843   11.3911 H   0  0  0  0  0  0  0  0  0  0  0  0
   -3.5368   -4.6171    9.6430 H   0  0  0  0  0  0  0  0  0  0  0  0
   -3.1116   -3.0675   10.3909 H   0  0  0  0  0  0  0  0  0  0  0  0
   -2.9849   -0.4702    4.9345 H   0  0  0  0  0  0  0  0  0  0  0  0
   -2.9651   -4.4524    1.9687 H   0  0  0  0  0  0  0  0  0  0  0  0
   -1.9421   -5.8659    2.1809 H   0  0  0  0  0  0  0  0  0  0  0  0
   -3.6696   -6.0768    1.8355 H   0  0  0  0  0  0  0  0  0  0  0  0
   -3.1204   -6.8516    5.5860 H   0  0  0  0  0  0  0  0  0  0  0  0
   -1.9137   -7.1457    4.3310 H   0  0  0  0  0  0  0  0  0  0  0  0
   -3.6012   -7.6198    4.0609 H   0  0  0  0  0  0  0  0  0  0  0  0
   -7.1828   -3.8796   11.9176 H   0  0  0  0  0  0  0  0  0  0  0  0
   -7.7920   -5.2917   11.2451 H   0  0  0  0  0  0  0  0  0  0  0  0
   -3.8321    0.8480    2.5331 H   0  0  0  0  0  0  0  0  0  0  0  0
   -1.3401   -0.7345    2.3523 H   0  0  0  0  0  0  0  0  0  0  0  0
   -0.8282    0.1633    3.7776 H   0  0  0  0  0  0  0  0  0  0  0  0
  -11.7739   -0.6264   14.1561 H   0  0  0  0  0  0  0  0  0  0  0  0
  -12.3705    0.7376   12.6808 H   0  0  0  0  0  0  0  0  0  0  0  0
   -1.2737   -2.8519    3.6717 H   0  0  0  0  0  0  0  0  0  0  0  0
   -0.8502   -1.9494    5.1408 H   0  0  0  0  0  0  0  0  0  0  0  0
  -11.7192   -3.3104   13.4557 H   0  0  0  0  0  0  0  0  0  0  0  0
  -10.0643   -2.7961   13.8512 H   0  0  0  0  0  0  0  0  0  0  0  0
  -10.8150    2.3182   12.0118 H   0  0  0  0  0  0  0  0  0  0  0  0
  -10.0987    1.2003   10.8755 H   0  0  0  0  0  0  0  0  0  0  0  0
   -2.5741    4.0957    3.5839 H   0  0  0  0  0  0  0  0  0  0  0  0
    0.7761   -2.0836    2.5585 H   0  0  0  0  0  0  0  0  0  0  0  0
    1.2417   -1.1352    3.9772 H   0  0  0  0  0  0  0  0  0  0  0  0
  -11.2104   -3.6700   15.8710 H   0  0  0  0  0  0  0  0  0  0  0  0
  -10.8718   -1.9394   16.0674 H   0  0  0  0  0  0  0  0  0  0  0  0
  -12.5161   -2.4856   15.6714 H   0  0  0  0  0  0  0  0  0  0  0  0
  -11.5502    2.8254    9.6950 H   0  0  0  0  0  0  0  0  0  0  0  0
  -12.2853    1.2178    9.5618 H   0  0  0  0  0  0  0  0  0  0  0  0
  -12.9282    2.3951   10.7248 H   0  0  0  0  0  0  0  0  0  0  0  0
   -5.0521    3.6851    3.9615 H   0  0  0  0  0  0  0  0  0  0  0  0
   -5.1334    2.8837    2.3997 H   0  0  0  0  0  0  0  0  0  0  0  0
   -2.7558    2.2238    1.3552 H   0  0  0  0  0  0  0  0  0  0  0  0
    0.9138   -4.1735    4.1716 H   0  0  0  0  0  0  0  0  0  0  0  0
    1.7456   -3.0473    5.2897 H   0  0  0  0  0  0  0  0  0  0  0  0
   -4.0409    6.1162    3.9621 H   0  0  0  0  0  0  0  0  0  0  0  0
   -5.6833    4.3008    0.5174 H   0  0  0  0  0  0  0  0  0  0  0  0
   -1.3728    4.2900   -0.9666 H   0  0  0  0  0  0  0  0  0  0  0  0
   -4.3354    8.2786    2.9553 H   0  0  0  0  0  0  0  0  0  0  0  0
   -5.9977    6.4766   -0.4657 H   0  0  0  0  0  0  0  0  0  0  0  0
    0.5815    3.8631    0.7889 H   0  0  0  0  0  0  0  0  0  0  0  0
   -1.4457    2.0298   -1.8523 H   0  0  0  0  0  0  0  0  0  0  0  0
   -1.4261    1.3173   -0.2288 H   0  0  0  0  0  0  0  0  0  0  0  0
    4.8009   -5.6668    3.8378 H   0  0  0  0  0  0  0  0  0  0  0  0
    5.3329   -4.4036    2.3562 H   0  0  0  0  0  0  0  0  0  0  0  0
   -3.4240    1.3479   -1.2664 H   0  0  0  0  0  0  0  0  0  0  0  0
    4.6117   -5.5271    6.1250 H   0  0  0  0  0  0  0  0  0  0  0  0
    3.0644   -4.7129    6.0019 H   0  0  0  0  0  0  0  0  0  0  0  0
    4.8414   -3.2738    0.4346 H   0  0  0  0  0  0  0  0  0  0  0  0
    3.3020   -2.7536    1.0807 H   0  0  0  0  0  0  0  0  0  0  0  0
   -5.7379    8.6389   -0.2751 H   0  0  0  0  0  0  0  0  0  0  0  0
    0.6794    1.5421   -2.0945 H   0  0  0  0  0  0  0  0  0  0  0  0
    2.7605   -7.1017    6.5836 H   0  0  0  0  0  0  0  0  0  0  0  0
    2.0798   -6.8004    4.9705 H   0  0  0  0  0  0  0  0  0  0  0  0
    3.6597   -7.6003    5.1380 H   0  0  0  0  0  0  0  0  0  0  0  0
    4.8305   -0.8108    0.9441 H   0  0  0  0  0  0  0  0  0  0  0  0
    4.5363   -1.1758    2.6526 H   0  0  0  0  0  0  0  0  0  0  0  0
    6.0626   -1.6715    1.8859 H   0  0  0  0  0  0  0  0  0  0  0  0
    2.9749    2.3336   -3.4069 H   0  0  0  0  0  0  0  0  0  0  0  0
    1.5514    4.0424   -3.6571 H   0  0  0  0  0  0  0  0  0  0  0  0
   -0.0231    3.9914   -2.9233 H   0  0  0  0  0  0  0  0  0  0  0  0
    4.3872    0.1731   -3.6925 H   0  0  0  0  0  0  0  0  0  0  0  0
   -1.8151    3.0645   -4.1692 H   0  0  0  0  0  0  0  0  0  0  0  0
    2.0970    1.9399   -5.2989 H   0  0  0  0  0  0  0  0  0  0  0  0
    6.6064    1.2803   -3.1891 H   0  0  0  0  0  0  0  0  0  0  0  0
    5.9015    2.0248   -1.7668 H   0  0  0  0  0  0  0  0  0  0  0  0
    5.5362   -0.2909   -1.0295 H   0  0  0  0  0  0  0  0  0  0  0  0
   -2.6600    1.8940   -6.1035 H   0  0  0  0  0  0  0  0  0  0  0  0
   -1.0948    0.7557   -7.5921 H   0  0  0  0  0  0  0  0  0  0  0  0
    5.2700    4.2948   -2.1257 H   0  0  0  0  0  0  0  0  0  0  0  0
    5.2019    1.6876   -5.4489 H   0  0  0  0  0  0  0  0  0  0  0  0
    6.7774   -2.1144   -0.6448 H   0  0  0  0  0  0  0  0  0  0  0  0
    4.5489    6.1014   -3.5371 H   0  0  0  0  0  0  0  0  0  0  0  0
    4.4857    3.4971   -6.8539 H   0  0  0  0  0  0  0  0  0  0  0  0
    7.1441   -4.1536   -2.9179 H   0  0  0  0  0  0  0  0  0  0  0  0
    5.9893   -4.3054   -1.6062 H   0  0  0  0  0  0  0  0  0  0  0  0
    8.2752   -1.8423   -3.1651 H   0  0  0  0  0  0  0  0  0  0  0  0
    9.6075   -4.0968   -2.3471 H   0  0  0  0  0  0  0  0  0  0  0  0
    6.7382   -5.0590    0.5764 H   0  0  0  0  0  0  0  0  0  0  0  0
   10.8843   -0.0041   -1.5224 H   0  0  0  0  0  0  0  0  0  0  0  0
   10.7487   -1.3687   -2.6438 H   0  0  0  0  0  0  0  0  0  0  0  0
    9.9267    0.1638   -3.0043 H   0  0  0  0  0  0  0  0  0  0  0  0
    8.4603   -5.8270    2.0441 H   0  0  0  0  0  0  0  0  0  0  0  0
   12.0005   -4.3884   -1.8944 H   0  0  0  0  0  0  0  0  0  0  0  0
   10.8879   -6.1162    2.5869 H   0  0  0  0  0  0  0  0  0  0  0  0
   13.8111   -5.0403   -0.4266 H   0  0  0  0  0  0  0  0  0  0  0  0
   13.3473   -5.8904    1.7623 H   0  0  0  0  0  0  0  0  0  0  0  0
  2  1  1  0  0  0  0 
  1  3  2  0  0  0  0 
  1  4  1  0  0  0  0 
  2  5  1  0  0  0  0 
  2  6  1  0  0  0  0 
  7  4  1  0  0  0  0 
  4  8  1  0  0  0  0 
  5  9  1  0  0  0  0 
  6 10  1  0  0  0  0 
  7 11  1  0  0  0  0 
  7 12  1  0  0  0  0 
  8 13  1  0  0  0  0 
 14  9  1  0  0  0  0 
  9 15  2  0  0  0  0 
 10 16  1  0  0  0  0 
 11 17  1  0  0  0  0 
 11 18  2  0  0  0  0 
 12 13  1  0  0  0  0 
 14 19  1  0  0  0  0 
 14 20  1  0  0  0  0 
 16 21  1  0  0  0  0 
 22 17  1  0  0  0  0 
 19 23  1  0  0  0  0 
 20 24  1  0  0  0  0 
 21 25  1  0  0  0  0 
 22 26  1  0  0  0  0 
 22 27  1  0  0  0  0 
 28 23  1  0  0  0  0 
 23 29  2  0  0  0  0 
 24 30  1  0  0  0  0 
 24 31  1  0  0  0  0 
 25 32  2  0  0  0  0 
 26 33  1  0  0  0  0 
 26 34  2  0  0  0  0 
 28 35  1  0  0  0  0 
 28 36  1  0  0  0  0 
 32 37  1  0  0  0  0 
 32 38  1  0  0  0  0 
 35 39  1  0  0  0  0 
 36 40  1  0  0  0  0 
 37 41  1  0  0  0  0 
 38 42  1  0  0  0  0 
 43 39  1  0  0  0  0 
 39 44  2  0  0  0  0 
 40 45  1  0  0  0  0 
 41 46  1  0  0  0  0 
 42 47  1  0  0  0  0 
 43 48  1  0  0  0  0 
 43 49  1  0  0  0  0 
 45 50  1  0  0  0  0 
 48 51  1  0  0  0  0 
 49 52  1  0  0  0  0 
 50 53  1  0  0  0  0 
 51 54  2  0  0  0  0 
 51 55  1  0  0  0  0 
 56 52  1  0  0  0  0 
 52 57  2  0  0  0  0 
 53 58  2  0  0  0  0 
 54 59  1  0  0  0  0 
 55 60  2  0  0  0  0 
 56 61  1  0  0  0  0 
 56 62  1  0  0  0  0 
 58 63  1  0  0  0  0 
 58 64  1  0  0  0  0 
 59 65  2  0  0  0  0 
 60 65  1  0  0  0  0 
 61 66  1  0  0  0  0 
 62 67  1  0  0  0  0 
 63 68  1  0  0  0  0 
 64 69  1  0  0  0  0 
 65 70  1  0  0  0  0 
 71 66  1  0  0  0  0 
 66 72  2  0  0  0  0 
 68 73  1  0  0  0  0 
 69 74  1  0  0  0  0 
 71 75  1  0  0  0  0 
 71 76  1  0  0  0  0 
 75 77  1  0  0  0  0 
 76 78  1  0  0  0  0 
 79 77  1  0  0  0  0 
 77 80  2  0  0  0  0 
 78 81  2  0  0  0  0 
 78 82  1  0  0  0  0 
 79 83  1  0  0  0  0 
 79 84  1  0  0  0  0 
 81 85  1  0  0  0  0 
 82 86  2  0  0  0  0 
 83 87  1  0  0  0  0 
 84 88  1  0  0  0  0 
 85 89  2  0  0  0  0 
 86 89  1  0  0  0  0 
 87 90  2  0  0  0  0 
 87 91  1  0  0  0  0 
 92 88  1  0  0  0  0 
 88 93  2  0  0  0  0 
 90 94  1  0  0  0  0 
 91 95  2  0  0  0  0 
 92 96  1  0  0  0  0 
 92 97  1  0  0  0  0 
 94 98  2  0  0  0  0 
 95 98  1  0  0  0  0 
 96 99  1  0  0  0  0 
 97100  1  0  0  0  0 
 98101  1  0  0  0  0 
 99102  1  0  0  0  0 
 99103  2  0  0  0  0 
100104  1  0  0  0  0 
100105  2  0  0  0  0 
102106  2  0  0  0  0 
103107  1  0  0  0  0 
106108  1  0  0  0  0 
106109  1  0  0  0  0 
107108  2  0  0  0  0 
108110  1  0  0  0  0 
109111  2  0  0  0  0 
110112  2  0  0  0  0 
111112  1  0  0  0  0 
  2113  1  0  0  0  0 
114  5  1  0  0  0  0 
115  6  1  0  0  0  0 
116  6  1  0  0  0  0 
  7117  1  0  0  0  0 
118  8  1  0  0  0  0 
119  8  1  0  0  0  0 
120 10  1  0  0  0  0 
121 10  1  0  0  0  0 
122 12  1  0  0  0  0 
123 12  1  0  0  0  0 
124 13  1  0  0  0  0 
125 13  1  0  0  0  0 
 14126  1  0  0  0  0 
127 16  1  0  0  0  0 
128 16  1  0  0  0  0 
129 17  1  0  0  0  0 
130 19  1  0  0  0  0 
131 20  1  0  0  0  0 
132 20  1  0  0  0  0 
133 21  1  0  0  0  0 
134 21  1  0  0  0  0 
 22135  1  0  0  0  0 
136 24  1  0  0  0  0 
137 27  1  0  0  0  0 
138 27  1  0  0  0  0 
139 27  1  0  0  0  0 
 28140  1  0  0  0  0 
141 30  1  0  0  0  0 
142 30  1  0  0  0  0 
143 30  1  0  0  0  0 
144 31  1  0  0  0  0 
145 31  1  0  0  0  0 
146 31  1  0  0  0  0 
147 33  1  0  0  0  0 
148 33  1  0  0  0  0 
149 35  1  0  0  0  0 
150 36  1  0  0  0  0 
151 36  1  0  0  0  0 
152 37  1  0  0  0  0 
153 38  1  0  0  0  0 
154 40  1  0  0  0  0 
155 40  1  0  0  0  0 
156 41  1  0  0  0  0 
157 41  1  0  0  0  0 
158 42  1  0  0  0  0 
159 42  1  0  0  0  0 
 43160  1  0  0  0  0 
161 45  1  0  0  0  0 
162 45  1  0  0  0  0 
163 46  1  0  0  0  0 
164 46  1  0  0  0  0 
165 46  1  0  0  0  0 
166 47  1  0  0  0  0 
167 47  1  0  0  0  0 
168 47  1  0  0  0  0 
169 48  1  0  0  0  0 
170 48  1  0  0  0  0 
171 49  1  0  0  0  0 
172 50  1  0  0  0  0 
173 50  1  0  0  0  0 
174 54  1  0  0  0  0 
175 55  1  0  0  0  0 
 56176  1  0  0  0  0 
177 59  1  0  0  0  0 
178 60  1  0  0  0  0 
179 61  1  0  0  0  0 
180 62  1  0  0  0  0 
181 62  1  0  0  0  0 
182 63  1  0  0  0  0 
183 64  1  0  0  0  0 
184 67  1  0  0  0  0 
185 68  1  0  0  0  0 
186 68  1  0  0  0  0 
187 69  1  0  0  0  0 
188 69  1  0  0  0  0 
189 70  1  0  0  0  0 
 71190  1  0  0  0  0 
191 73  1  0  0  0  0 
192 73  1  0  0  0  0 
193 73  1  0  0  0  0 
194 74  1  0  0  0  0 
195 74  1  0  0  0  0 
196 74  1  0  0  0  0 
197 75  1  0  0  0  0 
198 76  1  0  0  0  0 
199 76  1  0  0  0  0 
 79200  1  0  0  0  0 
201 81  1  0  0  0  0 
202 82  1  0  0  0  0 
203 83  1  0  0  0  0 
204 83  1  0  0  0  0 
205 84  1  0  0  0  0 
206 85  1  0  0  0  0 
207 89  1  0  0  0  0 
208 90  1  0  0  0  0 
209 91  1  0  0  0  0 
 92210  1  0  0  0  0 
211 94  1  0  0  0  0 
212 95  1  0  0  0  0 
213 96  1  0  0  0  0 
214 96  1  0  0  0  0 
215 97  1  0  0  0  0 
216102  1  0  0  0  0 
217103  1  0  0  0  0 
218104  1  0  0  0  0 
219104  1  0  0  0  0 
220104  1  0  0  0  0 
221107  1  0  0  0  0 
222109  1  0  0  0  0 
223110  1  0  0  0  0 
224111  1  0  0  0  0 
225112  1  0  0  0  0 
M  END
> <cdk:Title>
ganirelix

> <Conformer>
1

> <SuperDrugID>
SD001140

$$$$
