chlorproethazine
  CDK     0628171802

 46 48  0  0  0  0  0  0  0  0999 V2000
    2.7387   -1.2844    4.6307 C   0  0  0  0  0  0  0  0  0  0  0  0
    2.0717    0.0583    4.2433 C   0  0  1  0  0  0  0  0  0  0  0  0
    2.8744    0.8873    3.2766 N   0  0  2  0  0  0  0  0  0  0  0  0
    4.1496    1.4164    3.8730 C   0  0  2  0  0  0  0  0  0  0  0  0
    5.1934    1.8736    2.8266 C   0  0  0  0  0  0  0  0  0  0  0  0
    2.0816    1.9497    2.5601 C   0  0  2  0  0  0  0  0  0  0  0  0
    0.9181    1.4486    1.6588 C   0  0  1  0  0  0  0  0  0  0  0  0
    1.3435    0.3631    0.6307 C   0  0  2  0  0  0  0  0  0  0  0  0
    0.1782   -0.1767   -0.0602 N   0  0  0  0  0  0  0  0  0  0  0  0
   -0.3509    0.5051   -1.1553 C   0  0  0  0  0  0  0  0  0  0  0  0
    0.4596    0.9496   -2.2328 C   0  0  0  0  0  0  0  0  0  0  0  0
   -0.0851    1.6834   -3.3040 C   0  0  0  0  0  0  0  0  0  0  0  0
   -1.4583    1.9768   -3.3259 C   0  0  0  0  0  0  0  0  0  0  0  0
   -2.2885    1.5205   -2.2891 C   0  0  0  0  0  0  0  0  0  0  0  0
   -1.7407    0.7842   -1.2211 C   0  0  0  0  0  0  0  0  0  0  0  0
   -2.8014    0.1739    0.0437 S   0  0  0  0  0  0  0  0  0  0  0  0
   -1.9147   -1.2184    0.6528 C   0  0  0  0  0  0  0  0  0  0  0  0
   -0.5053   -1.2609    0.4931 C   0  0  0  0  0  0  0  0  0  0  0  0
    0.1692   -2.4285    0.9353 C   0  0  0  0  0  0  0  0  0  0  0  0
   -0.5185   -3.4756    1.5803 C   0  0  0  0  0  0  0  0  0  0  0  0
    0.3264   -4.8248    2.1603 Cl  0  0  0  0  0  0  0  0  0  0  0  0
   -1.9127   -3.3940    1.7464 C   0  0  0  0  0  0  0  0  0  0  0  0
   -2.6127   -2.2716    1.2744 C   0  0  0  0  0  0  0  0  0  0  0  0
    3.2275   -1.7311    3.7636 H   0  0  0  0  0  0  0  0  0  0  0  0
    3.4787   -1.1351    5.4185 H   0  0  0  0  0  0  0  0  0  0  0  0
    1.9881   -1.9849    5.0029 H   0  0  0  0  0  0  0  0  0  0  0  0
    1.1135   -0.2168    3.8031 H   0  0  0  0  0  0  0  0  0  0  0  0
    1.8600    0.6327    5.1501 H   0  0  0  0  0  0  0  0  0  0  0  0
    4.6386    0.6390    4.4604 H   0  0  0  0  0  0  0  0  0  0  0  0
    3.9337    2.2427    4.5555 H   0  0  0  0  0  0  0  0  0  0  0  0
    6.1943    1.8627    3.2645 H   0  0  0  0  0  0  0  0  0  0  0  0
    4.9791    2.8891    2.4894 H   0  0  0  0  0  0  0  0  0  0  0  0
    5.1825    1.2030    1.9659 H   0  0  0  0  0  0  0  0  0  0  0  0
    2.7391    2.5152    1.8948 H   0  0  0  0  0  0  0  0  0  0  0  0
    1.6792    2.6569    3.2909 H   0  0  0  0  0  0  0  0  0  0  0  0
    0.1084    1.0684    2.2854 H   0  0  0  0  0  0  0  0  0  0  0  0
    0.5129    2.3064    1.1131 H   0  0  0  0  0  0  0  0  0  0  0  0
    1.8979   -0.4161    1.1533 H   0  0  0  0  0  0  0  0  0  0  0  0
    2.0649    0.8002   -0.0612 H   0  0  0  0  0  0  0  0  0  0  0  0
    1.4588    0.7379   -2.2582 H   0  0  0  0  0  0  0  0  0  0  0  0
    0.5150    2.0025   -4.0701 H   0  0  0  0  0  0  0  0  0  0  0  0
   -1.8574    2.5106   -4.1003 H   0  0  0  0  0  0  0  0  0  0  0  0
   -3.2914    1.7205   -2.3231 H   0  0  0  0  0  0  0  0  0  0  0  0
    1.1749   -2.5258    0.7868 H   0  0  0  0  0  0  0  0  0  0  0  0
   -2.4268   -4.1513    2.2025 H   0  0  0  0  0  0  0  0  0  0  0  0
   -3.6297   -2.2302    1.3855 H   0  0  0  0  0  0  0  0  0  0  0  0
  1  2  1  0  0  0  0 
  2  3  1  0  0  0  0 
  3  4  1  0  0  0  0 
  4  5  1  0  0  0  0 
  3  6  1  0  0  0  0 
  6  7  1  0  0  0  0 
  7  8  1  0  0  0  0 
  8  9  1  0  0  0  0 
  9 10  1  0  0  0  0 
 10 11  2  0  0  0  0 
 11 12  1  0  0  0  0 
 12 13  2  0  0  0  0 
 13 14  1  0  0  0  0 
 14 15  2  0  0  0  0 
 10 15  1  0  0  0  0 
 15 16  1  0  0  0  0 
 16 17  1  0  0  0  0 
 17 18  2  0  0  0  0 
  9 18  1  0  0  0  0 
 18 19  1  0  0  0  0 
 19 20  2  0  0  0  0 
 20 21  1  0  0  0  0 
 20 22  1  0  0  0  0 
 22 23  2  0  0  0  0 
 17 23  1  0  0  0  0 
  1 24  1  0  0  0  0 
  1 25  1  0  0  0  0 
  1 26  1  0  0  0  0 
  2 27  1  0  0  0  0 
  2 28  1  0  0  0  0 
  4 29  1  0  0  0  0 
  4 30  1  0  0  0  0 
  5 31  1  0  0  0  0 
  5 32  1  0  0  0  0 
  5 33  1  0  0  0  0 
  6 34  1  0  0  0  0 
  6 35  1  0  0  0  0 
  7 36  1  0  0  0  0 
  7 37  1  0  0  0  0 
  8 38  1  0  0  0  0 
  8 39  1  0  0  0  0 
 11 40  1  0  0  0  0 
 12 41  1  0  0  0  0 
 13 42  1  0  0  0  0 
 14 43  1  0  0  0  0 
 19 44  1  0  0  0  0 
 22 45  1  0  0  0  0 
 23 46  1  0  0  0  0 
M  END
> <cdk:Title>
chlorproethazine

> <Conformer>
1

> <SuperDrugID>
SD000540

$$$$
