oxamniquine
  CDK     0628171801

 41 42  0  0  0  0  0  0  0  0999 V2000
   -2.7116   -0.5349   -7.8673 N   0  0  0  0  0  0  0  0  0  0  0  0
   -2.4692   -0.2041   -9.0691 O   0  0  0  0  0  0  0  0  0  0  0  0
   -3.7145   -0.1542   -7.4049 O   0  0  0  0  0  0  0  0  0  0  0  0
   -1.8372   -1.2484   -7.1537 C   0  0  0  0  0  0  0  0  0  0  0  0
   -1.4487   -0.7531   -5.8873 C   0  0  0  0  0  0  0  0  0  0  0  0
   -1.2838   -2.4790   -7.6142 C   0  0  0  0  0  0  0  0  0  0  0  0
   -0.5157   -1.4399   -5.0891 C   0  0  0  0  0  0  0  0  0  0  0  0
   -1.7133   -3.1153   -8.8856 C   0  0  1  0  0  0  0  0  0  0  0  0
   -0.3164   -3.1399   -6.8199 C   0  0  0  0  0  0  0  0  0  0  0  0
    0.0751   -2.6331   -5.5641 C   0  0  0  0  0  0  0  0  0  0  0  0
   -0.1993   -0.9374   -3.8621 N   0  0  0  0  0  0  0  0  0  0  0  0
   -3.1111   -3.3762   -8.8428 O   0  0  0  0  0  0  0  0  0  0  0  0
    1.1094   -3.3213   -4.7463 C   0  0  1  0  0  0  0  0  0  0  0  0
    0.6592   -1.5782   -2.9067 C   0  0  2  0  0  0  0  0  0  0  0  0
    0.8845   -3.0889   -3.2308 C   0  0  1  0  0  0  0  0  0  0  0  0
    0.0907   -1.3926   -1.4746 C   0  0  2  0  0  0  0  0  0  0  0  0
   -0.2458    0.0255   -1.2070 N   0  0  1  0  0  0  0  0  0  0  0  0
   -0.8125    0.3294    0.1326 C   0  0  1  0  0  0  0  0  0  0  0  0
   -0.7816    1.8667    0.3240 C   0  0  0  0  0  0  0  0  0  0  0  0
   -2.2542   -0.2257    0.2965 C   0  0  0  0  0  0  0  0  0  0  0  0
    1.6229   -1.0611   -2.9613 H   0  0  0  0  0  0  0  0  0  0  0  0
   -1.8487    0.1251   -5.5415 H   0  0  0  0  0  0  0  0  0  0  0  0
   -1.4836   -2.4693   -9.7311 H   0  0  0  0  0  0  0  0  0  0  0  0
   -1.2082   -4.0669   -9.0602 H   0  0  0  0  0  0  0  0  0  0  0  0
    0.1084   -4.0107   -7.1504 H   0  0  0  0  0  0  0  0  0  0  0  0
   -0.5815   -0.0782   -3.6172 H   0  0  0  0  0  0  0  0  0  0  0  0
   -3.3014   -3.8644   -9.6703 H   0  0  0  0  0  0  0  0  0  0  0  0
    1.1009   -4.3987   -4.9372 H   0  0  0  0  0  0  0  0  0  0  0  0
    2.0895   -2.9323   -5.0344 H   0  0  0  0  0  0  0  0  0  0  0  0
    0.0058   -3.6681   -2.9279 H   0  0  0  0  0  0  0  0  0  0  0  0
    1.7465   -3.4683   -2.6744 H   0  0  0  0  0  0  0  0  0  0  0  0
    0.8373   -1.7292   -0.7507 H   0  0  0  0  0  0  0  0  0  0  0  0
   -0.8023   -2.0098   -1.3658 H   0  0  0  0  0  0  0  0  0  0  0  0
    0.6281    0.5507   -1.2869 H   0  0  0  0  0  0  0  0  0  0  0  0
   -0.1741   -0.1104    0.9057 H   0  0  0  0  0  0  0  0  0  0  0  0
   -1.1607    2.1369    1.3120 H   0  0  0  0  0  0  0  0  0  0  0  0
    0.2433    2.2353    0.2423 H   0  0  0  0  0  0  0  0  0  0  0  0
   -1.3918    2.3617   -0.4343 H   0  0  0  0  0  0  0  0  0  0  0  0
   -2.7138    0.1513    1.2125 H   0  0  0  0  0  0  0  0  0  0  0  0
   -2.2406   -1.3149    0.3584 H   0  0  0  0  0  0  0  0  0  0  0  0
   -2.8737    0.0681   -0.5529 H   0  0  0  0  0  0  0  0  0  0  0  0
  1  2  1  0  0  0  0 
  1  3  2  0  0  0  0 
  1  4  1  0  0  0  0 
  4  5  2  0  0  0  0 
  4  6  1  0  0  0  0 
  5  7  1  0  0  0  0 
  6  8  1  0  0  0  0 
  6  9  2  0  0  0  0 
  7 10  2  0  0  0  0 
  7 11  1  0  0  0  0 
  8 12  1  0  0  0  0 
  9 10  1  0  0  0  0 
 10 13  1  0  0  0  0 
 14 11  1  0  0  0  0 
 13 15  1  0  0  0  0 
 14 15  1  0  0  0  0 
 14 16  1  0  0  0  0 
 16 17  1  0  0  0  0 
 17 18  1  0  0  0  0 
 18 19  1  0  0  0  0 
 18 20  1  0  0  0  0 
 14 21  1  0  0  0  0 
  5 22  1  0  0  0  0 
  8 23  1  0  0  0  0 
  8 24  1  0  0  0  0 
  9 25  1  0  0  0  0 
 11 26  1  0  0  0  0 
 12 27  1  0  0  0  0 
 13 28  1  0  0  0  0 
 13 29  1  0  0  0  0 
 15 30  1  0  0  0  0 
 15 31  1  0  0  0  0 
 16 32  1  0  0  0  0 
 16 33  1  0  0  0  0 
 17 34  1  0  0  0  0 
 18 35  1  0  0  0  0 
 19 36  1  0  0  0  0 
 19 37  1  0  0  0  0 
 19 38  1  0  0  0  0 
 20 39  1  0  0  0  0 
 20 40  1  0  0  0  0 
 20 41  1  0  0  0  0 
M  CHG  1   1   1
M  CHG  1   2  -1
M  END
> <cdk:Title>
oxamniquine

> <Conformer>
1

> <SuperDrugID>
SD001798

$$$$
