simetride
  CDK     0628171802

 74 76  0  0  0  0  0  0  0  0999 V2000
  -10.0640    7.0653    5.7624 C   0  0  0  0  0  0  0  0  0  0  0  0
  -10.2253    8.3858    6.2437 C   0  0  0  0  0  0  0  0  0  0  0  0
   -9.5837    9.4393    5.5543 C   0  0  0  0  0  0  0  0  0  0  0  0
   -8.7982    9.1882    4.4106 C   0  0  0  0  0  0  0  0  0  0  0  0
   -8.6001    7.8603    3.9729 C   0  0  0  0  0  0  0  0  0  0  0  0
   -9.2566    6.8056    4.6399 C   0  0  0  0  0  0  0  0  0  0  0  0
   -7.7757    7.5983    2.9062 O   0  0  0  0  0  0  0  0  0  0  0  0
   -8.2023   10.2322    3.7545 O   0  0  0  0  0  0  0  0  0  0  0  0
   -8.9984   10.7378    2.6657 C   0  0  0  0  0  0  0  0  0  0  0  0
   -6.4272    7.2725    3.3211 C   0  0  1  0  0  0  0  0  0  0  0  0
   -5.5126    6.9404    2.1994 C   0  0  0  0  0  0  0  0  0  0  0  0
   -4.2144    6.4551    2.3744 N   0  0  0  0  0  0  0  0  0  0  0  0
   -5.9820    7.0989    1.0461 O   0  0  0  0  0  0  0  0  0  0  0  0
   -3.6122    6.2428    3.6833 C   0  0  2  0  0  0  0  0  0  0  0  0
   -2.2127    6.9043    3.7694 C   0  0  2  0  0  0  0  0  0  0  0  0
   -1.3753    6.4332    2.6811 N   0  0  0  0  0  0  0  0  0  0  0  0
   -1.9359    6.6784    1.3606 C   0  0  1  0  0  0  0  0  0  0  0  0
   -3.3715    6.0908    1.2435 C   0  0  2  0  0  0  0  0  0  0  0  0
   -0.1538    5.7810    2.8681 C   0  0  0  0  0  0  0  0  0  0  0  0
    0.4989    5.3671    1.8786 O   0  0  0  0  0  0  0  0  0  0  0  0
    0.4688    5.5055    4.1908 C   0  0  2  0  0  0  0  0  0  0  0  0
    0.7532    6.7605    4.8448 O   0  0  0  0  0  0  0  0  0  0  0  0
    1.1893    6.6723    6.1462 C   0  0  0  0  0  0  0  0  0  0  0  0
    0.3042    6.3237    7.1889 C   0  0  0  0  0  0  0  0  0  0  0  0
    0.7482    6.2815    8.5231 C   0  0  0  0  0  0  0  0  0  0  0  0
    2.0890    6.5907    8.8501 C   0  0  0  0  0  0  0  0  0  0  0  0
    2.9688    6.9522    7.8019 C   0  0  0  0  0  0  0  0  0  0  0  0
    2.5264    7.0053    6.4615 C   0  0  0  0  0  0  0  0  0  0  0  0
    3.4092    7.3503    5.4714 O   0  0  0  0  0  0  0  0  0  0  0  0
    3.3969    8.7538    5.1505 C   0  0  0  0  0  0  0  0  0  0  0  0
    2.5678    6.5240   10.2621 C   0  0  2  0  0  0  0  0  0  0  0  0
    2.5627    7.9041   10.9758 C   0  0  2  0  0  0  0  0  0  0  0  0
    3.1122    7.8290   12.4221 C   0  0  0  0  0  0  0  0  0  0  0  0
  -11.0580    8.7015    7.4876 C   0  0  1  0  0  0  0  0  0  0  0  0
  -12.5496    8.8885    7.0877 C   0  0  2  0  0  0  0  0  0  0  0  0
  -13.4634    9.1549    8.3082 C   0  0  0  0  0  0  0  0  0  0  0  0
  -10.5229    6.2826    6.2339 H   0  0  0  0  0  0  0  0  0  0  0  0
   -9.6835   10.4017    5.8853 H   0  0  0  0  0  0  0  0  0  0  0  0
   -9.1365    5.8440    4.3133 H   0  0  0  0  0  0  0  0  0  0  0  0
   -8.4607   11.5658    2.2037 H   0  0  0  0  0  0  0  0  0  0  0  0
   -9.1631    9.9753    1.9000 H   0  0  0  0  0  0  0  0  0  0  0  0
   -9.9622   11.1155    3.0164 H   0  0  0  0  0  0  0  0  0  0  0  0
   -5.9914    8.1188    3.8617 H   0  0  0  0  0  0  0  0  0  0  0  0
   -6.4621    6.3988    3.9786 H   0  0  0  0  0  0  0  0  0  0  0  0
   -3.5109    5.1662    3.8522 H   0  0  0  0  0  0  0  0  0  0  0  0
   -4.2008    6.6356    4.5136 H   0  0  0  0  0  0  0  0  0  0  0  0
   -1.8091    6.6993    4.7603 H   0  0  0  0  0  0  0  0  0  0  0  0
   -2.3288    7.9910    3.6966 H   0  0  0  0  0  0  0  0  0  0  0  0
   -1.9792    7.7580    1.1867 H   0  0  0  0  0  0  0  0  0  0  0  0
   -1.3326    6.2595    0.5518 H   0  0  0  0  0  0  0  0  0  0  0  0
   -3.7806    6.4155    0.2836 H   0  0  0  0  0  0  0  0  0  0  0  0
   -3.3042    5.0002    1.2051 H   0  0  0  0  0  0  0  0  0  0  0  0
    1.3990    4.9361    4.0805 H   0  0  0  0  0  0  0  0  0  0  0  0
   -0.2274    4.8890    4.7652 H   0  0  0  0  0  0  0  0  0  0  0  0
   -0.6715    6.1016    6.9802 H   0  0  0  0  0  0  0  0  0  0  0  0
    0.0822    6.0229    9.2559 H   0  0  0  0  0  0  0  0  0  0  0  0
    3.9448    7.1773    8.0114 H   0  0  0  0  0  0  0  0  0  0  0  0
    4.1268    8.9242    4.3586 H   0  0  0  0  0  0  0  0  0  0  0  0
    2.4187    9.0737    4.7824 H   0  0  0  0  0  0  0  0  0  0  0  0
    3.6812    9.3655    6.0105 H   0  0  0  0  0  0  0  0  0  0  0  0
    3.5812    6.1112   10.2777 H   0  0  0  0  0  0  0  0  0  0  0  0
    1.9398    5.8359   10.8372 H   0  0  0  0  0  0  0  0  0  0  0  0
    1.5379    8.2875   11.0130 H   0  0  0  0  0  0  0  0  0  0  0  0
    3.1721    8.6150   10.4094 H   0  0  0  0  0  0  0  0  0  0  0  0
    2.5166    7.1381   13.0240 H   0  0  0  0  0  0  0  0  0  0  0  0
    3.0717    8.8167   12.8874 H   0  0  0  0  0  0  0  0  0  0  0  0
    4.1511    7.4901   12.4183 H   0  0  0  0  0  0  0  0  0  0  0  0
  -11.0286    7.7644    8.1280 H   0  0  0  0  0  0  0  0  0  0  0  0
  -10.7790    9.6910    8.0543 H   0  0  0  0  0  0  0  0  0  0  0  0
  -12.9172    7.9945    6.5750 H   0  0  0  0  0  0  0  0  0  0  0  0
  -12.6364    9.7328    6.3975 H   0  0  0  0  0  0  0  0  0  0  0  0
  -13.1566   10.0659    8.8246 H   0  0  0  0  0  0  0  0  0  0  0  0
  -14.4975    9.2752    7.9818 H   0  0  0  0  0  0  0  0  0  0  0  0
  -13.4191    8.3201    9.0099 H   0  0  0  0  0  0  0  0  0  0  0  0
  1  2  2  0  0  0  0 
  1  6  1  0  0  0  0 
  2  3  1  0  0  0  0 
  3  4  2  0  0  0  0 
  4  5  1  0  0  0  0 
  5  6  2  0  0  0  0 
  5  7  1  0  0  0  0 
  4  8  1  0  0  0  0 
  8  9  1  0  0  0  0 
  7 10  1  0  0  0  0 
 10 11  1  0  0  0  0 
 11 12  1  0  0  0  0 
 11 13  2  0  0  0  0 
 14 15  1  0  0  0  0 
 15 16  1  0  0  0  0 
 16 17  1  0  0  0  0 
 17 18  1  0  0  0  0 
 12 14  1  0  0  0  0 
 12 18  1  0  0  0  0 
 16 19  1  0  0  0  0 
 19 20  2  0  0  0  0 
 19 21  1  0  0  0  0 
 21 22  1  0  0  0  0 
 22 23  1  0  0  0  0 
 24 25  1  0  0  0  0 
 25 26  2  0  0  0  0 
 26 27  1  0  0  0  0 
 27 28  2  0  0  0  0 
 23 24  2  0  0  0  0 
 23 28  1  0  0  0  0 
 28 29  1  0  0  0  0 
 29 30  1  0  0  0  0 
 26 31  1  0  0  0  0 
 31 32  1  0  0  0  0 
 32 33  1  0  0  0  0 
  2 34  1  0  0  0  0 
 34 35  1  0  0  0  0 
 35 36  1  0  0  0  0 
  1 37  1  0  0  0  0 
  3 38  1  0  0  0  0 
  6 39  1  0  0  0  0 
  9 40  1  0  0  0  0 
  9 41  1  0  0  0  0 
  9 42  1  0  0  0  0 
 10 43  1  0  0  0  0 
 10 44  1  0  0  0  0 
 14 45  1  0  0  0  0 
 14 46  1  0  0  0  0 
 15 47  1  0  0  0  0 
 15 48  1  0  0  0  0 
 17 49  1  0  0  0  0 
 17 50  1  0  0  0  0 
 18 51  1  0  0  0  0 
 18 52  1  0  0  0  0 
 21 53  1  0  0  0  0 
 21 54  1  0  0  0  0 
 24 55  1  0  0  0  0 
 25 56  1  0  0  0  0 
 27 57  1  0  0  0  0 
 30 58  1  0  0  0  0 
 30 59  1  0  0  0  0 
 30 60  1  0  0  0  0 
 31 61  1  0  0  0  0 
 31 62  1  0  0  0  0 
 32 63  1  0  0  0  0 
 32 64  1  0  0  0  0 
 33 65  1  0  0  0  0 
 33 66  1  0  0  0  0 
 33 67  1  0  0  0  0 
 34 68  1  0  0  0  0 
 34 69  1  0  0  0  0 
 35 70  1  0  0  0  0 
 35 71  1  0  0  0  0 
 36 72  1  0  0  0  0 
 36 73  1  0  0  0  0 
 36 74  1  0  0  0  0 
M  END
> <cdk:Title>
simetride

> <Conformer>
1

> <SuperDrugID>
SD003823

$$$$
