lisuride
  CDK     0628171801

 51 54  0  0  0  0  0  0  0  0999 V2000
   -0.0207    2.5615   -0.0949 C   0  0  0  0  0  0  0  0  0  0  0  0
    0.4732    1.1495   -0.1494 N   0  0  1  0  0  0  0  0  0  0  0  0
    0.5167    0.5238   -1.5264 C   0  0  1  0  0  0  0  0  0  0  0  0
    1.7874    1.0191    0.5435 C   0  0  1  0  0  0  0  0  0  0  0  0
    1.1401   -0.8423   -1.5421 C   0  0  0  0  0  0  0  0  0  0  0  0
   -0.9010    0.5679   -2.2185 C   0  0  1  0  0  0  0  0  0  0  0  0
    2.1914   -0.4721    0.6893 C   0  0  2  0  0  0  0  0  0  0  0  0
    0.9747   -1.6626   -2.6913 C   0  0  0  0  0  0  0  0  0  0  0  0
    1.8733   -1.2643   -0.4878 C   0  0  0  0  0  0  0  0  0  0  0  0
   -0.9647   -0.3004   -3.4054 C   0  0  0  0  0  0  0  0  0  0  0  0
    1.6183   -1.1248    1.8307 N   0  0  0  0  0  0  0  0  0  0  0  0
   -0.0705   -1.3319   -3.5673 C   0  0  0  0  0  0  0  0  0  0  0  0
    1.7478   -2.7914   -3.0930 C   0  0  0  0  0  0  0  0  0  0  0  0
   -1.8171   -0.3541   -4.5078 C   0  0  0  0  0  0  0  0  0  0  0  0
    1.9906   -0.9387    3.1349 C   0  0  0  0  0  0  0  0  0  0  0  0
   -0.3753   -2.0013   -4.7417 C   0  0  0  0  0  0  0  0  0  0  0  0
    1.4575   -3.5066   -4.2830 C   0  0  0  0  0  0  0  0  0  0  0  0
   -1.4377   -1.3866   -5.2938 N   0  0  0  0  0  0  0  0  0  0  0  0
    1.5393   -1.7708    4.1542 N   0  0  0  0  0  0  0  0  0  0  0  0
    2.7839    0.0010    3.3898 O   0  0  0  0  0  0  0  0  0  0  0  0
    0.3913   -3.1131   -5.1232 C   0  0  0  0  0  0  0  0  0  0  0  0
    0.7082   -2.9277    3.8618 C   0  0  2  0  0  0  0  0  0  0  0  0
    1.9443   -1.5470    5.5341 C   0  0  2  0  0  0  0  0  0  0  0  0
    1.5352   -4.0926    3.2652 C   0  0  0  0  0  0  0  0  0  0  0  0
    0.8753   -0.7619    6.3252 C   0  0  0  0  0  0  0  0  0  0  0  0
    0.5767    3.2157   -0.7352 H   0  0  0  0  0  0  0  0  0  0  0  0
    0.0072    2.9509    0.9262 H   0  0  0  0  0  0  0  0  0  0  0  0
   -1.0618    2.6130   -0.4093 H   0  0  0  0  0  0  0  0  0  0  0  0
    1.1694    1.1413   -2.1545 H   0  0  0  0  0  0  0  0  0  0  0  0
    2.5606    1.5393   -0.0312 H   0  0  0  0  0  0  0  0  0  0  0  0
    1.7579    1.4841    1.5315 H   0  0  0  0  0  0  0  0  0  0  0  0
   -1.6647    0.2345   -1.5149 H   0  0  0  0  0  0  0  0  0  0  0  0
   -1.1348    1.5886   -2.5324 H   0  0  0  0  0  0  0  0  0  0  0  0
    3.2805   -0.5051    0.8024 H   0  0  0  0  0  0  0  0  0  0  0  0
    2.2497   -2.1826   -0.4896 H   0  0  0  0  0  0  0  0  0  0  0  0
    0.9370   -1.7910    1.6541 H   0  0  0  0  0  0  0  0  0  0  0  0
    2.5425   -3.1075   -2.5354 H   0  0  0  0  0  0  0  0  0  0  0  0
   -2.5987    0.2776   -4.6893 H   0  0  0  0  0  0  0  0  0  0  0  0
    2.0274   -4.3167   -4.5338 H   0  0  0  0  0  0  0  0  0  0  0  0
   -1.8682   -1.6461   -6.1216 H   0  0  0  0  0  0  0  0  0  0  0  0
    0.1819   -3.6285   -5.9800 H   0  0  0  0  0  0  0  0  0  0  0  0
   -0.0965   -2.6586    3.1725 H   0  0  0  0  0  0  0  0  0  0  0  0
    0.2126   -3.3006    4.7628 H   0  0  0  0  0  0  0  0  0  0  0  0
    2.8869   -0.9978    5.6000 H   0  0  0  0  0  0  0  0  0  0  0  0
    2.1335   -2.4998    6.0390 H   0  0  0  0  0  0  0  0  0  0  0  0
    0.8815   -4.9361    3.0400 H   0  0  0  0  0  0  0  0  0  0  0  0
    2.0342   -3.7901    2.3431 H   0  0  0  0  0  0  0  0  0  0  0  0
    2.2931   -4.4198    3.9790 H   0  0  0  0  0  0  0  0  0  0  0  0
   -0.0123   -1.3779    6.4795 H   0  0  0  0  0  0  0  0  0  0  0  0
    0.5868    0.1442    5.7901 H   0  0  0  0  0  0  0  0  0  0  0  0
    1.2784   -0.4779    7.2984 H   0  0  0  0  0  0  0  0  0  0  0  0
  1  2  1  0  0  0  0 
  3  2  1  0  0  0  0 
  2  4  1  0  0  0  0 
  3  5  1  0  0  0  0 
  3  6  1  0  0  0  0 
  7  4  1  0  0  0  0 
  5  8  1  0  0  0  0 
  5  9  2  0  0  0  0 
  6 10  1  0  0  0  0 
  7  9  1  0  0  0  0 
  7 11  1  0  0  0  0 
  8 12  2  0  0  0  0 
  8 13  1  0  0  0  0 
 10 12  1  0  0  0  0 
 10 14  2  0  0  0  0 
 11 15  1  0  0  0  0 
 12 16  1  0  0  0  0 
 13 17  2  0  0  0  0 
 14 18  1  0  0  0  0 
 15 19  1  0  0  0  0 
 15 20  2  0  0  0  0 
 16 18  1  0  0  0  0 
 16 21  2  0  0  0  0 
 17 21  1  0  0  0  0 
 19 22  1  0  0  0  0 
 19 23  1  0  0  0  0 
 22 24  1  0  0  0  0 
 23 25  1  0  0  0  0 
 26  1  1  0  0  0  0 
 27  1  1  0  0  0  0 
 28  1  1  0  0  0  0 
  3 29  1  0  0  0  0 
 30  4  1  0  0  0  0 
 31  4  1  0  0  0  0 
 32  6  1  0  0  0  0 
 33  6  1  0  0  0  0 
  7 34  1  0  0  0  0 
 35  9  1  0  0  0  0 
 36 11  1  0  0  0  0 
 37 13  1  0  0  0  0 
 38 14  1  0  0  0  0 
 39 17  1  0  0  0  0 
 40 18  1  0  0  0  0 
 41 21  1  0  0  0  0 
 42 22  1  0  0  0  0 
 43 22  1  0  0  0  0 
 44 23  1  0  0  0  0 
 45 23  1  0  0  0  0 
 46 24  1  0  0  0  0 
 47 24  1  0  0  0  0 
 48 24  1  0  0  0  0 
 49 25  1  0  0  0  0 
 50 25  1  0  0  0  0 
 51 25  1  0  0  0  0 
M  END
> <cdk:Title>
lisuride

> <Conformer>
1

> <SuperDrugID>
SD001403

$$$$
