methanthelinium
  CDK     0628171801

 51 53  0  0  0  0  0  0  0  0999 V2000
   -2.9384    0.2459    3.3341 C   0  0  0  0  0  0  0  0  0  0  0  0
   -1.7463   -0.2942    2.9423 O   0  0  0  0  0  0  0  0  0  0  0  0
   -3.2111    0.3934    4.5518 O   0  0  0  0  0  0  0  0  0  0  0  0
   -3.9329    0.6242    2.3013 C   0  0  2  0  0  0  0  0  0  0  0  0
   -0.7487   -0.8247    3.8253 C   0  0  2  0  0  0  0  0  0  0  0  0
   -4.3483    2.0456    2.4647 C   0  0  0  0  0  0  0  0  0  0  0  0
   -5.0590   -0.3509    2.3562 C   0  0  0  0  0  0  0  0  0  0  0  0
    0.4683   -1.3503    3.0102 C   0  0  1  0  0  0  0  0  0  0  0  0
   -5.6783    2.3481    2.8583 C   0  0  0  0  0  0  0  0  0  0  0  0
   -3.4353    3.1015    2.2305 C   0  0  0  0  0  0  0  0  0  0  0  0
   -6.3423    0.0783    2.7834 C   0  0  0  0  0  0  0  0  0  0  0  0
   -4.8652   -1.7086    2.0001 C   0  0  0  0  0  0  0  0  0  0  0  0
    1.5010   -2.2187    3.7320 N   0  0  1  0  0  0  0  0  0  0  0  0
   -6.6249    1.3825    3.1225 O   0  0  0  0  0  0  0  0  0  0  0  0
   -6.0720    3.6936    3.0044 C   0  0  0  0  0  0  0  0  0  0  0  0
   -3.8381    4.4403    2.3844 C   0  0  0  0  0  0  0  0  0  0  0  0
   -7.3920   -0.8574    2.8857 C   0  0  0  0  0  0  0  0  0  0  0  0
   -5.9224   -2.6314    2.0944 C   0  0  0  0  0  0  0  0  0  0  0  0
    1.9629   -1.5831    5.0388 C   0  0  2  0  0  0  0  0  0  0  0  0
    0.8831   -3.5955    4.0000 C   0  0  1  0  0  0  0  0  0  0  0  0
    2.6893   -2.3947    2.8054 C   0  0  0  0  0  0  0  0  0  0  0  0
   -5.1566    4.7367    2.7704 C   0  0  0  0  0  0  0  0  0  0  0  0
   -7.1831   -2.2076    2.5479 C   0  0  0  0  0  0  0  0  0  0  0  0
    2.5786   -0.1549    4.9955 C   0  0  0  0  0  0  0  0  0  0  0  0
    1.7613   -4.7068    4.6413 C   0  0  0  0  0  0  0  0  0  0  0  0
   -3.4885    0.5357    1.3049 H   0  0  0  0  0  0  0  0  0  0  0  0
   -1.2078   -1.6283    4.4014 H   0  0  0  0  0  0  0  0  0  0  0  0
   -0.4292   -0.0420    4.5170 H   0  0  0  0  0  0  0  0  0  0  0  0
    0.0683   -1.9015    2.1528 H   0  0  0  0  0  0  0  0  0  0  0  0
    0.9440   -0.4605    2.5855 H   0  0  0  0  0  0  0  0  0  0  0  0
   -2.4736    2.9011    1.9432 H   0  0  0  0  0  0  0  0  0  0  0  0
   -3.9513   -2.0330    1.6728 H   0  0  0  0  0  0  0  0  0  0  0  0
   -7.0297    3.9202    3.2834 H   0  0  0  0  0  0  0  0  0  0  0  0
   -3.1725    5.1968    2.2127 H   0  0  0  0  0  0  0  0  0  0  0  0
   -8.3159   -0.5592    3.2095 H   0  0  0  0  0  0  0  0  0  0  0  0
   -5.7735   -3.6098    1.8340 H   0  0  0  0  0  0  0  0  0  0  0  0
    2.7298   -2.2045    5.5107 H   0  0  0  0  0  0  0  0  0  0  0  0
    1.1295   -1.5556    5.7484 H   0  0  0  0  0  0  0  0  0  0  0  0
    0.0162   -3.4983    4.6592 H   0  0  0  0  0  0  0  0  0  0  0  0
    0.5000   -4.0218    3.0648 H   0  0  0  0  0  0  0  0  0  0  0  0
    3.5280   -2.8809    3.3075 H   0  0  0  0  0  0  0  0  0  0  0  0
    2.4320   -2.9999    1.9329 H   0  0  0  0  0  0  0  0  0  0  0  0
    3.0644   -1.4405    2.4310 H   0  0  0  0  0  0  0  0  0  0  0  0
   -5.4506    5.7109    2.8779 H   0  0  0  0  0  0  0  0  0  0  0  0
   -7.9491   -2.8812    2.6278 H   0  0  0  0  0  0  0  0  0  0  0  0
    2.7944    0.1772    6.0142 H   0  0  0  0  0  0  0  0  0  0  0  0
    3.5142   -0.1576    4.4356 H   0  0  0  0  0  0  0  0  0  0  0  0
    1.9026    0.5699    4.5434 H   0  0  0  0  0  0  0  0  0  0  0  0
    1.1770   -5.6261    4.7246 H   0  0  0  0  0  0  0  0  0  0  0  0
    2.0796   -4.4244    5.6442 H   0  0  0  0  0  0  0  0  0  0  0  0
    2.6428   -4.9283    4.0385 H   0  0  0  0  0  0  0  0  0  0  0  0
  1  2  1  0  0  0  0 
  1  3  2  0  0  0  0 
  1  4  1  0  0  0  0 
  2  5  1  0  0  0  0 
  4  6  1  0  0  0  0 
  4  7  1  0  0  0  0 
  5  8  1  0  0  0  0 
  6  9  2  0  0  0  0 
  6 10  1  0  0  0  0 
  7 11  2  0  0  0  0 
  7 12  1  0  0  0  0 
  8 13  1  0  0  0  0 
  9 14  1  0  0  0  0 
  9 15  1  0  0  0  0 
 10 16  2  0  0  0  0 
 11 14  1  0  0  0  0 
 11 17  1  0  0  0  0 
 12 18  2  0  0  0  0 
 13 19  1  0  0  0  0 
 13 20  1  0  0  0  0 
 13 21  1  0  0  0  0 
 15 22  2  0  0  0  0 
 16 22  1  0  0  0  0 
 17 23  2  0  0  0  0 
 18 23  1  0  0  0  0 
 19 24  1  0  0  0  0 
 20 25  1  0  0  0  0 
  4 26  1  0  0  0  0 
  5 27  1  0  0  0  0 
  5 28  1  0  0  0  0 
  8 29  1  0  0  0  0 
  8 30  1  0  0  0  0 
 10 31  1  0  0  0  0 
 12 32  1  0  0  0  0 
 15 33  1  0  0  0  0 
 16 34  1  0  0  0  0 
 17 35  1  0  0  0  0 
 18 36  1  0  0  0  0 
 19 37  1  0  0  0  0 
 19 38  1  0  0  0  0 
 20 39  1  0  0  0  0 
 20 40  1  0  0  0  0 
 21 41  1  0  0  0  0 
 21 42  1  0  0  0  0 
 21 43  1  0  0  0  0 
 22 44  1  0  0  0  0 
 23 45  1  0  0  0  0 
 24 46  1  0  0  0  0 
 24 47  1  0  0  0  0 
 24 48  1  0  0  0  0 
 25 49  1  0  0  0  0 
 25 50  1  0  0  0  0 
 25 51  1  0  0  0  0 
M  CHG  1  13   1
M  END
> <cdk:Title>
methanthelinium

> <Conformer>
1

> <SuperDrugID>
SD001536

$$$$
