bucumolol
  CDK     0628171801

 45 46  0  0  0  0  0  0  0  0999 V2000
    1.7440    0.6825    1.4046 O   0  0  0  0  0  0  0  0  0  0  0  0
    1.0527    0.4566    0.1570 C   0  0  1  0  0  0  0  0  0  0  0  0
    0.9151    0.9104    2.4708 C   0  0  0  0  0  0  0  0  0  0  0  0
    2.0615    0.4523   -1.0219 C   0  0  2  0  0  0  0  0  0  0  0  0
    0.5224    2.2226    2.8067 C   0  0  0  0  0  0  0  0  0  0  0  0
    0.4863   -0.1627    3.2721 C   0  0  0  0  0  0  0  0  0  0  0  0
    2.8646    1.7725   -1.1266 C   0  0  2  0  0  0  0  0  0  0  0  0
    1.3662    0.2433   -2.2509 O   0  0  0  0  0  0  0  0  0  0  0  0
   -0.3092    2.4723    3.9348 C   0  0  0  0  0  0  0  0  0  0  0  0
    0.9553    3.2643    2.0342 O   0  0  0  0  0  0  0  0  0  0  0  0
   -0.3517    0.0651    4.3770 C   0  0  0  0  0  0  0  0  0  0  0  0
    3.8289    1.7012   -2.2530 N   0  0  1  0  0  0  0  0  0  0  0  0
   -0.7670    1.3749    4.7235 C   0  0  0  0  0  0  0  0  0  0  0  0
   -0.6334    3.8266    4.2040 C   0  0  0  0  0  0  0  0  0  0  0  0
    0.6345    4.5658    2.2840 C   0  0  0  0  0  0  0  0  0  0  0  0
    4.7498    2.8503   -2.5058 C   0  0  2  0  0  0  0  0  0  0  0  0
   -1.6710    1.5619    5.8915 C   0  0  0  0  0  0  0  0  0  0  0  0
   -0.1690    4.8745    3.3903 C   0  0  0  0  0  0  0  0  0  0  0  0
    1.0594    5.4682    1.5276 O   0  0  0  0  0  0  0  0  0  0  0  0
    5.7046    3.1018   -1.2957 C   0  0  0  0  0  0  0  0  0  0  0  0
    3.9508    4.1411   -2.8702 C   0  0  0  0  0  0  0  0  0  0  0  0
    5.6013    2.4196   -3.7399 C   0  0  0  0  0  0  0  0  0  0  0  0
    0.5484   -0.5132    0.1890 H   0  0  0  0  0  0  0  0  0  0  0  0
    0.3018    1.2322   -0.0302 H   0  0  0  0  0  0  0  0  0  0  0  0
    2.7604   -0.3781   -0.8864 H   0  0  0  0  0  0  0  0  0  0  0  0
    0.7860   -1.1170    3.0532 H   0  0  0  0  0  0  0  0  0  0  0  0
    3.4009    1.9314   -0.1887 H   0  0  0  0  0  0  0  0  0  0  0  0
    2.1661    2.5985   -1.2802 H   0  0  0  0  0  0  0  0  0  0  0  0
    0.9116   -0.6176   -2.1441 H   0  0  0  0  0  0  0  0  0  0  0  0
   -0.6573   -0.7415    4.9290 H   0  0  0  0  0  0  0  0  0  0  0  0
    4.4149    0.8781   -2.0866 H   0  0  0  0  0  0  0  0  0  0  0  0
   -1.2197    4.0746    5.0032 H   0  0  0  0  0  0  0  0  0  0  0  0
   -1.1728    2.1667    6.6528 H   0  0  0  0  0  0  0  0  0  0  0  0
   -1.9670    0.6172    6.3534 H   0  0  0  0  0  0  0  0  0  0  0  0
   -2.5834    2.0693    5.5702 H   0  0  0  0  0  0  0  0  0  0  0  0
   -0.4127    5.8444    3.6045 H   0  0  0  0  0  0  0  0  0  0  0  0
    6.4762    3.8287   -1.5554 H   0  0  0  0  0  0  0  0  0  0  0  0
    5.1620    3.4897   -0.4322 H   0  0  0  0  0  0  0  0  0  0  0  0
    6.1962    2.1737   -0.9975 H   0  0  0  0  0  0  0  0  0  0  0  0
    3.2304    3.9336   -3.6648 H   0  0  0  0  0  0  0  0  0  0  0  0
    4.6228    4.9286   -3.2164 H   0  0  0  0  0  0  0  0  0  0  0  0
    3.4019    4.5274   -2.0095 H   0  0  0  0  0  0  0  0  0  0  0  0
    4.9598    2.2173   -4.6024 H   0  0  0  0  0  0  0  0  0  0  0  0
    6.1702    1.5117   -3.5209 H   0  0  0  0  0  0  0  0  0  0  0  0
    6.3090    3.2052   -4.0180 H   0  0  0  0  0  0  0  0  0  0  0  0
  1  2  1  0  0  0  0 
  1  3  1  0  0  0  0 
  4  2  1  0  0  0  0 
  3  5  2  0  0  0  0 
  3  6  1  0  0  0  0 
  4  7  1  0  0  0  0 
  4  8  1  0  0  0  0 
  5  9  1  0  0  0  0 
  5 10  1  0  0  0  0 
  6 11  2  0  0  0  0 
  7 12  1  0  0  0  0 
  9 13  2  0  0  0  0 
  9 14  1  0  0  0  0 
 10 15  1  0  0  0  0 
 11 13  1  0  0  0  0 
 12 16  1  0  0  0  0 
 13 17  1  0  0  0  0 
 14 18  2  0  0  0  0 
 15 18  1  0  0  0  0 
 15 19  2  0  0  0  0 
 16 20  1  0  0  0  0 
 16 21  1  0  0  0  0 
 16 22  1  0  0  0  0 
  2 23  1  0  0  0  0 
  2 24  1  0  0  0  0 
  4 25  1  0  0  0  0 
  6 26  1  0  0  0  0 
  7 27  1  0  0  0  0 
  7 28  1  0  0  0  0 
  8 29  1  0  0  0  0 
 11 30  1  0  0  0  0 
 12 31  1  0  0  0  0 
 14 32  1  0  0  0  0 
 17 33  1  0  0  0  0 
 17 34  1  0  0  0  0 
 17 35  1  0  0  0  0 
 18 36  1  0  0  0  0 
 20 37  1  0  0  0  0 
 20 38  1  0  0  0  0 
 20 39  1  0  0  0  0 
 21 40  1  0  0  0  0 
 21 41  1  0  0  0  0 
 21 42  1  0  0  0  0 
 22 43  1  0  0  0  0 
 22 44  1  0  0  0  0 
 22 45  1  0  0  0  0 
M  END
> <cdk:Title>
bucumolol

> <Conformer>
1

> <SuperDrugID>
SD000360

$$$$
