etafenone
  CDK     0628171801

 51 52  0  0  0  0  0  0  0  0999 V2000
   -3.4233    3.0005   -4.2319 O   0  0  0  0  0  0  0  0  0  0  0  0
   -2.8554    2.5541   -5.4805 C   0  0  1  0  0  0  0  0  0  0  0  0
   -3.1410    4.3133   -3.9440 C   0  0  0  0  0  0  0  0  0  0  0  0
   -3.3551    1.1192   -5.7928 C   0  0  2  0  0  0  0  0  0  0  0  0
   -3.9965    5.3878   -4.3396 C   0  0  0  0  0  0  0  0  0  0  0  0
   -1.9608    4.5589   -3.2114 C   0  0  0  0  0  0  0  0  0  0  0  0
   -2.7908    0.4720   -7.0358 N   0  0  1  0  0  0  0  0  0  0  0  0
   -5.2105    5.1691   -5.0801 C   0  0  0  0  0  0  0  0  0  0  0  0
   -3.6073    6.6985   -3.9582 C   0  0  0  0  0  0  0  0  0  0  0  0
   -1.6008    5.8673   -2.8599 C   0  0  0  0  0  0  0  0  0  0  0  0
   -3.1264   -0.9947   -7.1394 C   0  0  2  0  0  0  0  0  0  0  0  0
   -3.1341    1.2232   -8.2991 C   0  0  2  0  0  0  0  0  0  0  0  0
   -5.9862    6.2145   -5.8151 C   0  0  1  0  0  0  0  0  0  0  0  0
   -5.7118    4.0195   -5.1136 O   0  0  0  0  0  0  0  0  0  0  0  0
   -2.4218    6.9383   -3.2411 C   0  0  0  0  0  0  0  0  0  0  0  0
   -2.6022   -1.9078   -6.0059 C   0  0  0  0  0  0  0  0  0  0  0  0
   -2.4201    0.7627   -9.5942 C   0  0  0  0  0  0  0  0  0  0  0  0
   -5.2226    6.9372   -6.9627 C   0  0  1  0  0  0  0  0  0  0  0  0
   -4.6541    6.0510   -8.0190 C   0  0  0  0  0  0  0  0  0  0  0  0
   -5.5024    5.3711   -8.9265 C   0  0  0  0  0  0  0  0  0  0  0  0
   -3.2528    5.9057   -8.1709 C   0  0  0  0  0  0  0  0  0  0  0  0
   -4.9661    4.5949   -9.9725 C   0  0  0  0  0  0  0  0  0  0  0  0
   -2.7165    5.1295   -9.2156 C   0  0  0  0  0  0  0  0  0  0  0  0
   -3.5730    4.4824  -10.1235 C   0  0  0  0  0  0  0  0  0  0  0  0
   -3.1703    3.2372   -6.2699 H   0  0  0  0  0  0  0  0  0  0  0  0
   -1.7624    2.5458   -5.4250 H   0  0  0  0  0  0  0  0  0  0  0  0
   -4.4474    1.1331   -5.8440 H   0  0  0  0  0  0  0  0  0  0  0  0
   -3.0792    0.5289   -4.9169 H   0  0  0  0  0  0  0  0  0  0  0  0
   -1.3596    3.7811   -2.9349 H   0  0  0  0  0  0  0  0  0  0  0  0
   -4.1879    7.5065   -4.1846 H   0  0  0  0  0  0  0  0  0  0  0  0
   -0.7453    6.0371   -2.3270 H   0  0  0  0  0  0  0  0  0  0  0  0
   -2.6704   -1.4044   -8.0408 H   0  0  0  0  0  0  0  0  0  0  0  0
   -4.2089   -1.1266   -7.2291 H   0  0  0  0  0  0  0  0  0  0  0  0
   -2.8366    2.2644   -8.1928 H   0  0  0  0  0  0  0  0  0  0  0  0
   -4.2159    1.2039   -8.4634 H   0  0  0  0  0  0  0  0  0  0  0  0
   -6.8928    5.7758   -6.2461 H   0  0  0  0  0  0  0  0  0  0  0  0
   -6.3328    6.9648   -5.0993 H   0  0  0  0  0  0  0  0  0  0  0  0
   -2.1591    7.8928   -2.9905 H   0  0  0  0  0  0  0  0  0  0  0  0
   -2.6894   -2.9541   -6.3121 H   0  0  0  0  0  0  0  0  0  0  0  0
   -3.1866   -1.7763   -5.0943 H   0  0  0  0  0  0  0  0  0  0  0  0
   -1.5522   -1.6898   -5.8010 H   0  0  0  0  0  0  0  0  0  0  0  0
   -2.5916    1.4932  -10.3873 H   0  0  0  0  0  0  0  0  0  0  0  0
   -2.8082   -0.1952   -9.9426 H   0  0  0  0  0  0  0  0  0  0  0  0
   -1.3448    0.6792   -9.4219 H   0  0  0  0  0  0  0  0  0  0  0  0
   -5.9146    7.6361   -7.4427 H   0  0  0  0  0  0  0  0  0  0  0  0
   -4.4367    7.5591   -6.5330 H   0  0  0  0  0  0  0  0  0  0  0  0
   -6.5192    5.4513   -8.8429 H   0  0  0  0  0  0  0  0  0  0  0  0
   -2.6076    6.3723   -7.5293 H   0  0  0  0  0  0  0  0  0  0  0  0
   -5.5894    4.1180  -10.6270 H   0  0  0  0  0  0  0  0  0  0  0  0
   -1.7023    5.0384   -9.3181 H   0  0  0  0  0  0  0  0  0  0  0  0
   -3.1823    3.9302  -10.8898 H   0  0  0  0  0  0  0  0  0  0  0  0
  1  2  1  0  0  0  0 
  1  3  1  0  0  0  0 
  2  4  1  0  0  0  0 
  3  5  2  0  0  0  0 
  3  6  1  0  0  0  0 
  4  7  1  0  0  0  0 
  5  8  1  0  0  0  0 
  5  9  1  0  0  0  0 
  6 10  2  0  0  0  0 
  7 11  1  0  0  0  0 
  7 12  1  0  0  0  0 
  8 13  1  0  0  0  0 
  8 14  2  0  0  0  0 
  9 15  2  0  0  0  0 
 10 15  1  0  0  0  0 
 11 16  1  0  0  0  0 
 12 17  1  0  0  0  0 
 13 18  1  0  0  0  0 
 18 19  1  0  0  0  0 
 19 20  2  0  0  0  0 
 19 21  1  0  0  0  0 
 20 22  1  0  0  0  0 
 21 23  2  0  0  0  0 
 22 24  2  0  0  0  0 
 23 24  1  0  0  0  0 
 25  2  1  0  0  0  0 
 26  2  1  0  0  0  0 
 27  4  1  0  0  0  0 
 28  4  1  0  0  0  0 
 29  6  1  0  0  0  0 
 30  9  1  0  0  0  0 
 31 10  1  0  0  0  0 
 32 11  1  0  0  0  0 
 33 11  1  0  0  0  0 
 34 12  1  0  0  0  0 
 35 12  1  0  0  0  0 
 36 13  1  0  0  0  0 
 37 13  1  0  0  0  0 
 38 15  1  0  0  0  0 
 39 16  1  0  0  0  0 
 40 16  1  0  0  0  0 
 41 16  1  0  0  0  0 
 42 17  1  0  0  0  0 
 43 17  1  0  0  0  0 
 44 17  1  0  0  0  0 
 45 18  1  0  0  0  0 
 46 18  1  0  0  0  0 
 47 20  1  0  0  0  0 
 48 21  1  0  0  0  0 
 49 22  1  0  0  0  0 
 50 23  1  0  0  0  0 
 51 24  1  0  0  0  0 
M  END
> <cdk:Title>
etafenone

> <Conformer>
1

> <SuperDrugID>
SD000954

$$$$
