amolanone
  CDK     0628171801

 46 48  0  0  0  0  0  0  0  0999 V2000
    0.0280   -2.4550    0.6280 C   0  0  2  0  0  0  0  0  0  0  0  0
    0.5979   -2.1193    2.0378 C   0  0  1  0  0  0  0  0  0  0  0  0
   -0.7636   -1.2974   -0.0899 C   0  0  1  0  0  0  0  0  0  0  0  0
    1.4743   -3.1784    2.6459 N   0  0  1  0  0  0  0  0  0  0  0  0
   -1.2363   -1.7794   -1.4109 C   0  0  0  0  0  0  0  0  0  0  0  0
   -2.1138   -1.1651    0.5373 C   0  0  0  0  0  0  0  0  0  0  0  0
   -0.0052    0.0099   -0.2433 C   0  0  0  0  0  0  0  0  0  0  0  0
    0.8104   -4.4885    2.9750 C   0  0  2  0  0  0  0  0  0  0  0  0
    2.8293   -3.3639    2.0141 C   0  0  1  0  0  0  0  0  0  0  0  0
   -2.6273   -1.8998   -1.4401 C   0  0  0  0  0  0  0  0  0  0  0  0
   -0.4797   -2.1440   -2.5442 C   0  0  0  0  0  0  0  0  0  0  0  0
   -2.3149   -0.7546    1.7032 O   0  0  0  0  0  0  0  0  0  0  0  0
   -3.1485   -1.5078   -0.2682 O   0  0  0  0  0  0  0  0  0  0  0  0
    1.3739    0.0187   -0.5931 C   0  0  0  0  0  0  0  0  0  0  0  0
   -0.6204    1.2803   -0.0591 C   0  0  0  0  0  0  0  0  0  0  0  0
   -0.4825   -4.4041    3.8208 C   0  0  0  0  0  0  0  0  0  0  0  0
    3.7509   -2.1221    2.0351 C   0  0  0  0  0  0  0  0  0  0  0  0
   -3.3026   -2.3943   -2.5701 C   0  0  0  0  0  0  0  0  0  0  0  0
   -1.1385   -2.6605   -3.6782 C   0  0  0  0  0  0  0  0  0  0  0  0
    2.1118    1.2160   -0.6783 C   0  0  0  0  0  0  0  0  0  0  0  0
    0.1064    2.4812   -0.1679 C   0  0  0  0  0  0  0  0  0  0  0  0
   -2.5440   -2.7881   -3.6911 C   0  0  0  0  0  0  0  0  0  0  0  0
    1.4775    2.4504   -0.4670 C   0  0  0  0  0  0  0  0  0  0  0  0
   -0.6204   -3.3303    0.7296 H   0  0  0  0  0  0  0  0  0  0  0  0
    0.8526   -2.7725   -0.0101 H   0  0  0  0  0  0  0  0  0  0  0  0
    1.1528   -1.1829    1.9966 H   0  0  0  0  0  0  0  0  0  0  0  0
   -0.2315   -1.9233    2.7176 H   0  0  0  0  0  0  0  0  0  0  0  0
    1.5074   -5.0930    3.5628 H   0  0  0  0  0  0  0  0  0  0  0  0
    0.5959   -5.0428    2.0568 H   0  0  0  0  0  0  0  0  0  0  0  0
    3.3764   -4.1377    2.5586 H   0  0  0  0  0  0  0  0  0  0  0  0
    2.7272   -3.7128    0.9833 H   0  0  0  0  0  0  0  0  0  0  0  0
    0.5360   -2.0456   -2.5472 H   0  0  0  0  0  0  0  0  0  0  0  0
    1.8707   -0.8535   -0.7821 H   0  0  0  0  0  0  0  0  0  0  0  0
   -1.6164    1.3579    0.1547 H   0  0  0  0  0  0  0  0  0  0  0  0
   -0.3231   -3.7711    4.6960 H   0  0  0  0  0  0  0  0  0  0  0  0
   -1.3049   -4.0035    3.2264 H   0  0  0  0  0  0  0  0  0  0  0  0
   -0.7706   -5.4006    4.1605 H   0  0  0  0  0  0  0  0  0  0  0  0
    4.7655   -2.4048    1.7463 H   0  0  0  0  0  0  0  0  0  0  0  0
    3.7777   -1.6851    3.0345 H   0  0  0  0  0  0  0  0  0  0  0  0
    3.4034   -1.3709    1.3284 H   0  0  0  0  0  0  0  0  0  0  0  0
   -4.3211   -2.4754   -2.5751 H   0  0  0  0  0  0  0  0  0  0  0  0
   -0.5926   -2.9475   -4.4921 H   0  0  0  0  0  0  0  0  0  0  0  0
    3.1125    1.1897   -0.8920 H   0  0  0  0  0  0  0  0  0  0  0  0
   -0.3623    3.3801   -0.0273 H   0  0  0  0  0  0  0  0  0  0  0  0
   -3.0117   -3.1710   -4.5171 H   0  0  0  0  0  0  0  0  0  0  0  0
    2.0095    3.3229   -0.5350 H   0  0  0  0  0  0  0  0  0  0  0  0
  1  2  1  0  0  0  0 
  3  1  1  0  0  0  0 
  2  4  1  0  0  0  0 
  3  5  1  0  0  0  0 
  3  6  1  0  0  0  0 
  3  7  1  0  0  0  0 
  4  8  1  0  0  0  0 
  4  9  1  0  0  0  0 
  5 10  2  0  0  0  0 
  5 11  1  0  0  0  0 
  6 12  2  0  0  0  0 
  6 13  1  0  0  0  0 
  7 14  2  0  0  0  0 
  7 15  1  0  0  0  0 
  8 16  1  0  0  0  0 
  9 17  1  0  0  0  0 
 10 13  1  0  0  0  0 
 10 18  1  0  0  0  0 
 11 19  2  0  0  0  0 
 14 20  1  0  0  0  0 
 15 21  2  0  0  0  0 
 18 22  2  0  0  0  0 
 19 22  1  0  0  0  0 
 20 23  2  0  0  0  0 
 21 23  1  0  0  0  0 
  1 24  1  0  0  0  0 
  1 25  1  0  0  0  0 
  2 26  1  0  0  0  0 
  2 27  1  0  0  0  0 
  8 28  1  0  0  0  0 
  8 29  1  0  0  0  0 
  9 30  1  0  0  0  0 
  9 31  1  0  0  0  0 
 11 32  1  0  0  0  0 
 14 33  1  0  0  0  0 
 15 34  1  0  0  0  0 
 16 35  1  0  0  0  0 
 16 36  1  0  0  0  0 
 16 37  1  0  0  0  0 
 17 38  1  0  0  0  0 
 17 39  1  0  0  0  0 
 17 40  1  0  0  0  0 
 18 41  1  0  0  0  0 
 19 42  1  0  0  0  0 
 20 43  1  0  0  0  0 
 21 44  1  0  0  0  0 
 22 45  1  0  0  0  0 
 23 46  1  0  0  0  0 
M  END
> <cdk:Title>
amolanone

> <Conformer>
1

> <SuperDrugID>
SD000152

$$$$
