dimyristoylphosphatidylglycerol
  CDK     0628171802

112111  0  0  0  0  0  0  0  0999 V2000
   -2.6819    8.1769   -8.8223 C   0  0  2  0  0  0  0  0  0  0  0  0
   -1.1606    8.2795   -8.5714 C   0  0  2  0  0  0  0  0  0  0  0  0
   -3.2878    7.7148   -7.6026 O   0  0  0  0  0  0  0  0  0  0  0  0
   -3.0130    7.1691   -9.9528 C   0  0  1  0  0  0  0  0  0  0  0  0
   -0.9669    9.0828   -7.3899 O   0  0  0  0  0  0  0  0  0  0  0  0
   -4.0181    8.4247   -6.6961 C   0  0  0  0  0  0  0  0  0  0  0  0
   -4.2111    7.5403  -10.6440 O   0  0  0  0  0  0  0  0  0  0  0  0
    0.5473    9.1684   -6.9036 P   0  0  2  0  0  0  0  0  0  0  0  0
   -4.5034    7.7270   -5.4919 C   0  0  1  0  0  0  0  0  0  0  0  0
   -4.2540    9.6458   -6.8628 O   0  0  0  0  0  0  0  0  0  0  0  0
   -4.8072    6.7471  -11.5791 C   0  0  0  0  0  0  0  0  0  0  0  0
    1.3819    9.8710   -8.0650 O   0  0  0  0  0  0  0  0  0  0  0  0
    1.0628    7.8312   -6.5886 O   0  0  0  0  0  0  0  0  0  0  0  0
    0.5835   10.0915   -5.6185 O   0  0  0  0  0  0  0  0  0  0  0  0
   -3.3524    7.3757   -4.5076 C   0  0  1  0  0  0  0  0  0  0  0  0
   -4.9606    7.2782  -12.9465 C   0  0  2  0  0  0  0  0  0  0  0  0
   -5.1480    5.5751  -11.2984 O   0  0  0  0  0  0  0  0  0  0  0  0
    2.8042    9.9174   -7.8507 C   0  0  1  0  0  0  0  0  0  0  0  0
   -3.8640    6.6739   -3.2236 C   0  0  2  0  0  0  0  0  0  0  0  0
   -3.5579    7.3347  -13.6101 C   0  0  1  0  0  0  0  0  0  0  0  0
    3.4527   10.6025   -9.0802 C   0  0  1  0  0  0  0  0  0  0  0  0
   -2.7356    6.3618   -2.2031 C   0  0  1  0  0  0  0  0  0  0  0  0
   -3.5208    8.0458  -14.9823 C   0  0  2  0  0  0  0  0  0  0  0  0
    4.9880   10.7660   -8.9410 C   0  0  2  0  0  0  0  0  0  0  0  0
    3.1631    9.8471  -10.2564 O   0  0  0  0  0  0  0  0  0  0  0  0
   -3.3103    5.7359   -0.9083 C   0  0  1  0  0  0  0  0  0  0  0  0
   -2.0638    8.1451  -15.5119 C   0  0  2  0  0  0  0  0  0  0  0  0
    5.5380   11.4441  -10.0673 O   0  0  0  0  0  0  0  0  0  0  0  0
   -2.2318    5.4089    0.1558 C   0  0  2  0  0  0  0  0  0  0  0  0
   -1.9553    8.9152  -16.8497 C   0  0  2  0  0  0  0  0  0  0  0  0
   -2.8752    4.8012    1.4297 C   0  0  1  0  0  0  0  0  0  0  0  0
   -0.4938    8.9924  -17.3687 C   0  0  1  0  0  0  0  0  0  0  0  0
   -1.8418    4.4508    2.5305 C   0  0  1  0  0  0  0  0  0  0  0  0
   -0.3959    9.7371  -18.7245 C   0  0  1  0  0  0  0  0  0  0  0  0
   -2.5178    3.8394    3.7884 C   0  0  2  0  0  0  0  0  0  0  0  0
    1.0508    9.7901  -19.2852 C   0  0  1  0  0  0  0  0  0  0  0  0
   -1.5025    3.4759    4.9045 C   0  0  1  0  0  0  0  0  0  0  0  0
    1.1139   10.5152  -20.6565 C   0  0  2  0  0  0  0  0  0  0  0  0
   -2.1772    2.8629    6.1626 C   0  0  1  0  0  0  0  0  0  0  0  0
    2.5434   10.5798  -21.2584 C   0  0  1  0  0  0  0  0  0  0  0  0
   -1.1503    2.5038    7.2709 C   0  0  2  0  0  0  0  0  0  0  0  0
    2.5723   11.3095  -22.6329 C   0  0  2  0  0  0  0  0  0  0  0  0
   -1.8053    1.8925    8.5302 C   0  0  0  0  0  0  0  0  0  0  0  0
    3.9917   11.3912  -23.2606 C   0  0  1  0  0  0  0  0  0  0  0  0
    3.9128   12.1650  -24.6776 C   0  0  0  0  0  0  0  0  0  0  0  0
   -3.0467    9.1721   -9.0993 H   0  0  0  0  0  0  0  0  0  0  0  0
   -0.6828    8.7432   -9.4433 H   0  0  0  0  0  0  0  0  0  0  0  0
   -0.7640    7.2650   -8.4444 H   0  0  0  0  0  0  0  0  0  0  0  0
   -2.2081    7.1611  -10.6951 H   0  0  0  0  0  0  0  0  0  0  0  0
   -3.0980    6.1616   -9.5347 H   0  0  0  0  0  0  0  0  0  0  0  0
   -5.2354    8.3544   -4.9774 H   0  0  0  0  0  0  0  0  0  0  0  0
   -5.0146    6.8149   -5.8092 H   0  0  0  0  0  0  0  0  0  0  0  0
    0.2375   10.9551   -5.9274 H   0  0  0  0  0  0  0  0  0  0  0  0
   -2.6328    6.7157   -5.0011 H   0  0  0  0  0  0  0  0  0  0  0  0
   -2.8364    8.2974   -4.2217 H   0  0  0  0  0  0  0  0  0  0  0  0
   -5.4086    8.2728  -12.8932 H   0  0  0  0  0  0  0  0  0  0  0  0
   -5.6192    6.6366  -13.5383 H   0  0  0  0  0  0  0  0  0  0  0  0
    3.0373   10.4959   -6.9507 H   0  0  0  0  0  0  0  0  0  0  0  0
    3.2154    8.9071   -7.7451 H   0  0  0  0  0  0  0  0  0  0  0  0
   -4.3497    5.7346   -3.5035 H   0  0  0  0  0  0  0  0  0  0  0  0
   -4.6113    7.3146   -2.7453 H   0  0  0  0  0  0  0  0  0  0  0  0
   -2.8611    7.8566  -12.9478 H   0  0  0  0  0  0  0  0  0  0  0  0
   -3.1947    6.3109  -13.7405 H   0  0  0  0  0  0  0  0  0  0  0  0
    3.0047   11.5926   -9.2038 H   0  0  0  0  0  0  0  0  0  0  0  0
   -2.0210    5.6671   -2.6532 H   0  0  0  0  0  0  0  0  0  0  0  0
   -2.2037    7.2830   -1.9491 H   0  0  0  0  0  0  0  0  0  0  0  0
   -3.9374    9.0504  -14.8779 H   0  0  0  0  0  0  0  0  0  0  0  0
   -4.1348    7.4879  -15.6941 H   0  0  0  0  0  0  0  0  0  0  0  0
    5.4666    9.7866   -8.8640 H   0  0  0  0  0  0  0  0  0  0  0  0
    5.2273   11.3470   -8.0462 H   0  0  0  0  0  0  0  0  0  0  0  0
    2.1853    9.8618  -10.3302 H   0  0  0  0  0  0  0  0  0  0  0  0
   -4.0293    6.4352   -0.4723 H   0  0  0  0  0  0  0  0  0  0  0  0
   -3.8429    4.8164   -1.1676 H   0  0  0  0  0  0  0  0  0  0  0  0
   -1.6690    7.1345  -15.6501 H   0  0  0  0  0  0  0  0  0  0  0  0
   -1.4418    8.6544  -14.7692 H   0  0  0  0  0  0  0  0  0  0  0  0
    6.5026   11.4736   -9.8888 H   0  0  0  0  0  0  0  0  0  0  0  0
   -1.6978    6.3255    0.4222 H   0  0  0  0  0  0  0  0  0  0  0  0
   -1.5110    4.7003   -0.2622 H   0  0  0  0  0  0  0  0  0  0  0  0
   -2.3378    9.9301  -16.7077 H   0  0  0  0  0  0  0  0  0  0  0  0
   -2.5767    8.4147  -17.5971 H   0  0  0  0  0  0  0  0  0  0  0  0
   -3.5957    5.5167    1.8372 H   0  0  0  0  0  0  0  0  0  0  0  0
   -3.4178    3.8925    1.1525 H   0  0  0  0  0  0  0  0  0  0  0  0
    0.1247    9.5116  -16.6306 H   0  0  0  0  0  0  0  0  0  0  0  0
   -0.1022    7.9781  -17.4888 H   0  0  0  0  0  0  0  0  0  0  0  0
   -1.1200    3.7360    2.1251 H   0  0  0  0  0  0  0  0  0  0  0  0
   -1.3027    5.3590    2.8150 H   0  0  0  0  0  0  0  0  0  0  0  0
   -1.0394    9.2314  -19.4501 H   0  0  0  0  0  0  0  0  0  0  0  0
   -0.7661   10.7581  -18.5940 H   0  0  0  0  0  0  0  0  0  0  0  0
   -3.0607    2.9364    3.4948 H   0  0  0  0  0  0  0  0  0  0  0  0
   -3.2411    4.5572    4.1863 H   0  0  0  0  0  0  0  0  0  0  0  0
    1.6940   10.3125  -18.5711 H   0  0  0  0  0  0  0  0  0  0  0  0
    1.4271    8.7699  -19.4022 H   0  0  0  0  0  0  0  0  0  0  0  0
   -0.7801    2.7588    4.5046 H   0  0  0  0  0  0  0  0  0  0  0  0
   -0.9611    4.3799    5.1972 H   0  0  0  0  0  0  0  0  0  0  0  0
    0.7375   11.5350  -20.5338 H   0  0  0  0  0  0  0  0  0  0  0  0
    0.4610    9.9922  -21.3613 H   0  0  0  0  0  0  0  0  0  0  0  0
   -2.9000    3.5788    6.5648 H   0  0  0  0  0  0  0  0  0  0  0  0
   -2.7194    1.9583    5.8723 H   0  0  0  0  0  0  0  0  0  0  0  0
    3.2011   11.1044  -20.5590 H   0  0  0  0  0  0  0  0  0  0  0  0
    2.9229    9.5614  -21.3848 H   0  0  0  0  0  0  0  0  0  0  0  0
   -0.6069    3.4054    7.5667 H   0  0  0  0  0  0  0  0  0  0  0  0
   -0.4264    1.7862    6.8747 H   0  0  0  0  0  0  0  0  0  0  0  0
    2.1858   12.3248  -22.5002 H   0  0  0  0  0  0  0  0  0  0  0  0
    1.9098   10.7812  -23.3257 H   0  0  0  0  0  0  0  0  0  0  0  0
   -1.0373    1.6615    9.2713 H   0  0  0  0  0  0  0  0  0  0  0  0
   -2.5130    2.5967    8.9721 H   0  0  0  0  0  0  0  0  0  0  0  0
   -2.3316    0.9701    8.2770 H   0  0  0  0  0  0  0  0  0  0  0  0
    4.6460   11.8816  -22.4887 H   0  0  0  0  0  0  0  0  0  0  0  0
    4.3683   10.3332  -23.3187 H   0  0  0  0  0  0  0  0  0  0  0  0
    3.5371   13.1806  -24.5350 H   0  0  0  0  0  0  0  0  0  0  0  0
    3.2593   11.6270  -25.3679 H   0  0  0  0  0  0  0  0  0  0  0  0
    4.9118   12.2202  -25.1137 H   0  0  0  0  0  0  0  0  0  0  0  0
  1  2  1  0  0  0  0 
  1  3  1  0  0  0  0 
  1  4  1  0  0  0  0 
  2  5  1  0  0  0  0 
  3  6  1  0  0  0  0 
  4  7  1  0  0  0  0 
  5  8  1  0  0  0  0 
  6  9  1  0  0  0  0 
  6 10  2  0  0  0  0 
  7 11  1  0  0  0  0 
  8 12  1  0  0  0  0 
  8 13  2  0  0  0  0 
  8 14  1  0  0  0  0 
  9 15  1  0  0  0  0 
 11 16  1  0  0  0  0 
 11 17  2  0  0  0  0 
 12 18  1  0  0  0  0 
 15 19  1  0  0  0  0 
 16 20  1  0  0  0  0 
 18 21  1  0  0  0  0 
 19 22  1  0  0  0  0 
 20 23  1  0  0  0  0 
 21 24  1  0  0  0  0 
 21 25  1  0  0  0  0 
 22 26  1  0  0  0  0 
 23 27  1  0  0  0  0 
 24 28  1  0  0  0  0 
 26 29  1  0  0  0  0 
 27 30  1  0  0  0  0 
 29 31  1  0  0  0  0 
 30 32  1  0  0  0  0 
 31 33  1  0  0  0  0 
 32 34  1  0  0  0  0 
 33 35  1  0  0  0  0 
 34 36  1  0  0  0  0 
 35 37  1  0  0  0  0 
 36 38  1  0  0  0  0 
 37 39  1  0  0  0  0 
 38 40  1  0  0  0  0 
 39 41  1  0  0  0  0 
 40 42  1  0  0  0  0 
 41 43  1  0  0  0  0 
 42 44  1  0  0  0  0 
 44 45  1  0  0  0  0 
  1 46  1  0  0  0  0 
  2 47  1  0  0  0  0 
  2 48  1  0  0  0  0 
  4 49  1  0  0  0  0 
  4 50  1  0  0  0  0 
  9 51  1  0  0  0  0 
  9 52  1  0  0  0  0 
 14 53  1  0  0  0  0 
 15 54  1  0  0  0  0 
 15 55  1  0  0  0  0 
 16 56  1  0  0  0  0 
 16 57  1  0  0  0  0 
 18 58  1  0  0  0  0 
 18 59  1  0  0  0  0 
 19 60  1  0  0  0  0 
 19 61  1  0  0  0  0 
 20 62  1  0  0  0  0 
 20 63  1  0  0  0  0 
 21 64  1  0  0  0  0 
 22 65  1  0  0  0  0 
 22 66  1  0  0  0  0 
 23 67  1  0  0  0  0 
 23 68  1  0  0  0  0 
 24 69  1  0  0  0  0 
 24 70  1  0  0  0  0 
 25 71  1  0  0  0  0 
 26 72  1  0  0  0  0 
 26 73  1  0  0  0  0 
 27 74  1  0  0  0  0 
 27 75  1  0  0  0  0 
 28 76  1  0  0  0  0 
 29 77  1  0  0  0  0 
 29 78  1  0  0  0  0 
 30 79  1  0  0  0  0 
 30 80  1  0  0  0  0 
 31 81  1  0  0  0  0 
 31 82  1  0  0  0  0 
 32 83  1  0  0  0  0 
 32 84  1  0  0  0  0 
 33 85  1  0  0  0  0 
 33 86  1  0  0  0  0 
 34 87  1  0  0  0  0 
 34 88  1  0  0  0  0 
 35 89  1  0  0  0  0 
 35 90  1  0  0  0  0 
 36 91  1  0  0  0  0 
 36 92  1  0  0  0  0 
 37 93  1  0  0  0  0 
 37 94  1  0  0  0  0 
 38 95  1  0  0  0  0 
 38 96  1  0  0  0  0 
 39 97  1  0  0  0  0 
 39 98  1  0  0  0  0 
 40 99  1  0  0  0  0 
 40100  1  0  0  0  0 
 41101  1  0  0  0  0 
 41102  1  0  0  0  0 
 42103  1  0  0  0  0 
 42104  1  0  0  0  0 
 43105  1  0  0  0  0 
 43106  1  0  0  0  0 
 43107  1  0  0  0  0 
 44108  1  0  0  0  0 
 44109  1  0  0  0  0 
 45110  1  0  0  0  0 
 45111  1  0  0  0  0 
 45112  1  0  0  0  0 
M  END
> <cdk:Title>
dimyristoylphosphatidylglycerol

> <Conformer>
1

> <SuperDrugID>
SD003684

$$$$
