trihexyphenidyl
  CDK     0628171801

 53 55  0  0  0  0  0  0  0  0999 V2000
   -2.8440    0.6322    0.3415 C   0  0  2  0  0  0  0  0  0  0  0  0
   -2.1406    1.1875    1.6326 C   0  0  2  0  0  0  0  0  0  0  0  0
   -2.6343   -0.7868    0.3605 O   0  0  0  0  0  0  0  0  0  0  0  0
   -2.1848    1.1608   -1.0059 C   0  0  2  0  0  0  0  0  0  0  0  0
   -4.3183    0.9599    0.3852 C   0  0  0  0  0  0  0  0  0  0  0  0
   -2.6750    0.6833    3.0091 C   0  0  2  0  0  0  0  0  0  0  0  0
   -2.9412    0.6710   -2.2931 C   0  0  1  0  0  0  0  0  0  0  0  0
   -0.6551    0.8534   -1.1714 C   0  0  2  0  0  0  0  0  0  0  0  0
   -5.3061   -0.0408    0.5892 C   0  0  0  0  0  0  0  0  0  0  0  0
   -4.7731    2.2938    0.1993 C   0  0  0  0  0  0  0  0  0  0  0  0
   -4.0534    1.1298    3.3966 N   0  0  2  0  0  0  0  0  0  0  0  0
   -2.3579    1.2816   -3.5947 C   0  0  2  0  0  0  0  0  0  0  0  0
   -0.0624    1.4538   -2.4749 C   0  0  2  0  0  0  0  0  0  0  0  0
   -6.6772    0.2642    0.5462 C   0  0  0  0  0  0  0  0  0  0  0  0
   -6.1439    2.5995    0.1385 C   0  0  0  0  0  0  0  0  0  0  0  0
   -4.1764    2.5944    3.6973 C   0  0  2  0  0  0  0  0  0  0  0  0
   -4.6454    0.2911    4.4920 C   0  0  1  0  0  0  0  0  0  0  0  0
   -0.8429    0.9990   -3.7308 C   0  0  2  0  0  0  0  0  0  0  0  0
   -7.0970    1.5824    0.3055 C   0  0  0  0  0  0  0  0  0  0  0  0
   -5.6557    3.0072    3.9092 C   0  0  2  0  0  0  0  0  0  0  0  0
   -6.1374    0.6311    4.7294 C   0  0  1  0  0  0  0  0  0  0  0  0
   -6.3391    2.1428    4.9978 C   0  0  1  0  0  0  0  0  0  0  0  0
   -2.1305    2.2771    1.6080 H   0  0  0  0  0  0  0  0  0  0  0  0
   -1.0969    0.8737    1.6137 H   0  0  0  0  0  0  0  0  0  0  0  0
   -1.6637   -0.9059    0.3759 H   0  0  0  0  0  0  0  0  0  0  0  0
   -2.2545    2.2520   -0.9933 H   0  0  0  0  0  0  0  0  0  0  0  0
   -1.9706    0.9881    3.7903 H   0  0  0  0  0  0  0  0  0  0  0  0
   -2.6484   -0.4099    2.9708 H   0  0  0  0  0  0  0  0  0  0  0  0
   -2.8944   -0.4203   -2.3539 H   0  0  0  0  0  0  0  0  0  0  0  0
   -3.9968    0.9519   -2.2570 H   0  0  0  0  0  0  0  0  0  0  0  0
   -0.4849   -0.2269   -1.1691 H   0  0  0  0  0  0  0  0  0  0  0  0
   -0.0887    1.2835   -0.3436 H   0  0  0  0  0  0  0  0  0  0  0  0
   -5.0398   -1.0096    0.7745 H   0  0  0  0  0  0  0  0  0  0  0  0
   -4.1084    3.0612    0.0936 H   0  0  0  0  0  0  0  0  0  0  0  0
   -2.5293    2.3625   -3.5955 H   0  0  0  0  0  0  0  0  0  0  0  0
   -2.8801    0.8618   -4.4586 H   0  0  0  0  0  0  0  0  0  0  0  0
    0.9807    1.1446   -2.5729 H   0  0  0  0  0  0  0  0  0  0  0  0
   -0.0798    2.5457   -2.4101 H   0  0  0  0  0  0  0  0  0  0  0  0
   -7.3698   -0.4745    0.6852 H   0  0  0  0  0  0  0  0  0  0  0  0
   -6.4466    3.5642   -0.0239 H   0  0  0  0  0  0  0  0  0  0  0  0
   -3.7929    3.1968    2.8725 H   0  0  0  0  0  0  0  0  0  0  0  0
   -3.5935    2.8461    4.5889 H   0  0  0  0  0  0  0  0  0  0  0  0
   -4.5893   -0.7693    4.2284 H   0  0  0  0  0  0  0  0  0  0  0  0
   -4.0887    0.4334    5.4250 H   0  0  0  0  0  0  0  0  0  0  0  0
   -0.4529    1.5260   -4.6049 H   0  0  0  0  0  0  0  0  0  0  0  0
   -0.6887   -0.0719   -3.8864 H   0  0  0  0  0  0  0  0  0  0  0  0
   -8.0949    1.8023    0.2532 H   0  0  0  0  0  0  0  0  0  0  0  0
   -6.1985    2.8861    2.9689 H   0  0  0  0  0  0  0  0  0  0  0  0
   -5.7025    4.0619    4.1964 H   0  0  0  0  0  0  0  0  0  0  0  0
   -6.7099    0.3379    3.8454 H   0  0  0  0  0  0  0  0  0  0  0  0
   -6.5099    0.0565    5.5827 H   0  0  0  0  0  0  0  0  0  0  0  0
   -5.9289    2.3955    5.9803 H   0  0  0  0  0  0  0  0  0  0  0  0
   -7.4096    2.3628    5.0167 H   0  0  0  0  0  0  0  0  0  0  0  0
  1  2  1  0  0  0  0 
  1  3  1  0  0  0  0 
  1  4  1  0  0  0  0 
  1  5  1  0  0  0  0 
  2  6  1  0  0  0  0 
  4  7  1  0  0  0  0 
  4  8  1  0  0  0  0 
  5  9  2  0  0  0  0 
  5 10  1  0  0  0  0 
  6 11  1  0  0  0  0 
  7 12  1  0  0  0  0 
  8 13  1  0  0  0  0 
  9 14  1  0  0  0  0 
 10 15  2  0  0  0  0 
 11 16  1  0  0  0  0 
 11 17  1  0  0  0  0 
 12 18  1  0  0  0  0 
 13 18  1  0  0  0  0 
 14 19  2  0  0  0  0 
 15 19  1  0  0  0  0 
 16 20  1  0  0  0  0 
 17 21  1  0  0  0  0 
 20 22  1  0  0  0  0 
 21 22  1  0  0  0  0 
  2 23  1  0  0  0  0 
  2 24  1  0  0  0  0 
  3 25  1  0  0  0  0 
  4 26  1  0  0  0  0 
  6 27  1  0  0  0  0 
  6 28  1  0  0  0  0 
  7 29  1  0  0  0  0 
  7 30  1  0  0  0  0 
  8 31  1  0  0  0  0 
  8 32  1  0  0  0  0 
  9 33  1  0  0  0  0 
 10 34  1  0  0  0  0 
 12 35  1  0  0  0  0 
 12 36  1  0  0  0  0 
 13 37  1  0  0  0  0 
 13 38  1  0  0  0  0 
 14 39  1  0  0  0  0 
 15 40  1  0  0  0  0 
 16 41  1  0  0  0  0 
 16 42  1  0  0  0  0 
 17 43  1  0  0  0  0 
 17 44  1  0  0  0  0 
 18 45  1  0  0  0  0 
 18 46  1  0  0  0  0 
 19 47  1  0  0  0  0 
 20 48  1  0  0  0  0 
 20 49  1  0  0  0  0 
 21 50  1  0  0  0  0 
 21 51  1  0  0  0  0 
 22 52  1  0  0  0  0 
 22 53  1  0  0  0  0 
M  END
> <cdk:Title>
trihexyphenidyl

> <Conformer>
1

> <SuperDrugID>
SD002475

$$$$
