domiphen
  CDK     0628171801

 64 64  0  0  0  0  0  0  0  0999 V2000
   -1.2130   -0.7028    0.1507 O   0  0  0  0  0  0  0  0  0  0  0  0
   -0.7302   -1.1194    1.4483 C   0  0  2  0  0  0  0  0  0  0  0  0
   -0.6410    0.4764   -0.2360 C   0  0  0  0  0  0  0  0  0  0  0  0
   -1.3211   -2.5149    1.7838 C   0  0  1  0  0  0  0  0  0  0  0  0
   -1.1975    1.7074    0.1720 C   0  0  0  0  0  0  0  0  0  0  0  0
    0.5327    0.4577   -1.0155 C   0  0  0  0  0  0  0  0  0  0  0  0
   -0.8899   -3.2050    3.0733 N   0  0  2  0  0  0  0  0  0  0  0  0
   -0.5384    2.9103   -0.1376 C   0  0  0  0  0  0  0  0  0  0  0  0
    1.1888    1.6636   -1.3245 C   0  0  0  0  0  0  0  0  0  0  0  0
   -1.6328   -4.5350    3.2300 C   0  0  1  0  0  0  0  0  0  0  0  0
   -1.2540   -2.3401    4.2650 C   0  0  0  0  0  0  0  0  0  0  0  0
    0.6037   -3.4469    3.0916 C   0  0  0  0  0  0  0  0  0  0  0  0
    0.6634    2.8894   -0.8725 C   0  0  0  0  0  0  0  0  0  0  0  0
   -1.4318   -5.6332    2.1357 C   0  0  2  0  0  0  0  0  0  0  0  0
   -2.1320   -6.9842    2.4580 C   0  0  2  0  0  0  0  0  0  0  0  0
   -1.9080   -8.0435    1.3410 C   0  0  2  0  0  0  0  0  0  0  0  0
   -2.6087   -9.4054    1.6081 C   0  0  1  0  0  0  0  0  0  0  0  0
   -2.3254  -10.4459    0.4863 C   0  0  2  0  0  0  0  0  0  0  0  0
   -3.0159  -11.8208    0.7115 C   0  0  1  0  0  0  0  0  0  0  0  0
   -2.7497  -12.8036   -0.5108 C   0  0  2  0  0  0  0  0  0  0  0  0
   -3.4137  -14.1903   -0.2894 C   0  0  1  0  0  0  0  0  0  0  0  0
   -3.1495  -15.2143   -1.4298 C   0  0  1  0  0  0  0  0  0  0  0  0
   -3.8449  -16.5808   -1.1697 C   0  0  2  0  0  0  0  0  0  0  0  0
   -3.5887  -17.6205   -2.2848 C   0  0  0  0  0  0  0  0  0  0  0  0
   -1.0487   -0.3955    2.2037 H   0  0  0  0  0  0  0  0  0  0  0  0
    0.3636   -1.1823    1.4465 H   0  0  0  0  0  0  0  0  0  0  0  0
   -2.4109   -2.4076    1.7728 H   0  0  0  0  0  0  0  0  0  0  0  0
   -1.0640   -3.1444    0.9299 H   0  0  0  0  0  0  0  0  0  0  0  0
   -2.0689    1.7248    0.7095 H   0  0  0  0  0  0  0  0  0  0  0  0
    0.9203   -0.4329   -1.3406 H   0  0  0  0  0  0  0  0  0  0  0  0
   -0.9299    3.8001    0.1782 H   0  0  0  0  0  0  0  0  0  0  0  0
    2.0512    1.6461   -1.8723 H   0  0  0  0  0  0  0  0  0  0  0  0
   -1.3578   -4.9926    4.1870 H   0  0  0  0  0  0  0  0  0  0  0  0
   -2.7096   -4.3441    3.2889 H   0  0  0  0  0  0  0  0  0  0  0  0
   -1.0035   -2.8293    5.2106 H   0  0  0  0  0  0  0  0  0  0  0  0
   -2.3253   -2.1134    4.2820 H   0  0  0  0  0  0  0  0  0  0  0  0
   -0.7202   -1.3875    4.2659 H   0  0  0  0  0  0  0  0  0  0  0  0
    0.8954   -4.1001    3.9176 H   0  0  0  0  0  0  0  0  0  0  0  0
    1.1693   -2.5232    3.2131 H   0  0  0  0  0  0  0  0  0  0  0  0
    0.9495   -3.9051    2.1636 H   0  0  0  0  0  0  0  0  0  0  0  0
    1.1519    3.7641   -1.0810 H   0  0  0  0  0  0  0  0  0  0  0  0
   -0.3663   -5.8295    2.0077 H   0  0  0  0  0  0  0  0  0  0  0  0
   -1.8294   -5.2735    1.1856 H   0  0  0  0  0  0  0  0  0  0  0  0
   -3.2042   -6.8103    2.5826 H   0  0  0  0  0  0  0  0  0  0  0  0
   -1.7365   -7.3716    3.4003 H   0  0  0  0  0  0  0  0  0  0  0  0
   -0.8339   -8.2153    1.2342 H   0  0  0  0  0  0  0  0  0  0  0  0
   -2.2765   -7.6387    0.3946 H   0  0  0  0  0  0  0  0  0  0  0  0
   -2.2594   -9.8032    2.5648 H   0  0  0  0  0  0  0  0  0  0  0  0
   -3.6872   -9.2404    1.6800 H   0  0  0  0  0  0  0  0  0  0  0  0
   -1.2454  -10.6052    0.4233 H   0  0  0  0  0  0  0  0  0  0  0  0
   -2.6636  -10.0293   -0.4671 H   0  0  0  0  0  0  0  0  0  0  0  0
   -2.7161  -12.1835    1.7345 H   0  0  0  0  0  0  0  0  0  0  0  0
   -4.0944  -11.6469    0.7540 H   0  0  0  0  0  0  0  0  0  0  0  0
   -1.6711  -12.9365   -0.6273 H   0  0  0  0  0  0  0  0  0  0  0  0
   -3.1419  -12.3560   -1.4297 H   0  0  0  0  0  0  0  0  0  0  0  0
   -3.0424  -14.6095    0.6504 H   0  0  0  0  0  0  0  0  0  0  0  0
   -4.4929  -14.0440   -0.1939 H   0  0  0  0  0  0  0  0  0  0  0  0
   -3.5161  -14.8026   -2.3748 H   0  0  0  0  0  0  0  0  0  0  0  0
   -2.0717  -15.3764   -1.5232 H   0  0  0  0  0  0  0  0  0  0  0  0
   -4.9245  -16.4281   -1.0825 H   0  0  0  0  0  0  0  0  0  0  0  0
   -3.4858  -16.9966   -0.2243 H   0  0  0  0  0  0  0  0  0  0  0  0
   -4.1028  -18.5539   -2.0451 H   0  0  0  0  0  0  0  0  0  0  0  0
   -3.9640  -17.2544   -3.2426 H   0  0  0  0  0  0  0  0  0  0  0  0
   -2.5206  -17.8271   -2.3759 H   0  0  0  0  0  0  0  0  0  0  0  0
  1  2  1  0  0  0  0 
  1  3  1  0  0  0  0 
  2  4  1  0  0  0  0 
  3  5  2  0  0  0  0 
  3  6  1  0  0  0  0 
  4  7  1  0  0  0  0 
  5  8  1  0  0  0  0 
  6  9  2  0  0  0  0 
  7 10  1  0  0  0  0 
  7 11  1  0  0  0  0 
  7 12  1  0  0  0  0 
  8 13  2  0  0  0  0 
  9 13  1  0  0  0  0 
 10 14  1  0  0  0  0 
 14 15  1  0  0  0  0 
 15 16  1  0  0  0  0 
 16 17  1  0  0  0  0 
 17 18  1  0  0  0  0 
 18 19  1  0  0  0  0 
 19 20  1  0  0  0  0 
 20 21  1  0  0  0  0 
 21 22  1  0  0  0  0 
 22 23  1  0  0  0  0 
 23 24  1  0  0  0  0 
  2 25  1  0  0  0  0 
  2 26  1  0  0  0  0 
  4 27  1  0  0  0  0 
  4 28  1  0  0  0  0 
  5 29  1  0  0  0  0 
  6 30  1  0  0  0  0 
  8 31  1  0  0  0  0 
  9 32  1  0  0  0  0 
 10 33  1  0  0  0  0 
 10 34  1  0  0  0  0 
 11 35  1  0  0  0  0 
 11 36  1  0  0  0  0 
 11 37  1  0  0  0  0 
 12 38  1  0  0  0  0 
 12 39  1  0  0  0  0 
 12 40  1  0  0  0  0 
 13 41  1  0  0  0  0 
 14 42  1  0  0  0  0 
 14 43  1  0  0  0  0 
 15 44  1  0  0  0  0 
 15 45  1  0  0  0  0 
 16 46  1  0  0  0  0 
 16 47  1  0  0  0  0 
 17 48  1  0  0  0  0 
 17 49  1  0  0  0  0 
 18 50  1  0  0  0  0 
 18 51  1  0  0  0  0 
 19 52  1  0  0  0  0 
 19 53  1  0  0  0  0 
 20 54  1  0  0  0  0 
 20 55  1  0  0  0  0 
 21 56  1  0  0  0  0 
 21 57  1  0  0  0  0 
 22 58  1  0  0  0  0 
 22 59  1  0  0  0  0 
 23 60  1  0  0  0  0 
 23 61  1  0  0  0  0 
 24 62  1  0  0  0  0 
 24 63  1  0  0  0  0 
 24 64  1  0  0  0  0 
M  CHG  1   7   1
M  END
> <cdk:Title>
domiphen

> <Conformer>
1

> <SuperDrugID>
SD003579

$$$$
