metipamide
  CDK     0628171801

 36 37  0  0  0  0  0  0  0  0999 V2000
    1.5886   -2.5319   -0.0924 C   0  0  0  0  0  0  0  0  0  0  0  0
    2.4373   -1.7682    0.6436 N   0  0  0  0  0  0  0  0  0  0  0  0
    0.3505   -2.3331   -0.0193 O   0  0  0  0  0  0  0  0  0  0  0  0
    2.0870   -3.5628   -0.9292 C   0  0  0  0  0  0  0  0  0  0  0  0
    2.0149   -0.7687    1.4616 N   0  0  1  0  0  0  0  0  0  0  0  0
    3.2684   -3.3841   -1.6887 C   0  0  0  0  0  0  0  0  0  0  0  0
    1.4100   -4.8000   -1.0235 C   0  0  0  0  0  0  0  0  0  0  0  0
    2.1891   -1.1000    2.8973 C   0  0  0  0  0  0  0  0  0  0  0  0
    2.5140    0.4937    1.0566 C   0  0  0  0  0  0  0  0  0  0  0  0
    3.7620   -4.4003   -2.5394 C   0  0  0  0  0  0  0  0  0  0  0  0
    1.9087   -5.8312   -1.8352 C   0  0  0  0  0  0  0  0  0  0  0  0
    3.8956    0.8004    1.0483 C   0  0  0  0  0  0  0  0  0  0  0  0
    1.5920    1.4834    0.6535 C   0  0  0  0  0  0  0  0  0  0  0  0
    5.2104   -4.0685   -3.5135 S   0  0  1  0  0  0  0  0  0  0  0  0
    3.0799   -5.6425   -2.5936 C   0  0  0  0  0  0  0  0  0  0  0  0
    4.3405    2.0784    0.6656 C   0  0  0  0  0  0  0  0  0  0  0  0
    2.0403    2.7586    0.2609 C   0  0  0  0  0  0  0  0  0  0  0  0
    6.6065   -4.8754   -2.8162 N   0  0  2  0  0  0  0  0  0  0  0  0
    5.0260   -4.6002   -5.0153 O   0  0  0  0  0  0  0  0  0  0  0  0
    5.5311   -2.4986   -3.5789 O   0  0  0  0  0  0  0  0  0  0  0  0
    3.6005   -6.9521   -3.5385 Cl  0  0  0  0  0  0  0  0  0  0  0  0
    3.4129    3.0616    0.2781 C   0  0  0  0  0  0  0  0  0  0  0  0
    3.3905   -1.9515    0.5984 H   0  0  0  0  0  0  0  0  0  0  0  0
    3.7695   -2.4938   -1.6289 H   0  0  0  0  0  0  0  0  0  0  0  0
    0.5557   -4.9681   -0.4848 H   0  0  0  0  0  0  0  0  0  0  0  0
    1.7378   -0.3221    3.5175 H   0  0  0  0  0  0  0  0  0  0  0  0
    1.6903   -2.0450    3.1280 H   0  0  0  0  0  0  0  0  0  0  0  0
    3.2465   -1.1943    3.1556 H   0  0  0  0  0  0  0  0  0  0  0  0
    1.4093   -6.7244   -1.8642 H   0  0  0  0  0  0  0  0  0  0  0  0
    4.5824    0.0934    1.3157 H   0  0  0  0  0  0  0  0  0  0  0  0
    0.5888    1.2794    0.6401 H   0  0  0  0  0  0  0  0  0  0  0  0
    5.3382    2.2925    0.6675 H   0  0  0  0  0  0  0  0  0  0  0  0
    1.3657    3.4668   -0.0357 H   0  0  0  0  0  0  0  0  0  0  0  0
    7.3697   -4.7724   -3.4881 H   0  0  0  0  0  0  0  0  0  0  0  0
    6.3846   -5.8707   -2.7734 H   0  0  0  0  0  0  0  0  0  0  0  0
    3.7329    3.9941    0.0078 H   0  0  0  0  0  0  0  0  0  0  0  0
  1  2  1  0  0  0  0 
  1  3  2  0  0  0  0 
  1  4  1  0  0  0  0 
  2  5  1  0  0  0  0 
  4  6  2  0  0  0  0 
  4  7  1  0  0  0  0 
  5  8  1  0  0  0  0 
  5  9  1  0  0  0  0 
  6 10  1  0  0  0  0 
  7 11  2  0  0  0  0 
  9 12  2  0  0  0  0 
  9 13  1  0  0  0  0 
 10 14  1  0  0  0  0 
 10 15  2  0  0  0  0 
 11 15  1  0  0  0  0 
 12 16  1  0  0  0  0 
 13 17  2  0  0  0  0 
 14 18  1  0  0  0  0 
 14 19  2  0  0  0  0 
 14 20  2  0  0  0  0 
 15 21  1  0  0  0  0 
 16 22  2  0  0  0  0 
 17 22  1  0  0  0  0 
  2 23  1  0  0  0  0 
  6 24  1  0  0  0  0 
  7 25  1  0  0  0  0 
  8 26  1  0  0  0  0 
  8 27  1  0  0  0  0 
  8 28  1  0  0  0  0 
 11 29  1  0  0  0  0 
 12 30  1  0  0  0  0 
 13 31  1  0  0  0  0 
 16 32  1  0  0  0  0 
 17 33  1  0  0  0  0 
 18 34  1  0  0  0  0 
 18 35  1  0  0  0  0 
 22 36  1  0  0  0  0 
M  END
> <cdk:Title>
metipamide

> <Conformer>
1

> <SuperDrugID>
SD001578

$$$$
