isoflurane
  CDK     0628171801

 12 11  0  0  0  0  0  0  0  0999 V2000
   -0.8723    0.8758   -0.1971 C   0  0  1  0  0  0  0  0  0  0  0  0
   -0.1712   -0.3312   -0.5718 O   0  0  0  0  0  0  0  0  0  0  0  0
   -2.1428    0.9981   -1.0742 C   0  0  2  0  0  0  0  0  0  0  0  0
   -1.3060    0.8449    1.5171 Cl  0  0  0  0  0  0  0  0  0  0  0  0
    1.1871   -0.4626   -0.1148 C   0  0  1  0  0  0  0  0  0  0  0  0
   -2.8194    2.1638   -0.8081 F   0  0  0  0  0  0  0  0  0  0  0  0
   -2.9983   -0.0596   -0.8680 F   0  0  0  0  0  0  0  0  0  0  0  0
   -1.8016    1.0138   -2.4065 F   0  0  0  0  0  0  0  0  0  0  0  0
    1.6231   -1.7155   -0.4645 F   0  0  0  0  0  0  0  0  0  0  0  0
    2.0172    0.4545   -0.7131 F   0  0  0  0  0  0  0  0  0  0  0  0
   -0.2520    1.7590   -0.3753 H   0  0  0  0  0  0  0  0  0  0  0  0
    1.2623   -0.3722    0.9698 H   0  0  0  0  0  0  0  0  0  0  0  0
  1  2  1  0  0  0  0 
  1  3  1  0  0  0  0 
  1  4  1  0  0  0  0 
  2  5  1  0  0  0  0 
  3  6  1  0  0  0  0 
  3  7  1  0  0  0  0 
  3  8  1  0  0  0  0 
  5  9  1  0  0  0  0 
  5 10  1  0  0  0  0 
  1 11  1  0  0  0  0 
  5 12  1  0  0  0  0 
M  END
> <cdk:Title>
isoflurane

> <Conformer>
1

> <SuperDrugID>
SD001323

$$$$
