neticonazole
  CDK     0628171801

 43 44  0  0  0  0  0  0  0  0999 V2000
   -0.9169    2.1341   -1.6029 C   0  0  0  0  0  0  0  0  0  0  0  0
    0.0104    1.3379   -2.1820 C   0  0  0  0  0  0  0  0  0  0  0  0
   -0.5373    3.2927   -0.9064 C   0  0  0  0  0  0  0  0  0  0  0  0
   -2.2444    1.8341   -1.6795 N   0  0  0  0  0  0  0  0  0  0  0  0
    1.7249    1.5815   -2.1428 S   0  0  0  0  0  0  0  0  0  0  0  0
    0.0483    4.4072   -1.5619 C   0  0  0  0  0  0  0  0  0  0  0  0
   -0.7777    3.3767    0.4855 C   0  0  0  0  0  0  0  0  0  0  0  0
   -2.8266    0.6209   -1.8161 C   0  0  0  0  0  0  0  0  0  0  0  0
   -3.2780    2.7099   -1.6340 C   0  0  0  0  0  0  0  0  0  0  0  0
    2.2980    0.6008   -0.7197 C   0  0  0  0  0  0  0  0  0  0  0  0
    0.2817    4.3854   -2.9089 O   0  0  0  0  0  0  0  0  0  0  0  0
    0.4008    5.5625   -0.8318 C   0  0  0  0  0  0  0  0  0  0  0  0
   -0.4420    4.5381    1.2047 C   0  0  0  0  0  0  0  0  0  0  0  0
   -4.2022    0.7907   -1.8459 C   0  0  0  0  0  0  0  0  0  0  0  0
   -4.4673    2.0965   -1.7366 N   0  0  0  0  0  0  0  0  0  0  0  0
   -0.7711    5.0105   -3.6650 C   0  0  2  0  0  0  0  0  0  0  0  0
    0.1536    5.6289    0.5489 C   0  0  0  0  0  0  0  0  0  0  0  0
   -0.3127    5.0883   -5.1355 C   0  0  1  0  0  0  0  0  0  0  0  0
   -1.3113    5.8689   -6.0293 C   0  0  1  0  0  0  0  0  0  0  0  0
   -0.7584    6.1113   -7.4589 C   0  0  2  0  0  0  0  0  0  0  0  0
   -1.6906    7.0022   -8.3090 C   0  0  0  0  0  0  0  0  0  0  0  0
   -0.2795    0.5298   -2.6790 H   0  0  0  0  0  0  0  0  0  0  0  0
   -1.2040    2.5922    0.9867 H   0  0  0  0  0  0  0  0  0  0  0  0
   -2.3572   -0.2850   -1.8790 H   0  0  0  0  0  0  0  0  0  0  0  0
   -3.1887    3.7227   -1.5405 H   0  0  0  0  0  0  0  0  0  0  0  0
    3.3786    0.7119   -0.6275 H   0  0  0  0  0  0  0  0  0  0  0  0
    1.8218    0.9611    0.1918 H   0  0  0  0  0  0  0  0  0  0  0  0
    2.0493   -0.4506   -0.8693 H   0  0  0  0  0  0  0  0  0  0  0  0
    0.8267    6.3619   -1.3090 H   0  0  0  0  0  0  0  0  0  0  0  0
   -0.6297    4.5902    2.2079 H   0  0  0  0  0  0  0  0  0  0  0  0
   -4.8967    0.0469   -1.9347 H   0  0  0  0  0  0  0  0  0  0  0  0
   -0.9605    6.0249   -3.2991 H   0  0  0  0  0  0  0  0  0  0  0  0
   -1.6990    4.4332   -3.6031 H   0  0  0  0  0  0  0  0  0  0  0  0
    0.4046    6.4705    1.0736 H   0  0  0  0  0  0  0  0  0  0  0  0
    0.6615    5.5857   -5.1647 H   0  0  0  0  0  0  0  0  0  0  0  0
   -0.1908    4.0734   -5.5253 H   0  0  0  0  0  0  0  0  0  0  0  0
   -2.2512    5.3125   -6.0929 H   0  0  0  0  0  0  0  0  0  0  0  0
   -1.5227    6.8366   -5.5660 H   0  0  0  0  0  0  0  0  0  0  0  0
   -0.6241    5.1508   -7.9656 H   0  0  0  0  0  0  0  0  0  0  0  0
    0.2177    6.6034   -7.3949 H   0  0  0  0  0  0  0  0  0  0  0  0
   -1.2443    7.1750   -9.2901 H   0  0  0  0  0  0  0  0  0  0  0  0
   -2.6582    6.5163   -8.4432 H   0  0  0  0  0  0  0  0  0  0  0  0
   -1.8386    7.9673   -7.8192 H   0  0  0  0  0  0  0  0  0  0  0  0
  1  2  2  0  0  0  0 
  1  3  1  0  0  0  0 
  1  4  1  0  0  0  0 
  2  5  1  0  0  0  0 
  3  6  2  0  0  0  0 
  3  7  1  0  0  0  0 
  4  8  1  0  0  0  0 
  4  9  1  0  0  0  0 
  5 10  1  0  0  0  0 
  6 11  1  0  0  0  0 
  6 12  1  0  0  0  0 
  7 13  2  0  0  0  0 
  8 14  2  0  0  0  0 
  9 15  2  0  0  0  0 
 11 16  1  0  0  0  0 
 12 17  2  0  0  0  0 
 13 17  1  0  0  0  0 
 14 15  1  0  0  0  0 
 16 18  1  0  0  0  0 
 18 19  1  0  0  0  0 
 19 20  1  0  0  0  0 
 20 21  1  0  0  0  0 
  2 22  1  0  0  0  0 
  7 23  1  0  0  0  0 
  8 24  1  0  0  0  0 
  9 25  1  0  0  0  0 
 10 26  1  0  0  0  0 
 10 27  1  0  0  0  0 
 10 28  1  0  0  0  0 
 12 29  1  0  0  0  0 
 13 30  1  0  0  0  0 
 14 31  1  0  0  0  0 
 16 32  1  0  0  0  0 
 16 33  1  0  0  0  0 
 17 34  1  0  0  0  0 
 18 35  1  0  0  0  0 
 18 36  1  0  0  0  0 
 19 37  1  0  0  0  0 
 19 38  1  0  0  0  0 
 20 39  1  0  0  0  0 
 20 40  1  0  0  0  0 
 21 41  1  0  0  0  0 
 21 42  1  0  0  0  0 
 21 43  1  0  0  0  0 
M  END
> <cdk:Title>
neticonazole

> <Conformer>
1

> <SuperDrugID>
SD001697

$$$$
