clomocycline
  CDK     0628171802

 60 63  0  0  0  0  0  0  0  0999 V2000
   -4.8475    5.1329    1.6899 O   0  0  0  0  0  0  0  0  0  0  0  0
   -3.5915    4.9267    1.0262 C   0  0  1  0  0  0  0  0  0  0  0  0
   -3.5979    5.7369   -0.3150 C   0  0  2  0  0  0  0  0  0  0  0  0
   -2.5756    5.4435    1.9538 C   0  0  0  0  0  0  0  0  0  0  0  0
   -3.4397    3.4842    0.7226 C   0  0  0  0  0  0  0  0  0  0  0  0
   -2.3482    5.3678   -1.2011 C   0  0  2  0  0  0  0  0  0  0  0  0
   -3.7426    7.2638   -0.0168 C   0  0  1  0  0  0  0  0  0  0  0  0
   -2.0464    4.5883    2.8329 O   0  0  0  0  0  0  0  0  0  0  0  0
   -2.1840    6.7427    1.9717 C   0  0  0  0  0  0  0  0  0  0  0  0
   -4.1024    2.6266    1.5004 O   0  0  0  0  0  0  0  0  0  0  0  0
   -2.6522    3.0170   -0.2786 C   0  0  0  0  0  0  0  0  0  0  0  0
   -2.5166    5.8156   -2.6344 N   0  0  1  0  0  0  0  0  0  0  0  0
   -1.9433    3.9377   -1.0597 C   0  0  0  0  0  0  0  0  0  0  0  0
   -2.7161    7.7794    1.0702 C   0  0  1  0  0  0  0  0  0  0  0  0
   -1.2562    7.2015    2.8980 C   0  0  0  0  0  0  0  0  0  0  0  0
   -2.5154    1.6488   -0.5593 C   0  0  0  0  0  0  0  0  0  0  0  0
   -1.2453    6.1240   -3.3619 C   0  0  0  0  0  0  0  0  0  0  0  0
   -3.4507    5.0101   -3.4825 C   0  0  0  0  0  0  0  0  0  0  0  0
   -0.8672    3.5908   -1.6057 O   0  0  0  0  0  0  0  0  0  0  0  0
   -1.6052    8.7989    0.5343 C   0  0  2  0  0  0  0  0  0  0  0  0
   -1.4343    6.9337    4.1114 O   0  0  0  0  0  0  0  0  0  0  0  0
   -0.1560    7.9893    2.4688 C   0  0  0  0  0  0  0  0  0  0  0  0
   -2.4357    1.2335   -1.8595 N   0  0  0  0  0  0  0  0  0  0  0  0
   -2.4551    0.8080    0.3709 O   0  0  0  0  0  0  0  0  0  0  0  0
   -2.2345   10.2312    0.5359 C   0  0  0  0  0  0  0  0  0  0  0  0
   -1.2716    8.4821   -0.8171 O   0  0  0  0  0  0  0  0  0  0  0  0
   -0.2824    8.7828    1.2859 C   0  0  0  0  0  0  0  0  0  0  0  0
    1.0736    7.9522    3.1829 C   0  0  0  0  0  0  0  0  0  0  0  0
   -2.2559   -0.1037   -2.3111 C   0  0  1  0  0  0  0  0  0  0  0  0
    0.8749    9.4992    0.8382 C   0  0  0  0  0  0  0  0  0  0  0  0
    1.2831    7.2037    4.2983 O   0  0  0  0  0  0  0  0  0  0  0  0
    2.1776    8.6870    2.7310 C   0  0  0  0  0  0  0  0  0  0  0  0
   -0.9585   -0.5772   -1.9611 O   0  0  0  0  0  0  0  0  0  0  0  0
    0.9684   10.4119   -0.5945 Cl  0  0  0  0  0  0  0  0  0  0  0  0
    2.0777    9.4584    1.5696 C   0  0  0  0  0  0  0  0  0  0  0  0
   -5.5269    4.7808    1.0749 H   0  0  0  0  0  0  0  0  0  0  0  0
   -4.5042    5.4437   -0.8510 H   0  0  0  0  0  0  0  0  0  0  0  0
   -1.5104    5.9106   -0.7631 H   0  0  0  0  0  0  0  0  0  0  0  0
   -3.5772    7.8094   -1.0013 H   0  0  0  0  0  0  0  0  0  0  0  0
   -4.7875    7.3814    0.4340 H   0  0  0  0  0  0  0  0  0  0  0  0
   -2.7969    4.3246    3.4061 H   0  0  0  0  0  0  0  0  0  0  0  0
   -5.0491    2.8545    1.3892 H   0  0  0  0  0  0  0  0  0  0  0  0
   -3.3449    8.3493    1.7682 H   0  0  0  0  0  0  0  0  0  0  0  0
   -0.6118    6.7928   -2.7783 H   0  0  0  0  0  0  0  0  0  0  0  0
   -1.4582    6.6271   -4.3081 H   0  0  0  0  0  0  0  0  0  0  0  0
   -0.6815    5.2137   -3.5783 H   0  0  0  0  0  0  0  0  0  0  0  0
   -4.4224    4.8802   -3.0094 H   0  0  0  0  0  0  0  0  0  0  0  0
   -3.6299    5.5160   -4.4336 H   0  0  0  0  0  0  0  0  0  0  0  0
   -3.0366    4.0214   -3.6903 H   0  0  0  0  0  0  0  0  0  0  0  0
   -2.4841    1.9142   -2.5479 H   0  0  0  0  0  0  0  0  0  0  0  0
   -3.1786   10.2337   -0.0133 H   0  0  0  0  0  0  0  0  0  0  0  0
   -2.4340   10.5600    1.5590 H   0  0  0  0  0  0  0  0  0  0  0  0
   -1.5907   10.9720    0.0708 H   0  0  0  0  0  0  0  0  0  0  0  0
   -0.7065    7.6841   -0.7619 H   0  0  0  0  0  0  0  0  0  0  0  0
   -3.0248   -0.7620   -1.8989 H   0  0  0  0  0  0  0  0  0  0  0  0
   -2.3408   -0.1133   -3.4008 H   0  0  0  0  0  0  0  0  0  0  0  0
    0.6455    6.4651    4.2510 H   0  0  0  0  0  0  0  0  0  0  0  0
    3.0668    8.6490    3.2365 H   0  0  0  0  0  0  0  0  0  0  0  0
   -0.8613   -1.4276   -2.4408 H   0  0  0  0  0  0  0  0  0  0  0  0
    2.9011    9.9849    1.2610 H   0  0  0  0  0  0  0  0  0  0  0  0
  2  1  1  0  0  0  0 
  3  2  1  0  0  0  0 
  2  4  1  0  0  0  0 
  2  5  1  0  0  0  0 
  3  6  1  0  0  0  0 
  3  7  1  0  0  0  0 
  4  8  1  0  0  0  0 
  4  9  2  0  0  0  0 
  5 10  1  0  0  0  0 
  5 11  2  0  0  0  0 
  6 12  1  0  0  0  0 
  6 13  1  0  0  0  0 
 14  7  1  0  0  0  0 
 14  9  1  0  0  0  0 
  9 15  1  0  0  0  0 
 11 13  1  0  0  0  0 
 11 16  1  0  0  0  0 
 12 17  1  0  0  0  0 
 12 18  1  0  0  0  0 
 13 19  2  0  0  0  0 
 14 20  1  0  0  0  0 
 15 21  2  0  0  0  0 
 15 22  1  0  0  0  0 
 16 23  1  0  0  0  0 
 16 24  2  0  0  0  0 
 20 25  1  0  0  0  0 
 20 26  1  0  0  0  0 
 20 27  1  0  0  0  0 
 22 27  2  0  0  0  0 
 22 28  1  0  0  0  0 
 23 29  1  0  0  0  0 
 27 30  1  0  0  0  0 
 28 31  1  0  0  0  0 
 28 32  2  0  0  0  0 
 29 33  1  0  0  0  0 
 30 34  1  0  0  0  0 
 30 35  2  0  0  0  0 
 32 35  1  0  0  0  0 
 36  1  1  0  0  0  0 
  3 37  1  0  0  0  0 
  6 38  1  0  0  0  0 
 39  7  1  0  0  0  0 
 40  7  1  0  0  0  0 
 41  8  1  0  0  0  0 
 42 10  1  0  0  0  0 
 14 43  1  0  0  0  0 
 44 17  1  0  0  0  0 
 45 17  1  0  0  0  0 
 46 17  1  0  0  0  0 
 47 18  1  0  0  0  0 
 48 18  1  0  0  0  0 
 49 18  1  0  0  0  0 
 50 23  1  0  0  0  0 
 51 25  1  0  0  0  0 
 52 25  1  0  0  0  0 
 53 25  1  0  0  0  0 
 54 26  1  0  0  0  0 
 55 29  1  0  0  0  0 
 56 29  1  0  0  0  0 
 57 31  1  0  0  0  0 
 58 32  1  0  0  0  0 
 59 33  1  0  0  0  0 
 60 35  1  0  0  0  0 
M  END
> <cdk:Title>
clomocycline

> <Conformer>
1

> <SuperDrugID>
SD000619

$$$$
