daunorubicin
  CDK     0628171802

 67 71  0  0  0  0  0  0  0  0999 V2000
   -7.2915   10.9186   -4.7457 O   0  0  0  0  0  0  0  0  0  0  0  0
   -8.0178   10.3600   -3.7341 C   0  0  0  0  0  0  0  0  0  0  0  0
   -7.3032    9.8536   -2.6211 C   0  0  0  0  0  0  0  0  0  0  0  0
   -9.4389   10.3191   -3.7831 C   0  0  0  0  0  0  0  0  0  0  0  0
   -7.9989    9.1562   -1.5969 C   0  0  0  0  0  0  0  0  0  0  0  0
   -5.8278   10.0861   -2.5342 C   0  0  1  0  0  0  0  0  0  0  0  0
  -10.1514    9.7117   -2.7097 C   0  0  0  0  0  0  0  0  0  0  0  0
  -10.1751   10.9064   -4.8650 C   0  0  0  0  0  0  0  0  0  0  0  0
   -7.2769    8.5536   -0.4186 C   0  0  1  0  0  0  0  0  0  0  0  0
   -9.4148    9.0942   -1.6591 C   0  0  0  0  0  0  0  0  0  0  0  0
   -5.2532   10.0055   -1.0829 C   0  0  2  0  0  0  0  0  0  0  0  0
  -11.5894    9.7754   -2.7108 C   0  0  0  0  0  0  0  0  0  0  0  0
   -9.5828   11.5693   -5.7513 O   0  0  0  0  0  0  0  0  0  0  0  0
  -11.5962   10.7877   -4.9453 C   0  0  0  0  0  0  0  0  0  0  0  0
   -7.6836    7.1669   -0.2506 O   0  0  0  0  0  0  0  0  0  0  0  0
   -5.7198    8.6495   -0.4773 C   0  0  1  0  0  0  0  0  0  0  0  0
  -10.0557    8.4400   -0.6529 O   0  0  0  0  0  0  0  0  0  0  0  0
   -5.6073   11.1902   -0.2267 C   0  0  0  0  0  0  0  0  0  0  0  0
   -3.8258    9.9843   -1.1939 O   0  0  0  0  0  0  0  0  0  0  0  0
  -12.2178    9.4947   -1.6628 O   0  0  0  0  0  0  0  0  0  0  0  0
  -12.3234   10.2221   -3.8586 C   0  0  0  0  0  0  0  0  0  0  0  0
  -12.2991   11.2336   -6.0935 C   0  0  0  0  0  0  0  0  0  0  0  0
   -7.4343    6.5433    1.0377 C   0  0  1  0  0  0  0  0  0  0  0  0
   -5.0081   11.4202    1.1069 C   0  0  0  0  0  0  0  0  0  0  0  0
   -6.4262   12.0499   -0.6327 O   0  0  0  0  0  0  0  0  0  0  0  0
  -13.7450   10.1258   -3.9538 C   0  0  0  0  0  0  0  0  0  0  0  0
  -13.6935   11.1225   -6.1797 C   0  0  0  0  0  0  0  0  0  0  0  0
   -8.4465    5.3918    1.3023 C   0  0  1  0  0  0  0  0  0  0  0  0
   -6.0705    6.0717    1.1509 O   0  0  0  0  0  0  0  0  0  0  0  0
  -14.5165    9.5737   -2.9612 O   0  0  0  0  0  0  0  0  0  0  0  0
  -14.4117   10.5608   -5.1178 C   0  0  0  0  0  0  0  0  0  0  0  0
   -8.1229    4.1335    0.4539 C   0  0  2  0  0  0  0  0  0  0  0  0
   -5.7288    4.9499    0.3017 C   0  0  2  0  0  0  0  0  0  0  0  0
  -15.2257   10.5415   -2.1607 C   0  0  0  0  0  0  0  0  0  0  0  0
   -9.0126    3.0188    0.8167 N   0  0  1  0  0  0  0  0  0  0  0  0
   -6.6342    3.7251    0.6328 C   0  0  1  0  0  0  0  0  0  0  0  0
   -4.2224    4.6488    0.4721 C   0  0  0  0  0  0  0  0  0  0  0  0
   -6.4145    3.2647    1.9698 O   0  0  0  0  0  0  0  0  0  0  0  0
   -7.5914    7.2729    1.8366 H   0  0  0  0  0  0  0  0  0  0  0  0
   -7.5428   10.4305   -5.5590 H   0  0  0  0  0  0  0  0  0  0  0  0
   -5.3434    9.3472   -3.1774 H   0  0  0  0  0  0  0  0  0  0  0  0
   -5.5675   11.0701   -2.9365 H   0  0  0  0  0  0  0  0  0  0  0  0
   -7.6157    9.1373    0.4456 H   0  0  0  0  0  0  0  0  0  0  0  0
   -5.3291    8.5927    0.5892 H   0  0  0  0  0  0  0  0  0  0  0  0
   -5.3664    7.8308   -1.1862 H   0  0  0  0  0  0  0  0  0  0  0  0
  -10.7898    7.9519   -1.0811 H   0  0  0  0  0  0  0  0  0  0  0  0
   -3.6163    9.2012   -1.7420 H   0  0  0  0  0  0  0  0  0  0  0  0
  -11.8025   11.6434   -6.8890 H   0  0  0  0  0  0  0  0  0  0  0  0
   -3.9218   11.3356    1.0576 H   0  0  0  0  0  0  0  0  0  0  0  0
   -5.3923   10.6898    1.8212 H   0  0  0  0  0  0  0  0  0  0  0  0
   -5.2475   12.4196    1.4785 H   0  0  0  0  0  0  0  0  0  0  0  0
  -14.1805   11.4444   -7.0183 H   0  0  0  0  0  0  0  0  0  0  0  0
   -8.4120    5.1236    2.3626 H   0  0  0  0  0  0  0  0  0  0  0  0
   -9.4599    5.7358    1.0868 H   0  0  0  0  0  0  0  0  0  0  0  0
  -15.4272   10.4655   -5.1949 H   0  0  0  0  0  0  0  0  0  0  0  0
   -8.3064    4.3626   -0.6005 H   0  0  0  0  0  0  0  0  0  0  0  0
   -5.8802    5.2199   -0.7496 H   0  0  0  0  0  0  0  0  0  0  0  0
  -15.7630   10.0055   -1.3771 H   0  0  0  0  0  0  0  0  0  0  0  0
  -14.5411   11.2473   -1.6816 H   0  0  0  0  0  0  0  0  0  0  0  0
  -15.9595   11.0959   -2.7540 H   0  0  0  0  0  0  0  0  0  0  0  0
   -9.9712    3.3102    0.6130 H   0  0  0  0  0  0  0  0  0  0  0  0
   -8.7953    2.2416    0.1882 H   0  0  0  0  0  0  0  0  0  0  0  0
   -6.4080    2.9000   -0.0503 H   0  0  0  0  0  0  0  0  0  0  0  0
   -3.9434    3.7462   -0.0755 H   0  0  0  0  0  0  0  0  0  0  0  0
   -3.6346    5.4830    0.0855 H   0  0  0  0  0  0  0  0  0  0  0  0
   -3.9752    4.5139    1.5256 H   0  0  0  0  0  0  0  0  0  0  0  0
   -5.4910    2.9378    1.9833 H   0  0  0  0  0  0  0  0  0  0  0  0
  1  2  1  0  0  0  0 
  2  3  2  0  0  0  0 
  2  4  1  0  0  0  0 
  3  5  1  0  0  0  0 
  3  6  1  0  0  0  0 
  4  7  2  0  0  0  0 
  4  8  1  0  0  0  0 
  9  5  1  0  0  0  0 
  5 10  2  0  0  0  0 
 11  6  1  0  0  0  0 
  7 10  1  0  0  0  0 
  7 12  1  0  0  0  0 
  8 13  2  0  0  0  0 
  8 14  1  0  0  0  0 
  9 15  1  0  0  0  0 
  9 16  1  0  0  0  0 
 10 17  1  0  0  0  0 
 11 16  1  0  0  0  0 
 11 18  1  0  0  0  0 
 11 19  1  0  0  0  0 
 12 20  2  0  0  0  0 
 12 21  1  0  0  0  0 
 14 21  2  0  0  0  0 
 14 22  1  0  0  0  0 
 23 15  1  0  0  0  0 
 18 24  1  0  0  0  0 
 18 25  2  0  0  0  0 
 21 26  1  0  0  0  0 
 22 27  2  0  0  0  0 
 23 28  1  0  0  0  0 
 23 29  1  0  0  0  0 
 23 39  1  0  0  0  0 
 26 30  1  0  0  0  0 
 26 31  2  0  0  0  0 
 27 31  1  0  0  0  0 
 32 28  1  0  0  0  0 
 33 29  1  0  0  0  0 
 30 34  1  0  0  0  0 
 32 35  1  0  0  0  0 
 36 32  1  0  0  0  0 
 36 33  1  0  0  0  0 
 33 37  1  0  0  0  0 
 36 38  1  0  0  0  0 
  1 40  1  0  0  0  0 
  6 41  1  0  0  0  0 
  6 42  1  0  0  0  0 
  9 43  1  0  0  0  0 
 16 44  1  0  0  0  0 
 16 45  1  0  0  0  0 
 17 46  1  0  0  0  0 
 19 47  1  0  0  0  0 
 22 48  1  0  0  0  0 
 24 49  1  0  0  0  0 
 24 50  1  0  0  0  0 
 24 51  1  0  0  0  0 
 27 52  1  0  0  0  0 
 28 53  1  0  0  0  0 
 28 54  1  0  0  0  0 
 31 55  1  0  0  0  0 
 32 56  1  0  0  0  0 
 33 57  1  0  0  0  0 
 34 58  1  0  0  0  0 
 34 59  1  0  0  0  0 
 34 60  1  0  0  0  0 
 35 61  1  0  0  0  0 
 35 62  1  0  0  0  0 
 36 63  1  0  0  0  0 
 37 64  1  0  0  0  0 
 37 65  1  0  0  0  0 
 37 66  1  0  0  0  0 
 38 67  1  0  0  0  0 
M  END
> <cdk:Title>
daunorubicin

> <Conformer>
1

> <SuperDrugID>
SD000693

$$$$
