carpipramine
  CDK     0628171802

 71 75  0  0  0  0  0  0  0  0999 V2000
    1.1135    1.1000    5.3547 C   0  0  0  0  0  0  0  0  0  0  0  0
    1.0381    1.4926    4.0676 N   0  0  0  0  0  0  0  0  0  0  0  0
    2.1170    0.4098    5.6500 O   0  0  0  0  0  0  0  0  0  0  0  0
    0.1125    1.4650    6.4182 C   0  0  1  0  0  0  0  0  0  0  0  0
   -1.0867    2.3472    5.9048 C   0  0  1  0  0  0  0  0  0  0  0  0
   -0.5346    0.1245    6.9135 C   0  0  2  0  0  0  0  0  0  0  0  0
    0.9245    2.1837    7.4948 N   0  0  2  0  0  0  0  0  0  0  0  0
   -2.0773    1.6420    4.9276 C   0  0  1  0  0  0  0  0  0  0  0  0
   -1.3833   -0.6163    5.7562 C   0  0  2  0  0  0  0  0  0  0  0  0
    0.4355    2.1787    8.9186 C   0  0  2  0  0  0  0  0  0  0  0  0
    1.4905    3.5268    7.1115 C   0  0  1  0  0  0  0  0  0  0  0  0
   -2.5244    0.2827    5.3794 N   0  0  2  0  0  0  0  0  0  0  0  0
    1.5285    2.6277    9.9217 C   0  0  2  0  0  0  0  0  0  0  0  0
    2.6275    3.9769    8.0588 C   0  0  1  0  0  0  0  0  0  0  0  0
   -3.4750   -0.3954    4.4361 C   0  0  1  0  0  0  0  0  0  0  0  0
    2.1615    3.9824    9.5327 C   0  0  1  0  0  0  0  0  0  0  0  0
   -4.8404    0.3171    4.2479 C   0  0  2  0  0  0  0  0  0  0  0  0
   -5.8714   -0.5956    3.5217 C   0  0  1  0  0  0  0  0  0  0  0  0
   -7.1510    0.0265    3.2111 N   0  0  0  0  0  0  0  0  0  0  0  0
   -7.7183   -0.0966    1.9475 C   0  0  0  0  0  0  0  0  0  0  0  0
   -7.8301    0.6769    4.2207 C   0  0  0  0  0  0  0  0  0  0  0  0
   -8.3020    0.9908    1.2230 C   0  0  0  0  0  0  0  0  0  0  0  0
   -7.7346   -1.3914    1.3555 C   0  0  0  0  0  0  0  0  0  0  0  0
   -8.0512    2.0775    4.1651 C   0  0  0  0  0  0  0  0  0  0  0  0
   -8.2737   -0.0469    5.3534 C   0  0  0  0  0  0  0  0  0  0  0  0
   -8.3719    2.4156    1.6879 C   0  0  2  0  0  0  0  0  0  0  0  0
   -8.8811    0.7258   -0.0463 C   0  0  0  0  0  0  0  0  0  0  0  0
   -8.2841   -1.6205    0.0844 C   0  0  0  0  0  0  0  0  0  0  0  0
   -7.6133    2.8436    2.9706 C   0  0  1  0  0  0  0  0  0  0  0  0
   -8.6764    2.7268    5.2573 C   0  0  0  0  0  0  0  0  0  0  0  0
   -8.9029    0.6069    6.4275 C   0  0  0  0  0  0  0  0  0  0  0  0
   -8.8677   -0.5581   -0.6156 C   0  0  0  0  0  0  0  0  0  0  0  0
   -9.0982    1.9965    6.3819 C   0  0  0  0  0  0  0  0  0  0  0  0
    0.2936    2.0303    3.7614 H   0  0  0  0  0  0  0  0  0  0  0  0
    1.7334    1.2388    3.4402 H   0  0  0  0  0  0  0  0  0  0  0  0
   -1.6564    2.6843    6.7755 H   0  0  0  0  0  0  0  0  0  0  0  0
   -0.7155    3.2456    5.4040 H   0  0  0  0  0  0  0  0  0  0  0  0
   -1.2376    0.3096    7.7297 H   0  0  0  0  0  0  0  0  0  0  0  0
    0.2278   -0.5623    7.2880 H   0  0  0  0  0  0  0  0  0  0  0  0
   -2.9482    2.2971    4.8406 H   0  0  0  0  0  0  0  0  0  0  0  0
   -1.6332    1.5746    3.9322 H   0  0  0  0  0  0  0  0  0  0  0  0
   -1.8158   -1.6075    6.0742 H   0  0  0  0  0  0  0  0  0  0  0  0
   -0.8219   -0.8587    4.8138 H   0  0  0  0  0  0  0  0  0  0  0  0
    0.1642    1.1733    9.2408 H   0  0  0  0  0  0  0  0  0  0  0  0
   -0.4449    2.8209    9.0164 H   0  0  0  0  0  0  0  0  0  0  0  0
    1.9115    3.5004    6.1048 H   0  0  0  0  0  0  0  0  0  0  0  0
    0.7011    4.2843    7.1224 H   0  0  0  0  0  0  0  0  0  0  0  0
    2.3113    1.8633    9.9526 H   0  0  0  0  0  0  0  0  0  0  0  0
    1.0970    2.7091   10.9235 H   0  0  0  0  0  0  0  0  0  0  0  0
    3.4794    3.2997    7.9470 H   0  0  0  0  0  0  0  0  0  0  0  0
    2.9515    4.9832    7.7803 H   0  0  0  0  0  0  0  0  0  0  0  0
   -3.0007   -0.5317    3.4595 H   0  0  0  0  0  0  0  0  0  0  0  0
   -3.7001   -1.3901    4.8300 H   0  0  0  0  0  0  0  0  0  0  0  0
    1.4346    4.7855    9.6869 H   0  0  0  0  0  0  0  0  0  0  0  0
    3.0206    4.1716   10.1824 H   0  0  0  0  0  0  0  0  0  0  0  0
   -4.6979    1.2249    3.6604 H   0  0  0  0  0  0  0  0  0  0  0  0
   -5.2299    0.6006    5.2283 H   0  0  0  0  0  0  0  0  0  0  0  0
   -5.3860   -0.9498    2.6062 H   0  0  0  0  0  0  0  0  0  0  0  0
   -6.0599   -1.4788    4.1400 H   0  0  0  0  0  0  0  0  0  0  0  0
   -7.3506   -2.1984    1.8552 H   0  0  0  0  0  0  0  0  0  0  0  0
   -8.1329   -1.0587    5.4029 H   0  0  0  0  0  0  0  0  0  0  0  0
   -9.4296    2.6653    1.8232 H   0  0  0  0  0  0  0  0  0  0  0  0
   -7.9851    3.0549    0.8868 H   0  0  0  0  0  0  0  0  0  0  0  0
   -9.3300    1.4762   -0.5756 H   0  0  0  0  0  0  0  0  0  0  0  0
   -8.2647   -2.5582   -0.3252 H   0  0  0  0  0  0  0  0  0  0  0  0
   -7.7842    3.9150    3.1168 H   0  0  0  0  0  0  0  0  0  0  0  0
   -6.5368    2.7205    2.8268 H   0  0  0  0  0  0  0  0  0  0  0  0
   -8.8302    3.7376    5.2454 H   0  0  0  0  0  0  0  0  0  0  0  0
   -9.2120    0.0724    7.2425 H   0  0  0  0  0  0  0  0  0  0  0  0
   -9.2836   -0.7219   -1.5355 H   0  0  0  0  0  0  0  0  0  0  0  0
   -9.5487    2.4737    7.1664 H   0  0  0  0  0  0  0  0  0  0  0  0
  1  2  1  0  0  0  0 
  1  3  2  0  0  0  0 
  1  4  1  0  0  0  0 
  4  5  1  0  0  0  0 
  4  6  1  0  0  0  0 
  4  7  1  0  0  0  0 
  5  8  1  0  0  0  0 
  6  9  1  0  0  0  0 
  7 10  1  0  0  0  0 
  7 11  1  0  0  0  0 
  8 12  1  0  0  0  0 
  9 12  1  0  0  0  0 
 10 13  1  0  0  0  0 
 11 14  1  0  0  0  0 
 12 15  1  0  0  0  0 
 13 16  1  0  0  0  0 
 14 16  1  0  0  0  0 
 15 17  1  0  0  0  0 
 17 18  1  0  0  0  0 
 18 19  1  0  0  0  0 
 19 20  1  0  0  0  0 
 19 21  1  0  0  0  0 
 20 22  2  0  0  0  0 
 20 23  1  0  0  0  0 
 21 24  2  0  0  0  0 
 21 25  1  0  0  0  0 
 22 26  1  0  0  0  0 
 22 27  1  0  0  0  0 
 23 28  2  0  0  0  0 
 24 29  1  0  0  0  0 
 24 30  1  0  0  0  0 
 25 31  2  0  0  0  0 
 26 29  1  0  0  0  0 
 27 32  2  0  0  0  0 
 28 32  1  0  0  0  0 
 30 33  2  0  0  0  0 
 31 33  1  0  0  0  0 
  2 34  1  0  0  0  0 
  2 35  1  0  0  0  0 
  5 36  1  0  0  0  0 
  5 37  1  0  0  0  0 
  6 38  1  0  0  0  0 
  6 39  1  0  0  0  0 
  8 40  1  0  0  0  0 
  8 41  1  0  0  0  0 
  9 42  1  0  0  0  0 
  9 43  1  0  0  0  0 
 10 44  1  0  0  0  0 
 10 45  1  0  0  0  0 
 11 46  1  0  0  0  0 
 11 47  1  0  0  0  0 
 13 48  1  0  0  0  0 
 13 49  1  0  0  0  0 
 14 50  1  0  0  0  0 
 14 51  1  0  0  0  0 
 15 52  1  0  0  0  0 
 15 53  1  0  0  0  0 
 16 54  1  0  0  0  0 
 16 55  1  0  0  0  0 
 17 56  1  0  0  0  0 
 17 57  1  0  0  0  0 
 18 58  1  0  0  0  0 
 18 59  1  0  0  0  0 
 23 60  1  0  0  0  0 
 25 61  1  0  0  0  0 
 26 62  1  0  0  0  0 
 26 63  1  0  0  0  0 
 27 64  1  0  0  0  0 
 28 65  1  0  0  0  0 
 29 66  1  0  0  0  0 
 29 67  1  0  0  0  0 
 30 68  1  0  0  0  0 
 31 69  1  0  0  0  0 
 32 70  1  0  0  0  0 
 33 71  1  0  0  0  0 
M  END
> <cdk:Title>
carpipramine

> <Conformer>
1

> <SuperDrugID>
SD000447

$$$$
