astromicin
  CDK     0628171801

 63 64  0  0  0  0  0  0  0  0999 V2000
   -9.0379   18.6688    4.5267 N   0  0  0  0  0  0  0  0  0  0  0  0
   -9.7791   19.1429    5.6139 C   0  0  0  0  0  0  0  0  0  0  0  0
   -7.9545   19.4875    4.0252 C   0  0  0  0  0  0  0  0  0  0  0  0
   -9.3910   17.3682    3.9097 C   0  0  2  0  0  0  0  0  0  0  0  0
   -9.9508   20.5744    5.9908 C   0  0  2  0  0  0  0  0  0  0  0  0
  -10.4079   18.3311    6.3392 O   0  0  0  0  0  0  0  0  0  0  0  0
   -8.3513   16.6264    2.9815 C   0  0  1  0  0  0  0  0  0  0  0  0
  -10.7627   17.4235    3.1456 C   0  0  1  0  0  0  0  0  0  0  0  0
   -9.0841   20.8371    7.1826 N   0  0  2  0  0  0  0  0  0  0  0  0
   -8.7426   15.2446    2.7582 O   0  0  0  0  0  0  0  0  0  0  0  0
   -8.2366   17.2718    1.5631 C   0  0  1  0  0  0  0  0  0  0  0  0
  -11.7924   17.9303    3.9883 O   0  0  0  0  0  0  0  0  0  0  0  0
  -10.6410   18.2038    1.7982 C   0  0  1  0  0  0  0  0  0  0  0  0
   -8.3942   14.2758    3.7643 C   0  0  0  0  0  0  0  0  0  0  0  0
   -7.3801   16.4745    0.7428 O   0  0  0  0  0  0  0  0  0  0  0  0
   -9.6217   17.4579    0.8776 C   0  0  1  0  0  0  0  0  0  0  0  0
  -11.8876   18.2864    1.0658 O   0  0  0  0  0  0  0  0  0  0  0  0
   -9.4521   18.1672   -0.3994 N   0  0  2  0  0  0  0  0  0  0  0  0
  -12.8372   19.3296    1.4105 C   0  0  1  0  0  0  0  0  0  0  0  0
  -12.2845   20.6641    1.3908 O   0  0  0  0  0  0  0  0  0  0  0  0
  -14.0730   19.2418    0.4721 C   0  0  2  0  0  0  0  0  0  0  0  0
  -11.8591   21.1478    0.0966 C   0  0  2  0  0  0  0  0  0  0  0  0
  -14.5788   17.8635    0.4150 N   0  0  2  0  0  0  0  0  0  0  0  0
  -13.7270   19.7531   -0.9511 C   0  0  1  0  0  0  0  0  0  0  0  0
  -11.1851   22.5401    0.2841 C   0  0  2  0  0  0  0  0  0  0  0  0
  -13.0639   21.1528   -0.8932 C   0  0  2  0  0  0  0  0  0  0  0  0
   -9.9782   22.4834    1.2602 C   0  0  0  0  0  0  0  0  0  0  0  0
  -12.1477   23.5515    0.7528 N   0  0  2  0  0  0  0  0  0  0  0  0
  -13.2083   19.1730    2.4219 H   0  0  0  0  0  0  0  0  0  0  0  0
  -11.0973   20.4750   -0.3108 H   0  0  0  0  0  0  0  0  0  0  0  0
   -8.2648   20.0007    3.1148 H   0  0  0  0  0  0  0  0  0  0  0  0
   -7.6264   20.2466    4.7390 H   0  0  0  0  0  0  0  0  0  0  0  0
   -7.0631   18.8968    3.8288 H   0  0  0  0  0  0  0  0  0  0  0  0
   -9.5318   16.6800    4.7442 H   0  0  0  0  0  0  0  0  0  0  0  0
  -11.0082   20.6812    6.3906 H   0  0  0  0  0  0  0  0  0  0  0  0
   -9.7170   21.2303    5.0556 H   0  0  0  0  0  0  0  0  0  0  0  0
   -7.3579   16.6434    3.4389 H   0  0  0  0  0  0  0  0  0  0  0  0
  -11.0806   16.4011    2.9174 H   0  0  0  0  0  0  0  0  0  0  0  0
   -9.3955   21.7228    7.5834 H   0  0  0  0  0  0  0  0  0  0  0  0
   -8.1356   20.9929    6.8342 H   0  0  0  0  0  0  0  0  0  0  0  0
   -7.7510   18.2436    1.6287 H   0  0  0  0  0  0  0  0  0  0  0  0
  -12.6315   17.6716    3.5553 H   0  0  0  0  0  0  0  0  0  0  0  0
  -10.2560   19.2082    1.9916 H   0  0  0  0  0  0  0  0  0  0  0  0
   -8.7625   13.3016    3.4415 H   0  0  0  0  0  0  0  0  0  0  0  0
   -8.8495   14.5020    4.7278 H   0  0  0  0  0  0  0  0  0  0  0  0
   -7.3119   14.2118    3.8787 H   0  0  0  0  0  0  0  0  0  0  0  0
   -6.5269   16.4383    1.2259 H   0  0  0  0  0  0  0  0  0  0  0  0
  -10.0248   16.4702    0.6346 H   0  0  0  0  0  0  0  0  0  0  0  0
  -10.3460   18.1078   -0.8929 H   0  0  0  0  0  0  0  0  0  0  0  0
   -8.7808   17.6303   -0.9526 H   0  0  0  0  0  0  0  0  0  0  0  0
  -14.8704   19.8700    0.8833 H   0  0  0  0  0  0  0  0  0  0  0  0
  -15.4478   17.8857   -0.1227 H   0  0  0  0  0  0  0  0  0  0  0  0
  -14.8252   17.5975    1.3711 H   0  0  0  0  0  0  0  0  0  0  0  0
  -13.0487   19.0488   -1.4414 H   0  0  0  0  0  0  0  0  0  0  0  0
  -14.6408   19.8056   -1.5499 H   0  0  0  0  0  0  0  0  0  0  0  0
  -10.8064   22.8759   -0.6852 H   0  0  0  0  0  0  0  0  0  0  0  0
  -12.7280   21.4372   -1.8935 H   0  0  0  0  0  0  0  0  0  0  0  0
  -13.8131   21.8790   -0.5690 H   0  0  0  0  0  0  0  0  0  0  0  0
   -9.4581   23.4426    1.2758 H   0  0  0  0  0  0  0  0  0  0  0  0
  -10.3043   22.2545    2.2766 H   0  0  0  0  0  0  0  0  0  0  0  0
   -9.2666   21.7179    0.9443 H   0  0  0  0  0  0  0  0  0  0  0  0
  -11.6291   24.4247    0.8757 H   0  0  0  0  0  0  0  0  0  0  0  0
  -12.4730   23.2600    1.6776 H   0  0  0  0  0  0  0  0  0  0  0  0
  1  2  1  0  0  0  0 
  1  3  1  0  0  0  0 
  2  5  1  0  0  0  0 
  2  6  2  0  0  0  0 
  4  1  1  0  0  0  0 
  4  7  1  0  0  0  0 
  8  4  1  0  0  0  0 
  5  9  1  0  0  0  0 
  7 10  1  0  0  0  0 
 11  7  1  0  0  0  0 
  8 12  1  0  0  0  0 
 13  8  1  0  0  0  0 
 10 14  1  0  0  0  0 
 11 15  1  0  0  0  0 
 16 11  1  0  0  0  0 
 13 16  1  0  0  0  0 
 13 17  1  0  0  0  0 
 16 18  1  0  0  0  0 
 19 17  1  0  0  0  0 
 19 20  1  0  0  0  0 
 21 19  1  0  0  0  0 
 19 29  1  0  0  0  0 
 22 20  1  0  0  0  0 
 21 23  1  0  0  0  0 
 21 24  1  0  0  0  0 
 25 22  1  0  0  0  0 
 22 26  1  0  0  0  0 
 22 30  1  0  0  0  0 
 24 26  1  0  0  0  0 
 25 27  1  0  0  0  0 
 25 28  1  0  0  0  0 
  3 31  1  0  0  0  0 
  3 32  1  0  0  0  0 
  3 33  1  0  0  0  0 
  4 34  1  0  0  0  0 
  5 35  1  0  0  0  0 
  5 36  1  0  0  0  0 
  7 37  1  0  0  0  0 
  8 38  1  0  0  0  0 
  9 39  1  0  0  0  0 
  9 40  1  0  0  0  0 
 11 41  1  0  0  0  0 
 12 42  1  0  0  0  0 
 13 43  1  0  0  0  0 
 14 44  1  0  0  0  0 
 14 45  1  0  0  0  0 
 14 46  1  0  0  0  0 
 15 47  1  0  0  0  0 
 16 48  1  0  0  0  0 
 18 49  1  0  0  0  0 
 18 50  1  0  0  0  0 
 21 51  1  0  0  0  0 
 23 52  1  0  0  0  0 
 23 53  1  0  0  0  0 
 24 54  1  0  0  0  0 
 24 55  1  0  0  0  0 
 25 56  1  0  0  0  0 
 26 57  1  0  0  0  0 
 26 58  1  0  0  0  0 
 27 59  1  0  0  0  0 
 27 60  1  0  0  0  0 
 27 61  1  0  0  0  0 
 28 62  1  0  0  0  0 
 28 63  1  0  0  0  0 
M  END
> <cdk:Title>
astromicin

> <Conformer>
1

> <SuperDrugID>
SD000207

$$$$
