mesna
  CDK     0628171801

 13 12  0  0  0  0  0  0  0  0999 V2000
   -2.3708   -1.6518    3.4180 O   0  0  0  0  0  0  0  0  0  0  0  0
   -1.4090   -1.8891    2.0242 S   0  0  2  0  0  0  0  0  0  0  0  0
   -2.3844   -1.9586    0.7552 O   0  0  0  0  0  0  0  0  0  0  0  0
   -0.6149   -3.2706    2.1852 O   0  0  0  0  0  0  0  0  0  0  0  0
   -0.2445   -0.4891    1.8539 C   0  0  1  0  0  0  0  0  0  0  0  0
    0.6493   -0.6293    0.6022 C   0  0  1  0  0  0  0  0  0  0  0  0
    1.7762    0.7777    0.4868 S   0  0  0  0  0  0  0  0  0  0  0  0
   -1.7325   -1.6233    4.1615 H   0  0  0  0  0  0  0  0  0  0  0  0
   -0.8259    0.4336    1.7897 H   0  0  0  0  0  0  0  0  0  0  0  0
    0.3799   -0.4493    2.7498 H   0  0  0  0  0  0  0  0  0  0  0  0
    1.2444   -1.5443    0.6555 H   0  0  0  0  0  0  0  0  0  0  0  0
    0.0394   -0.6577   -0.3042 H   0  0  0  0  0  0  0  0  0  0  0  0
    2.3584    0.3285   -0.6579 H   0  0  0  0  0  0  0  0  0  0  0  0
  1  2  1  0  0  0  0 
  2  3  2  0  0  0  0 
  2  4  2  0  0  0  0 
  2  5  1  0  0  0  0 
  5  6  1  0  0  0  0 
  6  7  1  0  0  0  0 
  1  8  1  0  0  0  0 
  5  9  1  0  0  0  0 
  5 10  1  0  0  0  0 
  6 11  1  0  0  0  0 
  6 12  1  0  0  0  0 
  7 13  1  0  0  0  0 
M  END
> <cdk:Title>
mesna

> <Conformer>
1

> <SuperDrugID>
SD001514

$$$$
