carbocloral
  CDK     0628171801

 20 19  0  0  0  0  0  0  0  0999 V2000
    0.7773    1.2215   -0.9053 N   0  0  0  0  0  0  0  0  0  0  0  0
    0.1437    0.0200   -1.3591 C   0  0  2  0  0  0  0  0  0  0  0  0
    1.5800    1.3323    0.1844 C   0  0  0  0  0  0  0  0  0  0  0  0
    0.0628   -0.0534   -2.9092 C   0  0  1  0  0  0  0  0  0  0  0  0
   -1.1689    0.0050   -0.8007 O   0  0  0  0  0  0  0  0  0  0  0  0
    2.0042    2.5841    0.5203 O   0  0  0  0  0  0  0  0  0  0  0  0
    1.8975    0.3385    0.8814 O   0  0  0  0  0  0  0  0  0  0  0  0
   -0.8643    1.2826   -3.5918 Cl  0  0  0  0  0  0  0  0  0  0  0  0
    1.6650   -0.0234   -3.6424 Cl  0  0  0  0  0  0  0  0  0  0  0  0
   -0.7072   -1.5508   -3.4283 Cl  0  0  0  0  0  0  0  0  0  0  0  0
    2.8337    2.9249    1.6384 C   0  0  2  0  0  0  0  0  0  0  0  0
    2.9333    4.4537    1.7957 C   0  0  0  0  0  0  0  0  0  0  0  0
    0.5927    2.0353   -1.4021 H   0  0  0  0  0  0  0  0  0  0  0  0
    0.6697   -0.8658   -0.9927 H   0  0  0  0  0  0  0  0  0  0  0  0
   -1.0362    0.0624    0.1681 H   0  0  0  0  0  0  0  0  0  0  0  0
    3.8309    2.5029    1.4933 H   0  0  0  0  0  0  0  0  0  0  0  0
    2.4051    2.5097    2.5527 H   0  0  0  0  0  0  0  0  0  0  0  0
    3.3777    4.8962    0.9041 H   0  0  0  0  0  0  0  0  0  0  0  0
    3.5549    4.6950    2.6599 H   0  0  0  0  0  0  0  0  0  0  0  0
    1.9384    4.8784    1.9474 H   0  0  0  0  0  0  0  0  0  0  0  0
  2  1  1  0  0  0  0 
  1  3  1  0  0  0  0 
  2  4  1  0  0  0  0 
  2  5  1  0  0  0  0 
  3  6  1  0  0  0  0 
  3  7  2  0  0  0  0 
  4  8  1  0  0  0  0 
  4  9  1  0  0  0  0 
  4 10  1  0  0  0  0 
  6 11  1  0  0  0  0 
 11 12  1  0  0  0  0 
 13  1  1  0  0  0  0 
 14  2  1  0  0  0  0 
 15  5  1  0  0  0  0 
 16 11  1  0  0  0  0 
 17 11  1  0  0  0  0 
 18 12  1  0  0  0  0 
 19 12  1  0  0  0  0 
 20 12  1  0  0  0  0 
M  END
> <cdk:Title>
carbocloral

> <Conformer>
1

> <SuperDrugID>
SD003162

$$$$
