hepronicate
  CDK     0628171801

 68 70  0  0  0  0  0  0  0  0999 V2000
   -5.9590   -7.3935   -4.6585 C   0  0  2  0  0  0  0  0  0  0  0  0
   -5.8462   -6.2999   -3.5284 C   0  0  1  0  0  0  0  0  0  0  0  0
   -5.8210   -8.7984   -3.9673 C   0  0  1  0  0  0  0  0  0  0  0  0
   -4.7628   -7.1519   -5.6640 C   0  0  1  0  0  0  0  0  0  0  0  0
   -7.3381   -7.2675   -5.4267 C   0  0  1  0  0  0  0  0  0  0  0  0
   -6.1587   -4.9777   -3.9963 O   0  0  0  0  0  0  0  0  0  0  0  0
   -5.8449   -9.8892   -4.9000 O   0  0  0  0  0  0  0  0  0  0  0  0
   -4.4084   -8.2710   -6.5041 O   0  0  0  0  0  0  0  0  0  0  0  0
   -8.6394   -7.2569   -4.5596 C   0  0  1  0  0  0  0  0  0  0  0  0
   -6.1203   -3.8285   -3.2516 C   0  0  0  0  0  0  0  0  0  0  0  0
   -6.8297  -10.8022   -5.1496 C   0  0  0  0  0  0  0  0  0  0  0  0
   -3.2032   -8.9385   -6.5339 C   0  0  0  0  0  0  0  0  0  0  0  0
   -9.9129   -6.8471   -5.3485 C   0  0  1  0  0  0  0  0  0  0  0  0
   -5.6873   -3.8822   -2.0752 O   0  0  0  0  0  0  0  0  0  0  0  0
   -6.5705   -2.5988   -3.7992 C   0  0  0  0  0  0  0  0  0  0  0  0
   -7.9344  -10.7418   -4.5600 O   0  0  0  0  0  0  0  0  0  0  0  0
   -6.5952  -11.7976   -6.1230 C   0  0  0  0  0  0  0  0  0  0  0  0
   -2.3058   -8.6219   -5.7156 O   0  0  0  0  0  0  0  0  0  0  0  0
   -2.9473   -9.9815   -7.4683 C   0  0  0  0  0  0  0  0  0  0  0  0
  -11.1637   -6.7265   -4.4335 C   0  0  1  0  0  0  0  0  0  0  0  0
   -7.0876   -2.5280   -5.1161 C   0  0  0  0  0  0  0  0  0  0  0  0
   -6.5469   -1.3938   -3.0525 C   0  0  0  0  0  0  0  0  0  0  0  0
   -5.3120  -12.3693   -6.2846 C   0  0  0  0  0  0  0  0  0  0  0  0
   -7.6257  -12.2490   -6.9802 C   0  0  0  0  0  0  0  0  0  0  0  0
   -1.8157  -10.8297   -7.3400 C   0  0  0  0  0  0  0  0  0  0  0  0
   -3.8036  -10.2146   -8.5725 C   0  0  0  0  0  0  0  0  0  0  0  0
  -12.4121   -6.1591   -5.1616 C   0  0  1  0  0  0  0  0  0  0  0  0
   -7.5607   -1.3108   -5.6406 C   0  0  0  0  0  0  0  0  0  0  0  0
   -7.0127   -0.2347   -3.5824 N   0  0  0  0  0  0  0  0  0  0  0  0
   -5.0880  -13.3554   -7.2615 C   0  0  0  0  0  0  0  0  0  0  0  0
   -7.3757  -13.1969   -7.9178 N   0  0  0  0  0  0  0  0  0  0  0  0
   -1.5685  -11.8540   -8.2699 C   0  0  0  0  0  0  0  0  0  0  0  0
   -3.5308  -11.2027   -9.4642 N   0  0  0  0  0  0  0  0  0  0  0  0
  -13.6380   -6.0561   -4.2232 C   0  0  0  0  0  0  0  0  0  0  0  0
   -7.5148   -0.1586   -4.8384 C   0  0  0  0  0  0  0  0  0  0  0  0
   -6.1534  -13.7569   -8.0836 C   0  0  0  0  0  0  0  0  0  0  0  0
   -2.4499  -12.0144   -9.3508 C   0  0  0  0  0  0  0  0  0  0  0  0
   -6.5273   -6.5250   -2.7038 H   0  0  0  0  0  0  0  0  0  0  0  0
   -4.8413   -6.2926   -3.0988 H   0  0  0  0  0  0  0  0  0  0  0  0
   -4.8631   -8.8535   -3.4424 H   0  0  0  0  0  0  0  0  0  0  0  0
   -6.6026   -8.9321   -3.2151 H   0  0  0  0  0  0  0  0  0  0  0  0
   -5.0001   -6.3252   -6.3381 H   0  0  0  0  0  0  0  0  0  0  0  0
   -3.8753   -6.8308   -5.1109 H   0  0  0  0  0  0  0  0  0  0  0  0
   -7.3319   -6.3381   -6.0043 H   0  0  0  0  0  0  0  0  0  0  0  0
   -7.4144   -8.0790   -6.1577 H   0  0  0  0  0  0  0  0  0  0  0  0
   -8.7921   -8.2410   -4.1133 H   0  0  0  0  0  0  0  0  0  0  0  0
   -8.5335   -6.5361   -3.7500 H   0  0  0  0  0  0  0  0  0  0  0  0
   -9.7334   -5.8778   -5.8226 H   0  0  0  0  0  0  0  0  0  0  0  0
  -10.1028   -7.5849   -6.1313 H   0  0  0  0  0  0  0  0  0  0  0  0
  -11.4018   -7.7140   -4.0302 H   0  0  0  0  0  0  0  0  0  0  0  0
  -10.9305   -6.0676   -3.5924 H   0  0  0  0  0  0  0  0  0  0  0  0
   -7.1319   -3.3598   -5.7110 H   0  0  0  0  0  0  0  0  0  0  0  0
   -6.1837   -1.3667   -2.0985 H   0  0  0  0  0  0  0  0  0  0  0  0
   -4.5328  -12.0782   -5.6897 H   0  0  0  0  0  0  0  0  0  0  0  0
   -8.5693  -11.8626   -6.9222 H   0  0  0  0  0  0  0  0  0  0  0  0
   -1.1574  -10.7155   -6.5641 H   0  0  0  0  0  0  0  0  0  0  0  0
   -4.6373   -9.6437   -8.7256 H   0  0  0  0  0  0  0  0  0  0  0  0
  -12.1870   -5.1605   -5.5471 H   0  0  0  0  0  0  0  0  0  0  0  0
  -12.6684   -6.8012   -6.0087 H   0  0  0  0  0  0  0  0  0  0  0  0
   -7.9345   -1.2632   -6.5926 H   0  0  0  0  0  0  0  0  0  0  0  0
   -4.1625  -13.7748   -7.3701 H   0  0  0  0  0  0  0  0  0  0  0  0
   -0.7599  -12.4697   -8.1606 H   0  0  0  0  0  0  0  0  0  0  0  0
  -14.4822   -5.6111   -4.7554 H   0  0  0  0  0  0  0  0  0  0  0  0
  -13.9299   -7.0487   -3.8729 H   0  0  0  0  0  0  0  0  0  0  0  0
  -13.4045   -5.4287   -3.3588 H   0  0  0  0  0  0  0  0  0  0  0  0
   -7.8559    0.7355   -5.1946 H   0  0  0  0  0  0  0  0  0  0  0  0
   -6.0157  -14.4632   -8.8057 H   0  0  0  0  0  0  0  0  0  0  0  0
   -2.2818  -12.7389  -10.0502 H   0  0  0  0  0  0  0  0  0  0  0  0
  1  2  1  0  0  0  0 
  1  3  1  0  0  0  0 
  1  4  1  0  0  0  0 
  1  5  1  0  0  0  0 
  2  6  1  0  0  0  0 
  3  7  1  0  0  0  0 
  4  8  1  0  0  0  0 
  5  9  1  0  0  0  0 
  6 10  1  0  0  0  0 
  7 11  1  0  0  0  0 
  8 12  1  0  0  0  0 
  9 13  1  0  0  0  0 
 10 14  2  0  0  0  0 
 10 15  1  0  0  0  0 
 11 16  2  0  0  0  0 
 11 17  1  0  0  0  0 
 12 18  2  0  0  0  0 
 12 19  1  0  0  0  0 
 13 20  1  0  0  0  0 
 15 21  2  0  0  0  0 
 15 22  1  0  0  0  0 
 17 23  2  0  0  0  0 
 17 24  1  0  0  0  0 
 19 25  2  0  0  0  0 
 19 26  1  0  0  0  0 
 20 27  1  0  0  0  0 
 21 28  1  0  0  0  0 
 22 29  2  0  0  0  0 
 23 30  1  0  0  0  0 
 24 31  2  0  0  0  0 
 25 32  1  0  0  0  0 
 26 33  2  0  0  0  0 
 27 34  1  0  0  0  0 
 28 35  2  0  0  0  0 
 29 35  1  0  0  0  0 
 30 36  2  0  0  0  0 
 31 36  1  0  0  0  0 
 32 37  2  0  0  0  0 
 33 37  1  0  0  0  0 
  2 38  1  0  0  0  0 
  2 39  1  0  0  0  0 
  3 40  1  0  0  0  0 
  3 41  1  0  0  0  0 
  4 42  1  0  0  0  0 
  4 43  1  0  0  0  0 
  5 44  1  0  0  0  0 
  5 45  1  0  0  0  0 
  9 46  1  0  0  0  0 
  9 47  1  0  0  0  0 
 13 48  1  0  0  0  0 
 13 49  1  0  0  0  0 
 20 50  1  0  0  0  0 
 20 51  1  0  0  0  0 
 21 52  1  0  0  0  0 
 22 53  1  0  0  0  0 
 23 54  1  0  0  0  0 
 24 55  1  0  0  0  0 
 25 56  1  0  0  0  0 
 26 57  1  0  0  0  0 
 27 58  1  0  0  0  0 
 27 59  1  0  0  0  0 
 28 60  1  0  0  0  0 
 30 61  1  0  0  0  0 
 32 62  1  0  0  0  0 
 34 63  1  0  0  0  0 
 34 64  1  0  0  0  0 
 34 65  1  0  0  0  0 
 35 66  1  0  0  0  0 
 36 67  1  0  0  0  0 
 37 68  1  0  0  0  0 
M  END
> <cdk:Title>
hepronicate

> <Conformer>
1

> <SuperDrugID>
SD001205

$$$$
