sulfamidochrysoidine
  CDK     0628171801

 33 34  0  0  0  0  0  0  0  0999 V2000
   -2.6493    3.6043   -3.2929 N   0  0  0  0  0  0  0  0  0  0  0  0
   -2.5061    3.0155   -2.2243 N   0  0  0  0  0  0  0  0  0  0  0  0
   -3.6377    4.4276   -3.6192 C   0  0  0  0  0  0  0  0  0  0  0  0
   -1.5253    2.1842   -1.8857 C   0  0  0  0  0  0  0  0  0  0  0  0
   -4.6987    4.7718   -2.7468 C   0  0  0  0  0  0  0  0  0  0  0  0
   -3.6186    4.9872   -4.9152 C   0  0  0  0  0  0  0  0  0  0  0  0
   -1.5879    1.5391   -0.6233 C   0  0  0  0  0  0  0  0  0  0  0  0
   -0.4246    1.9099   -2.7368 C   0  0  0  0  0  0  0  0  0  0  0  0
   -5.7151    5.6482   -3.1674 C   0  0  0  0  0  0  0  0  0  0  0  0
   -4.6369    5.8622   -5.3364 C   0  0  0  0  0  0  0  0  0  0  0  0
   -2.6037    1.7711    0.2400 N   0  0  0  0  0  0  0  0  0  0  0  0
   -0.5818    0.6254   -0.2447 C   0  0  0  0  0  0  0  0  0  0  0  0
    0.5840    1.0112   -2.3467 C   0  0  0  0  0  0  0  0  0  0  0  0
   -5.6944    6.1939   -4.4660 C   0  0  0  0  0  0  0  0  0  0  0  0
    0.5032    0.3586   -1.1017 C   0  0  0  0  0  0  0  0  0  0  0  0
   -7.0030    7.2714   -4.9755 S   0  0  1  0  0  0  0  0  0  0  0  0
    1.4589   -0.5160   -0.7355 N   0  0  0  0  0  0  0  0  0  0  0  0
   -8.5244    6.3976   -4.8778 N   0  0  2  0  0  0  0  0  0  0  0  0
   -7.0912    8.5407   -3.9979 O   0  0  0  0  0  0  0  0  0  0  0  0
   -6.8066    7.7768   -6.4852 O   0  0  0  0  0  0  0  0  0  0  0  0
   -4.7409    4.3840   -1.8003 H   0  0  0  0  0  0  0  0  0  0  0  0
   -2.8622    4.7585   -5.5673 H   0  0  0  0  0  0  0  0  0  0  0  0
   -0.3479    2.3621   -3.6517 H   0  0  0  0  0  0  0  0  0  0  0  0
   -6.4708    5.8862   -2.5200 H   0  0  0  0  0  0  0  0  0  0  0  0
   -4.5990    6.2539   -6.2799 H   0  0  0  0  0  0  0  0  0  0  0  0
   -3.3263    2.3727   -0.0018 H   0  0  0  0  0  0  0  0  0  0  0  0
   -2.6160    1.3397    1.1101 H   0  0  0  0  0  0  0  0  0  0  0  0
   -0.6373    0.1489    0.6594 H   0  0  0  0  0  0  0  0  0  0  0  0
    1.3718    0.8318   -2.9758 H   0  0  0  0  0  0  0  0  0  0  0  0
    1.3867   -0.9904    0.1079 H   0  0  0  0  0  0  0  0  0  0  0  0
    2.2224   -0.6753   -1.3124 H   0  0  0  0  0  0  0  0  0  0  0  0
   -9.2599    7.0488   -5.1583 H   0  0  0  0  0  0  0  0  0  0  0  0
   -8.6780    6.1818   -3.8901 H   0  0  0  0  0  0  0  0  0  0  0  0
  1  2  2  0  0  0  0 
  1  3  1  0  0  0  0 
  2  4  1  0  0  0  0 
  3  5  2  0  0  0  0 
  3  6  1  0  0  0  0 
  4  7  2  0  0  0  0 
  4  8  1  0  0  0  0 
  5  9  1  0  0  0  0 
  6 10  2  0  0  0  0 
  7 11  1  0  0  0  0 
  7 12  1  0  0  0  0 
  8 13  2  0  0  0  0 
  9 14  2  0  0  0  0 
 10 14  1  0  0  0  0 
 12 15  2  0  0  0  0 
 13 15  1  0  0  0  0 
 14 16  1  0  0  0  0 
 15 17  1  0  0  0  0 
 16 18  1  0  0  0  0 
 16 19  2  0  0  0  0 
 16 20  2  0  0  0  0 
  5 21  1  0  0  0  0 
  6 22  1  0  0  0  0 
  8 23  1  0  0  0  0 
  9 24  1  0  0  0  0 
 10 25  1  0  0  0  0 
 11 26  1  0  0  0  0 
 11 27  1  0  0  0  0 
 12 28  1  0  0  0  0 
 13 29  1  0  0  0  0 
 17 30  1  0  0  0  0 
 17 31  1  0  0  0  0 
 18 32  1  0  0  0  0 
 18 33  1  0  0  0  0 
M  END
> <cdk:Title>
sulfamidochrysoidine

> <Conformer>
1

> <SuperDrugID>
SD003062

$$$$
