phenazocine
  CDK     0628171801

 51 54  0  0  0  0  0  0  0  0999 V2000
   -6.5955   -3.7517    0.7367 C   0  0  0  0  0  0  0  0  0  0  0  0
   -7.0567   -4.6368   -0.2493 C   0  0  0  0  0  0  0  0  0  0  0  0
   -7.0305   -4.2561   -1.5993 C   0  0  0  0  0  0  0  0  0  0  0  0
   -6.5832   -2.9688   -1.9497 C   0  0  0  0  0  0  0  0  0  0  0  0
   -6.1408   -2.0385   -0.9717 C   0  0  0  0  0  0  0  0  0  0  0  0
   -6.1059   -2.4702    0.3909 C   0  0  0  0  0  0  0  0  0  0  0  0
   -5.5614   -1.6176    1.4909 C   0  0  1  0  0  0  0  0  0  0  0  0
   -5.6546   -0.6535   -1.3657 C   0  0  2  0  0  0  0  0  0  0  0  0
   -5.7449    0.3451   -0.1424 C   0  0  2  0  0  0  0  0  0  0  0  0
   -4.9197   -0.2691    1.0308 C   0  0  2  0  0  0  0  0  0  0  0  0
   -7.4346   -5.1394   -2.5479 O   0  0  0  0  0  0  0  0  0  0  0  0
   -7.1921    0.7391    0.2984 C   0  0  0  0  0  0  0  0  0  0  0  0
   -6.4316   -0.0396   -2.5851 C   0  0  0  0  0  0  0  0  0  0  0  0
   -4.1422   -0.7726   -1.7727 C   0  0  1  0  0  0  0  0  0  0  0  0
   -3.4681   -0.3595    0.6268 N   0  0  2  0  0  0  0  0  0  0  0  0
   -3.2174   -1.1850   -0.5983 C   0  0  1  0  0  0  0  0  0  0  0  0
   -2.5040   -0.6124    1.7487 C   0  0  2  0  0  0  0  0  0  0  0  0
   -1.0903   -0.0172    1.4961 C   0  0  1  0  0  0  0  0  0  0  0  0
   -0.1744   -0.2469    2.6477 C   0  0  0  0  0  0  0  0  0  0  0  0
    1.0702    0.5756    4.5936 C   0  0  0  0  0  0  0  0  0  0  0  0
    0.2251    0.8142    3.4939 C   0  0  0  0  0  0  0  0  0  0  0  0
    0.3121   -1.5486    2.9167 C   0  0  0  0  0  0  0  0  0  0  0  0
    1.1683   -1.7876    4.0064 C   0  0  0  0  0  0  0  0  0  0  0  0
    1.5402   -0.7255    4.8496 C   0  0  0  0  0  0  0  0  0  0  0  0
   -4.9761    0.4359    1.8670 H   0  0  0  0  0  0  0  0  0  0  0  0
   -6.6092   -4.0570    1.7138 H   0  0  0  0  0  0  0  0  0  0  0  0
   -7.4027   -5.5617    0.0166 H   0  0  0  0  0  0  0  0  0  0  0  0
   -6.5769   -2.7288   -2.9412 H   0  0  0  0  0  0  0  0  0  0  0  0
   -6.3811   -1.3957    2.1813 H   0  0  0  0  0  0  0  0  0  0  0  0
   -4.8199   -2.1878    2.0551 H   0  0  0  0  0  0  0  0  0  0  0  0
   -5.2570    1.2900   -0.4171 H   0  0  0  0  0  0  0  0  0  0  0  0
   -7.2323   -4.7236   -3.4115 H   0  0  0  0  0  0  0  0  0  0  0  0
   -7.6618    1.3734   -0.4544 H   0  0  0  0  0  0  0  0  0  0  0  0
   -7.8194   -0.1409    0.4446 H   0  0  0  0  0  0  0  0  0  0  0  0
   -7.1644    1.3034    1.2334 H   0  0  0  0  0  0  0  0  0  0  0  0
   -6.1727    1.0131   -2.7233 H   0  0  0  0  0  0  0  0  0  0  0  0
   -7.5107   -0.1121   -2.4341 H   0  0  0  0  0  0  0  0  0  0  0  0
   -6.1872   -0.5490   -3.5185 H   0  0  0  0  0  0  0  0  0  0  0  0
   -4.0189   -1.4960   -2.5847 H   0  0  0  0  0  0  0  0  0  0  0  0
   -3.7871    0.1923   -2.1492 H   0  0  0  0  0  0  0  0  0  0  0  0
   -3.3519   -2.2475   -0.3746 H   0  0  0  0  0  0  0  0  0  0  0  0
   -2.1904   -1.0593   -0.9468 H   0  0  0  0  0  0  0  0  0  0  0  0
   -2.4313   -1.6890    1.9338 H   0  0  0  0  0  0  0  0  0  0  0  0
   -2.8786   -0.1495    2.6677 H   0  0  0  0  0  0  0  0  0  0  0  0
   -0.6365   -0.4666    0.6118 H   0  0  0  0  0  0  0  0  0  0  0  0
   -1.2005    1.0517    1.2890 H   0  0  0  0  0  0  0  0  0  0  0  0
    1.3438    1.3473    5.2085 H   0  0  0  0  0  0  0  0  0  0  0  0
   -0.1012    1.7665    3.3192 H   0  0  0  0  0  0  0  0  0  0  0  0
    0.0453   -2.3340    2.3165 H   0  0  0  0  0  0  0  0  0  0  0  0
    1.5183   -2.7313    4.1860 H   0  0  0  0  0  0  0  0  0  0  0  0
    2.1540   -0.9001    5.6470 H   0  0  0  0  0  0  0  0  0  0  0  0
  1  2  2  0  0  0  0 
  2  3  1  0  0  0  0 
  3  4  2  0  0  0  0 
  4  5  1  0  0  0  0 
  1  6  1  0  0  0  0 
  7  6  1  0  0  0  0 
  5  6  2  0  0  0  0 
  8  5  1  0  0  0  0 
  9  8  1  0  0  0  0 
 10  9  1  0  0  0  0 
 10  7  1  0  0  0  0 
  3 11  1  0  0  0  0 
  9 12  1  0  0  0  0 
  8 13  1  0  0  0  0 
  8 14  1  0  0  0  0 
 10 15  1  0  0  0  0 
 15 16  1  0  0  0  0 
 14 16  1  0  0  0  0 
 15 17  1  0  0  0  0 
 17 18  1  0  0  0  0 
 18 19  1  0  0  0  0 
 21 19  2  0  0  0  0 
 19 22  1  0  0  0  0 
 20 21  1  0  0  0  0 
 22 23  2  0  0  0  0 
 23 24  1  0  0  0  0 
 20 24  2  0  0  0  0 
 10 25  1  0  0  0  0 
  1 26  1  0  0  0  0 
  2 27  1  0  0  0  0 
  4 28  1  0  0  0  0 
  7 29  1  0  0  0  0 
  7 30  1  0  0  0  0 
  9 31  1  0  0  0  0 
 11 32  1  0  0  0  0 
 12 33  1  0  0  0  0 
 12 34  1  0  0  0  0 
 12 35  1  0  0  0  0 
 13 36  1  0  0  0  0 
 13 37  1  0  0  0  0 
 13 38  1  0  0  0  0 
 14 39  1  0  0  0  0 
 14 40  1  0  0  0  0 
 16 41  1  0  0  0  0 
 16 42  1  0  0  0  0 
 17 43  1  0  0  0  0 
 17 44  1  0  0  0  0 
 18 45  1  0  0  0  0 
 18 46  1  0  0  0  0 
 20 47  1  0  0  0  0 
 21 48  1  0  0  0  0 
 22 49  1  0  0  0  0 
 23 50  1  0  0  0  0 
 24 51  1  0  0  0  0 
M  END
> <cdk:Title>
phenazocine

> <Conformer>
1

> <SuperDrugID>
SD001899

$$$$
