ribavirin
  CDK     0628171801

 29 30  0  0  0  0  0  0  0  0999 V2000
    4.0898   -0.1615   -1.5386 O   0  0  0  0  0  0  0  0  0  0  0  0
    4.1121   -1.5826   -1.4081 C   0  0  1  0  0  0  0  0  0  0  0  0
    4.2721   -1.9997    0.0734 C   0  0  1  0  0  0  0  0  0  0  0  0
    2.7560   -2.2001   -1.7740 C   0  0  2  0  0  0  0  0  0  0  0  0
    2.9529   -2.2144    0.6014 O   0  0  0  0  0  0  0  0  0  0  0  0
    5.0973   -3.1657    0.2149 N   0  0  0  0  0  0  0  0  0  0  0  0
    2.1085   -1.5569   -2.8701 O   0  0  0  0  0  0  0  0  0  0  0  0
    1.9899   -2.0370   -0.4458 C   0  0  2  0  0  0  0  0  0  0  0  0
    6.3849   -3.1550    0.0700 N   0  0  0  0  0  0  0  0  0  0  0  0
    4.7175   -4.4230    0.5153 C   0  0  0  0  0  0  0  0  0  0  0  0
    0.8196   -3.0282   -0.2571 C   0  0  2  0  0  0  0  0  0  0  0  0
    6.8308   -4.4060    0.2798 C   0  0  0  0  0  0  0  0  0  0  0  0
    5.7942   -5.2152    0.5501 N   0  0  0  0  0  0  0  0  0  0  0  0
    0.2547   -2.8795    1.0422 O   0  0  0  0  0  0  0  0  0  0  0  0
    8.1752   -4.8073    0.2471 C   0  0  0  0  0  0  0  0  0  0  0  0
    9.1606   -3.9326   -0.0279 N   0  0  0  0  0  0  0  0  0  0  0  0
    8.4908   -5.9935    0.4946 O   0  0  0  0  0  0  0  0  0  0  0  0
    4.9730    0.1325   -1.2332 H   0  0  0  0  0  0  0  0  0  0  0  0
    4.9087   -1.9722   -2.0457 H   0  0  0  0  0  0  0  0  0  0  0  0
    4.7260   -1.1914    0.6547 H   0  0  0  0  0  0  0  0  0  0  0  0
    2.8908   -3.2576   -2.0195 H   0  0  0  0  0  0  0  0  0  0  0  0
    1.2599   -2.0380   -2.9763 H   0  0  0  0  0  0  0  0  0  0  0  0
    1.6020   -1.0160   -0.3740 H   0  0  0  0  0  0  0  0  0  0  0  0
    3.7618   -4.7415    0.6897 H   0  0  0  0  0  0  0  0  0  0  0  0
    1.1731   -4.0569   -0.3622 H   0  0  0  0  0  0  0  0  0  0  0  0
    0.0425   -2.8344   -1.0004 H   0  0  0  0  0  0  0  0  0  0  0  0
   -0.4432   -3.5660    1.0986 H   0  0  0  0  0  0  0  0  0  0  0  0
   10.0851   -4.2301   -0.0371 H   0  0  0  0  0  0  0  0  0  0  0  0
    8.9533   -3.0029   -0.2130 H   0  0  0  0  0  0  0  0  0  0  0  0
  2  1  1  0  0  0  0 
  2  3  1  0  0  0  0 
  4  2  1  0  0  0  0 
  3  5  1  0  0  0  0 
  3  6  1  0  0  0  0 
  4  7  1  0  0  0  0 
  8  4  1  0  0  0  0 
  8  5  1  0  0  0  0 
  6  9  1  0  0  0  0 
  6 10  1  0  0  0  0 
  8 11  1  0  0  0  0 
  9 12  2  0  0  0  0 
 10 13  2  0  0  0  0 
 11 14  1  0  0  0  0 
 12 13  1  0  0  0  0 
 12 15  1  0  0  0  0 
 15 16  1  0  0  0  0 
 15 17  2  0  0  0  0 
  1 18  1  0  0  0  0 
  2 19  1  0  0  0  0 
  3 20  1  0  0  0  0 
  4 21  1  0  0  0  0 
  7 22  1  0  0  0  0 
  8 23  1  0  0  0  0 
 10 24  1  0  0  0  0 
 11 25  1  0  0  0  0 
 11 26  1  0  0  0  0 
 14 27  1  0  0  0  0 
 16 28  1  0  0  0  0 
 16 29  1  0  0  0  0 
M  END
> <cdk:Title>
ribavirin

> <Conformer>
1

> <SuperDrugID>
SD002135

$$$$
