iodohippurate sodium I131
  CDK     0628171802

 22 22  0  0  0  0  0  0  0  0999 V2000
    0.9320    0.3146    0.3594 C   0  0  0  0  0  0  0  0  0  0  0  0
    0.0210   -0.2317   -0.4936 N   0  0  0  0  0  0  0  0  0  0  0  0
   -0.2531   -1.6244   -0.6607 C   0  0  2  0  0  0  0  0  0  0  0  0
   -1.6529   -1.8946   -0.2989 C   0  0  0  0  0  0  0  0  0  0  0  0
   -2.0765   -1.6853    0.9695 O   0  0  0  0  0  0  0  0  0  0  0  0
   -2.4664   -2.3222   -1.1485 O   0  0  0  0  0  0  0  0  0  0  0  0
    1.6255   -0.4211    1.1042 O   0  0  0  0  0  0  0  0  0  0  0  0
    1.1501    1.7135    0.3955 C   0  0  0  0  0  0  0  0  0  0  0  0
    0.0972    2.6679    0.4353 C   0  0  0  0  0  0  0  0  0  0  0  0
   -1.8961    2.1568    0.5235 I   0  0  0  0  0  0  0  0  0  0  0  0
    0.3943    4.0462    0.4583 C   0  0  0  0  0  0  0  0  0  0  0  0
    1.7285    4.4884    0.4418 C   0  0  0  0  0  0  0  0  0  0  0  0
    2.7771    3.5549    0.4142 C   0  0  0  0  0  0  0  0  0  0  0  0
    2.4890    2.1808    0.3945 C   0  0  0  0  0  0  0  0  0  0  0  0
   -0.4859    0.3785   -1.0539 H   0  0  0  0  0  0  0  0  0  0  0  0
    0.3963   -2.2627   -0.0554 H   0  0  0  0  0  0  0  0  0  0  0  0
   -0.0768   -1.8770   -1.7089 H   0  0  0  0  0  0  0  0  0  0  0  0
   -3.0075   -1.8698    1.2142 H   0  0  0  0  0  0  0  0  0  0  0  0
   -0.3617    4.7333    0.4946 H   0  0  0  0  0  0  0  0  0  0  0  0
    1.9370    5.4885    0.4523 H   0  0  0  0  0  0  0  0  0  0  0  0
    3.7493    3.8731    0.4030 H   0  0  0  0  0  0  0  0  0  0  0  0
    3.2714    1.5211    0.3665 H   0  0  0  0  0  0  0  0  0  0  0  0
  1  2  1  0  0  0  0 
  1  7  2  0  0  0  0 
  1  8  1  0  0  0  0 
  2  3  1  0  0  0  0 
  3  4  1  0  0  0  0 
  4  5  1  0  0  0  0 
  4  6  2  0  0  0  0 
  8  9  2  0  0  0  0 
  8 14  1  0  0  0  0 
  9 10  1  0  0  0  0 
  9 11  1  0  0  0  0 
 11 12  2  0  0  0  0 
 13 12  1  0  0  0  0 
 14 13  2  0  0  0  0 
  2 15  1  0  0  0  0 
  3 16  1  0  0  0  0 
  3 17  1  0  0  0  0 
  5 18  1  0  0  0  0 
 11 19  1  0  0  0  0 
 12 20  1  0  0  0  0 
 13 21  1  0  0  0  0 
 14 22  1  0  0  0  0 
M  ISO  1  10 131
M  END
> <cdk:Title>
iodohippurate sodium I131

> <Conformer>
1

> <SuperDrugID>
SD003789

$$$$
