efavirenz
  CDK     0628171802

 30 32  0  0  0  0  0  0  0  0999 V2000
    0.7955    3.6257   -3.3288 C   0  0  2  0  0  0  0  0  0  0  0  0
    2.2462    3.9942   -3.5362 C   0  0  0  0  0  0  0  0  0  0  0  0
    0.1804    3.1190   -4.5351 O   0  0  0  0  0  0  0  0  0  0  0  0
    2.8014    3.8937   -4.8425 C   0  0  0  0  0  0  0  0  0  0  0  0
    3.0876    4.4342   -2.4818 C   0  0  0  0  0  0  0  0  0  0  0  0
    0.7810    3.0515   -5.7561 C   0  0  0  0  0  0  0  0  0  0  0  0
    2.0651    3.4445   -5.8947 N   0  0  0  0  0  0  0  0  0  0  0  0
    4.1449    4.2497   -5.0769 C   0  0  0  0  0  0  0  0  0  0  0  0
    4.4316    4.7859   -2.7206 C   0  0  0  0  0  0  0  0  0  0  0  0
    0.1475    2.6184   -6.7423 O   0  0  0  0  0  0  0  0  0  0  0  0
    4.9586    4.6910   -4.0211 C   0  0  0  0  0  0  0  0  0  0  0  0
    5.4099    5.3334   -1.4519 Cl  0  0  0  0  0  0  0  0  0  0  0  0
   -0.0927    4.8286   -2.8651 C   0  0  1  0  0  0  0  0  0  0  0  0
    0.7149    2.5771   -2.4408 C   0  0  0  0  0  0  0  0  0  0  0  0
   -0.0063    5.8700   -3.7594 F   0  0  0  0  0  0  0  0  0  0  0  0
   -1.4225    4.4749   -2.7923 F   0  0  0  0  0  0  0  0  0  0  0  0
    0.2495    5.3187   -1.6260 F   0  0  0  0  0  0  0  0  0  0  0  0
    0.6531    1.6691   -1.6689 C   0  0  0  0  0  0  0  0  0  0  0  0
    0.5968    0.6285   -0.7841 C   0  0  2  0  0  0  0  0  0  0  0  0
    1.8150   -0.3054   -0.7327 C   0  0  2  0  0  0  0  0  0  0  0  0
    0.5060   -0.7875   -1.3721 C   0  0  1  0  0  0  0  0  0  0  0  0
    2.7232    4.4982   -1.5292 H   0  0  0  0  0  0  0  0  0  0  0  0
    2.4764    3.3959   -6.7732 H   0  0  0  0  0  0  0  0  0  0  0  0
    4.5385    4.1873   -6.0200 H   0  0  0  0  0  0  0  0  0  0  0  0
    5.9328    4.9412   -4.2078 H   0  0  0  0  0  0  0  0  0  0  0  0
    0.0868    0.7792    0.1696 H   0  0  0  0  0  0  0  0  0  0  0  0
    2.0470   -0.7405    0.2417 H   0  0  0  0  0  0  0  0  0  0  0  0
    2.6333   -0.1080   -1.4313 H   0  0  0  0  0  0  0  0  0  0  0  0
   -0.0576   -1.5176   -0.7872 H   0  0  0  0  0  0  0  0  0  0  0  0
    0.5279   -0.8864   -2.4611 H   0  0  0  0  0  0  0  0  0  0  0  0
  1  2  1  0  0  0  0 
  1  3  1  0  0  0  0 
  2  4  2  0  0  0  0 
  2  5  1  0  0  0  0 
  3  6  1  0  0  0  0 
  4  7  1  0  0  0  0 
  4  8  1  0  0  0  0 
  5  9  2  0  0  0  0 
  6  7  1  0  0  0  0 
  6 10  2  0  0  0  0 
  8 11  2  0  0  0  0 
  9 11  1  0  0  0  0 
  9 12  1  0  0  0  0 
  1 13  1  0  0  0  0 
  1 14  1  0  0  0  0 
 13 15  1  0  0  0  0 
 13 16  1  0  0  0  0 
 13 17  1  0  0  0  0 
 14 18  3  0  0  0  0 
 18 19  1  0  0  0  0 
 20 21  1  0  0  0  0 
 19 20  1  0  0  0  0 
 21 19  1  0  0  0  0 
 22  5  1  0  0  0  0 
 23  7  1  0  0  0  0 
 24  8  1  0  0  0  0 
 25 11  1  0  0  0  0 
 26 19  1  0  0  0  0 
 27 20  1  0  0  0  0 
 28 20  1  0  0  0  0 
 29 21  1  0  0  0  0 
 30 21  1  0  0  0  0 
M  END
> <cdk:Title>
efavirenz

> <Conformer>
1

> <SuperDrugID>
SD000877

$$$$
