glyconiazide
  CDK     0628171801

 34 35  0  0  0  0  0  0  0  0999 V2000
   -2.9105   -1.2057   -0.5915 C   0  0  0  0  0  0  0  0  0  0  0  0
   -3.9965   -1.4432   -1.4159 C   0  0  0  0  0  0  0  0  0  0  0  0
   -1.7470   -1.3707   -1.0356 O   0  0  0  0  0  0  0  0  0  0  0  0
   -3.0944   -0.7641    0.8172 C   0  0  2  0  0  0  0  0  0  0  0  0
   -3.8280   -1.8145   -2.6308 N   0  0  0  0  0  0  0  0  0  0  0  0
   -3.6015    0.7003    1.0151 C   0  0  2  0  0  0  0  0  0  0  0  0
   -1.8661   -0.8094    1.5398 O   0  0  0  0  0  0  0  0  0  0  0  0
   -4.7536   -2.0630   -3.4599 N   0  0  0  0  0  0  0  0  0  0  0  0
   -3.9789    1.3708   -0.1923 O   0  0  0  0  0  0  0  0  0  0  0  0
   -2.4627    1.4432    1.7623 C   0  0  1  0  0  0  0  0  0  0  0  0
   -1.5151    0.3762    2.0651 C   0  0  0  0  0  0  0  0  0  0  0  0
   -4.4499   -2.5345   -4.7679 C   0  0  2  0  0  0  0  0  0  0  0  0
   -1.8093    2.4372    0.9735 O   0  0  0  0  0  0  0  0  0  0  0  0
   -0.4697    0.5372    2.7339 O   0  0  0  0  0  0  0  0  0  0  0  0
   -5.6456   -2.5548   -5.5400 O   0  0  0  0  0  0  0  0  0  0  0  0
   -3.8376   -3.8914   -4.7135 C   0  0  0  0  0  0  0  0  0  0  0  0
   -4.5462   -4.9847   -4.1600 C   0  0  0  0  0  0  0  0  0  0  0  0
   -2.5165   -4.1106   -5.1729 C   0  0  0  0  0  0  0  0  0  0  0  0
   -3.9216   -6.2418   -4.0622 C   0  0  0  0  0  0  0  0  0  0  0  0
   -1.9379   -5.3868   -5.0553 C   0  0  0  0  0  0  0  0  0  0  0  0
   -2.6501   -6.4037   -4.5080 N   0  0  0  0  0  0  0  0  0  0  0  0
   -4.9183   -1.3240   -1.0592 H   0  0  0  0  0  0  0  0  0  0  0  0
   -3.7694   -1.4609    1.3221 H   0  0  0  0  0  0  0  0  0  0  0  0
   -4.4898    0.6782    1.6567 H   0  0  0  0  0  0  0  0  0  0  0  0
   -5.6837   -1.9653   -3.1918 H   0  0  0  0  0  0  0  0  0  0  0  0
   -4.2936    2.2582    0.0837 H   0  0  0  0  0  0  0  0  0  0  0  0
   -2.8299    1.8920    2.6897 H   0  0  0  0  0  0  0  0  0  0  0  0
   -3.7758   -1.8199   -5.2492 H   0  0  0  0  0  0  0  0  0  0  0  0
   -2.4773    3.1428    0.8392 H   0  0  0  0  0  0  0  0  0  0  0  0
   -5.9504   -1.6215   -5.5500 H   0  0  0  0  0  0  0  0  0  0  0  0
   -5.5056   -4.8742   -3.8208 H   0  0  0  0  0  0  0  0  0  0  0  0
   -1.9664   -3.3533   -5.5843 H   0  0  0  0  0  0  0  0  0  0  0  0
   -4.4182   -7.0339   -3.6508 H   0  0  0  0  0  0  0  0  0  0  0  0
   -0.9812   -5.5483   -5.3741 H   0  0  0  0  0  0  0  0  0  0  0  0
  2  1  1  0  0  0  0 
  1  3  2  0  0  0  0 
  4  1  1  0  0  0  0 
  2  5  2  0  0  0  0 
  6  4  1  0  0  0  0 
  4  7  1  0  0  0  0 
  5  8  1  0  0  0  0 
  6  9  1  0  0  0  0 
  6 10  1  0  0  0  0 
  7 11  1  0  0  0  0 
  8 12  1  0  0  0  0 
 10 11  1  0  0  0  0 
 10 13  1  0  0  0  0 
 11 14  2  0  0  0  0 
 12 15  1  0  0  0  0 
 12 16  1  0  0  0  0 
 16 17  2  0  0  0  0 
 16 18  1  0  0  0  0 
 17 19  1  0  0  0  0 
 18 20  2  0  0  0  0 
 19 21  2  0  0  0  0 
 20 21  1  0  0  0  0 
 22  2  1  0  0  0  0 
  4 23  1  0  0  0  0 
  6 24  1  0  0  0  0 
 25  8  1  0  0  0  0 
 26  9  1  0  0  0  0 
 10 27  1  0  0  0  0 
 28 12  1  0  0  0  0 
 29 13  1  0  0  0  0 
 30 15  1  0  0  0  0 
 31 17  1  0  0  0  0 
 32 18  1  0  0  0  0 
 33 19  1  0  0  0  0 
 34 20  1  0  0  0  0 
M  END
> <cdk:Title>
glyconiazide

> <Conformer>
1

> <SuperDrugID>
SD002825

$$$$
