meclofenoxate
  CDK     0628171801

 33 33  0  0  0  0  0  0  0  0999 V2000
   -3.7957    2.4854   -0.4476 O   0  0  0  0  0  0  0  0  0  0  0  0
   -3.8172    1.5611    0.6568 C   0  0  1  0  0  0  0  0  0  0  0  0
   -4.8442    3.3651   -0.4397 C   0  0  0  0  0  0  0  0  0  0  0  0
   -2.7317    0.5876    0.4656 C   0  0  0  0  0  0  0  0  0  0  0  0
   -4.7316    4.6089    0.2157 C   0  0  0  0  0  0  0  0  0  0  0  0
   -6.0352    3.0470   -1.1230 C   0  0  0  0  0  0  0  0  0  0  0  0
   -1.7150    0.5017    1.3751 O   0  0  0  0  0  0  0  0  0  0  0  0
   -2.7610   -0.1591   -0.5422 O   0  0  0  0  0  0  0  0  0  0  0  0
   -5.7982    5.5273    0.1834 C   0  0  0  0  0  0  0  0  0  0  0  0
   -7.1029    3.9633   -1.1566 C   0  0  0  0  0  0  0  0  0  0  0  0
   -0.5840   -0.3767    1.2816 C   0  0  2  0  0  0  0  0  0  0  0  0
   -6.9827    5.2089   -0.5091 C   0  0  0  0  0  0  0  0  0  0  0  0
    0.3604   -0.1686    2.4909 C   0  0  2  0  0  0  0  0  0  0  0  0
   -8.2586    6.3195   -0.5674 Cl  0  0  0  0  0  0  0  0  0  0  0  0
    1.5522   -1.0838    2.5197 N   0  0  2  0  0  0  0  0  0  0  0  0
    2.2586   -1.0540    3.8356 C   0  0  0  0  0  0  0  0  0  0  0  0
    2.5045   -0.9032    1.3816 C   0  0  0  0  0  0  0  0  0  0  0  0
   -3.6754    2.0951    1.6015 H   0  0  0  0  0  0  0  0  0  0  0  0
   -4.7628    1.0110    0.7024 H   0  0  0  0  0  0  0  0  0  0  0  0
   -3.8715    4.8476    0.7133 H   0  0  0  0  0  0  0  0  0  0  0  0
   -6.1249    2.1473   -1.6004 H   0  0  0  0  0  0  0  0  0  0  0  0
   -5.7039    6.4268    0.6637 H   0  0  0  0  0  0  0  0  0  0  0  0
   -7.9622    3.7189   -1.6562 H   0  0  0  0  0  0  0  0  0  0  0  0
   -0.0571   -0.1596    0.3510 H   0  0  0  0  0  0  0  0  0  0  0  0
   -0.9270   -1.4139    1.2658 H   0  0  0  0  0  0  0  0  0  0  0  0
   -0.2468   -0.3433    3.3849 H   0  0  0  0  0  0  0  0  0  0  0  0
    0.6884    0.8753    2.5153 H   0  0  0  0  0  0  0  0  0  0  0  0
    1.5671   -1.2803    4.6497 H   0  0  0  0  0  0  0  0  0  0  0  0
    3.0477   -1.8090    3.8678 H   0  0  0  0  0  0  0  0  0  0  0  0
    2.7046   -0.0730    4.0152 H   0  0  0  0  0  0  0  0  0  0  0  0
    2.0376   -1.2072    0.4457 H   0  0  0  0  0  0  0  0  0  0  0  0
    3.3916   -1.5285    1.5037 H   0  0  0  0  0  0  0  0  0  0  0  0
    2.8258    0.1370    1.2955 H   0  0  0  0  0  0  0  0  0  0  0  0
  1  2  1  0  0  0  0 
  1  3  1  0  0  0  0 
  2  4  1  0  0  0  0 
  3  5  2  0  0  0  0 
  3  6  1  0  0  0  0 
  4  7  1  0  0  0  0 
  4  8  2  0  0  0  0 
  5  9  1  0  0  0  0 
  6 10  2  0  0  0  0 
  7 11  1  0  0  0  0 
  9 12  2  0  0  0  0 
 10 12  1  0  0  0  0 
 11 13  1  0  0  0  0 
 12 14  1  0  0  0  0 
 13 15  1  0  0  0  0 
 15 16  1  0  0  0  0 
 15 17  1  0  0  0  0 
  2 18  1  0  0  0  0 
  2 19  1  0  0  0  0 
  5 20  1  0  0  0  0 
  6 21  1  0  0  0  0 
  9 22  1  0  0  0  0 
 10 23  1  0  0  0  0 
 11 24  1  0  0  0  0 
 11 25  1  0  0  0  0 
 13 26  1  0  0  0  0 
 13 27  1  0  0  0  0 
 16 28  1  0  0  0  0 
 16 29  1  0  0  0  0 
 16 30  1  0  0  0  0 
 17 31  1  0  0  0  0 
 17 32  1  0  0  0  0 
 17 33  1  0  0  0  0 
M  END
> <cdk:Title>
meclofenoxate

> <Conformer>
1

> <SuperDrugID>
SD001461

$$$$
