racecadotril
  CDK     0628171802

 50 51  0  0  0  0  0  0  0  0999 V2000
   -0.5278   -5.4966   -5.3973 C   0  0  1  0  0  0  0  0  0  0  0  0
    0.2179   -6.8694   -5.3498 C   0  0  1  0  0  0  0  0  0  0  0  0
   -1.0031   -5.1238   -4.0378 C   0  0  0  0  0  0  0  0  0  0  0  0
    0.3404   -4.3711   -6.0348 C   0  0  2  0  0  0  0  0  0  0  0  0
   -0.6227   -7.9798   -4.8029 C   0  0  0  0  0  0  0  0  0  0  0  0
   -2.3368   -5.1281   -3.7775 N   0  0  0  0  0  0  0  0  0  0  0  0
   -0.1668   -4.8503   -3.1439 O   0  0  0  0  0  0  0  0  0  0  0  0
   -0.5805   -2.8036   -6.2335 S   0  0  0  0  0  0  0  0  0  0  0  0
   -0.3693   -8.5237   -3.5195 C   0  0  0  0  0  0  0  0  0  0  0  0
   -1.7114   -8.4949   -5.5482 C   0  0  0  0  0  0  0  0  0  0  0  0
   -2.9312   -4.9293   -2.4991 C   0  0  1  0  0  0  0  0  0  0  0  0
    0.5598   -1.7233   -7.0118 C   0  0  0  0  0  0  0  0  0  0  0  0
   -1.1729   -9.5574   -3.0022 C   0  0  0  0  0  0  0  0  0  0  0  0
   -2.5174   -9.5255   -5.0287 C   0  0  0  0  0  0  0  0  0  0  0  0
   -4.3588   -4.6255   -2.6800 C   0  0  0  0  0  0  0  0  0  0  0  0
    1.6260   -1.0699   -6.2382 C   0  0  0  0  0  0  0  0  0  0  0  0
    0.4273   -1.5034   -8.2368 O   0  0  0  0  0  0  0  0  0  0  0  0
   -2.2473  -10.0597   -3.7566 C   0  0  0  0  0  0  0  0  0  0  0  0
   -5.2996   -5.6098   -2.5380 O   0  0  0  0  0  0  0  0  0  0  0  0
   -4.6832   -3.4629   -3.0193 O   0  0  0  0  0  0  0  0  0  0  0  0
   -6.7178   -5.4487   -2.6930 C   0  0  2  0  0  0  0  0  0  0  0  0
   -7.3828   -6.7747   -2.7279 C   0  0  0  0  0  0  0  0  0  0  0  0
   -8.0073   -7.2399   -3.9109 C   0  0  0  0  0  0  0  0  0  0  0  0
   -7.3989   -7.6060   -1.5828 C   0  0  0  0  0  0  0  0  0  0  0  0
   -8.6174   -8.5065   -3.9545 C   0  0  0  0  0  0  0  0  0  0  0  0
   -8.0123   -8.8737   -1.6262 C   0  0  0  0  0  0  0  0  0  0  0  0
   -8.6125   -9.3284   -2.8145 C   0  0  0  0  0  0  0  0  0  0  0  0
   -1.3915   -5.6288   -6.0577 H   0  0  0  0  0  0  0  0  0  0  0  0
    0.5319   -7.1401   -6.3606 H   0  0  0  0  0  0  0  0  0  0  0  0
    1.1348   -6.7616   -4.7616 H   0  0  0  0  0  0  0  0  0  0  0  0
    0.6680   -4.6805   -7.0298 H   0  0  0  0  0  0  0  0  0  0  0  0
    1.2280   -4.1890   -5.4248 H   0  0  0  0  0  0  0  0  0  0  0  0
   -2.9283   -5.3374   -4.5148 H   0  0  0  0  0  0  0  0  0  0  0  0
    0.4022   -8.1691   -2.9478 H   0  0  0  0  0  0  0  0  0  0  0  0
   -1.9239   -8.1215   -6.4765 H   0  0  0  0  0  0  0  0  0  0  0  0
   -2.8202   -5.8437   -1.9165 H   0  0  0  0  0  0  0  0  0  0  0  0
   -2.4473   -4.1084   -1.9587 H   0  0  0  0  0  0  0  0  0  0  0  0
   -0.9788   -9.9398   -2.0749 H   0  0  0  0  0  0  0  0  0  0  0  0
   -3.2999   -9.8873   -5.5774 H   0  0  0  0  0  0  0  0  0  0  0  0
    2.2244   -0.4172   -6.8767 H   0  0  0  0  0  0  0  0  0  0  0  0
    1.1843   -0.4711   -5.4419 H   0  0  0  0  0  0  0  0  0  0  0  0
    2.2812   -1.8203   -5.7991 H   0  0  0  0  0  0  0  0  0  0  0  0
   -2.8296  -10.8137   -3.3836 H   0  0  0  0  0  0  0  0  0  0  0  0
   -6.9095   -4.9063   -3.6222 H   0  0  0  0  0  0  0  0  0  0  0  0
   -7.1174   -4.8489   -1.8714 H   0  0  0  0  0  0  0  0  0  0  0  0
   -8.0174   -6.6627   -4.7563 H   0  0  0  0  0  0  0  0  0  0  0  0
   -6.9617   -7.2948   -0.7100 H   0  0  0  0  0  0  0  0  0  0  0  0
   -9.0617   -8.8282   -4.8176 H   0  0  0  0  0  0  0  0  0  0  0  0
   -8.0206   -9.4660   -0.7927 H   0  0  0  0  0  0  0  0  0  0  0  0
   -9.0424  -10.2548   -2.8520 H   0  0  0  0  0  0  0  0  0  0  0  0
  1  2  1  0  0  0  0 
  1  3  1  0  0  0  0 
  1  4  1  0  0  0  0 
  2  5  1  0  0  0  0 
  3  6  1  0  0  0  0 
  3  7  2  0  0  0  0 
  4  8  1  0  0  0  0 
  5  9  2  0  0  0  0 
  5 10  1  0  0  0  0 
  6 11  1  0  0  0  0 
  8 12  1  0  0  0  0 
  9 13  1  0  0  0  0 
 10 14  2  0  0  0  0 
 11 15  1  0  0  0  0 
 12 16  1  0  0  0  0 
 12 17  2  0  0  0  0 
 13 18  2  0  0  0  0 
 14 18  1  0  0  0  0 
 15 19  1  0  0  0  0 
 15 20  2  0  0  0  0 
 19 21  1  0  0  0  0 
 21 22  1  0  0  0  0 
 22 23  2  0  0  0  0 
 22 24  1  0  0  0  0 
 23 25  1  0  0  0  0 
 24 26  2  0  0  0  0 
 25 27  2  0  0  0  0 
 26 27  1  0  0  0  0 
  1 28  1  0  0  0  0 
  2 29  1  0  0  0  0 
  2 30  1  0  0  0  0 
  4 31  1  0  0  0  0 
  4 32  1  0  0  0  0 
  6 33  1  0  0  0  0 
  9 34  1  0  0  0  0 
 10 35  1  0  0  0  0 
 11 36  1  0  0  0  0 
 11 37  1  0  0  0  0 
 13 38  1  0  0  0  0 
 14 39  1  0  0  0  0 
 16 40  1  0  0  0  0 
 16 41  1  0  0  0  0 
 16 42  1  0  0  0  0 
 18 43  1  0  0  0  0 
 21 44  1  0  0  0  0 
 21 45  1  0  0  0  0 
 23 46  1  0  0  0  0 
 24 47  1  0  0  0  0 
 25 48  1  0  0  0  0 
 26 49  1  0  0  0  0 
 27 50  1  0  0  0  0 
M  END
> <cdk:Title>
racecadotril

> <Conformer>
1

> <SuperDrugID>
SD000037

$$$$
