propacetamol
  CDK     0628171801

 39 39  0  0  0  0  0  0  0  0999 V2000
   -3.8700    8.4179   -5.6180 O   0  0  0  0  0  0  0  0  0  0  0  0
   -3.0913    9.5095   -5.9069 C   0  0  0  0  0  0  0  0  0  0  0  0
   -3.8916    7.5463   -4.5557 C   0  0  0  0  0  0  0  0  0  0  0  0
   -3.2423   10.1750   -7.2164 C   0  0  1  0  0  0  0  0  0  0  0  0
   -2.2674    9.9890   -5.0944 O   0  0  0  0  0  0  0  0  0  0  0  0
   -2.9067    7.4702   -3.5469 C   0  0  0  0  0  0  0  0  0  0  0  0
   -4.9752    6.6459   -4.5000 C   0  0  0  0  0  0  0  0  0  0  0  0
   -1.9563   10.1802   -7.9908 N   0  0  2  0  0  0  0  0  0  0  0  0
   -2.9935    6.5019   -2.5296 C   0  0  0  0  0  0  0  0  0  0  0  0
   -5.0626    5.6753   -3.4832 C   0  0  0  0  0  0  0  0  0  0  0  0
   -1.8813   11.2504   -9.0442 C   0  0  1  0  0  0  0  0  0  0  0  0
   -1.5135    8.8216   -8.4631 C   0  0  1  0  0  0  0  0  0  0  0  0
   -4.0515    5.5664   -2.4972 C   0  0  0  0  0  0  0  0  0  0  0  0
   -1.5546   12.6417   -8.4541 C   0  0  0  0  0  0  0  0  0  0  0  0
    0.0231    8.6751   -8.3946 C   0  0  0  0  0  0  0  0  0  0  0  0
   -4.0056    4.6346   -1.4924 N   0  0  0  0  0  0  0  0  0  0  0  0
   -4.6188    3.4193   -1.4022 C   0  0  0  0  0  0  0  0  0  0  0  0
   -4.3453    2.5831   -0.2195 C   0  0  0  0  0  0  0  0  0  0  0  0
   -5.3725    2.9627   -2.2934 O   0  0  0  0  0  0  0  0  0  0  0  0
   -4.0267    9.6913   -7.8036 H   0  0  0  0  0  0  0  0  0  0  0  0
   -3.5824   11.1898   -7.0070 H   0  0  0  0  0  0  0  0  0  0  0  0
   -2.1087    8.1037   -3.5447 H   0  0  0  0  0  0  0  0  0  0  0  0
   -5.7137    6.6966   -5.2056 H   0  0  0  0  0  0  0  0  0  0  0  0
   -2.2633    6.4760   -1.8136 H   0  0  0  0  0  0  0  0  0  0  0  0
   -5.8762    5.0600   -3.4754 H   0  0  0  0  0  0  0  0  0  0  0  0
   -1.0905   11.0327   -9.7679 H   0  0  0  0  0  0  0  0  0  0  0  0
   -2.8207   11.3034   -9.6026 H   0  0  0  0  0  0  0  0  0  0  0  0
   -1.9271    8.0235   -7.8399 H   0  0  0  0  0  0  0  0  0  0  0  0
   -1.8552    8.6307   -9.4848 H   0  0  0  0  0  0  0  0  0  0  0  0
   -1.4197   13.3636   -9.2619 H   0  0  0  0  0  0  0  0  0  0  0  0
   -2.3592   13.0018   -7.8122 H   0  0  0  0  0  0  0  0  0  0  0  0
   -0.6333   12.5971   -7.8698 H   0  0  0  0  0  0  0  0  0  0  0  0
    0.3150    7.6721   -8.7106 H   0  0  0  0  0  0  0  0  0  0  0  0
    0.5153    9.3979   -9.0453 H   0  0  0  0  0  0  0  0  0  0  0  0
    0.3618    8.8315   -7.3694 H   0  0  0  0  0  0  0  0  0  0  0  0
   -3.4193    4.8525   -0.7500 H   0  0  0  0  0  0  0  0  0  0  0  0
   -4.8875    1.6365   -0.2659 H   0  0  0  0  0  0  0  0  0  0  0  0
   -3.2773    2.3663   -0.1659 H   0  0  0  0  0  0  0  0  0  0  0  0
   -4.6442    3.1095    0.6876 H   0  0  0  0  0  0  0  0  0  0  0  0
  1  2  1  0  0  0  0 
  1  3  1  0  0  0  0 
  2  4  1  0  0  0  0 
  2  5  2  0  0  0  0 
  3  6  2  0  0  0  0 
  3  7  1  0  0  0  0 
  4  8  1  0  0  0  0 
  6  9  1  0  0  0  0 
  7 10  2  0  0  0  0 
  8 11  1  0  0  0  0 
  8 12  1  0  0  0  0 
  9 13  2  0  0  0  0 
 10 13  1  0  0  0  0 
 11 14  1  0  0  0  0 
 12 15  1  0  0  0  0 
 13 16  1  0  0  0  0 
 16 17  1  0  0  0  0 
 17 18  1  0  0  0  0 
 17 19  2  0  0  0  0 
  4 20  1  0  0  0  0 
  4 21  1  0  0  0  0 
  6 22  1  0  0  0  0 
  7 23  1  0  0  0  0 
  9 24  1  0  0  0  0 
 10 25  1  0  0  0  0 
 11 26  1  0  0  0  0 
 11 27  1  0  0  0  0 
 12 28  1  0  0  0  0 
 12 29  1  0  0  0  0 
 14 30  1  0  0  0  0 
 14 31  1  0  0  0  0 
 14 32  1  0  0  0  0 
 15 33  1  0  0  0  0 
 15 34  1  0  0  0  0 
 15 35  1  0  0  0  0 
 16 36  1  0  0  0  0 
 18 37  1  0  0  0  0 
 18 38  1  0  0  0  0 
 18 39  1  0  0  0  0 
M  END
> <cdk:Title>
propacetamol

> <Conformer>
1

> <SuperDrugID>
SD002056

$$$$
