decamethoxine
  CDK     0628171802

118119  0  0  0  0  0  0  0  0999 V2000
  -11.4985   -6.4048  -26.8687 C   0  0  2  0  0  0  0  0  0  0  0  0
  -10.1967   -7.1649  -27.2601 C   0  0  1  0  0  0  0  0  0  0  0  0
   -8.9289   -6.3190  -26.9712 C   0  0  2  0  0  0  0  0  0  0  0  0
   -8.8374   -5.8579  -25.4785 C   0  0  2  0  0  0  0  0  0  0  0  0
  -10.1523   -5.1194  -25.0537 C   0  0  1  0  0  0  0  0  0  0  0  0
  -11.4285   -5.9478  -25.3834 C   0  0  1  0  0  0  0  0  0  0  0  0
  -12.7626   -7.2709  -27.1214 C   0  0  0  0  0  0  0  0  0  0  0  0
   -7.5318   -5.0354  -25.1450 C   0  0  1  0  0  0  0  0  0  0  0  0
   -6.2622   -5.9332  -25.0790 C   0  0  0  0  0  0  0  0  0  0  0  0
   -7.2715   -3.8031  -26.0621 C   0  0  0  0  0  0  0  0  0  0  0  0
  -10.2060   -4.9309  -23.6281 O   0  0  0  0  0  0  0  0  0  0  0  0
  -10.1513   -3.7843  -22.8861 C   0  0  0  0  0  0  0  0  0  0  0  0
  -10.5831   -3.8637  -21.4671 C   0  0  1  0  0  0  0  0  0  0  0  0
   -9.7860   -2.6977  -23.3917 O   0  0  0  0  0  0  0  0  0  0  0  0
   -9.5430   -3.8316  -20.3478 N   0  0  1  0  0  0  0  0  0  0  0  0
   -8.9135   -2.4411  -20.2525 C   0  0  2  0  0  0  0  0  0  0  0  0
  -10.2674   -4.1802  -19.0567 C   0  0  0  0  0  0  0  0  0  0  0  0
   -8.4938   -4.8915  -20.6023 C   0  0  0  0  0  0  0  0  0  0  0  0
   -7.9438   -2.1628  -19.0598 C   0  0  1  0  0  0  0  0  0  0  0  0
   -7.3624   -0.7210  -18.9719 C   0  0  2  0  0  0  0  0  0  0  0  0
   -6.5427   -0.5379  -17.6614 C   0  0  1  0  0  0  0  0  0  0  0  0
   -5.9845    0.8920  -17.4188 C   0  0  1  0  0  0  0  0  0  0  0  0
   -5.2731    0.9802  -16.0394 C   0  0  2  0  0  0  0  0  0  0  0  0
   -4.7308    2.3900  -15.6824 C   0  0  2  0  0  0  0  0  0  0  0  0
   -4.1272    2.4142  -14.2502 C   0  0  2  0  0  0  0  0  0  0  0  0
   -3.6123    3.8091  -13.7990 C   0  0  1  0  0  0  0  0  0  0  0  0
   -3.0940    3.7974  -12.3260 C   0  0  2  0  0  0  0  0  0  0  0  0
   -2.7294    5.1640  -11.6622 N   0  0  2  0  0  0  0  0  0  0  0  0
   -2.1264    4.8492  -10.2489 C   0  0  2  0  0  0  0  0  0  0  0  0
   -3.0795    4.3748   -9.2162 C   0  0  0  0  0  0  0  0  0  0  0  0
   -3.8715    6.2635  -11.6758 C   0  0  0  0  0  0  0  0  0  0  0  0
   -1.5832    5.7670  -12.4533 C   0  0  0  0  0  0  0  0  0  0  0  0
   -3.3980    5.1738   -8.1443 O   0  0  0  0  0  0  0  0  0  0  0  0
   -3.5612    3.2217   -9.3074 O   0  0  0  0  0  0  0  0  0  0  0  0
   -4.2903    4.8523   -7.0582 C   0  0  1  0  0  0  0  0  0  0  0  0
   -4.6219    3.3709   -4.9680 C   0  0  2  0  0  0  0  0  0  0  0  0
   -3.6530    3.7863   -6.1162 C   0  0  1  0  0  0  0  0  0  0  0  0
   -4.7025    6.1293   -6.2426 C   0  0  2  0  0  0  0  0  0  0  0  0
   -5.7051    5.7117   -5.1163 C   0  0  2  0  0  0  0  0  0  0  0  0
   -5.1336    4.6139   -4.1816 C   0  0  1  0  0  0  0  0  0  0  0  0
   -3.9663    2.3384   -4.0121 C   0  0  0  0  0  0  0  0  0  0  0  0
   -5.2581    7.3413   -7.0894 C   0  0  1  0  0  0  0  0  0  0  0  0
   -4.1298    8.2494   -7.6618 C   0  0  0  0  0  0  0  0  0  0  0  0
   -6.2694    6.9305   -8.1979 C   0  0  0  0  0  0  0  0  0  0  0  0
  -11.5810   -5.5117  -27.4987 H   0  0  0  0  0  0  0  0  0  0  0  0
  -10.1324   -8.1060  -26.7044 H   0  0  0  0  0  0  0  0  0  0  0  0
  -10.2214   -7.4073  -28.3268 H   0  0  0  0  0  0  0  0  0  0  0  0
   -8.9449   -5.4479  -27.6313 H   0  0  0  0  0  0  0  0  0  0  0  0
   -8.0537   -6.9199  -27.2293 H   0  0  0  0  0  0  0  0  0  0  0  0
   -8.8013   -6.7684  -24.8697 H   0  0  0  0  0  0  0  0  0  0  0  0
  -10.2243   -4.1615  -25.5772 H   0  0  0  0  0  0  0  0  0  0  0  0
  -12.3093   -5.3412  -25.1508 H   0  0  0  0  0  0  0  0  0  0  0  0
  -11.4564   -6.8316  -24.7368 H   0  0  0  0  0  0  0  0  0  0  0  0
  -12.7406   -8.1725  -26.5052 H   0  0  0  0  0  0  0  0  0  0  0  0
  -13.6637   -6.7041  -26.8770 H   0  0  0  0  0  0  0  0  0  0  0  0
  -12.8203   -7.5676  -28.1702 H   0  0  0  0  0  0  0  0  0  0  0  0
   -7.6464   -4.6383  -24.1327 H   0  0  0  0  0  0  0  0  0  0  0  0
   -5.4027   -5.3525  -24.7380 H   0  0  0  0  0  0  0  0  0  0  0  0
   -6.4093   -6.7521  -24.3724 H   0  0  0  0  0  0  0  0  0  0  0  0
   -6.0234   -6.3541  -26.0561 H   0  0  0  0  0  0  0  0  0  0  0  0
   -6.4389   -3.2126  -25.6726 H   0  0  0  0  0  0  0  0  0  0  0  0
   -8.1462   -3.1538  -26.1028 H   0  0  0  0  0  0  0  0  0  0  0  0
   -7.0194   -4.1153  -27.0773 H   0  0  0  0  0  0  0  0  0  0  0  0
  -11.3185   -3.0666  -21.3194 H   0  0  0  0  0  0  0  0  0  0  0  0
  -11.1589   -4.7934  -21.3973 H   0  0  0  0  0  0  0  0  0  0  0  0
   -9.7096   -1.6924  -20.1906 H   0  0  0  0  0  0  0  0  0  0  0  0
   -8.3605   -2.2293  -21.1716 H   0  0  0  0  0  0  0  0  0  0  0  0
   -9.5798   -4.3166  -18.2187 H   0  0  0  0  0  0  0  0  0  0  0  0
  -10.9806   -3.3982  -18.7773 H   0  0  0  0  0  0  0  0  0  0  0  0
  -10.8250   -5.1190  -19.1373 H   0  0  0  0  0  0  0  0  0  0  0  0
   -7.8697   -4.6370  -21.4619 H   0  0  0  0  0  0  0  0  0  0  0  0
   -7.8267   -5.0200  -19.7470 H   0  0  0  0  0  0  0  0  0  0  0  0
   -8.9461   -5.8679  -20.8014 H   0  0  0  0  0  0  0  0  0  0  0  0
   -8.4810   -2.3440  -18.1291 H   0  0  0  0  0  0  0  0  0  0  0  0
   -7.1077   -2.8617  -19.1105 H   0  0  0  0  0  0  0  0  0  0  0  0
   -8.1809    0.0036  -18.9869 H   0  0  0  0  0  0  0  0  0  0  0  0
   -6.7177   -0.5306  -19.8341 H   0  0  0  0  0  0  0  0  0  0  0  0
   -7.1867   -0.7974  -16.8146 H   0  0  0  0  0  0  0  0  0  0  0  0
   -5.7028   -1.2398  -17.6736 H   0  0  0  0  0  0  0  0  0  0  0  0
   -5.2735    1.1478  -18.2092 H   0  0  0  0  0  0  0  0  0  0  0  0
   -6.8060    1.6138  -17.4440 H   0  0  0  0  0  0  0  0  0  0  0  0
   -4.4418    0.2693  -16.0244 H   0  0  0  0  0  0  0  0  0  0  0  0
   -5.9833    0.6796  -15.2636 H   0  0  0  0  0  0  0  0  0  0  0  0
   -5.5486    3.1136  -15.7390 H   0  0  0  0  0  0  0  0  0  0  0  0
   -3.9665    2.6771  -16.4094 H   0  0  0  0  0  0  0  0  0  0  0  0
   -3.3010    1.6984  -14.2007 H   0  0  0  0  0  0  0  0  0  0  0  0
   -4.9017    2.0885  -13.5495 H   0  0  0  0  0  0  0  0  0  0  0  0
   -2.8125    4.1215  -14.4736 H   0  0  0  0  0  0  0  0  0  0  0  0
   -4.4335    4.5221  -13.8838 H   0  0  0  0  0  0  0  0  0  0  0  0
   -2.2490    3.1033  -12.2762 H   0  0  0  0  0  0  0  0  0  0  0  0
   -3.9033    3.3579  -11.7415 H   0  0  0  0  0  0  0  0  0  0  0  0
   -1.6780    5.7616   -9.8415 H   0  0  0  0  0  0  0  0  0  0  0  0
   -1.3150    4.1148  -10.3137 H   0  0  0  0  0  0  0  0  0  0  0  0
   -3.5781    7.1419  -11.0973 H   0  0  0  0  0  0  0  0  0  0  0  0
   -4.1209    6.5861  -12.6889 H   0  0  0  0  0  0  0  0  0  0  0  0
   -4.7761    5.8489  -11.2299 H   0  0  0  0  0  0  0  0  0  0  0  0
   -1.2016    6.6770  -11.9792 H   0  0  0  0  0  0  0  0  0  0  0  0
   -1.8841    6.0490  -13.4651 H   0  0  0  0  0  0  0  0  0  0  0  0
   -0.7409    5.0733  -12.5465 H   0  0  0  0  0  0  0  0  0  0  0  0
   -5.1964    4.4183   -7.4944 H   0  0  0  0  0  0  0  0  0  0  0  0
   -5.4896    2.8829   -5.4246 H   0  0  0  0  0  0  0  0  0  0  0  0
   -3.3938    2.8974   -6.6961 H   0  0  0  0  0  0  0  0  0  0  0  0
   -2.7259    4.1884   -5.6976 H   0  0  0  0  0  0  0  0  0  0  0  0
   -3.8063    6.4882   -5.7262 H   0  0  0  0  0  0  0  0  0  0  0  0
   -6.6318    5.3438   -5.5628 H   0  0  0  0  0  0  0  0  0  0  0  0
   -5.9589    6.5794   -4.5006 H   0  0  0  0  0  0  0  0  0  0  0  0
   -5.9184    4.3056   -3.4846 H   0  0  0  0  0  0  0  0  0  0  0  0
   -4.3185    5.0430   -3.5928 H   0  0  0  0  0  0  0  0  0  0  0  0
   -3.6270    1.4636   -4.5705 H   0  0  0  0  0  0  0  0  0  0  0  0
   -4.6885    2.0053   -3.2633 H   0  0  0  0  0  0  0  0  0  0  0  0
   -3.1084    2.7782   -3.4983 H   0  0  0  0  0  0  0  0  0  0  0  0
   -5.8150    7.9941   -6.4078 H   0  0  0  0  0  0  0  0  0  0  0  0
   -4.5602    9.1240   -8.1577 H   0  0  0  0  0  0  0  0  0  0  0  0
   -3.4883    8.6102   -6.8531 H   0  0  0  0  0  0  0  0  0  0  0  0
   -3.5145    7.7091   -8.3821 H   0  0  0  0  0  0  0  0  0  0  0  0
   -6.7110    7.8143   -8.6619 H   0  0  0  0  0  0  0  0  0  0  0  0
   -7.0793    6.3318   -7.7787 H   0  0  0  0  0  0  0  0  0  0  0  0
   -5.7753    6.3494   -8.9755 H   0  0  0  0  0  0  0  0  0  0  0  0
  1  2  1  0  0  0  0 
  1  6  1  0  0  0  0 
  2  3  1  0  0  0  0 
  3  4  1  0  0  0  0 
  4  5  1  0  0  0  0 
  5  6  1  0  0  0  0 
  1  7  1  0  0  0  0 
  4  8  1  0  0  0  0 
  8  9  1  0  0  0  0 
  8 10  1  0  0  0  0 
  5 11  1  0  0  0  0 
 11 12  1  0  0  0  0 
 12 13  1  0  0  0  0 
 12 14  2  0  0  0  0 
 13 15  1  0  0  0  0 
 15 16  1  0  0  0  0 
 15 17  1  0  0  0  0 
 15 18  1  0  0  0  0 
 16 19  1  0  0  0  0 
 20 21  1  0  0  0  0 
 21 22  1  0  0  0  0 
 22 23  1  0  0  0  0 
 23 24  1  0  0  0  0 
 24 25  1  0  0  0  0 
 25 26  1  0  0  0  0 
 26 27  1  0  0  0  0 
 19 20  1  0  0  0  0 
 27 28  1  0  0  0  0 
 28 29  1  0  0  0  0 
 29 30  1  0  0  0  0 
 28 31  1  0  0  0  0 
 28 32  1  0  0  0  0 
 30 33  1  0  0  0  0 
 30 34  2  0  0  0  0 
 33 35  1  0  0  0  0 
 36 37  1  0  0  0  0 
 38 39  1  0  0  0  0 
 39 40  1  0  0  0  0 
 36 40  1  0  0  0  0 
 37 35  1  0  0  0  0 
 35 38  1  0  0  0  0 
 36 41  1  0  0  0  0 
 38 42  1  0  0  0  0 
 42 43  1  0  0  0  0 
 42 44  1  0  0  0  0 
  1 45  1  0  0  0  0 
  2 46  1  0  0  0  0 
  2 47  1  0  0  0  0 
  3 48  1  0  0  0  0 
  3 49  1  0  0  0  0 
  4 50  1  0  0  0  0 
  5 51  1  0  0  0  0 
  6 52  1  0  0  0  0 
  6 53  1  0  0  0  0 
  7 54  1  0  0  0  0 
  7 55  1  0  0  0  0 
  7 56  1  0  0  0  0 
  8 57  1  0  0  0  0 
  9 58  1  0  0  0  0 
  9 59  1  0  0  0  0 
  9 60  1  0  0  0  0 
 10 61  1  0  0  0  0 
 10 62  1  0  0  0  0 
 10 63  1  0  0  0  0 
 13 64  1  0  0  0  0 
 13 65  1  0  0  0  0 
 16 66  1  0  0  0  0 
 16 67  1  0  0  0  0 
 17 68  1  0  0  0  0 
 17 69  1  0  0  0  0 
 17 70  1  0  0  0  0 
 18 71  1  0  0  0  0 
 18 72  1  0  0  0  0 
 18 73  1  0  0  0  0 
 19 74  1  0  0  0  0 
 19 75  1  0  0  0  0 
 20 76  1  0  0  0  0 
 20 77  1  0  0  0  0 
 21 78  1  0  0  0  0 
 21 79  1  0  0  0  0 
 22 80  1  0  0  0  0 
 22 81  1  0  0  0  0 
 23 82  1  0  0  0  0 
 23 83  1  0  0  0  0 
 24 84  1  0  0  0  0 
 24 85  1  0  0  0  0 
 25 86  1  0  0  0  0 
 25 87  1  0  0  0  0 
 26 88  1  0  0  0  0 
 26 89  1  0  0  0  0 
 27 90  1  0  0  0  0 
 27 91  1  0  0  0  0 
 29 92  1  0  0  0  0 
 29 93  1  0  0  0  0 
 31 94  1  0  0  0  0 
 31 95  1  0  0  0  0 
 31 96  1  0  0  0  0 
 32 97  1  0  0  0  0 
 32 98  1  0  0  0  0 
 32 99  1  0  0  0  0 
 35100  1  0  0  0  0 
 36101  1  0  0  0  0 
 37102  1  0  0  0  0 
 37103  1  0  0  0  0 
 38104  1  0  0  0  0 
 39105  1  0  0  0  0 
 39106  1  0  0  0  0 
 40107  1  0  0  0  0 
 40108  1  0  0  0  0 
 41109  1  0  0  0  0 
 41110  1  0  0  0  0 
 41111  1  0  0  0  0 
 42112  1  0  0  0  0 
 43113  1  0  0  0  0 
 43114  1  0  0  0  0 
 43115  1  0  0  0  0 
 44116  1  0  0  0  0 
 44117  1  0  0  0  0 
 44118  1  0  0  0  0 
M  CHG  1  15   1
M  CHG  1  28   1
M  END
> <cdk:Title>
decamethoxine

> <Conformer>
1

> <SuperDrugID>
SD003848

$$$$
