pimecrolimus
  CDK     0628171801

124127  0  0  0  0  0  0  0  0999 V2000
   -1.3132    8.5470   -2.7495 O   0  0  0  0  0  0  0  0  0  0  0  0
   -1.0012    8.5100   -4.1541 C   0  0  0  0  0  0  0  0  0  0  0  0
   -1.0373    7.3409   -1.9926 C   0  0  2  0  0  0  0  0  0  0  0  0
   -2.3032    6.4304   -1.8809 C   0  0  2  0  0  0  0  0  0  0  0  0
   -0.5549    7.7527   -0.5853 C   0  0  2  0  0  0  0  0  0  0  0  0
   -3.2940    7.0020   -0.9769 O   0  0  0  0  0  0  0  0  0  0  0  0
   -2.1605    4.8607   -1.6989 C   0  0  1  0  0  0  0  0  0  0  0  0
   -1.6386    8.4691    0.2695 C   0  0  2  0  0  0  0  0  0  0  0  0
   -2.9742    7.6250    0.3100 C   0  0  1  0  0  0  0  0  0  0  0  0
   -3.1432    4.1939   -2.5389 O   0  0  0  0  0  0  0  0  0  0  0  0
   -0.8136    4.1685   -2.1205 C   0  0  2  0  0  0  0  0  0  0  0  0
   -1.8541    9.9941   -0.1429 C   0  0  0  0  0  0  0  0  0  0  0  0
   -4.0844    8.5199    0.4381 O   0  0  0  0  0  0  0  0  0  0  0  0
   -3.1569    6.7945    1.5641 C   0  0  0  0  0  0  0  0  0  0  0  0
   -4.5197    4.2096   -2.1324 C   0  0  0  0  0  0  0  0  0  0  0  0
   -0.5267    2.7271   -1.5510 C   0  0  1  0  0  0  0  0  0  0  0  0
   -2.9530    7.3918    2.6464 O   0  0  0  0  0  0  0  0  0  0  0  0
   -3.8155    5.5300    1.6216 C   0  0  0  0  0  0  0  0  0  0  0  0
   -1.7417    1.7544   -1.5879 C   0  0  0  0  0  0  0  0  0  0  0  0
    0.7118    2.0275   -2.2187 C   0  0  2  0  0  0  0  0  0  0  0  0
   -4.6254    5.4208    0.6716 O   0  0  0  0  0  0  0  0  0  0  0  0
   -3.7878    4.4952    2.5849 N   0  0  0  0  0  0  0  0  0  0  0  0
    1.9794    2.7855   -2.3237 C   0  0  0  0  0  0  0  0  0  0  0  0
   -3.0185    4.4046    3.8478 C   0  0  2  0  0  0  0  0  0  0  0  0
   -4.6814    3.3377    2.3842 C   0  0  2  0  0  0  0  0  0  0  0  0
    2.5625    2.9076   -3.6612 C   0  0  0  0  0  0  0  0  0  0  0  0
    2.5566    3.2894   -1.2030 C   0  0  0  0  0  0  0  0  0  0  0  0
   -2.0308    5.4329    4.2742 C   0  0  0  0  0  0  0  0  0  0  0  0
   -2.2334    3.0490    3.9278 C   0  0  2  0  0  0  0  0  0  0  0  0
   -3.9267    1.9874    2.3873 C   0  0  2  0  0  0  0  0  0  0  0  0
    3.7671    4.1268   -1.0654 C   0  0  1  0  0  0  0  0  0  0  0  0
   -2.1348    6.0320    5.3692 O   0  0  0  0  0  0  0  0  0  0  0  0
   -0.9541    5.6677    3.4869 O   0  0  0  0  0  0  0  0  0  0  0  0
   -3.1422    1.8222    3.7036 C   0  0  2  0  0  0  0  0  0  0  0  0
    3.7855    5.4252   -1.9520 C   0  0  1  0  0  0  0  0  0  0  0  0
    4.0612    4.4426    0.3814 C   0  0  0  0  0  0  0  0  0  0  0  0
    0.4378    5.4543    3.7827 C   0  0  2  0  0  0  0  0  0  0  0  0
    5.1045    6.2374   -1.8918 C   0  0  0  0  0  0  0  0  0  0  0  0
    4.9157    3.7326    0.9660 O   0  0  0  0  0  0  0  0  0  0  0  0
    3.5175    5.6046    1.1544 C   0  0  1  0  0  0  0  0  0  0  0  0
    1.0017    6.3538    4.8130 C   0  0  0  0  0  0  0  0  0  0  0  0
    1.1857    5.5620    2.4095 C   0  0  1  0  0  0  0  0  0  0  0  0
    2.7337    5.3102    2.4820 C   0  0  1  0  0  0  0  0  0  0  0  0
    1.8342    5.8359    5.7509 C   0  0  0  0  0  0  0  0  0  0  0  0
    0.7182    7.7862    4.7348 C   0  0  0  0  0  0  0  0  0  0  0  0
    0.5332    4.6090    1.3714 C   0  0  0  0  0  0  0  0  0  0  0  0
    2.9874    4.0040    3.0032 O   0  0  0  0  0  0  0  0  0  0  0  0
    2.6206    6.5556    6.7625 C   0  0  1  0  0  0  0  0  0  0  0  0
    1.8825    6.6856    8.1286 C   0  0  1  0  0  0  0  0  0  0  0  0
    4.0324    5.9204    6.9841 C   0  0  1  0  0  0  0  0  0  0  0  0
    1.7956    5.3439    8.9210 C   0  0  1  0  0  0  0  0  0  0  0  0
    4.0044    4.5995    7.8041 C   0  0  1  0  0  0  0  0  0  0  0  0
    0.9796    4.3576    8.2422 O   0  0  0  0  0  0  0  0  0  0  0  0
    3.2240    4.7565    9.1384 C   0  0  2  0  0  0  0  0  0  0  0  0
   -0.4455    4.5412    8.3256 C   0  0  0  0  0  0  0  0  0  0  0  0
    3.1596    3.2091    9.9879 Cl  0  0  0  0  0  0  0  0  0  0  0  0
   -3.7700    4.3842    4.6468 H   0  0  0  0  0  0  0  0  0  0  0  0
   -2.7822    6.5452   -2.8567 H   0  0  0  0  0  0  0  0  0  0  0  0
   -1.2840    9.4643   -4.5981 H   0  0  0  0  0  0  0  0  0  0  0  0
   -1.5467    7.7144   -4.6644 H   0  0  0  0  0  0  0  0  0  0  0  0
    0.0718    8.3700   -4.3007 H   0  0  0  0  0  0  0  0  0  0  0  0
   -0.2154    6.8112   -2.4752 H   0  0  0  0  0  0  0  0  0  0  0  0
    0.3336    8.3832   -0.6805 H   0  0  0  0  0  0  0  0  0  0  0  0
   -0.2440    6.8539   -0.0606 H   0  0  0  0  0  0  0  0  0  0  0  0
   -2.3224    4.6258   -0.6458 H   0  0  0  0  0  0  0  0  0  0  0  0
   -1.2109    8.5333    1.2745 H   0  0  0  0  0  0  0  0  0  0  0  0
    0.0152    4.7780   -1.7747 H   0  0  0  0  0  0  0  0  0  0  0  0
   -0.7537    4.1478   -3.2135 H   0  0  0  0  0  0  0  0  0  0  0  0
   -2.4771   10.0053   -1.0884 H   0  0  0  0  0  0  0  0  0  0  0  0
   -2.2273   10.6908    0.7103 H   0  0  0  0  0  0  0  0  0  0  0  0
   -0.8874   10.4178   -0.4218 H   0  0  0  0  0  0  0  0  0  0  0  0
   -4.8819    7.9498    0.4149 H   0  0  0  0  0  0  0  0  0  0  0  0
   -4.6418    3.6749   -1.1912 H   0  0  0  0  0  0  0  0  0  0  0  0
   -5.1094    3.6953   -2.8904 H   0  0  0  0  0  0  0  0  0  0  0  0
   -4.9052    5.2256   -2.0444 H   0  0  0  0  0  0  0  0  0  0  0  0
   -0.2987    2.8346   -0.4923 H   0  0  0  0  0  0  0  0  0  0  0  0
   -1.4536    0.7675   -1.2173 H   0  0  0  0  0  0  0  0  0  0  0  0
   -2.1207    1.6470   -2.6059 H   0  0  0  0  0  0  0  0  0  0  0  0
   -2.5420    2.1173   -0.9430 H   0  0  0  0  0  0  0  0  0  0  0  0
    0.3773    1.7041   -3.2089 H   0  0  0  0  0  0  0  0  0  0  0  0
    0.9416    1.1115   -1.6651 H   0  0  0  0  0  0  0  0  0  0  0  0
   -5.2520    3.3498    1.4538 H   0  0  0  0  0  0  0  0  0  0  0  0
   -5.4307    3.3266    3.1806 H   0  0  0  0  0  0  0  0  0  0  0  0
    2.3750    2.0138   -4.2604 H   0  0  0  0  0  0  0  0  0  0  0  0
    2.1146    3.7632   -4.1731 H   0  0  0  0  0  0  0  0  0  0  0  0
    3.6480    3.0171   -3.6342 H   0  0  0  0  0  0  0  0  0  0  0  0
    2.1203    3.0318   -0.3492 H   0  0  0  0  0  0  0  0  0  0  0  0
   -1.7598    2.9357    4.9090 H   0  0  0  0  0  0  0  0  0  0  0  0
   -1.4440    3.0294    3.1696 H   0  0  0  0  0  0  0  0  0  0  0  0
   -3.2370    1.9499    1.5391 H   0  0  0  0  0  0  0  0  0  0  0  0
   -4.6371    1.1625    2.2867 H   0  0  0  0  0  0  0  0  0  0  0  0
    4.5870    3.4957   -1.4259 H   0  0  0  0  0  0  0  0  0  0  0  0
   -3.8388    1.7260    4.5414 H   0  0  0  0  0  0  0  0  0  0  0  0
   -2.5333    0.9154    3.6625 H   0  0  0  0  0  0  0  0  0  0  0  0
    3.6593    5.1787   -3.0007 H   0  0  0  0  0  0  0  0  0  0  0  0
    2.9453    6.0738   -1.7007 H   0  0  0  0  0  0  0  0  0  0  0  0
    0.5054    4.4081    4.1042 H   0  0  0  0  0  0  0  0  0  0  0  0
    5.2193    6.7355   -0.9285 H   0  0  0  0  0  0  0  0  0  0  0  0
    5.0988    7.0036   -2.6710 H   0  0  0  0  0  0  0  0  0  0  0  0
    5.9634    5.5826   -2.0572 H   0  0  0  0  0  0  0  0  0  0  0  0
    4.3804    6.2314    1.4026 H   0  0  0  0  0  0  0  0  0  0  0  0
    2.8906    6.2302    0.5218 H   0  0  0  0  0  0  0  0  0  0  0  0
    1.0337    6.5835    2.0477 H   0  0  0  0  0  0  0  0  0  0  0  0
    3.1347    6.0096    3.2195 H   0  0  0  0  0  0  0  0  0  0  0  0
    1.9549    4.8498    5.7555 H   0  0  0  0  0  0  0  0  0  0  0  0
    0.3909    8.1683    5.7033 H   0  0  0  0  0  0  0  0  0  0  0  0
   -0.0681    8.0190    4.0155 H   0  0  0  0  0  0  0  0  0  0  0  0
    1.6142    8.3254    4.4232 H   0  0  0  0  0  0  0  0  0  0  0  0
    0.9305    4.8305    0.3887 H   0  0  0  0  0  0  0  0  0  0  0  0
    0.7338    3.5659    1.6232 H   0  0  0  0  0  0  0  0  0  0  0  0
   -0.5463    4.7407    1.3010 H   0  0  0  0  0  0  0  0  0  0  0  0
    3.9567    3.9730    3.1450 H   0  0  0  0  0  0  0  0  0  0  0  0
    2.8121    7.5682    6.4023 H   0  0  0  0  0  0  0  0  0  0  0  0
    2.4204    7.4151    8.7434 H   0  0  0  0  0  0  0  0  0  0  0  0
    0.8842    7.0972    7.9763 H   0  0  0  0  0  0  0  0  0  0  0  0
    4.5137    5.7371    6.0197 H   0  0  0  0  0  0  0  0  0  0  0  0
    4.6615    6.6376    7.5191 H   0  0  0  0  0  0  0  0  0  0  0  0
    1.3817    5.5563    9.9135 H   0  0  0  0  0  0  0  0  0  0  0  0
    3.5548    3.8046    7.2060 H   0  0  0  0  0  0  0  0  0  0  0  0
    5.0328    4.2951    8.0157 H   0  0  0  0  0  0  0  0  0  0  0  0
    3.7876    5.4322    9.7871 H   0  0  0  0  0  0  0  0  0  0  0  0
   -0.9230    3.6988    7.8283 H   0  0  0  0  0  0  0  0  0  0  0  0
   -0.7743    5.4548    7.8286 H   0  0  0  0  0  0  0  0  0  0  0  0
   -0.7764    4.5546    9.3646 H   0  0  0  0  0  0  0  0  0  0  0  0
  1  2  1  0  0  0  0 
  3  1  1  0  0  0  0 
  4  3  1  0  0  0  0 
  3  5  1  0  0  0  0 
  4  6  1  0  0  0  0 
  7  4  1  0  0  0  0 
  4 58  1  0  0  0  0 
  8  5  1  0  0  0  0 
  9  6  1  0  0  0  0 
  7 10  1  0  0  0  0 
  7 11  1  0  0  0  0 
  9  8  1  0  0  0  0 
  8 12  1  0  0  0  0 
  9 13  1  0  0  0  0 
  9 14  1  0  0  0  0 
 10 15  1  0  0  0  0 
 16 11  1  0  0  0  0 
 14 17  2  0  0  0  0 
 14 18  1  0  0  0  0 
 16 19  1  0  0  0  0 
 16 20  1  0  0  0  0 
 18 21  2  0  0  0  0 
 18 22  1  0  0  0  0 
 20 23  1  0  0  0  0 
 24 22  1  0  0  0  0 
 22 25  1  0  0  0  0 
 23 26  1  0  0  0  0 
 23 27  2  0  0  0  0 
 24 28  1  0  0  0  0 
 24 29  1  0  0  0  0 
 24 57  1  0  0  0  0 
 25 30  1  0  0  0  0 
 31 27  1  0  0  0  0 
 28 32  2  0  0  0  0 
 28 33  1  0  0  0  0 
 29 34  1  0  0  0  0 
 30 34  1  0  0  0  0 
 31 35  1  0  0  0  0 
 31 36  1  0  0  0  0 
 37 33  1  0  0  0  0 
 35 38  1  0  0  0  0 
 36 39  2  0  0  0  0 
 36 40  1  0  0  0  0 
 37 41  1  0  0  0  0 
 42 37  1  0  0  0  0 
 43 40  1  0  0  0  0 
 41 44  2  0  0  0  0 
 41 45  1  0  0  0  0 
 43 42  1  0  0  0  0 
 42 46  1  0  0  0  0 
 43 47  1  0  0  0  0 
 48 44  1  0  0  0  0 
 48 49  1  0  0  0  0 
 48 50  1  0  0  0  0 
 51 49  1  0  0  0  0 
 50 52  1  0  0  0  0 
 51 53  1  0  0  0  0 
 54 51  1  0  0  0  0 
 54 52  1  0  0  0  0 
 53 55  1  0  0  0  0 
 54 56  1  0  0  0  0 
  2 59  1  0  0  0  0 
  2 60  1  0  0  0  0 
  2 61  1  0  0  0  0 
  3 62  1  0  0  0  0 
  5 63  1  0  0  0  0 
  5 64  1  0  0  0  0 
  7 65  1  0  0  0  0 
  8 66  1  0  0  0  0 
 11 67  1  0  0  0  0 
 11 68  1  0  0  0  0 
 12 69  1  0  0  0  0 
 12 70  1  0  0  0  0 
 12 71  1  0  0  0  0 
 13 72  1  0  0  0  0 
 15 73  1  0  0  0  0 
 15 74  1  0  0  0  0 
 15 75  1  0  0  0  0 
 16 76  1  0  0  0  0 
 19 77  1  0  0  0  0 
 19 78  1  0  0  0  0 
 19 79  1  0  0  0  0 
 20 80  1  0  0  0  0 
 20 81  1  0  0  0  0 
 25 82  1  0  0  0  0 
 25 83  1  0  0  0  0 
 26 84  1  0  0  0  0 
 26 85  1  0  0  0  0 
 26 86  1  0  0  0  0 
 27 87  1  0  0  0  0 
 29 88  1  0  0  0  0 
 29 89  1  0  0  0  0 
 30 90  1  0  0  0  0 
 30 91  1  0  0  0  0 
 31 92  1  0  0  0  0 
 34 93  1  0  0  0  0 
 34 94  1  0  0  0  0 
 35 95  1  0  0  0  0 
 35 96  1  0  0  0  0 
 37 97  1  0  0  0  0 
 38 98  1  0  0  0  0 
 38 99  1  0  0  0  0 
 38100  1  0  0  0  0 
 40101  1  0  0  0  0 
 40102  1  0  0  0  0 
 42103  1  0  0  0  0 
 43104  1  0  0  0  0 
 44105  1  0  0  0  0 
 45106  1  0  0  0  0 
 45107  1  0  0  0  0 
 45108  1  0  0  0  0 
 46109  1  0  0  0  0 
 46110  1  0  0  0  0 
 46111  1  0  0  0  0 
 47112  1  0  0  0  0 
 48113  1  0  0  0  0 
 49114  1  0  0  0  0 
 49115  1  0  0  0  0 
 50116  1  0  0  0  0 
 50117  1  0  0  0  0 
 51118  1  0  0  0  0 
 52119  1  0  0  0  0 
 52120  1  0  0  0  0 
 54121  1  0  0  0  0 
 55122  1  0  0  0  0 
 55123  1  0  0  0  0 
 55124  1  0  0  0  0 
M  END
> <cdk:Title>
pimecrolimus

> <Conformer>
1

> <SuperDrugID>
SD001945

$$$$
