norpipanone
  CDK     0628171801

 54 56  0  0  0  0  0  0  0  0999 V2000
   -0.1425    2.4568    2.5280 C   0  0  2  0  0  0  0  0  0  0  0  0
   -1.0852    3.7158    2.7557 C   0  0  2  0  0  0  0  0  0  0  0  0
    1.2517    2.8142    3.0189 C   0  0  0  0  0  0  0  0  0  0  0  0
    0.1065    2.0595    1.0731 C   0  0  0  0  0  0  0  0  0  0  0  0
   -0.7674    1.3262    3.3503 C   0  0  0  0  0  0  0  0  0  0  0  0
   -2.6268    3.5290    2.5824 C   0  0  1  0  0  0  0  0  0  0  0  0
    2.0130    4.0232    2.6015 C   0  0  1  0  0  0  0  0  0  0  0  0
    1.8836    2.0315    3.7715 O   0  0  0  0  0  0  0  0  0  0  0  0
   -0.4684    2.7148   -0.0498 C   0  0  0  0  0  0  0  0  0  0  0  0
    0.9805    0.9696    0.7881 C   0  0  0  0  0  0  0  0  0  0  0  0
   -1.4590    0.2299    2.7616 C   0  0  0  0  0  0  0  0  0  0  0  0
   -0.7456    1.3714    4.7740 C   0  0  0  0  0  0  0  0  0  0  0  0
   -3.3799    4.8319    2.5704 N   0  0  2  0  0  0  0  0  0  0  0  0
    2.2847    4.9838    3.7816 C   0  0  0  0  0  0  0  0  0  0  0  0
   -0.1914    2.3029   -1.3680 C   0  0  0  0  0  0  0  0  0  0  0  0
    1.2711    0.5605   -0.5243 C   0  0  0  0  0  0  0  0  0  0  0  0
   -2.0452   -0.7833    3.5426 C   0  0  0  0  0  0  0  0  0  0  0  0
   -1.3276    0.3623    5.5626 C   0  0  0  0  0  0  0  0  0  0  0  0
   -3.4289    5.5165    3.9069 C   0  0  2  0  0  0  0  0  0  0  0  0
   -4.7395    4.7116    1.9470 C   0  0  1  0  0  0  0  0  0  0  0  0
    0.6769    1.2260   -1.6055 C   0  0  0  0  0  0  0  0  0  0  0  0
   -1.9758   -0.7180    4.9432 C   0  0  0  0  0  0  0  0  0  0  0  0
   -4.1155    6.9024    3.8309 C   0  0  2  0  0  0  0  0  0  0  0  0
   -5.4566    6.0810    1.8325 C   0  0  1  0  0  0  0  0  0  0  0  0
   -5.5253    6.7947    3.2038 C   0  0  1  0  0  0  0  0  0  0  0  0
   -0.7902    4.5394    2.1027 H   0  0  0  0  0  0  0  0  0  0  0  0
   -0.9239    4.0711    3.7754 H   0  0  0  0  0  0  0  0  0  0  0  0
   -2.7924    2.9938    1.6449 H   0  0  0  0  0  0  0  0  0  0  0  0
   -3.0168    2.8924    3.3827 H   0  0  0  0  0  0  0  0  0  0  0  0
    2.9679    3.6984    2.1812 H   0  0  0  0  0  0  0  0  0  0  0  0
    1.4955    4.5705    1.8119 H   0  0  0  0  0  0  0  0  0  0  0  0
   -1.1013    3.5040    0.0680 H   0  0  0  0  0  0  0  0  0  0  0  0
    1.4220    0.4555    1.5523 H   0  0  0  0  0  0  0  0  0  0  0  0
   -1.5607    0.1584    1.7475 H   0  0  0  0  0  0  0  0  0  0  0  0
   -0.2998    2.1543    5.2580 H   0  0  0  0  0  0  0  0  0  0  0  0
    2.8514    5.8482    3.4311 H   0  0  0  0  0  0  0  0  0  0  0  0
    1.3457    5.3352    4.2140 H   0  0  0  0  0  0  0  0  0  0  0  0
    2.8649    4.4808    4.5581 H   0  0  0  0  0  0  0  0  0  0  0  0
   -0.6221    2.7870   -2.1589 H   0  0  0  0  0  0  0  0  0  0  0  0
    1.9103   -0.2213   -0.6895 H   0  0  0  0  0  0  0  0  0  0  0  0
   -2.5282   -1.5640    3.0904 H   0  0  0  0  0  0  0  0  0  0  0  0
   -1.2811    0.4174    6.5845 H   0  0  0  0  0  0  0  0  0  0  0  0
   -2.4215    5.6930    4.2857 H   0  0  0  0  0  0  0  0  0  0  0  0
   -3.9558    4.8900    4.6335 H   0  0  0  0  0  0  0  0  0  0  0  0
   -4.6480    4.3084    0.9348 H   0  0  0  0  0  0  0  0  0  0  0  0
   -5.3649    4.0255    2.5272 H   0  0  0  0  0  0  0  0  0  0  0  0
    0.8772    0.9271   -2.5626 H   0  0  0  0  0  0  0  0  0  0  0  0
   -2.3999   -1.4531    5.5107 H   0  0  0  0  0  0  0  0  0  0  0  0
   -3.4996    7.5731    3.2251 H   0  0  0  0  0  0  0  0  0  0  0  0
   -4.1929    7.3291    4.8345 H   0  0  0  0  0  0  0  0  0  0  0  0
   -4.9150    6.7137    1.1238 H   0  0  0  0  0  0  0  0  0  0  0  0
   -6.4695    5.9343    1.4488 H   0  0  0  0  0  0  0  0  0  0  0  0
   -6.1848    6.2379    3.8765 H   0  0  0  0  0  0  0  0  0  0  0  0
   -5.9440    7.7960    3.0740 H   0  0  0  0  0  0  0  0  0  0  0  0
  1  2  1  0  0  0  0 
  1  3  1  0  0  0  0 
  1  4  1  0  0  0  0 
  1  5  1  0  0  0  0 
  2  6  1  0  0  0  0 
  3  7  1  0  0  0  0 
  3  8  2  0  0  0  0 
  4  9  2  0  0  0  0 
  4 10  1  0  0  0  0 
  5 11  2  0  0  0  0 
  5 12  1  0  0  0  0 
  6 13  1  0  0  0  0 
  7 14  1  0  0  0  0 
  9 15  1  0  0  0  0 
 10 16  2  0  0  0  0 
 11 17  1  0  0  0  0 
 12 18  2  0  0  0  0 
 13 19  1  0  0  0  0 
 13 20  1  0  0  0  0 
 15 21  2  0  0  0  0 
 16 21  1  0  0  0  0 
 17 22  2  0  0  0  0 
 18 22  1  0  0  0  0 
 19 23  1  0  0  0  0 
 20 24  1  0  0  0  0 
 23 25  1  0  0  0  0 
 24 25  1  0  0  0  0 
  2 26  1  0  0  0  0 
  2 27  1  0  0  0  0 
  6 28  1  0  0  0  0 
  6 29  1  0  0  0  0 
  7 30  1  0  0  0  0 
  7 31  1  0  0  0  0 
  9 32  1  0  0  0  0 
 10 33  1  0  0  0  0 
 11 34  1  0  0  0  0 
 12 35  1  0  0  0  0 
 14 36  1  0  0  0  0 
 14 37  1  0  0  0  0 
 14 38  1  0  0  0  0 
 15 39  1  0  0  0  0 
 16 40  1  0  0  0  0 
 17 41  1  0  0  0  0 
 18 42  1  0  0  0  0 
 19 43  1  0  0  0  0 
 19 44  1  0  0  0  0 
 20 45  1  0  0  0  0 
 20 46  1  0  0  0  0 
 21 47  1  0  0  0  0 
 22 48  1  0  0  0  0 
 23 49  1  0  0  0  0 
 23 50  1  0  0  0  0 
 24 51  1  0  0  0  0 
 24 52  1  0  0  0  0 
 25 53  1  0  0  0  0 
 25 54  1  0  0  0  0 
M  END
> <cdk:Title>
norpipanone

> <Conformer>
1

> <SuperDrugID>
SD003239

$$$$
