xyloylsulfamine
  CDK     0628171801

 37 38  0  0  0  0  0  0  0  0999 V2000
    0.2892   -0.9816    1.6064 C   0  0  0  0  0  0  0  0  0  0  0  0
    0.1196   -0.9445    0.2552 N   0  0  0  0  0  0  0  0  0  0  0  0
    0.3293    0.1060    2.2331 O   0  0  0  0  0  0  0  0  0  0  0  0
    0.4088   -2.2128    2.3210 C   0  0  0  0  0  0  0  0  0  0  0  0
   -0.0930    0.5018   -0.6498 S   0  0  1  0  0  0  0  0  0  0  0  0
    0.5641   -3.4566    1.6603 C   0  0  0  0  0  0  0  0  0  0  0  0
    0.3780   -2.2308    3.7347 C   0  0  0  0  0  0  0  0  0  0  0  0
    1.2954    1.3073   -0.6686 O   0  0  0  0  0  0  0  0  0  0  0  0
   -0.4781    0.0998   -2.1549 O   0  0  0  0  0  0  0  0  0  0  0  0
   -1.3996    1.4762    0.0511 C   0  0  0  0  0  0  0  0  0  0  0  0
    0.6904   -4.6802    2.3650 C   0  0  0  0  0  0  0  0  0  0  0  0
    0.5136   -3.4278    4.4532 C   0  0  0  0  0  0  0  0  0  0  0  0
   -2.5650    0.8421    0.5312 C   0  0  0  0  0  0  0  0  0  0  0  0
   -1.2931    2.8804    0.1358 C   0  0  0  0  0  0  0  0  0  0  0  0
    0.8351   -5.9502    1.5978 C   0  0  0  0  0  0  0  0  0  0  0  0
    0.6733   -4.6642    3.7891 C   0  0  0  0  0  0  0  0  0  0  0  0
   -3.6045    1.5997    1.1033 C   0  0  0  0  0  0  0  0  0  0  0  0
   -2.3356    3.6395    0.7033 C   0  0  0  0  0  0  0  0  0  0  0  0
    0.8219   -5.9028    4.6011 C   0  0  0  0  0  0  0  0  0  0  0  0
   -3.4894    3.0005    1.2008 C   0  0  0  0  0  0  0  0  0  0  0  0
   -4.4751    3.7223    1.7708 N   0  0  0  0  0  0  0  0  0  0  0  0
    0.1011   -1.7809   -0.2340 H   0  0  0  0  0  0  0  0  0  0  0  0
    0.5925   -3.4812    0.6391 H   0  0  0  0  0  0  0  0  0  0  0  0
    0.2534   -1.3659    4.2666 H   0  0  0  0  0  0  0  0  0  0  0  0
    0.4949   -3.3833    5.4754 H   0  0  0  0  0  0  0  0  0  0  0  0
   -2.6631   -0.1748    0.4710 H   0  0  0  0  0  0  0  0  0  0  0  0
   -0.4586    3.3579   -0.2133 H   0  0  0  0  0  0  0  0  0  0  0  0
    0.0245   -6.6362    1.8488 H   0  0  0  0  0  0  0  0  0  0  0  0
    0.8069   -5.7881    0.5193 H   0  0  0  0  0  0  0  0  0  0  0  0
    1.7870   -6.4256    1.8370 H   0  0  0  0  0  0  0  0  0  0  0  0
   -4.4425    1.1245    1.4490 H   0  0  0  0  0  0  0  0  0  0  0  0
   -2.2487    4.6577    0.7522 H   0  0  0  0  0  0  0  0  0  0  0  0
    0.0492   -6.6233    4.3316 H   0  0  0  0  0  0  0  0  0  0  0  0
    0.7336   -5.7113    5.6721 H   0  0  0  0  0  0  0  0  0  0  0  0
    1.8022   -6.3475    4.4219 H   0  0  0  0  0  0  0  0  0  0  0  0
   -4.3959    4.6861    1.8413 H   0  0  0  0  0  0  0  0  0  0  0  0
   -5.2651    3.2794    2.1180 H   0  0  0  0  0  0  0  0  0  0  0  0
  1  2  1  0  0  0  0 
  1  3  2  0  0  0  0 
  1  4  1  0  0  0  0 
  2  5  1  0  0  0  0 
  4  6  2  0  0  0  0 
  4  7  1  0  0  0  0 
  5  8  2  0  0  0  0 
  5  9  2  0  0  0  0 
  5 10  1  0  0  0  0 
  6 11  1  0  0  0  0 
  7 12  2  0  0  0  0 
 10 13  2  0  0  0  0 
 10 14  1  0  0  0  0 
 11 15  1  0  0  0  0 
 11 16  2  0  0  0  0 
 12 16  1  0  0  0  0 
 13 17  1  0  0  0  0 
 14 18  2  0  0  0  0 
 16 19  1  0  0  0  0 
 17 20  2  0  0  0  0 
 18 20  1  0  0  0  0 
 20 21  1  0  0  0  0 
  2 22  1  0  0  0  0 
  6 23  1  0  0  0  0 
  7 24  1  0  0  0  0 
 12 25  1  0  0  0  0 
 13 26  1  0  0  0  0 
 14 27  1  0  0  0  0 
 15 28  1  0  0  0  0 
 15 29  1  0  0  0  0 
 15 30  1  0  0  0  0 
 17 31  1  0  0  0  0 
 18 32  1  0  0  0  0 
 19 33  1  0  0  0  0 
 19 34  1  0  0  0  0 
 19 35  1  0  0  0  0 
 21 36  1  0  0  0  0 
 21 37  1  0  0  0  0 
M  END
> <cdk:Title>
xyloylsulfamine

> <Conformer>
1

> <SuperDrugID>
SD003064

$$$$
