embramine
  CDK     0628171802

 43 44  0  0  0  0  0  0  0  0999 V2000
    0.1464   -1.0944    0.2298 C   0  0  2  0  0  0  0  0  0  0  0  0
   -0.9991   -0.5526   -0.4994 O   0  0  0  0  0  0  0  0  0  0  0  0
    0.9001   -2.0884   -0.7259 C   0  0  0  0  0  0  0  0  0  0  0  0
   -0.3564   -1.6835    1.5307 C   0  0  0  0  0  0  0  0  0  0  0  0
    1.1162    0.0252    0.5614 C   0  0  0  0  0  0  0  0  0  0  0  0
   -2.0497   -1.4289   -0.9760 C   0  0  2  0  0  0  0  0  0  0  0  0
   -0.0785   -3.0115    1.9518 C   0  0  0  0  0  0  0  0  0  0  0  0
   -1.1525   -0.8797    2.3896 C   0  0  0  0  0  0  0  0  0  0  0  0
    0.9190    1.3691    0.1414 C   0  0  0  0  0  0  0  0  0  0  0  0
    2.2844   -0.2443    1.3270 C   0  0  0  0  0  0  0  0  0  0  0  0
   -3.1813   -0.5777   -1.5973 C   0  0  1  0  0  0  0  0  0  0  0  0
   -0.5600   -3.5068    3.1757 C   0  0  0  0  0  0  0  0  0  0  0  0
   -1.6390   -1.3741    3.6131 C   0  0  0  0  0  0  0  0  0  0  0  0
    1.8461    2.3814    0.4560 C   0  0  0  0  0  0  0  0  0  0  0  0
    3.2118    0.7641    1.6445 C   0  0  0  0  0  0  0  0  0  0  0  0
   -3.8176    0.4169   -0.6729 N   0  0  2  0  0  0  0  0  0  0  0  0
   -1.3328   -2.6857    4.0149 C   0  0  0  0  0  0  0  0  0  0  0  0
    2.9975    2.0783    1.2003 C   0  0  0  0  0  0  0  0  0  0  0  0
   -4.6020   -0.1982    0.4395 C   0  0  0  0  0  0  0  0  0  0  0  0
   -4.6288    1.4215   -1.4240 C   0  0  0  0  0  0  0  0  0  0  0  0
   -1.9302   -3.3221    5.6578 Br  0  0  0  0  0  0  0  0  0  0  0  0
    1.8439   -2.4359   -0.3030 H   0  0  0  0  0  0  0  0  0  0  0  0
    0.3002   -2.9761   -0.9274 H   0  0  0  0  0  0  0  0  0  0  0  0
    1.1134   -1.6092   -1.6831 H   0  0  0  0  0  0  0  0  0  0  0  0
   -2.4478   -2.0602   -0.1797 H   0  0  0  0  0  0  0  0  0  0  0  0
   -1.6702   -2.0838   -1.7644 H   0  0  0  0  0  0  0  0  0  0  0  0
    0.4876   -3.6414    1.3814 H   0  0  0  0  0  0  0  0  0  0  0  0
   -1.3854    0.0820    2.1265 H   0  0  0  0  0  0  0  0  0  0  0  0
    0.0955    1.6343   -0.4018 H   0  0  0  0  0  0  0  0  0  0  0  0
    2.4723   -1.1898    1.6662 H   0  0  0  0  0  0  0  0  0  0  0  0
   -2.7240   -0.0487   -2.4406 H   0  0  0  0  0  0  0  0  0  0  0  0
   -3.9450   -1.2451   -2.0093 H   0  0  0  0  0  0  0  0  0  0  0  0
   -0.3413   -4.4666    3.4534 H   0  0  0  0  0  0  0  0  0  0  0  0
   -2.2145   -0.7770    4.2113 H   0  0  0  0  0  0  0  0  0  0  0  0
    1.6850    3.3418    0.1427 H   0  0  0  0  0  0  0  0  0  0  0  0
    4.0423    0.5420    2.1980 H   0  0  0  0  0  0  0  0  0  0  0  0
    3.6772    2.8110    1.4185 H   0  0  0  0  0  0  0  0  0  0  0  0
   -3.9671   -0.8221    1.0683 H   0  0  0  0  0  0  0  0  0  0  0  0
   -5.0224    0.5751    1.0859 H   0  0  0  0  0  0  0  0  0  0  0  0
   -5.4214   -0.8079    0.0514 H   0  0  0  0  0  0  0  0  0  0  0  0
   -4.0186    1.9257   -2.1775 H   0  0  0  0  0  0  0  0  0  0  0  0
   -5.0109    2.1917   -0.7508 H   0  0  0  0  0  0  0  0  0  0  0  0
   -5.4748    0.9431   -1.9247 H   0  0  0  0  0  0  0  0  0  0  0  0
  1  2  1  0  0  0  0 
  1  3  1  0  0  0  0 
  1  4  1  0  0  0  0 
  1  5  1  0  0  0  0 
  2  6  1  0  0  0  0 
  4  7  2  0  0  0  0 
  4  8  1  0  0  0  0 
  5  9  2  0  0  0  0 
  5 10  1  0  0  0  0 
  6 11  1  0  0  0  0 
  7 12  1  0  0  0  0 
  8 13  2  0  0  0  0 
  9 14  1  0  0  0  0 
 10 15  2  0  0  0  0 
 11 16  1  0  0  0  0 
 12 17  2  0  0  0  0 
 13 17  1  0  0  0  0 
 14 18  2  0  0  0  0 
 15 18  1  0  0  0  0 
 16 19  1  0  0  0  0 
 16 20  1  0  0  0  0 
 17 21  1  0  0  0  0 
  3 22  1  0  0  0  0 
  3 23  1  0  0  0  0 
  3 24  1  0  0  0  0 
  6 25  1  0  0  0  0 
  6 26  1  0  0  0  0 
  7 27  1  0  0  0  0 
  8 28  1  0  0  0  0 
  9 29  1  0  0  0  0 
 10 30  1  0  0  0  0 
 11 31  1  0  0  0  0 
 11 32  1  0  0  0  0 
 12 33  1  0  0  0  0 
 13 34  1  0  0  0  0 
 14 35  1  0  0  0  0 
 15 36  1  0  0  0  0 
 18 37  1  0  0  0  0 
 19 38  1  0  0  0  0 
 19 39  1  0  0  0  0 
 19 40  1  0  0  0  0 
 20 41  1  0  0  0  0 
 20 42  1  0  0  0  0 
 20 43  1  0  0  0  0 
M  END
> <cdk:Title>
embramine

> <Conformer>
1

> <SuperDrugID>
SD000886

$$$$
