phenylalanine
  CDK     0628171801

 23 23  0  0  0  0  0  0  0  0999 V2000
    3.1008    3.0425   -2.3138 N   0  0  2  0  0  0  0  0  0  0  0  0
    2.2763    3.3147   -1.1260 C   0  0  1  0  0  0  0  0  0  0  0  0
    3.0828    4.1262   -0.0677 C   0  0  2  0  0  0  0  0  0  0  0  0
    2.2965    4.4349    1.1641 C   0  0  0  0  0  0  0  0  0  0  0  0
    1.9701    5.7684    1.5143 C   0  0  0  0  0  0  0  0  0  0  0  0
    1.1770    6.0414    2.6449 C   0  0  0  0  0  0  0  0  0  0  0  0
    0.7021    4.9851    3.4427 C   0  0  0  0  0  0  0  0  0  0  0  0
    1.0363    3.6574    3.1220 C   0  0  0  0  0  0  0  0  0  0  0  0
    1.8386    3.3868    1.9990 C   0  0  0  0  0  0  0  0  0  0  0  0
    1.0319    3.9979   -1.5361 C   0  0  0  0  0  0  0  0  0  0  0  0
   -0.1665    3.4502   -1.2300 O   0  0  0  0  0  0  0  0  0  0  0  0
    1.0618    5.0961   -2.1373 O   0  0  0  0  0  0  0  0  0  0  0  0
    2.5624    2.4159   -2.9165 H   0  0  0  0  0  0  0  0  0  0  0  0
    3.9198    2.5139   -2.0031 H   0  0  0  0  0  0  0  0  0  0  0  0
    2.0196    2.3426   -0.6965 H   0  0  0  0  0  0  0  0  0  0  0  0
    3.4506    5.0467   -0.5332 H   0  0  0  0  0  0  0  0  0  0  0  0
    3.9633    3.5479    0.2260 H   0  0  0  0  0  0  0  0  0  0  0  0
    2.3015    6.5523    0.9461 H   0  0  0  0  0  0  0  0  0  0  0  0
    0.9440    7.0079    2.8850 H   0  0  0  0  0  0  0  0  0  0  0  0
    0.1154    5.1818    4.2560 H   0  0  0  0  0  0  0  0  0  0  0  0
    0.6966    2.8878    3.7041 H   0  0  0  0  0  0  0  0  0  0  0  0
    2.0809    2.4150    1.7915 H   0  0  0  0  0  0  0  0  0  0  0  0
   -0.9976    3.9092   -1.4712 H   0  0  0  0  0  0  0  0  0  0  0  0
  2  1  1  0  0  0  0 
  2  3  1  0  0  0  0 
  3  4  1  0  0  0  0 
  4  5  2  0  0  0  0 
  5  6  1  0  0  0  0 
  6  7  2  0  0  0  0 
  7  8  1  0  0  0  0 
  8  9  2  0  0  0  0 
  4  9  1  0  0  0  0 
  2 10  1  0  0  0  0 
 10 11  1  0  0  0  0 
 10 12  2  0  0  0  0 
  1 13  1  0  0  0  0 
  1 14  1  0  0  0  0 
  2 15  1  0  0  0  0 
  3 16  1  0  0  0  0 
  3 17  1  0  0  0  0 
  5 18  1  0  0  0  0 
  6 19  1  0  0  0  0 
  7 20  1  0  0  0  0 
  8 21  1  0  0  0  0 
  9 22  1  0  0  0  0 
 11 23  1  0  0  0  0 
M  END
> <cdk:Title>
phenylalanine

> <Conformer>
1

> <SuperDrugID>
SD001924

$$$$
