etoposide phosphate
  CDK     0628171801

 79 85  0  0  0  0  0  0  0  0999 V2000
   -0.0398    5.8450   -1.8869 O   0  0  0  0  0  0  0  0  0  0  0  0
    1.1804    6.0726   -2.0367 C   0  0  0  0  0  0  0  0  0  0  0  0
    1.9937    5.6624   -3.1866 C   0  0  2  0  0  0  0  0  0  0  0  0
    1.9028    6.8366   -1.1825 O   0  0  0  0  0  0  0  0  0  0  0  0
    1.7907    4.2950   -3.9164 C   0  0  1  0  0  0  0  0  0  0  0  0
    3.3983    5.7367   -2.5541 C   0  0  2  0  0  0  0  0  0  0  0  0
    3.2811    6.9082   -1.5540 C   0  0  2  0  0  0  0  0  0  0  0  0
    2.9798    3.9557   -4.7810 C   0  0  0  0  0  0  0  0  0  0  0  0
    1.4510    3.1458   -3.0024 C   0  0  0  0  0  0  0  0  0  0  0  0
    4.4825    5.7361   -3.6688 C   0  0  1  0  0  0  0  0  0  0  0  0
    4.2696    4.5534   -4.5802 C   0  0  0  0  0  0  0  0  0  0  0  0
    2.8339    2.9314   -5.7528 C   0  0  0  0  0  0  0  0  0  0  0  0
    2.4483    2.3234   -2.4167 C   0  0  0  0  0  0  0  0  0  0  0  0
    0.0997    2.8250   -2.7344 C   0  0  0  0  0  0  0  0  0  0  0  0
    4.4529    7.0001   -4.3970 O   0  0  0  0  0  0  0  0  0  0  0  0
    5.3891    4.0156   -5.2687 C   0  0  0  0  0  0  0  0  0  0  0  0
    3.9551    2.4759   -6.4607 C   0  0  0  0  0  0  0  0  0  0  0  0
    2.1180    1.2119   -1.6218 C   0  0  0  0  0  0  0  0  0  0  0  0
   -0.2455    1.7306   -1.9170 C   0  0  0  0  0  0  0  0  0  0  0  0
    5.4910    7.2189   -5.3831 C   0  0  2  0  0  0  0  0  0  0  0  0
    5.2096    2.9961   -6.2116 C   0  0  0  0  0  0  0  0  0  0  0  0
    3.9928    1.5187   -7.4061 O   0  0  0  0  0  0  0  0  0  0  0  0
    3.1166    0.4140   -1.1310 O   0  0  0  0  0  0  0  0  0  0  0  0
    0.7647    0.9413   -1.3242 C   0  0  0  0  0  0  0  0  0  0  0  0
   -1.5629    1.4379   -1.6971 O   0  0  0  0  0  0  0  0  0  0  0  0
    6.7851    7.0335   -4.7599 O   0  0  0  0  0  0  0  0  0  0  0  0
    5.3943    8.6352   -6.0144 C   0  0  2  0  0  0  0  0  0  0  0  0
    6.1563    2.4166   -6.9746 O   0  0  0  0  0  0  0  0  0  0  0  0
    5.3530    1.6242   -7.8705 C   0  0  2  0  0  0  0  0  0  0  0  0
    3.4704   -0.6628   -2.0197 C   0  0  0  0  0  0  0  0  0  0  0  0
    0.4273   -0.1194   -0.5260 O   0  0  0  0  0  0  0  0  0  0  0  0
   -2.0991    0.5288   -2.6762 C   0  0  0  0  0  0  0  0  0  0  0  0
    7.8856    7.1335   -5.6795 C   0  0  1  0  0  0  0  0  0  0  0  0
    4.1627    8.7794   -6.7217 O   0  0  0  0  0  0  0  0  0  0  0  0
    6.5908    8.8785   -6.9877 C   0  0  2  0  0  0  0  0  0  0  0  0
    0.3908    0.2485    1.0281 P   0  0  2  0  0  0  0  0  0  0  0  0
    7.9452    8.5605   -6.2919 C   0  0  2  0  0  0  0  0  0  0  0  0
    9.2320    6.8457   -4.9770 C   0  0  1  0  0  0  0  0  0  0  0  0
    6.5867   10.2279   -7.4503 O   0  0  0  0  0  0  0  0  0  0  0  0
    1.7043    0.6916    1.5074 O   0  0  0  0  0  0  0  0  0  0  0  0
   -0.0566   -1.0495    1.8192 O   0  0  0  0  0  0  0  0  0  0  0  0
   -0.6988    1.3686    1.2859 O   0  0  0  0  0  0  0  0  0  0  0  0
    9.0639    8.6256   -7.2045 O   0  0  0  0  0  0  0  0  0  0  0  0
   10.3130    7.0224   -5.9126 O   0  0  0  0  0  0  0  0  0  0  0  0
   10.3214    8.3236   -6.5474 C   0  0  1  0  0  0  0  0  0  0  0  0
   11.4778    8.3521   -7.6153 C   0  0  0  0  0  0  0  0  0  0  0  0
    1.8835    6.4625   -3.9306 H   0  0  0  0  0  0  0  0  0  0  0  0
    3.5663    4.8460   -1.9353 H   0  0  0  0  0  0  0  0  0  0  0  0
    5.3531    6.5050   -6.1992 H   0  0  0  0  0  0  0  0  0  0  0  0
    7.7696    6.3949   -6.4825 H   0  0  0  0  0  0  0  0  0  0  0  0
    8.0853    9.3030   -5.4951 H   0  0  0  0  0  0  0  0  0  0  0  0
    0.9491    4.4571   -4.5997 H   0  0  0  0  0  0  0  0  0  0  0  0
    3.9218    6.7560   -0.6831 H   0  0  0  0  0  0  0  0  0  0  0  0
    3.4918    7.8758   -2.0109 H   0  0  0  0  0  0  0  0  0  0  0  0
    5.4396    5.6345   -3.1446 H   0  0  0  0  0  0  0  0  0  0  0  0
    1.9257    2.5001   -5.9327 H   0  0  0  0  0  0  0  0  0  0  0  0
    3.4388    2.5150   -2.5763 H   0  0  0  0  0  0  0  0  0  0  0  0
   -0.6484    3.3916   -3.1399 H   0  0  0  0  0  0  0  0  0  0  0  0
    6.3348    4.3693   -5.1075 H   0  0  0  0  0  0  0  0  0  0  0  0
    5.4195    9.3790   -5.2150 H   0  0  0  0  0  0  0  0  0  0  0  0
    5.3583    2.0863   -8.8630 H   0  0  0  0  0  0  0  0  0  0  0  0
    5.7834    0.6250   -7.9555 H   0  0  0  0  0  0  0  0  0  0  0  0
    4.2587   -1.2483   -1.5465 H   0  0  0  0  0  0  0  0  0  0  0  0
    2.6218   -1.3261   -2.2050 H   0  0  0  0  0  0  0  0  0  0  0  0
    3.8557   -0.2899   -2.9720 H   0  0  0  0  0  0  0  0  0  0  0  0
   -3.1390    0.3272   -2.4189 H   0  0  0  0  0  0  0  0  0  0  0  0
   -2.0756    0.9664   -3.6772 H   0  0  0  0  0  0  0  0  0  0  0  0
   -1.5617   -0.4236   -2.6856 H   0  0  0  0  0  0  0  0  0  0  0  0
    3.4580    8.7186   -6.0430 H   0  0  0  0  0  0  0  0  0  0  0  0
    6.4800    8.2319   -7.8659 H   0  0  0  0  0  0  0  0  0  0  0  0
    9.3739    7.4937   -4.1053 H   0  0  0  0  0  0  0  0  0  0  0  0
    9.2408    5.8109   -4.6317 H   0  0  0  0  0  0  0  0  0  0  0  0
    6.7042   10.7730   -6.6437 H   0  0  0  0  0  0  0  0  0  0  0  0
   -0.9709   -1.2232    1.5143 H   0  0  0  0  0  0  0  0  0  0  0  0
   -1.5366    0.9764    0.9622 H   0  0  0  0  0  0  0  0  0  0  0  0
   10.5463    9.0959   -5.8050 H   0  0  0  0  0  0  0  0  0  0  0  0
   11.6483    9.3030   -8.1886 H   0  0  0  0  0  0  0  0  0  0  0  0
   12.4130    8.1124   -7.1051 H   0  0  0  0  0  0  0  0  0  0  0  0
   11.2978    7.5632   -8.3470 H   0  0  0  0  0  0  0  0  0  0  0  0
  1  2  2  0  0  0  0 
  3  2  1  0  0  0  0 
  2  4  1  0  0  0  0 
  3  5  1  0  0  0  0 
  6  3  1  0  0  0  0 
  3 47  1  0  0  0  0 
  4  7  1  0  0  0  0 
  5  8  1  0  0  0  0 
  5  9  1  0  0  0  0 
  6  7  1  0  0  0  0 
 10  6  1  0  0  0  0 
  6 48  1  0  0  0  0 
  8 11  2  0  0  0  0 
  8 12  1  0  0  0  0 
  9 13  2  0  0  0  0 
  9 14  1  0  0  0  0 
 10 11  1  0  0  0  0 
 10 15  1  0  0  0  0 
 11 16  1  0  0  0  0 
 12 17  2  0  0  0  0 
 13 18  1  0  0  0  0 
 14 19  2  0  0  0  0 
 20 15  1  0  0  0  0 
 16 21  2  0  0  0  0 
 17 21  1  0  0  0  0 
 17 22  1  0  0  0  0 
 18 23  1  0  0  0  0 
 18 24  2  0  0  0  0 
 19 24  1  0  0  0  0 
 19 25  1  0  0  0  0 
 20 26  1  0  0  0  0 
 27 20  1  0  0  0  0 
 20 49  1  0  0  0  0 
 21 28  1  0  0  0  0 
 22 29  1  0  0  0  0 
 23 30  1  0  0  0  0 
 24 31  1  0  0  0  0 
 25 32  1  0  0  0  0 
 33 26  1  0  0  0  0 
 27 34  1  0  0  0  0 
 27 35  1  0  0  0  0 
 28 29  1  0  0  0  0 
 31 36  1  0  0  0  0 
 37 33  1  0  0  0  0 
 33 38  1  0  0  0  0 
 33 50  1  0  0  0  0 
 35 37  1  0  0  0  0 
 35 39  1  0  0  0  0 
 36 40  2  0  0  0  0 
 36 41  1  0  0  0  0 
 36 42  1  0  0  0  0 
 37 43  1  0  0  0  0 
 37 51  1  0  0  0  0 
 38 44  1  0  0  0  0 
 45 43  1  0  0  0  0 
 45 44  1  0  0  0  0 
 45 46  1  0  0  0  0 
  5 52  1  0  0  0  0 
  7 53  1  0  0  0  0 
  7 54  1  0  0  0  0 
 10 55  1  0  0  0  0 
 12 56  1  0  0  0  0 
 13 57  1  0  0  0  0 
 14 58  1  0  0  0  0 
 16 59  1  0  0  0  0 
 27 60  1  0  0  0  0 
 29 61  1  0  0  0  0 
 29 62  1  0  0  0  0 
 30 63  1  0  0  0  0 
 30 64  1  0  0  0  0 
 30 65  1  0  0  0  0 
 32 66  1  0  0  0  0 
 32 67  1  0  0  0  0 
 32 68  1  0  0  0  0 
 34 69  1  0  0  0  0 
 35 70  1  0  0  0  0 
 38 71  1  0  0  0  0 
 38 72  1  0  0  0  0 
 39 73  1  0  0  0  0 
 41 74  1  0  0  0  0 
 42 75  1  0  0  0  0 
 45 76  1  0  0  0  0 
 46 77  1  0  0  0  0 
 46 78  1  0  0  0  0 
 46 79  1  0  0  0  0 
M  END
> <cdk:Title>
etoposide phosphate

> <Conformer>
1

> <SuperDrugID>
SD003304

$$$$
