metipranolol
  CDK     0628171801

 49 49  0  0  0  0  0  0  0  0999 V2000
    2.8793   -8.4064    1.0661 O   0  0  0  0  0  0  0  0  0  0  0  0
    2.3191   -7.5814    0.0212 C   0  0  2  0  0  0  0  0  0  0  0  0
    2.9588   -9.7449    0.7727 C   0  0  0  0  0  0  0  0  0  0  0  0
    2.2421   -6.1252    0.5517 C   0  0  2  0  0  0  0  0  0  0  0  0
    1.9512  -10.6628    1.1736 C   0  0  0  0  0  0  0  0  0  0  0  0
    4.1079  -10.1985    0.0994 C   0  0  0  0  0  0  0  0  0  0  0  0
    1.5554   -5.1443   -0.4347 C   0  0  2  0  0  0  0  0  0  0  0  0
    3.5590   -5.6577    0.8435 O   0  0  0  0  0  0  0  0  0  0  0  0
    0.7306  -10.1733    1.8836 C   0  0  0  0  0  0  0  0  0  0  0  0
    2.1289  -12.0540    0.8991 C   0  0  0  0  0  0  0  0  0  0  0  0
    4.2931  -11.5653   -0.1937 C   0  0  0  0  0  0  0  0  0  0  0  0
    1.4469   -3.7908    0.1650 N   0  0  1  0  0  0  0  0  0  0  0  0
    1.0786  -13.0469    1.2926 C   0  0  0  0  0  0  0  0  0  0  0  0
    3.3195  -12.4955    0.2548 C   0  0  0  0  0  0  0  0  0  0  0  0
    5.4871  -11.9515   -0.9950 C   0  0  0  0  0  0  0  0  0  0  0  0
    0.5489   -2.8266   -0.5286 C   0  0  1  0  0  0  0  0  0  0  0  0
    3.4894  -13.8430    0.0707 O   0  0  0  0  0  0  0  0  0  0  0  0
    0.3080   -1.6221    0.4147 C   0  0  0  0  0  0  0  0  0  0  0  0
    1.1227   -2.3505   -1.8885 C   0  0  0  0  0  0  0  0  0  0  0  0
    4.4710  -14.6503    0.5745 C   0  0  0  0  0  0  0  0  0  0  0  0
    4.4430  -16.0857    0.2658 C   0  0  0  0  0  0  0  0  0  0  0  0
    5.3758  -14.1985    1.3147 O   0  0  0  0  0  0  0  0  0  0  0  0
    1.3116   -7.9234   -0.2420 H   0  0  0  0  0  0  0  0  0  0  0  0
    2.9453   -7.6127   -0.8756 H   0  0  0  0  0  0  0  0  0  0  0  0
    1.6716   -6.1357    1.4871 H   0  0  0  0  0  0  0  0  0  0  0  0
    4.8150   -9.5127   -0.1840 H   0  0  0  0  0  0  0  0  0  0  0  0
    0.5591   -5.5245   -0.6759 H   0  0  0  0  0  0  0  0  0  0  0  0
    2.1423   -5.0926   -1.3531 H   0  0  0  0  0  0  0  0  0  0  0  0
    3.9016   -6.2662    1.5302 H   0  0  0  0  0  0  0  0  0  0  0  0
    0.6491  -10.6501    2.8625 H   0  0  0  0  0  0  0  0  0  0  0  0
    0.7248   -9.0966    2.0498 H   0  0  0  0  0  0  0  0  0  0  0  0
   -0.1570  -10.4139    1.2969 H   0  0  0  0  0  0  0  0  0  0  0  0
    1.0594   -3.9230    1.1025 H   0  0  0  0  0  0  0  0  0  0  0  0
    0.9414  -13.0379    2.3744 H   0  0  0  0  0  0  0  0  0  0  0  0
    1.3049  -14.0761    1.0133 H   0  0  0  0  0  0  0  0  0  0  0  0
    0.1366  -12.7914    0.8065 H   0  0  0  0  0  0  0  0  0  0  0  0
    5.4864  -13.0014   -1.2851 H   0  0  0  0  0  0  0  0  0  0  0  0
    5.5115  -11.3714   -1.9196 H   0  0  0  0  0  0  0  0  0  0  0  0
    6.4033  -11.7542   -0.4338 H   0  0  0  0  0  0  0  0  0  0  0  0
   -0.4241   -3.2962   -0.7080 H   0  0  0  0  0  0  0  0  0  0  0  0
   -0.3958   -0.9180   -0.0347 H   0  0  0  0  0  0  0  0  0  0  0  0
    1.2440   -1.0992    0.6175 H   0  0  0  0  0  0  0  0  0  0  0  0
   -0.1127   -1.9624    1.3627 H   0  0  0  0  0  0  0  0  0  0  0  0
    0.4389   -1.6399   -2.3581 H   0  0  0  0  0  0  0  0  0  0  0  0
    1.2455   -3.1917   -2.5707 H   0  0  0  0  0  0  0  0  0  0  0  0
    2.0916   -1.8669   -1.7492 H   0  0  0  0  0  0  0  0  0  0  0  0
    4.3232  -16.6541    1.1889 H   0  0  0  0  0  0  0  0  0  0  0  0
    3.6078  -16.3143   -0.4000 H   0  0  0  0  0  0  0  0  0  0  0  0
    5.3731  -16.3849   -0.2205 H   0  0  0  0  0  0  0  0  0  0  0  0
  1  2  1  0  0  0  0 
  1  3  1  0  0  0  0 
  4  2  1  0  0  0  0 
  3  5  2  0  0  0  0 
  3  6  1  0  0  0  0 
  4  7  1  0  0  0  0 
  4  8  1  0  0  0  0 
  5  9  1  0  0  0  0 
  5 10  1  0  0  0  0 
  6 11  2  0  0  0  0 
  7 12  1  0  0  0  0 
 10 13  1  0  0  0  0 
 10 14  2  0  0  0  0 
 11 14  1  0  0  0  0 
 11 15  1  0  0  0  0 
 12 16  1  0  0  0  0 
 14 17  1  0  0  0  0 
 16 18  1  0  0  0  0 
 16 19  1  0  0  0  0 
 17 20  1  0  0  0  0 
 20 21  1  0  0  0  0 
 20 22  2  0  0  0  0 
  2 23  1  0  0  0  0 
  2 24  1  0  0  0  0 
  4 25  1  0  0  0  0 
  6 26  1  0  0  0  0 
  7 27  1  0  0  0  0 
  7 28  1  0  0  0  0 
  8 29  1  0  0  0  0 
  9 30  1  0  0  0  0 
  9 31  1  0  0  0  0 
  9 32  1  0  0  0  0 
 12 33  1  0  0  0  0 
 13 34  1  0  0  0  0 
 13 35  1  0  0  0  0 
 13 36  1  0  0  0  0 
 15 37  1  0  0  0  0 
 15 38  1  0  0  0  0 
 15 39  1  0  0  0  0 
 16 40  1  0  0  0  0 
 18 41  1  0  0  0  0 
 18 42  1  0  0  0  0 
 18 43  1  0  0  0  0 
 19 44  1  0  0  0  0 
 19 45  1  0  0  0  0 
 19 46  1  0  0  0  0 
 21 47  1  0  0  0  0 
 21 48  1  0  0  0  0 
 21 49  1  0  0  0  0 
M  END
> <cdk:Title>
metipranolol

> <Conformer>
1

> <SuperDrugID>
SD001579

$$$$
