dolutegravir
  CDK     0628171802

 49 52  0  0  0  0  0  0  0  0999 V2000
   -1.1183    2.8187    8.0427 O   0  0  0  0  0  0  0  0  0  0  0  0
   -1.5596    3.1897    6.9282 C   0  0  0  0  0  0  0  0  0  0  0  0
   -1.4134    2.3244    5.7958 C   0  0  0  0  0  0  0  0  0  0  0  0
   -2.1269    4.4511    6.8016 N   0  0  0  0  0  0  0  0  0  0  0  0
   -1.5428    2.8531    4.5292 N   0  0  0  0  0  0  0  0  0  0  0  0
   -1.1111    0.9444    5.9388 C   0  0  0  0  0  0  0  0  0  0  0  0
   -2.7419    4.8036    5.5346 C   0  0  2  0  0  0  0  0  0  0  0  0
   -2.1721    5.3872    7.9207 C   0  0  2  0  0  0  0  0  0  0  0  0
   -1.9150    4.2442    4.3420 C   0  0  2  0  0  0  0  0  0  0  0  0
   -1.2790    2.0914    3.4176 C   0  0  0  0  0  0  0  0  0  0  0  0
   -1.0694    0.3299    7.1523 O   0  0  0  0  0  0  0  0  0  0  0  0
   -0.8443    0.1648    4.7977 C   0  0  0  0  0  0  0  0  0  0  0  0
   -3.0239    6.2087    5.3359 O   0  0  0  0  0  0  0  0  0  0  0  0
   -3.3488    5.0106    8.8645 C   0  0  0  0  0  0  0  0  0  0  0  0
   -2.1993    6.9020    7.5126 C   0  0  1  0  0  0  0  0  0  0  0  0
   -0.8994    0.7287    3.4978 C   0  0  0  0  0  0  0  0  0  0  0  0
   -0.5399   -1.0387    4.9805 O   0  0  0  0  0  0  0  0  0  0  0  0
   -2.0965    7.0926    5.9843 C   0  0  1  0  0  0  0  0  0  0  0  0
   -0.5820   -0.0302    2.3218 C   0  0  0  0  0  0  0  0  0  0  0  0
   -0.2492    0.5715    1.1384 N   0  0  0  0  0  0  0  0  0  0  0  0
   -0.5921   -1.2853    2.3643 O   0  0  0  0  0  0  0  0  0  0  0  0
    0.1646   -0.1223   -0.0440 C   0  0  1  0  0  0  0  0  0  0  0  0
    0.2868    0.8346   -1.1771 C   0  0  0  0  0  0  0  0  0  0  0  0
    1.4972    1.5187   -1.4561 C   0  0  0  0  0  0  0  0  0  0  0  0
   -0.8382    1.0942   -1.9956 C   0  0  0  0  0  0  0  0  0  0  0  0
    2.5704    1.3190   -0.7389 F   0  0  0  0  0  0  0  0  0  0  0  0
    1.5703    2.4371   -2.5222 C   0  0  0  0  0  0  0  0  0  0  0  0
   -0.7630    2.0060   -3.0626 C   0  0  0  0  0  0  0  0  0  0  0  0
    0.4420    2.6811   -3.3268 C   0  0  0  0  0  0  0  0  0  0  0  0
    0.5139    3.5266   -4.3178 F   0  0  0  0  0  0  0  0  0  0  0  0
   -3.7180    4.3120    5.5087 H   0  0  0  0  0  0  0  0  0  0  0  0
   -1.2521    5.2681    8.5027 H   0  0  0  0  0  0  0  0  0  0  0  0
   -2.5188    4.3720    3.4360 H   0  0  0  0  0  0  0  0  0  0  0  0
   -0.9985    4.8275    4.2201 H   0  0  0  0  0  0  0  0  0  0  0  0
   -1.3592    2.5249    2.4936 H   0  0  0  0  0  0  0  0  0  0  0  0
   -1.9217    0.5547    7.5833 H   0  0  0  0  0  0  0  0  0  0  0  0
   -3.2528    3.9762    9.2010 H   0  0  0  0  0  0  0  0  0  0  0  0
   -3.3529    5.6567    9.7449 H   0  0  0  0  0  0  0  0  0  0  0  0
   -4.3010    5.1186    8.3428 H   0  0  0  0  0  0  0  0  0  0  0  0
   -3.1193    7.3851    7.8553 H   0  0  0  0  0  0  0  0  0  0  0  0
   -1.3690    7.4363    7.9848 H   0  0  0  0  0  0  0  0  0  0  0  0
   -1.0736    6.9033    5.6474 H   0  0  0  0  0  0  0  0  0  0  0  0
   -2.3513    8.1231    5.7247 H   0  0  0  0  0  0  0  0  0  0  0  0
   -0.2625    1.5432    1.1002 H   0  0  0  0  0  0  0  0  0  0  0  0
    1.1209   -0.6120    0.1567 H   0  0  0  0  0  0  0  0  0  0  0  0
   -0.5507   -0.9099   -0.2972 H   0  0  0  0  0  0  0  0  0  0  0  0
   -1.7249    0.6173   -1.8197 H   0  0  0  0  0  0  0  0  0  0  0  0
    2.4454    2.9313   -2.7149 H   0  0  0  0  0  0  0  0  0  0  0  0
   -1.5878    2.1765   -3.6429 H   0  0  0  0  0  0  0  0  0  0  0  0
  1  2  2  0  0  0  0 
  2  3  1  0  0  0  0 
  2  4  1  0  0  0  0 
  3  5  1  0  0  0  0 
  3  6  2  0  0  0  0 
  7  4  1  0  0  0  0 
  8  4  1  0  0  0  0 
  5  9  1  0  0  0  0 
  5 10  1  0  0  0  0 
  6 11  1  0  0  0  0 
  6 12  1  0  0  0  0 
  7  9  1  0  0  0  0 
  7 13  1  0  0  0  0 
  7 31  1  0  0  0  0 
  8 14  1  0  0  0  0 
  8 15  1  0  0  0  0 
 10 16  2  0  0  0  0 
 12 16  1  0  0  0  0 
 12 17  2  0  0  0  0 
 13 18  1  0  0  0  0 
 15 18  1  0  0  0  0 
 16 19  1  0  0  0  0 
 19 20  1  0  0  0  0 
 19 21  2  0  0  0  0 
 20 22  1  0  0  0  0 
 22 23  1  0  0  0  0 
 23 24  2  0  0  0  0 
 23 25  1  0  0  0  0 
 24 26  1  0  0  0  0 
 24 27  1  0  0  0  0 
 25 28  2  0  0  0  0 
 27 29  2  0  0  0  0 
 28 29  1  0  0  0  0 
 29 30  1  0  0  0  0 
  8 32  1  0  0  0  0 
  9 33  1  0  0  0  0 
  9 34  1  0  0  0  0 
 10 35  1  0  0  0  0 
 11 36  1  0  0  0  0 
 14 37  1  0  0  0  0 
 14 38  1  0  0  0  0 
 14 39  1  0  0  0  0 
 15 40  1  0  0  0  0 
 15 41  1  0  0  0  0 
 18 42  1  0  0  0  0 
 18 43  1  0  0  0  0 
 20 44  1  0  0  0  0 
 22 45  1  0  0  0  0 
 22 46  1  0  0  0  0 
 25 47  1  0  0  0  0 
 27 48  1  0  0  0  0 
 28 49  1  0  0  0  0 
M  END
> <cdk:Title>
dolutegravir

> <Conformer>
1

> <SuperDrugID>
SD003767

$$$$
