argatroban
  CDK     0628171801

 71 73  0  0  0  0  0  0  0  0999 V2000
   -2.8703  -10.0372   -4.1335 C   0  0  0  0  0  0  0  0  0  0  0  0
   -2.9306   -9.7816   -2.6034 C   0  0  2  0  0  0  0  0  0  0  0  0
   -3.5573   -8.3889   -2.2908 C   0  0  2  0  0  0  0  0  0  0  0  0
   -3.4726   -8.0530   -0.7799 C   0  0  2  0  0  0  0  0  0  0  0  0
   -2.0905   -8.1561   -0.3235 N   0  0  0  0  0  0  0  0  0  0  0  0
   -1.4942   -9.4882   -0.4453 C   0  0  2  0  0  0  0  0  0  0  0  0
   -1.5227   -9.9233   -1.9448 C   0  0  1  0  0  0  0  0  0  0  0  0
   -2.1168  -10.4371    0.5119 C   0  0  0  0  0  0  0  0  0  0  0  0
   -2.7000  -11.5929    0.1203 O   0  0  0  0  0  0  0  0  0  0  0  0
   -2.1174  -10.1706    1.7348 O   0  0  0  0  0  0  0  0  0  0  0  0
   -1.3451   -7.0757    0.1558 C   0  0  0  0  0  0  0  0  0  0  0  0
   -0.1782   -7.2737    0.5761 O   0  0  0  0  0  0  0  0  0  0  0  0
   -1.8106   -5.6575    0.2457 C   0  0  2  0  0  0  0  0  0  0  0  0
   -0.6840   -4.5998    0.0230 C   0  0  1  0  0  0  0  0  0  0  0  0
   -1.1936   -3.1329   -0.0207 C   0  0  2  0  0  0  0  0  0  0  0  0
   -0.0312   -2.1115   -0.0476 C   0  0  2  0  0  0  0  0  0  0  0  0
   -0.5222   -0.8081   -0.0392 N   0  0  0  0  0  0  0  0  0  0  0  0
    0.1428    0.2837    0.0855 C   0  0  0  0  0  0  0  0  0  0  0  0
   -0.5224    1.4154    0.0491 N   0  0  0  0  0  0  0  0  0  0  0  0
    1.4532    0.3239    0.2472 N   0  0  0  0  0  0  0  0  0  0  0  0
   -2.6351   -5.4452    1.4672 N   0  0  1  0  0  0  0  0  0  0  0  0
   -1.9095   -5.6533    3.0739 S   0  0  2  0  0  0  0  0  0  0  0  0
   -1.3669   -7.1561    3.2155 O   0  0  0  0  0  0  0  0  0  0  0  0
   -3.0997   -5.4867    4.1377 O   0  0  0  0  0  0  0  0  0  0  0  0
   -0.6355   -4.4607    3.4224 C   0  0  0  0  0  0  0  0  0  0  0  0
    0.7072   -4.8978    3.4633 C   0  0  0  0  0  0  0  0  0  0  0  0
    1.7565   -3.9853    3.6598 C   0  0  0  0  0  0  0  0  0  0  0  0
    1.4757   -2.6248    3.8565 C   0  0  0  0  0  0  0  0  0  0  0  0
    0.1404   -2.1678    3.8734 C   0  0  0  0  0  0  0  0  0  0  0  0
   -0.9212   -3.0883    3.6479 C   0  0  0  0  0  0  0  0  0  0  0  0
   -2.2139   -2.6372    3.6451 N   0  0  0  0  0  0  0  0  0  0  0  0
   -2.6220   -1.3169    4.0240 C   0  0  2  0  0  0  0  0  0  0  0  0
   -1.5255   -0.5488    4.8218 C   0  0  2  0  0  0  0  0  0  0  0  0
   -1.8825    0.9449    5.0390 C   0  0  0  0  0  0  0  0  0  0  0  0
   -0.1625   -0.7273    4.0956 C   0  0  1  0  0  0  0  0  0  0  0  0
   -2.4483  -11.0229   -4.3375 H   0  0  0  0  0  0  0  0  0  0  0  0
   -2.2519   -9.2838   -4.6272 H   0  0  0  0  0  0  0  0  0  0  0  0
   -3.8742  -10.0008   -4.5611 H   0  0  0  0  0  0  0  0  0  0  0  0
   -3.5858  -10.5474   -2.1764 H   0  0  0  0  0  0  0  0  0  0  0  0
   -4.6067   -8.3797   -2.6019 H   0  0  0  0  0  0  0  0  0  0  0  0
   -3.0348   -7.6071   -2.8508 H   0  0  0  0  0  0  0  0  0  0  0  0
   -4.0989   -8.7580   -0.2263 H   0  0  0  0  0  0  0  0  0  0  0  0
   -3.9338   -7.0809   -0.6161 H   0  0  0  0  0  0  0  0  0  0  0  0
   -0.4337   -9.4992   -0.1753 H   0  0  0  0  0  0  0  0  0  0  0  0
   -1.1727  -10.9554   -2.0405 H   0  0  0  0  0  0  0  0  0  0  0  0
   -0.8137   -9.2922   -2.4910 H   0  0  0  0  0  0  0  0  0  0  0  0
   -3.1113  -12.1871    0.7814 H   0  0  0  0  0  0  0  0  0  0  0  0
   -2.4736   -5.4764   -0.6006 H   0  0  0  0  0  0  0  0  0  0  0  0
    0.0609   -4.6941    0.8085 H   0  0  0  0  0  0  0  0  0  0  0  0
   -0.1737   -4.8112   -0.9231 H   0  0  0  0  0  0  0  0  0  0  0  0
   -1.8073   -2.9326    0.8595 H   0  0  0  0  0  0  0  0  0  0  0  0
   -1.8221   -2.9975   -0.9053 H   0  0  0  0  0  0  0  0  0  0  0  0
    0.5741   -2.2602   -0.9464 H   0  0  0  0  0  0  0  0  0  0  0  0
    0.5991   -2.2720    0.8315 H   0  0  0  0  0  0  0  0  0  0  0  0
   -0.0509    2.2604    0.1220 H   0  0  0  0  0  0  0  0  0  0  0  0
   -1.4869    1.4102   -0.0636 H   0  0  0  0  0  0  0  0  0  0  0  0
    1.9703   -0.4975    0.2619 H   0  0  0  0  0  0  0  0  0  0  0  0
    1.9026    1.1762    0.3576 H   0  0  0  0  0  0  0  0  0  0  0  0
   -3.0282   -4.5040    1.4234 H   0  0  0  0  0  0  0  0  0  0  0  0
    0.9366   -5.8852    3.3338 H   0  0  0  0  0  0  0  0  0  0  0  0
    2.7260   -4.3112    3.6544 H   0  0  0  0  0  0  0  0  0  0  0  0
    2.2516   -1.9702    3.9843 H   0  0  0  0  0  0  0  0  0  0  0  0
   -2.9081   -3.2509    3.3591 H   0  0  0  0  0  0  0  0  0  0  0  0
   -3.5256   -1.3983    4.6310 H   0  0  0  0  0  0  0  0  0  0  0  0
   -2.8732   -0.7749    3.1094 H   0  0  0  0  0  0  0  0  0  0  0  0
   -1.4441   -1.0083    5.8138 H   0  0  0  0  0  0  0  0  0  0  0  0
   -1.0982    1.4386    5.6170 H   0  0  0  0  0  0  0  0  0  0  0  0
   -1.9893    1.4621    4.0832 H   0  0  0  0  0  0  0  0  0  0  0  0
   -2.8194    1.0338    5.5931 H   0  0  0  0  0  0  0  0  0  0  0  0
    0.6247   -0.2510    4.6860 H   0  0  0  0  0  0  0  0  0  0  0  0
   -0.1994   -0.2333    3.1219 H   0  0  0  0  0  0  0  0  0  0  0  0
  2  1  1  0  0  0  0 
  2  3  1  0  0  0  0 
  3  4  1  0  0  0  0 
  4  5  1  0  0  0  0 
  6  5  1  0  0  0  0 
  6  7  1  0  0  0  0 
  2  7  1  0  0  0  0 
  6  8  1  0  0  0  0 
  8  9  1  0  0  0  0 
  8 10  2  0  0  0  0 
  5 11  1  0  0  0  0 
 11 12  2  0  0  0  0 
 13 11  1  0  0  0  0 
 13 14  1  0  0  0  0 
 14 15  1  0  0  0  0 
 15 16  1  0  0  0  0 
 16 17  1  0  0  0  0 
 17 18  2  0  0  0  0 
 18 19  1  0  0  0  0 
 18 20  1  0  0  0  0 
 13 21  1  0  0  0  0 
 21 22  1  0  0  0  0 
 22 23  2  0  0  0  0 
 22 24  2  0  0  0  0 
 22 25  1  0  0  0  0 
 25 26  2  0  0  0  0 
 26 27  1  0  0  0  0 
 27 28  2  0  0  0  0 
 28 29  1  0  0  0  0 
 29 30  2  0  0  0  0 
 25 30  1  0  0  0  0 
 30 31  1  0  0  0  0 
 31 32  1  0  0  0  0 
 33 32  1  0  0  0  0 
 33 34  1  0  0  0  0 
 33 35  1  0  0  0  0 
 29 35  1  0  0  0  0 
 36  1  1  0  0  0  0 
 37  1  1  0  0  0  0 
 38  1  1  0  0  0  0 
  2 39  1  0  0  0  0 
 40  3  1  0  0  0  0 
 41  3  1  0  0  0  0 
 42  4  1  0  0  0  0 
 43  4  1  0  0  0  0 
  6 44  1  0  0  0  0 
 45  7  1  0  0  0  0 
 46  7  1  0  0  0  0 
 47  9  1  0  0  0  0 
 13 48  1  0  0  0  0 
 49 14  1  0  0  0  0 
 50 14  1  0  0  0  0 
 51 15  1  0  0  0  0 
 52 15  1  0  0  0  0 
 53 16  1  0  0  0  0 
 54 16  1  0  0  0  0 
 55 19  1  0  0  0  0 
 56 19  1  0  0  0  0 
 57 20  1  0  0  0  0 
 58 20  1  0  0  0  0 
 59 21  1  0  0  0  0 
 60 26  1  0  0  0  0 
 61 27  1  0  0  0  0 
 62 28  1  0  0  0  0 
 63 31  1  0  0  0  0 
 64 32  1  0  0  0  0 
 65 32  1  0  0  0  0 
 66 33  1  0  0  0  0 
 67 34  1  0  0  0  0 
 68 34  1  0  0  0  0 
 69 34  1  0  0  0  0 
 70 35  1  0  0  0  0 
 71 35  1  0  0  0  0 
M  END
> <cdk:Title>
argatroban

> <Conformer>
1

> <SuperDrugID>
SD000198

$$$$
