fenoverine
  CDK     0628171801

 58 63  0  0  0  0  0  0  0  0999 V2000
   -3.6965    8.1123   -1.1381 O   0  0  0  0  0  0  0  0  0  0  0  0
   -3.6578    7.2070   -2.0084 C   0  0  0  0  0  0  0  0  0  0  0  0
   -2.2673    6.8097   -2.3740 C   0  0  1  0  0  0  0  0  0  0  0  0
   -1.4195    6.4142   -1.2032 N   0  0  1  0  0  0  0  0  0  0  0  0
   -1.7661    5.0800   -0.6194 C   0  0  1  0  0  0  0  0  0  0  0  0
   -0.9245    4.8026    0.6519 C   0  0  1  0  0  0  0  0  0  0  0  0
    0.5447    4.9600    0.4215 N   0  0  1  0  0  0  0  0  0  0  0  0
    1.2955    3.7671   -0.0900 C   0  0  2  0  0  0  0  0  0  0  0  0
    2.7018    3.7681    0.4097 C   0  0  0  0  0  0  0  0  0  0  0  0
    2.9518    3.7857    1.8088 C   0  0  0  0  0  0  0  0  0  0  0  0
    4.2675    3.7950    2.3156 C   0  0  0  0  0  0  0  0  0  0  0  0
    5.3400    3.7896    1.4113 C   0  0  0  0  0  0  0  0  0  0  0  0
    6.6538    3.7888    1.7088 O   0  0  0  0  0  0  0  0  0  0  0  0
    7.2375    4.0028    0.4112 C   0  0  1  0  0  0  0  0  0  0  0  0
    6.2800    3.7637   -0.6396 O   0  0  0  0  0  0  0  0  0  0  0  0
    5.1180    3.7714    0.0432 C   0  0  0  0  0  0  0  0  0  0  0  0
    3.8102    3.7532   -0.4776 C   0  0  0  0  0  0  0  0  0  0  0  0
    0.8849    6.2737   -0.2012 C   0  0  2  0  0  0  0  0  0  0  0  0
    0.0457    6.5515   -1.4733 C   0  0  1  0  0  0  0  0  0  0  0  0
   -4.8321    6.7669   -2.6336 N   0  0  0  0  0  0  0  0  0  0  0  0
   -6.0209    7.4716   -2.4593 C   0  0  0  0  0  0  0  0  0  0  0  0
   -6.5593    7.7514   -1.1788 C   0  0  0  0  0  0  0  0  0  0  0  0
   -7.7122    8.5473   -1.0414 C   0  0  0  0  0  0  0  0  0  0  0  0
   -8.3592    9.0580   -2.1800 C   0  0  0  0  0  0  0  0  0  0  0  0
   -7.8604    8.7649   -3.4610 C   0  0  0  0  0  0  0  0  0  0  0  0
   -6.7116    7.9637   -3.5992 C   0  0  0  0  0  0  0  0  0  0  0  0
   -6.1245    7.5222   -5.2039 S   0  0  0  0  0  0  0  0  0  0  0  0
   -5.2999    5.9974   -4.8915 C   0  0  0  0  0  0  0  0  0  0  0  0
   -5.1773    5.0296   -5.9071 C   0  0  0  0  0  0  0  0  0  0  0  0
   -4.6428    3.7647   -5.6067 C   0  0  0  0  0  0  0  0  0  0  0  0
   -4.2521    3.4640   -4.2897 C   0  0  0  0  0  0  0  0  0  0  0  0
   -4.3557    4.4440   -3.2826 C   0  0  0  0  0  0  0  0  0  0  0  0
   -4.8232    5.7476   -3.5794 C   0  0  0  0  0  0  0  0  0  0  0  0
   -2.2391    6.0219   -3.1230 H   0  0  0  0  0  0  0  0  0  0  0  0
   -1.8409    7.6951   -2.8551 H   0  0  0  0  0  0  0  0  0  0  0  0
   -2.8234    5.0596   -0.3349 H   0  0  0  0  0  0  0  0  0  0  0  0
   -1.5948    4.2831   -1.3497 H   0  0  0  0  0  0  0  0  0  0  0  0
   -1.2246    5.5208    1.4205 H   0  0  0  0  0  0  0  0  0  0  0  0
   -1.1614    3.8080    1.0374 H   0  0  0  0  0  0  0  0  0  0  0  0
    1.2554    3.7320   -1.1828 H   0  0  0  0  0  0  0  0  0  0  0  0
    0.8342    2.8431    0.2693 H   0  0  0  0  0  0  0  0  0  0  0  0
    2.1733    3.7934    2.4715 H   0  0  0  0  0  0  0  0  0  0  0  0
    4.4424    3.8039    3.3219 H   0  0  0  0  0  0  0  0  0  0  0  0
    7.5914    5.0360    0.3485 H   0  0  0  0  0  0  0  0  0  0  0  0
    8.0968    3.3409    0.2852 H   0  0  0  0  0  0  0  0  0  0  0  0
    3.6752    3.7286   -1.4897 H   0  0  0  0  0  0  0  0  0  0  0  0
    1.9492    6.3365   -0.4440 H   0  0  0  0  0  0  0  0  0  0  0  0
    0.6798    7.0594    0.5296 H   0  0  0  0  0  0  0  0  0  0  0  0
    0.3450    5.8686   -2.2732 H   0  0  0  0  0  0  0  0  0  0  0  0
    0.2690    7.5716   -1.7975 H   0  0  0  0  0  0  0  0  0  0  0  0
   -6.1091    7.3804   -0.3380 H   0  0  0  0  0  0  0  0  0  0  0  0
   -8.0806    8.7560   -0.1111 H   0  0  0  0  0  0  0  0  0  0  0  0
   -9.1964    9.6372   -2.0756 H   0  0  0  0  0  0  0  0  0  0  0  0
   -8.3403    9.1291   -4.2860 H   0  0  0  0  0  0  0  0  0  0  0  0
   -5.4881    5.2327   -6.8594 H   0  0  0  0  0  0  0  0  0  0  0  0
   -4.5540    3.0595   -6.3430 H   0  0  0  0  0  0  0  0  0  0  0  0
   -3.8938    2.5315   -4.0649 H   0  0  0  0  0  0  0  0  0  0  0  0
   -4.0849    4.2009   -2.3287 H   0  0  0  0  0  0  0  0  0  0  0  0
  1  2  2  0  0  0  0 
  2  3  1  0  0  0  0 
  3  4  1  0  0  0  0 
  4  5  1  0  0  0  0 
  5  6  1  0  0  0  0 
  6  7  1  0  0  0  0 
  7  8  1  0  0  0  0 
  8  9  1  0  0  0  0 
  9 10  2  0  0  0  0 
 10 11  1  0  0  0  0 
 11 12  2  0  0  0  0 
 12 13  1  0  0  0  0 
 13 14  1  0  0  0  0 
 14 15  1  0  0  0  0 
 15 16  1  0  0  0  0 
 12 16  1  0  0  0  0 
 16 17  2  0  0  0  0 
  9 17  1  0  0  0  0 
  7 18  1  0  0  0  0 
 18 19  1  0  0  0  0 
  4 19  1  0  0  0  0 
  2 20  1  0  0  0  0 
 20 21  1  0  0  0  0 
 21 22  2  0  0  0  0 
 22 23  1  0  0  0  0 
 23 24  2  0  0  0  0 
 24 25  1  0  0  0  0 
 25 26  2  0  0  0  0 
 21 26  1  0  0  0  0 
 26 27  1  0  0  0  0 
 27 28  1  0  0  0  0 
 28 29  2  0  0  0  0 
 29 30  1  0  0  0  0 
 30 31  2  0  0  0  0 
 31 32  1  0  0  0  0 
 32 33  2  0  0  0  0 
 20 33  1  0  0  0  0 
 28 33  1  0  0  0  0 
  3 34  1  0  0  0  0 
  3 35  1  0  0  0  0 
  5 36  1  0  0  0  0 
  5 37  1  0  0  0  0 
  6 38  1  0  0  0  0 
  6 39  1  0  0  0  0 
  8 40  1  0  0  0  0 
  8 41  1  0  0  0  0 
 10 42  1  0  0  0  0 
 11 43  1  0  0  0  0 
 14 44  1  0  0  0  0 
 14 45  1  0  0  0  0 
 17 46  1  0  0  0  0 
 18 47  1  0  0  0  0 
 18 48  1  0  0  0  0 
 19 49  1  0  0  0  0 
 19 50  1  0  0  0  0 
 22 51  1  0  0  0  0 
 23 52  1  0  0  0  0 
 24 53  1  0  0  0  0 
 25 54  1  0  0  0  0 
 29 55  1  0  0  0  0 
 30 56  1  0  0  0  0 
 31 57  1  0  0  0  0 
 32 58  1  0  0  0  0 
M  END
> <cdk:Title>
fenoverine

> <Conformer>
1

> <SuperDrugID>
SD001033

$$$$
