dihydroemetine
  CDK     0628171801

 73 77  0  0  0  0  0  0  0  0999 V2000
    1.5709    2.8240    4.7565 C   0  0  2  0  0  0  0  0  0  0  0  0
    2.1160    3.7252    5.7977 C   0  0  0  0  0  0  0  0  0  0  0  0
    2.4971    2.6545    3.5057 C   0  0  2  0  0  0  0  0  0  0  0  0
    1.8740    5.1591    5.5574 C   0  0  1  0  0  0  0  0  0  0  0  0
    2.7618    3.2920    6.9164 C   0  0  0  0  0  0  0  0  0  0  0  0
    1.8503    1.7959    2.4537 C   0  0  0  0  0  0  0  0  0  0  0  0
    3.7980    2.1316    4.0041 N   0  0  1  0  0  0  0  0  0  0  0  0
    2.5589    6.2093    6.4963 C   0  0  1  0  0  0  0  0  0  0  0  0
    2.9125    1.8715    7.2904 C   0  0  2  0  0  0  0  0  0  0  0  0
    3.3380    4.2557    7.8581 C   0  0  2  0  0  0  0  0  0  0  0  0
    2.4368    0.5678    2.0430 C   0  0  0  0  0  0  0  0  0  0  0  0
    0.6435    2.2098    1.8410 C   0  0  0  0  0  0  0  0  0  0  0  0
    4.6028    1.3815    3.0263 C   0  0  1  0  0  0  0  0  0  0  0  0
    1.8322    7.5399    6.5310 C   0  0  0  0  0  0  0  0  0  0  0  0
    2.6843    5.5910    7.8522 N   0  0  1  0  0  0  0  0  0  0  0  0
    1.6630    1.3480    8.0431 C   0  0  0  0  0  0  0  0  0  0  0  0
    1.7331   -0.2808    1.1583 C   0  0  0  0  0  0  0  0  0  0  0  0
    3.7824    0.1677    2.5305 C   0  0  2  0  0  0  0  0  0  0  0  0
   -0.0365    1.3778    0.9297 C   0  0  0  0  0  0  0  0  0  0  0  0
    1.6844    8.2889    7.7381 C   0  0  0  0  0  0  0  0  0  0  0  0
    1.2637    8.0817    5.3484 C   0  0  0  0  0  0  0  0  0  0  0  0
    3.2687    6.5708    8.8513 C   0  0  1  0  0  0  0  0  0  0  0  0
    0.4996    0.1135    0.6075 C   0  0  0  0  0  0  0  0  0  0  0  0
   -1.1937    1.8089    0.3332 O   0  0  0  0  0  0  0  0  0  0  0  0
    0.8777    9.4514    7.7556 C   0  0  0  0  0  0  0  0  0  0  0  0
    2.3391    7.9064    9.0134 C   0  0  2  0  0  0  0  0  0  0  0  0
    0.4556    9.2359    5.3758 C   0  0  0  0  0  0  0  0  0  0  0  0
   -0.1842   -0.7403   -0.2151 O   0  0  0  0  0  0  0  0  0  0  0  0
   -2.3743    1.5180    1.0992 C   0  0  0  0  0  0  0  0  0  0  0  0
    0.2524    9.9223    6.5888 C   0  0  0  0  0  0  0  0  0  0  0  0
   -0.1348    9.6837    4.2246 O   0  0  0  0  0  0  0  0  0  0  0  0
    0.1256   -0.5683   -1.6081 C   0  0  0  0  0  0  0  0  0  0  0  0
   -0.5938   10.9974    6.6529 O   0  0  0  0  0  0  0  0  0  0  0  0
   -1.4144    9.0695    3.9847 C   0  0  0  0  0  0  0  0  0  0  0  0
    0.0468   12.2667    6.4410 C   0  0  0  0  0  0  0  0  0  0  0  0
    3.5662    6.4047    6.1072 H   0  0  0  0  0  0  0  0  0  0  0  0
    2.6964    3.6290    3.0500 H   0  0  0  0  0  0  0  0  0  0  0  0
    0.6000    3.2098    4.4396 H   0  0  0  0  0  0  0  0  0  0  0  0
    1.3472    1.8329    5.1477 H   0  0  0  0  0  0  0  0  0  0  0  0
    2.1782    5.4002    4.5355 H   0  0  0  0  0  0  0  0  0  0  0  0
    0.7890    5.2916    5.6169 H   0  0  0  0  0  0  0  0  0  0  0  0
    4.3507    2.9319    4.3176 H   0  0  0  0  0  0  0  0  0  0  0  0
    3.7798    1.7163    7.9426 H   0  0  0  0  0  0  0  0  0  0  0  0
    3.1027    1.2415    6.4232 H   0  0  0  0  0  0  0  0  0  0  0  0
    4.4055    4.3518    7.6391 H   0  0  0  0  0  0  0  0  0  0  0  0
    3.2348    3.8691    8.8771 H   0  0  0  0  0  0  0  0  0  0  0  0
    0.2447    3.1262    2.0624 H   0  0  0  0  0  0  0  0  0  0  0  0
    4.8738    2.0376    2.1933 H   0  0  0  0  0  0  0  0  0  0  0  0
    5.5236    1.0457    3.5086 H   0  0  0  0  0  0  0  0  0  0  0  0
    1.8159    0.3076    8.3343 H   0  0  0  0  0  0  0  0  0  0  0  0
    1.4887    1.9349    8.9476 H   0  0  0  0  0  0  0  0  0  0  0  0
    0.7694    1.4040    7.4185 H   0  0  0  0  0  0  0  0  0  0  0  0
    2.1210   -1.1906    0.9000 H   0  0  0  0  0  0  0  0  0  0  0  0
    4.3527   -0.3088    1.7299 H   0  0  0  0  0  0  0  0  0  0  0  0
    3.6582   -0.5523    3.3419 H   0  0  0  0  0  0  0  0  0  0  0  0
    1.4070    7.6224    4.4465 H   0  0  0  0  0  0  0  0  0  0  0  0
    3.4227    6.0132    9.8146 H   0  0  0  0  0  0  0  0  0  0  0  0
    4.3189    6.7771    8.5073 H   0  0  0  0  0  0  0  0  0  0  0  0
    0.7318    9.9610    8.6295 H   0  0  0  0  0  0  0  0  0  0  0  0
    1.5681    7.6964    9.7592 H   0  0  0  0  0  0  0  0  0  0  0  0
    2.9651    8.7266    9.3734 H   0  0  0  0  0  0  0  0  0  0  0  0
   -3.2358    1.8848    0.5427 H   0  0  0  0  0  0  0  0  0  0  0  0
   -2.5022    0.4436    1.2515 H   0  0  0  0  0  0  0  0  0  0  0  0
   -2.3521    2.0259    2.0656 H   0  0  0  0  0  0  0  0  0  0  0  0
   -0.4536   -1.2971   -2.1766 H   0  0  0  0  0  0  0  0  0  0  0  0
   -0.1488    0.4302   -1.9577 H   0  0  0  0  0  0  0  0  0  0  0  0
    1.1854   -0.7484   -1.8048 H   0  0  0  0  0  0  0  0  0  0  0  0
   -1.8257    9.4979    3.0718 H   0  0  0  0  0  0  0  0  0  0  0  0
   -1.3179    7.9899    3.8406 H   0  0  0  0  0  0  0  0  0  0  0  0
   -2.1173    9.2675    4.7990 H   0  0  0  0  0  0  0  0  0  0  0  0
   -0.7146   13.0424    6.5284 H   0  0  0  0  0  0  0  0  0  0  0  0
    0.8139   12.4595    7.1947 H   0  0  0  0  0  0  0  0  0  0  0  0
    0.4859   12.3334    5.4426 H   0  0  0  0  0  0  0  0  0  0  0  0
  1  2  1  0  0  0  0 
  2  4  1  0  0  0  0 
  2  5  2  0  0  0  0 
  3  1  1  0  0  0  0 
  3  6  1  0  0  0  0 
  3  7  1  0  0  0  0 
  8  4  1  0  0  0  0 
  5  9  1  0  0  0  0 
  5 10  1  0  0  0  0 
  6 11  2  0  0  0  0 
  6 12  1  0  0  0  0 
  7 13  1  0  0  0  0 
  8 14  1  0  0  0  0 
  8 15  1  0  0  0  0 
  8 36  1  0  0  0  0 
  9 16  1  0  0  0  0 
 10 15  1  0  0  0  0 
 11 17  1  0  0  0  0 
 11 18  1  0  0  0  0 
 12 19  2  0  0  0  0 
 13 18  1  0  0  0  0 
 14 20  2  0  0  0  0 
 14 21  1  0  0  0  0 
 15 22  1  0  0  0  0 
 17 23  2  0  0  0  0 
 19 23  1  0  0  0  0 
 19 24  1  0  0  0  0 
 20 25  1  0  0  0  0 
 20 26  1  0  0  0  0 
 21 27  2  0  0  0  0 
 22 26  1  0  0  0  0 
 23 28  1  0  0  0  0 
 24 29  1  0  0  0  0 
 25 30  2  0  0  0  0 
 27 30  1  0  0  0  0 
 27 31  1  0  0  0  0 
 28 32  1  0  0  0  0 
 30 33  1  0  0  0  0 
 31 34  1  0  0  0  0 
 33 35  1  0  0  0  0 
  3 37  1  0  0  0  0 
  1 38  1  0  0  0  0 
  1 39  1  0  0  0  0 
  4 40  1  0  0  0  0 
  4 41  1  0  0  0  0 
  7 42  1  0  0  0  0 
  9 43  1  0  0  0  0 
  9 44  1  0  0  0  0 
 10 45  1  0  0  0  0 
 10 46  1  0  0  0  0 
 12 47  1  0  0  0  0 
 13 48  1  0  0  0  0 
 13 49  1  0  0  0  0 
 16 50  1  0  0  0  0 
 16 51  1  0  0  0  0 
 16 52  1  0  0  0  0 
 17 53  1  0  0  0  0 
 18 54  1  0  0  0  0 
 18 55  1  0  0  0  0 
 21 56  1  0  0  0  0 
 22 57  1  0  0  0  0 
 22 58  1  0  0  0  0 
 25 59  1  0  0  0  0 
 26 60  1  0  0  0  0 
 26 61  1  0  0  0  0 
 29 62  1  0  0  0  0 
 29 63  1  0  0  0  0 
 29 64  1  0  0  0  0 
 32 65  1  0  0  0  0 
 32 66  1  0  0  0  0 
 32 67  1  0  0  0  0 
 34 68  1  0  0  0  0 
 34 69  1  0  0  0  0 
 34 70  1  0  0  0  0 
 35 71  1  0  0  0  0 
 35 72  1  0  0  0  0 
 35 73  1  0  0  0  0 
M  END
> <cdk:Title>
dihydroemetine

> <Conformer>
1

> <SuperDrugID>
SD002713

$$$$
