dihexyverine
  CDK     0628171802

 58 60  0  0  0  0  0  0  0  0999 V2000
   -1.4529    3.2107    1.7474 C   0  0  0  0  0  0  0  0  0  0  0  0
   -0.1447    3.0211    2.1188 O   0  0  0  0  0  0  0  0  0  0  0  0
   -1.7024    4.2263    1.0491 O   0  0  0  0  0  0  0  0  0  0  0  0
   -2.5788    2.2769    2.1264 C   0  0  1  0  0  0  0  0  0  0  0  0
    0.9379    3.9447    1.9126 C   0  0  2  0  0  0  0  0  0  0  0  0
   -3.6555    3.1604    2.8822 C   0  0  2  0  0  0  0  0  0  0  0  0
   -3.2864    1.7942    0.7938 C   0  0  1  0  0  0  0  0  0  0  0  0
   -2.0861    1.0386    3.0217 C   0  0  1  0  0  0  0  0  0  0  0  0
    2.3055    3.3140    2.2626 C   0  0  2  0  0  0  0  0  0  0  0  0
   -5.0105    2.4462    3.1432 C   0  0  2  0  0  0  0  0  0  0  0  0
   -4.6350    1.0511    1.0171 C   0  0  2  0  0  0  0  0  0  0  0  0
   -1.1151    0.0340    2.2958 C   0  0  2  0  0  0  0  0  0  0  0  0
   -1.5292    1.4242    4.4430 C   0  0  1  0  0  0  0  0  0  0  0  0
    2.7346    2.1740    1.3806 N   0  0  2  0  0  0  0  0  0  0  0  0
   -5.6324    1.9190    1.8246 C   0  0  1  0  0  0  0  0  0  0  0  0
   -0.6570   -1.1495    3.1861 C   0  0  2  0  0  0  0  0  0  0  0  0
   -1.0352    0.2202    5.2865 C   0  0  2  0  0  0  0  0  0  0  0  0
    3.8712    1.4136    2.0045 C   0  0  2  0  0  0  0  0  0  0  0  0
    3.0378    2.5770   -0.0374 C   0  0  1  0  0  0  0  0  0  0  0  0
   -0.0286   -0.6540    4.5069 C   0  0  1  0  0  0  0  0  0  0  0  0
    4.3224    0.1949    1.1596 C   0  0  2  0  0  0  0  0  0  0  0  0
    3.4615    1.3757   -0.9213 C   0  0  1  0  0  0  0  0  0  0  0  0
    4.6526    0.6106   -0.2946 C   0  0  1  0  0  0  0  0  0  0  0  0
    0.7748    4.8091    2.5627 H   0  0  0  0  0  0  0  0  0  0  0  0
    0.9359    4.3042    0.8834 H   0  0  0  0  0  0  0  0  0  0  0  0
   -3.8955    4.0486    2.2888 H   0  0  0  0  0  0  0  0  0  0  0  0
   -3.2621    3.5416    3.8245 H   0  0  0  0  0  0  0  0  0  0  0  0
   -3.5133    2.6549    0.1577 H   0  0  0  0  0  0  0  0  0  0  0  0
   -2.6253    1.1651    0.1988 H   0  0  0  0  0  0  0  0  0  0  0  0
   -2.9666    0.4358    3.2426 H   0  0  0  0  0  0  0  0  0  0  0  0
    2.2210    2.9696    3.2972 H   0  0  0  0  0  0  0  0  0  0  0  0
    3.0678    4.0989    2.2445 H   0  0  0  0  0  0  0  0  0  0  0  0
   -5.7079    3.1530    3.5999 H   0  0  0  0  0  0  0  0  0  0  0  0
   -4.8809    1.6219    3.8463 H   0  0  0  0  0  0  0  0  0  0  0  0
   -4.4714    0.1053    1.5350 H   0  0  0  0  0  0  0  0  0  0  0  0
   -5.0846    0.8115    0.0501 H   0  0  0  0  0  0  0  0  0  0  0  0
   -0.2260    0.5467    1.9286 H   0  0  0  0  0  0  0  0  0  0  0  0
   -1.6129   -0.4129    1.4349 H   0  0  0  0  0  0  0  0  0  0  0  0
   -0.7085    2.1351    4.3545 H   0  0  0  0  0  0  0  0  0  0  0  0
   -2.3129    1.9013    5.0323 H   0  0  0  0  0  0  0  0  0  0  0  0
   -6.5276    1.3329    2.0519 H   0  0  0  0  0  0  0  0  0  0  0  0
   -5.9430    2.7699    1.2068 H   0  0  0  0  0  0  0  0  0  0  0  0
    0.0783   -1.7499    2.6459 H   0  0  0  0  0  0  0  0  0  0  0  0
   -1.5139   -1.7920    3.4118 H   0  0  0  0  0  0  0  0  0  0  0  0
   -1.8894   -0.3955    5.5850 H   0  0  0  0  0  0  0  0  0  0  0  0
   -0.5532    0.5877    6.1958 H   0  0  0  0  0  0  0  0  0  0  0  0
    3.5617    1.0330    2.9830 H   0  0  0  0  0  0  0  0  0  0  0  0
    4.7297    2.0771    2.1604 H   0  0  0  0  0  0  0  0  0  0  0  0
    2.1513    3.0052   -0.5083 H   0  0  0  0  0  0  0  0  0  0  0  0
    3.8266    3.3369   -0.0615 H   0  0  0  0  0  0  0  0  0  0  0  0
    0.2511   -1.5149    5.1192 H   0  0  0  0  0  0  0  0  0  0  0  0
    0.8756   -0.0751    4.2948 H   0  0  0  0  0  0  0  0  0  0  0  0
    3.5232   -0.5527    1.1553 H   0  0  0  0  0  0  0  0  0  0  0  0
    5.2066   -0.2600    1.6175 H   0  0  0  0  0  0  0  0  0  0  0  0
    2.6115    0.6951   -1.0332 H   0  0  0  0  0  0  0  0  0  0  0  0
    3.7405    1.7339   -1.9172 H   0  0  0  0  0  0  0  0  0  0  0  0
    5.5416    1.2482   -0.3060 H   0  0  0  0  0  0  0  0  0  0  0  0
    4.8728   -0.2801   -0.8890 H   0  0  0  0  0  0  0  0  0  0  0  0
  1  2  1  0  0  0  0 
  1  3  2  0  0  0  0 
  1  4  1  0  0  0  0 
  2  5  1  0  0  0  0 
  4  6  1  0  0  0  0 
  4  7  1  0  0  0  0 
  4  8  1  0  0  0  0 
  5  9  1  0  0  0  0 
  6 10  1  0  0  0  0 
  7 11  1  0  0  0  0 
  8 12  1  0  0  0  0 
  8 13  1  0  0  0  0 
  9 14  1  0  0  0  0 
 10 15  1  0  0  0  0 
 11 15  1  0  0  0  0 
 12 16  1  0  0  0  0 
 13 17  1  0  0  0  0 
 14 18  1  0  0  0  0 
 14 19  1  0  0  0  0 
 16 20  1  0  0  0  0 
 17 20  1  0  0  0  0 
 18 21  1  0  0  0  0 
 19 22  1  0  0  0  0 
 21 23  1  0  0  0  0 
 22 23  1  0  0  0  0 
  5 24  1  0  0  0  0 
  5 25  1  0  0  0  0 
  6 26  1  0  0  0  0 
  6 27  1  0  0  0  0 
  7 28  1  0  0  0  0 
  7 29  1  0  0  0  0 
  8 30  1  0  0  0  0 
  9 31  1  0  0  0  0 
  9 32  1  0  0  0  0 
 10 33  1  0  0  0  0 
 10 34  1  0  0  0  0 
 11 35  1  0  0  0  0 
 11 36  1  0  0  0  0 
 12 37  1  0  0  0  0 
 12 38  1  0  0  0  0 
 13 39  1  0  0  0  0 
 13 40  1  0  0  0  0 
 15 41  1  0  0  0  0 
 15 42  1  0  0  0  0 
 16 43  1  0  0  0  0 
 16 44  1  0  0  0  0 
 17 45  1  0  0  0  0 
 17 46  1  0  0  0  0 
 18 47  1  0  0  0  0 
 18 48  1  0  0  0  0 
 19 49  1  0  0  0  0 
 19 50  1  0  0  0  0 
 20 51  1  0  0  0  0 
 20 52  1  0  0  0  0 
 21 53  1  0  0  0  0 
 21 54  1  0  0  0  0 
 22 55  1  0  0  0  0 
 22 56  1  0  0  0  0 
 23 57  1  0  0  0  0 
 23 58  1  0  0  0  0 
M  END
> <cdk:Title>
dihexyverine

> <Conformer>
1

> <SuperDrugID>
SD000785

$$$$
