midazolam
  CDK     0628171801

 36 39  0  0  0  0  0  0  0  0999 V2000
    6.1530    0.7202    1.3393 C   0  0  0  0  0  0  0  0  0  0  0  0
    4.9959    1.6017    1.6069 C   0  0  0  0  0  0  0  0  0  0  0  0
    3.8268    1.7034    0.9126 N   0  0  0  0  0  0  0  0  0  0  0  0
    4.9790    2.4168    2.6795 N   0  0  0  0  0  0  0  0  0  0  0  0
    3.4272    1.0215   -0.2277 C   0  0  0  0  0  0  0  0  0  0  0  0
    3.0658    2.5829    1.5950 C   0  0  0  0  0  0  0  0  0  0  0  0
    3.7954    3.0370    2.6844 C   0  0  0  0  0  0  0  0  0  0  0  0
    2.1181    0.4482   -0.3717 C   0  0  0  0  0  0  0  0  0  0  0  0
    4.3518    0.8847   -1.2940 C   0  0  0  0  0  0  0  0  0  0  0  0
    1.6824    2.9467    1.2515 C   0  0  2  0  0  0  0  0  0  0  0  0
    1.0546    0.7055    0.5300 C   0  0  0  0  0  0  0  0  0  0  0  0
    1.8851   -0.4017   -1.4886 C   0  0  0  0  0  0  0  0  0  0  0  0
    4.0680    0.0910   -2.4152 C   0  0  0  0  0  0  0  0  0  0  0  0
    0.9093    1.7934    1.2093 N   0  0  0  0  0  0  0  0  0  0  0  0
    0.0048   -0.1786    0.7572 C   0  0  0  0  0  0  0  0  0  0  0  0
    2.8447   -0.5847   -2.4970 C   0  0  0  0  0  0  0  0  0  0  0  0
   -1.1681   -0.1447   -0.0416 C   0  0  0  0  0  0  0  0  0  0  0  0
    0.0816   -1.1001    1.8292 C   0  0  0  0  0  0  0  0  0  0  0  0
    2.5209   -1.5980   -3.8142 Cl  0  0  0  0  0  0  0  0  0  0  0  0
   -1.2937    0.6968   -1.0387 F   0  0  0  0  0  0  0  0  0  0  0  0
   -2.2307   -1.0284    0.2289 C   0  0  0  0  0  0  0  0  0  0  0  0
   -0.9979   -1.9569    2.1139 C   0  0  0  0  0  0  0  0  0  0  0  0
   -2.1510   -1.9232    1.3098 C   0  0  0  0  0  0  0  0  0  0  0  0
    6.7745    0.6208    2.2323 H   0  0  0  0  0  0  0  0  0  0  0  0
    5.8101   -0.2744    1.0489 H   0  0  0  0  0  0  0  0  0  0  0  0
    6.7680    1.1401    0.5429 H   0  0  0  0  0  0  0  0  0  0  0  0
    3.4823    3.7144    3.3804 H   0  0  0  0  0  0  0  0  0  0  0  0
    5.2509    1.3676   -1.2676 H   0  0  0  0  0  0  0  0  0  0  0  0
    1.6649    3.4592    0.2860 H   0  0  0  0  0  0  0  0  0  0  0  0
    1.2548    3.6143    2.0030 H   0  0  0  0  0  0  0  0  0  0  0  0
    0.9972   -0.8989   -1.5930 H   0  0  0  0  0  0  0  0  0  0  0  0
    4.7565    0.0021   -3.1651 H   0  0  0  0  0  0  0  0  0  0  0  0
    0.9182   -1.1496    2.4166 H   0  0  0  0  0  0  0  0  0  0  0  0
   -3.0707   -1.0185   -0.3540 H   0  0  0  0  0  0  0  0  0  0  0  0
   -0.9451   -2.6010    2.9072 H   0  0  0  0  0  0  0  0  0  0  0  0
   -2.9372   -2.5441    1.5112 H   0  0  0  0  0  0  0  0  0  0  0  0
  1  2  1  0  0  0  0 
  2  3  1  0  0  0  0 
  2  4  2  0  0  0  0 
  3  5  1  0  0  0  0 
  3  6  1  0  0  0  0 
  4  7  1  0  0  0  0 
  5  8  2  0  0  0  0 
  5  9  1  0  0  0  0 
  6  7  2  0  0  0  0 
  6 10  1  0  0  0  0 
  8 11  1  0  0  0  0 
  8 12  1  0  0  0  0 
  9 13  2  0  0  0  0 
 10 14  1  0  0  0  0 
 11 14  2  0  0  0  0 
 11 15  1  0  0  0  0 
 12 16  2  0  0  0  0 
 13 16  1  0  0  0  0 
 15 17  2  0  0  0  0 
 15 18  1  0  0  0  0 
 16 19  1  0  0  0  0 
 17 20  1  0  0  0  0 
 17 21  1  0  0  0  0 
 18 22  2  0  0  0  0 
 21 23  2  0  0  0  0 
 22 23  1  0  0  0  0 
  1 24  1  0  0  0  0 
  1 25  1  0  0  0  0 
  1 26  1  0  0  0  0 
  7 27  1  0  0  0  0 
  9 28  1  0  0  0  0 
 10 29  1  0  0  0  0 
 10 30  1  0  0  0  0 
 12 31  1  0  0  0  0 
 13 32  1  0  0  0  0 
 18 33  1  0  0  0  0 
 21 34  1  0  0  0  0 
 22 35  1  0  0  0  0 
 23 36  1  0  0  0  0 
M  END
> <cdk:Title>
midazolam

> <Conformer>
1

> <SuperDrugID>
SD001602

$$$$
