buserelin
  CDK     0628171801

175180  0  0  0  0  0  0  0  0999 V2000
    1.4918    1.4582    1.4717 C   0  0  1  0  0  0  0  0  0  0  0  0
    0.1759    0.9355    2.1440 C   0  0  2  0  0  0  0  0  0  0  0  0
    1.4593    1.3056   -0.0043 C   0  0  0  0  0  0  0  0  0  0  0  0
   -0.0142    1.3972    3.4894 N   0  0  0  0  0  0  0  0  0  0  0  0
    0.0195   -0.5480    2.1919 C   0  0  0  0  0  0  0  0  0  0  0  0
    0.6598    2.0039   -0.9117 C   0  0  0  0  0  0  0  0  0  0  0  0
    2.2017    0.4106   -0.7799 C   0  0  0  0  0  0  0  0  0  0  0  0
   -0.2394    2.6805    3.8996 C   0  0  0  0  0  0  0  0  0  0  0  0
    1.0349   -1.4102    1.8788 N   0  0  0  0  0  0  0  0  0  0  0  0
   -1.0844   -0.9969    2.5909 O   0  0  0  0  0  0  0  0  0  0  0  0
    0.9111    1.4815   -2.1805 C   0  0  0  0  0  0  0  0  0  0  0  0
   -0.2713    3.0455   -0.7360 C   0  0  0  0  0  0  0  0  0  0  0  0
    1.8409    0.5219   -2.0712 N   0  0  0  0  0  0  0  0  0  0  0  0
   -0.8136    2.9468    5.2436 C   0  0  2  0  0  0  0  0  0  0  0  0
   -0.0979    3.6506    3.1178 O   0  0  0  0  0  0  0  0  0  0  0  0
    1.0373   -2.8328    2.0798 C   0  0  2  0  0  0  0  0  0  0  0  0
    0.2352    1.9634   -3.3152 C   0  0  0  0  0  0  0  0  0  0  0  0
   -0.9588    3.5374   -1.8650 C   0  0  0  0  0  0  0  0  0  0  0  0
   -0.2019    2.0806    6.3830 C   0  0  2  0  0  0  0  0  0  0  0  0
   -2.2116    2.6876    5.0608 N   0  0  0  0  0  0  0  0  0  0  0  0
    1.8091   -3.0583    3.3276 C   0  0  0  0  0  0  0  0  0  0  0  0
    1.6096   -3.5649    0.8399 C   0  0  2  0  0  0  0  0  0  0  0  0
   -0.7099    2.9975   -3.1465 C   0  0  0  0  0  0  0  0  0  0  0  0
   -0.8022    2.3623    7.7041 C   0  0  0  0  0  0  0  0  0  0  0  0
   -3.2305    3.5865    5.1836 C   0  0  0  0  0  0  0  0  0  0  0  0
    3.1655   -2.8942    3.3482 N   0  0  0  0  0  0  0  0  0  0  0  0
    1.1716   -3.2934    4.3823 O   0  0  0  0  0  0  0  0  0  0  0  0
    0.7765   -3.3235   -0.2900 O   0  0  0  0  0  0  0  0  0  0  0  0
   -1.5389    1.4942    8.5048 C   0  0  0  0  0  0  0  0  0  0  0  0
   -0.7452    3.5235    8.3692 N   0  0  0  0  0  0  0  0  0  0  0  0
   -3.0457    4.7331    5.6558 O   0  0  0  0  0  0  0  0  0  0  0  0
   -4.5716    3.2322    4.6641 C   0  0  2  0  0  0  0  0  0  0  0  0
    3.9796   -2.7636    4.5215 C   0  0  1  0  0  0  0  0  0  0  0  0
   -1.9202    2.1422    9.6167 N   0  0  0  0  0  0  0  0  0  0  0  0
   -1.4255    3.3872    9.5165 C   0  0  0  0  0  0  0  0  0  0  0  0
   -5.2054    1.9449    5.2639 C   0  0  2  0  0  0  0  0  0  0  0  0
   -4.4470    2.9518    3.2837 N   0  0  0  0  0  0  0  0  0  0  0  0
    4.0915   -4.0568    5.3948 C   0  0  2  0  0  0  0  0  0  0  0  0
    5.2997   -2.2457    4.0783 C   0  0  0  0  0  0  0  0  0  0  0  0
   -5.3307    0.9554    4.0807 C   0  0  2  0  0  0  0  0  0  0  0  0
   -4.8122    1.7156    2.9462 C   0  0  0  0  0  0  0  0  0  0  0  0
    4.8339   -3.8440    6.6734 C   0  0  0  0  0  0  0  0  0  0  0  0
    6.2665   -3.0820    3.5883 N   0  0  0  0  0  0  0  0  0  0  0  0
    5.5167   -1.0138    4.1807 O   0  0  0  0  0  0  0  0  0  0  0  0
   -4.7157    1.2751    1.7790 O   0  0  0  0  0  0  0  0  0  0  0  0
    4.2907   -3.0214    7.6898 C   0  0  0  0  0  0  0  0  0  0  0  0
    6.0895   -4.4554    6.9074 C   0  0  0  0  0  0  0  0  0  0  0  0
    7.6171   -2.6972    3.2635 C   0  0  1  0  0  0  0  0  0  0  0  0
    4.9852   -2.8042    8.8941 C   0  0  0  0  0  0  0  0  0  0  0  0
    6.7891   -4.2328    8.1096 C   0  0  0  0  0  0  0  0  0  0  0  0
    8.3560   -2.1694    4.4584 C   0  0  0  0  0  0  0  0  0  0  0  0
    8.3218   -3.8871    2.5375 C   0  0  1  0  0  0  0  0  0  0  0  0
    6.2391   -3.4068    9.1066 C   0  0  0  0  0  0  0  0  0  0  0  0
    9.5489   -1.5073    4.5061 N   0  0  0  0  0  0  0  0  0  0  0  0
    7.8460   -2.2796    5.5970 O   0  0  0  0  0  0  0  0  0  0  0  0
    8.0769   -3.7931    1.1133 O   0  0  0  0  0  0  0  0  0  0  0  0
    6.9226   -3.1991   10.2590 O   0  0  0  0  0  0  0  0  0  0  0  0
   10.5528   -1.2938    3.5073 C   0  0  2  0  0  0  0  0  0  0  0  0
    8.9074   -4.5253    0.1667 C   0  0  1  0  0  0  0  0  0  0  0  0
   11.7212   -0.6941    4.2037 C   0  0  0  0  0  0  0  0  0  0  0  0
   10.1655   -0.5415    2.1861 C   0  0  1  0  0  0  0  0  0  0  0  0
   10.3323   -3.8960    0.0515 C   0  0  0  0  0  0  0  0  0  0  0  0
    9.0056   -6.0474    0.4944 C   0  0  0  0  0  0  0  0  0  0  0  0
    8.1738   -4.3498   -1.1980 C   0  0  0  0  0  0  0  0  0  0  0  0
   11.6803    0.6002    4.6162 N   0  0  0  0  0  0  0  0  0  0  0  0
   12.7358   -1.4016    4.4145 O   0  0  0  0  0  0  0  0  0  0  0  0
    9.6584    0.9416    2.2117 C   0  0  1  0  0  0  0  0  0  0  0  0
   12.7539    1.3853    5.1513 C   0  0  2  0  0  0  0  0  0  0  0  0
    9.3598    1.4299    0.7641 C   0  0  0  0  0  0  0  0  0  0  0  0
    8.4252    1.1913    3.1225 C   0  0  0  0  0  0  0  0  0  0  0  0
   12.0904    2.5201    5.8658 C   0  0  0  0  0  0  0  0  0  0  0  0
   13.7209    1.9066    4.0362 C   0  0  2  0  0  0  0  0  0  0  0  0
   11.4917    3.3457    5.1305 O   0  0  0  0  0  0  0  0  0  0  0  0
   12.0519    2.7216    7.2390 N   0  0  0  0  0  0  0  0  0  0  0  0
   14.5171    0.8093    3.2755 C   0  0  2  0  0  0  0  0  0  0  0  0
   12.6262    1.8667    8.2461 C   0  0  2  0  0  0  0  0  0  0  0  0
   11.3973    3.8610    7.8167 C   0  0  2  0  0  0  0  0  0  0  0  0
   15.5760    1.3799    2.3023 C   0  0  2  0  0  0  0  0  0  0  0  0
   12.1179    0.4709    8.2241 C   0  0  0  0  0  0  0  0  0  0  0  0
   12.3128    2.5461    9.6066 C   0  0  2  0  0  0  0  0  0  0  0  0
   11.9674    3.9917    9.2355 C   0  0  1  0  0  0  0  0  0  0  0  0
   16.1624    0.3432    1.5743 N   0  0  0  0  0  0  0  0  0  0  0  0
   13.0151   -0.6135    8.2707 N   0  0  0  0  0  0  0  0  0  0  0  0
   10.8846    0.2533    8.1729 O   0  0  0  0  0  0  0  0  0  0  0  0
   17.0336    0.4169    0.6336 C   0  0  0  0  0  0  0  0  0  0  0  0
   12.7755   -2.0819    8.2853 C   0  0  1  0  0  0  0  0  0  0  0  0
   17.5261    1.5591    0.1935 N   0  0  0  0  0  0  0  0  0  0  0  0
   17.4423   -0.7047    0.0831 N   0  0  0  0  0  0  0  0  0  0  0  0
   13.4038   -2.7510    9.6416 C   0  0  0  0  0  0  0  0  0  0  0  0
    1.6398    2.5195    1.6769 H   0  0  0  0  0  0  0  0  0  0  0  0
    2.3600    0.9399    1.8876 H   0  0  0  0  0  0  0  0  0  0  0  0
   -0.6736    1.3130    1.5702 H   0  0  0  0  0  0  0  0  0  0  0  0
   -0.0641    0.7102    4.1702 H   0  0  0  0  0  0  0  0  0  0  0  0
    2.9000   -0.2443   -0.4254 H   0  0  0  0  0  0  0  0  0  0  0  0
    1.8533   -1.0248    1.5297 H   0  0  0  0  0  0  0  0  0  0  0  0
   -0.4541    3.4371    0.1879 H   0  0  0  0  0  0  0  0  0  0  0  0
    2.1940   -0.0079   -2.8036 H   0  0  0  0  0  0  0  0  0  0  0  0
   -0.6396    3.9996    5.4949 H   0  0  0  0  0  0  0  0  0  0  0  0
    0.0189   -3.2124    2.2216 H   0  0  0  0  0  0  0  0  0  0  0  0
    0.4180    1.5710   -4.2410 H   0  0  0  0  0  0  0  0  0  0  0  0
   -1.6406    4.2908   -1.7553 H   0  0  0  0  0  0  0  0  0  0  0  0
    0.8711    2.2773    6.4463 H   0  0  0  0  0  0  0  0  0  0  0  0
   -0.3358    1.0206    6.1573 H   0  0  0  0  0  0  0  0  0  0  0  0
   -2.4504    1.7975    4.7530 H   0  0  0  0  0  0  0  0  0  0  0  0
    1.6460   -4.6415    1.0212 H   0  0  0  0  0  0  0  0  0  0  0  0
    2.6183   -3.2160    0.6068 H   0  0  0  0  0  0  0  0  0  0  0  0
   -1.2187    3.3593   -3.9570 H   0  0  0  0  0  0  0  0  0  0  0  0
    3.6067   -2.7877    2.4907 H   0  0  0  0  0  0  0  0  0  0  0  0
    1.2041   -3.7951   -1.0357 H   0  0  0  0  0  0  0  0  0  0  0  0
   -1.7637    0.5220    8.2874 H   0  0  0  0  0  0  0  0  0  0  0  0
   -0.2903    4.3265    8.0706 H   0  0  0  0  0  0  0  0  0  0  0  0
   -5.2637    4.0743    4.7714 H   0  0  0  0  0  0  0  0  0  0  0  0
    3.5044   -1.9868    5.1327 H   0  0  0  0  0  0  0  0  0  0  0  0
   -1.5502    4.1232   10.2133 H   0  0  0  0  0  0  0  0  0  0  0  0
   -6.1955    2.1682    5.6719 H   0  0  0  0  0  0  0  0  0  0  0  0
   -4.5989    1.5144    6.0675 H   0  0  0  0  0  0  0  0  0  0  0  0
   -4.1146    3.5989    2.6416 H   0  0  0  0  0  0  0  0  0  0  0  0
    4.5578   -4.8463    4.7996 H   0  0  0  0  0  0  0  0  0  0  0  0
    3.0954   -4.4214    5.6527 H   0  0  0  0  0  0  0  0  0  0  0  0
   -6.3739    0.6858    3.8996 H   0  0  0  0  0  0  0  0  0  0  0  0
   -4.7360    0.0525    4.2481 H   0  0  0  0  0  0  0  0  0  0  0  0
    6.0358   -4.0197    3.4933 H   0  0  0  0  0  0  0  0  0  0  0  0
    3.3801   -2.5745    7.5620 H   0  0  0  0  0  0  0  0  0  0  0  0
    6.5113   -5.0624    6.2002 H   0  0  0  0  0  0  0  0  0  0  0  0
    7.5200   -1.8718    2.5603 H   0  0  0  0  0  0  0  0  0  0  0  0
    4.5750   -2.2066    9.6156 H   0  0  0  0  0  0  0  0  0  0  0  0
    7.6998   -4.6730    8.2579 H   0  0  0  0  0  0  0  0  0  0  0  0
    9.3879   -3.8839    2.7426 H   0  0  0  0  0  0  0  0  0  0  0  0
    7.9339   -4.8403    2.9083 H   0  0  0  0  0  0  0  0  0  0  0  0
    9.7760   -1.1659    5.3864 H   0  0  0  0  0  0  0  0  0  0  0  0
    6.2999   -2.7273   10.8519 H   0  0  0  0  0  0  0  0  0  0  0  0
   10.8736   -2.2886    3.1923 H   0  0  0  0  0  0  0  0  0  0  0  0
   11.0594   -0.5582    1.5550 H   0  0  0  0  0  0  0  0  0  0  0  0
    9.4301   -1.1391    1.6521 H   0  0  0  0  0  0  0  0  0  0  0  0
   10.9061   -4.0460    0.9665 H   0  0  0  0  0  0  0  0  0  0  0  0
   10.2631   -2.8227   -0.1352 H   0  0  0  0  0  0  0  0  0  0  0  0
   10.8934   -4.3497   -0.7695 H   0  0  0  0  0  0  0  0  0  0  0  0
    9.5830   -6.2105    1.4060 H   0  0  0  0  0  0  0  0  0  0  0  0
    9.4971   -6.5906   -0.3170 H   0  0  0  0  0  0  0  0  0  0  0  0
    8.0087   -6.4681    0.6386 H   0  0  0  0  0  0  0  0  0  0  0  0
    8.0948   -3.2924   -1.4609 H   0  0  0  0  0  0  0  0  0  0  0  0
    8.7060   -4.8617   -2.0039 H   0  0  0  0  0  0  0  0  0  0  0  0
    7.1628   -4.7595   -1.1440 H   0  0  0  0  0  0  0  0  0  0  0  0
   10.8337    1.0561    4.4972 H   0  0  0  0  0  0  0  0  0  0  0  0
   10.4659    1.5817    2.5714 H   0  0  0  0  0  0  0  0  0  0  0  0
   13.3429    0.7858    5.8457 H   0  0  0  0  0  0  0  0  0  0  0  0
   10.2503    1.3344    0.1384 H   0  0  0  0  0  0  0  0  0  0  0  0
    9.0657    2.4816    0.7654 H   0  0  0  0  0  0  0  0  0  0  0  0
    8.5541    0.8453    0.3144 H   0  0  0  0  0  0  0  0  0  0  0  0
    8.6542    0.9600    4.1613 H   0  0  0  0  0  0  0  0  0  0  0  0
    8.1306    2.2419    3.0837 H   0  0  0  0  0  0  0  0  0  0  0  0
    7.5759    0.5869    2.8043 H   0  0  0  0  0  0  0  0  0  0  0  0
   14.4386    2.5888    4.4999 H   0  0  0  0  0  0  0  0  0  0  0  0
   13.1499    2.4769    3.2977 H   0  0  0  0  0  0  0  0  0  0  0  0
   13.8211    0.2091    2.6855 H   0  0  0  0  0  0  0  0  0  0  0  0
   15.0166    0.1566    3.9969 H   0  0  0  0  0  0  0  0  0  0  0  0
   13.7123    1.8704    8.1054 H   0  0  0  0  0  0  0  0  0  0  0  0
   10.3177    3.6843    7.8503 H   0  0  0  0  0  0  0  0  0  0  0  0
   11.5947    4.7813    7.2603 H   0  0  0  0  0  0  0  0  0  0  0  0
   16.3450    1.9117    2.8684 H   0  0  0  0  0  0  0  0  0  0  0  0
   15.0947    2.0801    1.6137 H   0  0  0  0  0  0  0  0  0  0  0  0
   13.1698    2.5057   10.2849 H   0  0  0  0  0  0  0  0  0  0  0  0
   11.4502    2.0948   10.1093 H   0  0  0  0  0  0  0  0  0  0  0  0
   12.8740    4.6045    9.2252 H   0  0  0  0  0  0  0  0  0  0  0  0
   11.2424    4.4305    9.9264 H   0  0  0  0  0  0  0  0  0  0  0  0
   13.9544   -0.3335    8.3062 H   0  0  0  0  0  0  0  0  0  0  0  0
   11.7051   -2.2934    8.2557 H   0  0  0  0  0  0  0  0  0  0  0  0
   13.2478   -2.5308    7.4092 H   0  0  0  0  0  0  0  0  0  0  0  0
   18.1753    1.5679   -0.5267 H   0  0  0  0  0  0  0  0  0  0  0  0
   17.2368    2.3961    0.5895 H   0  0  0  0  0  0  0  0  0  0  0  0
   18.0883   -0.6875   -0.6409 H   0  0  0  0  0  0  0  0  0  0  0  0
   17.0968   -1.5560    0.3977 H   0  0  0  0  0  0  0  0  0  0  0  0
   13.2466   -3.8584    9.7253 H   0  0  0  0  0  0  0  0  0  0  0  0
   14.5120   -2.6269    9.7549 H   0  0  0  0  0  0  0  0  0  0  0  0
   12.9832   -2.3458   10.5980 H   0  0  0  0  0  0  0  0  0  0  0  0
  2  1  1  0  0  0  0 
  1  3  1  0  0  0  0 
  2  4  1  0  0  0  0 
  2  5  1  0  0  0  0 
  3  6  1  0  0  0  0 
  3  7  2  0  0  0  0 
  4  8  1  0  0  0  0 
  5  9  1  0  0  0  0 
  5 10  2  0  0  0  0 
  6 11  1  0  0  0  0 
  6 12  2  0  0  0  0 
  7 13  1  0  0  0  0 
 14  8  1  0  0  0  0 
  8 15  2  0  0  0  0 
 16  9  1  0  0  0  0 
 11 13  1  0  0  0  0 
 11 17  2  0  0  0  0 
 12 18  1  0  0  0  0 
 14 19  1  0  0  0  0 
 14 20  1  0  0  0  0 
 16 21  1  0  0  0  0 
 16 22  1  0  0  0  0 
 17 23  1  0  0  0  0 
 18 23  2  0  0  0  0 
 19 24  1  0  0  0  0 
 20 25  1  0  0  0  0 
 21 26  1  0  0  0  0 
 21 27  2  0  0  0  0 
 22 28  1  0  0  0  0 
 24 29  2  0  0  0  0 
 24 30  1  0  0  0  0 
 25 31  2  0  0  0  0 
 33 26  1  0  0  0  0 
 29 34  1  0  0  0  0 
 30 35  1  0  0  0  0 
 32 25  1  0  0  0  0 
 32 36  1  0  0  0  0 
 32 37  1  0  0  0  0 
 33 38  1  0  0  0  0 
 33 39  1  0  0  0  0 
 34 35  2  0  0  0  0 
 36 40  1  0  0  0  0 
 37 41  1  0  0  0  0 
 38 42  1  0  0  0  0 
 39 43  1  0  0  0  0 
 39 44  2  0  0  0  0 
 40 41  1  0  0  0  0 
 41 45  2  0  0  0  0 
 42 46  2  0  0  0  0 
 42 47  1  0  0  0  0 
 48 43  1  0  0  0  0 
 46 49  1  0  0  0  0 
 47 50  2  0  0  0  0 
 48 51  1  0  0  0  0 
 48 52  1  0  0  0  0 
 49 53  2  0  0  0  0 
 50 53  1  0  0  0  0 
 51 54  1  0  0  0  0 
 51 55  2  0  0  0  0 
 52 56  1  0  0  0  0 
 53 57  1  0  0  0  0 
 58 54  1  0  0  0  0 
 56 59  1  0  0  0  0 
 58 60  1  0  0  0  0 
 58 61  1  0  0  0  0 
 59 62  1  0  0  0  0 
 59 63  1  0  0  0  0 
 59 64  1  0  0  0  0 
 60 65  1  0  0  0  0 
 60 66  2  0  0  0  0 
 61 67  1  0  0  0  0 
 68 65  1  0  0  0  0 
 67 69  1  0  0  0  0 
 67 70  1  0  0  0  0 
 68 71  1  0  0  0  0 
 68 72  1  0  0  0  0 
 71 73  2  0  0  0  0 
 71 74  1  0  0  0  0 
 72 75  1  0  0  0  0 
 76 74  1  0  0  0  0 
 74 77  1  0  0  0  0 
 75 78  1  0  0  0  0 
 76 79  1  0  0  0  0 
 76 80  1  0  0  0  0 
 77 81  1  0  0  0  0 
 78 82  1  0  0  0  0 
 79 83  1  0  0  0  0 
 79 84  2  0  0  0  0 
 80 81  1  0  0  0  0 
 82 85  2  0  0  0  0 
 83 86  1  0  0  0  0 
 85 87  1  0  0  0  0 
 85 88  1  0  0  0  0 
 86 89  1  0  0  0  0 
 90  1  1  0  0  0  0 
 91  1  1  0  0  0  0 
  2 92  1  0  0  0  0 
 93  4  1  0  0  0  0 
 94  7  1  0  0  0  0 
 95  9  1  0  0  0  0 
 96 12  1  0  0  0  0 
 97 13  1  0  0  0  0 
 14 98  1  0  0  0  0 
 16 99  1  0  0  0  0 
100 17  1  0  0  0  0 
101 18  1  0  0  0  0 
102 19  1  0  0  0  0 
103 19  1  0  0  0  0 
104 20  1  0  0  0  0 
105 22  1  0  0  0  0 
106 22  1  0  0  0  0 
107 23  1  0  0  0  0 
108 26  1  0  0  0  0 
109 28  1  0  0  0  0 
110 29  1  0  0  0  0 
111 30  1  0  0  0  0 
 32112  1  0  0  0  0 
 33113  1  0  0  0  0 
114 35  1  0  0  0  0 
115 36  1  0  0  0  0 
116 36  1  0  0  0  0 
117 37  1  0  0  0  0 
118 38  1  0  0  0  0 
119 38  1  0  0  0  0 
120 40  1  0  0  0  0 
121 40  1  0  0  0  0 
122 43  1  0  0  0  0 
123 46  1  0  0  0  0 
124 47  1  0  0  0  0 
 48125  1  0  0  0  0 
126 49  1  0  0  0  0 
127 50  1  0  0  0  0 
128 52  1  0  0  0  0 
129 52  1  0  0  0  0 
130 54  1  0  0  0  0 
131 57  1  0  0  0  0 
 58132  1  0  0  0  0 
133 61  1  0  0  0  0 
134 61  1  0  0  0  0 
135 62  1  0  0  0  0 
136 62  1  0  0  0  0 
137 62  1  0  0  0  0 
138 63  1  0  0  0  0 
139 63  1  0  0  0  0 
140 63  1  0  0  0  0 
141 64  1  0  0  0  0 
142 64  1  0  0  0  0 
143 64  1  0  0  0  0 
144 65  1  0  0  0  0 
145 67  1  0  0  0  0 
 68146  1  0  0  0  0 
147 69  1  0  0  0  0 
148 69  1  0  0  0  0 
149 69  1  0  0  0  0 
150 70  1  0  0  0  0 
151 70  1  0  0  0  0 
152 70  1  0  0  0  0 
153 72  1  0  0  0  0 
154 72  1  0  0  0  0 
155 75  1  0  0  0  0 
156 75  1  0  0  0  0 
 76157  1  0  0  0  0 
158 77  1  0  0  0  0 
159 77  1  0  0  0  0 
160 78  1  0  0  0  0 
161 78  1  0  0  0  0 
162 80  1  0  0  0  0 
163 80  1  0  0  0  0 
164 81  1  0  0  0  0 
165 81  1  0  0  0  0 
166 83  1  0  0  0  0 
167 86  1  0  0  0  0 
168 86  1  0  0  0  0 
169 87  1  0  0  0  0 
170 87  1  0  0  0  0 
171 88  1  0  0  0  0 
172 88  1  0  0  0  0 
173 89  1  0  0  0  0 
174 89  1  0  0  0  0 
175 89  1  0  0  0  0 
M  END
> <cdk:Title>
buserelin

> <Conformer>
1

> <SuperDrugID>
SD000378

$$$$
