phthalylsulfathiazole
  CDK     0628171801

 40 42  0  0  0  0  0  0  0  0999 V2000
    0.7090   -2.5821    1.3072 C   0  0  0  0  0  0  0  0  0  0  0  0
    1.5036   -2.2809    0.2329 N   0  0  0  0  0  0  0  0  0  0  0  0
    0.8668   -2.0378    2.4243 O   0  0  0  0  0  0  0  0  0  0  0  0
   -0.3012   -3.5792    1.1927 C   0  0  0  0  0  0  0  0  0  0  0  0
    2.4956   -1.3393    0.0987 C   0  0  0  0  0  0  0  0  0  0  0  0
   -1.6405   -3.4115    1.6771 C   0  0  0  0  0  0  0  0  0  0  0  0
    0.0667   -4.8179    0.6050 C   0  0  0  0  0  0  0  0  0  0  0  0
    3.3828   -1.4974   -0.9915 C   0  0  0  0  0  0  0  0  0  0  0  0
    2.6725   -0.2094    0.9348 C   0  0  0  0  0  0  0  0  0  0  0  0
   -2.1300   -2.2170    2.2816 C   0  0  0  0  0  0  0  0  0  0  0  0
   -2.5517   -4.4906    1.5422 C   0  0  0  0  0  0  0  0  0  0  0  0
   -0.8535   -5.8731    0.4934 C   0  0  0  0  0  0  0  0  0  0  0  0
    4.4084   -0.5663   -1.2423 C   0  0  0  0  0  0  0  0  0  0  0  0
    3.6991    0.7212    0.6904 C   0  0  0  0  0  0  0  0  0  0  0  0
   -3.1157   -2.2456    3.2138 O   0  0  0  0  0  0  0  0  0  0  0  0
   -1.6933   -1.0839    1.9777 O   0  0  0  0  0  0  0  0  0  0  0  0
   -2.1643   -5.7061    0.9557 C   0  0  0  0  0  0  0  0  0  0  0  0
    4.5649    0.5588   -0.4089 C   0  0  0  0  0  0  0  0  0  0  0  0
    5.7943    1.7891   -0.7534 S   0  0  2  0  0  0  0  0  0  0  0  0
    7.0203    1.7897    0.4477 N   0  0  0  0  0  0  0  0  0  0  0  0
    5.0916    3.2328   -0.7860 O   0  0  0  0  0  0  0  0  0  0  0  0
    6.4866    1.5343   -2.1789 O   0  0  0  0  0  0  0  0  0  0  0  0
    7.9616    2.7544    0.5556 C   0  0  0  0  0  0  0  0  0  0  0  0
    8.9714    2.7440    1.4552 N   0  0  0  0  0  0  0  0  0  0  0  0
    8.1410    4.2317   -0.3828 S   0  0  0  0  0  0  0  0  0  0  0  0
    9.8254    3.8043    1.4317 C   0  0  0  0  0  0  0  0  0  0  0  0
    9.5589    4.7919    0.4782 C   0  0  0  0  0  0  0  0  0  0  0  0
    1.3447   -2.8241   -0.5543 H   0  0  0  0  0  0  0  0  0  0  0  0
    1.0203   -4.9759    0.2631 H   0  0  0  0  0  0  0  0  0  0  0  0
    3.2870   -2.2972   -1.6216 H   0  0  0  0  0  0  0  0  0  0  0  0
    2.0469   -0.0297    1.7178 H   0  0  0  0  0  0  0  0  0  0  0  0
   -3.5216   -4.4063    1.8604 H   0  0  0  0  0  0  0  0  0  0  0  0
   -0.5723   -6.7646    0.0776 H   0  0  0  0  0  0  0  0  0  0  0  0
    5.0310   -0.7113   -2.0404 H   0  0  0  0  0  0  0  0  0  0  0  0
    3.7992    1.5272    1.3116 H   0  0  0  0  0  0  0  0  0  0  0  0
   -3.4242   -1.4134    3.6309 H   0  0  0  0  0  0  0  0  0  0  0  0
   -2.8370   -6.4699    0.8629 H   0  0  0  0  0  0  0  0  0  0  0  0
    7.0520    1.0481    1.0721 H   0  0  0  0  0  0  0  0  0  0  0  0
   10.6139    3.8740    2.0770 H   0  0  0  0  0  0  0  0  0  0  0  0
   10.0735    5.6596    0.3157 H   0  0  0  0  0  0  0  0  0  0  0  0
  1  2  1  0  0  0  0 
  1  3  2  0  0  0  0 
  1  4  1  0  0  0  0 
  2  5  1  0  0  0  0 
  4  6  2  0  0  0  0 
  4  7  1  0  0  0  0 
  5  8  2  0  0  0  0 
  5  9  1  0  0  0  0 
  6 10  1  0  0  0  0 
  6 11  1  0  0  0  0 
  7 12  2  0  0  0  0 
  8 13  1  0  0  0  0 
  9 14  2  0  0  0  0 
 10 15  1  0  0  0  0 
 10 16  2  0  0  0  0 
 11 17  2  0  0  0  0 
 12 17  1  0  0  0  0 
 13 18  2  0  0  0  0 
 14 18  1  0  0  0  0 
 18 19  1  0  0  0  0 
 19 20  1  0  0  0  0 
 19 21  2  0  0  0  0 
 19 22  2  0  0  0  0 
 20 23  1  0  0  0  0 
 23 24  2  0  0  0  0 
 23 25  1  0  0  0  0 
 24 26  1  0  0  0  0 
 25 27  1  0  0  0  0 
 26 27  2  0  0  0  0 
  2 28  1  0  0  0  0 
  7 29  1  0  0  0  0 
  8 30  1  0  0  0  0 
  9 31  1  0  0  0  0 
 11 32  1  0  0  0  0 
 12 33  1  0  0  0  0 
 13 34  1  0  0  0  0 
 14 35  1  0  0  0  0 
 15 36  1  0  0  0  0 
 17 37  1  0  0  0  0 
 20 38  1  0  0  0  0 
 26 39  1  0  0  0  0 
 27 40  1  0  0  0  0 
M  END
> <cdk:Title>
phthalylsulfathiazole

> <Conformer>
1

> <SuperDrugID>
SD001937

$$$$
