acetyldigitoxin
  CDK     0628171802

123130  0  0  0  0  0  0  0  0999 V2000
   -1.2070    5.1551   10.2780 O   0  0  0  0  0  0  0  0  0  0  0  0
   -2.0265    4.1004   10.8024 C   0  0  1  0  0  0  0  0  0  0  0  0
   -2.8145    3.5350    9.5519 C   0  0  1  0  0  0  0  0  0  0  0  0
   -1.1159    3.0601   11.5519 C   0  0  1  0  0  0  0  0  0  0  0  0
   -2.9022    4.7162   11.9417 C   0  0  2  0  0  0  0  0  0  0  0  0
   -3.5277    2.1564    9.7962 C   0  0  1  0  0  0  0  0  0  0  0  0
   -3.7839    4.6152    8.9382 C   0  0  1  0  0  0  0  0  0  0  0  0
    0.2096    2.7379   10.7707 C   0  0  0  0  0  0  0  0  0  0  0  0
   -0.8615    3.7370   12.9588 C   0  0  2  0  0  0  0  0  0  0  0  0
   -1.9040    1.7079   11.7696 C   0  0  2  0  0  0  0  0  0  0  0  0
   -2.1961    4.4614   13.2907 C   0  0  1  0  0  0  0  0  0  0  0  0
   -4.2922    1.5662    8.5097 C   0  0  2  0  0  0  0  0  0  0  0  0
   -2.5619    1.1422   10.4890 C   0  0  1  0  0  0  0  0  0  0  0  0
   -5.0966    4.0485    8.3491 C   0  0  1  0  0  0  0  0  0  0  0  0
    0.3160    4.6149   13.0889 C   0  0  0  0  0  0  0  0  0  0  0  0
   -3.3537    0.6619    7.6252 C   0  0  0  0  0  0  0  0  0  0  0  0
   -4.8131    2.7406    7.5581 C   0  0  2  0  0  0  0  0  0  0  0  0
   -5.4858    0.6586    9.0325 C   0  0  2  0  0  0  0  0  0  0  0  0
    1.5524    4.1986   13.7189 C   0  0  2  0  0  0  0  0  0  0  0  0
    0.4520    5.8783   12.6714 C   0  0  0  0  0  0  0  0  0  0  0  0
   -6.0191    2.3682    6.6339 C   0  0  2  0  0  0  0  0  0  0  0  0
   -6.6304    0.3767    8.0241 C   0  0  2  0  0  0  0  0  0  0  0  0
    2.3897    5.3445   13.5723 O   0  0  0  0  0  0  0  0  0  0  0  0
    1.7023    6.3173   12.9435 C   0  0  0  0  0  0  0  0  0  0  0  0
   -7.1707    1.7018    7.4346 C   0  0  2  0  0  0  0  0  0  0  0  0
    2.1590    7.4455   12.6543 O   0  0  0  0  0  0  0  0  0  0  0  0
   -8.4044    1.4450    6.7167 O   0  0  0  0  0  0  0  0  0  0  0  0
   -9.0922    2.5872    6.1477 C   0  0  1  0  0  0  0  0  0  0  0  0
  -10.4899    2.1854    5.5890 C   0  0  1  0  0  0  0  0  0  0  0  0
   -9.1358    3.7585    7.0067 O   0  0  0  0  0  0  0  0  0  0  0  0
  -11.6307    2.3074    6.6345 C   0  0  2  0  0  0  0  0  0  0  0  0
  -10.1729    3.8501    8.0122 C   0  0  1  0  0  0  0  0  0  0  0  0
  -12.8958    2.1294    5.9992 O   0  0  0  0  0  0  0  0  0  0  0  0
  -11.5807    3.6841    7.3547 C   0  0  1  0  0  0  0  0  0  0  0  0
   -9.9442    2.9537    9.2602 C   0  0  0  0  0  0  0  0  0  0  0  0
  -11.8751    4.6962    6.3542 O   0  0  0  0  0  0  0  0  0  0  0  0
  -12.0941    6.0573    6.7896 C   0  0  1  0  0  0  0  0  0  0  0  0
  -12.2382    6.9924    5.5584 C   0  0  1  0  0  0  0  0  0  0  0  0
  -13.1871    6.1916    7.7293 O   0  0  0  0  0  0  0  0  0  0  0  0
  -13.6695    6.9705    4.9631 C   0  0  2  0  0  0  0  0  0  0  0  0
  -14.5364    6.1547    7.2084 C   0  0  1  0  0  0  0  0  0  0  0  0
  -13.7708    7.9557    3.9373 O   0  0  0  0  0  0  0  0  0  0  0  0
  -14.7321    7.2155    6.0747 C   0  0  1  0  0  0  0  0  0  0  0  0
  -15.0113    4.7257    6.8254 C   0  0  0  0  0  0  0  0  0  0  0  0
  -14.5315    8.5822    6.5136 O   0  0  0  0  0  0  0  0  0  0  0  0
  -15.4926    9.2090    7.3914 C   0  0  1  0  0  0  0  0  0  0  0  0
  -14.9393   10.6051    7.7850 C   0  0  1  0  0  0  0  0  0  0  0  0
  -16.8364    9.2922    6.8551 O   0  0  0  0  0  0  0  0  0  0  0  0
  -15.0583   11.6014    6.5986 C   0  0  2  0  0  0  0  0  0  0  0  0
  -17.1080   10.2552    5.8074 C   0  0  1  0  0  0  0  0  0  0  0  0
  -14.6328   12.9315    6.9427 O   0  0  0  0  0  0  0  0  0  0  0  0
  -16.5318   11.6703    6.1197 C   0  0  1  0  0  0  0  0  0  0  0  0
  -16.7293    9.7296    4.4027 C   0  0  0  0  0  0  0  0  0  0  0  0
  -13.3712   13.3554    7.2449 C   0  0  0  0  0  0  0  0  0  0  0  0
  -17.3288   12.3055    7.1197 O   0  0  0  0  0  0  0  0  0  0  0  0
  -13.1699   14.7821    7.5343 C   0  0  0  0  0  0  0  0  0  0  0  0
  -12.3971   12.5663    7.2552 O   0  0  0  0  0  0  0  0  0  0  0  0
   -2.0646    3.3269    8.7810 H   0  0  0  0  0  0  0  0  0  0  0  0
   -4.2799    2.3883   10.5543 H   0  0  0  0  0  0  0  0  0  0  0  0
   -4.0141    3.0153    6.8582 H   0  0  0  0  0  0  0  0  0  0  0  0
   -8.5058    2.8842    5.2740 H   0  0  0  0  0  0  0  0  0  0  0  0
  -11.2010    6.4094    7.3056 H   0  0  0  0  0  0  0  0  0  0  0  0
  -15.5610    8.6352    8.3182 H   0  0  0  0  0  0  0  0  0  0  0  0
   -1.8292    5.8295    9.9375 H   0  0  0  0  0  0  0  0  0  0  0  0
   -3.8951    4.2600   11.9671 H   0  0  0  0  0  0  0  0  0  0  0  0
   -3.0394    5.7913   11.7955 H   0  0  0  0  0  0  0  0  0  0  0  0
   -4.0793    5.3706    9.6675 H   0  0  0  0  0  0  0  0  0  0  0  0
   -3.2533    5.1516    8.1456 H   0  0  0  0  0  0  0  0  0  0  0  0
    0.0014    2.3302    9.7820 H   0  0  0  0  0  0  0  0  0  0  0  0
    0.8215    3.6280   10.6211 H   0  0  0  0  0  0  0  0  0  0  0  0
    0.8093    2.0086   11.3181 H   0  0  0  0  0  0  0  0  0  0  0  0
   -0.7236    2.9511   13.7123 H   0  0  0  0  0  0  0  0  0  0  0  0
   -2.6986    1.8349   12.5091 H   0  0  0  0  0  0  0  0  0  0  0  0
   -1.2303    0.9463   12.1758 H   0  0  0  0  0  0  0  0  0  0  0  0
   -2.0489    5.3929   13.8437 H   0  0  0  0  0  0  0  0  0  0  0  0
   -2.8277    3.8217   13.9155 H   0  0  0  0  0  0  0  0  0  0  0  0
   -3.1149    0.2389   10.7613 H   0  0  0  0  0  0  0  0  0  0  0  0
   -1.7682    0.8417    9.8044 H   0  0  0  0  0  0  0  0  0  0  0  0
   -5.8049    3.8518    9.1592 H   0  0  0  0  0  0  0  0  0  0  0  0
   -5.5406    4.8104    7.7012 H   0  0  0  0  0  0  0  0  0  0  0  0
   -3.8559    0.3379    6.7130 H   0  0  0  0  0  0  0  0  0  0  0  0
   -3.0467   -0.2431    8.1513 H   0  0  0  0  0  0  0  0  0  0  0  0
   -2.4503    1.2034    7.3361 H   0  0  0  0  0  0  0  0  0  0  0  0
   -5.9660    1.1233    9.8968 H   0  0  0  0  0  0  0  0  0  0  0  0
   -5.1070   -0.3049    9.3846 H   0  0  0  0  0  0  0  0  0  0  0  0
    1.9939    3.3363   13.2169 H   0  0  0  0  0  0  0  0  0  0  0  0
    1.3935    3.9775   14.7762 H   0  0  0  0  0  0  0  0  0  0  0  0
   -0.2448    6.4277   12.2307 H   0  0  0  0  0  0  0  0  0  0  0  0
   -5.6893    1.6955    5.8370 H   0  0  0  0  0  0  0  0  0  0  0  0
   -6.3812    3.2695    6.1376 H   0  0  0  0  0  0  0  0  0  0  0  0
   -7.4422   -0.1421    8.5430 H   0  0  0  0  0  0  0  0  0  0  0  0
   -6.2771   -0.2823    7.2257 H   0  0  0  0  0  0  0  0  0  0  0  0
   -7.4184    2.3480    8.2733 H   0  0  0  0  0  0  0  0  0  0  0  0
  -10.7289    2.8389    4.7437 H   0  0  0  0  0  0  0  0  0  0  0  0
  -10.4546    1.1612    5.2085 H   0  0  0  0  0  0  0  0  0  0  0  0
  -11.5380    1.5015    7.3658 H   0  0  0  0  0  0  0  0  0  0  0  0
  -10.0970    4.8619    8.4095 H   0  0  0  0  0  0  0  0  0  0  0  0
  -12.8727    1.2193    5.6339 H   0  0  0  0  0  0  0  0  0  0  0  0
  -12.3529    3.6989    8.1299 H   0  0  0  0  0  0  0  0  0  0  0  0
   -9.0210    3.2459    9.7634 H   0  0  0  0  0  0  0  0  0  0  0  0
   -9.8765    1.8997    8.9938 H   0  0  0  0  0  0  0  0  0  0  0  0
  -10.7637    3.0811    9.9701 H   0  0  0  0  0  0  0  0  0  0  0  0
  -11.9988    8.0162    5.8631 H   0  0  0  0  0  0  0  0  0  0  0  0
  -11.5158    6.7031    4.7907 H   0  0  0  0  0  0  0  0  0  0  0  0
  -13.8454    6.0075    4.4802 H   0  0  0  0  0  0  0  0  0  0  0  0
  -15.1734    6.4324    8.0479 H   0  0  0  0  0  0  0  0  0  0  0  0
  -13.0898    7.7099    3.2771 H   0  0  0  0  0  0  0  0  0  0  0  0
  -15.7309    7.1129    5.6403 H   0  0  0  0  0  0  0  0  0  0  0  0
  -14.8638    4.0436    7.6646 H   0  0  0  0  0  0  0  0  0  0  0  0
  -14.4686    4.3354    5.9668 H   0  0  0  0  0  0  0  0  0  0  0  0
  -16.0748    4.7387    6.5781 H   0  0  0  0  0  0  0  0  0  0  0  0
  -15.5035   10.9876    8.6397 H   0  0  0  0  0  0  0  0  0  0  0  0
  -13.8948   10.5088    8.0960 H   0  0  0  0  0  0  0  0  0  0  0  0
  -14.4299   11.2563    5.7692 H   0  0  0  0  0  0  0  0  0  0  0  0
  -18.1965   10.3532    5.7878 H   0  0  0  0  0  0  0  0  0  0  0  0
  -16.5811   12.3018    5.2288 H   0  0  0  0  0  0  0  0  0  0  0  0
  -17.1532   10.3772    3.6337 H   0  0  0  0  0  0  0  0  0  0  0  0
  -15.6516    9.7057    4.2719 H   0  0  0  0  0  0  0  0  0  0  0  0
  -17.1286    8.7252    4.2609 H   0  0  0  0  0  0  0  0  0  0  0  0
  -18.1902   12.4701    6.6831 H   0  0  0  0  0  0  0  0  0  0  0  0
  -13.8329   15.0979    8.3419 H   0  0  0  0  0  0  0  0  0  0  0  0
  -13.3932   15.3641    6.6393 H   0  0  0  0  0  0  0  0  0  0  0  0
  -12.1401   14.9880    7.8327 H   0  0  0  0  0  0  0  0  0  0  0  0
  2  1  1  0  0  0  0 
  3  2  1  0  0  0  0 
  2  4  1  0  0  0  0 
  2  5  1  0  0  0  0 
  6  3  1  0  0  0  0 
  3  7  1  0  0  0  0 
  3 58  1  0  0  0  0 
  4  8  1  0  0  0  0 
  4  9  1  0  0  0  0 
  4 10  1  0  0  0  0 
  5 11  1  0  0  0  0 
 12  6  1  0  0  0  0 
  6 13  1  0  0  0  0 
  6 59  1  0  0  0  0 
  7 14  1  0  0  0  0 
  9 11  1  0  0  0  0 
  9 15  1  0  0  0  0 
 10 13  1  0  0  0  0 
 12 16  1  0  0  0  0 
 17 12  1  0  0  0  0 
 12 18  1  0  0  0  0 
 17 14  1  0  0  0  0 
 15 19  1  0  0  0  0 
 15 20  2  0  0  0  0 
 17 21  1  0  0  0  0 
 17 60  1  0  0  0  0 
 18 22  1  0  0  0  0 
 19 23  1  0  0  0  0 
 20 24  1  0  0  0  0 
 25 21  1  0  0  0  0 
 25 22  1  0  0  0  0 
 23 24  1  0  0  0  0 
 24 26  2  0  0  0  0 
 25 27  1  0  0  0  0 
 28 27  1  0  0  0  0 
 28 29  1  0  0  0  0 
 28 30  1  0  0  0  0 
 28 61  1  0  0  0  0 
 31 29  1  0  0  0  0 
 32 30  1  0  0  0  0 
 31 33  1  0  0  0  0 
 31 34  1  0  0  0  0 
 34 32  1  0  0  0  0 
 32 35  1  0  0  0  0 
 34 36  1  0  0  0  0 
 37 36  1  0  0  0  0 
 37 38  1  0  0  0  0 
 37 39  1  0  0  0  0 
 37 62  1  0  0  0  0 
 40 38  1  0  0  0  0 
 41 39  1  0  0  0  0 
 40 42  1  0  0  0  0 
 43 40  1  0  0  0  0 
 41 43  1  0  0  0  0 
 41 44  1  0  0  0  0 
 43 45  1  0  0  0  0 
 46 45  1  0  0  0  0 
 46 47  1  0  0  0  0 
 46 48  1  0  0  0  0 
 46 63  1  0  0  0  0 
 49 47  1  0  0  0  0 
 50 48  1  0  0  0  0 
 49 51  1  0  0  0  0 
 52 49  1  0  0  0  0 
 52 50  1  0  0  0  0 
 50 53  1  0  0  0  0 
 51 54  1  0  0  0  0 
 52 55  1  0  0  0  0 
 54 56  1  0  0  0  0 
 54 57  2  0  0  0  0 
  1 64  1  0  0  0  0 
  5 65  1  0  0  0  0 
  5 66  1  0  0  0  0 
  7 67  1  0  0  0  0 
  7 68  1  0  0  0  0 
  8 69  1  0  0  0  0 
  8 70  1  0  0  0  0 
  8 71  1  0  0  0  0 
  9 72  1  0  0  0  0 
 10 73  1  0  0  0  0 
 10 74  1  0  0  0  0 
 11 75  1  0  0  0  0 
 11 76  1  0  0  0  0 
 13 77  1  0  0  0  0 
 13 78  1  0  0  0  0 
 14 79  1  0  0  0  0 
 14 80  1  0  0  0  0 
 16 81  1  0  0  0  0 
 16 82  1  0  0  0  0 
 16 83  1  0  0  0  0 
 18 84  1  0  0  0  0 
 18 85  1  0  0  0  0 
 19 86  1  0  0  0  0 
 19 87  1  0  0  0  0 
 20 88  1  0  0  0  0 
 21 89  1  0  0  0  0 
 21 90  1  0  0  0  0 
 22 91  1  0  0  0  0 
 22 92  1  0  0  0  0 
 25 93  1  0  0  0  0 
 29 94  1  0  0  0  0 
 29 95  1  0  0  0  0 
 31 96  1  0  0  0  0 
 32 97  1  0  0  0  0 
 33 98  1  0  0  0  0 
 34 99  1  0  0  0  0 
 35100  1  0  0  0  0 
 35101  1  0  0  0  0 
 35102  1  0  0  0  0 
 38103  1  0  0  0  0 
 38104  1  0  0  0  0 
 40105  1  0  0  0  0 
 41106  1  0  0  0  0 
 42107  1  0  0  0  0 
 43108  1  0  0  0  0 
 44109  1  0  0  0  0 
 44110  1  0  0  0  0 
 44111  1  0  0  0  0 
 47112  1  0  0  0  0 
 47113  1  0  0  0  0 
 49114  1  0  0  0  0 
 50115  1  0  0  0  0 
 52116  1  0  0  0  0 
 53117  1  0  0  0  0 
 53118  1  0  0  0  0 
 53119  1  0  0  0  0 
 55120  1  0  0  0  0 
 56121  1  0  0  0  0 
 56122  1  0  0  0  0 
 56123  1  0  0  0  0 
M  END
> <cdk:Title>
acetyldigitoxin

> <Conformer>
1

> <SuperDrugID>
SD000044

$$$$
