betamethasone valerate
  CDK     0628171801

 71 74  0  0  0  0  0  0  0  0999 V2000
   -4.1226    0.2540    3.6256 C   0  0  0  0  0  0  0  0  0  0  0  0
   -3.6461    0.1149    2.3792 C   0  0  0  0  0  0  0  0  0  0  0  0
   -2.6297    0.9308    1.9192 C   0  0  0  0  0  0  0  0  0  0  0  0
   -2.1081    1.9359    2.7190 C   0  0  0  0  0  0  0  0  0  0  0  0
   -2.5417    2.1312    3.9859 C   0  0  0  0  0  0  0  0  0  0  0  0
   -3.6021    1.2549    4.5920 C   0  0  1  0  0  0  0  0  0  0  0  0
   -2.1827    0.7613    0.7612 O   0  0  0  0  0  0  0  0  0  0  0  0
   -1.9940    3.2371    4.7862 C   0  0  2  0  0  0  0  0  0  0  0  0
   -3.1130    4.1545    5.3408 C   0  0  2  0  0  0  0  0  0  0  0  0
   -4.2336    3.3401    6.0637 C   0  0  2  0  0  0  0  0  0  0  0  0
   -4.7849    2.2088    5.0983 C   0  0  2  0  0  0  0  0  0  0  0  0
   -5.3841    4.2630    6.5963 C   0  0  1  0  0  0  0  0  0  0  0  0
   -6.5585    3.5150    7.3126 C   0  0  1  0  0  0  0  0  0  0  0  0
   -7.1317    2.5003    6.2597 C   0  0  2  0  0  0  0  0  0  0  0  0
   -6.0719    1.5019    5.6836 C   0  0  2  0  0  0  0  0  0  0  0  0
   -2.9113    0.3860    5.7109 C   0  0  0  0  0  0  0  0  0  0  0  0
   -6.1020    2.6930    8.5890 C   0  0  0  0  0  0  0  0  0  0  0  0
   -5.7734    0.5060    6.6543 O   0  0  0  0  0  0  0  0  0  0  0  0
   -5.2711    2.8523    3.9644 F   0  0  0  0  0  0  0  0  0  0  0  0
   -5.0385    5.3882    7.5932 C   0  0  1  0  0  0  0  0  0  0  0  0
   -6.4178    5.8486    8.1614 C   0  0  1  0  0  0  0  0  0  0  0  0
   -7.4818    4.7568    7.7089 C   0  0  1  0  0  0  0  0  0  0  0  0
   -8.0891    5.3558    6.5274 O   0  0  0  0  0  0  0  0  0  0  0  0
   -6.3154    6.2354    9.6678 C   0  0  0  0  0  0  0  0  0  0  0  0
   -8.6119    4.5303    8.6841 C   0  0  0  0  0  0  0  0  0  0  0  0
   -8.8514    3.3979    9.1612 O   0  0  0  0  0  0  0  0  0  0  0  0
   -9.6019    5.5735    9.0454 C   0  0  1  0  0  0  0  0  0  0  0  0
   -9.6817    5.7080   10.4625 O   0  0  0  0  0  0  0  0  0  0  0  0
   -9.2110    5.0666    5.7935 C   0  0  0  0  0  0  0  0  0  0  0  0
   -9.9326    4.0770    6.0574 O   0  0  0  0  0  0  0  0  0  0  0  0
   -9.5694    5.9774    4.6883 C   0  0  2  0  0  0  0  0  0  0  0  0
   -9.8417    7.4089    5.2264 C   0  0  2  0  0  0  0  0  0  0  0  0
  -10.2882    8.4074    4.1276 C   0  0  2  0  0  0  0  0  0  0  0  0
  -10.5577    9.8231    4.6876 C   0  0  0  0  0  0  0  0  0  0  0  0
   -4.8437   -0.3681    3.9120 H   0  0  0  0  0  0  0  0  0  0  0  0
   -4.0273   -0.5868    1.7835 H   0  0  0  0  0  0  0  0  0  0  0  0
   -1.4018    2.5205    2.3315 H   0  0  0  0  0  0  0  0  0  0  0  0
   -1.2984    3.8628    4.2190 H   0  0  0  0  0  0  0  0  0  0  0  0
   -1.4201    2.8280    5.6191 H   0  0  0  0  0  0  0  0  0  0  0  0
   -3.5400    4.7319    4.5150 H   0  0  0  0  0  0  0  0  0  0  0  0
   -2.6592    4.8672    6.0333 H   0  0  0  0  0  0  0  0  0  0  0  0
   -3.7561    2.8802    6.9269 H   0  0  0  0  0  0  0  0  0  0  0  0
   -5.7724    4.7685    5.7018 H   0  0  0  0  0  0  0  0  0  0  0  0
   -7.5409    3.0394    5.4056 H   0  0  0  0  0  0  0  0  0  0  0  0
   -7.9614    1.9417    6.7005 H   0  0  0  0  0  0  0  0  0  0  0  0
   -6.5699    0.9572    4.8764 H   0  0  0  0  0  0  0  0  0  0  0  0
   -3.5672   -0.3942    6.0979 H   0  0  0  0  0  0  0  0  0  0  0  0
   -2.5875    0.9791    6.5633 H   0  0  0  0  0  0  0  0  0  0  0  0
   -2.0239   -0.1174    5.3154 H   0  0  0  0  0  0  0  0  0  0  0  0
   -5.1972    2.1166    8.4243 H   0  0  0  0  0  0  0  0  0  0  0  0
   -5.8982    3.3268    9.4444 H   0  0  0  0  0  0  0  0  0  0  0  0
   -6.8681    1.9782    8.8921 H   0  0  0  0  0  0  0  0  0  0  0  0
   -6.6410    0.1115    6.8817 H   0  0  0  0  0  0  0  0  0  0  0  0
   -4.3781    5.0027    8.3780 H   0  0  0  0  0  0  0  0  0  0  0  0
   -4.5288    6.2153    7.0894 H   0  0  0  0  0  0  0  0  0  0  0  0
   -6.6520    6.8031    7.6723 H   0  0  0  0  0  0  0  0  0  0  0  0
   -7.2088    6.7680    9.9903 H   0  0  0  0  0  0  0  0  0  0  0  0
   -6.1824    5.3702   10.3133 H   0  0  0  0  0  0  0  0  0  0  0  0
   -5.4684    6.9078    9.8200 H   0  0  0  0  0  0  0  0  0  0  0  0
   -9.3493    6.5427    8.6122 H   0  0  0  0  0  0  0  0  0  0  0  0
  -10.5850    5.2829    8.6683 H   0  0  0  0  0  0  0  0  0  0  0  0
  -10.4103    6.3446   10.6288 H   0  0  0  0  0  0  0  0  0  0  0  0
  -10.4579    5.6056    4.1691 H   0  0  0  0  0  0  0  0  0  0  0  0
   -8.7432    6.0008    3.9712 H   0  0  0  0  0  0  0  0  0  0  0  0
   -8.9296    7.7904    5.6958 H   0  0  0  0  0  0  0  0  0  0  0  0
  -10.6219    7.3615    5.9916 H   0  0  0  0  0  0  0  0  0  0  0  0
  -11.2012    8.0377    3.6537 H   0  0  0  0  0  0  0  0  0  0  0  0
   -9.5118    8.4790    3.3616 H   0  0  0  0  0  0  0  0  0  0  0  0
  -10.8338   10.4946    3.8724 H   0  0  0  0  0  0  0  0  0  0  0  0
   -9.6655   10.2149    5.1818 H   0  0  0  0  0  0  0  0  0  0  0  0
  -11.3768    9.7985    5.4084 H   0  0  0  0  0  0  0  0  0  0  0  0
  1  2  2  0  0  0  0 
  2  3  1  0  0  0  0 
  3  4  1  0  0  0  0 
  4  5  2  0  0  0  0 
  6  5  1  0  0  0  0 
  6  1  1  0  0  0  0 
  3  7  2  0  0  0  0 
  5  8  1  0  0  0  0 
  8  9  1  0  0  0  0 
 10  9  1  0  0  0  0 
 11 10  1  0  0  0  0 
 11  6  1  0  0  0  0 
 10 12  1  0  0  0  0 
 12 13  1  0  0  0  0 
 13 14  1  0  0  0  0 
 15 14  1  0  0  0  0 
 11 15  1  0  0  0  0 
  6 16  1  0  0  0  0 
 13 17  1  0  0  0  0 
 15 18  1  0  0  0  0 
 11 19  1  0  0  0  0 
 12 20  1  0  0  0  0 
 21 20  1  0  0  0  0 
 22 21  1  0  0  0  0 
 13 22  1  0  0  0  0 
 22 23  1  0  0  0  0 
 21 24  1  0  0  0  0 
 22 25  1  0  0  0  0 
 25 26  2  0  0  0  0 
 25 27  1  0  0  0  0 
 27 28  1  0  0  0  0 
 23 29  1  0  0  0  0 
 29 30  2  0  0  0  0 
 29 31  1  0  0  0  0 
 31 32  1  0  0  0  0 
 32 33  1  0  0  0  0 
 33 34  1  0  0  0  0 
 35  1  1  0  0  0  0 
 36  2  1  0  0  0  0 
 37  4  1  0  0  0  0 
 38  8  1  0  0  0  0 
 39  8  1  0  0  0  0 
 40  9  1  0  0  0  0 
 41  9  1  0  0  0  0 
 10 42  1  0  0  0  0 
 12 43  1  0  0  0  0 
 44 14  1  0  0  0  0 
 45 14  1  0  0  0  0 
 15 46  1  0  0  0  0 
 47 16  1  0  0  0  0 
 48 16  1  0  0  0  0 
 49 16  1  0  0  0  0 
 50 17  1  0  0  0  0 
 51 17  1  0  0  0  0 
 52 17  1  0  0  0  0 
 53 18  1  0  0  0  0 
 54 20  1  0  0  0  0 
 55 20  1  0  0  0  0 
 21 56  1  0  0  0  0 
 57 24  1  0  0  0  0 
 58 24  1  0  0  0  0 
 59 24  1  0  0  0  0 
 60 27  1  0  0  0  0 
 61 27  1  0  0  0  0 
 62 28  1  0  0  0  0 
 63 31  1  0  0  0  0 
 64 31  1  0  0  0  0 
 65 32  1  0  0  0  0 
 66 32  1  0  0  0  0 
 67 33  1  0  0  0  0 
 68 33  1  0  0  0  0 
 69 34  1  0  0  0  0 
 70 34  1  0  0  0  0 
 71 34  1  0  0  0  0 
M  END
> <cdk:Title>
betamethasone valerate

> <Conformer>
1

> <SuperDrugID>
SD000299

$$$$
