tetrabarbital
  CDK     0628171801

 37 37  0  0  0  0  0  0  0  0999 V2000
    0.7687    2.7829   -2.1042 C   0  0  1  0  0  0  0  0  0  0  0  0
    1.8597    3.5632   -2.9347 C   0  0  2  0  0  0  0  0  0  0  0  0
   -0.2682    2.0337   -3.0225 C   0  0  2  0  0  0  0  0  0  0  0  0
    1.3274    1.9397   -0.8617 C   0  0  1  0  0  0  0  0  0  0  0  0
    2.8179    2.7365   -3.8379 C   0  0  2  0  0  0  0  0  0  0  0  0
   -1.0426    2.9113   -4.0395 C   0  0  0  0  0  0  0  0  0  0  0  0
    0.2128    1.3139    0.0754 C   0  0  2  0  0  0  0  0  0  0  0  0
    2.1476    0.7508   -1.3060 C   0  0  0  0  0  0  0  0  0  0  0  0
    2.1892    2.8323    0.0048 C   0  0  0  0  0  0  0  0  0  0  0  0
    3.7306    3.6332   -4.7076 C   0  0  0  0  0  0  0  0  0  0  0  0
   -0.8334    2.2540    0.7277 C   0  0  0  0  0  0  0  0  0  0  0  0
    1.6736   -0.1289   -2.0603 O   0  0  0  0  0  0  0  0  0  0  0  0
    3.4136    0.5154   -0.8682 N   0  0  0  0  0  0  0  0  0  0  0  0
    1.7697    3.9376    0.4196 O   0  0  0  0  0  0  0  0  0  0  0  0
    3.4566    2.5103    0.3769 N   0  0  0  0  0  0  0  0  0  0  0  0
    4.0456    1.3617   -0.0257 C   0  0  0  0  0  0  0  0  0  0  0  0
    5.1947    1.0805    0.3807 O   0  0  0  0  0  0  0  0  0  0  0  0
    0.1787    3.5870   -1.6532 H   0  0  0  0  0  0  0  0  0  0  0  0
    2.4772    4.1554   -2.2561 H   0  0  0  0  0  0  0  0  0  0  0  0
    1.3502    4.2942   -3.5676 H   0  0  0  0  0  0  0  0  0  0  0  0
   -1.0336    1.5734   -2.3973 H   0  0  0  0  0  0  0  0  0  0  0  0
    0.2184    1.2325   -3.5794 H   0  0  0  0  0  0  0  0  0  0  0  0
    2.2477    2.0842   -4.5016 H   0  0  0  0  0  0  0  0  0  0  0  0
    3.4664    2.1172   -3.2185 H   0  0  0  0  0  0  0  0  0  0  0  0
   -0.3808    3.2847   -4.8231 H   0  0  0  0  0  0  0  0  0  0  0  0
   -1.8235    2.3125   -4.5156 H   0  0  0  0  0  0  0  0  0  0  0  0
   -1.5152    3.7563   -3.5338 H   0  0  0  0  0  0  0  0  0  0  0  0
    0.6986    0.7787    0.9007 H   0  0  0  0  0  0  0  0  0  0  0  0
   -0.3548    0.5556   -0.4721 H   0  0  0  0  0  0  0  0  0  0  0  0
    4.4136    3.0137   -5.2907 H   0  0  0  0  0  0  0  0  0  0  0  0
    3.1374    4.2333   -5.3993 H   0  0  0  0  0  0  0  0  0  0  0  0
    4.3205    4.3020   -4.0787 H   0  0  0  0  0  0  0  0  0  0  0  0
   -1.5451    1.6548    1.3005 H   0  0  0  0  0  0  0  0  0  0  0  0
   -0.3621    2.9538    1.4179 H   0  0  0  0  0  0  0  0  0  0  0  0
   -1.3902    2.8108   -0.0254 H   0  0  0  0  0  0  0  0  0  0  0  0
    3.8760   -0.2867   -1.1617 H   0  0  0  0  0  0  0  0  0  0  0  0
    3.9528    3.1210    0.9471 H   0  0  0  0  0  0  0  0  0  0  0  0
  1  2  1  0  0  0  0 
  1  3  1  0  0  0  0 
  1  4  1  0  0  0  0 
  2  5  1  0  0  0  0 
  3  6  1  0  0  0  0 
  4  7  1  0  0  0  0 
  4  8  1  0  0  0  0 
  4  9  1  0  0  0  0 
  5 10  1  0  0  0  0 
  7 11  1  0  0  0  0 
  8 12  2  0  0  0  0 
  8 13  1  0  0  0  0 
  9 14  2  0  0  0  0 
  9 15  1  0  0  0  0 
 13 16  1  0  0  0  0 
 15 16  1  0  0  0  0 
 16 17  2  0  0  0  0 
 18  1  1  0  0  0  0 
 19  2  1  0  0  0  0 
 20  2  1  0  0  0  0 
 21  3  1  0  0  0  0 
 22  3  1  0  0  0  0 
 23  5  1  0  0  0  0 
 24  5  1  0  0  0  0 
 25  6  1  0  0  0  0 
 26  6  1  0  0  0  0 
 27  6  1  0  0  0  0 
 28  7  1  0  0  0  0 
 29  7  1  0  0  0  0 
 30 10  1  0  0  0  0 
 31 10  1  0  0  0  0 
 32 10  1  0  0  0  0 
 33 11  1  0  0  0  0 
 34 11  1  0  0  0  0 
 35 11  1  0  0  0  0 
 36 13  1  0  0  0  0 
 37 15  1  0  0  0  0 
M  END
> <cdk:Title>
tetrabarbital

> <Conformer>
1

> <SuperDrugID>
SD003274

$$$$
