broxuridine
  CDK     0628171801

 28 29  0  0  0  0  0  0  0  0999 V2000
    4.2401   -4.6380    0.7872 O   0  0  0  0  0  0  0  0  0  0  0  0
    5.3083   -4.0332    0.5295 C   0  0  0  0  0  0  0  0  0  0  0  0
    5.3679   -2.6713    0.3435 N   0  0  0  0  0  0  0  0  0  0  0  0
    6.4254   -4.7987    0.4407 N   0  0  0  0  0  0  0  0  0  0  0  0
    4.1608   -1.8600    0.4003 C   0  0  2  0  0  0  0  0  0  0  0  0
    6.5956   -2.1006    0.1119 C   0  0  0  0  0  0  0  0  0  0  0  0
    7.6404   -4.2630    0.1731 C   0  0  0  0  0  0  0  0  0  0  0  0
    4.2881   -0.6028   -0.2941 O   0  0  0  0  0  0  0  0  0  0  0  0
    3.7292   -1.5478    1.8530 C   0  0  1  0  0  0  0  0  0  0  0  0
    7.7634   -2.8748    0.0053 C   0  0  0  0  0  0  0  0  0  0  0  0
    8.6327   -5.0203    0.0795 O   0  0  0  0  0  0  0  0  0  0  0  0
    3.8751    0.4598    0.5744 C   0  0  1  0  0  0  0  0  0  0  0  0
    4.0781   -0.0658    2.0101 C   0  0  1  0  0  0  0  0  0  0  0  0
    9.4040   -2.0671   -0.3529 Br  0  0  0  0  0  0  0  0  0  0  0  0
    4.6564    1.7557    0.2461 C   0  0  2  0  0  0  0  0  0  0  0  0
    3.2489    0.5908    2.9636 O   0  0  0  0  0  0  0  0  0  0  0  0
    6.0572    1.5916    0.4580 O   0  0  0  0  0  0  0  0  0  0  0  0
    6.3518   -5.7570    0.5698 H   0  0  0  0  0  0  0  0  0  0  0  0
    3.3503   -2.3867   -0.1148 H   0  0  0  0  0  0  0  0  0  0  0  0
    6.6936   -1.0892    0.0105 H   0  0  0  0  0  0  0  0  0  0  0  0
    2.6522   -1.7025    1.9652 H   0  0  0  0  0  0  0  0  0  0  0  0
    4.2536   -2.1571    2.5928 H   0  0  0  0  0  0  0  0  0  0  0  0
    2.8075    0.6422    0.4023 H   0  0  0  0  0  0  0  0  0  0  0  0
    5.1214    0.0307    2.3247 H   0  0  0  0  0  0  0  0  0  0  0  0
    4.2933    2.5774    0.8674 H   0  0  0  0  0  0  0  0  0  0  0  0
    4.4978    2.0204   -0.8015 H   0  0  0  0  0  0  0  0  0  0  0  0
    3.5680    1.5176    2.9719 H   0  0  0  0  0  0  0  0  0  0  0  0
    6.4596    2.4497    0.2092 H   0  0  0  0  0  0  0  0  0  0  0  0
  1  2  2  0  0  0  0 
  2  3  1  0  0  0  0 
  2  4  1  0  0  0  0 
  3  6  1  0  0  0  0 
  4  7  1  0  0  0  0 
  5  3  1  0  0  0  0 
  5  8  1  0  0  0  0 
  5  9  1  0  0  0  0 
  6 10  2  0  0  0  0 
  7 10  1  0  0  0  0 
  7 11  2  0  0  0  0 
 12  8  1  0  0  0  0 
 13  9  1  0  0  0  0 
 10 14  1  0  0  0  0 
 12 13  1  0  0  0  0 
 12 15  1  0  0  0  0 
 13 16  1  0  0  0  0 
 15 17  1  0  0  0  0 
 18  4  1  0  0  0  0 
  5 19  1  0  0  0  0 
 20  6  1  0  0  0  0 
 21  9  1  0  0  0  0 
 22  9  1  0  0  0  0 
 12 23  1  0  0  0  0 
 13 24  1  0  0  0  0 
 25 15  1  0  0  0  0 
 26 15  1  0  0  0  0 
 27 16  1  0  0  0  0 
 28 17  1  0  0  0  0 
M  END
> <cdk:Title>
broxuridine

> <Conformer>
1

> <SuperDrugID>
SD002641

$$$$
