hydroxymethylnicotinamide
  CDK     0628171801

 19 19  0  0  0  0  0  0  0  0999 V2000
    0.3187    6.3836   -0.5327 O   0  0  0  0  0  0  0  0  0  0  0  0
    1.5241    5.6492   -0.3675 C   0  0  2  0  0  0  0  0  0  0  0  0
    1.2224    4.2576   -0.2836 N   0  0  0  0  0  0  0  0  0  0  0  0
    2.1532    3.2626   -0.1828 C   0  0  0  0  0  0  0  0  0  0  0  0
    3.3671    3.5841   -0.1508 O   0  0  0  0  0  0  0  0  0  0  0  0
    1.7842    1.8848   -0.1188 C   0  0  0  0  0  0  0  0  0  0  0  0
    2.7677    0.8650   -0.0275 C   0  0  0  0  0  0  0  0  0  0  0  0
    2.4159   -0.4439    0.0457 N   0  0  0  0  0  0  0  0  0  0  0  0
    1.1263   -0.8570    0.0325 C   0  0  0  0  0  0  0  0  0  0  0  0
    0.0968    0.0924   -0.0656 C   0  0  0  0  0  0  0  0  0  0  0  0
    0.4307    1.4575   -0.1418 C   0  0  0  0  0  0  0  0  0  0  0  0
    0.6067    7.3108   -0.6771 H   0  0  0  0  0  0  0  0  0  0  0  0
    2.0236    5.9831    0.5444 H   0  0  0  0  0  0  0  0  0  0  0  0
    2.1668    5.8451   -1.2280 H   0  0  0  0  0  0  0  0  0  0  0  0
    0.2869    4.0077   -0.3007 H   0  0  0  0  0  0  0  0  0  0  0  0
    3.7647    1.0888   -0.0135 H   0  0  0  0  0  0  0  0  0  0  0  0
    0.9113   -1.8544    0.0941 H   0  0  0  0  0  0  0  0  0  0  0  0
   -0.8799   -0.2061   -0.0804 H   0  0  0  0  0  0  0  0  0  0  0  0
   -0.3342    2.1315   -0.2124 H   0  0  0  0  0  0  0  0  0  0  0  0
  1  2  1  0  0  0  0 
  2  3  1  0  0  0  0 
  3  4  1  0  0  0  0 
  4  5  2  0  0  0  0 
  4  6  1  0  0  0  0 
  6  7  2  0  0  0  0 
  7  8  1  0  0  0  0 
  8  9  2  0  0  0  0 
  9 10  1  0  0  0  0 
 10 11  2  0  0  0  0 
  6 11  1  0  0  0  0 
  1 12  1  0  0  0  0 
  2 13  1  0  0  0  0 
  2 14  1  0  0  0  0 
  3 15  1  0  0  0  0 
  7 16  1  0  0  0  0 
  9 17  1  0  0  0  0 
 10 18  1  0  0  0  0 
 11 19  1  0  0  0  0 
M  END
> <cdk:Title>
hydroxymethylnicotinamide

> <Conformer>
1

> <SuperDrugID>
SD001700

$$$$
