dilevalol
  CDK     0628171802

 48 49  0  0  0  0  0  0  0  0999 V2000
    6.8557    1.7285    4.8563 C   0  0  2  0  0  0  0  0  0  0  0  0
    7.4235    1.5289    6.2841 C   0  0  2  0  0  0  0  0  0  0  0  0
    7.0047    0.5175    4.1136 O   0  0  0  0  0  0  0  0  0  0  0  0
    7.4947    2.8808    4.1513 C   0  0  0  0  0  0  0  0  0  0  0  0
    7.1161    2.6994    7.1423 N   0  0  1  0  0  0  0  0  0  0  0  0
    6.9205    4.1724    4.2304 C   0  0  0  0  0  0  0  0  0  0  0  0
    8.6967    2.7264    3.4267 C   0  0  0  0  0  0  0  0  0  0  0  0
    7.6831    2.6952    8.5190 C   0  0  1  0  0  0  0  0  0  0  0  0
    7.5131    5.3073    3.6190 C   0  0  0  0  0  0  0  0  0  0  0  0
    9.2970    3.8259    2.7955 C   0  0  0  0  0  0  0  0  0  0  0  0
    7.4401    4.0882    9.1813 C   0  0  2  0  0  0  0  0  0  0  0  0
    7.0553    1.5753    9.3983 C   0  0  0  0  0  0  0  0  0  0  0  0
    6.9163    6.5994    3.7468 C   0  0  0  0  0  0  0  0  0  0  0  0
    8.7153    5.1032    2.8857 C   0  0  0  0  0  0  0  0  0  0  0  0
    8.1119    5.2976    8.4674 C   0  0  2  0  0  0  0  0  0  0  0  0
    5.8001    6.8386    4.4621 N   0  0  0  0  0  0  0  0  0  0  0  0
    7.3989    7.6169    3.1977 O   0  0  0  0  0  0  0  0  0  0  0  0
    9.3612    6.1056    2.2372 O   0  0  0  0  0  0  0  0  0  0  0  0
    7.8459    6.5650    9.2064 C   0  0  0  0  0  0  0  0  0  0  0  0
    6.6910    7.3366    8.9279 C   0  0  0  0  0  0  0  0  0  0  0  0
    8.7201    7.0063   10.2298 C   0  0  0  0  0  0  0  0  0  0  0  0
    6.4203    8.5142    9.6488 C   0  0  0  0  0  0  0  0  0  0  0  0
    8.4488    8.1838   10.9506 C   0  0  0  0  0  0  0  0  0  0  0  0
    7.3002    8.9390   10.6587 C   0  0  0  0  0  0  0  0  0  0  0  0
    5.7774    1.8916    4.9368 H   0  0  0  0  0  0  0  0  0  0  0  0
    8.5042    1.3673    6.2300 H   0  0  0  0  0  0  0  0  0  0  0  0
    6.9581    0.6366    6.7076 H   0  0  0  0  0  0  0  0  0  0  0  0
    6.5873   -0.1735    4.6712 H   0  0  0  0  0  0  0  0  0  0  0  0
    7.5365    3.4994    6.6673 H   0  0  0  0  0  0  0  0  0  0  0  0
    6.0526    4.2744    4.7603 H   0  0  0  0  0  0  0  0  0  0  0  0
    9.1498    1.8117    3.3533 H   0  0  0  0  0  0  0  0  0  0  0  0
    8.7653    2.5281    8.4663 H   0  0  0  0  0  0  0  0  0  0  0  0
   10.1662    3.6948    2.2713 H   0  0  0  0  0  0  0  0  0  0  0  0
    7.8247    4.0531   10.2060 H   0  0  0  0  0  0  0  0  0  0  0  0
    6.3613    4.2678    9.2358 H   0  0  0  0  0  0  0  0  0  0  0  0
    7.4032    1.6568   10.4303 H   0  0  0  0  0  0  0  0  0  0  0  0
    5.9638    1.6497    9.3891 H   0  0  0  0  0  0  0  0  0  0  0  0
    7.3441    0.5892    9.0329 H   0  0  0  0  0  0  0  0  0  0  0  0
    7.7345    5.3876    7.4447 H   0  0  0  0  0  0  0  0  0  0  0  0
    9.1905    5.1252    8.3933 H   0  0  0  0  0  0  0  0  0  0  0  0
    5.4438    7.7387    4.5105 H   0  0  0  0  0  0  0  0  0  0  0  0
    5.3486    6.1209    4.9301 H   0  0  0  0  0  0  0  0  0  0  0  0
    9.8988    6.5466    2.9277 H   0  0  0  0  0  0  0  0  0  0  0  0
    6.0359    7.0417    8.2000 H   0  0  0  0  0  0  0  0  0  0  0  0
    9.5585    6.4681   10.4606 H   0  0  0  0  0  0  0  0  0  0  0  0
    5.5819    9.0599    9.4396 H   0  0  0  0  0  0  0  0  0  0  0  0
    9.0862    8.4890   11.6887 H   0  0  0  0  0  0  0  0  0  0  0  0
    7.1034    9.7941   11.1825 H   0  0  0  0  0  0  0  0  0  0  0  0
  1  2  1  0  0  0  0 
  1  3  1  0  0  0  0 
  1  4  1  0  0  0  0 
  2  5  1  0  0  0  0 
  4  6  2  0  0  0  0 
  4  7  1  0  0  0  0 
  8  5  1  0  0  0  0 
  6  9  1  0  0  0  0 
  7 10  2  0  0  0  0 
  8 11  1  0  0  0  0 
  8 12  1  0  0  0  0 
  9 13  1  0  0  0  0 
  9 14  2  0  0  0  0 
 10 14  1  0  0  0  0 
 11 15  1  0  0  0  0 
 13 16  1  0  0  0  0 
 13 17  2  0  0  0  0 
 14 18  1  0  0  0  0 
 15 19  1  0  0  0  0 
 19 20  2  0  0  0  0 
 19 21  1  0  0  0  0 
 20 22  1  0  0  0  0 
 21 23  2  0  0  0  0 
 22 24  2  0  0  0  0 
 23 24  1  0  0  0  0 
  1 25  1  0  0  0  0 
  2 26  1  0  0  0  0 
  2 27  1  0  0  0  0 
  3 28  1  0  0  0  0 
  5 29  1  0  0  0  0 
  6 30  1  0  0  0  0 
  7 31  1  0  0  0  0 
  8 32  1  0  0  0  0 
 10 33  1  0  0  0  0 
 11 34  1  0  0  0  0 
 11 35  1  0  0  0  0 
 12 36  1  0  0  0  0 
 12 37  1  0  0  0  0 
 12 38  1  0  0  0  0 
 15 39  1  0  0  0  0 
 15 40  1  0  0  0  0 
 16 41  1  0  0  0  0 
 16 42  1  0  0  0  0 
 18 43  1  0  0  0  0 
 20 44  1  0  0  0  0 
 21 45  1  0  0  0  0 
 22 46  1  0  0  0  0 
 23 47  1  0  0  0  0 
 24 48  1  0  0  0  0 
M  END
> <cdk:Title>
dilevalol

> <Conformer>
1

> <SuperDrugID>
SD000796

$$$$
