tirilazad
  CDK     0628171801

 98105  0  0  0  0  0  0  0  0999 V2000
    2.4863    6.1597    1.3826 C   0  0  0  0  0  0  0  0  0  0  0  0
    1.0960    5.8927    2.0805 C   0  0  2  0  0  0  0  0  0  0  0  0
    0.8593    6.7551    3.3621 C   0  0  2  0  0  0  0  0  0  0  0  0
    1.0195    4.3992    2.6258 C   0  0  1  0  0  0  0  0  0  0  0  0
   -0.0524    6.3387    1.1082 C   0  0  1  0  0  0  0  0  0  0  0  0
    0.9843    8.2876    3.0929 C   0  0  1  0  0  0  0  0  0  0  0  0
    1.7918    6.0165    4.4008 C   0  0  1  0  0  0  0  0  0  0  0  0
    1.4343    3.3520    1.6295 C   0  0  0  0  0  0  0  0  0  0  0  0
    1.8340    4.4172    4.0161 C   0  0  1  0  0  0  0  0  0  0  0  0
   -0.2558    7.7902    1.0200 C   0  0  0  0  0  0  0  0  0  0  0  0
    0.1908    8.7275    1.9032 C   0  0  0  0  0  0  0  0  0  0  0  0
    0.6224    9.0689    4.3894 C   0  0  2  0  0  0  0  0  0  0  0  0
    2.6407    2.4876    1.7341 C   0  0  1  0  0  0  0  0  0  0  0  0
    0.7278    3.2145    0.6005 O   0  0  0  0  0  0  0  0  0  0  0  0
    1.0665    3.5368    5.1697 C   0  0  0  0  0  0  0  0  0  0  0  0
   -0.0191   10.2103    1.6999 C   0  0  2  0  0  0  0  0  0  0  0  0
    0.6190   10.5909    4.1475 C   0  0  1  0  0  0  0  0  0  0  0  0
    2.5729    1.5241    2.8780 N   0  0  1  0  0  0  0  0  0  0  0  0
    1.2891   10.8129    1.0727 C   0  0  0  0  0  0  0  0  0  0  0  0
   -0.2833   10.8704    3.0264 C   0  0  0  0  0  0  0  0  0  0  0  0
   -1.0809   10.5632    0.7122 C   0  0  0  0  0  0  0  0  0  0  0  0
    1.6064    0.4030    2.6627 C   0  0  1  0  0  0  0  0  0  0  0  0
    3.9073    1.0038    3.3123 C   0  0  1  0  0  0  0  0  0  0  0  0
   -1.3569   11.6649    3.2362 C   0  0  0  0  0  0  0  0  0  0  0  0
   -2.1279   11.3582    0.9876 C   0  0  0  0  0  0  0  0  0  0  0  0
    1.4672   -0.4574    3.9437 C   0  0  1  0  0  0  0  0  0  0  0  0
    3.7710    0.1490    4.6029 C   0  0  2  0  0  0  0  0  0  0  0  0
   -2.2792   11.9177    2.2390 C   0  0  0  0  0  0  0  0  0  0  0  0
    2.7601   -0.8755    4.4512 N   0  0  0  0  0  0  0  0  0  0  0  0
   -3.2563   12.6662    2.4708 O   0  0  0  0  0  0  0  0  0  0  0  0
    3.0138   -2.2026    4.7318 C   0  0  0  0  0  0  0  0  0  0  0  0
    3.7090   -2.6653    5.8764 C   0  0  0  0  0  0  0  0  0  0  0  0
    2.5684   -3.1271    3.8468 N   0  0  0  0  0  0  0  0  0  0  0  0
    3.9541   -4.0541    6.0293 C   0  0  0  0  0  0  0  0  0  0  0  0
    2.7479   -4.4623    3.9818 C   0  0  0  0  0  0  0  0  0  0  0  0
    3.4453   -4.8848    5.0703 N   0  0  0  0  0  0  0  0  0  0  0  0
    4.7103   -4.6076    7.0522 N   0  0  0  0  0  0  0  0  0  0  0  0
    2.2469   -5.3151    3.0285 N   0  0  0  0  0  0  0  0  0  0  0  0
    4.8931   -4.0709    8.3717 C   0  0  1  0  0  0  0  0  0  0  0  0
    5.4132   -5.8425    6.8729 C   0  0  1  0  0  0  0  0  0  0  0  0
    2.1188   -6.7260    3.2079 C   0  0  1  0  0  0  0  0  0  0  0  0
    1.7967   -4.8679    1.7452 C   0  0  1  0  0  0  0  0  0  0  0  0
    6.0806   -4.8501    8.9747 C   0  0  1  0  0  0  0  0  0  0  0  0
    6.0792   -6.1833    8.2175 C   0  0  1  0  0  0  0  0  0  0  0  0
    1.6816   -7.2797    1.8370 C   0  0  1  0  0  0  0  0  0  0  0  0
    1.0798   -6.0691    1.1091 C   0  0  1  0  0  0  0  0  0  0  0  0
    2.0335    8.5096    2.8900 H   0  0  0  0  0  0  0  0  0  0  0  0
   -0.1647    6.5779    3.7192 H   0  0  0  0  0  0  0  0  0  0  0  0
    2.5930    7.1949    1.0655 H   0  0  0  0  0  0  0  0  0  0  0  0
    3.3219    5.9307    2.0439 H   0  0  0  0  0  0  0  0  0  0  0  0
    2.5969    5.5441    0.4884 H   0  0  0  0  0  0  0  0  0  0  0  0
   -0.0826    4.1827    2.7509 H   0  0  0  0  0  0  0  0  0  0  0  0
    0.1484    5.9458    0.1065 H   0  0  0  0  0  0  0  0  0  0  0  0
   -1.0086    5.9136    1.4281 H   0  0  0  0  0  0  0  0  0  0  0  0
    2.7849    6.5350    4.3767 H   0  0  0  0  0  0  0  0  0  0  0  0
    1.4034    6.2581    5.4229 H   0  0  0  0  0  0  0  0  0  0  0  0
    2.8748    4.1059    3.9230 H   0  0  0  0  0  0  0  0  0  0  0  0
   -0.7774    8.0692    0.2279 H   0  0  0  0  0  0  0  0  0  0  0  0
    1.3477    8.8415    5.1740 H   0  0  0  0  0  0  0  0  0  0  0  0
   -0.3636    8.7605    4.7525 H   0  0  0  0  0  0  0  0  0  0  0  0
    2.7930    1.9283    0.8062 H   0  0  0  0  0  0  0  0  0  0  0  0
    3.5002    3.1534    1.8337 H   0  0  0  0  0  0  0  0  0  0  0  0
    0.0666    3.9386    5.4744 H   0  0  0  0  0  0  0  0  0  0  0  0
    0.8451    2.4813    4.8838 H   0  0  0  0  0  0  0  0  0  0  0  0
    1.6266    3.4500    6.1345 H   0  0  0  0  0  0  0  0  0  0  0  0
    0.3223   11.0802    5.0800 H   0  0  0  0  0  0  0  0  0  0  0  0
    1.6292   10.9370    3.9191 H   0  0  0  0  0  0  0  0  0  0  0  0
    1.2098   11.8999    0.9693 H   0  0  0  0  0  0  0  0  0  0  0  0
    1.4800   10.3931    0.0809 H   0  0  0  0  0  0  0  0  0  0  0  0
    2.1731   10.6070    1.6756 H   0  0  0  0  0  0  0  0  0  0  0  0
   -1.0140   10.2272   -0.2234 H   0  0  0  0  0  0  0  0  0  0  0  0
    0.6186    0.7983    2.4114 H   0  0  0  0  0  0  0  0  0  0  0  0
    1.9383   -0.2321    1.8343 H   0  0  0  0  0  0  0  0  0  0  0  0
    4.3604    0.4008    2.5200 H   0  0  0  0  0  0  0  0  0  0  0  0
    4.5863    1.8354    3.5193 H   0  0  0  0  0  0  0  0  0  0  0  0
   -1.5116   12.0770    4.1280 H   0  0  0  0  0  0  0  0  0  0  0  0
   -2.7917   11.5575    0.2744 H   0  0  0  0  0  0  0  0  0  0  0  0
    0.9664    0.1258    4.7180 H   0  0  0  0  0  0  0  0  0  0  0  0
    0.8029   -1.2953    3.7132 H   0  0  0  0  0  0  0  0  0  0  0  0
    3.4850    0.8019    5.4302 H   0  0  0  0  0  0  0  0  0  0  0  0
    4.7533   -0.2697    4.8383 H   0  0  0  0  0  0  0  0  0  0  0  0
    4.0379   -1.9962    6.5741 H   0  0  0  0  0  0  0  0  0  0  0  0
    5.1218   -3.0032    8.3755 H   0  0  0  0  0  0  0  0  0  0  0  0
    3.9919   -4.2443    8.9674 H   0  0  0  0  0  0  0  0  0  0  0  0
    4.7331   -6.6479    6.5855 H   0  0  0  0  0  0  0  0  0  0  0  0
    6.1751   -5.7164    6.0986 H   0  0  0  0  0  0  0  0  0  0  0  0
    3.0627   -7.1865    3.5161 H   0  0  0  0  0  0  0  0  0  0  0  0
    1.3527   -6.9293    3.9619 H   0  0  0  0  0  0  0  0  0  0  0  0
    1.1068   -4.0241    1.8223 H   0  0  0  0  0  0  0  0  0  0  0  0
    2.6579   -4.5694    1.1404 H   0  0  0  0  0  0  0  0  0  0  0  0
    7.0171   -4.3182    8.7837 H   0  0  0  0  0  0  0  0  0  0  0  0
    5.9762   -4.9992   10.0522 H   0  0  0  0  0  0  0  0  0  0  0  0
    5.4882   -6.9281    8.7577 H   0  0  0  0  0  0  0  0  0  0  0  0
    7.0943   -6.5689    8.0840 H   0  0  0  0  0  0  0  0  0  0  0  0
    2.5516   -7.6494    1.2859 H   0  0  0  0  0  0  0  0  0  0  0  0
    0.9541   -8.0891    1.9384 H   0  0  0  0  0  0  0  0  0  0  0  0
    0.0036   -6.0109    1.2964 H   0  0  0  0  0  0  0  0  0  0  0  0
    1.2505   -6.1139    0.0300 H   0  0  0  0  0  0  0  0  0  0  0  0
  2  1  1  0  0  0  0 
  2  3  1  0  0  0  0 
  4  2  1  0  0  0  0 
  2  5  1  0  0  0  0 
  3  6  1  0  0  0  0 
  3  7  1  0  0  0  0 
  3 48  1  0  0  0  0 
  4  8  1  0  0  0  0 
  9  4  1  0  0  0  0 
  5 10  1  0  0  0  0 
  6 11  1  0  0  0  0 
  6 12  1  0  0  0  0 
  6 47  1  0  0  0  0 
  9  7  1  0  0  0  0 
  8 13  1  0  0  0  0 
  8 14  2  0  0  0  0 
  9 15  1  0  0  0  0 
 10 11  2  0  0  0  0 
 16 11  1  0  0  0  0 
 12 17  1  0  0  0  0 
 13 18  1  0  0  0  0 
 16 19  1  0  0  0  0 
 16 20  1  0  0  0  0 
 16 21  1  0  0  0  0 
 17 20  1  0  0  0  0 
 18 22  1  0  0  0  0 
 18 23  1  0  0  0  0 
 20 24  2  0  0  0  0 
 21 25  2  0  0  0  0 
 22 26  1  0  0  0  0 
 23 27  1  0  0  0  0 
 24 28  1  0  0  0  0 
 25 28  1  0  0  0  0 
 26 29  1  0  0  0  0 
 27 29  1  0  0  0  0 
 28 30  2  0  0  0  0 
 29 31  1  0  0  0  0 
 31 32  2  0  0  0  0 
 31 33  1  0  0  0  0 
 32 34  1  0  0  0  0 
 33 35  2  0  0  0  0 
 34 36  2  0  0  0  0 
 34 37  1  0  0  0  0 
 35 36  1  0  0  0  0 
 35 38  1  0  0  0  0 
 37 39  1  0  0  0  0 
 37 40  1  0  0  0  0 
 38 41  1  0  0  0  0 
 38 42  1  0  0  0  0 
 39 43  1  0  0  0  0 
 40 44  1  0  0  0  0 
 41 45  1  0  0  0  0 
 42 46  1  0  0  0  0 
 43 44  1  0  0  0  0 
 45 46  1  0  0  0  0 
  1 49  1  0  0  0  0 
  1 50  1  0  0  0  0 
  1 51  1  0  0  0  0 
  4 52  1  0  0  0  0 
  5 53  1  0  0  0  0 
  5 54  1  0  0  0  0 
  7 55  1  0  0  0  0 
  7 56  1  0  0  0  0 
  9 57  1  0  0  0  0 
 10 58  1  0  0  0  0 
 12 59  1  0  0  0  0 
 12 60  1  0  0  0  0 
 13 61  1  0  0  0  0 
 13 62  1  0  0  0  0 
 15 63  1  0  0  0  0 
 15 64  1  0  0  0  0 
 15 65  1  0  0  0  0 
 17 66  1  0  0  0  0 
 17 67  1  0  0  0  0 
 19 68  1  0  0  0  0 
 19 69  1  0  0  0  0 
 19 70  1  0  0  0  0 
 21 71  1  0  0  0  0 
 22 72  1  0  0  0  0 
 22 73  1  0  0  0  0 
 23 74  1  0  0  0  0 
 23 75  1  0  0  0  0 
 24 76  1  0  0  0  0 
 25 77  1  0  0  0  0 
 26 78  1  0  0  0  0 
 26 79  1  0  0  0  0 
 27 80  1  0  0  0  0 
 27 81  1  0  0  0  0 
 32 82  1  0  0  0  0 
 39 83  1  0  0  0  0 
 39 84  1  0  0  0  0 
 40 85  1  0  0  0  0 
 40 86  1  0  0  0  0 
 41 87  1  0  0  0  0 
 41 88  1  0  0  0  0 
 42 89  1  0  0  0  0 
 42 90  1  0  0  0  0 
 43 91  1  0  0  0  0 
 43 92  1  0  0  0  0 
 44 93  1  0  0  0  0 
 44 94  1  0  0  0  0 
 45 95  1  0  0  0  0 
 45 96  1  0  0  0  0 
 46 97  1  0  0  0  0 
 46 98  1  0  0  0  0 
M  END
> <cdk:Title>
tirilazad

> <Conformer>
1

> <SuperDrugID>
SD003345

$$$$
