bekanamycin
  CDK     0628171801

 70 72  0  0  0  0  0  0  0  0999 V2000
   -8.6775   74.2011   17.7114 O   0  0  0  0  0  0  0  0  0  0  0  0
   -8.8471   72.7887   17.9866 C   0  0  1  0  0  0  0  0  0  0  0  0
   -9.8201   75.0436   17.4521 C   0  0  1  0  0  0  0  0  0  0  0  0
   -7.3748   72.2644   17.9530 C   0  0  2  0  0  0  0  0  0  0  0  0
   -9.5693   72.4682   19.3369 C   0  0  1  0  0  0  0  0  0  0  0  0
  -10.4117   75.5409   18.6746 O   0  0  0  0  0  0  0  0  0  0  0  0
   -9.3732   76.2535   16.5878 C   0  0  2  0  0  0  0  0  0  0  0  0
   -6.9249   72.3307   16.5987 O   0  0  0  0  0  0  0  0  0  0  0  0
   -7.1584   70.8164   18.4839 C   0  0  1  0  0  0  0  0  0  0  0  0
  -11.0261   72.6872   19.2681 N   0  0  1  0  0  0  0  0  0  0  0  0
   -9.3795   70.9877   19.7598 C   0  0  1  0  0  0  0  0  0  0  0  0
   -9.5281   76.3221   19.5157 C   0  0  2  0  0  0  0  0  0  0  0  0
   -8.7464   75.7860   15.3433 N   0  0  1  0  0  0  0  0  0  0  0  0
   -8.4049   77.1733   17.3873 C   0  0  2  0  0  0  0  0  0  0  0  0
   -5.7646   70.5325   18.7518 O   0  0  0  0  0  0  0  0  0  0  0  0
   -7.8831   70.6009   19.8427 C   0  0  1  0  0  0  0  0  0  0  0  0
  -10.2913   76.6642   20.8191 C   0  0  2  0  0  0  0  0  0  0  0  0
   -9.0374   77.5884   18.7459 C   0  0  2  0  0  0  0  0  0  0  0  0
   -8.0658   78.3321   16.6272 O   0  0  0  0  0  0  0  0  0  0  0  0
   -4.8658   70.2882   17.6477 C   0  0  1  0  0  0  0  0  0  0  0  0
   -7.7715   69.1982   20.2689 N   0  0  2  0  0  0  0  0  0  0  0  0
  -10.7348   75.4410   21.5022 N   0  0  1  0  0  0  0  0  0  0  0  0
   -8.0826   78.3203   19.5169 O   0  0  0  0  0  0  0  0  0  0  0  0
   -4.4042   71.5048   17.0161 O   0  0  0  0  0  0  0  0  0  0  0  0
   -3.6535   69.4608   18.1541 C   0  0  2  0  0  0  0  0  0  0  0  0
   -3.6172   72.3910   17.8468 C   0  0  2  0  0  0  0  0  0  0  0  0
   -4.1099   68.3109   18.8643 O   0  0  0  0  0  0  0  0  0  0  0  0
   -2.7274   70.3247   19.0550 C   0  0  2  0  0  0  0  0  0  0  0  0
   -3.2857   73.6598   17.0195 C   0  0  1  0  0  0  0  0  0  0  0  0
   -2.3392   71.6497   18.3404 C   0  0  2  0  0  0  0  0  0  0  0  0
   -1.5160   69.5751   19.4211 N   0  0  1  0  0  0  0  0  0  0  0  0
   -4.4779   74.2883   16.5581 O   0  0  0  0  0  0  0  0  0  0  0  0
   -1.5845   72.4768   19.2254 O   0  0  0  0  0  0  0  0  0  0  0  0
  -10.5857   74.4916   16.8963 H   0  0  0  0  0  0  0  0  0  0  0  0
   -5.3713   69.6914   16.8838 H   0  0  0  0  0  0  0  0  0  0  0  0
   -9.3960   72.3102   17.1672 H   0  0  0  0  0  0  0  0  0  0  0  0
   -6.7480   72.9320   18.5535 H   0  0  0  0  0  0  0  0  0  0  0  0
   -9.1591   73.1140   20.1189 H   0  0  0  0  0  0  0  0  0  0  0  0
  -10.2602   76.8297   16.3126 H   0  0  0  0  0  0  0  0  0  0  0  0
   -6.9842   73.2757   16.3440 H   0  0  0  0  0  0  0  0  0  0  0  0
   -7.5680   70.0984   17.7657 H   0  0  0  0  0  0  0  0  0  0  0  0
  -11.2125   73.6795   19.1378 H   0  0  0  0  0  0  0  0  0  0  0  0
  -11.3706   72.1976   18.4366 H   0  0  0  0  0  0  0  0  0  0  0  0
   -9.8413   70.8385   20.7427 H   0  0  0  0  0  0  0  0  0  0  0  0
   -9.8868   70.3297   19.0461 H   0  0  0  0  0  0  0  0  0  0  0  0
   -8.6584   75.7176   19.7995 H   0  0  0  0  0  0  0  0  0  0  0  0
   -9.4469   75.2207   14.8582 H   0  0  0  0  0  0  0  0  0  0  0  0
   -8.5832   76.6124   14.7637 H   0  0  0  0  0  0  0  0  0  0  0  0
   -7.4735   76.6323   17.5825 H   0  0  0  0  0  0  0  0  0  0  0  0
   -7.4071   71.2157   20.6124 H   0  0  0  0  0  0  0  0  0  0  0  0
  -11.1646   77.2793   20.5904 H   0  0  0  0  0  0  0  0  0  0  0  0
   -9.6407   77.2142   21.5010 H   0  0  0  0  0  0  0  0  0  0  0  0
   -9.8887   78.2492   18.5524 H   0  0  0  0  0  0  0  0  0  0  0  0
   -8.9171   78.7837   16.4503 H   0  0  0  0  0  0  0  0  0  0  0  0
   -8.2230   69.1237   21.1835 H   0  0  0  0  0  0  0  0  0  0  0  0
   -6.7793   69.0064   20.4157 H   0  0  0  0  0  0  0  0  0  0  0  0
  -11.2701   75.7376   22.3216 H   0  0  0  0  0  0  0  0  0  0  0  0
  -11.3923   74.9686   20.8750 H   0  0  0  0  0  0  0  0  0  0  0  0
   -8.5865   78.6711   20.2826 H   0  0  0  0  0  0  0  0  0  0  0  0
   -3.0846   69.1116   17.2881 H   0  0  0  0  0  0  0  0  0  0  0  0
   -4.2061   72.7097   18.7132 H   0  0  0  0  0  0  0  0  0  0  0  0
   -4.6811   67.8279   18.2301 H   0  0  0  0  0  0  0  0  0  0  0  0
   -3.2540   70.5647   19.9844 H   0  0  0  0  0  0  0  0  0  0  0  0
   -2.7355   74.3794   17.6298 H   0  0  0  0  0  0  0  0  0  0  0  0
   -2.6764   73.3981   16.1520 H   0  0  0  0  0  0  0  0  0  0  0  0
   -1.7072   71.4188   17.4776 H   0  0  0  0  0  0  0  0  0  0  0  0
   -1.8183   68.7387   19.9260 H   0  0  0  0  0  0  0  0  0  0  0  0
   -1.0837   69.2592   18.5492 H   0  0  0  0  0  0  0  0  0  0  0  0
   -4.1715   75.0436   16.0119 H   0  0  0  0  0  0  0  0  0  0  0  0
   -0.7684   71.9653   19.4123 H   0  0  0  0  0  0  0  0  0  0  0  0
  3  1  1  0  0  0  0 
  2  1  1  0  0  0  0 
  4  2  1  0  0  0  0 
  2  5  1  0  0  0  0 
  3  6  1  0  0  0  0 
  7  3  1  0  0  0  0 
  3 34  1  0  0  0  0 
  4  8  1  0  0  0  0 
  9  4  1  0  0  0  0 
  5 10  1  0  0  0  0 
  5 11  1  0  0  0  0 
 12  6  1  0  0  0  0 
  7 13  1  0  0  0  0 
 14  7  1  0  0  0  0 
  9 15  1  0  0  0  0 
 16  9  1  0  0  0  0 
 16 11  1  0  0  0  0 
 12 17  1  0  0  0  0 
 18 12  1  0  0  0  0 
 18 14  1  0  0  0  0 
 14 19  1  0  0  0  0 
 20 15  1  0  0  0  0 
 16 21  1  0  0  0  0 
 17 22  1  0  0  0  0 
 18 23  1  0  0  0  0 
 20 24  1  0  0  0  0 
 25 20  1  0  0  0  0 
 20 35  1  0  0  0  0 
 26 24  1  0  0  0  0 
 25 27  1  0  0  0  0 
 28 25  1  0  0  0  0 
 26 29  1  0  0  0  0 
 30 26  1  0  0  0  0 
 30 28  1  0  0  0  0 
 28 31  1  0  0  0  0 
 29 32  1  0  0  0  0 
 30 33  1  0  0  0  0 
  2 36  1  0  0  0  0 
  4 37  1  0  0  0  0 
  5 38  1  0  0  0  0 
  7 39  1  0  0  0  0 
  8 40  1  0  0  0  0 
  9 41  1  0  0  0  0 
 10 42  1  0  0  0  0 
 10 43  1  0  0  0  0 
 11 44  1  0  0  0  0 
 11 45  1  0  0  0  0 
 12 46  1  0  0  0  0 
 13 47  1  0  0  0  0 
 13 48  1  0  0  0  0 
 14 49  1  0  0  0  0 
 16 50  1  0  0  0  0 
 17 51  1  0  0  0  0 
 17 52  1  0  0  0  0 
 18 53  1  0  0  0  0 
 19 54  1  0  0  0  0 
 21 55  1  0  0  0  0 
 21 56  1  0  0  0  0 
 22 57  1  0  0  0  0 
 22 58  1  0  0  0  0 
 23 59  1  0  0  0  0 
 25 60  1  0  0  0  0 
 26 61  1  0  0  0  0 
 27 62  1  0  0  0  0 
 28 63  1  0  0  0  0 
 29 64  1  0  0  0  0 
 29 65  1  0  0  0  0 
 30 66  1  0  0  0  0 
 31 67  1  0  0  0  0 
 31 68  1  0  0  0  0 
 32 69  1  0  0  0  0 
 33 70  1  0  0  0  0 
M  END
> <cdk:Title>
bekanamycin

> <Conformer>
1

> <SuperDrugID>
SD001344

$$$$
