minoxidil
  CDK     0628171801

 30 31  0  0  0  0  0  0  0  0999 V2000
   -2.4703    0.7719   -4.2818 N   0  0  0  0  0  0  0  0  0  0  0  0
   -1.9323    1.7216   -3.4840 C   0  0  0  0  0  0  0  0  0  0  0  0
   -1.2227    1.3203   -2.3348 C   0  0  0  0  0  0  0  0  0  0  0  0
   -0.6390    2.2973   -1.4851 C   0  0  0  0  0  0  0  0  0  0  0  0
   -0.8022    3.5926   -1.8782 N   0  0  0  0  0  0  0  0  0  0  0  0
   -1.4739    3.9862   -2.9866 C   0  0  0  0  0  0  0  0  0  0  0  0
   -1.5421    5.3040   -3.2568 N   0  0  0  0  0  0  0  0  0  0  0  0
   -2.0507    3.0465   -3.7847 N   0  0  0  0  0  0  0  0  0  0  0  0
   -2.7137    3.4211   -4.8490 O   0  0  0  0  0  0  0  0  0  0  0  0
    0.0761    2.0335   -0.3107 N   0  0  0  0  0  0  0  0  0  0  0  0
    0.1902    0.7179    0.3058 C   0  0  2  0  0  0  0  0  0  0  0  0
    1.6761    0.2736    0.3559 C   0  0  1  0  0  0  0  0  0  0  0  0
    2.5450    1.3351    1.0787 C   0  0  1  0  0  0  0  0  0  0  0  0
    2.3157    2.7459    0.4786 C   0  0  2  0  0  0  0  0  0  0  0  0
    0.8022    3.0805    0.4056 C   0  0  2  0  0  0  0  0  0  0  0  0
   -2.3483   -0.1688   -4.0717 H   0  0  0  0  0  0  0  0  0  0  0  0
   -2.9743    1.0258   -5.0700 H   0  0  0  0  0  0  0  0  0  0  0  0
   -1.1418    0.3221   -2.1513 H   0  0  0  0  0  0  0  0  0  0  0  0
   -1.1120    5.9478   -2.6715 H   0  0  0  0  0  0  0  0  0  0  0  0
   -2.0219    5.6140   -4.0406 H   0  0  0  0  0  0  0  0  0  0  0  0
   -0.3757   -0.0651   -0.1892 H   0  0  0  0  0  0  0  0  0  0  0  0
   -0.2059    0.7631    1.3240 H   0  0  0  0  0  0  0  0  0  0  0  0
    1.7599   -0.6853    0.8757 H   0  0  0  0  0  0  0  0  0  0  0  0
    2.0445    0.1378   -0.6661 H   0  0  0  0  0  0  0  0  0  0  0  0
    2.2813    1.3468    2.1397 H   0  0  0  0  0  0  0  0  0  0  0  0
    3.6008    1.0684    0.9961 H   0  0  0  0  0  0  0  0  0  0  0  0
    2.7383    2.7829   -0.5298 H   0  0  0  0  0  0  0  0  0  0  0  0
    2.8348    3.4918    1.0885 H   0  0  0  0  0  0  0  0  0  0  0  0
    0.4038    3.1705    1.4208 H   0  0  0  0  0  0  0  0  0  0  0  0
    0.7107    4.0707   -0.0421 H   0  0  0  0  0  0  0  0  0  0  0  0
  1  2  1  0  0  0  0 
  2  3  2  0  0  0  0 
  3  4  1  0  0  0  0 
  4  5  2  0  0  0  0 
  5  6  1  0  0  0  0 
  6  7  1  0  0  0  0 
  6  8  2  0  0  0  0 
  2  8  1  0  0  0  0 
  8  9  1  0  0  0  0 
  4 10  1  0  0  0  0 
 10 11  1  0  0  0  0 
 11 12  1  0  0  0  0 
 12 13  1  0  0  0  0 
 13 14  1  0  0  0  0 
 14 15  1  0  0  0  0 
 10 15  1  0  0  0  0 
  1 16  1  0  0  0  0 
  1 17  1  0  0  0  0 
  3 18  1  0  0  0  0 
  7 19  1  0  0  0  0 
  7 20  1  0  0  0  0 
 11 21  1  0  0  0  0 
 11 22  1  0  0  0  0 
 12 23  1  0  0  0  0 
 12 24  1  0  0  0  0 
 13 25  1  0  0  0  0 
 13 26  1  0  0  0  0 
 14 27  1  0  0  0  0 
 14 28  1  0  0  0  0 
 15 29  1  0  0  0  0 
 15 30  1  0  0  0  0 
M  CHG  1   8   1
M  CHG  1   9  -1
M  END
> <cdk:Title>
minoxidil

> <Conformer>
1

> <SuperDrugID>
SD001613

$$$$
