tetroxoprim
  CDK     0628171801

 46 47  0  0  0  0  0  0  0  0999 V2000
   -2.4566    1.2920    0.0585 O   0  0  0  0  0  0  0  0  0  0  0  0
   -1.9517    0.6276    1.2357 C   0  0  1  0  0  0  0  0  0  0  0  0
   -3.8240    1.3075    0.0213 C   0  0  0  0  0  0  0  0  0  0  0  0
   -0.4142    0.6821    1.2357 C   0  0  2  0  0  0  0  0  0  0  0  0
   -4.5282    2.3724    0.6225 C   0  0  0  0  0  0  0  0  0  0  0  0
   -4.5322    0.2708   -0.6251 C   0  0  0  0  0  0  0  0  0  0  0  0
    0.0800    0.0058    0.0647 O   0  0  0  0  0  0  0  0  0  0  0  0
   -3.8584    3.4295    1.1778 O   0  0  0  0  0  0  0  0  0  0  0  0
   -5.9332    2.3379    0.6720 C   0  0  0  0  0  0  0  0  0  0  0  0
   -3.8616   -0.7375   -1.2632 O   0  0  0  0  0  0  0  0  0  0  0  0
   -5.9402    0.2624   -0.5925 C   0  0  0  0  0  0  0  0  0  0  0  0
    1.5124   -0.0239   -0.0334 C   0  0  0  0  0  0  0  0  0  0  0  0
   -3.5942    4.4811    0.2292 C   0  0  0  0  0  0  0  0  0  0  0  0
   -6.6586    1.2971    0.0494 C   0  0  0  0  0  0  0  0  0  0  0  0
   -3.5822   -0.4383   -2.6431 C   0  0  0  0  0  0  0  0  0  0  0  0
   -8.1439    1.3217    0.0121 C   0  0  1  0  0  0  0  0  0  0  0  0
   -8.5932    2.0535   -1.2044 C   0  0  0  0  0  0  0  0  0  0  0  0
   -8.7264    3.4654   -1.2592 C   0  0  0  0  0  0  0  0  0  0  0  0
   -8.8744    1.3502   -2.4001 C   0  0  0  0  0  0  0  0  0  0  0  0
   -8.5102    4.2729   -0.2044 N   0  0  0  0  0  0  0  0  0  0  0  0
   -9.0928    4.0695   -2.4167 N   0  0  0  0  0  0  0  0  0  0  0  0
   -9.2405    2.0136   -3.5249 N   0  0  0  0  0  0  0  0  0  0  0  0
   -9.3517    3.3626   -3.5402 C   0  0  0  0  0  0  0  0  0  0  0  0
   -9.7232    3.9997   -4.6570 N   0  0  0  0  0  0  0  0  0  0  0  0
   -2.3108    1.1166    2.1479 H   0  0  0  0  0  0  0  0  0  0  0  0
   -2.2629   -0.4224    1.2498 H   0  0  0  0  0  0  0  0  0  0  0  0
   -0.0487    0.1927    2.1438 H   0  0  0  0  0  0  0  0  0  0  0  0
   -0.0949    1.7290    1.2422 H   0  0  0  0  0  0  0  0  0  0  0  0
   -6.4230    3.0896    1.1593 H   0  0  0  0  0  0  0  0  0  0  0  0
   -6.4405   -0.5039   -1.0491 H   0  0  0  0  0  0  0  0  0  0  0  0
    1.9515   -0.5617    0.8099 H   0  0  0  0  0  0  0  0  0  0  0  0
    1.7804   -0.5462   -0.9521 H   0  0  0  0  0  0  0  0  0  0  0  0
    1.9235    0.9871   -0.0786 H   0  0  0  0  0  0  0  0  0  0  0  0
   -3.0484    5.2725    0.7436 H   0  0  0  0  0  0  0  0  0  0  0  0
   -2.9754    4.1255   -0.5986 H   0  0  0  0  0  0  0  0  0  0  0  0
   -4.5189    4.9092   -0.1680 H   0  0  0  0  0  0  0  0  0  0  0  0
   -3.0357   -1.2815   -3.0669 H   0  0  0  0  0  0  0  0  0  0  0  0
   -4.5022   -0.3045   -3.2187 H   0  0  0  0  0  0  0  0  0  0  0  0
   -2.9590    0.4546   -2.7408 H   0  0  0  0  0  0  0  0  0  0  0  0
   -8.5349    0.2986    0.0106 H   0  0  0  0  0  0  0  0  0  0  0  0
   -8.5490    1.7908    0.9122 H   0  0  0  0  0  0  0  0  0  0  0  0
   -8.7986    0.3299   -2.4402 H   0  0  0  0  0  0  0  0  0  0  0  0
   -8.5975    5.2369   -0.3049 H   0  0  0  0  0  0  0  0  0  0  0  0
   -8.2689    3.8962    0.6579 H   0  0  0  0  0  0  0  0  0  0  0  0
   -9.8332    4.9646   -4.6469 H   0  0  0  0  0  0  0  0  0  0  0  0
   -9.8893    3.4967   -5.4713 H   0  0  0  0  0  0  0  0  0  0  0  0
  1  2  1  0  0  0  0 
  1  3  1  0  0  0  0 
  2  4  1  0  0  0  0 
  3  5  2  0  0  0  0 
  3  6  1  0  0  0  0 
  4  7  1  0  0  0  0 
  5  8  1  0  0  0  0 
  5  9  1  0  0  0  0 
  6 10  1  0  0  0  0 
  6 11  2  0  0  0  0 
  7 12  1  0  0  0  0 
  8 13  1  0  0  0  0 
  9 14  2  0  0  0  0 
 10 15  1  0  0  0  0 
 11 14  1  0  0  0  0 
 14 16  1  0  0  0  0 
 16 17  1  0  0  0  0 
 17 18  2  0  0  0  0 
 17 19  1  0  0  0  0 
 18 20  1  0  0  0  0 
 18 21  1  0  0  0  0 
 19 22  2  0  0  0  0 
 21 23  2  0  0  0  0 
 22 23  1  0  0  0  0 
 23 24  1  0  0  0  0 
  2 25  1  0  0  0  0 
  2 26  1  0  0  0  0 
  4 27  1  0  0  0  0 
  4 28  1  0  0  0  0 
  9 29  1  0  0  0  0 
 11 30  1  0  0  0  0 
 12 31  1  0  0  0  0 
 12 32  1  0  0  0  0 
 12 33  1  0  0  0  0 
 13 34  1  0  0  0  0 
 13 35  1  0  0  0  0 
 13 36  1  0  0  0  0 
 15 37  1  0  0  0  0 
 15 38  1  0  0  0  0 
 15 39  1  0  0  0  0 
 16 40  1  0  0  0  0 
 16 41  1  0  0  0  0 
 19 42  1  0  0  0  0 
 20 43  1  0  0  0  0 
 20 44  1  0  0  0  0 
 24 45  1  0  0  0  0 
 24 46  1  0  0  0  0 
M  END
> <cdk:Title>
tetroxoprim

> <Conformer>
1

> <SuperDrugID>
SD002353

$$$$
