reposal
  CDK     0628171801

 37 39  0  0  0  0  0  0  0  0999 V2000
   -3.4324    2.9844    0.1889 C   0  0  1  0  0  0  0  0  0  0  0  0
   -2.3916    1.9200   -0.2591 C   0  0  0  0  0  0  0  0  0  0  0  0
   -3.3508    3.4836    1.6870 C   0  0  1  0  0  0  0  0  0  0  0  0
   -3.6469    2.3253    2.6012 C   0  0  0  0  0  0  0  0  0  0  0  0
   -1.9357    3.9663    1.8971 C   0  0  0  0  0  0  0  0  0  0  0  0
   -4.3457    4.5450    2.0519 C   0  0  0  0  0  0  0  0  0  0  0  0
   -4.7530    1.7358    2.5673 O   0  0  0  0  0  0  0  0  0  0  0  0
   -2.7478    1.8603    3.5068 N   0  0  0  0  0  0  0  0  0  0  0  0
   -1.4761    4.9106    1.2130 O   0  0  0  0  0  0  0  0  0  0  0  0
   -1.1114    3.4198    2.8300 N   0  0  0  0  0  0  0  0  0  0  0  0
   -5.6323    4.6651    1.3141 C   0  0  2  0  0  0  0  0  0  0  0  0
   -4.1407    5.3741    3.1117 C   0  0  0  0  0  0  0  0  0  0  0  0
   -1.5050    2.3893    3.6199 C   0  0  0  0  0  0  0  0  0  0  0  0
   -6.6801    5.6450    1.9489 C   0  0  2  0  0  0  0  0  0  0  0  0
   -5.1429    6.3437    3.5778 C   0  0  1  0  0  0  0  0  0  0  0  0
   -0.7137    1.9137    4.4645 O   0  0  0  0  0  0  0  0  0  0  0  0
   -5.9318    6.9259    2.3824 C   0  0  1  0  0  0  0  0  0  0  0  0
   -7.2410    5.1106    3.2996 C   0  0  2  0  0  0  0  0  0  0  0  0
   -6.2564    5.6227    4.3818 C   0  0  1  0  0  0  0  0  0  0  0  0
   -3.3270    3.8419   -0.4825 H   0  0  0  0  0  0  0  0  0  0  0  0
   -4.4163    2.5515   -0.0066 H   0  0  0  0  0  0  0  0  0  0  0  0
   -2.5522    1.6697   -1.3111 H   0  0  0  0  0  0  0  0  0  0  0  0
   -2.4899    1.0058    0.3290 H   0  0  0  0  0  0  0  0  0  0  0  0
   -1.3715    2.2959   -0.1600 H   0  0  0  0  0  0  0  0  0  0  0  0
   -3.0031    1.1251    4.0871 H   0  0  0  0  0  0  0  0  0  0  0  0
   -0.2159    3.7760    2.9332 H   0  0  0  0  0  0  0  0  0  0  0  0
   -6.1079    3.6848    1.2236 H   0  0  0  0  0  0  0  0  0  0  0  0
   -5.4185    5.0181    0.3022 H   0  0  0  0  0  0  0  0  0  0  0  0
   -3.3030    5.3153    3.6420 H   0  0  0  0  0  0  0  0  0  0  0  0
   -7.4875    5.8655    1.2427 H   0  0  0  0  0  0  0  0  0  0  0  0
   -4.6772    7.1376    4.1705 H   0  0  0  0  0  0  0  0  0  0  0  0
   -5.2707    7.3220    1.6060 H   0  0  0  0  0  0  0  0  0  0  0  0
   -6.6244    7.7161    2.6902 H   0  0  0  0  0  0  0  0  0  0  0  0
   -7.3088    4.0185    3.3177 H   0  0  0  0  0  0  0  0  0  0  0  0
   -8.2403    5.5186    3.4790 H   0  0  0  0  0  0  0  0  0  0  0  0
   -5.8631    4.8085    5.0001 H   0  0  0  0  0  0  0  0  0  0  0  0
   -6.7657    6.3328    5.0424 H   0  0  0  0  0  0  0  0  0  0  0  0
  1  2  1  0  0  0  0 
  1  3  1  0  0  0  0 
  3  4  1  0  0  0  0 
  3  5  1  0  0  0  0 
  3  6  1  0  0  0  0 
  4  7  2  0  0  0  0 
  4  8  1  0  0  0  0 
  5  9  2  0  0  0  0 
  5 10  1  0  0  0  0 
  6 11  1  0  0  0  0 
  6 12  2  0  0  0  0 
  8 13  1  0  0  0  0 
 10 13  1  0  0  0  0 
 11 14  1  0  0  0  0 
 12 15  1  0  0  0  0 
 13 16  2  0  0  0  0 
 14 17  1  0  0  0  0 
 14 18  1  0  0  0  0 
 15 17  1  0  0  0  0 
 15 19  1  0  0  0  0 
 18 19  1  0  0  0  0 
 20  1  1  0  0  0  0 
 21  1  1  0  0  0  0 
 22  2  1  0  0  0  0 
 23  2  1  0  0  0  0 
 24  2  1  0  0  0  0 
 25  8  1  0  0  0  0 
 26 10  1  0  0  0  0 
 27 11  1  0  0  0  0 
 28 11  1  0  0  0  0 
 29 12  1  0  0  0  0 
 30 14  1  0  0  0  0 
 31 15  1  0  0  0  0 
 32 17  1  0  0  0  0 
 33 17  1  0  0  0  0 
 34 18  1  0  0  0  0 
 35 18  1  0  0  0  0 
 36 19  1  0  0  0  0 
 37 19  1  0  0  0  0 
M  END
> <cdk:Title>
reposal

> <Conformer>
1

> <SuperDrugID>
SD003263

$$$$
