bisantrene
  CDK     0628171801

 52 56  0  0  0  0  0  0  0  0999 V2000
   -5.1952    6.6935   -5.7691 C   0  0  0  0  0  0  0  0  0  0  0  0
   -5.5152    7.9207   -5.9502 N   0  0  0  0  0  0  0  0  0  0  0  0
   -6.1876    5.7141   -5.7627 C   0  0  0  0  0  0  0  0  0  0  0  0
   -4.7363    8.8729   -5.9782 N   0  0  0  0  0  0  0  0  0  0  0  0
   -7.0263    5.5247   -6.9045 C   0  0  0  0  0  0  0  0  0  0  0  0
   -6.3669    4.9079   -4.5987 C   0  0  0  0  0  0  0  0  0  0  0  0
   -5.0740   10.0222   -6.4336 C   0  0  0  0  0  0  0  0  0  0  0  0
   -8.0811    4.5604   -6.8668 C   0  0  0  0  0  0  0  0  0  0  0  0
   -6.8262    6.2550   -8.1133 C   0  0  0  0  0  0  0  0  0  0  0  0
   -7.4108    3.9308   -4.5646 C   0  0  0  0  0  0  0  0  0  0  0  0
   -5.5423    5.0611   -3.4441 C   0  0  0  0  0  0  0  0  0  0  0  0
   -6.2410   10.3543   -6.9426 N   0  0  0  0  0  0  0  0  0  0  0  0
   -4.2698   11.0528   -6.4594 N   0  0  0  0  0  0  0  0  0  0  0  0
   -8.2578    3.7526   -5.7033 C   0  0  0  0  0  0  0  0  0  0  0  0
   -8.9072    4.4120   -8.0212 C   0  0  0  0  0  0  0  0  0  0  0  0
   -7.6580    6.0927   -9.2294 C   0  0  0  0  0  0  0  0  0  0  0  0
   -7.5791    3.1696   -3.3695 C   0  0  0  0  0  0  0  0  0  0  0  0
   -5.7167    4.2784   -2.2949 C   0  0  0  0  0  0  0  0  0  0  0  0
   -6.2860   11.6959   -7.3804 C   0  0  2  0  0  0  0  0  0  0  0  0
   -4.8919   12.2177   -6.9677 C   0  0  1  0  0  0  0  0  0  0  0  0
   -9.2391    2.7641   -5.7039 C   0  0  0  0  0  0  0  0  0  0  0  0
   -8.7082    5.1733   -9.1813 C   0  0  0  0  0  0  0  0  0  0  0  0
   -6.7374    3.3257   -2.2589 C   0  0  0  0  0  0  0  0  0  0  0  0
   -8.8871    1.5370   -5.5941 N   0  0  0  0  0  0  0  0  0  0  0  0
   -9.6410    0.5661   -5.5785 N   0  0  0  0  0  0  0  0  0  0  0  0
   -9.2529   -0.5959   -5.2014 C   0  0  0  0  0  0  0  0  0  0  0  0
   -8.0532   -0.9294   -4.7788 N   0  0  0  0  0  0  0  0  0  0  0  0
  -10.0396   -1.6390   -5.1712 N   0  0  0  0  0  0  0  0  0  0  0  0
   -7.9625   -2.2853   -4.3962 C   0  0  1  0  0  0  0  0  0  0  0  0
   -9.3935   -2.7946   -4.6752 C   0  0  2  0  0  0  0  0  0  0  0  0
   -4.2462    6.4330   -5.6210 H   0  0  0  0  0  0  0  0  0  0  0  0
   -6.0598    6.9208   -8.2166 H   0  0  0  0  0  0  0  0  0  0  0  0
   -4.7932    5.7545   -3.4064 H   0  0  0  0  0  0  0  0  0  0  0  0
   -6.9911    9.7409   -7.0116 H   0  0  0  0  0  0  0  0  0  0  0  0
   -3.3459   11.0198   -6.1668 H   0  0  0  0  0  0  0  0  0  0  0  0
   -9.6719    3.7356   -8.0505 H   0  0  0  0  0  0  0  0  0  0  0  0
   -7.4958    6.6431  -10.0765 H   0  0  0  0  0  0  0  0  0  0  0  0
   -8.3248    2.4785   -3.2765 H   0  0  0  0  0  0  0  0  0  0  0  0
   -5.1042    4.4078   -1.4854 H   0  0  0  0  0  0  0  0  0  0  0  0
   -7.0920   12.2363   -6.8782 H   0  0  0  0  0  0  0  0  0  0  0  0
   -6.4259   11.7270   -8.4633 H   0  0  0  0  0  0  0  0  0  0  0  0
   -4.9633   12.9753   -6.1834 H   0  0  0  0  0  0  0  0  0  0  0  0
   -4.3352   12.6121   -7.8215 H   0  0  0  0  0  0  0  0  0  0  0  0
  -10.1973    3.0160   -5.8065 H   0  0  0  0  0  0  0  0  0  0  0  0
   -9.3203    5.0496   -9.9924 H   0  0  0  0  0  0  0  0  0  0  0  0
   -6.8684    2.7467   -1.4257 H   0  0  0  0  0  0  0  0  0  0  0  0
   -7.3085   -0.3079   -4.7352 H   0  0  0  0  0  0  0  0  0  0  0  0
  -10.9681   -1.6200   -5.4542 H   0  0  0  0  0  0  0  0  0  0  0  0
   -7.2199   -2.8054   -5.0064 H   0  0  0  0  0  0  0  0  0  0  0  0
   -7.7016   -2.3624   -3.3373 H   0  0  0  0  0  0  0  0  0  0  0  0
   -9.3999   -3.5836   -5.4292 H   0  0  0  0  0  0  0  0  0  0  0  0
   -9.8853   -3.1406   -3.7625 H   0  0  0  0  0  0  0  0  0  0  0  0
  1  2  2  0  0  0  0 
  1  3  1  0  0  0  0 
  2  4  1  0  0  0  0 
  3  5  1  0  0  0  0 
  3  6  2  0  0  0  0 
  4  7  2  0  0  0  0 
  5  8  1  0  0  0  0 
  5  9  2  0  0  0  0 
  6 10  1  0  0  0  0 
  6 11  1  0  0  0  0 
  7 12  1  0  0  0  0 
  7 13  1  0  0  0  0 
  8 14  1  0  0  0  0 
  8 15  2  0  0  0  0 
  9 16  1  0  0  0  0 
 10 14  2  0  0  0  0 
 10 17  1  0  0  0  0 
 11 18  2  0  0  0  0 
 12 19  1  0  0  0  0 
 13 20  1  0  0  0  0 
 21 14  1  0  0  0  0 
 15 22  1  0  0  0  0 
 16 22  2  0  0  0  0 
 17 23  2  0  0  0  0 
 18 23  1  0  0  0  0 
 19 20  1  0  0  0  0 
 21 24  2  0  0  0  0 
 24 25  1  0  0  0  0 
 25 26  2  0  0  0  0 
 26 27  1  0  0  0  0 
 26 28  1  0  0  0  0 
 27 29  1  0  0  0  0 
 28 30  1  0  0  0  0 
 29 30  1  0  0  0  0 
 31  1  1  0  0  0  0 
 32  9  1  0  0  0  0 
 33 11  1  0  0  0  0 
 34 12  1  0  0  0  0 
 35 13  1  0  0  0  0 
 36 15  1  0  0  0  0 
 37 16  1  0  0  0  0 
 38 17  1  0  0  0  0 
 39 18  1  0  0  0  0 
 40 19  1  0  0  0  0 
 41 19  1  0  0  0  0 
 42 20  1  0  0  0  0 
 43 20  1  0  0  0  0 
 44 21  1  0  0  0  0 
 45 22  1  0  0  0  0 
 46 23  1  0  0  0  0 
 47 27  1  0  0  0  0 
 48 28  1  0  0  0  0 
 49 29  1  0  0  0  0 
 50 29  1  0  0  0  0 
 51 30  1  0  0  0  0 
 52 30  1  0  0  0  0 
M  END
> <cdk:Title>
bisantrene

> <Conformer>
1

> <SuperDrugID>
SD000321

$$$$
