esmolol
  CDK     0628171801

 46 46  0  0  0  0  0  0  0  0999 V2000
    0.6283   -8.8249    0.8831 C   0  0  0  0  0  0  0  0  0  0  0  0
   -0.4532   -8.0123    1.3441 O   0  0  0  0  0  0  0  0  0  0  0  0
   -0.8440   -7.8706    2.6429 C   0  0  0  0  0  0  0  0  0  0  0  0
   -0.2158   -8.4245    3.5760 O   0  0  0  0  0  0  0  0  0  0  0  0
   -2.0347   -7.0612    2.9562 C   0  0  1  0  0  0  0  0  0  0  0  0
   -3.2238   -7.9528    3.4026 C   0  0  1  0  0  0  0  0  0  0  0  0
   -4.4380   -7.1461    3.6883 C   0  0  0  0  0  0  0  0  0  0  0  0
   -5.4069   -6.9178    2.6839 C   0  0  0  0  0  0  0  0  0  0  0  0
   -6.5670   -6.1739    2.9642 C   0  0  0  0  0  0  0  0  0  0  0  0
   -6.7674   -5.6341    4.2489 C   0  0  0  0  0  0  0  0  0  0  0  0
   -7.9070   -4.9243    4.5100 O   0  0  0  0  0  0  0  0  0  0  0  0
   -7.7591   -3.5153    4.2447 C   0  0  1  0  0  0  0  0  0  0  0  0
   -9.1240   -2.7967    4.3712 C   0  0  2  0  0  0  0  0  0  0  0  0
   -9.6225   -2.9321    5.6999 O   0  0  0  0  0  0  0  0  0  0  0  0
  -10.1774   -3.3360    3.3731 C   0  0  2  0  0  0  0  0  0  0  0  0
  -11.4207   -2.5342    3.4592 N   0  0  1  0  0  0  0  0  0  0  0  0
  -12.5827   -3.0526    2.6899 C   0  0  1  0  0  0  0  0  0  0  0  0
  -13.8532   -2.2839    3.1336 C   0  0  0  0  0  0  0  0  0  0  0  0
  -12.3649   -2.9205    1.1606 C   0  0  0  0  0  0  0  0  0  0  0  0
   -5.7993   -5.8393    5.2519 C   0  0  0  0  0  0  0  0  0  0  0  0
   -4.6396   -6.5854    4.9700 C   0  0  0  0  0  0  0  0  0  0  0  0
    0.4401   -9.8688    1.1344 H   0  0  0  0  0  0  0  0  0  0  0  0
    0.7082   -8.7293   -0.1995 H   0  0  0  0  0  0  0  0  0  0  0  0
    1.5676   -8.5059    1.3360 H   0  0  0  0  0  0  0  0  0  0  0  0
   -1.7762   -6.3457    3.7416 H   0  0  0  0  0  0  0  0  0  0  0  0
   -2.3269   -6.4918    2.0697 H   0  0  0  0  0  0  0  0  0  0  0  0
   -3.4445   -8.6810    2.6160 H   0  0  0  0  0  0  0  0  0  0  0  0
   -2.9486   -8.5297    4.2918 H   0  0  0  0  0  0  0  0  0  0  0  0
   -5.2773   -7.2930    1.7413 H   0  0  0  0  0  0  0  0  0  0  0  0
   -7.2670   -6.0231    2.2328 H   0  0  0  0  0  0  0  0  0  0  0  0
   -7.0563   -3.0810    4.9616 H   0  0  0  0  0  0  0  0  0  0  0  0
   -7.3719   -3.3387    3.2348 H   0  0  0  0  0  0  0  0  0  0  0  0
   -8.9651   -1.7310    4.1780 H   0  0  0  0  0  0  0  0  0  0  0  0
   -8.9698   -2.4728    6.2680 H   0  0  0  0  0  0  0  0  0  0  0  0
  -10.3898   -4.3830    3.5999 H   0  0  0  0  0  0  0  0  0  0  0  0
   -9.7708   -3.2765    2.3615 H   0  0  0  0  0  0  0  0  0  0  0  0
  -11.6982   -2.5322    4.4426 H   0  0  0  0  0  0  0  0  0  0  0  0
  -12.7404   -4.1076    2.9350 H   0  0  0  0  0  0  0  0  0  0  0  0
  -14.7328   -2.6692    2.6134 H   0  0  0  0  0  0  0  0  0  0  0  0
  -13.7552   -1.2182    2.9133 H   0  0  0  0  0  0  0  0  0  0  0  0
  -14.0144   -2.4056    4.2063 H   0  0  0  0  0  0  0  0  0  0  0  0
  -13.2744   -3.1804    0.6183 H   0  0  0  0  0  0  0  0  0  0  0  0
  -11.5758   -3.5971    0.8321 H   0  0  0  0  0  0  0  0  0  0  0  0
  -12.0801   -1.8972    0.9069 H   0  0  0  0  0  0  0  0  0  0  0  0
   -5.9387   -5.4470    6.1865 H   0  0  0  0  0  0  0  0  0  0  0  0
   -3.9445   -6.7219    5.7079 H   0  0  0  0  0  0  0  0  0  0  0  0
  1  2  1  0  0  0  0 
  2  3  1  0  0  0  0 
  3  4  2  0  0  0  0 
  3  5  1  0  0  0  0 
  5  6  1  0  0  0  0 
  6  7  1  0  0  0  0 
  7  8  2  0  0  0  0 
  8  9  1  0  0  0  0 
  9 10  2  0  0  0  0 
 10 11  1  0  0  0  0 
 11 12  1  0  0  0  0 
 13 12  1  0  0  0  0 
 13 14  1  0  0  0  0 
 13 15  1  0  0  0  0 
 15 16  1  0  0  0  0 
 16 17  1  0  0  0  0 
 17 18  1  0  0  0  0 
 17 19  1  0  0  0  0 
 10 20  1  0  0  0  0 
 20 21  2  0  0  0  0 
  7 21  1  0  0  0  0 
  1 22  1  0  0  0  0 
  1 23  1  0  0  0  0 
  1 24  1  0  0  0  0 
  5 25  1  0  0  0  0 
  5 26  1  0  0  0  0 
  6 27  1  0  0  0  0 
  6 28  1  0  0  0  0 
  8 29  1  0  0  0  0 
  9 30  1  0  0  0  0 
 12 31  1  0  0  0  0 
 12 32  1  0  0  0  0 
 13 33  1  0  0  0  0 
 14 34  1  0  0  0  0 
 15 35  1  0  0  0  0 
 15 36  1  0  0  0  0 
 16 37  1  0  0  0  0 
 17 38  1  0  0  0  0 
 18 39  1  0  0  0  0 
 18 40  1  0  0  0  0 
 18 41  1  0  0  0  0 
 19 42  1  0  0  0  0 
 19 43  1  0  0  0  0 
 19 44  1  0  0  0  0 
 20 45  1  0  0  0  0 
 21 46  1  0  0  0  0 
M  END
> <cdk:Title>
esmolol

> <Conformer>
1

> <SuperDrugID>
SD000939

$$$$
