acepromazine
  CDK     0628171802

 45 47  0  0  0  0  0  0  0  0999 V2000
    0.2095   -2.0383    1.0827 C   0  0  0  0  0  0  0  0  0  0  0  0
    0.6540   -1.6861    2.4648 N   0  0  2  0  0  0  0  0  0  0  0  0
    0.2444   -2.7240    3.4591 C   0  0  0  0  0  0  0  0  0  0  0  0
    0.2744   -0.2838    2.8469 C   0  0  1  0  0  0  0  0  0  0  0  0
    1.0547    0.3204    4.0470 C   0  0  2  0  0  0  0  0  0  0  0  0
    2.6078    0.3041    3.9299 C   0  0  1  0  0  0  0  0  0  0  0  0
    3.1760    0.9083    2.7275 N   0  0  0  0  0  0  0  0  0  0  0  0
    4.1335    0.1978    1.9987 C   0  0  0  0  0  0  0  0  0  0  0  0
    5.2048   -0.4823    2.6351 C   0  0  0  0  0  0  0  0  0  0  0  0
    6.1435   -1.2209    1.8907 C   0  0  0  0  0  0  0  0  0  0  0  0
    6.0266   -1.3052    0.4929 C   0  0  0  0  0  0  0  0  0  0  0  0
    4.9882   -0.6246   -0.1634 C   0  0  0  0  0  0  0  0  0  0  0  0
    4.0748    0.1427    0.5825 C   0  0  0  0  0  0  0  0  0  0  0  0
    2.8730    1.1160   -0.2513 S   0  0  0  0  0  0  0  0  0  0  0  0
    2.5867    2.4168    0.8984 C   0  0  0  0  0  0  0  0  0  0  0  0
    2.2029    3.6812    0.4235 C   0  0  0  0  0  0  0  0  0  0  0  0
    1.9285    4.7144    1.3312 C   0  0  0  0  0  0  0  0  0  0  0  0
    2.0225    4.5048    2.7276 C   0  0  0  0  0  0  0  0  0  0  0  0
    2.4718    3.2345    3.1750 C   0  0  0  0  0  0  0  0  0  0  0  0
    2.7573    2.1674    2.2831 C   0  0  0  0  0  0  0  0  0  0  0  0
    1.6472    5.5461    3.6302 C   0  0  0  0  0  0  0  0  0  0  0  0
    1.2475    5.3014    5.0314 C   0  0  0  0  0  0  0  0  0  0  0  0
    1.6094    6.7356    3.2334 O   0  0  0  0  0  0  0  0  0  0  0  0
    0.6446   -1.3473    0.3578 H   0  0  0  0  0  0  0  0  0  0  0  0
    0.5449   -3.0419    0.8093 H   0  0  0  0  0  0  0  0  0  0  0  0
   -0.8799   -1.9979    0.9919 H   0  0  0  0  0  0  0  0  0  0  0  0
    0.5138   -3.7262    3.1149 H   0  0  0  0  0  0  0  0  0  0  0  0
    0.7547   -2.5625    4.4085 H   0  0  0  0  0  0  0  0  0  0  0  0
   -0.8333   -2.7019    3.6332 H   0  0  0  0  0  0  0  0  0  0  0  0
    0.4290    0.3878    1.9978 H   0  0  0  0  0  0  0  0  0  0  0  0
   -0.7941   -0.2401    3.0805 H   0  0  0  0  0  0  0  0  0  0  0  0
    0.7769   -0.2116    4.9593 H   0  0  0  0  0  0  0  0  0  0  0  0
    0.7142    1.3496    4.1819 H   0  0  0  0  0  0  0  0  0  0  0  0
    3.0262    0.8128    4.8028 H   0  0  0  0  0  0  0  0  0  0  0  0
    2.9026   -0.7467    4.0255 H   0  0  0  0  0  0  0  0  0  0  0  0
    5.3151   -0.4424    3.6512 H   0  0  0  0  0  0  0  0  0  0  0  0
    6.9123   -1.6979    2.3644 H   0  0  0  0  0  0  0  0  0  0  0  0
    6.6989   -1.8533   -0.0491 H   0  0  0  0  0  0  0  0  0  0  0  0
    4.9090   -0.6777   -1.1815 H   0  0  0  0  0  0  0  0  0  0  0  0
    2.1187    3.8563   -0.5816 H   0  0  0  0  0  0  0  0  0  0  0  0
    1.6427    5.6209    0.9534 H   0  0  0  0  0  0  0  0  0  0  0  0
    2.5999    3.0776    4.1760 H   0  0  0  0  0  0  0  0  0  0  0  0
    0.8478    6.2053    5.4951 H   0  0  0  0  0  0  0  0  0  0  0  0
    0.4726    4.5343    5.0658 H   0  0  0  0  0  0  0  0  0  0  0  0
    2.1088    4.9742    5.6117 H   0  0  0  0  0  0  0  0  0  0  0  0
  1  2  1  0  0  0  0 
  2  3  1  0  0  0  0 
  2  4  1  0  0  0  0 
  4  5  1  0  0  0  0 
  5  6  1  0  0  0  0 
  6  7  1  0  0  0  0 
  7  8  1  0  0  0  0 
  8  9  2  0  0  0  0 
  9 10  1  0  0  0  0 
 10 11  2  0  0  0  0 
 11 12  1  0  0  0  0 
 12 13  2  0  0  0  0 
  8 13  1  0  0  0  0 
 13 14  1  0  0  0  0 
 14 15  1  0  0  0  0 
 15 16  2  0  0  0  0 
 16 17  1  0  0  0  0 
 17 18  2  0  0  0  0 
 18 19  1  0  0  0  0 
 19 20  2  0  0  0  0 
  7 20  1  0  0  0  0 
 15 20  1  0  0  0  0 
 18 21  1  0  0  0  0 
 21 22  1  0  0  0  0 
 21 23  2  0  0  0  0 
 24  1  1  0  0  0  0 
 25  1  1  0  0  0  0 
 26  1  1  0  0  0  0 
 27  3  1  0  0  0  0 
 28  3  1  0  0  0  0 
 29  3  1  0  0  0  0 
 30  4  1  0  0  0  0 
 31  4  1  0  0  0  0 
 32  5  1  0  0  0  0 
 33  5  1  0  0  0  0 
 34  6  1  0  0  0  0 
 35  6  1  0  0  0  0 
 36  9  1  0  0  0  0 
 37 10  1  0  0  0  0 
 38 11  1  0  0  0  0 
 39 12  1  0  0  0  0 
 40 16  1  0  0  0  0 
 41 17  1  0  0  0  0 
 42 19  1  0  0  0  0 
 43 22  1  0  0  0  0 
 44 22  1  0  0  0  0 
 45 22  1  0  0  0  0 
M  END
> <cdk:Title>
acepromazine

> <Conformer>
1

> <SuperDrugID>
SD000050

$$$$
