delorazepam
  CDK     0628171802

 30 32  0  0  0  0  0  0  0  0999 V2000
   -3.1710    0.7256    6.2708 Cl  0  0  0  0  0  0  0  0  0  0  0  0
   -3.5563    1.3754    4.7546 C   0  0  0  0  0  0  0  0  0  0  0  0
   -3.3496    0.6243    3.5837 C   0  0  0  0  0  0  0  0  0  0  0  0
   -4.0692    2.6786    4.6614 C   0  0  0  0  0  0  0  0  0  0  0  0
   -3.6393    1.1564    2.2991 C   0  0  0  0  0  0  0  0  0  0  0  0
   -4.3896    3.2168    3.4050 C   0  0  0  0  0  0  0  0  0  0  0  0
   -3.3088    0.4068    1.1536 C   0  0  0  0  0  0  0  0  0  0  0  0
   -4.2131    2.4640    2.2224 C   0  0  0  0  0  0  0  0  0  0  0  0
   -3.9975    0.4015    0.0647 N   0  0  0  0  0  0  0  0  0  0  0  0
   -2.1446   -0.3573    1.0817 C   0  0  0  0  0  0  0  0  0  0  0  0
   -4.5920    3.0991    1.0689 N   0  0  0  0  0  0  0  0  0  0  0  0
   -5.1766    1.0646   -0.2392 C   0  0  2  0  0  0  0  0  0  0  0  0
   -0.8594    0.2463    1.0137 C   0  0  0  0  0  0  0  0  0  0  0  0
   -2.2352   -1.7712    1.0571 C   0  0  0  0  0  0  0  0  0  0  0  0
   -4.9981    2.5220   -0.0922 C   0  0  0  0  0  0  0  0  0  0  0  0
   -0.6344    1.9300    1.0321 Cl  0  0  0  0  0  0  0  0  0  0  0  0
    0.2958   -0.5574    0.9049 C   0  0  0  0  0  0  0  0  0  0  0  0
   -1.0772   -2.5649    0.9603 C   0  0  0  0  0  0  0  0  0  0  0  0
   -5.2339    3.2788   -1.0608 O   0  0  0  0  0  0  0  0  0  0  0  0
    0.1862   -1.9577    0.8710 C   0  0  0  0  0  0  0  0  0  0  0  0
   -2.9768   -0.3248    3.6785 H   0  0  0  0  0  0  0  0  0  0  0  0
   -4.2126    3.2407    5.5041 H   0  0  0  0  0  0  0  0  0  0  0  0
   -4.7597    4.1706    3.3646 H   0  0  0  0  0  0  0  0  0  0  0  0
   -4.6005    4.0697    1.0879 H   0  0  0  0  0  0  0  0  0  0  0  0
   -5.9826    0.7223    0.4152 H   0  0  0  0  0  0  0  0  0  0  0  0
   -5.4482    0.8136   -1.2675 H   0  0  0  0  0  0  0  0  0  0  0  0
   -3.1445   -2.2370    1.1119 H   0  0  0  0  0  0  0  0  0  0  0  0
    1.2254   -0.1310    0.8432 H   0  0  0  0  0  0  0  0  0  0  0  0
   -1.1532   -3.5844    0.9505 H   0  0  0  0  0  0  0  0  0  0  0  0
    1.0269   -2.5340    0.7806 H   0  0  0  0  0  0  0  0  0  0  0  0
  1  2  1  0  0  0  0 
  2  3  2  0  0  0  0 
  2  4  1  0  0  0  0 
  3  5  1  0  0  0  0 
  4  6  2  0  0  0  0 
  5  7  1  0  0  0  0 
  5  8  2  0  0  0  0 
  6  8  1  0  0  0  0 
  7  9  2  0  0  0  0 
  7 10  1  0  0  0  0 
  8 11  1  0  0  0  0 
  9 12  1  0  0  0  0 
 10 13  2  0  0  0  0 
 10 14  1  0  0  0  0 
 11 15  1  0  0  0  0 
 12 15  1  0  0  0  0 
 13 16  1  0  0  0  0 
 13 17  1  0  0  0  0 
 14 18  2  0  0  0  0 
 15 19  2  0  0  0  0 
 17 20  2  0  0  0  0 
 18 20  1  0  0  0  0 
  3 21  1  0  0  0  0 
  4 22  1  0  0  0  0 
  6 23  1  0  0  0  0 
 11 24  1  0  0  0  0 
 12 25  1  0  0  0  0 
 12 26  1  0  0  0  0 
 14 27  1  0  0  0  0 
 17 28  1  0  0  0  0 
 18 29  1  0  0  0  0 
 20 30  1  0  0  0  0 
M  END
> <cdk:Title>
delorazepam

> <Conformer>
1

> <SuperDrugID>
SD000706

$$$$
