oxcarbazepine
  CDK     0628171801

 31 33  0  0  0  0  0  0  0  0999 V2000
   -0.5115    0.0467    0.2349 C   0  0  0  0  0  0  0  0  0  0  0  0
    0.6065   -0.5177   -0.2616 N   0  0  0  0  0  0  0  0  0  0  0  0
   -0.6822   -0.1422    1.4632 O   0  0  0  0  0  0  0  0  0  0  0  0
   -1.3947    0.7995   -0.5248 N   0  0  0  0  0  0  0  0  0  0  0  0
   -1.2439    1.0020   -1.8859 C   0  0  0  0  0  0  0  0  0  0  0  0
   -2.4670    1.4033    0.0849 C   0  0  0  0  0  0  0  0  0  0  0  0
   -1.1644    2.3002   -2.4880 C   0  0  0  0  0  0  0  0  0  0  0  0
   -1.2311   -0.1475   -2.7146 C   0  0  0  0  0  0  0  0  0  0  0  0
   -2.4721    2.8104    0.2647 C   0  0  0  0  0  0  0  0  0  0  0  0
   -3.5562    0.6295    0.5452 C   0  0  0  0  0  0  0  0  0  0  0  0
   -1.2340    3.5224   -1.7301 C   0  0  0  0  0  0  0  0  0  0  0  0
   -1.0422    2.3730   -3.9048 C   0  0  0  0  0  0  0  0  0  0  0  0
   -1.1127   -0.0441   -4.1085 C   0  0  0  0  0  0  0  0  0  0  0  0
   -1.3232    3.6040   -0.2459 C   0  0  2  0  0  0  0  0  0  0  0  0
   -3.5654    3.4161    0.9288 C   0  0  0  0  0  0  0  0  0  0  0  0
   -4.6405    1.2436    1.1948 C   0  0  0  0  0  0  0  0  0  0  0  0
   -1.2405    4.6256   -2.3291 O   0  0  0  0  0  0  0  0  0  0  0  0
   -1.0177    1.2192   -4.7047 C   0  0  0  0  0  0  0  0  0  0  0  0
   -4.6444    2.6362    1.3860 C   0  0  0  0  0  0  0  0  0  0  0  0
    1.1890   -1.0281    0.3236 H   0  0  0  0  0  0  0  0  0  0  0  0
    0.8335   -0.4150   -1.1983 H   0  0  0  0  0  0  0  0  0  0  0  0
   -1.3237   -1.0793   -2.3049 H   0  0  0  0  0  0  0  0  0  0  0  0
   -3.5623   -0.3843    0.4088 H   0  0  0  0  0  0  0  0  0  0  0  0
   -0.9768    3.2740   -4.3846 H   0  0  0  0  0  0  0  0  0  0  0  0
   -1.1006   -0.8877   -4.6879 H   0  0  0  0  0  0  0  0  0  0  0  0
   -0.3965    3.2246    0.1937 H   0  0  0  0  0  0  0  0  0  0  0  0
   -1.4085    4.6492    0.0694 H   0  0  0  0  0  0  0  0  0  0  0  0
   -3.5852    4.4269    1.0863 H   0  0  0  0  0  0  0  0  0  0  0  0
   -5.4243    0.6764    1.5290 H   0  0  0  0  0  0  0  0  0  0  0  0
   -0.9381    1.3016   -5.7214 H   0  0  0  0  0  0  0  0  0  0  0  0
   -5.4341    3.0817    1.8581 H   0  0  0  0  0  0  0  0  0  0  0  0
  1  2  1  0  0  0  0 
  1  3  2  0  0  0  0 
  1  4  1  0  0  0  0 
  4  5  1  0  0  0  0 
  4  6  1  0  0  0  0 
  5  7  2  0  0  0  0 
  5  8  1  0  0  0  0 
  6  9  2  0  0  0  0 
  6 10  1  0  0  0  0 
  7 11  1  0  0  0  0 
  7 12  1  0  0  0  0 
  8 13  2  0  0  0  0 
  9 14  1  0  0  0  0 
  9 15  1  0  0  0  0 
 10 16  2  0  0  0  0 
 11 14  1  0  0  0  0 
 11 17  2  0  0  0  0 
 12 18  2  0  0  0  0 
 13 18  1  0  0  0  0 
 15 19  2  0  0  0  0 
 16 19  1  0  0  0  0 
  2 20  1  0  0  0  0 
  2 21  1  0  0  0  0 
  8 22  1  0  0  0  0 
 10 23  1  0  0  0  0 
 12 24  1  0  0  0  0 
 13 25  1  0  0  0  0 
 14 26  1  0  0  0  0 
 14 27  1  0  0  0  0 
 15 28  1  0  0  0  0 
 16 29  1  0  0  0  0 
 18 30  1  0  0  0  0 
 19 31  1  0  0  0  0 
M  END
> <cdk:Title>
oxcarbazepine

> <Conformer>
1

> <SuperDrugID>
SD001805

$$$$
