benperidol
  CDK     0628171801

 52 55  0  0  0  0  0  0  0  0999 V2000
   -5.6789  -10.2270    3.7652 O   0  0  0  0  0  0  0  0  0  0  0  0
   -5.4964  -11.2380    4.4808 C   0  0  0  0  0  0  0  0  0  0  0  0
   -5.1632  -11.2599    5.7984 N   0  0  0  0  0  0  0  0  0  0  0  0
   -5.6000  -12.4871    4.0019 N   0  0  0  0  0  0  0  0  0  0  0  0
   -5.0505  -12.5680    6.1334 C   0  0  0  0  0  0  0  0  0  0  0  0
   -4.9359  -10.1141    6.6573 C   0  0  2  0  0  0  0  0  0  0  0  0
   -5.3316  -13.3306    5.0004 C   0  0  0  0  0  0  0  0  0  0  0  0
   -4.7077  -13.2100    7.3431 C   0  0  0  0  0  0  0  0  0  0  0  0
   -6.1783   -9.1783    6.7933 C   0  0  2  0  0  0  0  0  0  0  0  0
   -3.6580   -9.3433    6.2091 C   0  0  1  0  0  0  0  0  0  0  0  0
   -5.3014  -14.7334    5.0184 C   0  0  0  0  0  0  0  0  0  0  0  0
   -4.6780  -14.6203    7.3852 C   0  0  0  0  0  0  0  0  0  0  0  0
   -5.8307   -7.9057    7.6159 C   0  0  1  0  0  0  0  0  0  0  0  0
   -3.4330   -8.0657    7.0618 C   0  0  1  0  0  0  0  0  0  0  0  0
   -4.9761  -15.3769    6.2297 C   0  0  0  0  0  0  0  0  0  0  0  0
   -4.6345   -7.1710    7.0790 N   0  0  1  0  0  0  0  0  0  0  0  0
   -4.8347   -6.4169    5.7923 C   0  0  2  0  0  0  0  0  0  0  0  0
   -5.7626   -5.1794    5.8936 C   0  0  1  0  0  0  0  0  0  0  0  0
   -5.1927   -4.0525    6.7991 C   0  0  2  0  0  0  0  0  0  0  0  0
   -6.1277   -2.8981    6.9052 C   0  0  0  0  0  0  0  0  0  0  0  0
   -5.7417   -1.8093    6.4156 O   0  0  0  0  0  0  0  0  0  0  0  0
   -7.4308   -2.9822    7.4861 C   0  0  0  0  0  0  0  0  0  0  0  0
   -8.4763   -2.1413    7.0267 C   0  0  0  0  0  0  0  0  0  0  0  0
   -7.7351   -3.9137    8.5126 C   0  0  0  0  0  0  0  0  0  0  0  0
   -9.7838   -2.2622    7.5327 C   0  0  0  0  0  0  0  0  0  0  0  0
   -9.0398   -4.0325    9.0267 C   0  0  0  0  0  0  0  0  0  0  0  0
  -10.0686   -3.2148    8.5268 C   0  0  0  0  0  0  0  0  0  0  0  0
  -11.2828   -3.3387    8.9846 F   0  0  0  0  0  0  0  0  0  0  0  0
   -5.8242  -12.7335    3.0921 H   0  0  0  0  0  0  0  0  0  0  0  0
   -4.7288  -10.4622    7.6756 H   0  0  0  0  0  0  0  0  0  0  0  0
   -4.4773  -12.6778    8.1825 H   0  0  0  0  0  0  0  0  0  0  0  0
   -6.9877   -9.7163    7.2950 H   0  0  0  0  0  0  0  0  0  0  0  0
   -6.5479   -8.8767    5.8119 H   0  0  0  0  0  0  0  0  0  0  0  0
   -2.7898  -10.0005    6.3131 H   0  0  0  0  0  0  0  0  0  0  0  0
   -3.7313   -9.0582    5.1574 H   0  0  0  0  0  0  0  0  0  0  0  0
   -5.5137  -15.2717    4.1775 H   0  0  0  0  0  0  0  0  0  0  0  0
   -4.4352  -15.0962    8.2582 H   0  0  0  0  0  0  0  0  0  0  0  0
   -6.7069   -7.2562    7.6692 H   0  0  0  0  0  0  0  0  0  0  0  0
   -5.6205   -8.2067    8.6472 H   0  0  0  0  0  0  0  0  0  0  0  0
   -3.1932   -8.3635    8.0856 H   0  0  0  0  0  0  0  0  0  0  0  0
   -2.5576   -7.5299    6.6827 H   0  0  0  0  0  0  0  0  0  0  0  0
   -4.9566  -16.3974    6.2733 H   0  0  0  0  0  0  0  0  0  0  0  0
   -5.2328   -7.0770    5.0193 H   0  0  0  0  0  0  0  0  0  0  0  0
   -3.8714   -6.0559    5.4230 H   0  0  0  0  0  0  0  0  0  0  0  0
   -5.8885   -4.7713    4.8858 H   0  0  0  0  0  0  0  0  0  0  0  0
   -6.7519   -5.4901    6.2338 H   0  0  0  0  0  0  0  0  0  0  0  0
   -4.2427   -3.7216    6.3615 H   0  0  0  0  0  0  0  0  0  0  0  0
   -4.9635   -4.4352    7.7956 H   0  0  0  0  0  0  0  0  0  0  0  0
   -8.3010   -1.4442    6.2976 H   0  0  0  0  0  0  0  0  0  0  0  0
   -7.0134   -4.5218    8.9046 H   0  0  0  0  0  0  0  0  0  0  0  0
  -10.5260   -1.6588    7.1698 H   0  0  0  0  0  0  0  0  0  0  0  0
   -9.2348   -4.7188    9.7621 H   0  0  0  0  0  0  0  0  0  0  0  0
  1  2  2  0  0  0  0 
  2  3  1  0  0  0  0 
  2  4  1  0  0  0  0 
  3  5  1  0  0  0  0 
  3  6  1  0  0  0  0 
  4  7  1  0  0  0  0 
  5  7  1  0  0  0  0 
  5  8  2  0  0  0  0 
  6  9  1  0  0  0  0 
  6 10  1  0  0  0  0 
  7 11  2  0  0  0  0 
  8 12  1  0  0  0  0 
  9 13  1  0  0  0  0 
 10 14  1  0  0  0  0 
 11 15  1  0  0  0  0 
 12 15  2  0  0  0  0 
 13 16  1  0  0  0  0 
 14 16  1  0  0  0  0 
 16 17  1  0  0  0  0 
 17 18  1  0  0  0  0 
 18 19  1  0  0  0  0 
 19 20  1  0  0  0  0 
 20 21  2  0  0  0  0 
 20 22  1  0  0  0  0 
 22 23  2  0  0  0  0 
 22 24  1  0  0  0  0 
 23 25  1  0  0  0  0 
 24 26  2  0  0  0  0 
 25 27  2  0  0  0  0 
 26 27  1  0  0  0  0 
 27 28  1  0  0  0  0 
 29  4  1  0  0  0  0 
 30  6  1  0  0  0  0 
 31  8  1  0  0  0  0 
 32  9  1  0  0  0  0 
 33  9  1  0  0  0  0 
 34 10  1  0  0  0  0 
 35 10  1  0  0  0  0 
 36 11  1  0  0  0  0 
 37 12  1  0  0  0  0 
 38 13  1  0  0  0  0 
 39 13  1  0  0  0  0 
 40 14  1  0  0  0  0 
 41 14  1  0  0  0  0 
 42 15  1  0  0  0  0 
 43 17  1  0  0  0  0 
 44 17  1  0  0  0  0 
 45 18  1  0  0  0  0 
 46 18  1  0  0  0  0 
 47 19  1  0  0  0  0 
 48 19  1  0  0  0  0 
 49 23  1  0  0  0  0 
 50 24  1  0  0  0  0 
 51 25  1  0  0  0  0 
 52 26  1  0  0  0  0 
M  END
> <cdk:Title>
benperidol

> <Conformer>
1

> <SuperDrugID>
SD000261

$$$$
