alexidine
  CDK     0628171801

 92 91  0  0  0  0  0  0  0  0999 V2000
   -0.3860  -13.7597   -3.2032 C   0  0  2  0  0  0  0  0  0  0  0  0
   -0.0041  -15.1809   -3.7333 C   0  0  2  0  0  0  0  0  0  0  0  0
   -1.8139  -13.2889   -3.6560 C   0  0  1  0  0  0  0  0  0  0  0  0
    0.6946  -12.6686   -3.5116 C   0  0  2  0  0  0  0  0  0  0  0  0
   -1.0230  -16.0975   -3.4837 N   0  0  0  0  0  0  0  0  0  0  0  0
   -2.0513  -13.1822   -5.1914 C   0  0  2  0  0  0  0  0  0  0  0  0
    2.1094  -12.9445   -2.9490 C   0  0  0  0  0  0  0  0  0  0  0  0
   -1.1238  -17.3524   -3.7526 C   0  0  0  0  0  0  0  0  0  0  0  0
   -3.4891  -12.7129   -5.5379 C   0  0  1  0  0  0  0  0  0  0  0  0
   -2.2328  -18.0347   -3.4464 N   0  0  0  0  0  0  0  0  0  0  0  0
   -0.1683  -18.0153   -4.3708 N   0  0  0  0  0  0  0  0  0  0  0  0
   -3.7189  -12.5808   -7.0608 C   0  0  0  0  0  0  0  0  0  0  0  0
   -3.1908  -17.6715   -2.5906 C   0  0  0  0  0  0  0  0  0  0  0  0
   -2.9005  -16.9792   -1.5445 N   0  0  0  0  0  0  0  0  0  0  0  0
   -4.4203  -18.0667   -2.8650 N   0  0  0  0  0  0  0  0  0  0  0  0
   -3.7258  -16.4792   -0.5450 C   0  0  1  0  0  0  0  0  0  0  0  0
   -2.8674  -15.8172    0.5636 C   0  0  2  0  0  0  0  0  0  0  0  0
   -3.7311  -15.0601    1.6063 C   0  0  2  0  0  0  0  0  0  0  0  0
   -2.9091  -14.5128    2.8033 C   0  0  2  0  0  0  0  0  0  0  0  0
   -3.8080  -13.7732    3.8289 C   0  0  2  0  0  0  0  0  0  0  0  0
   -3.0435  -13.3536    5.1047 C   0  0  1  0  0  0  0  0  0  0  0  0
   -3.8520  -12.5410    5.8974 N   0  0  0  0  0  0  0  0  0  0  0  0
   -3.5740  -12.0103    7.0339 C   0  0  0  0  0  0  0  0  0  0  0  0
   -4.4805  -11.1763    7.5514 N   0  0  0  0  0  0  0  0  0  0  0  0
   -2.4202  -12.2245    7.6513 N   0  0  0  0  0  0  0  0  0  0  0  0
   -4.2404   -9.9146    7.9294 C   0  0  0  0  0  0  0  0  0  0  0  0
   -3.0653   -9.4095    7.7831 N   0  0  0  0  0  0  0  0  0  0  0  0
   -5.2484   -9.2063    8.4015 N   0  0  0  0  0  0  0  0  0  0  0  0
   -2.5494   -8.1439    8.0291 C   0  0  2  0  0  0  0  0  0  0  0  0
   -1.0268   -8.0983    7.6669 C   0  0  1  0  0  0  0  0  0  0  0  0
   -0.7014   -8.6862    6.2472 C   0  0  1  0  0  0  0  0  0  0  0  0
   -0.4486   -6.6647    7.9184 C   0  0  1  0  0  0  0  0  0  0  0  0
   -1.3393   -7.9555    5.0345 C   0  0  1  0  0  0  0  0  0  0  0  0
    1.0829   -6.5135    7.7352 C   0  0  0  0  0  0  0  0  0  0  0  0
   -0.8288   -8.5563    3.6581 C   0  0  2  0  0  0  0  0  0  0  0  0
   -1.5541   -7.7884    2.4810 C   0  0  0  0  0  0  0  0  0  0  0  0
   -0.4356  -13.8404   -2.1112 H   0  0  0  0  0  0  0  0  0  0  0  0
    0.8973  -15.5373   -3.2295 H   0  0  0  0  0  0  0  0  0  0  0  0
    0.1925  -15.1331   -4.8070 H   0  0  0  0  0  0  0  0  0  0  0  0
   -2.5566  -13.9757   -3.2403 H   0  0  0  0  0  0  0  0  0  0  0  0
   -2.0174  -12.3145   -3.2038 H   0  0  0  0  0  0  0  0  0  0  0  0
    0.3630  -11.7198   -3.0807 H   0  0  0  0  0  0  0  0  0  0  0  0
    0.7811  -12.5225   -4.5906 H   0  0  0  0  0  0  0  0  0  0  0  0
   -1.8851  -14.1568   -5.6567 H   0  0  0  0  0  0  0  0  0  0  0  0
   -1.3408  -12.4747   -5.6245 H   0  0  0  0  0  0  0  0  0  0  0  0
    2.7365  -12.0610   -3.0856 H   0  0  0  0  0  0  0  0  0  0  0  0
    2.5743  -13.7759   -3.4797 H   0  0  0  0  0  0  0  0  0  0  0  0
    2.0677  -13.1748   -1.8826 H   0  0  0  0  0  0  0  0  0  0  0  0
   -4.2110  -13.4293   -5.1366 H   0  0  0  0  0  0  0  0  0  0  0  0
   -3.6793  -11.7425   -5.0709 H   0  0  0  0  0  0  0  0  0  0  0  0
   -2.3705  -18.8706   -3.9208 H   0  0  0  0  0  0  0  0  0  0  0  0
    0.6507  -17.5656   -4.6296 H   0  0  0  0  0  0  0  0  0  0  0  0
   -0.2804  -18.9592   -4.5636 H   0  0  0  0  0  0  0  0  0  0  0  0
   -3.5624  -13.5402   -7.5591 H   0  0  0  0  0  0  0  0  0  0  0  0
   -3.0349  -11.8449   -7.4894 H   0  0  0  0  0  0  0  0  0  0  0  0
   -4.7432  -12.2547   -7.2493 H   0  0  0  0  0  0  0  0  0  0  0  0
   -5.1582  -17.8360   -2.2776 H   0  0  0  0  0  0  0  0  0  0  0  0
   -4.5911  -18.5859   -3.6662 H   0  0  0  0  0  0  0  0  0  0  0  0
   -4.4043  -15.7417   -0.9824 H   0  0  0  0  0  0  0  0  0  0  0  0
   -4.3115  -17.2933   -0.1081 H   0  0  0  0  0  0  0  0  0  0  0  0
   -2.1617  -15.1108    0.1149 H   0  0  0  0  0  0  0  0  0  0  0  0
   -2.2890  -16.5997    1.0650 H   0  0  0  0  0  0  0  0  0  0  0  0
   -4.5027  -15.7350    1.9860 H   0  0  0  0  0  0  0  0  0  0  0  0
   -4.2295  -14.2239    1.1075 H   0  0  0  0  0  0  0  0  0  0  0  0
   -2.1494  -13.8182    2.4331 H   0  0  0  0  0  0  0  0  0  0  0  0
   -2.3976  -15.3418    3.2999 H   0  0  0  0  0  0  0  0  0  0  0  0
   -4.6375  -14.4216    4.1249 H   0  0  0  0  0  0  0  0  0  0  0  0
   -4.2249  -12.8833    3.3469 H   0  0  0  0  0  0  0  0  0  0  0  0
   -2.7422  -14.2438    5.6647 H   0  0  0  0  0  0  0  0  0  0  0  0
   -2.1486  -12.7915    4.8197 H   0  0  0  0  0  0  0  0  0  0  0  0
   -5.4034  -11.4777    7.5788 H   0  0  0  0  0  0  0  0  0  0  0  0
   -2.2640  -11.8454    8.5290 H   0  0  0  0  0  0  0  0  0  0  0  0
   -1.7284  -12.7593    7.2316 H   0  0  0  0  0  0  0  0  0  0  0  0
   -5.1093   -8.2860    8.6724 H   0  0  0  0  0  0  0  0  0  0  0  0
   -6.1329   -9.5997    8.4774 H   0  0  0  0  0  0  0  0  0  0  0  0
   -2.6839   -7.9128    9.0894 H   0  0  0  0  0  0  0  0  0  0  0  0
   -3.1005   -7.4051    7.4404 H   0  0  0  0  0  0  0  0  0  0  0  0
   -0.5245   -8.7576    8.3849 H   0  0  0  0  0  0  0  0  0  0  0  0
    0.3811   -8.7045    6.1141 H   0  0  0  0  0  0  0  0  0  0  0  0
   -1.0175   -9.7319    6.2155 H   0  0  0  0  0  0  0  0  0  0  0  0
   -0.9522   -5.9406    7.2730 H   0  0  0  0  0  0  0  0  0  0  0  0
   -0.6669   -6.3819    8.9514 H   0  0  0  0  0  0  0  0  0  0  0  0
   -2.4279   -8.0340    5.0897 H   0  0  0  0  0  0  0  0  0  0  0  0
   -1.0698   -6.8995    5.0669 H   0  0  0  0  0  0  0  0  0  0  0  0
    1.3974   -5.5157    8.0490 H   0  0  0  0  0  0  0  0  0  0  0  0
    1.6205   -7.2478    8.3400 H   0  0  0  0  0  0  0  0  0  0  0  0
    1.3627   -6.6369    6.6880 H   0  0  0  0  0  0  0  0  0  0  0  0
   -1.2807   -9.5941    3.6246 H   0  0  0  0  0  0  0  0  0  0  0  0
    0.3612   -8.5522    3.5530 H   0  0  0  0  0  0  0  0  0  0  0  0
   -1.2333   -8.2110    1.5287 H   0  0  0  0  0  0  0  0  0  0  0  0
   -2.6401   -7.8758    2.5573 H   0  0  0  0  0  0  0  0  0  0  0  0
   -1.2780   -6.7331    2.4917 H   0  0  0  0  0  0  0  0  0  0  0  0
  1  2  1  0  0  0  0 
  1  3  1  0  0  0  0 
  1  4  1  0  0  0  0 
  5  2  1  0  0  0  0 
  3  6  1  0  0  0  0 
  4  7  1  0  0  0  0 
  5  8  2  0  0  0  0 
  6  9  1  0  0  0  0 
  8 10  1  0  0  0  0 
  8 11  1  0  0  0  0 
  9 12  1  0  0  0  0 
 10 13  1  0  0  0  0 
 13 14  2  0  0  0  0 
 13 15  1  0  0  0  0 
 14 16  1  0  0  0  0 
 16 17  1  0  0  0  0 
 17 18  1  0  0  0  0 
 18 19  1  0  0  0  0 
 19 20  1  0  0  0  0 
 20 21  1  0  0  0  0 
 22 21  1  0  0  0  0 
 22 23  2  0  0  0  0 
 23 24  1  0  0  0  0 
 23 25  1  0  0  0  0 
 24 26  1  0  0  0  0 
 26 27  2  0  0  0  0 
 26 28  1  0  0  0  0 
 27 29  1  0  0  0  0 
 29 30  1  0  0  0  0 
 30 31  1  0  0  0  0 
 30 32  1  0  0  0  0 
 31 33  1  0  0  0  0 
 32 34  1  0  0  0  0 
 33 35  1  0  0  0  0 
 35 36  1  0  0  0  0 
 37  1  1  0  0  0  0 
 38  2  1  0  0  0  0 
 39  2  1  0  0  0  0 
 40  3  1  0  0  0  0 
 41  3  1  0  0  0  0 
 42  4  1  0  0  0  0 
 43  4  1  0  0  0  0 
 44  6  1  0  0  0  0 
 45  6  1  0  0  0  0 
 46  7  1  0  0  0  0 
 47  7  1  0  0  0  0 
 48  7  1  0  0  0  0 
 49  9  1  0  0  0  0 
 50  9  1  0  0  0  0 
 51 10  1  0  0  0  0 
 52 11  1  0  0  0  0 
 53 11  1  0  0  0  0 
 54 12  1  0  0  0  0 
 55 12  1  0  0  0  0 
 56 12  1  0  0  0  0 
 57 15  1  0  0  0  0 
 58 15  1  0  0  0  0 
 59 16  1  0  0  0  0 
 60 16  1  0  0  0  0 
 61 17  1  0  0  0  0 
 62 17  1  0  0  0  0 
 63 18  1  0  0  0  0 
 64 18  1  0  0  0  0 
 65 19  1  0  0  0  0 
 66 19  1  0  0  0  0 
 67 20  1  0  0  0  0 
 68 20  1  0  0  0  0 
 69 21  1  0  0  0  0 
 70 21  1  0  0  0  0 
 71 24  1  0  0  0  0 
 72 25  1  0  0  0  0 
 73 25  1  0  0  0  0 
 74 28  1  0  0  0  0 
 75 28  1  0  0  0  0 
 76 29  1  0  0  0  0 
 77 29  1  0  0  0  0 
 78 30  1  0  0  0  0 
 79 31  1  0  0  0  0 
 80 31  1  0  0  0  0 
 81 32  1  0  0  0  0 
 82 32  1  0  0  0  0 
 83 33  1  0  0  0  0 
 84 33  1  0  0  0  0 
 85 34  1  0  0  0  0 
 86 34  1  0  0  0  0 
 87 34  1  0  0  0  0 
 88 35  1  0  0  0  0 
 89 35  1  0  0  0  0 
 90 36  1  0  0  0  0 
 91 36  1  0  0  0  0 
 92 36  1  0  0  0  0 
M  END
> <cdk:Title>
alexidine

> <Conformer>
1

> <SuperDrugID>
SD000085

$$$$
