fluoroethylcholine (18F)
  CDK     0628171801

 24 23  0  0  0  0  0  0  0  0999 V2000
   -0.6115    2.7905   -0.0652 N   0  0  2  0  0  0  0  0  0  0  0  0
    0.5288    3.2290   -0.9776 C   0  0  1  0  0  0  0  0  0  0  0  0
   -0.6330    3.5259    1.2703 C   0  0  1  0  0  0  0  0  0  0  0  0
   -0.5105    1.3022    0.2029 C   0  0  0  0  0  0  0  0  0  0  0  0
   -1.9175    3.0253   -0.8006 C   0  0  0  0  0  0  0  0  0  0  0  0
    1.9879    3.1043   -0.4572 C   0  0  2  0  0  0  0  0  0  0  0  0
   -0.7266    5.0764    1.2591 C   0  0  1  0  0  0  0  0  0  0  0  0
    2.8637    3.6255   -1.3792 F   0  0  0  0  0  0  0  0  0  0  0  0
   -0.6590    5.5750    2.5898 O   0  0  0  0  0  0  0  0  0  0  0  0
    0.4874    2.6535   -1.9090 H   0  0  0  0  0  0  0  0  0  0  0  0
    0.3852    4.2736   -1.2695 H   0  0  0  0  0  0  0  0  0  0  0  0
   -1.4817    3.1731    1.8666 H   0  0  0  0  0  0  0  0  0  0  0  0
    0.2584    3.2682    1.8501 H   0  0  0  0  0  0  0  0  0  0  0  0
    0.3809    1.0509    0.7842 H   0  0  0  0  0  0  0  0  0  0  0  0
   -1.3705    0.9356    0.7720 H   0  0  0  0  0  0  0  0  0  0  0  0
   -0.4669    0.7248   -0.7265 H   0  0  0  0  0  0  0  0  0  0  0  0
   -2.0383    4.0716   -1.0925 H   0  0  0  0  0  0  0  0  0  0  0  0
   -2.7835    2.7541   -0.1881 H   0  0  0  0  0  0  0  0  0  0  0  0
   -1.9705    2.4356   -1.7207 H   0  0  0  0  0  0  0  0  0  0  0  0
    2.2563    2.0591   -0.3008 H   0  0  0  0  0  0  0  0  0  0  0  0
    2.1223    3.6539    0.4738 H   0  0  0  0  0  0  0  0  0  0  0  0
    0.0980    5.5158    0.6974 H   0  0  0  0  0  0  0  0  0  0  0  0
   -1.6737    5.4063    0.8290 H   0  0  0  0  0  0  0  0  0  0  0  0
   -0.7094    6.5495    2.4911 H   0  0  0  0  0  0  0  0  0  0  0  0
  1  2  1  0  0  0  0 
  1  3  1  0  0  0  0 
  1  4  1  0  0  0  0 
  1  5  1  0  0  0  0 
  2  6  1  0  0  0  0 
  3  7  1  0  0  0  0 
  6  8  1  0  0  0  0 
  7  9  1  0  0  0  0 
  2 10  1  0  0  0  0 
  2 11  1  0  0  0  0 
  3 12  1  0  0  0  0 
  3 13  1  0  0  0  0 
  4 14  1  0  0  0  0 
  4 15  1  0  0  0  0 
  4 16  1  0  0  0  0 
  5 17  1  0  0  0  0 
  5 18  1  0  0  0  0 
  5 19  1  0  0  0  0 
  6 20  1  0  0  0  0 
  6 21  1  0  0  0  0 
  7 22  1  0  0  0  0 
  7 23  1  0  0  0  0 
  9 24  1  0  0  0  0 
M  CHG  1   1   1
M  ISO  1   8  18
M  END
> <cdk:Title>
fluoroethylcholine (18F)

> <Conformer>
1

> <SuperDrugID>
SD003618

$$$$
