ramatroban
  CDK     0628171801

 50 53  0  0  0  0  0  0  0  0999 V2000
    2.8488   -5.0492    6.1353 C   0  0  2  0  0  0  0  0  0  0  0  0
    3.6251   -5.7268    7.2919 C   0  0  1  0  0  0  0  0  0  0  0  0
    3.5840   -3.9279    5.6092 N   0  0  0  0  0  0  0  0  0  0  0  0
    2.9177   -6.8982    7.8394 C   0  0  0  0  0  0  0  0  0  0  0  0
    3.4240   -2.6192    5.9478 C   0  0  0  0  0  0  0  0  0  0  0  0
    4.5814   -3.9986    4.6929 C   0  0  0  0  0  0  0  0  0  0  0  0
    2.7991   -8.0273    7.1063 O   0  0  0  0  0  0  0  0  0  0  0  0
    2.4339   -6.8769    8.9936 O   0  0  0  0  0  0  0  0  0  0  0  0
    4.3179   -1.8329    5.2167 C   0  0  0  0  0  0  0  0  0  0  0  0
    2.4690   -2.0301    6.9181 C   0  0  1  0  0  0  0  0  0  0  0  0
    5.0530   -2.7103    4.4276 C   0  0  0  0  0  0  0  0  0  0  0  0
    5.1492   -5.1090    4.0299 C   0  0  0  0  0  0  0  0  0  0  0  0
    4.4275   -0.3594    5.3174 C   0  0  1  0  0  0  0  0  0  0  0  0
    2.8860   -0.6030    7.3747 C   0  0  2  0  0  0  0  0  0  0  0  0
    6.0891   -2.4814    3.5021 C   0  0  0  0  0  0  0  0  0  0  0  0
    6.1833   -4.8948    3.0949 C   0  0  0  0  0  0  0  0  0  0  0  0
    3.3125    0.3136    6.1897 C   0  0  1  0  0  0  0  0  0  0  0  0
    6.6503   -3.5886    2.8315 C   0  0  0  0  0  0  0  0  0  0  0  0
    3.7395    1.6109    6.7717 N   0  0  1  0  0  0  0  0  0  0  0  0
    4.0071    2.9330    5.6316 S   0  0  1  0  0  0  0  0  0  0  0  0
    5.1070    2.5081    4.5441 O   0  0  0  0  0  0  0  0  0  0  0  0
    2.6347    3.2574    4.8676 O   0  0  0  0  0  0  0  0  0  0  0  0
    4.5929    4.3795    6.4715 C   0  0  0  0  0  0  0  0  0  0  0  0
    4.4818    5.6396    5.8461 C   0  0  0  0  0  0  0  0  0  0  0  0
    5.2096    4.2882    7.7374 C   0  0  0  0  0  0  0  0  0  0  0  0
    5.0034    6.7899    6.4660 C   0  0  0  0  0  0  0  0  0  0  0  0
    5.7303    5.4397    8.3581 C   0  0  0  0  0  0  0  0  0  0  0  0
    5.6345    6.6903    7.7196 C   0  0  0  0  0  0  0  0  0  0  0  0
    6.1335    7.7559    8.2844 F   0  0  0  0  0  0  0  0  0  0  0  0
    1.8722   -4.7251    6.5040 H   0  0  0  0  0  0  0  0  0  0  0  0
    2.6558   -5.7726    5.3372 H   0  0  0  0  0  0  0  0  0  0  0  0
    4.6055   -6.0546    6.9405 H   0  0  0  0  0  0  0  0  0  0  0  0
    3.7818   -4.9916    8.0856 H   0  0  0  0  0  0  0  0  0  0  0  0
    2.3479   -8.8105    7.4839 H   0  0  0  0  0  0  0  0  0  0  0  0
    1.4853   -1.9958    6.4430 H   0  0  0  0  0  0  0  0  0  0  0  0
    2.4003   -2.6683    7.8028 H   0  0  0  0  0  0  0  0  0  0  0  0
    4.8199   -6.0575    4.2141 H   0  0  0  0  0  0  0  0  0  0  0  0
    5.4101   -0.1276    5.7324 H   0  0  0  0  0  0  0  0  0  0  0  0
    4.3754    0.0473    4.3060 H   0  0  0  0  0  0  0  0  0  0  0  0
    3.7173   -0.6872    8.0818 H   0  0  0  0  0  0  0  0  0  0  0  0
    2.0458   -0.1487    7.9072 H   0  0  0  0  0  0  0  0  0  0  0  0
    6.4297   -1.5357    3.3134 H   0  0  0  0  0  0  0  0  0  0  0  0
    6.5958   -5.6917    2.6045 H   0  0  0  0  0  0  0  0  0  0  0  0
    2.4263    0.4816    5.5692 H   0  0  0  0  0  0  0  0  0  0  0  0
    7.3998   -3.4461    2.1496 H   0  0  0  0  0  0  0  0  0  0  0  0
    2.9824    1.9232    7.3859 H   0  0  0  0  0  0  0  0  0  0  0  0
    4.0337    5.7261    4.9301 H   0  0  0  0  0  0  0  0  0  0  0  0
    5.2969    3.3854    8.2094 H   0  0  0  0  0  0  0  0  0  0  0  0
    4.9322    7.6961    5.9969 H   0  0  0  0  0  0  0  0  0  0  0  0
    6.1889    5.3642    9.2689 H   0  0  0  0  0  0  0  0  0  0  0  0
  1  2  1  0  0  0  0 
  1  3  1  0  0  0  0 
  2  4  1  0  0  0  0 
  3  5  1  0  0  0  0 
  3  6  1  0  0  0  0 
  4  7  1  0  0  0  0 
  4  8  2  0  0  0  0 
  5  9  2  0  0  0  0 
  5 10  1  0  0  0  0 
  6 11  1  0  0  0  0 
  6 12  2  0  0  0  0 
  9 11  1  0  0  0  0 
  9 13  1  0  0  0  0 
 10 14  1  0  0  0  0 
 11 15  2  0  0  0  0 
 12 16  1  0  0  0  0 
 17 13  1  0  0  0  0 
 17 14  1  0  0  0  0 
 15 18  1  0  0  0  0 
 16 18  2  0  0  0  0 
 17 19  1  0  0  0  0 
 19 20  1  0  0  0  0 
 20 21  2  0  0  0  0 
 20 22  2  0  0  0  0 
 20 23  1  0  0  0  0 
 23 24  2  0  0  0  0 
 23 25  1  0  0  0  0 
 24 26  1  0  0  0  0 
 25 27  2  0  0  0  0 
 26 28  2  0  0  0  0 
 27 28  1  0  0  0  0 
 28 29  1  0  0  0  0 
  1 30  1  0  0  0  0 
  1 31  1  0  0  0  0 
  2 32  1  0  0  0  0 
  2 33  1  0  0  0  0 
  7 34  1  0  0  0  0 
 10 35  1  0  0  0  0 
 10 36  1  0  0  0  0 
 12 37  1  0  0  0  0 
 13 38  1  0  0  0  0 
 13 39  1  0  0  0  0 
 14 40  1  0  0  0  0 
 14 41  1  0  0  0  0 
 15 42  1  0  0  0  0 
 16 43  1  0  0  0  0 
 17 44  1  0  0  0  0 
 18 45  1  0  0  0  0 
 19 46  1  0  0  0  0 
 24 47  1  0  0  0  0 
 25 48  1  0  0  0  0 
 26 49  1  0  0  0  0 
 27 50  1  0  0  0  0 
M  END
> <cdk:Title>
ramatroban

> <Conformer>
1

> <SuperDrugID>
SD002117

$$$$
