clomethiazole
  CDK     0628171802

 17 17  0  0  0  0  0  0  0  0999 V2000
    0.4423    3.5091    1.1826 C   0  0  0  0  0  0  0  0  0  0  0  0
   -0.0349    3.2920   -0.1969 C   0  0  0  0  0  0  0  0  0  0  0  0
   -0.4400    2.0408   -0.7088 C   0  0  0  0  0  0  0  0  0  0  0  0
   -0.5395    0.7302   -0.0304 C   0  0  1  0  0  0  0  0  0  0  0  0
    0.4227   -0.3422   -0.5937 C   0  0  1  0  0  0  0  0  0  0  0  0
    2.1174    0.0786   -0.3507 Cl  0  0  0  0  0  0  0  0  0  0  0  0
   -0.9002    2.3530   -2.3743 S   0  0  0  0  0  0  0  0  0  0  0  0
   -0.5747    4.0724   -2.3063 C   0  0  0  0  0  0  0  0  0  0  0  0
   -0.1190    4.3397   -1.0662 N   0  0  0  0  0  0  0  0  0  0  0  0
   -0.3487    3.2600    1.8895 H   0  0  0  0  0  0  0  0  0  0  0  0
    0.7264    4.5505    1.3412 H   0  0  0  0  0  0  0  0  0  0  0  0
    1.3126    2.8828    1.3824 H   0  0  0  0  0  0  0  0  0  0  0  0
   -0.3479    0.8390    1.0381 H   0  0  0  0  0  0  0  0  0  0  0  0
   -1.5665    0.3756   -0.1435 H   0  0  0  0  0  0  0  0  0  0  0  0
    0.2386   -1.2899   -0.0809 H   0  0  0  0  0  0  0  0  0  0  0  0
    0.2433   -0.4928   -1.6615 H   0  0  0  0  0  0  0  0  0  0  0  0
   -0.7094    4.7457   -3.0586 H   0  0  0  0  0  0  0  0  0  0  0  0
  1  2  1  0  0  0  0 
  2  3  2  0  0  0  0 
  3  4  1  0  0  0  0 
  4  5  1  0  0  0  0 
  5  6  1  0  0  0  0 
  3  7  1  0  0  0  0 
  7  8  1  0  0  0  0 
  8  9  2  0  0  0  0 
  2  9  1  0  0  0  0 
  1 10  1  0  0  0  0 
  1 11  1  0  0  0  0 
  1 12  1  0  0  0  0 
  4 13  1  0  0  0  0 
  4 14  1  0  0  0  0 
  5 15  1  0  0  0  0 
  5 16  1  0  0  0  0 
  8 17  1  0  0  0  0 
M  END
> <cdk:Title>
clomethiazole

> <Conformer>
1

> <SuperDrugID>
SD000524

$$$$
