vidarabine
  CDK     0628171801

 32 34  0  0  0  0  0  0  0  0999 V2000
    5.6726   -2.3971   -2.2554 O   0  0  0  0  0  0  0  0  0  0  0  0
    4.4247   -1.8704   -1.8059 C   0  0  2  0  0  0  0  0  0  0  0  0
    4.3667   -1.5443   -0.2923 C   0  0  2  0  0  0  0  0  0  0  0  0
    3.2777   -2.8707   -1.9799 C   0  0  2  0  0  0  0  0  0  0  0  0
    5.3391   -2.2489    0.5038 N   0  0  0  0  0  0  0  0  0  0  0  0
    3.0382   -1.8537    0.1672 O   0  0  0  0  0  0  0  0  0  0  0  0
    2.7417   -2.8558   -3.3017 O   0  0  0  0  0  0  0  0  0  0  0  0
    2.2688   -2.3768   -0.9234 C   0  0  2  0  0  0  0  0  0  0  0  0
    6.5922   -1.8454    0.7746 C   0  0  0  0  0  0  0  0  0  0  0  0
    5.1868   -3.4318    1.1461 C   0  0  0  0  0  0  0  0  0  0  0  0
    1.3116   -3.4799   -0.4199 C   0  0  2  0  0  0  0  0  0  0  0  0
    7.1771   -2.8029    1.5950 C   0  0  0  0  0  0  0  0  0  0  0  0
    7.2771   -0.7401    0.3855 N   0  0  0  0  0  0  0  0  0  0  0  0
    6.2976   -3.7872    1.8194 N   0  0  0  0  0  0  0  0  0  0  0  0
    0.4422   -2.9577    0.5791 O   0  0  0  0  0  0  0  0  0  0  0  0
    8.5002   -2.6105    2.0280 C   0  0  0  0  0  0  0  0  0  0  0  0
    8.5606   -0.5629    0.8037 C   0  0  0  0  0  0  0  0  0  0  0  0
    9.1197   -3.4968    2.8275 N   0  0  0  0  0  0  0  0  0  0  0  0
    9.1520   -1.4873    1.6137 N   0  0  0  0  0  0  0  0  0  0  0  0
    5.5446   -2.5762   -3.2129 H   0  0  0  0  0  0  0  0  0  0  0  0
    4.2081   -0.9630   -2.3798 H   0  0  0  0  0  0  0  0  0  0  0  0
    4.5098   -0.4675   -0.1522 H   0  0  0  0  0  0  0  0  0  0  0  0
    3.6261   -3.8812   -1.7437 H   0  0  0  0  0  0  0  0  0  0  0  0
    2.0202   -3.5189   -3.2908 H   0  0  0  0  0  0  0  0  0  0  0  0
    1.6752   -1.5558   -1.3373 H   0  0  0  0  0  0  0  0  0  0  0  0
    4.3383   -3.9994    1.1373 H   0  0  0  0  0  0  0  0  0  0  0  0
    1.8826   -4.3059    0.0093 H   0  0  0  0  0  0  0  0  0  0  0  0
    0.7105   -3.8590   -1.2483 H   0  0  0  0  0  0  0  0  0  0  0  0
   -0.0817   -3.7255    0.8892 H   0  0  0  0  0  0  0  0  0  0  0  0
    9.0819    0.2612    0.5050 H   0  0  0  0  0  0  0  0  0  0  0  0
    8.6503   -4.2900    3.1322 H   0  0  0  0  0  0  0  0  0  0  0  0
   10.0383   -3.3422    3.1040 H   0  0  0  0  0  0  0  0  0  0  0  0
  2  1  1  0  0  0  0 
  2  3  1  0  0  0  0 
  4  2  1  0  0  0  0 
  3  5  1  0  0  0  0 
  3  6  1  0  0  0  0 
  4  7  1  0  0  0  0 
  8  4  1  0  0  0  0 
  5  9  1  0  0  0  0 
  5 10  1  0  0  0  0 
  8  6  1  0  0  0  0 
  8 11  1  0  0  0  0 
  9 12  1  0  0  0  0 
  9 13  2  0  0  0  0 
 10 14  2  0  0  0  0 
 11 15  1  0  0  0  0 
 12 14  1  0  0  0  0 
 12 16  2  0  0  0  0 
 13 17  1  0  0  0  0 
 16 18  1  0  0  0  0 
 16 19  1  0  0  0  0 
 17 19  2  0  0  0  0 
  1 20  1  0  0  0  0 
  2 21  1  0  0  0  0 
  3 22  1  0  0  0  0 
  4 23  1  0  0  0  0 
  7 24  1  0  0  0  0 
  8 25  1  0  0  0  0 
 10 26  1  0  0  0  0 
 11 27  1  0  0  0  0 
 11 28  1  0  0  0  0 
 15 29  1  0  0  0  0 
 17 30  1  0  0  0  0 
 18 31  1  0  0  0  0 
 18 32  1  0  0  0  0 
M  END
> <cdk:Title>
vidarabine

> <Conformer>
1

> <SuperDrugID>
SD002542

$$$$
