sulmarin
  CDK     0628171801

 30 31  0  0  0  0  0  0  0  0999 V2000
    3.0988   -0.8825   -1.8241 C   0  0  0  0  0  0  0  0  0  0  0  0
    2.4675   -1.5229   -3.0083 C   0  0  0  0  0  0  0  0  0  0  0  0
    3.2146   -1.8363   -4.1807 C   0  0  0  0  0  0  0  0  0  0  0  0
    1.0843   -1.8176   -2.9628 C   0  0  0  0  0  0  0  0  0  0  0  0
    2.5258   -2.4304   -5.2736 C   0  0  0  0  0  0  0  0  0  0  0  0
    4.6033   -1.5884   -4.3274 C   0  0  0  0  0  0  0  0  0  0  0  0
    0.4623   -2.4248   -4.0626 C   0  0  0  0  0  0  0  0  0  0  0  0
    3.1989   -2.7465   -6.4667 C   0  0  0  0  0  0  0  0  0  0  0  0
    1.1931   -2.7041   -5.1760 O   0  0  0  0  0  0  0  0  0  0  0  0
    5.2810   -1.9061   -5.5218 C   0  0  0  0  0  0  0  0  0  0  0  0
   -0.7548   -2.7112   -4.0299 O   0  0  0  0  0  0  0  0  0  0  0  0
    4.5775   -2.4956   -6.5922 C   0  0  0  0  0  0  0  0  0  0  0  0
    6.6181   -1.6689   -5.6387 O   0  0  0  0  0  0  0  0  0  0  0  0
    5.2264   -2.8073   -7.7461 O   0  0  0  0  0  0  0  0  0  0  0  0
    6.9182   -0.0462   -6.1148 S   0  0  1  0  0  0  0  0  0  0  0  0
    5.7337   -4.4474   -7.7309 S   0  0  1  0  0  0  0  0  0  0  0  0
    8.1356   -0.0330   -7.1538 O   0  0  0  0  0  0  0  0  0  0  0  0
    5.6357    0.6460   -6.7781 O   0  0  0  0  0  0  0  0  0  0  0  0
    7.3673    0.8300   -4.7209 O   0  0  0  0  0  0  0  0  0  0  0  0
    4.7919   -5.2853   -8.7166 O   0  0  0  0  0  0  0  0  0  0  0  0
    7.2502   -4.5080   -8.2369 O   0  0  0  0  0  0  0  0  0  0  0  0
    5.6470   -5.1343   -6.1679 O   0  0  0  0  0  0  0  0  0  0  0  0
    3.8683   -1.5427   -1.4165 H   0  0  0  0  0  0  0  0  0  0  0  0
    2.3803   -0.6719   -1.0263 H   0  0  0  0  0  0  0  0  0  0  0  0
    3.5519    0.0659   -2.1234 H   0  0  0  0  0  0  0  0  0  0  0  0
    0.5249   -1.5925   -2.1349 H   0  0  0  0  0  0  0  0  0  0  0  0
    5.1471   -1.1694   -3.5705 H   0  0  0  0  0  0  0  0  0  0  0  0
    2.6863   -3.1625   -7.2466 H   0  0  0  0  0  0  0  0  0  0  0  0
    7.8997    0.1986   -4.1938 H   0  0  0  0  0  0  0  0  0  0  0  0
    5.0345   -5.8951   -6.2629 H   0  0  0  0  0  0  0  0  0  0  0  0
  1  2  1  0  0  0  0 
  2  3  1  0  0  0  0 
  2  4  2  0  0  0  0 
  3  5  1  0  0  0  0 
  3  6  2  0  0  0  0 
  4  7  1  0  0  0  0 
  5  8  2  0  0  0  0 
  5  9  1  0  0  0  0 
  6 10  1  0  0  0  0 
  7  9  1  0  0  0  0 
  7 11  2  0  0  0  0 
  8 12  1  0  0  0  0 
 10 12  2  0  0  0  0 
 10 13  1  0  0  0  0 
 12 14  1  0  0  0  0 
 13 15  1  0  0  0  0 
 14 16  1  0  0  0  0 
 15 17  2  0  0  0  0 
 15 18  2  0  0  0  0 
 15 19  1  0  0  0  0 
 16 20  2  0  0  0  0 
 16 21  2  0  0  0  0 
 16 22  1  0  0  0  0 
  1 23  1  0  0  0  0 
  1 24  1  0  0  0  0 
  1 25  1  0  0  0  0 
  4 26  1  0  0  0  0 
  6 27  1  0  0  0  0 
  8 28  1  0  0  0  0 
 19 29  1  0  0  0  0 
 22 30  1  0  0  0  0 
M  END
> <cdk:Title>
sulmarin

> <Conformer>
1

> <SuperDrugID>
SD003071

$$$$
