noxiptiline
  CDK     0628171801

 44 46  0  0  0  0  0  0  0  0999 V2000
    0.0771    0.3247   -0.9557 N   0  0  0  0  0  0  0  0  0  0  0  0
   -0.4288    1.5023   -1.0015 O   0  0  0  0  0  0  0  0  0  0  0  0
    1.2606    0.0054   -1.3575 C   0  0  0  0  0  0  0  0  0  0  0  0
   -1.4609    1.6762   -0.0236 C   0  0  2  0  0  0  0  0  0  0  0  0
    2.1208    0.9928   -1.8344 C   0  0  0  0  0  0  0  0  0  0  0  0
    1.6614   -1.3336   -1.2920 C   0  0  0  0  0  0  0  0  0  0  0  0
   -2.0765    3.0888   -0.1824 C   0  0  1  0  0  0  0  0  0  0  0  0
    2.5576    1.0028   -3.1844 C   0  0  0  0  0  0  0  0  0  0  0  0
    2.5280    2.0305   -0.9624 C   0  0  0  0  0  0  0  0  0  0  0  0
    2.3837   -2.0083   -2.3307 C   0  0  0  0  0  0  0  0  0  0  0  0
    1.3495   -2.0554   -0.1065 C   0  0  0  0  0  0  0  0  0  0  0  0
   -1.0890    4.2225   -0.1396 N   0  0  2  0  0  0  0  0  0  0  0  0
    2.1498   -0.0871   -4.1070 C   0  0  2  0  0  0  0  0  0  0  0  0
    3.3746    2.0640   -3.6398 C   0  0  0  0  0  0  0  0  0  0  0  0
    3.3274    3.0850   -1.4318 C   0  0  0  0  0  0  0  0  0  0  0  0
    2.7476   -1.4454   -3.6702 C   0  0  1  0  0  0  0  0  0  0  0  0
    2.8060   -3.3449   -2.1088 C   0  0  0  0  0  0  0  0  0  0  0  0
    1.7468   -3.3899    0.0707 C   0  0  0  0  0  0  0  0  0  0  0  0
   -0.3496    4.3672    1.1528 C   0  0  0  0  0  0  0  0  0  0  0  0
   -1.6988    5.5232   -0.5542 C   0  0  0  0  0  0  0  0  0  0  0  0
    3.7438    3.1062   -2.7724 C   0  0  0  0  0  0  0  0  0  0  0  0
    2.4857   -4.0336   -0.9286 C   0  0  0  0  0  0  0  0  0  0  0  0
   -1.0569    1.5709    0.9858 H   0  0  0  0  0  0  0  0  0  0  0  0
   -2.2463    0.9250   -0.1573 H   0  0  0  0  0  0  0  0  0  0  0  0
   -2.5843    3.0928   -1.1522 H   0  0  0  0  0  0  0  0  0  0  0  0
   -2.8429    3.2276    0.5857 H   0  0  0  0  0  0  0  0  0  0  0  0
    2.2359    2.0342    0.0195 H   0  0  0  0  0  0  0  0  0  0  0  0
    0.8323   -1.6118    0.6609 H   0  0  0  0  0  0  0  0  0  0  0  0
    2.4862    0.1147   -5.1282 H   0  0  0  0  0  0  0  0  0  0  0  0
    1.0589   -0.1511   -4.1409 H   0  0  0  0  0  0  0  0  0  0  0  0
    3.7013    2.0880   -4.6098 H   0  0  0  0  0  0  0  0  0  0  0  0
    3.6070    3.8362   -0.7990 H   0  0  0  0  0  0  0  0  0  0  0  0
    3.8375   -1.3665   -3.7130 H   0  0  0  0  0  0  0  0  0  0  0  0
    2.4465   -2.1664   -4.4373 H   0  0  0  0  0  0  0  0  0  0  0  0
    3.3550   -3.8426   -2.8164 H   0  0  0  0  0  0  0  0  0  0  0  0
    1.5025   -3.8891    0.9293 H   0  0  0  0  0  0  0  0  0  0  0  0
    0.2331    3.4728    1.3726 H   0  0  0  0  0  0  0  0  0  0  0  0
    0.3604    5.1959    1.1014 H   0  0  0  0  0  0  0  0  0  0  0  0
   -1.0358    4.5527    1.9836 H   0  0  0  0  0  0  0  0  0  0  0  0
   -2.2015    5.4307   -1.5194 H   0  0  0  0  0  0  0  0  0  0  0  0
   -0.9265    6.2880   -0.6681 H   0  0  0  0  0  0  0  0  0  0  0  0
   -2.4259    5.8697    0.1856 H   0  0  0  0  0  0  0  0  0  0  0  0
    4.3128    3.8790   -3.1196 H   0  0  0  0  0  0  0  0  0  0  0  0
    2.7877   -5.0028   -0.7982 H   0  0  0  0  0  0  0  0  0  0  0  0
  1  2  1  0  0  0  0 
  1  3  2  0  0  0  0 
  2  4  1  0  0  0  0 
  3  5  1  0  0  0  0 
  3  6  1  0  0  0  0 
  4  7  1  0  0  0  0 
  5  8  2  0  0  0  0 
  5  9  1  0  0  0  0 
  6 10  2  0  0  0  0 
  6 11  1  0  0  0  0 
  7 12  1  0  0  0  0 
  8 13  1  0  0  0  0 
  8 14  1  0  0  0  0 
  9 15  2  0  0  0  0 
 10 16  1  0  0  0  0 
 10 17  1  0  0  0  0 
 11 18  2  0  0  0  0 
 12 19  1  0  0  0  0 
 12 20  1  0  0  0  0 
 13 16  1  0  0  0  0 
 14 21  2  0  0  0  0 
 15 21  1  0  0  0  0 
 17 22  2  0  0  0  0 
 18 22  1  0  0  0  0 
  4 23  1  0  0  0  0 
  4 24  1  0  0  0  0 
  7 25  1  0  0  0  0 
  7 26  1  0  0  0  0 
  9 27  1  0  0  0  0 
 11 28  1  0  0  0  0 
 13 29  1  0  0  0  0 
 13 30  1  0  0  0  0 
 14 31  1  0  0  0  0 
 15 32  1  0  0  0  0 
 16 33  1  0  0  0  0 
 16 34  1  0  0  0  0 
 17 35  1  0  0  0  0 
 18 36  1  0  0  0  0 
 19 37  1  0  0  0  0 
 19 38  1  0  0  0  0 
 19 39  1  0  0  0  0 
 20 40  1  0  0  0  0 
 20 41  1  0  0  0  0 
 20 42  1  0  0  0  0 
 21 43  1  0  0  0  0 
 22 44  1  0  0  0  0 
M  END
> <cdk:Title>
noxiptiline

> <Conformer>
1

> <SuperDrugID>
SD001766

$$$$
