dacarbazine
  CDK     0628171802

 23 23  0  0  0  0  0  0  0  0999 V2000
    3.0207   -5.2401   -1.5374 C   0  0  0  0  0  0  0  0  0  0  0  0
    2.8373   -4.5512   -0.2338 N   0  0  2  0  0  0  0  0  0  0  0  0
    3.2724   -5.3601    0.9339 C   0  0  0  0  0  0  0  0  0  0  0  0
    1.5885   -4.1437   -0.0865 N   0  0  0  0  0  0  0  0  0  0  0  0
    1.3458   -2.9447   -0.0625 N   0  0  0  0  0  0  0  0  0  0  0  0
    0.1431   -2.4220    0.0770 C   0  0  0  0  0  0  0  0  0  0  0  0
   -0.1543   -1.0560    0.0666 C   0  0  0  0  0  0  0  0  0  0  0  0
   -1.4813   -0.9669    0.2361 N   0  0  0  0  0  0  0  0  0  0  0  0
   -1.9875   -2.2008    0.3475 C   0  0  0  0  0  0  0  0  0  0  0  0
   -1.0036   -3.1071    0.2502 N   0  0  0  0  0  0  0  0  0  0  0  0
    0.7191    0.0418   -0.0919 C   0  0  0  0  0  0  0  0  0  0  0  0
    0.2549    1.3041   -0.0686 N   0  0  0  0  0  0  0  0  0  0  0  0
    1.9482   -0.1218   -0.2615 O   0  0  0  0  0  0  0  0  0  0  0  0
    2.4460   -6.1697   -1.5878 H   0  0  0  0  0  0  0  0  0  0  0  0
    2.7054   -4.5870   -2.3563 H   0  0  0  0  0  0  0  0  0  0  0  0
    4.0754   -5.4719   -1.6924 H   0  0  0  0  0  0  0  0  0  0  0  0
    2.7009   -6.2898    1.0183 H   0  0  0  0  0  0  0  0  0  0  0  0
    3.1454   -4.7840    1.8559 H   0  0  0  0  0  0  0  0  0  0  0  0
    4.3333   -5.6059    0.8407 H   0  0  0  0  0  0  0  0  0  0  0  0
   -1.9927   -0.1445    0.2727 H   0  0  0  0  0  0  0  0  0  0  0  0
   -2.9740   -2.4194    0.4869 H   0  0  0  0  0  0  0  0  0  0  0  0
    0.8643    2.0487   -0.1825 H   0  0  0  0  0  0  0  0  0  0  0  0
   -0.6891    1.4749    0.0638 H   0  0  0  0  0  0  0  0  0  0  0  0
  1  2  1  0  0  0  0 
  2  3  1  0  0  0  0 
  4  2  1  0  0  0  0 
  4  5  2  0  0  0  0 
  5  6  1  0  0  0  0 
  6  7  2  0  0  0  0 
  7  8  1  0  0  0  0 
  8  9  1  0  0  0  0 
  9 10  2  0  0  0  0 
  6 10  1  0  0  0  0 
  7 11  1  0  0  0  0 
 11 12  1  0  0  0  0 
 11 13  2  0  0  0  0 
 14  1  1  0  0  0  0 
 15  1  1  0  0  0  0 
 16  1  1  0  0  0  0 
 17  3  1  0  0  0  0 
 18  3  1  0  0  0  0 
 19  3  1  0  0  0  0 
 20  8  1  0  0  0  0 
 21  9  1  0  0  0  0 
 22 12  1  0  0  0  0 
 23 12  1  0  0  0  0 
M  END
> <cdk:Title>
dacarbazine

> <Conformer>
1

> <SuperDrugID>
SD000681

$$$$
