phenylpropanolamine
  CDK     0628171801

 24 24  0  0  0  0  0  0  0  0999 V2000
    2.6715   -2.0330   -0.8733 C   0  0  0  0  0  0  0  0  0  0  0  0
    1.3671   -1.5161   -1.5371 C   0  0  1  0  0  0  0  0  0  0  0  0
    0.8223   -2.5899   -2.3861 N   0  0  2  0  0  0  0  0  0  0  0  0
    0.2914   -1.0651   -0.4999 C   0  0  2  0  0  0  0  0  0  0  0  0
   -0.9384   -0.7318   -1.1465 O   0  0  0  0  0  0  0  0  0  0  0  0
    0.7212    0.0902    0.3414 C   0  0  0  0  0  0  0  0  0  0  0  0
    1.1433   -0.1100    1.6789 C   0  0  0  0  0  0  0  0  0  0  0  0
    1.5151    0.9776    2.4909 C   0  0  0  0  0  0  0  0  0  0  0  0
    1.4671    2.2855    1.9784 C   0  0  0  0  0  0  0  0  0  0  0  0
    1.0714    2.5044    0.6475 C   0  0  0  0  0  0  0  0  0  0  0  0
    0.7137    1.4123   -0.1678 C   0  0  0  0  0  0  0  0  0  0  0  0
    3.3422   -2.4570   -1.6246 H   0  0  0  0  0  0  0  0  0  0  0  0
    3.1965   -1.2144   -0.3757 H   0  0  0  0  0  0  0  0  0  0  0  0
    2.4448   -2.8065   -0.1354 H   0  0  0  0  0  0  0  0  0  0  0  0
    1.6160   -0.6794   -2.1954 H   0  0  0  0  0  0  0  0  0  0  0  0
    1.5639   -2.8829   -3.0254 H   0  0  0  0  0  0  0  0  0  0  0  0
    0.0888   -2.1735   -2.9632 H   0  0  0  0  0  0  0  0  0  0  0  0
    0.0583   -1.9217    0.1400 H   0  0  0  0  0  0  0  0  0  0  0  0
   -1.2322   -1.5626   -1.5743 H   0  0  0  0  0  0  0  0  0  0  0  0
    1.1889   -1.0542    2.0668 H   0  0  0  0  0  0  0  0  0  0  0  0
    1.8174    0.8190    3.4553 H   0  0  0  0  0  0  0  0  0  0  0  0
    1.7219    3.0778    2.5700 H   0  0  0  0  0  0  0  0  0  0  0  0
    1.0471    3.4564    0.2746 H   0  0  0  0  0  0  0  0  0  0  0  0
    0.4348    1.5887   -1.1343 H   0  0  0  0  0  0  0  0  0  0  0  0
  2  1  1  0  0  0  0 
  2  3  1  0  0  0  0 
  4  2  1  0  0  0  0 
  4  5  1  0  0  0  0 
  4  6  1  0  0  0  0 
  6  7  2  0  0  0  0 
  7  8  1  0  0  0  0 
  8  9  2  0  0  0  0 
  9 10  1  0  0  0  0 
 10 11  2  0  0  0  0 
  6 11  1  0  0  0  0 
  1 12  1  0  0  0  0 
  1 13  1  0  0  0  0 
  1 14  1  0  0  0  0 
  2 15  1  0  0  0  0 
  3 16  1  0  0  0  0 
  3 17  1  0  0  0  0 
  4 18  1  0  0  0  0 
  5 19  1  0  0  0  0 
  7 20  1  0  0  0  0 
  8 21  1  0  0  0  0 
  9 22  1  0  0  0  0 
 10 23  1  0  0  0  0 
 11 24  1  0  0  0  0 
M  END
> <cdk:Title>
phenylpropanolamine

> <Conformer>
1

> <SuperDrugID>
SD001928

$$$$
