cyclovalone
  CDK     0628171802

 49 51  0  0  0  0  0  0  0  0999 V2000
    3.9460   -0.0309   -2.3291 C   0  0  0  0  0  0  0  0  0  0  0  0
    4.1574   -1.1570   -3.0635 C   0  0  0  0  0  0  0  0  0  0  0  0
    2.7814    0.3932   -1.6845 C   0  0  0  0  0  0  0  0  0  0  0  0
    5.4204   -1.4109   -3.6699 C   0  0  0  0  0  0  0  0  0  0  0  0
    3.0878   -2.1481   -3.2556 C   0  0  1  0  0  0  0  0  0  0  0  0
    2.0313   -0.4308   -0.8094 C   0  0  0  0  0  0  0  0  0  0  0  0
    2.3493    1.7275   -1.8795 C   0  0  0  0  0  0  0  0  0  0  0  0
    6.2800   -0.4910   -3.6561 O   0  0  0  0  0  0  0  0  0  0  0  0
    5.7594   -2.6375   -4.3093 C   0  0  0  0  0  0  0  0  0  0  0  0
    3.2709   -3.0428   -4.5027 C   0  0  1  0  0  0  0  0  0  0  0  0
    0.8407    0.0336   -0.2082 C   0  0  0  0  0  0  0  0  0  0  0  0
    1.1745    2.2029   -1.2710 C   0  0  0  0  0  0  0  0  0  0  0  0
    7.0332   -2.8847   -4.7130 C   0  0  0  0  0  0  0  0  0  0  0  0
    4.6972   -3.6338   -4.5287 C   0  0  1  0  0  0  0  0  0  0  0  0
    0.1374   -0.7808    0.6430 O   0  0  0  0  0  0  0  0  0  0  0  0
    0.4097    1.3579   -0.4470 C   0  0  0  0  0  0  0  0  0  0  0  0
    7.5364   -4.0125   -5.3610 C   0  0  0  0  0  0  0  0  0  0  0  0
   -0.8329   -1.6099   -0.0213 C   0  0  0  0  0  0  0  0  0  0  0  0
   -0.7259    1.8541    0.1102 O   0  0  0  0  0  0  0  0  0  0  0  0
    7.3376   -5.3307   -4.8807 C   0  0  0  0  0  0  0  0  0  0  0  0
    8.3128   -3.8311   -6.5314 C   0  0  0  0  0  0  0  0  0  0  0  0
    7.8321   -6.4448   -5.5923 C   0  0  0  0  0  0  0  0  0  0  0  0
    8.8376   -4.9355   -7.2249 C   0  0  0  0  0  0  0  0  0  0  0  0
    7.6055   -7.7166   -5.1319 O   0  0  0  0  0  0  0  0  0  0  0  0
    8.5964   -6.2408   -6.7618 C   0  0  0  0  0  0  0  0  0  0  0  0
    6.3537   -8.2671   -5.5838 C   0  0  0  0  0  0  0  0  0  0  0  0
    9.1210   -7.2796   -7.4617 O   0  0  0  0  0  0  0  0  0  0  0  0
    4.6965    0.6153   -2.2418 H   0  0  0  0  0  0  0  0  0  0  0  0
    3.0557   -2.7947   -2.3740 H   0  0  0  0  0  0  0  0  0  0  0  0
    2.1173   -1.6593   -3.3655 H   0  0  0  0  0  0  0  0  0  0  0  0
    2.3531   -1.3752   -0.5895 H   0  0  0  0  0  0  0  0  0  0  0  0
    2.8865    2.3693   -2.4714 H   0  0  0  0  0  0  0  0  0  0  0  0
    2.5393   -3.8580   -4.4856 H   0  0  0  0  0  0  0  0  0  0  0  0
    3.1035   -2.4513   -5.4096 H   0  0  0  0  0  0  0  0  0  0  0  0
    0.8787    3.1694   -1.4296 H   0  0  0  0  0  0  0  0  0  0  0  0
    7.7167   -2.1774   -4.5657 H   0  0  0  0  0  0  0  0  0  0  0  0
    4.8134   -4.1269   -5.4987 H   0  0  0  0  0  0  0  0  0  0  0  0
    4.7624   -4.3956   -3.7463 H   0  0  0  0  0  0  0  0  0  0  0  0
   -1.4055   -2.1469    0.7364 H   0  0  0  0  0  0  0  0  0  0  0  0
   -1.5337   -1.0151   -0.6118 H   0  0  0  0  0  0  0  0  0  0  0  0
   -0.3439   -2.3462   -0.6630 H   0  0  0  0  0  0  0  0  0  0  0  0
   -1.0771    1.1525    0.6964 H   0  0  0  0  0  0  0  0  0  0  0  0
    6.8334   -5.4984   -4.0065 H   0  0  0  0  0  0  0  0  0  0  0  0
    8.4981   -2.8903   -6.8936 H   0  0  0  0  0  0  0  0  0  0  0  0
    9.4001   -4.7870   -8.0671 H   0  0  0  0  0  0  0  0  0  0  0  0
    6.3086   -9.3115   -5.2760 H   0  0  0  0  0  0  0  0  0  0  0  0
    5.5066   -7.7459   -5.1326 H   0  0  0  0  0  0  0  0  0  0  0  0
    6.2636   -8.2346   -6.6725 H   0  0  0  0  0  0  0  0  0  0  0  0
    8.9003   -8.0888   -6.9554 H   0  0  0  0  0  0  0  0  0  0  0  0
  1  2  2  0  0  0  0 
  1  3  1  0  0  0  0 
  2  4  1  0  0  0  0 
  2  5  1  0  0  0  0 
  3  6  2  0  0  0  0 
  3  7  1  0  0  0  0 
  4  8  2  0  0  0  0 
  4  9  1  0  0  0  0 
  5 10  1  0  0  0  0 
  6 11  1  0  0  0  0 
  7 12  2  0  0  0  0 
  9 13  2  0  0  0  0 
  9 14  1  0  0  0  0 
 10 14  1  0  0  0  0 
 11 15  1  0  0  0  0 
 11 16  2  0  0  0  0 
 12 16  1  0  0  0  0 
 13 17  1  0  0  0  0 
 15 18  1  0  0  0  0 
 16 19  1  0  0  0  0 
 17 20  2  0  0  0  0 
 17 21  1  0  0  0  0 
 20 22  1  0  0  0  0 
 21 23  2  0  0  0  0 
 22 24  1  0  0  0  0 
 22 25  2  0  0  0  0 
 23 25  1  0  0  0  0 
 24 26  1  0  0  0  0 
 25 27  1  0  0  0  0 
  1 28  1  0  0  0  0 
  5 29  1  0  0  0  0 
  5 30  1  0  0  0  0 
  6 31  1  0  0  0  0 
  7 32  1  0  0  0  0 
 10 33  1  0  0  0  0 
 10 34  1  0  0  0  0 
 12 35  1  0  0  0  0 
 13 36  1  0  0  0  0 
 14 37  1  0  0  0  0 
 14 38  1  0  0  0  0 
 18 39  1  0  0  0  0 
 18 40  1  0  0  0  0 
 18 41  1  0  0  0  0 
 19 42  1  0  0  0  0 
 20 43  1  0  0  0  0 
 21 44  1  0  0  0  0 
 23 45  1  0  0  0  0 
 26 46  1  0  0  0  0 
 26 47  1  0  0  0  0 
 26 48  1  0  0  0  0 
 27 49  1  0  0  0  0 
M  END
> <cdk:Title>
cyclovalone

> <Conformer>
1

> <SuperDrugID>
SD000671

$$$$
