cefteram pivoxil
  CDK     0628171802

 67 70  0  0  0  0  0  0  0  0999 V2000
    1.7187    0.5745   -2.3555 C   0  0  0  0  0  0  0  0  0  0  0  0
    0.9723    0.8976   -1.2640 O   0  0  0  0  0  0  0  0  0  0  0  0
    2.1666   -0.5853   -2.5209 O   0  0  0  0  0  0  0  0  0  0  0  0
    1.9555    1.5519   -3.3121 C   0  0  0  0  0  0  0  0  0  0  0  0
    0.6230    0.0389   -0.1813 C   0  0  2  0  0  0  0  0  0  0  0  0
    1.4682    1.2951   -4.5445 N   0  0  0  0  0  0  0  0  0  0  0  0
    2.5739    2.7384   -3.0313 C   0  0  0  0  0  0  0  0  0  0  0  0
   -0.0312    0.8685    0.7761 O   0  0  0  0  0  0  0  0  0  0  0  0
    1.6943    1.9244   -5.7965 C   0  0  1  0  0  0  0  0  0  0  0  0
    0.4810    0.5170   -5.0135 C   0  0  0  0  0  0  0  0  0  0  0  0
    3.0840    3.0653   -1.6828 C   0  0  1  0  0  0  0  0  0  0  0  0
    2.7609    3.7917   -4.0525 C   0  0  2  0  0  0  0  0  0  0  0  0
   -0.4967    0.5207    2.0097 C   0  0  0  0  0  0  0  0  0  0  0  0
    0.4519    1.1493   -6.3315 C   0  0  1  0  0  0  0  0  0  0  0  0
    1.6319    3.7157   -5.4898 S   0  0  0  0  0  0  0  0  0  0  0  0
   -0.2498   -0.3551   -4.4901 O   0  0  0  0  0  0  0  0  0  0  0  0
    3.9685    2.0843   -1.1349 N   0  0  0  0  0  0  0  0  0  0  0  0
   -1.1474    1.5464    2.8868 C   0  0  2  0  0  0  0  0  0  0  0  0
   -0.3624   -0.6627    2.4059 O   0  0  0  0  0  0  0  0  0  0  0  0
   -0.7315    1.9329   -6.4845 N   0  0  0  0  0  0  0  0  0  0  0  0
    3.7622    1.4644   -0.0183 N   0  0  0  0  0  0  0  0  0  0  0  0
    5.0781    1.6862   -1.6765 N   0  0  0  0  0  0  0  0  0  0  0  0
   -2.5758    1.0508    3.2798 C   0  0  0  0  0  0  0  0  0  0  0  0
   -1.2849    2.9255    2.1570 C   0  0  0  0  0  0  0  0  0  0  0  0
   -0.2786    1.7431    4.1699 C   0  0  0  0  0  0  0  0  0  0  0  0
   -1.9933    1.4477   -6.6419 C   0  0  0  0  0  0  0  0  0  0  0  0
    4.7893    0.6209    0.1225 C   0  0  0  0  0  0  0  0  0  0  0  0
    5.6086    0.7773   -0.9250 N   0  0  0  0  0  0  0  0  0  0  0  0
   -3.0861    2.2941   -6.4878 C   0  0  0  0  0  0  0  0  0  0  0  0
   -2.1850    0.2300   -6.8724 O   0  0  0  0  0  0  0  0  0  0  0  0
    4.9883   -0.3087    1.2400 C   0  0  0  0  0  0  0  0  0  0  0  0
   -4.0957    2.2819   -7.2838 N   0  0  0  0  0  0  0  0  0  0  0  0
   -3.1305    3.1828   -5.4216 C   0  0  0  0  0  0  0  0  0  0  0  0
   -4.2490    1.5460   -8.3194 O   0  0  0  0  0  0  0  0  0  0  0  0
   -2.1188    3.4633   -4.4704 N   0  0  0  0  0  0  0  0  0  0  0  0
   -4.2209    4.0515   -4.9623 C   0  0  0  0  0  0  0  0  0  0  0  0
   -5.3682    2.0132   -9.0854 C   0  0  0  0  0  0  0  0  0  0  0  0
   -2.1820    4.3610   -3.3847 C   0  0  0  0  0  0  0  0  0  0  0  0
   -3.8064    5.0331   -3.5063 S   0  0  0  0  0  0  0  0  0  0  0  0
   -1.2271    4.6277   -2.4816 N   0  0  0  0  0  0  0  0  0  0  0  0
    2.6427    1.6113   -6.2440 H   0  0  0  0  0  0  0  0  0  0  0  0
    1.5260   -0.3963    0.2542 H   0  0  0  0  0  0  0  0  0  0  0  0
   -0.0445   -0.7557   -0.5193 H   0  0  0  0  0  0  0  0  0  0  0  0
    3.6260    4.0148   -1.6695 H   0  0  0  0  0  0  0  0  0  0  0  0
    2.2228    3.2006   -1.0223 H   0  0  0  0  0  0  0  0  0  0  0  0
    3.7865    3.7297   -4.4222 H   0  0  0  0  0  0  0  0  0  0  0  0
    2.6137    4.7860   -3.6262 H   0  0  0  0  0  0  0  0  0  0  0  0
    0.6739    0.4642   -7.1509 H   0  0  0  0  0  0  0  0  0  0  0  0
   -0.6388    2.8950   -6.4043 H   0  0  0  0  0  0  0  0  0  0  0  0
   -3.1815    0.8750    2.3873 H   0  0  0  0  0  0  0  0  0  0  0  0
   -2.5241    0.1172    3.8455 H   0  0  0  0  0  0  0  0  0  0  0  0
   -3.0894    1.7899    3.8998 H   0  0  0  0  0  0  0  0  0  0  0  0
   -1.8867    2.8246    1.2507 H   0  0  0  0  0  0  0  0  0  0  0  0
   -0.3050    3.3157    1.8728 H   0  0  0  0  0  0  0  0  0  0  0  0
   -1.7679    3.6653    2.7993 H   0  0  0  0  0  0  0  0  0  0  0  0
    0.7377    2.0469    3.9063 H   0  0  0  0  0  0  0  0  0  0  0  0
   -0.2183    0.8179    4.7474 H   0  0  0  0  0  0  0  0  0  0  0  0
   -0.7053    2.5143    4.8154 H   0  0  0  0  0  0  0  0  0  0  0  0
    5.9579   -0.1182    1.7015 H   0  0  0  0  0  0  0  0  0  0  0  0
    4.2068   -0.1763    1.9919 H   0  0  0  0  0  0  0  0  0  0  0  0
    4.9549   -1.3361    0.8770 H   0  0  0  0  0  0  0  0  0  0  0  0
   -5.2015    4.1576   -5.3628 H   0  0  0  0  0  0  0  0  0  0  0  0
   -5.4633    1.3863   -9.9731 H   0  0  0  0  0  0  0  0  0  0  0  0
   -6.2981    1.9466   -8.5157 H   0  0  0  0  0  0  0  0  0  0  0  0
   -5.2187    3.0460   -9.4129 H   0  0  0  0  0  0  0  0  0  0  0  0
   -1.3781    5.2883   -1.7876 H   0  0  0  0  0  0  0  0  0  0  0  0
   -0.3799    4.1584   -2.5229 H   0  0  0  0  0  0  0  0  0  0  0  0
  1  2  1  0  0  0  0 
  1  3  2  0  0  0  0 
  1  4  1  0  0  0  0 
  2  5  1  0  0  0  0 
  4  6  1  0  0  0  0 
  4  7  2  0  0  0  0 
  5  8  1  0  0  0  0 
  9  6  1  0  0  0  0 
  6 10  1  0  0  0  0 
  7 11  1  0  0  0  0 
  7 12  1  0  0  0  0 
  8 13  1  0  0  0  0 
 14  9  1  0  0  0  0 
  9 15  1  0  0  0  0 
  9 41  1  0  0  0  0 
 14 10  1  0  0  0  0 
 10 16  2  0  0  0  0 
 11 17  1  0  0  0  0 
 12 15  1  0  0  0  0 
 13 18  1  0  0  0  0 
 13 19  2  0  0  0  0 
 14 20  1  0  0  0  0 
 17 21  1  0  0  0  0 
 17 22  1  0  0  0  0 
 18 23  1  0  0  0  0 
 18 24  1  0  0  0  0 
 18 25  1  0  0  0  0 
 20 26  1  0  0  0  0 
 21 27  2  0  0  0  0 
 22 28  2  0  0  0  0 
 26 29  1  0  0  0  0 
 26 30  2  0  0  0  0 
 27 28  1  0  0  0  0 
 27 31  1  0  0  0  0 
 29 32  2  0  0  0  0 
 29 33  1  0  0  0  0 
 32 34  1  0  0  0  0 
 33 35  1  0  0  0  0 
 33 36  2  0  0  0  0 
 34 37  1  0  0  0  0 
 35 38  2  0  0  0  0 
 36 39  1  0  0  0  0 
 38 39  1  0  0  0  0 
 38 40  1  0  0  0  0 
  5 42  1  0  0  0  0 
  5 43  1  0  0  0  0 
 11 44  1  0  0  0  0 
 11 45  1  0  0  0  0 
 12 46  1  0  0  0  0 
 12 47  1  0  0  0  0 
 14 48  1  0  0  0  0 
 20 49  1  0  0  0  0 
 23 50  1  0  0  0  0 
 23 51  1  0  0  0  0 
 23 52  1  0  0  0  0 
 24 53  1  0  0  0  0 
 24 54  1  0  0  0  0 
 24 55  1  0  0  0  0 
 25 56  1  0  0  0  0 
 25 57  1  0  0  0  0 
 25 58  1  0  0  0  0 
 31 59  1  0  0  0  0 
 31 60  1  0  0  0  0 
 31 61  1  0  0  0  0 
 36 62  1  0  0  0  0 
 37 63  1  0  0  0  0 
 37 64  1  0  0  0  0 
 37 65  1  0  0  0  0 
 40 66  1  0  0  0  0 
 40 67  1  0  0  0  0 
M  END
> <cdk:Title>
cefteram pivoxil

> <Conformer>
1

> <SuperDrugID>
SD000487

$$$$
