algestone acetophenide
  CDK     0628171802

 69 74  0  0  0  0  0  0  0  0999 V2000
   -1.6948   -4.1886   -0.4452 C   0  0  0  0  0  0  0  0  0  0  0  0
   -2.5548   -4.3626    0.7487 C   0  0  0  0  0  0  0  0  0  0  0  0
   -1.1321   -5.2132   -0.9016 O   0  0  0  0  0  0  0  0  0  0  0  0
   -1.5059   -2.8522   -1.1101 C   0  0  2  0  0  0  0  0  0  0  0  0
   -2.6993   -2.3678   -2.0299 C   0  0  2  0  0  0  0  0  0  0  0  0
   -0.2348   -2.6914   -2.0037 C   0  0  2  0  0  0  0  0  0  0  0  0
   -1.2516   -1.9149   -0.0587 O   0  0  0  0  0  0  0  0  0  0  0  0
   -3.2952   -3.6094   -2.8077 C   0  0  0  0  0  0  0  0  0  0  0  0
   -1.9774   -1.3114   -2.9395 C   0  0  1  0  0  0  0  0  0  0  0  0
   -3.8686   -1.5985   -1.3180 C   0  0  1  0  0  0  0  0  0  0  0  0
    0.6648   -1.8230   -1.3023 O   0  0  0  0  0  0  0  0  0  0  0  0
   -0.6653   -2.0164   -3.3314 C   0  0  2  0  0  0  0  0  0  0  0  0
    0.1590   -1.6688    0.0315 C   0  0  2  0  0  0  0  0  0  0  0  0
   -2.8944   -0.7071   -4.0574 C   0  0  1  0  0  0  0  0  0  0  0  0
   -4.8317   -0.9012   -2.3247 C   0  0  1  0  0  0  0  0  0  0  0  0
    0.8937   -2.6797    0.9613 C   0  0  0  0  0  0  0  0  0  0  0  0
    0.3024   -0.2784    0.5694 C   0  0  0  0  0  0  0  0  0  0  0  0
   -4.1114    0.0275   -3.3724 C   0  0  2  0  0  0  0  0  0  0  0  0
   -2.1229    0.3825   -4.9178 C   0  0  1  0  0  0  0  0  0  0  0  0
   -0.3524    0.0787    1.7779 C   0  0  0  0  0  0  0  0  0  0  0  0
    1.0678    0.7141   -0.0913 C   0  0  0  0  0  0  0  0  0  0  0  0
   -5.0818    0.7591   -4.4095 C   0  0  2  0  0  0  0  0  0  0  0  0
   -3.1232    0.8869   -6.0784 C   0  0  2  0  0  0  0  0  0  0  0  0
   -0.2519    1.3784    2.3057 C   0  0  0  0  0  0  0  0  0  0  0  0
    1.1671    2.0156    0.4336 C   0  0  0  0  0  0  0  0  0  0  0  0
   -6.0134   -0.2685   -5.1435 C   0  0  0  0  0  0  0  0  0  0  0  0
   -4.3249    1.4968   -5.4766 C   0  0  0  0  0  0  0  0  0  0  0  0
   -5.9928    1.7697   -3.5974 C   0  0  1  0  0  0  0  0  0  0  0  0
    0.5096    2.3475    1.6316 C   0  0  0  0  0  0  0  0  0  0  0  0
   -4.7738    2.6731   -5.9804 C   0  0  0  0  0  0  0  0  0  0  0  0
   -6.7794    2.7641   -4.4853 C   0  0  1  0  0  0  0  0  0  0  0  0
   -5.9399    3.2956   -5.5735 C   0  0  0  0  0  0  0  0  0  0  0  0
   -6.3327    4.3219   -6.1760 O   0  0  0  0  0  0  0  0  0  0  0  0
   -2.5748   -5.4040    1.0782 H   0  0  0  0  0  0  0  0  0  0  0  0
   -2.1818   -3.7556    1.5757 H   0  0  0  0  0  0  0  0  0  0  0  0
   -3.5773   -4.0644    0.5216 H   0  0  0  0  0  0  0  0  0  0  0  0
    0.2801   -3.6327   -2.2151 H   0  0  0  0  0  0  0  0  0  0  0  0
   -3.8073   -4.2821   -2.1167 H   0  0  0  0  0  0  0  0  0  0  0  0
   -2.5143   -4.1795   -3.3092 H   0  0  0  0  0  0  0  0  0  0  0  0
   -4.0245   -3.3391   -3.5642 H   0  0  0  0  0  0  0  0  0  0  0  0
   -1.6680   -0.4550   -2.3196 H   0  0  0  0  0  0  0  0  0  0  0  0
   -4.4571   -2.2834   -0.7051 H   0  0  0  0  0  0  0  0  0  0  0  0
   -3.4728   -0.8276   -0.6496 H   0  0  0  0  0  0  0  0  0  0  0  0
   -0.8335   -2.7606   -4.1135 H   0  0  0  0  0  0  0  0  0  0  0  0
    0.0864   -1.3078   -3.6872 H   0  0  0  0  0  0  0  0  0  0  0  0
   -3.2961   -1.5745   -4.6522 H   0  0  0  0  0  0  0  0  0  0  0  0
   -5.4099   -1.6690   -2.8379 H   0  0  0  0  0  0  0  0  0  0  0  0
   -5.5440   -0.3182   -1.7382 H   0  0  0  0  0  0  0  0  0  0  0  0
    0.9097   -3.6749    0.5186 H   0  0  0  0  0  0  0  0  0  0  0  0
    0.4002   -2.7520    1.9304 H   0  0  0  0  0  0  0  0  0  0  0  0
    1.9276   -2.3661    1.1148 H   0  0  0  0  0  0  0  0  0  0  0  0
   -3.6650    0.8244   -2.7657 H   0  0  0  0  0  0  0  0  0  0  0  0
   -1.7837    1.2244   -4.3081 H   0  0  0  0  0  0  0  0  0  0  0  0
   -1.2573   -0.0731   -5.4019 H   0  0  0  0  0  0  0  0  0  0  0  0
   -0.9193   -0.6076    2.2828 H   0  0  0  0  0  0  0  0  0  0  0  0
    1.5599    0.5038   -0.9609 H   0  0  0  0  0  0  0  0  0  0  0  0
   -3.5211    0.0730   -6.7450 H   0  0  0  0  0  0  0  0  0  0  0  0
   -2.6466    1.5911   -6.8188 H   0  0  0  0  0  0  0  0  0  0  0  0
   -0.7339    1.6180    3.1768 H   0  0  0  0  0  0  0  0  0  0  0  0
    1.7173    2.7226   -0.0582 H   0  0  0  0  0  0  0  0  0  0  0  0
   -6.5355    0.1940   -5.9844 H   0  0  0  0  0  0  0  0  0  0  0  0
   -5.4442   -1.1132   -5.5312 H   0  0  0  0  0  0  0  0  0  0  0  0
   -6.7775   -0.6611   -4.4709 H   0  0  0  0  0  0  0  0  0  0  0  0
   -6.7191    1.2402   -2.9761 H   0  0  0  0  0  0  0  0  0  0  0  0
   -5.3731    2.3664   -2.9190 H   0  0  0  0  0  0  0  0  0  0  0  0
    0.5827    3.2936    2.0129 H   0  0  0  0  0  0  0  0  0  0  0  0
   -4.2701    3.1218   -6.7120 H   0  0  0  0  0  0  0  0  0  0  0  0
   -7.6525    2.2702   -4.9201 H   0  0  0  0  0  0  0  0  0  0  0  0
   -7.1337    3.5903   -3.8624 H   0  0  0  0  0  0  0  0  0  0  0  0
  1  2  1  0  0  0  0 
  1  3  2  0  0  0  0 
  4  1  1  0  0  0  0 
  4  5  1  0  0  0  0 
  4  6  1  0  0  0  0 
  4  7  1  0  0  0  0 
  5  8  1  0  0  0  0 
  5  9  1  0  0  0  0 
  5 10  1  0  0  0  0 
  6 11  1  0  0  0  0 
  6 12  1  0  0  0  0 
 13  7  1  0  0  0  0 
  9 12  1  0  0  0  0 
  9 14  1  0  0  0  0 
 10 15  1  0  0  0  0 
 13 11  1  0  0  0  0 
 13 16  1  0  0  0  0 
 13 17  1  0  0  0  0 
 14 18  1  0  0  0  0 
 14 19  1  0  0  0  0 
 18 15  1  0  0  0  0 
 17 20  2  0  0  0  0 
 17 21  1  0  0  0  0 
 18 22  1  0  0  0  0 
 19 23  1  0  0  0  0 
 20 24  1  0  0  0  0 
 21 25  2  0  0  0  0 
 22 26  1  0  0  0  0 
 22 27  1  0  0  0  0 
 22 28  1  0  0  0  0 
 23 27  1  0  0  0  0 
 24 29  2  0  0  0  0 
 25 29  1  0  0  0  0 
 27 30  2  0  0  0  0 
 28 31  1  0  0  0  0 
 30 32  1  0  0  0  0 
 31 32  1  0  0  0  0 
 32 33  2  0  0  0  0 
 34  2  1  0  0  0  0 
 35  2  1  0  0  0  0 
 36  2  1  0  0  0  0 
  6 37  1  0  0  0  0 
 38  8  1  0  0  0  0 
 39  8  1  0  0  0  0 
 40  8  1  0  0  0  0 
  9 41  1  0  0  0  0 
 42 10  1  0  0  0  0 
 43 10  1  0  0  0  0 
 44 12  1  0  0  0  0 
 45 12  1  0  0  0  0 
 14 46  1  0  0  0  0 
 47 15  1  0  0  0  0 
 48 15  1  0  0  0  0 
 49 16  1  0  0  0  0 
 50 16  1  0  0  0  0 
 51 16  1  0  0  0  0 
 18 52  1  0  0  0  0 
 53 19  1  0  0  0  0 
 54 19  1  0  0  0  0 
 55 20  1  0  0  0  0 
 56 21  1  0  0  0  0 
 57 23  1  0  0  0  0 
 58 23  1  0  0  0  0 
 59 24  1  0  0  0  0 
 60 25  1  0  0  0  0 
 61 26  1  0  0  0  0 
 62 26  1  0  0  0  0 
 63 26  1  0  0  0  0 
 64 28  1  0  0  0  0 
 65 28  1  0  0  0  0 
 66 29  1  0  0  0  0 
 67 30  1  0  0  0  0 
 68 31  1  0  0  0  0 
 69 31  1  0  0  0  0 
M  END
> <cdk:Title>
algestone acetophenide

> <Conformer>
1

> <SuperDrugID>
SD000703

$$$$
