parathiazine
  CDK     0628171801

 41 44  0  0  0  0  0  0  0  0999 V2000
   -3.2846   -0.1884    1.4515 C   0  0  2  0  0  0  0  0  0  0  0  0
   -2.3762    1.0664    1.5834 C   0  0  2  0  0  0  0  0  0  0  0  0
   -3.1021    2.1879    2.1768 N   0  0  0  0  0  0  0  0  0  0  0  0
   -4.1926    2.7378    1.5039 C   0  0  0  0  0  0  0  0  0  0  0  0
   -4.1319    3.0816    0.1294 C   0  0  0  0  0  0  0  0  0  0  0  0
   -5.2765    3.5224   -0.5621 C   0  0  0  0  0  0  0  0  0  0  0  0
   -6.5027    3.6441    0.1132 C   0  0  0  0  0  0  0  0  0  0  0  0
   -6.5762    3.3682    1.4882 C   0  0  0  0  0  0  0  0  0  0  0  0
   -5.4264    2.9376    2.1773 C   0  0  0  0  0  0  0  0  0  0  0  0
   -5.5213    2.6568    3.9110 S   0  0  0  0  0  0  0  0  0  0  0  0
   -3.8442    2.7837    4.4252 C   0  0  0  0  0  0  0  0  0  0  0  0
   -3.5554    3.0890    5.7693 C   0  0  0  0  0  0  0  0  0  0  0  0
   -2.2202    3.2067    6.1888 C   0  0  0  0  0  0  0  0  0  0  0  0
   -1.1778    3.0584    5.2589 C   0  0  0  0  0  0  0  0  0  0  0  0
   -1.4710    2.7672    3.9148 C   0  0  0  0  0  0  0  0  0  0  0  0
   -2.8069    2.5828    3.4782 C   0  0  0  0  0  0  0  0  0  0  0  0
   -2.5018   -1.4417    1.2268 N   0  0  2  0  0  0  0  0  0  0  0  0
   -2.0299   -1.6805   -0.1572 C   0  0  2  0  0  0  0  0  0  0  0  0
   -1.6025   -3.1617   -0.1774 C   0  0  2  0  0  0  0  0  0  0  0  0
   -2.3255   -3.8134    1.0195 C   0  0  1  0  0  0  0  0  0  0  0  0
   -3.1798   -2.6930    1.6365 C   0  0  2  0  0  0  0  0  0  0  0  0
   -4.0166   -0.0391    0.6515 H   0  0  0  0  0  0  0  0  0  0  0  0
   -3.8431   -0.2840    2.3879 H   0  0  0  0  0  0  0  0  0  0  0  0
   -1.9622    1.3397    0.6099 H   0  0  0  0  0  0  0  0  0  0  0  0
   -1.5245    0.7581    2.1968 H   0  0  0  0  0  0  0  0  0  0  0  0
   -3.2509    3.0135   -0.3828 H   0  0  0  0  0  0  0  0  0  0  0  0
   -5.2194    3.7528   -1.5564 H   0  0  0  0  0  0  0  0  0  0  0  0
   -7.3397    3.9415   -0.3912 H   0  0  0  0  0  0  0  0  0  0  0  0
   -7.4656    3.4836    1.9823 H   0  0  0  0  0  0  0  0  0  0  0  0
   -4.3113    3.2260    6.4440 H   0  0  0  0  0  0  0  0  0  0  0  0
   -2.0072    3.4073    7.1678 H   0  0  0  0  0  0  0  0  0  0  0  0
   -0.2065    3.1623    5.5587 H   0  0  0  0  0  0  0  0  0  0  0  0
   -0.6969    2.6837    3.2529 H   0  0  0  0  0  0  0  0  0  0  0  0
   -1.1851   -1.0288   -0.3918 H   0  0  0  0  0  0  0  0  0  0  0  0
   -2.8265   -1.5149   -0.8918 H   0  0  0  0  0  0  0  0  0  0  0  0
   -0.5178   -3.2435   -0.0529 H   0  0  0  0  0  0  0  0  0  0  0  0
   -1.8862   -3.6413   -1.1196 H   0  0  0  0  0  0  0  0  0  0  0  0
   -2.9552   -4.6503    0.7071 H   0  0  0  0  0  0  0  0  0  0  0  0
   -1.5962   -4.1759    1.7493 H   0  0  0  0  0  0  0  0  0  0  0  0
   -4.2045   -2.7412    1.2466 H   0  0  0  0  0  0  0  0  0  0  0  0
   -3.2080   -2.7804    2.7270 H   0  0  0  0  0  0  0  0  0  0  0  0
  1  2  1  0  0  0  0 
  2  3  1  0  0  0  0 
  3  4  1  0  0  0  0 
  4  5  2  0  0  0  0 
  5  6  1  0  0  0  0 
  6  7  2  0  0  0  0 
  7  8  1  0  0  0  0 
  8  9  2  0  0  0  0 
  4  9  1  0  0  0  0 
  9 10  1  0  0  0  0 
 10 11  1  0  0  0  0 
 11 12  2  0  0  0  0 
 12 13  1  0  0  0  0 
 13 14  2  0  0  0  0 
 14 15  1  0  0  0  0 
 15 16  2  0  0  0  0 
  3 16  1  0  0  0  0 
 11 16  1  0  0  0  0 
  1 17  1  0  0  0  0 
 17 18  1  0  0  0  0 
 18 19  1  0  0  0  0 
 19 20  1  0  0  0  0 
 20 21  1  0  0  0  0 
 17 21  1  0  0  0  0 
  1 22  1  0  0  0  0 
  1 23  1  0  0  0  0 
  2 24  1  0  0  0  0 
  2 25  1  0  0  0  0 
  5 26  1  0  0  0  0 
  6 27  1  0  0  0  0 
  7 28  1  0  0  0  0 
  8 29  1  0  0  0  0 
 12 30  1  0  0  0  0 
 13 31  1  0  0  0  0 
 14 32  1  0  0  0  0 
 15 33  1  0  0  0  0 
 18 34  1  0  0  0  0 
 18 35  1  0  0  0  0 
 19 36  1  0  0  0  0 
 19 37  1  0  0  0  0 
 20 38  1  0  0  0  0 
 20 39  1  0  0  0  0 
 21 40  1  0  0  0  0 
 21 41  1  0  0  0  0 
M  END
> <cdk:Title>
parathiazine

> <Conformer>
1

> <SuperDrugID>
SD002091

$$$$
