paricalcitol
  CDK     0628171801

 74 76  0  0  0  0  0  0  0  0999 V2000
    0.5834    7.3671   -6.8759 C   0  0  0  0  0  0  0  0  0  0  0  0
    0.9185    7.5632   -5.3655 C   0  0  2  0  0  0  0  0  0  0  0  0
    0.8622    9.0046   -5.0763 C   0  0  0  0  0  0  0  0  0  0  0  0
    0.2097    9.5432   -4.0271 C   0  0  0  0  0  0  0  0  0  0  0  0
    0.1146   10.9897   -3.7633 C   0  0  2  0  0  0  0  0  0  0  0  0
    1.5424   11.5727   -3.5113 C   0  0  0  0  0  0  0  0  0  0  0  0
   -0.9223   11.3686   -2.6221 C   0  0  1  0  0  0  0  0  0  0  0  0
   -1.0752   12.9103   -2.4146 C   0  0  0  0  0  0  0  0  0  0  0  0
   -2.3470   10.7812   -2.8827 C   0  0  0  0  0  0  0  0  0  0  0  0
   -0.4705   10.8294   -1.3771 O   0  0  0  0  0  0  0  0  0  0  0  0
    2.3002    6.9107   -4.9438 C   0  0  1  0  0  0  0  0  0  0  0  0
    2.7515    7.2927   -3.4881 C   0  0  2  0  0  0  0  0  0  0  0  0
    3.2960    6.0109   -2.8216 C   0  0  1  0  0  0  0  0  0  0  0  0
    3.6187    5.0737   -4.0054 C   0  0  2  0  0  0  0  0  0  0  0  0
    2.4461    5.3337   -5.0157 C   0  0  1  0  0  0  0  0  0  0  0  0
    1.1127    4.6046   -4.5886 C   0  0  0  0  0  0  0  0  0  0  0  0
    2.9452    4.7681   -6.3977 C   0  0  1  0  0  0  0  0  0  0  0  0
    3.3867    3.2742   -6.3065 C   0  0  1  0  0  0  0  0  0  0  0  0
    4.3279    2.9826   -5.0995 C   0  0  1  0  0  0  0  0  0  0  0  0
    3.8826    3.6225   -3.8413 C   0  0  0  0  0  0  0  0  0  0  0  0
    3.6928    2.9936   -2.6535 C   0  0  0  0  0  0  0  0  0  0  0  0
    3.7730    1.6564   -2.3704 C   0  0  0  0  0  0  0  0  0  0  0  0
    3.2977    1.0161   -1.2705 C   0  0  0  0  0  0  0  0  0  0  0  0
    3.4754   -0.4418   -1.1252 C   0  0  2  0  0  0  0  0  0  0  0  0
    4.3152   -0.7766    0.1400 C   0  0  1  0  0  0  0  0  0  0  0  0
    5.6645   -0.3488   -0.0481 O   0  0  0  0  0  0  0  0  0  0  0  0
    3.7167   -0.1152    1.4121 C   0  0  2  0  0  0  0  0  0  0  0  0
    3.4237    1.3958    1.1877 C   0  0  2  0  0  0  0  0  0  0  0  0
    2.7286    1.9288    2.3139 O   0  0  0  0  0  0  0  0  0  0  0  0
    2.6137    1.6397   -0.1198 C   0  0  2  0  0  0  0  0  0  0  0  0
    0.4014    6.3210   -7.1121 H   0  0  0  0  0  0  0  0  0  0  0  0
    1.4075    7.7222   -7.4992 H   0  0  0  0  0  0  0  0  0  0  0  0
   -0.3202    7.9190   -7.1490 H   0  0  0  0  0  0  0  0  0  0  0  0
    0.1183    7.0737   -4.8024 H   0  0  0  0  0  0  0  0  0  0  0  0
    1.3349    9.6128   -5.7078 H   0  0  0  0  0  0  0  0  0  0  0  0
   -0.2284    8.9186   -3.3905 H   0  0  0  0  0  0  0  0  0  0  0  0
   -0.2547   11.4500   -4.6870 H   0  0  0  0  0  0  0  0  0  0  0  0
    1.5123   12.6589   -3.4403 H   0  0  0  0  0  0  0  0  0  0  0  0
    1.9722   11.1723   -2.5917 H   0  0  0  0  0  0  0  0  0  0  0  0
    2.2214   11.3389   -4.3333 H   0  0  0  0  0  0  0  0  0  0  0  0
   -0.1522   13.3593   -2.0462 H   0  0  0  0  0  0  0  0  0  0  0  0
   -1.8459   13.1292   -1.6722 H   0  0  0  0  0  0  0  0  0  0  0  0
   -1.3533   13.4000   -3.3499 H   0  0  0  0  0  0  0  0  0  0  0  0
   -3.0469   11.1015   -2.1084 H   0  0  0  0  0  0  0  0  0  0  0  0
   -2.7271   11.1153   -3.8492 H   0  0  0  0  0  0  0  0  0  0  0  0
   -2.3417    9.6920   -2.8712 H   0  0  0  0  0  0  0  0  0  0  0  0
    0.3763   11.2878   -1.1925 H   0  0  0  0  0  0  0  0  0  0  0  0
    3.0511    7.3416   -5.6167 H   0  0  0  0  0  0  0  0  0  0  0  0
    1.8550    7.6107   -2.8685 H   0  0  0  0  0  0  0  0  0  0  0  0
    3.6158    8.0310   -3.5703 H   0  0  0  0  0  0  0  0  0  0  0  0
    4.1883    6.2154   -2.2247 H   0  0  0  0  0  0  0  0  0  0  0  0
    2.5290    5.5930   -2.1657 H   0  0  0  0  0  0  0  0  0  0  0  0
    4.5509    5.4932   -4.4142 H   0  0  0  0  0  0  0  0  0  0  0  0
    0.7243    4.9989   -3.6465 H   0  0  0  0  0  0  0  0  0  0  0  0
    1.2502    3.5296   -4.4635 H   0  0  0  0  0  0  0  0  0  0  0  0
    0.3421    4.7332   -5.3491 H   0  0  0  0  0  0  0  0  0  0  0  0
    2.1718    4.8572   -7.1599 H   0  0  0  0  0  0  0  0  0  0  0  0
    3.8020    5.3536   -6.7457 H   0  0  0  0  0  0  0  0  0  0  0  0
    2.5035    2.6356   -6.2289 H   0  0  0  0  0  0  0  0  0  0  0  0
    3.8973    3.0015   -7.2339 H   0  0  0  0  0  0  0  0  0  0  0  0
    4.4409    1.9022   -5.0323 H   0  0  0  0  0  0  0  0  0  0  0  0
    5.3220    3.3728   -5.3379 H   0  0  0  0  0  0  0  0  0  0  0  0
    3.4624    3.5726   -1.8948 H   0  0  0  0  0  0  0  0  0  0  0  0
    4.2326    1.0877   -3.0361 H   0  0  0  0  0  0  0  0  0  0  0  0
    3.9560   -0.9036   -1.9917 H   0  0  0  0  0  0  0  0  0  0  0  0
    2.4909   -0.9111   -1.0367 H   0  0  0  0  0  0  0  0  0  0  0  0
    4.3330   -1.8611    0.2801 H   0  0  0  0  0  0  0  0  0  0  0  0
    5.9783   -0.8482   -0.8323 H   0  0  0  0  0  0  0  0  0  0  0  0
    4.4102   -0.2353    2.2488 H   0  0  0  0  0  0  0  0  0  0  0  0
    2.7869   -0.6278    1.6741 H   0  0  0  0  0  0  0  0  0  0  0  0
    4.3750    1.9311    1.1158 H   0  0  0  0  0  0  0  0  0  0  0  0
    1.8937    1.4186    2.3668 H   0  0  0  0  0  0  0  0  0  0  0  0
    1.6175    1.1975   -0.0174 H   0  0  0  0  0  0  0  0  0  0  0  0
    2.4538    2.7128   -0.2160 H   0  0  0  0  0  0  0  0  0  0  0  0
  2  1  1  0  0  0  0 
  2  3  1  0  0  0  0 
  3  4  2  0  0  0  0 
  4  5  1  0  0  0  0 
  5  6  1  0  0  0  0 
  5  7  1  0  0  0  0 
  7  8  1  0  0  0  0 
  7  9  1  0  0  0  0 
  7 10  1  0  0  0  0 
 11  2  1  0  0  0  0 
 11 12  1  0  0  0  0 
 12 13  1  0  0  0  0 
 14 13  1  0  0  0  0 
 14 15  1  0  0  0  0 
 11 15  1  0  0  0  0 
 15 16  1  0  0  0  0 
 15 17  1  0  0  0  0 
 17 18  1  0  0  0  0 
 18 19  1  0  0  0  0 
 19 20  1  0  0  0  0 
 14 20  1  0  0  0  0 
 20 21  2  0  0  0  0 
 21 22  1  0  0  0  0 
 22 23  2  0  0  0  0 
 23 24  1  0  0  0  0 
 24 25  1  0  0  0  0 
 25 26  1  0  0  0  0 
 25 27  1  0  0  0  0 
 27 28  1  0  0  0  0 
 28 29  1  0  0  0  0 
 28 30  1  0  0  0  0 
 23 30  1  0  0  0  0 
  1 31  1  0  0  0  0 
  1 32  1  0  0  0  0 
  1 33  1  0  0  0  0 
  2 34  1  0  0  0  0 
  3 35  1  0  0  0  0 
  4 36  1  0  0  0  0 
  5 37  1  0  0  0  0 
  6 38  1  0  0  0  0 
  6 39  1  0  0  0  0 
  6 40  1  0  0  0  0 
  8 41  1  0  0  0  0 
  8 42  1  0  0  0  0 
  8 43  1  0  0  0  0 
  9 44  1  0  0  0  0 
  9 45  1  0  0  0  0 
  9 46  1  0  0  0  0 
 10 47  1  0  0  0  0 
 11 48  1  0  0  0  0 
 12 49  1  0  0  0  0 
 12 50  1  0  0  0  0 
 13 51  1  0  0  0  0 
 13 52  1  0  0  0  0 
 14 53  1  0  0  0  0 
 16 54  1  0  0  0  0 
 16 55  1  0  0  0  0 
 16 56  1  0  0  0  0 
 17 57  1  0  0  0  0 
 17 58  1  0  0  0  0 
 18 59  1  0  0  0  0 
 18 60  1  0  0  0  0 
 19 61  1  0  0  0  0 
 19 62  1  0  0  0  0 
 21 63  1  0  0  0  0 
 22 64  1  0  0  0  0 
 24 65  1  0  0  0  0 
 24 66  1  0  0  0  0 
 25 67  1  0  0  0  0 
 26 68  1  0  0  0  0 
 27 69  1  0  0  0  0 
 27 70  1  0  0  0  0 
 28 71  1  0  0  0  0 
 29 72  1  0  0  0  0 
 30 73  1  0  0  0  0 
 30 74  1  0  0  0  0 
M  END
> <cdk:Title>
paricalcitol

> <Conformer>
1

> <SuperDrugID>
SD001852

$$$$
