saxagliptin
  CDK     0628171801

 48 52  0  0  0  0  0  0  0  0999 V2000
    5.1195   -2.7755   -5.2320 N   0  0  2  0  0  0  0  0  0  0  0  0
    3.4843   -1.7238   -4.5500 H   0  0  0  0  0  0  0  0  0  0  0  0
    4.5289   -1.8531   -4.2494 C   0  0  2  0  0  0  0  0  0  0  0  0
    5.1926   -0.5242   -4.4511 C   0  0  0  0  0  0  0  0  0  0  0  0
    4.8974    0.3513   -5.4884 N   0  0  0  0  0  0  0  0  0  0  0  0
    6.0797   -0.1710   -3.6403 O   0  0  0  0  0  0  0  0  0  0  0  0
    4.0178    0.0064   -6.5630 C   0  0  2  0  0  0  0  0  0  0  0  0
    3.9135    1.2234   -7.4923 C   0  0  2  0  0  0  0  0  0  0  0  0
    4.8467    2.2915   -6.9078 C   0  0  2  0  0  0  0  0  0  0  0  0
    5.4684    1.6736   -5.6257 C   0  0  1  0  0  0  0  0  0  0  0  0
    2.6807    0.7396   -6.7186 C   0  0  1  0  0  0  0  0  0  0  0  0
    3.9880    0.9662   -8.5523 H   0  0  0  0  0  0  0  0  0  0  0  0
    4.1734   -0.9175   -7.1271 H   0  0  0  0  0  0  0  0  0  0  0  0
    6.5508    1.5834   -5.7600 H   0  0  0  0  0  0  0  0  0  0  0  0
    3.4869   -4.3905   -1.3394 C   0  0  2  0  0  0  0  0  0  0  0  0
    2.7987   -3.3442   -0.4059 C   0  0  2  0  0  0  0  0  0  0  0  0
    3.6679   -2.0504   -0.3579 C   0  0  1  0  0  0  0  0  0  0  0  0
    5.0949   -2.3837    0.1826 C   0  0  2  0  0  0  0  0  0  0  0  0
    5.7702   -3.4364   -0.7529 C   0  0  1  0  0  0  0  0  0  0  0  0
    4.9061   -4.7338   -0.7846 C   0  0  2  0  0  0  0  0  0  0  0  0
    3.7850   -1.4540   -1.7948 C   0  0  2  0  0  0  0  0  0  0  0  0
    4.4839   -2.4660   -2.7853 C   0  0  1  0  0  0  0  0  0  0  0  0
    3.6185   -3.7911   -2.7802 C   0  0  2  0  0  0  0  0  0  0  0  0
    5.8986   -2.8551   -2.1985 C   0  0  2  0  0  0  0  0  0  0  0  0
    2.6959   -5.5791   -1.3684 O   0  0  0  0  0  0  0  0  0  0  0  0
    5.2495    2.4805   -4.5289 C   0  0  0  0  0  0  0  0  0  0  0  0
    5.0685    3.1530   -3.6159 N   0  0  0  0  0  0  0  0  0  0  0  0
    4.5352   -3.6144   -5.2533 H   0  0  0  0  0  0  0  0  0  0  0  0
    6.0410   -3.0483   -4.8865 H   0  0  0  0  0  0  0  0  0  0  0  0
    4.2725    3.2083   -6.7315 H   0  0  0  0  0  0  0  0  0  0  0  0
    5.6291    2.5214   -7.6355 H   0  0  0  0  0  0  0  0  0  0  0  0
    1.9254    0.2204   -7.3069 H   0  0  0  0  0  0  0  0  0  0  0  0
    2.3675    1.3506   -5.8713 H   0  0  0  0  0  0  0  0  0  0  0  0
    2.6819   -3.7493    0.6033 H   0  0  0  0  0  0  0  0  0  0  0  0
    1.7973   -3.1061   -0.7790 H   0  0  0  0  0  0  0  0  0  0  0  0
    3.1899   -1.3176    0.3001 H   0  0  0  0  0  0  0  0  0  0  0  0
    5.0270   -2.7746    1.2030 H   0  0  0  0  0  0  0  0  0  0  0  0
    5.7044   -1.4757    0.2258 H   0  0  0  0  0  0  0  0  0  0  0  0
    6.7675   -3.6742   -0.3684 H   0  0  0  0  0  0  0  0  0  0  0  0
    5.3896   -5.4865   -1.4159 H   0  0  0  0  0  0  0  0  0  0  0  0
    4.8269   -5.1572    0.2216 H   0  0  0  0  0  0  0  0  0  0  0  0
    4.3447   -0.5177   -1.7300 H   0  0  0  0  0  0  0  0  0  0  0  0
    2.7835   -1.2013   -2.1600 H   0  0  0  0  0  0  0  0  0  0  0  0
    2.6170   -3.5964   -3.1764 H   0  0  0  0  0  0  0  0  0  0  0  0
    4.0707   -4.5478   -3.4287 H   0  0  0  0  0  0  0  0  0  0  0  0
    6.3852   -3.5967   -2.8403 H   0  0  0  0  0  0  0  0  0  0  0  0
    6.5644   -1.9937   -2.1478 H   0  0  0  0  0  0  0  0  0  0  0  0
    3.1946   -6.2128   -1.9251 H   0  0  0  0  0  0  0  0  0  0  0  0
 10 26  1  0  0  0  0 
  3  2  1  0  0  0  0 
  3  4  1  0  0  0  0 
  4  5  1  0  0  0  0 
  4  6  2  0  0  0  0 
  5  7  1  0  0  0  0 
  7  8  1  0  0  0  0 
  8  9  1  0  0  0  0 
  9 10  1  0  0  0  0 
 10  5  1  0  0  0  0 
  7 11  1  0  0  0  0 
 11  8  1  0  0  0  0 
  8 12  1  0  0  0  0 
  7 13  1  0  0  0  0 
  3  1  1  0  0  0  0 
 10 14  1  0  0  0  0 
 15 16  1  0  0  0  0 
 16 17  1  0  0  0  0 
 17 18  1  0  0  0  0 
 18 19  1  0  0  0  0 
 19 20  1  0  0  0  0 
 17 21  1  0  0  0  0 
 21 22  1  0  0  0  0 
 22 23  1  0  0  0  0 
 23 15  1  0  0  0  0 
 19 24  1  0  0  0  0 
 24 22  1  0  0  0  0 
  3 22  1  0  0  0  0 
 20 15  1  0  0  0  0 
 15 25  1  0  0  0  0 
 26 27  3  0  0  0  0 
  1 28  1  0  0  0  0 
  1 29  1  0  0  0  0 
  9 30  1  0  0  0  0 
  9 31  1  0  0  0  0 
 11 32  1  0  0  0  0 
 11 33  1  0  0  0  0 
 16 34  1  0  0  0  0 
 16 35  1  0  0  0  0 
 17 36  1  0  0  0  0 
 18 37  1  0  0  0  0 
 18 38  1  0  0  0  0 
 19 39  1  0  0  0  0 
 20 40  1  0  0  0  0 
 20 41  1  0  0  0  0 
 21 42  1  0  0  0  0 
 21 43  1  0  0  0  0 
 23 44  1  0  0  0  0 
 23 45  1  0  0  0  0 
 24 46  1  0  0  0  0 
 24 47  1  0  0  0  0 
 25 48  1  0  0  0  0 
M  END
> <cdk:Title>
saxagliptin

> <Conformer>
1

> <SuperDrugID>
SD003359

$$$$
