olaflur
  CDK     0628171801

 90 89  0  0  0  0  0  0  0  0999 V2000
   -0.6424    6.4326   -3.6935 N   0  0  2  0  0  0  0  0  0  0  0  0
   -1.1435    5.4100   -2.7063 C   0  0  2  0  0  0  0  0  0  0  0  0
    0.7269    7.0040   -3.4286 C   0  0  2  0  0  0  0  0  0  0  0  0
   -1.6580    7.4878   -4.0532 C   0  0  1  0  0  0  0  0  0  0  0  0
   -0.1663    4.2556   -2.3354 C   0  0  2  0  0  0  0  0  0  0  0  0
    0.8370    7.8244   -2.1154 C   0  0  1  0  0  0  0  0  0  0  0  0
   -2.9591    6.9684   -4.7137 C   0  0  2  0  0  0  0  0  0  0  0  0
   -0.8018    3.2249   -1.3575 C   0  0  1  0  0  0  0  0  0  0  0  0
    2.2660    8.3117   -1.7584 C   0  0  2  0  0  0  0  0  0  0  0  0
   -3.7340    8.0634   -5.1979 O   0  0  0  0  0  0  0  0  0  0  0  0
    0.1326    2.1446   -0.8706 N   0  0  2  0  0  0  0  0  0  0  0  0
    2.2368    9.0869   -0.4160 C   0  0  2  0  0  0  0  0  0  0  0  0
    0.4896    1.1780   -1.9726 C   0  0  1  0  0  0  0  0  0  0  0  0
   -0.3521    1.4703    0.3866 C   0  0  2  0  0  0  0  0  0  0  0  0
    3.6209    9.6191    0.0367 C   0  0  1  0  0  0  0  0  0  0  0  0
    1.5283    0.0807   -1.6336 C   0  0  2  0  0  0  0  0  0  0  0  0
   -0.4066    2.3694    1.6469 C   0  0  2  0  0  0  0  0  0  0  0  0
    3.5017   10.4454    1.3476 C   0  0  2  0  0  0  0  0  0  0  0  0
    1.9800   -0.5450   -2.8301 O   0  0  0  0  0  0  0  0  0  0  0  0
   -0.5682    1.5647    2.8118 O   0  0  0  0  0  0  0  0  0  0  0  0
    4.8470   11.0411    1.8431 C   0  0  1  0  0  0  0  0  0  0  0  0
    4.6840   11.9038    3.1304 C   0  0  1  0  0  0  0  0  0  0  0  0
    6.0822   12.4440    3.6567 C   0  0  2  0  0  0  0  0  0  0  0  0
    5.9442   13.3344    4.9234 C   0  0  1  0  0  0  0  0  0  0  0  0
    7.3079   13.8917    5.4214 C   0  0  2  0  0  0  0  0  0  0  0  0
    7.1907   14.7772    6.6955 C   0  0  2  0  0  0  0  0  0  0  0  0
    8.5660   15.3296    7.1636 C   0  0  2  0  0  0  0  0  0  0  0  0
    8.4705   16.2076    8.4404 C   0  0  2  0  0  0  0  0  0  0  0  0
    9.8501   16.7549    8.8978 C   0  0  1  0  0  0  0  0  0  0  0  0
    9.7468   17.6291   10.1765 C   0  0  2  0  0  0  0  0  0  0  0  0
   11.1162   18.1863   10.6529 C   0  0  1  0  0  0  0  0  0  0  0  0
   11.0034   19.0560   11.9284 C   0  0  0  0  0  0  0  0  0  0  0  0
   -2.0202    4.9221   -3.1395 H   0  0  0  0  0  0  0  0  0  0  0  0
   -1.4683    5.9065   -1.7877 H   0  0  0  0  0  0  0  0  0  0  0  0
    1.0203    7.6443   -4.2641 H   0  0  0  0  0  0  0  0  0  0  0  0
    1.4598    6.1957   -3.4188 H   0  0  0  0  0  0  0  0  0  0  0  0
   -1.9354    8.0671   -3.1665 H   0  0  0  0  0  0  0  0  0  0  0  0
   -1.2095    8.1787   -4.7737 H   0  0  0  0  0  0  0  0  0  0  0  0
    0.7274    4.6561   -1.8512 H   0  0  0  0  0  0  0  0  0  0  0  0
    0.1292    3.7721   -3.2674 H   0  0  0  0  0  0  0  0  0  0  0  0
    0.1927    8.7022   -2.1997 H   0  0  0  0  0  0  0  0  0  0  0  0
    0.4730    7.2195   -1.2834 H   0  0  0  0  0  0  0  0  0  0  0  0
   -3.5728    6.4269   -3.9900 H   0  0  0  0  0  0  0  0  0  0  0  0
   -2.7153    6.3070   -5.5485 H   0  0  0  0  0  0  0  0  0  0  0  0
   -1.1524    3.8194   -0.5126 H   0  0  0  0  0  0  0  0  0  0  0  0
   -1.6869    2.7785   -1.8235 H   0  0  0  0  0  0  0  0  0  0  0  0
    2.6387    8.9675   -2.5511 H   0  0  0  0  0  0  0  0  0  0  0  0
    2.9415    7.4561   -1.6681 H   0  0  0  0  0  0  0  0  0  0  0  0
   -4.5589    7.6579   -5.5404 H   0  0  0  0  0  0  0  0  0  0  0  0
    1.8438    8.4290    0.3662 H   0  0  0  0  0  0  0  0  0  0  0  0
    1.5506    9.9334   -0.5209 H   0  0  0  0  0  0  0  0  0  0  0  0
   -0.4117    0.6891   -2.3551 H   0  0  0  0  0  0  0  0  0  0  0  0
    0.9345    1.7400   -2.7944 H   0  0  0  0  0  0  0  0  0  0  0  0
    0.3373    0.6716    0.6583 H   0  0  0  0  0  0  0  0  0  0  0  0
   -1.3348    1.0184    0.2218 H   0  0  0  0  0  0  0  0  0  0  0  0
    4.2940    8.7709    0.1944 H   0  0  0  0  0  0  0  0  0  0  0  0
    4.0397   10.2470   -0.7546 H   0  0  0  0  0  0  0  0  0  0  0  0
    1.0844   -0.6958   -1.0102 H   0  0  0  0  0  0  0  0  0  0  0  0
    2.3808    0.5183   -1.1121 H   0  0  0  0  0  0  0  0  0  0  0  0
   -1.2509    3.0582    1.6067 H   0  0  0  0  0  0  0  0  0  0  0  0
    0.5198    2.9402    1.7380 H   0  0  0  0  0  0  0  0  0  0  0  0
    3.0913    9.8000    2.1295 H   0  0  0  0  0  0  0  0  0  0  0  0
    2.7958   11.2637    1.1806 H   0  0  0  0  0  0  0  0  0  0  0  0
    2.5883   -1.2541   -2.5369 H   0  0  0  0  0  0  0  0  0  0  0  0
   -0.6095    2.1982    3.5582 H   0  0  0  0  0  0  0  0  0  0  0  0
    5.5402   10.2189    2.0403 H   0  0  0  0  0  0  0  0  0  0  0  0
    5.2715   11.6600    1.0489 H   0  0  0  0  0  0  0  0  0  0  0  0
    3.8916   12.6743    2.9163 H   0  0  0  0  0  0  0  0  0  0  0  0
    4.2738   11.2582    3.9123 H   0  0  0  0  0  0  0  0  0  0  0  0
    6.5501   13.0285    2.8621 H   0  0  0  0  0  0  0  0  0  0  0  0
    6.7302   11.5957    3.8865 H   0  0  0  0  0  0  0  0  0  0  0  0
    5.2792   14.1738    4.7024 H   0  0  0  0  0  0  0  0  0  0  0  0
    5.4898   12.7456    5.7253 H   0  0  0  0  0  0  0  0  0  0  0  0
    7.7629   14.4855    4.6237 H   0  0  0  0  0  0  0  0  0  0  0  0
    7.9751   13.0522    5.6392 H   0  0  0  0  0  0  0  0  0  0  0  0
    6.7502   14.1832    7.5012 H   0  0  0  0  0  0  0  0  0  0  0  0
    6.5207   15.6169    6.4881 H   0  0  0  0  0  0  0  0  0  0  0  0
    8.9993   15.9259    6.3557 H   0  0  0  0  0  0  0  0  0  0  0  0
    9.2354   14.4882    7.3613 H   0  0  0  0  0  0  0  0  0  0  0  0
    8.0372   15.6120    9.2481 H   0  0  0  0  0  0  0  0  0  0  0  0
    7.8011   17.0484    8.2414 H   0  0  0  0  0  0  0  0  0  0  0  0
   10.5208   15.9143    9.0942 H   0  0  0  0  0  0  0  0  0  0  0  0
   10.2824   17.3522    8.0909 H   0  0  0  0  0  0  0  0  0  0  0  0
    9.3141   17.0303   10.9822 H   0  0  0  0  0  0  0  0  0  0  0  0
    9.0767   18.4699    9.9790 H   0  0  0  0  0  0  0  0  0  0  0  0
   11.7959   17.3556   10.8629 H   0  0  0  0  0  0  0  0  0  0  0  0
   11.5590   18.7958    9.8600 H   0  0  0  0  0  0  0  0  0  0  0  0
   10.5937   18.4710   12.7563 H   0  0  0  0  0  0  0  0  0  0  0  0
   10.3555   19.9180   11.7486 H   0  0  0  0  0  0  0  0  0  0  0  0
   11.9927   19.4212   12.2190 H   0  0  0  0  0  0  0  0  0  0  0  0
  1  2  1  0  0  0  0 
  1  3  1  0  0  0  0 
  1  4  1  0  0  0  0 
  2  5  1  0  0  0  0 
  3  6  1  0  0  0  0 
  4  7  1  0  0  0  0 
  5  8  1  0  0  0  0 
  6  9  1  0  0  0  0 
  7 10  1  0  0  0  0 
  8 11  1  0  0  0  0 
  9 12  1  0  0  0  0 
 11 13  1  0  0  0  0 
 11 14  1  0  0  0  0 
 12 15  1  0  0  0  0 
 13 16  1  0  0  0  0 
 14 17  1  0  0  0  0 
 15 18  1  0  0  0  0 
 16 19  1  0  0  0  0 
 17 20  1  0  0  0  0 
 18 21  1  0  0  0  0 
 21 22  1  0  0  0  0 
 22 23  1  0  0  0  0 
 23 24  1  0  0  0  0 
 24 25  1  0  0  0  0 
 25 26  1  0  0  0  0 
 26 27  1  0  0  0  0 
 27 28  1  0  0  0  0 
 28 29  1  0  0  0  0 
 29 30  1  0  0  0  0 
 30 31  1  0  0  0  0 
 31 32  1  0  0  0  0 
  2 33  1  0  0  0  0 
  2 34  1  0  0  0  0 
  3 35  1  0  0  0  0 
  3 36  1  0  0  0  0 
  4 37  1  0  0  0  0 
  4 38  1  0  0  0  0 
  5 39  1  0  0  0  0 
  5 40  1  0  0  0  0 
  6 41  1  0  0  0  0 
  6 42  1  0  0  0  0 
  7 43  1  0  0  0  0 
  7 44  1  0  0  0  0 
  8 45  1  0  0  0  0 
  8 46  1  0  0  0  0 
  9 47  1  0  0  0  0 
  9 48  1  0  0  0  0 
 10 49  1  0  0  0  0 
 12 50  1  0  0  0  0 
 12 51  1  0  0  0  0 
 13 52  1  0  0  0  0 
 13 53  1  0  0  0  0 
 14 54  1  0  0  0  0 
 14 55  1  0  0  0  0 
 15 56  1  0  0  0  0 
 15 57  1  0  0  0  0 
 16 58  1  0  0  0  0 
 16 59  1  0  0  0  0 
 17 60  1  0  0  0  0 
 17 61  1  0  0  0  0 
 18 62  1  0  0  0  0 
 18 63  1  0  0  0  0 
 19 64  1  0  0  0  0 
 20 65  1  0  0  0  0 
 21 66  1  0  0  0  0 
 21 67  1  0  0  0  0 
 22 68  1  0  0  0  0 
 22 69  1  0  0  0  0 
 23 70  1  0  0  0  0 
 23 71  1  0  0  0  0 
 24 72  1  0  0  0  0 
 24 73  1  0  0  0  0 
 25 74  1  0  0  0  0 
 25 75  1  0  0  0  0 
 26 76  1  0  0  0  0 
 26 77  1  0  0  0  0 
 27 78  1  0  0  0  0 
 27 79  1  0  0  0  0 
 28 80  1  0  0  0  0 
 28 81  1  0  0  0  0 
 29 82  1  0  0  0  0 
 29 83  1  0  0  0  0 
 30 84  1  0  0  0  0 
 30 85  1  0  0  0  0 
 31 86  1  0  0  0  0 
 31 87  1  0  0  0  0 
 32 88  1  0  0  0  0 
 32 89  1  0  0  0  0 
 32 90  1  0  0  0  0 
M  END
> <cdk:Title>
olaflur

> <Conformer>
1

> <SuperDrugID>
SD003492

$$$$
