tofenacin
  CDK     0628171801

 40 41  0  0  0  0  0  0  0  0999 V2000
    1.1371    0.9715   -0.2084 C   0  0  0  0  0  0  0  0  0  0  0  0
    1.1086    2.3734   -0.1621 C   0  0  0  0  0  0  0  0  0  0  0  0
    2.2953    3.0903    0.0347 C   0  0  0  0  0  0  0  0  0  0  0  0
    3.5099    2.4021    0.1721 C   0  0  0  0  0  0  0  0  0  0  0  0
    3.5634    0.9859    0.1255 C   0  0  0  0  0  0  0  0  0  0  0  0
    2.3490    0.2479   -0.0623 C   0  0  0  0  0  0  0  0  0  0  0  0
    4.8987    0.3359    0.2701 C   0  0  0  0  0  0  0  0  0  0  0  0
    2.2835   -1.2562   -0.1070 C   0  0  1  0  0  0  0  0  0  0  0  0
    1.1614   -1.8124    0.6235 O   0  0  0  0  0  0  0  0  0  0  0  0
    1.1772   -1.6856    2.0588 C   0  0  2  0  0  0  0  0  0  0  0  0
   -0.1359   -2.2720    2.6202 C   0  0  2  0  0  0  0  0  0  0  0  0
   -1.2966   -1.5540    2.0488 N   0  0  1  0  0  0  0  0  0  0  0  0
   -2.6058   -1.9637    2.5888 C   0  0  0  0  0  0  0  0  0  0  0  0
    2.1974   -1.7382   -1.5232 C   0  0  0  0  0  0  0  0  0  0  0  0
    3.2942   -2.6059   -3.5471 C   0  0  0  0  0  0  0  0  0  0  0  0
    3.3565   -2.1855   -2.2052 C   0  0  0  0  0  0  0  0  0  0  0  0
    0.9636   -1.7720   -2.2220 C   0  0  0  0  0  0  0  0  0  0  0  0
    0.8949   -2.2052   -3.5593 C   0  0  0  0  0  0  0  0  0  0  0  0
    2.0634   -2.6115   -4.2247 C   0  0  0  0  0  0  0  0  0  0  0  0
    3.1851   -1.6824    0.3440 H   0  0  0  0  0  0  0  0  0  0  0  0
    0.2505    0.4812   -0.3413 H   0  0  0  0  0  0  0  0  0  0  0  0
    0.2222    2.8713   -0.2653 H   0  0  0  0  0  0  0  0  0  0  0  0
    2.2761    4.1105    0.0808 H   0  0  0  0  0  0  0  0  0  0  0  0
    4.3609    2.9528    0.3116 H   0  0  0  0  0  0  0  0  0  0  0  0
    5.1084   -0.2825   -0.5995 H   0  0  0  0  0  0  0  0  0  0  0  0
    4.9201   -0.2845    1.1683 H   0  0  0  0  0  0  0  0  0  0  0  0
    5.7178    1.0557    0.3487 H   0  0  0  0  0  0  0  0  0  0  0  0
    1.2542   -0.6361    2.3633 H   0  0  0  0  0  0  0  0  0  0  0  0
    2.0233   -2.2404    2.4751 H   0  0  0  0  0  0  0  0  0  0  0  0
   -0.1316   -2.1784    3.7087 H   0  0  0  0  0  0  0  0  0  0  0  0
   -0.1982   -3.3318    2.3624 H   0  0  0  0  0  0  0  0  0  0  0  0
   -1.1802   -0.5645    2.2733 H   0  0  0  0  0  0  0  0  0  0  0  0
   -3.3844   -1.4246    2.0494 H   0  0  0  0  0  0  0  0  0  0  0  0
   -2.6804   -1.7142    3.6480 H   0  0  0  0  0  0  0  0  0  0  0  0
   -2.7686   -3.0332    2.4532 H   0  0  0  0  0  0  0  0  0  0  0  0
    4.1444   -2.9083   -4.0301 H   0  0  0  0  0  0  0  0  0  0  0  0
    4.2611   -2.2080   -1.7314 H   0  0  0  0  0  0  0  0  0  0  0  0
    0.0977   -1.4889   -1.7598 H   0  0  0  0  0  0  0  0  0  0  0  0
   -0.0054   -2.2281   -4.0450 H   0  0  0  0  0  0  0  0  0  0  0  0
    2.0167   -2.9151   -5.1994 H   0  0  0  0  0  0  0  0  0  0  0  0
  1  2  2  0  0  0  0 
  1  6  1  0  0  0  0 
  2  3  1  0  0  0  0 
  3  4  2  0  0  0  0 
  4  5  1  0  0  0  0 
  5  6  2  0  0  0  0 
  5  7  1  0  0  0  0 
  8  6  1  0  0  0  0 
  8  9  1  0  0  0  0 
  9 10  1  0  0  0  0 
 10 11  1  0  0  0  0 
 11 12  1  0  0  0  0 
 12 13  1  0  0  0  0 
  8 14  1  0  0  0  0 
 15 16  1  0  0  0  0 
 17 18  2  0  0  0  0 
 18 19  1  0  0  0  0 
 15 19  2  0  0  0  0 
 16 14  2  0  0  0  0 
 14 17  1  0  0  0  0 
  8 20  1  0  0  0  0 
  1 21  1  0  0  0  0 
  2 22  1  0  0  0  0 
  3 23  1  0  0  0  0 
  4 24  1  0  0  0  0 
  7 25  1  0  0  0  0 
  7 26  1  0  0  0  0 
  7 27  1  0  0  0  0 
 10 28  1  0  0  0  0 
 10 29  1  0  0  0  0 
 11 30  1  0  0  0  0 
 11 31  1  0  0  0  0 
 12 32  1  0  0  0  0 
 13 33  1  0  0  0  0 
 13 34  1  0  0  0  0 
 13 35  1  0  0  0  0 
 15 36  1  0  0  0  0 
 16 37  1  0  0  0  0 
 17 38  1  0  0  0  0 
 18 39  1  0  0  0  0 
 19 40  1  0  0  0  0 
M  END
> <cdk:Title>
tofenacin

> <Conformer>
1

> <SuperDrugID>
SD002423

$$$$
