cinnoxicam
  CDK     0628171802

 52 55  0  0  0  0  0  0  0  0999 V2000
   -4.1959   -4.0919    2.6437 O   0  0  0  0  0  0  0  0  0  0  0  0
   -3.8461   -4.0638    1.3154 C   0  0  0  0  0  0  0  0  0  0  0  0
   -3.4659   -4.3489    3.7507 C   0  0  0  0  0  0  0  0  0  0  0  0
   -4.7420   -3.6353    0.3477 C   0  0  0  0  0  0  0  0  0  0  0  0
   -2.6786   -4.3413    0.9488 O   0  0  0  0  0  0  0  0  0  0  0  0
   -3.6961   -3.3989    4.7749 C   0  0  0  0  0  0  0  0  0  0  0  0
   -2.5603   -5.3668    3.8518 C   0  0  0  0  0  0  0  0  0  0  0  0
   -5.9257   -3.0478    0.6139 C   0  0  0  0  0  0  0  0  0  0  0  0
   -2.6730   -3.0331    5.6853 C   0  0  0  0  0  0  0  0  0  0  0  0
   -4.9544   -2.7549    4.9275 C   0  0  0  0  0  0  0  0  0  0  0  0
   -2.5215   -6.3918    2.9044 C   0  0  0  0  0  0  0  0  0  0  0  0
   -1.6779   -5.4286    4.8930 N   0  0  0  0  0  0  0  0  0  0  0  0
   -6.8014   -2.4634   -0.3159 C   0  0  0  0  0  0  0  0  0  0  0  0
   -1.1601   -3.9306    5.5737 S   0  0  1  0  0  0  0  0  0  0  0  0
   -2.8610   -2.0395    6.6623 C   0  0  0  0  0  0  0  0  0  0  0  0
   -5.1605   -1.7700    5.9124 C   0  0  0  0  0  0  0  0  0  0  0  0
   -1.3161   -6.7895    2.4007 N   0  0  0  0  0  0  0  0  0  0  0  0
   -3.5972   -6.9266    2.5406 O   0  0  0  0  0  0  0  0  0  0  0  0
   -1.1972   -6.6284    5.5262 C   0  0  0  0  0  0  0  0  0  0  0  0
   -6.4222   -2.0965   -1.6363 C   0  0  0  0  0  0  0  0  0  0  0  0
   -8.1283   -2.1596    0.0887 C   0  0  0  0  0  0  0  0  0  0  0  0
   -0.1538   -3.1954    4.5645 O   0  0  0  0  0  0  0  0  0  0  0  0
   -0.4836   -4.1226    7.0149 O   0  0  0  0  0  0  0  0  0  0  0  0
   -4.1095   -1.4061    6.7716 C   0  0  0  0  0  0  0  0  0  0  0  0
   -1.0383   -7.8704    1.6197 C   0  0  0  0  0  0  0  0  0  0  0  0
   -7.3233   -1.4467   -2.5019 C   0  0  0  0  0  0  0  0  0  0  0  0
   -9.0289   -1.5068   -0.7733 C   0  0  0  0  0  0  0  0  0  0  0  0
   -1.7376   -9.1001    1.6601 C   0  0  0  0  0  0  0  0  0  0  0  0
    0.0358   -7.7595    0.7927 N   0  0  0  0  0  0  0  0  0  0  0  0
   -8.6236   -1.1427   -2.0669 C   0  0  0  0  0  0  0  0  0  0  0  0
   -1.3059  -10.1685    0.8525 C   0  0  0  0  0  0  0  0  0  0  0  0
    0.4727   -8.7672   -0.0066 C   0  0  0  0  0  0  0  0  0  0  0  0
   -0.1894  -10.0078    0.0137 C   0  0  0  0  0  0  0  0  0  0  0  0
   -4.4595   -3.7417   -0.5979 H   0  0  0  0  0  0  0  0  0  0  0  0
   -6.1993   -2.9969    1.5696 H   0  0  0  0  0  0  0  0  0  0  0  0
   -5.7450   -2.9983    4.3254 H   0  0  0  0  0  0  0  0  0  0  0  0
   -2.0977   -1.7841    7.2938 H   0  0  0  0  0  0  0  0  0  0  0  0
   -6.0747   -1.3201    6.0066 H   0  0  0  0  0  0  0  0  0  0  0  0
   -0.5592   -6.2287    2.6306 H   0  0  0  0  0  0  0  0  0  0  0  0
   -0.1059   -6.6437    5.5142 H   0  0  0  0  0  0  0  0  0  0  0  0
   -1.5416   -6.6428    6.5618 H   0  0  0  0  0  0  0  0  0  0  0  0
   -1.5568   -7.5436    5.0553 H   0  0  0  0  0  0  0  0  0  0  0  0
   -5.4799   -2.2749   -1.9883 H   0  0  0  0  0  0  0  0  0  0  0  0
   -8.4560   -2.4055    1.0258 H   0  0  0  0  0  0  0  0  0  0  0  0
   -4.2518   -0.6870    7.4823 H   0  0  0  0  0  0  0  0  0  0  0  0
   -7.0286   -1.1881   -3.4472 H   0  0  0  0  0  0  0  0  0  0  0  0
   -9.9780   -1.2926   -0.4579 H   0  0  0  0  0  0  0  0  0  0  0  0
   -2.5351   -9.2366    2.2830 H   0  0  0  0  0  0  0  0  0  0  0  0
   -9.2713   -0.6550   -2.6895 H   0  0  0  0  0  0  0  0  0  0  0  0
   -1.7986  -11.0645    0.8794 H   0  0  0  0  0  0  0  0  0  0  0  0
    1.2833   -8.6215   -0.6118 H   0  0  0  0  0  0  0  0  0  0  0  0
    0.1368  -10.7811   -0.5695 H   0  0  0  0  0  0  0  0  0  0  0  0
  1  2  1  0  0  0  0 
  1  3  1  0  0  0  0 
  2  4  1  0  0  0  0 
  2  5  2  0  0  0  0 
  3  6  1  0  0  0  0 
  3  7  2  0  0  0  0 
  4  8  2  0  0  0  0 
  6  9  2  0  0  0  0 
  6 10  1  0  0  0  0 
  7 11  1  0  0  0  0 
  7 12  1  0  0  0  0 
  8 13  1  0  0  0  0 
  9 14  1  0  0  0  0 
  9 15  1  0  0  0  0 
 10 16  2  0  0  0  0 
 11 17  1  0  0  0  0 
 11 18  2  0  0  0  0 
 12 14  1  0  0  0  0 
 12 19  1  0  0  0  0 
 13 20  2  0  0  0  0 
 13 21  1  0  0  0  0 
 14 22  2  0  0  0  0 
 14 23  2  0  0  0  0 
 15 24  2  0  0  0  0 
 16 24  1  0  0  0  0 
 17 25  1  0  0  0  0 
 20 26  1  0  0  0  0 
 21 27  2  0  0  0  0 
 25 28  2  0  0  0  0 
 25 29  1  0  0  0  0 
 26 30  2  0  0  0  0 
 27 30  1  0  0  0  0 
 28 31  1  0  0  0  0 
 29 32  2  0  0  0  0 
 31 33  2  0  0  0  0 
 32 33  1  0  0  0  0 
  4 34  1  0  0  0  0 
  8 35  1  0  0  0  0 
 10 36  1  0  0  0  0 
 15 37  1  0  0  0  0 
 16 38  1  0  0  0  0 
 17 39  1  0  0  0  0 
 19 40  1  0  0  0  0 
 19 41  1  0  0  0  0 
 19 42  1  0  0  0  0 
 20 43  1  0  0  0  0 
 21 44  1  0  0  0  0 
 24 45  1  0  0  0  0 
 26 46  1  0  0  0  0 
 27 47  1  0  0  0  0 
 28 48  1  0  0  0  0 
 30 49  1  0  0  0  0 
 31 50  1  0  0  0  0 
 32 51  1  0  0  0  0 
 33 52  1  0  0  0  0 
M  END
> <cdk:Title>
cinnoxicam

> <Conformer>
1

> <SuperDrugID>
SD000575

$$$$
