clortermine
  CDK     0628171802

 26 26  0  0  0  0  0  0  0  0999 V2000
    1.1941    0.9582    0.2517 C   0  0  0  0  0  0  0  0  0  0  0  0
    2.0945    0.3004   -0.6040 C   0  0  0  0  0  0  0  0  0  0  0  0
    2.7775   -0.8431   -0.1608 C   0  0  0  0  0  0  0  0  0  0  0  0
    2.5626   -1.3201    1.1441 C   0  0  0  0  0  0  0  0  0  0  0  0
    1.6526   -0.6704    2.0078 C   0  0  0  0  0  0  0  0  0  0  0  0
    0.9401    0.4812    1.5626 C   0  0  0  0  0  0  0  0  0  0  0  0
    1.4565   -1.3430    3.5562 Cl  0  0  0  0  0  0  0  0  0  0  0  0
   -0.0614    1.2115    2.4073 C   0  0  2  0  0  0  0  0  0  0  0  0
   -1.5647    0.8540    2.1339 C   0  0  2  0  0  0  0  0  0  0  0  0
   -1.9199    1.1429    0.7303 N   0  0  1  0  0  0  0  0  0  0  0  0
   -2.4936    1.7377    3.0180 C   0  0  0  0  0  0  0  0  0  0  0  0
   -1.8567   -0.6499    2.4116 C   0  0  0  0  0  0  0  0  0  0  0  0
    0.7184    1.7941   -0.0976 H   0  0  0  0  0  0  0  0  0  0  0  0
    2.2496    0.6539   -1.5497 H   0  0  0  0  0  0  0  0  0  0  0  0
    3.4278   -1.3274   -0.7877 H   0  0  0  0  0  0  0  0  0  0  0  0
    3.0737   -2.1518    1.4553 H   0  0  0  0  0  0  0  0  0  0  0  0
    0.0833    2.2865    2.2626 H   0  0  0  0  0  0  0  0  0  0  0  0
    0.1413    1.0416    3.4666 H   0  0  0  0  0  0  0  0  0  0  0  0
   -2.9130    0.9254    0.6182 H   0  0  0  0  0  0  0  0  0  0  0  0
   -1.8256    2.1522    0.5946 H   0  0  0  0  0  0  0  0  0  0  0  0
   -3.5442    1.5100    2.8186 H   0  0  0  0  0  0  0  0  0  0  0  0
   -2.3000    1.5669    4.0799 H   0  0  0  0  0  0  0  0  0  0  0  0
   -2.3277    2.7963    2.8022 H   0  0  0  0  0  0  0  0  0  0  0  0
   -2.9143   -0.8780    2.2586 H   0  0  0  0  0  0  0  0  0  0  0  0
   -1.5963   -0.9072    3.4397 H   0  0  0  0  0  0  0  0  0  0  0  0
   -1.2735   -1.2850    1.7440 H   0  0  0  0  0  0  0  0  0  0  0  0
  1  2  2  0  0  0  0 
  2  3  1  0  0  0  0 
  3  4  2  0  0  0  0 
  4  5  1  0  0  0  0 
  5  6  2  0  0  0  0 
  1  6  1  0  0  0  0 
  5  7  1  0  0  0  0 
  6  8  1  0  0  0  0 
  8  9  1  0  0  0  0 
  9 10  1  0  0  0  0 
  9 11  1  0  0  0  0 
  9 12  1  0  0  0  0 
  1 13  1  0  0  0  0 
  2 14  1  0  0  0  0 
  3 15  1  0  0  0  0 
  4 16  1  0  0  0  0 
  8 17  1  0  0  0  0 
  8 18  1  0  0  0  0 
 10 19  1  0  0  0  0 
 10 20  1  0  0  0  0 
 11 21  1  0  0  0  0 
 11 22  1  0  0  0  0 
 11 23  1  0  0  0  0 
 12 24  1  0  0  0  0 
 12 25  1  0  0  0  0 
 12 26  1  0  0  0  0 
M  END
> <cdk:Title>
clortermine

> <Conformer>
1

> <SuperDrugID>
SD000632

$$$$
