cyclomethycaine
  CDK     0628171801

 59 61  0  0  0  0  0  0  0  0999 V2000
    4.3206   -0.4073  -14.0111 C   0  0  0  0  0  0  0  0  0  0  0  0
    4.9723   -1.4173  -13.0198 C   0  0  2  0  0  0  0  0  0  0  0  0
    5.8294   -2.4314  -13.8470 C   0  0  2  0  0  0  0  0  0  0  0  0
    6.4717   -3.5310  -12.9686 C   0  0  2  0  0  0  0  0  0  0  0  0
    5.4112   -4.2332  -12.0912 C   0  0  2  0  0  0  0  0  0  0  0  0
    4.6026   -3.2014  -11.2710 C   0  0  2  0  0  0  0  0  0  0  0  0
    3.9798   -2.1496  -12.1428 N   0  0  1  0  0  0  0  0  0  0  0  0
    2.9459   -1.3305  -11.4180 C   0  0  1  0  0  0  0  0  0  0  0  0
    3.4805   -0.3599  -10.3259 C   0  0  1  0  0  0  0  0  0  0  0  0
    2.3530    0.4662   -9.6603 C   0  0  2  0  0  0  0  0  0  0  0  0
    1.9379    1.5297  -10.5247 O   0  0  0  0  0  0  0  0  0  0  0  0
    0.9222    2.4189  -10.3084 C   0  0  0  0  0  0  0  0  0  0  0  0
    0.1655    2.2463   -9.3214 O   0  0  0  0  0  0  0  0  0  0  0  0
    0.7366    3.5172  -11.1935 C   0  0  0  0  0  0  0  0  0  0  0  0
   -0.4003    4.3595  -11.0998 C   0  0  0  0  0  0  0  0  0  0  0  0
   -0.5444    5.4775  -11.9426 C   0  0  0  0  0  0  0  0  0  0  0  0
    0.4397    5.7801  -12.9045 C   0  0  0  0  0  0  0  0  0  0  0  0
    0.2682    6.8665  -13.7256 O   0  0  0  0  0  0  0  0  0  0  0  0
    1.1929    7.9700  -13.5514 C   0  0  2  0  0  0  0  0  0  0  0  0
    0.9629    8.7409  -12.2155 C   0  0  1  0  0  0  0  0  0  0  0  0
    1.8139   10.0370  -12.1258 C   0  0  2  0  0  0  0  0  0  0  0  0
    1.5989   10.9555  -13.3560 C   0  0  2  0  0  0  0  0  0  0  0  0
    1.8690   10.1959  -14.6788 C   0  0  1  0  0  0  0  0  0  0  0  0
    1.0068    8.9102  -14.7770 C   0  0  1  0  0  0  0  0  0  0  0  0
    1.5561    4.9281  -13.0317 C   0  0  0  0  0  0  0  0  0  0  0  0
    1.7061    3.8199  -12.1810 C   0  0  0  0  0  0  0  0  0  0  0  0
    3.5662   -0.9055  -14.6248 H   0  0  0  0  0  0  0  0  0  0  0  0
    3.8503    0.4158  -13.4749 H   0  0  0  0  0  0  0  0  0  0  0  0
    5.0735    0.0260  -14.6726 H   0  0  0  0  0  0  0  0  0  0  0  0
    5.6578   -0.8534  -12.3781 H   0  0  0  0  0  0  0  0  0  0  0  0
    6.6313   -1.8995  -14.3684 H   0  0  0  0  0  0  0  0  0  0  0  0
    5.2023   -2.9171  -14.6009 H   0  0  0  0  0  0  0  0  0  0  0  0
    7.2389   -3.0844  -12.3284 H   0  0  0  0  0  0  0  0  0  0  0  0
    6.9572   -4.2732  -13.6103 H   0  0  0  0  0  0  0  0  0  0  0  0
    5.9071   -4.9310  -11.4116 H   0  0  0  0  0  0  0  0  0  0  0  0
    4.7308   -4.8056  -12.7281 H   0  0  0  0  0  0  0  0  0  0  0  0
    5.2594   -2.7387  -10.5278 H   0  0  0  0  0  0  0  0  0  0  0  0
    3.8282   -3.7550  -10.7333 H   0  0  0  0  0  0  0  0  0  0  0  0
    2.3580   -0.7662  -12.1450 H   0  0  0  0  0  0  0  0  0  0  0  0
    2.2331   -2.0122  -10.9462 H   0  0  0  0  0  0  0  0  0  0  0  0
    3.9851   -0.9365   -9.5495 H   0  0  0  0  0  0  0  0  0  0  0  0
    4.2122    0.3263  -10.7595 H   0  0  0  0  0  0  0  0  0  0  0  0
    2.7302    0.9058   -8.7339 H   0  0  0  0  0  0  0  0  0  0  0  0
    1.5042   -0.1748   -9.4146 H   0  0  0  0  0  0  0  0  0  0  0  0
   -1.1393    4.1697  -10.4146 H   0  0  0  0  0  0  0  0  0  0  0  0
   -1.3690    6.0738  -11.8512 H   0  0  0  0  0  0  0  0  0  0  0  0
    2.2272    7.6078  -13.5738 H   0  0  0  0  0  0  0  0  0  0  0  0
   -0.0961    8.9962  -12.1211 H   0  0  0  0  0  0  0  0  0  0  0  0
    1.2253    8.0926  -11.3756 H   0  0  0  0  0  0  0  0  0  0  0  0
    2.8718    9.7694  -12.0564 H   0  0  0  0  0  0  0  0  0  0  0  0
    1.5500   10.5827  -11.2162 H   0  0  0  0  0  0  0  0  0  0  0  0
    2.2695   11.8150  -13.2877 H   0  0  0  0  0  0  0  0  0  0  0  0
    0.5721   11.3318  -13.3560 H   0  0  0  0  0  0  0  0  0  0  0  0
    1.6467   10.8508  -15.5255 H   0  0  0  0  0  0  0  0  0  0  0  0
    2.9282    9.9298  -14.7344 H   0  0  0  0  0  0  0  0  0  0  0  0
    1.2823    8.3713  -15.6868 H   0  0  0  0  0  0  0  0  0  0  0  0
   -0.0454    9.1942  -14.8650 H   0  0  0  0  0  0  0  0  0  0  0  0
    2.2679    5.1160  -13.7416 H   0  0  0  0  0  0  0  0  0  0  0  0
    2.5417    3.2422  -12.2943 H   0  0  0  0  0  0  0  0  0  0  0  0
  2  1  1  0  0  0  0 
  2  3  1  0  0  0  0 
  3  4  1  0  0  0  0 
  4  5  1  0  0  0  0 
  5  6  1  0  0  0  0 
  6  7  1  0  0  0  0 
  2  7  1  0  0  0  0 
  7  8  1  0  0  0  0 
  8  9  1  0  0  0  0 
  9 10  1  0  0  0  0 
 10 11  1  0  0  0  0 
 11 12  1  0  0  0  0 
 12 13  2  0  0  0  0 
 12 14  1  0  0  0  0 
 14 15  2  0  0  0  0 
 15 16  1  0  0  0  0 
 16 17  2  0  0  0  0 
 17 18  1  0  0  0  0 
 18 19  1  0  0  0  0 
 19 20  1  0  0  0  0 
 20 21  1  0  0  0  0 
 21 22  1  0  0  0  0 
 22 23  1  0  0  0  0 
 23 24  1  0  0  0  0 
 19 24  1  0  0  0  0 
 17 25  1  0  0  0  0 
 25 26  2  0  0  0  0 
 14 26  1  0  0  0  0 
  1 27  1  0  0  0  0 
  1 28  1  0  0  0  0 
  1 29  1  0  0  0  0 
  2 30  1  0  0  0  0 
  3 31  1  0  0  0  0 
  3 32  1  0  0  0  0 
  4 33  1  0  0  0  0 
  4 34  1  0  0  0  0 
  5 35  1  0  0  0  0 
  5 36  1  0  0  0  0 
  6 37  1  0  0  0  0 
  6 38  1  0  0  0  0 
  8 39  1  0  0  0  0 
  8 40  1  0  0  0  0 
  9 41  1  0  0  0  0 
  9 42  1  0  0  0  0 
 10 43  1  0  0  0  0 
 10 44  1  0  0  0  0 
 15 45  1  0  0  0  0 
 16 46  1  0  0  0  0 
 19 47  1  0  0  0  0 
 20 48  1  0  0  0  0 
 20 49  1  0  0  0  0 
 21 50  1  0  0  0  0 
 21 51  1  0  0  0  0 
 22 52  1  0  0  0  0 
 22 53  1  0  0  0  0 
 23 54  1  0  0  0  0 
 23 55  1  0  0  0  0 
 24 56  1  0  0  0  0 
 24 57  1  0  0  0  0 
 25 58  1  0  0  0  0 
 26 59  1  0  0  0  0 
M  END
> <cdk:Title>
cyclomethycaine

> <Conformer>
1

> <SuperDrugID>
SD002707

$$$$
