clindamycin phosphate
  CDK     0628171801

 65 66  0  0  0  0  0  0  0  0999 V2000
    0.1056   -1.4553   -0.7694 C   0  0  2  0  0  0  0  0  0  0  0  0
    0.4346   -2.3101    0.3384 N   0  0  0  0  0  0  0  0  0  0  0  0
    1.4105   -0.7661   -1.2933 C   0  0  2  0  0  0  0  0  0  0  0  0
   -1.0081   -0.4326   -0.3288 C   0  0  1  0  0  0  0  0  0  0  0  0
    0.4001   -3.6759    0.3634 C   0  0  0  0  0  0  0  0  0  0  0  0
    2.4253   -1.7762   -1.8936 C   0  0  0  0  0  0  0  0  0  0  0  0
    2.2276    0.1896   -0.0476 Cl  0  0  0  0  0  0  0  0  0  0  0  0
   -1.3151    0.5402   -1.3632 O   0  0  0  0  0  0  0  0  0  0  0  0
   -2.3406   -1.0298    0.2393 C   0  0  2  0  0  0  0  0  0  0  0  0
    0.1446   -4.3158   -0.6845 O   0  0  0  0  0  0  0  0  0  0  0  0
    0.6217   -4.4553    1.6138 C   0  0  2  0  0  0  0  0  0  0  0  0
   -2.1594    0.1011   -2.4545 C   0  0  2  0  0  0  0  0  0  0  0  0
   -2.1570   -2.0431    1.2257 O   0  0  0  0  0  0  0  0  0  0  0  0
   -3.2719   -1.5519   -0.8840 C   0  0  1  0  0  0  0  0  0  0  0  0
    0.4477   -3.6581    2.9259 C   0  0  2  0  0  0  0  0  0  0  0  0
    1.9984   -4.9936    1.7650 N   0  0  2  0  0  0  0  0  0  0  0  0
   -2.4129    1.5045   -3.5975 S   0  0  0  0  0  0  0  0  0  0  0  0
   -3.5312   -0.4282   -1.9333 C   0  0  1  0  0  0  0  0  0  0  0  0
   -2.7323   -2.7169   -1.5050 O   0  0  0  0  0  0  0  0  0  0  0  0
    1.0875   -4.5580    4.0070 C   0  0  2  0  0  0  0  0  0  0  0  0
    2.3803   -6.1197    0.8696 C   0  0  0  0  0  0  0  0  0  0  0  0
    2.2186   -5.2696    3.2141 C   0  0  1  0  0  0  0  0  0  0  0  0
   -0.7363    2.0348   -4.0561 C   0  0  0  0  0  0  0  0  0  0  0  0
   -4.2492    0.7107   -1.3966 O   0  0  0  0  0  0  0  0  0  0  0  0
    0.0839   -5.5521    4.6795 C   0  0  1  0  0  0  0  0  0  0  0  0
   -5.7662    0.5234   -0.9324 P   0  0  2  0  0  0  0  0  0  0  0  0
   -0.9215   -4.8596    5.6408 C   0  0  2  0  0  0  0  0  0  0  0  0
   -5.8287    0.0339    0.4488 O   0  0  0  0  0  0  0  0  0  0  0  0
   -6.5398   -0.4570   -1.9060 O   0  0  0  0  0  0  0  0  0  0  0  0
   -6.4622    1.9447   -1.0206 O   0  0  0  0  0  0  0  0  0  0  0  0
   -1.8848   -5.8531    6.3250 C   0  0  0  0  0  0  0  0  0  0  0  0
   -0.2944   -2.0427   -1.5984 H   0  0  0  0  0  0  0  0  0  0  0  0
   -0.5843    0.1557    0.4896 H   0  0  0  0  0  0  0  0  0  0  0  0
    0.6786   -1.8562    1.1593 H   0  0  0  0  0  0  0  0  0  0  0  0
    1.1416   -0.0749   -2.0963 H   0  0  0  0  0  0  0  0  0  0  0  0
    3.2908   -1.2484   -2.2982 H   0  0  0  0  0  0  0  0  0  0  0  0
    1.9631   -2.3411   -2.7060 H   0  0  0  0  0  0  0  0  0  0  0  0
    2.7751   -2.4796   -1.1348 H   0  0  0  0  0  0  0  0  0  0  0  0
   -2.8665   -0.2188    0.7548 H   0  0  0  0  0  0  0  0  0  0  0  0
   -0.1091   -5.2758    1.6248 H   0  0  0  0  0  0  0  0  0  0  0  0
   -1.6528   -0.6812   -3.0244 H   0  0  0  0  0  0  0  0  0  0  0  0
   -1.6343   -1.6153    1.9369 H   0  0  0  0  0  0  0  0  0  0  0  0
   -4.2149   -1.8728   -0.4416 H   0  0  0  0  0  0  0  0  0  0  0  0
   -0.6040   -3.4345    3.1089 H   0  0  0  0  0  0  0  0  0  0  0  0
    1.0040   -2.7159    2.8923 H   0  0  0  0  0  0  0  0  0  0  0  0
   -4.0791   -0.8461   -2.7854 H   0  0  0  0  0  0  0  0  0  0  0  0
   -3.3902   -2.9749   -2.1845 H   0  0  0  0  0  0  0  0  0  0  0  0
    1.5342   -3.9349    4.7903 H   0  0  0  0  0  0  0  0  0  0  0  0
    2.2031   -5.8658   -0.1766 H   0  0  0  0  0  0  0  0  0  0  0  0
    3.4471   -6.3263    0.9842 H   0  0  0  0  0  0  0  0  0  0  0  0
    1.8168   -7.0250    1.1111 H   0  0  0  0  0  0  0  0  0  0  0  0
    2.2406   -6.3419    3.4413 H   0  0  0  0  0  0  0  0  0  0  0  0
    3.1917   -4.8547    3.4887 H   0  0  0  0  0  0  0  0  0  0  0  0
   -0.8041    2.9010   -4.7153 H   0  0  0  0  0  0  0  0  0  0  0  0
   -0.2230    1.2268   -4.5773 H   0  0  0  0  0  0  0  0  0  0  0  0
   -0.1739    2.3122   -3.1637 H   0  0  0  0  0  0  0  0  0  0  0  0
   -0.4667   -6.1011    3.9091 H   0  0  0  0  0  0  0  0  0  0  0  0
    0.6550   -6.2809    5.2627 H   0  0  0  0  0  0  0  0  0  0  0  0
   -1.5255   -4.1322    5.0958 H   0  0  0  0  0  0  0  0  0  0  0  0
   -0.3661   -4.3245    6.4154 H   0  0  0  0  0  0  0  0  0  0  0  0
   -6.5005   -0.0231   -2.7837 H   0  0  0  0  0  0  0  0  0  0  0  0
   -6.4240    2.1808   -1.9721 H   0  0  0  0  0  0  0  0  0  0  0  0
   -2.4664   -6.3967    5.5787 H   0  0  0  0  0  0  0  0  0  0  0  0
   -1.3290   -6.5683    6.9329 H   0  0  0  0  0  0  0  0  0  0  0  0
   -2.5746   -5.3083    6.9721 H   0  0  0  0  0  0  0  0  0  0  0  0
  1  2  1  0  0  0  0 
  1  3  1  0  0  0  0 
  4  1  1  0  0  0  0 
  1 32  1  0  0  0  0 
  2  5  1  0  0  0  0 
  3  6  1  0  0  0  0 
  3  7  1  0  0  0  0 
  4  8  1  0  0  0  0 
  9  4  1  0  0  0  0 
  4 33  1  0  0  0  0 
  5 10  2  0  0  0  0 
 12  8  1  0  0  0  0 
  9 13  1  0  0  0  0 
 14  9  1  0  0  0  0 
 11  5  1  0  0  0  0 
 11 15  1  0  0  0  0 
 11 16  1  0  0  0  0 
 12 17  1  0  0  0  0 
 18 12  1  0  0  0  0 
 14 18  1  0  0  0  0 
 14 19  1  0  0  0  0 
 20 15  1  0  0  0  0 
 16 21  1  0  0  0  0 
 16 22  1  0  0  0  0 
 17 23  1  0  0  0  0 
 18 24  1  0  0  0  0 
 20 22  1  0  0  0  0 
 20 25  1  0  0  0  0 
 24 26  1  0  0  0  0 
 25 27  1  0  0  0  0 
 26 28  2  0  0  0  0 
 26 29  1  0  0  0  0 
 26 30  1  0  0  0  0 
 27 31  1  0  0  0  0 
  2 34  1  0  0  0  0 
  3 35  1  0  0  0  0 
  6 36  1  0  0  0  0 
  6 37  1  0  0  0  0 
  6 38  1  0  0  0  0 
  9 39  1  0  0  0  0 
 11 40  1  0  0  0  0 
 12 41  1  0  0  0  0 
 13 42  1  0  0  0  0 
 14 43  1  0  0  0  0 
 15 44  1  0  0  0  0 
 15 45  1  0  0  0  0 
 18 46  1  0  0  0  0 
 19 47  1  0  0  0  0 
 20 48  1  0  0  0  0 
 21 49  1  0  0  0  0 
 21 50  1  0  0  0  0 
 21 51  1  0  0  0  0 
 22 52  1  0  0  0  0 
 22 53  1  0  0  0  0 
 23 54  1  0  0  0  0 
 23 55  1  0  0  0  0 
 23 56  1  0  0  0  0 
 25 57  1  0  0  0  0 
 25 58  1  0  0  0  0 
 27 59  1  0  0  0  0 
 27 60  1  0  0  0  0 
 29 61  1  0  0  0  0 
 30 62  1  0  0  0  0 
 31 63  1  0  0  0  0 
 31 64  1  0  0  0  0 
 31 65  1  0  0  0  0 
M  END
> <cdk:Title>
clindamycin phosphate

> <Conformer>
1

> <SuperDrugID>
SD003296

$$$$
