oxophenarsine
  CDK     0628171801

 16 16  0  0  0  0  0  0  0  0999 V2000
   -0.5932    3.2265   -4.1194 As  0  0  0  0  0  0  0  0  0  0  0  0
   -1.8340    2.2346   -4.8882 O   0  0  0  0  0  0  0  0  0  0  0  0
    0.2969    1.8533   -3.1229 C   0  0  0  0  0  0  0  0  0  0  0  0
   -0.3811    1.1428   -2.1120 C   0  0  0  0  0  0  0  0  0  0  0  0
    1.6457    1.5573   -3.3987 C   0  0  0  0  0  0  0  0  0  0  0  0
    0.2877    0.1435   -1.3741 C   0  0  0  0  0  0  0  0  0  0  0  0
    2.3149    0.5574   -2.6697 C   0  0  0  0  0  0  0  0  0  0  0  0
   -0.3853   -0.5227   -0.4143 N   0  0  0  0  0  0  0  0  0  0  0  0
    1.6440   -0.1461   -1.6503 C   0  0  0  0  0  0  0  0  0  0  0  0
    2.3289   -1.0956   -0.9631 O   0  0  0  0  0  0  0  0  0  0  0  0
   -1.3642    1.3506   -1.9153 H   0  0  0  0  0  0  0  0  0  0  0  0
    2.1442    2.0665   -4.1320 H   0  0  0  0  0  0  0  0  0  0  0  0
    3.2923    0.3465   -2.8825 H   0  0  0  0  0  0  0  0  0  0  0  0
   -1.3156   -0.3094   -0.2403 H   0  0  0  0  0  0  0  0  0  0  0  0
    0.0542   -1.2162    0.1030 H   0  0  0  0  0  0  0  0  0  0  0  0
    1.7988   -1.2859   -0.1624 H   0  0  0  0  0  0  0  0  0  0  0  0
  1  2  2  0  0  0  0 
  1  3  1  0  0  0  0 
  3  4  2  0  0  0  0 
  3  5  1  0  0  0  0 
  4  6  1  0  0  0  0 
  5  7  2  0  0  0  0 
  6  8  1  0  0  0  0 
  6  9  2  0  0  0  0 
  7  9  1  0  0  0  0 
  9 10  1  0  0  0  0 
  4 11  1  0  0  0  0 
  5 12  1  0  0  0  0 
  7 13  1  0  0  0  0 
  8 14  1  0  0  0  0 
  8 15  1  0  0  0  0 
 10 16  1  0  0  0  0 
M  END
> <cdk:Title>
oxophenarsine

> <Conformer>
1

> <SuperDrugID>
SD002937

$$$$
