levamisole
  CDK     0628171801

 26 28  0  0  0  0  0  0  0  0999 V2000
   -4.4208   -3.3803    1.2285 C   0  0  1  0  0  0  0  0  0  0  0  0
   -3.3452   -2.7294    2.1531 C   0  0  2  0  0  0  0  0  0  0  0  0
   -2.6549   -1.6839    1.4428 N   0  0  0  0  0  0  0  0  0  0  0  0
   -1.5650   -0.8768    1.8447 C   0  0  1  0  0  0  0  0  0  0  0  0
   -1.3761    0.0172    0.5776 C   0  0  1  0  0  0  0  0  0  0  0  0
   -2.3610   -0.4324   -0.2976 N   0  0  0  0  0  0  0  0  0  0  0  0
   -3.0299   -1.3693    0.2447 C   0  0  0  0  0  0  0  0  0  0  0  0
   -4.3512   -2.3343   -0.2821 S   0  0  0  0  0  0  0  0  0  0  0  0
   -1.5022    1.4907    0.8063 C   0  0  0  0  0  0  0  0  0  0  0  0
   -0.4650    2.3753    0.4172 C   0  0  0  0  0  0  0  0  0  0  0  0
   -0.5839    3.7634    0.6153 C   0  0  0  0  0  0  0  0  0  0  0  0
   -1.7360    4.2896    1.2256 C   0  0  0  0  0  0  0  0  0  0  0  0
   -2.7734    3.4285    1.6242 C   0  0  0  0  0  0  0  0  0  0  0  0
   -2.6636    2.0434    1.4033 C   0  0  0  0  0  0  0  0  0  0  0  0
   -4.1558   -4.4061    0.9714 H   0  0  0  0  0  0  0  0  0  0  0  0
   -5.4199   -3.3490    1.6709 H   0  0  0  0  0  0  0  0  0  0  0  0
   -2.6295   -3.4896    2.4751 H   0  0  0  0  0  0  0  0  0  0  0  0
   -3.8240   -2.3054    3.0390 H   0  0  0  0  0  0  0  0  0  0  0  0
   -1.8177   -0.3078    2.7420 H   0  0  0  0  0  0  0  0  0  0  0  0
   -0.6826   -1.4925    2.0392 H   0  0  0  0  0  0  0  0  0  0  0  0
   -0.4063   -0.2202    0.1265 H   0  0  0  0  0  0  0  0  0  0  0  0
    0.3861    2.0158   -0.0225 H   0  0  0  0  0  0  0  0  0  0  0  0
    0.1702    4.3884    0.3171 H   0  0  0  0  0  0  0  0  0  0  0  0
   -1.8196    5.2976    1.3756 H   0  0  0  0  0  0  0  0  0  0  0  0
   -3.6074    3.8110    2.0745 H   0  0  0  0  0  0  0  0  0  0  0  0
   -3.4407    1.4405    1.6840 H   0  0  0  0  0  0  0  0  0  0  0  0
  1  2  1  0  0  0  0 
  2  3  1  0  0  0  0 
  3  4  1  0  0  0  0 
  4  5  1  0  0  0  0 
  5  6  1  0  0  0  0 
  6  7  2  0  0  0  0 
  3  7  1  0  0  0  0 
  7  8  1  0  0  0  0 
  1  8  1  0  0  0  0 
  5  9  1  0  0  0  0 
  9 10  2  0  0  0  0 
 10 11  1  0  0  0  0 
 11 12  2  0  0  0  0 
 12 13  1  0  0  0  0 
 13 14  2  0  0  0  0 
  9 14  1  0  0  0  0 
  1 15  1  0  0  0  0 
  1 16  1  0  0  0  0 
  2 17  1  0  0  0  0 
  2 18  1  0  0  0  0 
  4 19  1  0  0  0  0 
  4 20  1  0  0  0  0 
  5 21  1  0  0  0  0 
 10 22  1  0  0  0  0 
 11 23  1  0  0  0  0 
 12 24  1  0  0  0  0 
 13 25  1  0  0  0  0 
 14 26  1  0  0  0  0 
M  END
> <cdk:Title>
levamisole

> <Conformer>
1

> <SuperDrugID>
SD001378

$$$$
