hexoprenaline
  CDK     0628171801

 62 63  0  0  0  0  0  0  0  0999 V2000
   -6.2355    1.2207   12.0366 C   0  0  1  0  0  0  0  0  0  0  0  0
   -4.8266    1.5680   11.4904 C   0  0  1  0  0  0  0  0  0  0  0  0
   -6.8618    0.2201   11.2321 O   0  0  0  0  0  0  0  0  0  0  0  0
   -6.1892    0.7762   13.4600 C   0  0  0  0  0  0  0  0  0  0  0  0
   -4.9368    2.0489   10.0946 N   0  0  2  0  0  0  0  0  0  0  0  0
   -5.7992   -0.5413   13.8007 C   0  0  0  0  0  0  0  0  0  0  0  0
   -6.5300    1.6678   14.5044 C   0  0  0  0  0  0  0  0  0  0  0  0
   -3.6803    2.5634    9.5082 C   0  0  1  0  0  0  0  0  0  0  0  0
   -5.7719   -0.9677   15.1430 C   0  0  0  0  0  0  0  0  0  0  0  0
   -6.4939    1.2494   15.8484 C   0  0  0  0  0  0  0  0  0  0  0  0
   -3.9120    2.9433    8.0247 C   0  0  1  0  0  0  0  0  0  0  0  0
   -5.4100   -2.2403   15.4477 O   0  0  0  0  0  0  0  0  0  0  0  0
   -6.1253   -0.0689   16.1709 C   0  0  0  0  0  0  0  0  0  0  0  0
   -2.6643    3.5996    7.3778 C   0  0  2  0  0  0  0  0  0  0  0  0
   -6.1159   -0.4450   17.4750 O   0  0  0  0  0  0  0  0  0  0  0  0
   -2.8712    3.9453    5.8787 C   0  0  2  0  0  0  0  0  0  0  0  0
   -1.6431    4.6798    5.2754 C   0  0  2  0  0  0  0  0  0  0  0  0
   -1.8423    5.0243    3.7792 C   0  0  2  0  0  0  0  0  0  0  0  0
   -0.6969    5.8418    3.3157 N   0  0  2  0  0  0  0  0  0  0  0  0
   -0.7776    6.3531    1.9263 C   0  0  2  0  0  0  0  0  0  0  0  0
   -1.7199    7.5773    1.7689 C   0  0  2  0  0  0  0  0  0  0  0  0
   -1.7672    7.9572    0.3934 O   0  0  0  0  0  0  0  0  0  0  0  0
   -1.3261    8.7285    2.6371 C   0  0  0  0  0  0  0  0  0  0  0  0
   -0.4243    9.7214    2.1850 C   0  0  0  0  0  0  0  0  0  0  0  0
   -1.8505    8.8447    3.9461 C   0  0  0  0  0  0  0  0  0  0  0  0
   -0.0969   10.8284    2.9951 C   0  0  0  0  0  0  0  0  0  0  0  0
   -1.5153    9.9405    4.7619 C   0  0  0  0  0  0  0  0  0  0  0  0
    0.7391   11.7895    2.5298 O   0  0  0  0  0  0  0  0  0  0  0  0
   -0.6448   10.9420    4.2878 C   0  0  0  0  0  0  0  0  0  0  0  0
   -0.3350   12.0142    5.0625 O   0  0  0  0  0  0  0  0  0  0  0  0
   -6.8588    2.1155   11.9478 H   0  0  0  0  0  0  0  0  0  0  0  0
   -4.3790    2.3471   12.1162 H   0  0  0  0  0  0  0  0  0  0  0  0
   -4.1856    0.6831   11.5179 H   0  0  0  0  0  0  0  0  0  0  0  0
   -6.9341    0.6157   10.3385 H   0  0  0  0  0  0  0  0  0  0  0  0
   -5.5992    2.8278   10.0995 H   0  0  0  0  0  0  0  0  0  0  0  0
   -5.5395   -1.2057   13.0669 H   0  0  0  0  0  0  0  0  0  0  0  0
   -6.8035    2.6322   14.2992 H   0  0  0  0  0  0  0  0  0  0  0  0
   -3.3562    3.4466   10.0665 H   0  0  0  0  0  0  0  0  0  0  0  0
   -2.8990    1.7999    9.5676 H   0  0  0  0  0  0  0  0  0  0  0  0
   -6.7370    1.9114   16.5889 H   0  0  0  0  0  0  0  0  0  0  0  0
   -4.1761    2.0395    7.4681 H   0  0  0  0  0  0  0  0  0  0  0  0
   -4.7525    3.6413    7.9629 H   0  0  0  0  0  0  0  0  0  0  0  0
   -5.1562   -2.6584   14.5981 H   0  0  0  0  0  0  0  0  0  0  0  0
   -1.8126    2.9201    7.4684 H   0  0  0  0  0  0  0  0  0  0  0  0
   -2.4277    4.5165    7.9242 H   0  0  0  0  0  0  0  0  0  0  0  0
   -5.9768   -1.4150   17.4761 H   0  0  0  0  0  0  0  0  0  0  0  0
   -3.7560    4.5803    5.7779 H   0  0  0  0  0  0  0  0  0  0  0  0
   -3.0519    3.0227    5.3202 H   0  0  0  0  0  0  0  0  0  0  0  0
   -0.7613    3.9650    5.3318 H   0  0  0  0  0  0  0  0  0  0  0  0
   -1.5502    5.6699    5.8261 H   0  0  0  0  0  0  0  0  0  0  0  0
   -2.7765    5.5770    3.6604 H   0  0  0  0  0  0  0  0  0  0  0  0
   -1.9023    4.1039    3.1922 H   0  0  0  0  0  0  0  0  0  0  0  0
    0.1276    5.2402    3.3649 H   0  0  0  0  0  0  0  0  0  0  0  0
   -1.0879    5.5527    1.2485 H   0  0  0  0  0  0  0  0  0  0  0  0
    0.2312    6.6503    1.6309 H   0  0  0  0  0  0  0  0  0  0  0  0
   -2.7393    7.2709    2.0091 H   0  0  0  0  0  0  0  0  0  0  0  0
   -2.4379    8.6723    0.3504 H   0  0  0  0  0  0  0  0  0  0  0  0
   -0.0052    9.6490    1.2560 H   0  0  0  0  0  0  0  0  0  0  0  0
   -2.4834    8.1320    4.3198 H   0  0  0  0  0  0  0  0  0  0  0  0
   -1.9094   10.0018    5.7026 H   0  0  0  0  0  0  0  0  0  0  0  0
    0.9941   11.5111    1.6243 H   0  0  0  0  0  0  0  0  0  0  0  0
   -0.9147   11.9482    5.8507 H   0  0  0  0  0  0  0  0  0  0  0  0
  1  2  1  0  0  0  0 
  1  3  1  0  0  0  0 
  1  4  1  0  0  0  0 
  2  5  1  0  0  0  0 
  4  6  2  0  0  0  0 
  4  7  1  0  0  0  0 
  5  8  1  0  0  0  0 
  6  9  1  0  0  0  0 
  7 10  2  0  0  0  0 
  8 11  1  0  0  0  0 
  9 12  1  0  0  0  0 
  9 13  2  0  0  0  0 
 10 13  1  0  0  0  0 
 11 14  1  0  0  0  0 
 13 15  1  0  0  0  0 
 14 16  1  0  0  0  0 
 16 17  1  0  0  0  0 
 17 18  1  0  0  0  0 
 18 19  1  0  0  0  0 
 19 20  1  0  0  0  0 
 20 21  1  0  0  0  0 
 21 22  1  0  0  0  0 
 21 23  1  0  0  0  0 
 23 24  2  0  0  0  0 
 23 25  1  0  0  0  0 
 24 26  1  0  0  0  0 
 25 27  2  0  0  0  0 
 26 28  1  0  0  0  0 
 26 29  2  0  0  0  0 
 27 29  1  0  0  0  0 
 29 30  1  0  0  0  0 
  1 31  1  0  0  0  0 
  2 32  1  0  0  0  0 
  2 33  1  0  0  0  0 
  3 34  1  0  0  0  0 
  5 35  1  0  0  0  0 
  6 36  1  0  0  0  0 
  7 37  1  0  0  0  0 
  8 38  1  0  0  0  0 
  8 39  1  0  0  0  0 
 10 40  1  0  0  0  0 
 11 41  1  0  0  0  0 
 11 42  1  0  0  0  0 
 12 43  1  0  0  0  0 
 14 44  1  0  0  0  0 
 14 45  1  0  0  0  0 
 15 46  1  0  0  0  0 
 16 47  1  0  0  0  0 
 16 48  1  0  0  0  0 
 17 49  1  0  0  0  0 
 17 50  1  0  0  0  0 
 18 51  1  0  0  0  0 
 18 52  1  0  0  0  0 
 19 53  1  0  0  0  0 
 20 54  1  0  0  0  0 
 20 55  1  0  0  0  0 
 21 56  1  0  0  0  0 
 22 57  1  0  0  0  0 
 24 58  1  0  0  0  0 
 25 59  1  0  0  0  0 
 27 60  1  0  0  0  0 
 28 61  1  0  0  0  0 
 30 62  1  0  0  0  0 
M  END
> <cdk:Title>
hexoprenaline

> <Conformer>
1

> <SuperDrugID>
SD001218

$$$$
