incadronic acid
  CDK     0628171801

 36 36  0  0  0  0  0  0  0  0999 V2000
    2.9298   -1.1366   -2.7019 C   0  0  0  0  0  0  0  0  0  0  0  0
    1.7089   -1.5174   -2.8482 N   0  0  0  0  0  0  0  0  0  0  0  0
    3.9652   -2.3803   -2.2972 P   0  0  0  0  0  0  0  0  0  0  0  0
    3.4813    0.4049   -2.8397 P   0  0  2  0  0  0  0  0  0  0  0  0
    0.5006   -0.8668   -3.1228 C   0  0  1  0  0  0  0  0  0  0  0  0
    3.4049   -2.5926   -0.7173 O   0  0  0  0  0  0  0  0  0  0  0  0
    4.7482   -2.4906   -3.7891 O   0  0  0  0  0  0  0  0  0  0  0  0
    5.3938   -1.8700   -1.6563 O   0  0  0  0  0  0  0  0  0  0  0  0
    3.4692    1.1161   -1.5488 O   0  0  0  0  0  0  0  0  0  0  0  0
    2.6222    1.2500   -3.8825 O   0  0  0  0  0  0  0  0  0  0  0  0
    4.9684    0.4413   -3.4188 O   0  0  0  0  0  0  0  0  0  0  0  0
    0.2224   -1.0079   -4.6500 C   0  0  1  0  0  0  0  0  0  0  0  0
   -0.5761   -1.5061   -2.2000 C   0  0  2  0  0  0  0  0  0  0  0  0
   -0.9389   -0.1166   -5.1634 C   0  0  2  0  0  0  0  0  0  0  0  0
   -2.0410   -1.0409   -2.4293 C   0  0  2  0  0  0  0  0  0  0  0  0
   -2.3653   -0.7134   -5.0141 C   0  0  2  0  0  0  0  0  0  0  0  0
   -2.6636   -1.5675   -3.7500 C   0  0  2  0  0  0  0  0  0  0  0  0
    3.4534   -3.5618   -2.5569 H   0  0  0  0  0  0  0  0  0  0  0  0
    0.5661    0.1907   -2.8504 H   0  0  0  0  0  0  0  0  0  0  0  0
    2.5187   -3.0081   -0.8038 H   0  0  0  0  0  0  0  0  0  0  0  0
    4.2246   -3.1238   -4.3237 H   0  0  0  0  0  0  0  0  0  0  0  0
    5.1606   -1.1526   -1.0281 H   0  0  0  0  0  0  0  0  0  0  0  0
    2.7067    0.7607   -4.7271 H   0  0  0  0  0  0  0  0  0  0  0  0
    4.9001    0.0254   -4.3038 H   0  0  0  0  0  0  0  0  0  0  0  0
    1.1233   -0.7058   -5.1917 H   0  0  0  0  0  0  0  0  0  0  0  0
    0.0363   -2.0544   -4.9066 H   0  0  0  0  0  0  0  0  0  0  0  0
   -0.3122   -1.2737   -1.1622 H   0  0  0  0  0  0  0  0  0  0  0  0
   -0.5406   -2.5950   -2.2998 H   0  0  0  0  0  0  0  0  0  0  0  0
   -0.7739    0.0765   -6.2273 H   0  0  0  0  0  0  0  0  0  0  0  0
   -0.9000    0.8557   -4.6647 H   0  0  0  0  0  0  0  0  0  0  0  0
   -2.1123    0.0494   -2.3830 H   0  0  0  0  0  0  0  0  0  0  0  0
   -2.6358   -1.4404   -1.6032 H   0  0  0  0  0  0  0  0  0  0  0  0
   -2.5660   -1.3424   -5.8857 H   0  0  0  0  0  0  0  0  0  0  0  0
   -3.0782    0.1169   -5.0518 H   0  0  0  0  0  0  0  0  0  0  0  0
   -3.7503   -1.6098   -3.6295 H   0  0  0  0  0  0  0  0  0  0  0  0
   -2.3357   -2.5974   -3.9215 H   0  0  0  0  0  0  0  0  0  0  0  0
  1  2  2  0  0  0  0 
  1  3  1  0  0  0  0 
  1  4  1  0  0  0  0 
  2  5  1  0  0  0  0 
  3  6  1  0  0  0  0 
  3  7  1  0  0  0  0 
  3  8  1  0  0  0  0 
  4  9  2  0  0  0  0 
  4 10  1  0  0  0  0 
  4 11  1  0  0  0  0 
  5 12  1  0  0  0  0 
  5 13  1  0  0  0  0 
 12 14  1  0  0  0  0 
 13 15  1  0  0  0  0 
 14 16  1  0  0  0  0 
 15 17  1  0  0  0  0 
 16 17  1  0  0  0  0 
 18  3  1  0  0  0  0 
 19  5  1  0  0  0  0 
 20  6  1  0  0  0  0 
 21  7  1  0  0  0  0 
 22  8  1  0  0  0  0 
 23 10  1  0  0  0  0 
 24 11  1  0  0  0  0 
 25 12  1  0  0  0  0 
 26 12  1  0  0  0  0 
 27 13  1  0  0  0  0 
 28 13  1  0  0  0  0 
 29 14  1  0  0  0  0 
 30 14  1  0  0  0  0 
 31 15  1  0  0  0  0 
 32 15  1  0  0  0  0 
 33 16  1  0  0  0  0 
 34 16  1  0  0  0  0 
 35 17  1  0  0  0  0 
 36 17  1  0  0  0  0 
M  END
> <cdk:Title>
incadronic acid

> <Conformer>
1

> <SuperDrugID>
SD001269

$$$$
