cyproheptadine
  CDK     0628171802

 43 46  0  0  0  0  0  0  0  0999 V2000
   -5.9120    5.1326   -2.0868 C   0  0  0  0  0  0  0  0  0  0  0  0
   -4.9095    4.5279   -1.1644 N   0  0  1  0  0  0  0  0  0  0  0  0
   -5.4526    3.3824   -0.3682 C   0  0  1  0  0  0  0  0  0  0  0  0
   -3.6237    4.1807   -1.8438 C   0  0  2  0  0  0  0  0  0  0  0  0
   -4.3868    2.8258    0.6184 C   0  0  1  0  0  0  0  0  0  0  0  0
   -2.5891    3.6578   -0.8130 C   0  0  2  0  0  0  0  0  0  0  0  0
   -3.1313    2.4919   -0.0868 C   0  0  0  0  0  0  0  0  0  0  0  0
   -2.5255    1.2676   -0.0537 C   0  0  0  0  0  0  0  0  0  0  0  0
   -1.3074    1.0018   -0.6866 C   0  0  0  0  0  0  0  0  0  0  0  0
   -3.0153    0.1851    0.6804 C   0  0  0  0  0  0  0  0  0  0  0  0
   -0.1144    0.8128    0.0720 C   0  0  0  0  0  0  0  0  0  0  0  0
   -1.2539    0.9582   -2.1024 C   0  0  0  0  0  0  0  0  0  0  0  0
   -2.3233   -0.2881    1.8363 C   0  0  0  0  0  0  0  0  0  0  0  0
   -4.2213   -0.4402    0.2762 C   0  0  0  0  0  0  0  0  0  0  0  0
   -0.0992    0.7051    1.4688 C   0  0  0  0  0  0  0  0  0  0  0  0
    1.1185    0.7267   -0.6249 C   0  0  0  0  0  0  0  0  0  0  0  0
   -0.0213    0.8463   -2.7681 C   0  0  0  0  0  0  0  0  0  0  0  0
   -1.0762    0.2037    2.2510 C   0  0  0  0  0  0  0  0  0  0  0  0
   -2.9341   -1.3038    2.6149 C   0  0  0  0  0  0  0  0  0  0  0  0
   -4.7895   -1.4643    1.0508 C   0  0  0  0  0  0  0  0  0  0  0  0
    1.1683    0.7535   -2.0294 C   0  0  0  0  0  0  0  0  0  0  0  0
   -4.1564   -1.8807    2.2306 C   0  0  0  0  0  0  0  0  0  0  0  0
   -5.4826    5.9975   -2.5975 H   0  0  0  0  0  0  0  0  0  0  0  0
   -6.2403    4.4089   -2.8370 H   0  0  0  0  0  0  0  0  0  0  0  0
   -6.7839    5.4821   -1.5284 H   0  0  0  0  0  0  0  0  0  0  0  0
   -6.3158    3.7204    0.2112 H   0  0  0  0  0  0  0  0  0  0  0  0
   -5.7903    2.5808   -1.0337 H   0  0  0  0  0  0  0  0  0  0  0  0
   -3.2108    5.0712   -2.3248 H   0  0  0  0  0  0  0  0  0  0  0  0
   -3.7899    3.4240   -2.6180 H   0  0  0  0  0  0  0  0  0  0  0  0
   -4.1726    3.5938    1.3672 H   0  0  0  0  0  0  0  0  0  0  0  0
   -4.8247    1.9927    1.1658 H   0  0  0  0  0  0  0  0  0  0  0  0
   -2.3774    4.4534   -0.0950 H   0  0  0  0  0  0  0  0  0  0  0  0
   -1.6469    3.4771   -1.3278 H   0  0  0  0  0  0  0  0  0  0  0  0
   -2.1108    1.0342   -2.6596 H   0  0  0  0  0  0  0  0  0  0  0  0
   -4.7057   -0.1408   -0.5749 H   0  0  0  0  0  0  0  0  0  0  0  0
    0.7349    0.9889    1.9358 H   0  0  0  0  0  0  0  0  0  0  0  0
    2.0007    0.6285   -0.1145 H   0  0  0  0  0  0  0  0  0  0  0  0
    0.0117    0.8472   -3.7909 H   0  0  0  0  0  0  0  0  0  0  0  0
   -0.8685    0.1486    3.2252 H   0  0  0  0  0  0  0  0  0  0  0  0
   -2.4890   -1.6452    3.4712 H   0  0  0  0  0  0  0  0  0  0  0  0
   -5.6670   -1.9026    0.7624 H   0  0  0  0  0  0  0  0  0  0  0  0
    2.0704    0.6951   -2.5099 H   0  0  0  0  0  0  0  0  0  0  0  0
   -4.5830   -2.6086    2.8077 H   0  0  0  0  0  0  0  0  0  0  0  0
  1  2  1  0  0  0  0 
  2  3  1  0  0  0  0 
  2  4  1  0  0  0  0 
  3  5  1  0  0  0  0 
  4  6  1  0  0  0  0 
  5  7  1  0  0  0  0 
  6  7  1  0  0  0  0 
  7  8  2  0  0  0  0 
  8  9  1  0  0  0  0 
  8 10  1  0  0  0  0 
  9 11  2  0  0  0  0 
  9 12  1  0  0  0  0 
 10 13  2  0  0  0  0 
 10 14  1  0  0  0  0 
 11 15  1  0  0  0  0 
 11 16  1  0  0  0  0 
 12 17  2  0  0  0  0 
 13 18  1  0  0  0  0 
 13 19  1  0  0  0  0 
 14 20  2  0  0  0  0 
 15 18  2  0  0  0  0 
 16 21  2  0  0  0  0 
 17 21  1  0  0  0  0 
 19 22  2  0  0  0  0 
 20 22  1  0  0  0  0 
  1 23  1  0  0  0  0 
  1 24  1  0  0  0  0 
  1 25  1  0  0  0  0 
  3 26  1  0  0  0  0 
  3 27  1  0  0  0  0 
  4 28  1  0  0  0  0 
  4 29  1  0  0  0  0 
  5 30  1  0  0  0  0 
  5 31  1  0  0  0  0 
  6 32  1  0  0  0  0 
  6 33  1  0  0  0  0 
 12 34  1  0  0  0  0 
 14 35  1  0  0  0  0 
 15 36  1  0  0  0  0 
 16 37  1  0  0  0  0 
 17 38  1  0  0  0  0 
 18 39  1  0  0  0  0 
 19 40  1  0  0  0  0 
 20 41  1  0  0  0  0 
 21 42  1  0  0  0  0 
 22 43  1  0  0  0  0 
M  END
> <cdk:Title>
cyproheptadine

> <Conformer>
1

> <SuperDrugID>
SD000674

$$$$
