atenolol
  CDK     0628171801

 41 41  0  0  0  0  0  0  0  0999 V2000
    4.4659   15.1888   -7.2675 O   0  0  0  0  0  0  0  0  0  0  0  0
    5.6437   14.4687   -6.8468 C   0  0  2  0  0  0  0  0  0  0  0  0
    3.8136   14.6157   -8.3246 C   0  0  0  0  0  0  0  0  0  0  0  0
    6.1881   15.0914   -5.5365 C   0  0  2  0  0  0  0  0  0  0  0  0
    4.0679   15.0571   -9.6369 C   0  0  0  0  0  0  0  0  0  0  0  0
    2.8558   13.6075   -8.1046 C   0  0  0  0  0  0  0  0  0  0  0  0
    5.1618   15.0131   -4.3753 C   0  0  2  0  0  0  0  0  0  0  0  0
    6.5492   16.4525   -5.7749 O   0  0  0  0  0  0  0  0  0  0  0  0
    3.3873   14.4776  -10.7246 C   0  0  0  0  0  0  0  0  0  0  0  0
    2.1771   13.0270   -9.1912 C   0  0  0  0  0  0  0  0  0  0  0  0
    5.6595   15.7158   -3.1690 N   0  0  1  0  0  0  0  0  0  0  0  0
    2.4400   13.4453  -10.5182 C   0  0  0  0  0  0  0  0  0  0  0  0
    4.7776   15.6863   -1.9687 C   0  0  1  0  0  0  0  0  0  0  0  0
    1.7471   12.7877  -11.6588 C   0  0  1  0  0  0  0  0  0  0  0  0
    5.5824   16.2446   -0.7669 C   0  0  0  0  0  0  0  0  0  0  0  0
    3.4636   16.4905   -2.1756 C   0  0  0  0  0  0  0  0  0  0  0  0
    0.2935   13.0477  -11.6717 C   0  0  0  0  0  0  0  0  0  0  0  0
   -0.1841   14.2842  -11.8974 N   0  0  0  0  0  0  0  0  0  0  0  0
   -0.5241   12.1189  -11.4862 O   0  0  0  0  0  0  0  0  0  0  0  0
    6.4157   14.5285   -7.6199 H   0  0  0  0  0  0  0  0  0  0  0  0
    5.4238   13.4121   -6.6644 H   0  0  0  0  0  0  0  0  0  0  0  0
    7.0915   14.5483   -5.2439 H   0  0  0  0  0  0  0  0  0  0  0  0
    4.7496   15.8015   -9.8014 H   0  0  0  0  0  0  0  0  0  0  0  0
    2.6537   13.2920   -7.1527 H   0  0  0  0  0  0  0  0  0  0  0  0
    4.9647   13.9640   -4.1369 H   0  0  0  0  0  0  0  0  0  0  0  0
    4.2292   15.4764   -4.7009 H   0  0  0  0  0  0  0  0  0  0  0  0
    7.1995   16.4195   -6.5079 H   0  0  0  0  0  0  0  0  0  0  0  0
    3.5926   14.8164  -11.6680 H   0  0  0  0  0  0  0  0  0  0  0  0
    1.4912   12.2913   -9.0069 H   0  0  0  0  0  0  0  0  0  0  0  0
    6.5372   15.2585   -2.9093 H   0  0  0  0  0  0  0  0  0  0  0  0
    4.5201   14.6483   -1.7347 H   0  0  0  0  0  0  0  0  0  0  0  0
    2.1506   13.1248  -12.6174 H   0  0  0  0  0  0  0  0  0  0  0  0
    1.9304   11.7113  -11.5995 H   0  0  0  0  0  0  0  0  0  0  0  0
    4.9836   16.2082    0.1452 H   0  0  0  0  0  0  0  0  0  0  0  0
    5.8798   17.2792   -0.9486 H   0  0  0  0  0  0  0  0  0  0  0  0
    6.4813   15.6474   -0.6035 H   0  0  0  0  0  0  0  0  0  0  0  0
    2.9196   16.5917   -1.2336 H   0  0  0  0  0  0  0  0  0  0  0  0
    2.8088   15.9737   -2.8791 H   0  0  0  0  0  0  0  0  0  0  0  0
    3.6836   17.4878   -2.5649 H   0  0  0  0  0  0  0  0  0  0  0  0
    0.4293   15.0210  -12.0465 H   0  0  0  0  0  0  0  0  0  0  0  0
   -1.1425   14.4418  -11.9101 H   0  0  0  0  0  0  0  0  0  0  0  0
  1  2  1  0  0  0  0 
  1  3  1  0  0  0  0 
  4  2  1  0  0  0  0 
  3  5  2  0  0  0  0 
  3  6  1  0  0  0  0 
  4  7  1  0  0  0  0 
  4  8  1  0  0  0  0 
  5  9  1  0  0  0  0 
  6 10  2  0  0  0  0 
  7 11  1  0  0  0  0 
  9 12  2  0  0  0  0 
 10 12  1  0  0  0  0 
 11 13  1  0  0  0  0 
 12 14  1  0  0  0  0 
 13 15  1  0  0  0  0 
 13 16  1  0  0  0  0 
 14 17  1  0  0  0  0 
 17 18  1  0  0  0  0 
 17 19  2  0  0  0  0 
  2 20  1  0  0  0  0 
  2 21  1  0  0  0  0 
  4 22  1  0  0  0  0 
  5 23  1  0  0  0  0 
  6 24  1  0  0  0  0 
  7 25  1  0  0  0  0 
  7 26  1  0  0  0  0 
  8 27  1  0  0  0  0 
  9 28  1  0  0  0  0 
 10 29  1  0  0  0  0 
 11 30  1  0  0  0  0 
 13 31  1  0  0  0  0 
 14 32  1  0  0  0  0 
 14 33  1  0  0  0  0 
 15 34  1  0  0  0  0 
 15 35  1  0  0  0  0 
 15 36  1  0  0  0  0 
 16 37  1  0  0  0  0 
 16 38  1  0  0  0  0 
 16 39  1  0  0  0  0 
 18 40  1  0  0  0  0 
 18 41  1  0  0  0  0 
M  END
> <cdk:Title>
atenolol

> <Conformer>
1

> <SuperDrugID>
SD000211

$$$$
