alcuronium
  CDK     0628171801

100110  0  0  0  0  0  0  0  0999 V2000
    4.4122   18.4493   -9.1064 C   0  0  2  0  0  0  0  0  0  0  0  0
    3.7750   18.0161  -10.3774 C   0  0  0  0  0  0  0  0  0  0  0  0
    2.7214   18.6350  -10.9721 C   0  0  0  0  0  0  0  0  0  0  0  0
    1.7838   19.6452  -10.6147 N   0  0  0  0  0  0  0  0  0  0  0  0
    1.7580   20.2369   -9.2057 C   0  0  1  0  0  0  0  0  0  0  0  0
    2.8315   21.2418   -8.9970 C   0  0  0  0  0  0  0  0  0  0  0  0
    4.1630   20.9709   -9.0640 C   0  0  0  0  0  0  0  0  0  0  0  0
    4.8857   19.8169   -9.1844 N   0  0  0  0  0  0  0  0  0  0  0  0
    0.2232   20.7318   -9.0459 C   0  0  2  0  0  0  0  0  0  0  0  0
   -0.2711   20.5612  -10.5092 C   0  0  0  0  0  0  0  0  0  0  0  0
    0.6209   20.0153  -11.4777 C   0  0  0  0  0  0  0  0  0  0  0  0
    6.2585   19.8306   -9.1181 C   0  0  0  0  0  0  0  0  0  0  0  0
    6.7428   18.6111   -8.6488 C   0  0  0  0  0  0  0  0  0  0  0  0
    5.6644   17.6079   -8.5615 C   0  0  2  0  0  0  0  0  0  0  0  0
   -1.5682   20.8823  -10.9740 C   0  0  0  0  0  0  0  0  0  0  0  0
   -1.9218   20.7053  -12.3271 C   0  0  0  0  0  0  0  0  0  0  0  0
   -0.9912   20.1937  -13.2560 C   0  0  0  0  0  0  0  0  0  0  0  0
    0.3122   19.8211  -12.8692 C   0  0  0  0  0  0  0  0  0  0  0  0
    7.1723   20.8829   -9.3798 C   0  0  0  0  0  0  0  0  0  0  0  0
    8.5364   20.7265   -9.0626 C   0  0  0  0  0  0  0  0  0  0  0  0
    8.9984   19.5213   -8.5008 C   0  0  0  0  0  0  0  0  0  0  0  0
    8.1059   18.4513   -8.3084 C   0  0  0  0  0  0  0  0  0  0  0  0
    4.2093   16.7402  -11.0148 C   0  0  1  0  0  0  0  0  0  0  0  0
    5.7252   16.4986  -10.8725 C   0  0  2  0  0  0  0  0  0  0  0  0
    6.0184   16.3146   -9.3704 C   0  0  2  0  0  0  0  0  0  0  0  0
    0.0178   22.1882   -8.5314 C   0  0  2  0  0  0  0  0  0  0  0  0
    1.1115   23.1134   -9.0986 C   0  0  1  0  0  0  0  0  0  0  0  0
    2.4652   22.6185   -8.5491 C   0  0  1  0  0  0  0  0  0  0  0  0
   -0.6257   19.9239   -8.0140 C   0  0  1  0  0  0  0  0  0  0  0  0
   -0.9141   20.9017   -6.8475 C   0  0  1  0  0  0  0  0  0  0  0  0
   -0.0322   22.1154   -7.0175 N   0  0  1  0  0  0  0  0  0  0  0  0
    5.5023   17.0256   -7.1143 C   0  0  1  0  0  0  0  0  0  0  0  0
    5.5131   15.4862   -7.2737 C   0  0  1  0  0  0  0  0  0  0  0  0
    5.2592   15.1734   -8.7251 N   0  0  1  0  0  0  0  0  0  0  0  0
    3.4415   15.6058  -10.4395 C   0  0  0  0  0  0  0  0  0  0  0  0
    3.7654   15.2411   -9.0454 C   0  0  1  0  0  0  0  0  0  0  0  0
    2.4608   14.9323  -11.0871 C   0  0  0  0  0  0  0  0  0  0  0  0
    5.8393   13.8208   -9.1295 C   0  0  2  0  0  0  0  0  0  0  0  0
    5.3642   12.6590   -8.3821 C   0  0  0  0  0  0  0  0  0  0  0  0
    4.6440   11.6655   -8.9183 C   0  0  0  0  0  0  0  0  0  0  0  0
    1.9716   15.1896  -12.4287 C   0  0  2  0  0  0  0  0  0  0  0  0
    0.9119   14.2985  -12.7689 O   0  0  0  0  0  0  0  0  0  0  0  0
    2.4361   22.6699   -7.0670 C   0  0  0  0  0  0  0  0  0  0  0  0
    1.3597   21.8869   -6.4223 C   0  0  2  0  0  0  0  0  0  0  0  0
   -0.6694   23.3662   -6.4173 C   0  0  1  0  0  0  0  0  0  0  0  0
   -0.9867   23.3123   -4.9898 C   0  0  0  0  0  0  0  0  0  0  0  0
   -0.4240   24.0968   -4.0612 C   0  0  0  0  0  0  0  0  0  0  0  0
    3.3135   23.3676   -6.3063 C   0  0  0  0  0  0  0  0  0  0  0  0
    4.4177   24.1797   -6.7881 C   0  0  2  0  0  0  0  0  0  0  0  0
    5.1831   24.7179   -5.7127 O   0  0  0  0  0  0  0  0  0  0  0  0
    4.0823   16.7858  -12.1020 H   0  0  0  0  0  0  0  0  0  0  0  0
    7.0974   16.1172   -9.3054 H   0  0  0  0  0  0  0  0  0  0  0  0
   -0.9364   22.5785   -8.9112 H   0  0  0  0  0  0  0  0  0  0  0  0
    3.1688   23.3493   -8.9630 H   0  0  0  0  0  0  0  0  0  0  0  0
    1.8876   19.4524   -8.4763 H   0  0  0  0  0  0  0  0  0  0  0  0
    3.6607   18.3776   -8.3334 H   0  0  0  0  0  0  0  0  0  0  0  0
    2.4805   18.2795  -11.8656 H   0  0  0  0  0  0  0  0  0  0  0  0
    4.7330   21.7729   -8.9454 H   0  0  0  0  0  0  0  0  0  0  0  0
   -2.2720   21.2433  -10.3282 H   0  0  0  0  0  0  0  0  0  0  0  0
   -2.8681   20.9428  -12.6357 H   0  0  0  0  0  0  0  0  0  0  0  0
   -1.2773   20.0805  -14.2314 H   0  0  0  0  0  0  0  0  0  0  0  0
    0.9411   19.4207  -13.6395 H   0  0  0  0  0  0  0  0  0  0  0  0
    6.8599   21.7668   -9.7844 H   0  0  0  0  0  0  0  0  0  0  0  0
    9.1912   21.4962   -9.2246 H   0  0  0  0  0  0  0  0  0  0  0  0
    9.9814   19.4198   -8.2351 H   0  0  0  0  0  0  0  0  0  0  0  0
    8.4494   17.5701   -7.9186 H   0  0  0  0  0  0  0  0  0  0  0  0
    6.2932   17.3450  -11.2731 H   0  0  0  0  0  0  0  0  0  0  0  0
    6.0299   15.6121  -11.4329 H   0  0  0  0  0  0  0  0  0  0  0  0
    1.1077   23.0927  -10.1929 H   0  0  0  0  0  0  0  0  0  0  0  0
    0.9208   24.1480   -8.7952 H   0  0  0  0  0  0  0  0  0  0  0  0
   -1.5721   19.5759   -8.4391 H   0  0  0  0  0  0  0  0  0  0  0  0
   -0.1038   19.0419   -7.6404 H   0  0  0  0  0  0  0  0  0  0  0  0
   -1.9760   21.1746   -6.8963 H   0  0  0  0  0  0  0  0  0  0  0  0
   -0.7601   20.4086   -5.8820 H   0  0  0  0  0  0  0  0  0  0  0  0
    6.3059   17.3258   -6.4354 H   0  0  0  0  0  0  0  0  0  0  0  0
    4.5658   17.3283   -6.6432 H   0  0  0  0  0  0  0  0  0  0  0  0
    6.4954   15.1165   -6.9543 H   0  0  0  0  0  0  0  0  0  0  0  0
    4.7688   15.0253   -6.6168 H   0  0  0  0  0  0  0  0  0  0  0  0
    3.2825   14.3086   -8.7387 H   0  0  0  0  0  0  0  0  0  0  0  0
    3.2627   15.9917   -8.4312 H   0  0  0  0  0  0  0  0  0  0  0  0
    2.0040   14.1930  -10.6019 H   0  0  0  0  0  0  0  0  0  0  0  0
    6.9275   13.8204   -9.0081 H   0  0  0  0  0  0  0  0  0  0  0  0
    5.6644   13.6613  -10.1978 H   0  0  0  0  0  0  0  0  0  0  0  0
    5.5974   12.5953   -7.4173 H   0  0  0  0  0  0  0  0  0  0  0  0
    4.3855   11.6753   -9.8765 H   0  0  0  0  0  0  0  0  0  0  0  0
    4.3533   10.8994   -8.3578 H   0  0  0  0  0  0  0  0  0  0  0  0
    2.7729   15.0647  -13.1575 H   0  0  0  0  0  0  0  0  0  0  0  0
    1.5766   16.2022  -12.4931 H   0  0  0  0  0  0  0  0  0  0  0  0
    0.6171   14.5739  -13.6617 H   0  0  0  0  0  0  0  0  0  0  0  0
    1.6547   20.8398   -6.5149 H   0  0  0  0  0  0  0  0  0  0  0  0
    1.3336   22.0431   -5.3397 H   0  0  0  0  0  0  0  0  0  0  0  0
   -0.0222   24.2257   -6.6147 H   0  0  0  0  0  0  0  0  0  0  0  0
   -1.6166   23.5895   -6.9185 H   0  0  0  0  0  0  0  0  0  0  0  0
   -1.6689   22.6551   -4.6856 H   0  0  0  0  0  0  0  0  0  0  0  0
   -0.6802   24.0048   -3.1061 H   0  0  0  0  0  0  0  0  0  0  0  0
    0.2572   24.7757   -4.3030 H   0  0  0  0  0  0  0  0  0  0  0  0
    3.2073   23.3307   -5.3164 H   0  0  0  0  0  0  0  0  0  0  0  0
    4.0316   25.0118   -7.3785 H   0  0  0  0  0  0  0  0  0  0  0  0
    5.0909   23.5801   -7.4024 H   0  0  0  0  0  0  0  0  0  0  0  0
    5.8774   25.2571   -6.1422 H   0  0  0  0  0  0  0  0  0  0  0  0
  2  3  2  0  0  0  0 
  3  4  1  0  0  0  0 
  6  7  2  0  0  0  0 
  7  8  1  0  0  0  0 
  4 11  1  0  0  0  0 
  4  5  1  0  0  0  0 
  9 10  1  0  0  0  0 
  8 12  1  0  0  0  0 
  1  8  1  0  0  0  0 
 13 14  1  0  0  0  0 
 10 15  2  0  0  0  0 
 11 10  1  0  0  0  0 
 11 18  2  0  0  0  0 
 15 16  1  0  0  0  0 
 16 17  2  0  0  0  0 
 17 18  1  0  0  0  0 
 12 19  2  0  0  0  0 
 13 12  1  0  0  0  0 
 13 22  2  0  0  0  0 
 19 20  1  0  0  0  0 
 20 21  2  0  0  0  0 
 21 22  1  0  0  0  0 
  1  2  1  0  0  0  0 
  2 23  1  0  0  0  0 
  1 14  1  0  0  0  0 
 23 24  1  0  0  0  0 
 24 25  1  0  0  0  0 
  6  5  1  0  0  0  0 
  6 28  1  0  0  0  0 
  5  9  1  0  0  0  0 
 26 27  1  0  0  0  0 
 27 28  1  0  0  0  0 
  9 29  1  0  0  0  0 
 26  9  1  0  0  0  0 
 31 26  1  0  0  0  0 
 29 30  1  0  0  0  0 
 30 31  1  0  0  0  0 
 25 34  1  0  0  0  0 
 25 14  1  0  0  0  0 
 14 32  1  0  0  0  0 
 32 33  1  0  0  0  0 
 33 34  1  0  0  0  0 
 23 35  1  0  0  0  0 
 34 36  1  0  0  0  0 
 35 36  1  0  0  0  0 
 35 37  2  0  0  0  0 
 34 38  1  0  0  0  0 
 38 39  1  0  0  0  0 
 39 40  2  0  0  0  0 
 37 41  1  0  0  0  0 
 41 42  1  0  0  0  0 
 28 43  1  0  0  0  0 
 31 44  1  0  0  0  0 
 44 43  1  0  0  0  0 
 31 45  1  0  0  0  0 
 45 46  1  0  0  0  0 
 46 47  2  0  0  0  0 
 43 48  2  0  0  0  0 
 48 49  1  0  0  0  0 
 49 50  1  0  0  0  0 
 23 51  1  0  0  0  0 
 25 52  1  0  0  0  0 
 26 53  1  0  0  0  0 
 28 54  1  0  0  0  0 
  5 55  1  0  0  0  0 
  1 56  1  0  0  0  0 
  3 57  1  0  0  0  0 
  7 58  1  0  0  0  0 
 15 59  1  0  0  0  0 
 16 60  1  0  0  0  0 
 17 61  1  0  0  0  0 
 18 62  1  0  0  0  0 
 19 63  1  0  0  0  0 
 20 64  1  0  0  0  0 
 21 65  1  0  0  0  0 
 22 66  1  0  0  0  0 
 24 67  1  0  0  0  0 
 24 68  1  0  0  0  0 
 27 69  1  0  0  0  0 
 27 70  1  0  0  0  0 
 29 71  1  0  0  0  0 
 29 72  1  0  0  0  0 
 30 73  1  0  0  0  0 
 30 74  1  0  0  0  0 
 32 75  1  0  0  0  0 
 32 76  1  0  0  0  0 
 33 77  1  0  0  0  0 
 33 78  1  0  0  0  0 
 36 79  1  0  0  0  0 
 36 80  1  0  0  0  0 
 37 81  1  0  0  0  0 
 38 82  1  0  0  0  0 
 38 83  1  0  0  0  0 
 39 84  1  0  0  0  0 
 40 85  1  0  0  0  0 
 40 86  1  0  0  0  0 
 41 87  1  0  0  0  0 
 41 88  1  0  0  0  0 
 42 89  1  0  0  0  0 
 44 90  1  0  0  0  0 
 44 91  1  0  0  0  0 
 45 92  1  0  0  0  0 
 45 93  1  0  0  0  0 
 46 94  1  0  0  0  0 
 47 95  1  0  0  0  0 
 47 96  1  0  0  0  0 
 48 97  1  0  0  0  0 
 49 98  1  0  0  0  0 
 49 99  1  0  0  0  0 
 50100  1  0  0  0  0 
M  CHG  1  31   1
M  CHG  1  34   1
M  END
> <cdk:Title>
alcuronium

> <Conformer>
1

> <SuperDrugID>
SD000082

$$$$
