thialbarbital
  CDK     0628171801

 34 35  0  0  0  0  0  0  0  0999 V2000
    1.4856   -1.3647    0.2825 C   0  0  1  0  0  0  0  0  0  0  0  0
    1.9778   -2.7227    0.4974 C   0  0  0  0  0  0  0  0  0  0  0  0
    1.3617   -0.4763    1.5837 C   0  0  2  0  0  0  0  0  0  0  0  0
    3.1755   -3.1588    0.0839 C   0  0  0  0  0  0  0  0  0  0  0  0
    2.7358   -0.4111    2.2090 C   0  0  0  0  0  0  0  0  0  0  0  0
    0.4055   -1.1302    2.5504 C   0  0  0  0  0  0  0  0  0  0  0  0
    0.8821    1.0087    1.2594 C   0  0  2  0  0  0  0  0  0  0  0  0
    3.7003    0.0951    1.5914 O   0  0  0  0  0  0  0  0  0  0  0  0
    2.9897   -0.8806    3.4604 N   0  0  0  0  0  0  0  0  0  0  0  0
   -0.7920   -1.3278    2.2414 O   0  0  0  0  0  0  0  0  0  0  0  0
    0.7898   -1.5470    3.7875 N   0  0  0  0  0  0  0  0  0  0  0  0
    0.9862    1.9655    2.5062 C   0  0  1  0  0  0  0  0  0  0  0  0
   -0.4328    1.0978    0.5982 C   0  0  0  0  0  0  0  0  0  0  0  0
    2.0432   -1.4289    4.2149 C   0  0  0  0  0  0  0  0  0  0  0  0
    0.2447    3.3020    2.2704 C   0  0  2  0  0  0  0  0  0  0  0  0
   -1.3944    1.9824    0.9166 C   0  0  0  0  0  0  0  0  0  0  0  0
    2.4422   -1.9955    5.7682 S   0  0  0  0  0  0  0  0  0  0  0  0
   -1.2378    3.0132    1.9288 C   0  0  1  0  0  0  0  0  0  0  0  0
    2.1144   -0.8424   -0.4467 H   0  0  0  0  0  0  0  0  0  0  0  0
    0.5109   -1.4781   -0.1938 H   0  0  0  0  0  0  0  0  0  0  0  0
    1.3836   -3.3649    0.9720 H   0  0  0  0  0  0  0  0  0  0  0  0
    3.8073   -2.5576   -0.3911 H   0  0  0  0  0  0  0  0  0  0  0  0
    3.4470   -4.0992    0.2489 H   0  0  0  0  0  0  0  0  0  0  0  0
    1.5795    1.4136    0.5179 H   0  0  0  0  0  0  0  0  0  0  0  0
    3.8890   -0.8061    3.8146 H   0  0  0  0  0  0  0  0  0  0  0  0
    0.1259   -1.9434    4.3751 H   0  0  0  0  0  0  0  0  0  0  0  0
    0.5569    1.4863    3.3907 H   0  0  0  0  0  0  0  0  0  0  0  0
    2.0333    2.1865    2.7289 H   0  0  0  0  0  0  0  0  0  0  0  0
   -0.6319    0.4780   -0.1505 H   0  0  0  0  0  0  0  0  0  0  0  0
    0.7191    3.8391    1.4418 H   0  0  0  0  0  0  0  0  0  0  0  0
    0.3060    3.9309    3.1626 H   0  0  0  0  0  0  0  0  0  0  0  0
   -2.2597    1.9356    0.4291 H   0  0  0  0  0  0  0  0  0  0  0  0
   -1.7652    2.6945    2.8311 H   0  0  0  0  0  0  0  0  0  0  0  0
   -1.6999    3.9376    1.5735 H   0  0  0  0  0  0  0  0  0  0  0  0
  1  2  1  0  0  0  0 
  1  3  1  0  0  0  0 
  2  4  2  0  0  0  0 
  3  5  1  0  0  0  0 
  3  6  1  0  0  0  0 
  3  7  1  0  0  0  0 
  5  8  2  0  0  0  0 
  5  9  1  0  0  0  0 
  6 10  2  0  0  0  0 
  6 11  1  0  0  0  0 
  7 12  1  0  0  0  0 
  7 13  1  0  0  0  0 
  9 14  1  0  0  0  0 
 11 14  1  0  0  0  0 
 12 15  1  0  0  0  0 
 13 16  2  0  0  0  0 
 14 17  2  0  0  0  0 
 15 18  1  0  0  0  0 
 16 18  1  0  0  0  0 
 19  1  1  0  0  0  0 
 20  1  1  0  0  0  0 
 21  2  1  0  0  0  0 
 22  4  1  0  0  0  0 
 23  4  1  0  0  0  0 
 24  7  1  0  0  0  0 
 25  9  1  0  0  0  0 
 26 11  1  0  0  0  0 
 27 12  1  0  0  0  0 
 28 12  1  0  0  0  0 
 29 13  1  0  0  0  0 
 30 15  1  0  0  0  0 
 31 15  1  0  0  0  0 
 32 16  1  0  0  0  0 
 33 18  1  0  0  0  0 
 34 18  1  0  0  0  0 
M  END
> <cdk:Title>
thialbarbital

> <Conformer>
1

> <SuperDrugID>
SD003084

$$$$
