nisoldipine
  CDK     0628171801

 52 53  0  0  0  0  0  0  0  0999 V2000
    2.4990   -3.7791   -2.0876 C   0  0  0  0  0  0  0  0  0  0  0  0
    2.6692   -4.8790   -2.8891 O   0  0  0  0  0  0  0  0  0  0  0  0
    3.5157   -3.3551   -1.4888 O   0  0  0  0  0  0  0  0  0  0  0  0
    1.2581   -3.1250   -1.9235 C   0  0  0  0  0  0  0  0  0  0  0  0
    3.8845   -5.6127   -3.0993 C   0  0  2  0  0  0  0  0  0  0  0  0
    1.2410   -1.7388   -1.3578 C   0  0  2  0  0  0  0  0  0  0  0  0
    0.0679   -3.6868   -2.2659 C   0  0  0  0  0  0  0  0  0  0  0  0
    3.6567   -6.8373   -4.0291 C   0  0  1  0  0  0  0  0  0  0  0  0
   -0.1001   -1.1605   -1.0358 C   0  0  0  0  0  0  0  0  0  0  0  0
    2.0092   -0.8031   -2.2694 C   0  0  0  0  0  0  0  0  0  0  0  0
   -0.1181   -5.0121   -2.8530 C   0  0  0  0  0  0  0  0  0  0  0  0
   -1.0723   -3.0190   -2.0588 N   0  0  0  0  0  0  0  0  0  0  0  0
    3.2512   -6.4032   -5.4645 C   0  0  0  0  0  0  0  0  0  0  0  0
    4.9106   -7.7541   -4.0533 C   0  0  0  0  0  0  0  0  0  0  0  0
   -0.1619    0.0659   -0.3367 C   0  0  0  0  0  0  0  0  0  0  0  0
   -1.2058   -1.8541   -1.4158 C   0  0  0  0  0  0  0  0  0  0  0  0
    3.1673   -0.0608   -1.8669 C   0  0  0  0  0  0  0  0  0  0  0  0
    1.5431   -0.6435   -3.6020 C   0  0  0  0  0  0  0  0  0  0  0  0
   -1.2757    0.8648   -0.3193 O   0  0  0  0  0  0  0  0  0  0  0  0
    0.8330    0.4758    0.3063 O   0  0  0  0  0  0  0  0  0  0  0  0
   -2.5911   -1.4608   -1.1712 C   0  0  0  0  0  0  0  0  0  0  0  0
    3.6805   -0.0779   -0.6388 N   0  0  0  0  0  0  0  0  0  0  0  0
    3.8211    0.7732   -2.8075 C   0  0  0  0  0  0  0  0  0  0  0  0
    2.1996    0.1945   -4.5163 C   0  0  0  0  0  0  0  0  0  0  0  0
   -1.4297    2.1238    0.3451 C   0  0  0  0  0  0  0  0  0  0  0  0
    4.1314   -1.0431   -0.1640 O   0  0  0  0  0  0  0  0  0  0  0  0
    3.7506    0.9937    0.0406 O   0  0  0  0  0  0  0  0  0  0  0  0
    3.3469    0.8967   -4.1224 C   0  0  0  0  0  0  0  0  0  0  0  0
    4.2468   -5.9547   -2.1272 H   0  0  0  0  0  0  0  0  0  0  0  0
    4.6362   -4.9488   -3.5322 H   0  0  0  0  0  0  0  0  0  0  0  0
    1.7297   -1.8251   -0.3841 H   0  0  0  0  0  0  0  0  0  0  0  0
    2.8311   -7.4229   -3.6117 H   0  0  0  0  0  0  0  0  0  0  0  0
    0.3457   -5.0491   -3.8402 H   0  0  0  0  0  0  0  0  0  0  0  0
   -1.1724   -5.2730   -2.9854 H   0  0  0  0  0  0  0  0  0  0  0  0
    0.3247   -5.7744   -2.2078 H   0  0  0  0  0  0  0  0  0  0  0  0
   -1.8863   -3.4355   -2.3863 H   0  0  0  0  0  0  0  0  0  0  0  0
    3.0607   -7.2802   -6.0863 H   0  0  0  0  0  0  0  0  0  0  0  0
    4.0430   -5.8120   -5.9296 H   0  0  0  0  0  0  0  0  0  0  0  0
    2.3392   -5.8049   -5.4390 H   0  0  0  0  0  0  0  0  0  0  0  0
    4.7278   -8.6356   -4.6710 H   0  0  0  0  0  0  0  0  0  0  0  0
    5.1496   -8.0960   -3.0439 H   0  0  0  0  0  0  0  0  0  0  0  0
    5.7741   -7.2179   -4.4536 H   0  0  0  0  0  0  0  0  0  0  0  0
    0.7122   -1.1469   -3.9227 H   0  0  0  0  0  0  0  0  0  0  0  0
   -2.8225   -0.5569   -1.7355 H   0  0  0  0  0  0  0  0  0  0  0  0
   -2.7496   -1.2829   -0.1058 H   0  0  0  0  0  0  0  0  0  0  0  0
   -3.3085   -2.2272   -1.4766 H   0  0  0  0  0  0  0  0  0  0  0  0
    4.6568    1.3024   -2.5414 H   0  0  0  0  0  0  0  0  0  0  0  0
    1.8429    0.2924   -5.4686 H   0  0  0  0  0  0  0  0  0  0  0  0
   -1.2621    2.0071    1.4171 H   0  0  0  0  0  0  0  0  0  0  0  0
   -2.4429    2.4932    0.1838 H   0  0  0  0  0  0  0  0  0  0  0  0
   -0.7195    2.8447   -0.0617 H   0  0  0  0  0  0  0  0  0  0  0  0
    3.8339    1.5004   -4.7913 H   0  0  0  0  0  0  0  0  0  0  0  0
  1  2  1  0  0  0  0 
  1  3  2  0  0  0  0 
  1  4  1  0  0  0  0 
  2  5  1  0  0  0  0 
  6  4  1  0  0  0  0 
  4  7  2  0  0  0  0 
  5  8  1  0  0  0  0 
  6  9  1  0  0  0  0 
  6 10  1  0  0  0  0 
  7 11  1  0  0  0  0 
  7 12  1  0  0  0  0 
  8 13  1  0  0  0  0 
  8 14  1  0  0  0  0 
  9 15  1  0  0  0  0 
  9 16  2  0  0  0  0 
 10 17  2  0  0  0  0 
 10 18  1  0  0  0  0 
 12 16  1  0  0  0  0 
 15 19  1  0  0  0  0 
 15 20  2  0  0  0  0 
 16 21  1  0  0  0  0 
 17 22  1  0  0  0  0 
 17 23  1  0  0  0  0 
 18 24  2  0  0  0  0 
 19 25  1  0  0  0  0 
 22 26  2  0  0  0  0 
 22 27  1  0  0  0  0 
 23 28  2  0  0  0  0 
 24 28  1  0  0  0  0 
 29  5  1  0  0  0  0 
 30  5  1  0  0  0  0 
 31  6  1  0  0  0  0 
 32  8  1  0  0  0  0 
 33 11  1  0  0  0  0 
 34 11  1  0  0  0  0 
 35 11  1  0  0  0  0 
 36 12  1  0  0  0  0 
 37 13  1  0  0  0  0 
 38 13  1  0  0  0  0 
 39 13  1  0  0  0  0 
 40 14  1  0  0  0  0 
 41 14  1  0  0  0  0 
 42 14  1  0  0  0  0 
 43 18  1  0  0  0  0 
 44 21  1  0  0  0  0 
 45 21  1  0  0  0  0 
 46 21  1  0  0  0  0 
 47 23  1  0  0  0  0 
 48 24  1  0  0  0  0 
 49 25  1  0  0  0  0 
 50 25  1  0  0  0  0 
 51 25  1  0  0  0  0 
 52 28  1  0  0  0  0 
M  CHG  1  22   1
M  CHG  1  27  -1
M  END
> <cdk:Title>
nisoldipine

> <Conformer>
1

> <SuperDrugID>
SD001736

$$$$
