imolamine
  CDK     0628171801

 39 40  0  0  0  0  0  0  0  0999 V2000
    0.3049   -1.4333   -0.1025 C   0  0  2  0  0  0  0  0  0  0  0  0
    0.9044   -1.1609   -1.5114 C   0  0  1  0  0  0  0  0  0  0  0  0
   -1.0551   -1.9041   -0.1774 N   0  0  0  0  0  0  0  0  0  0  0  0
    2.2747   -0.5400   -1.5403 N   0  0  1  0  0  0  0  0  0  0  0  0
   -2.1825   -1.1738   -0.3390 C   0  0  0  0  0  0  0  0  0  0  0  0
   -1.4623   -3.1885   -0.1507 C   0  0  0  0  0  0  0  0  0  0  0  0
    2.3601    0.9048   -1.1310 C   0  0  2  0  0  0  0  0  0  0  0  0
    3.3876   -1.3601   -0.9479 C   0  0  1  0  0  0  0  0  0  0  0  0
   -3.2271   -2.0134   -0.4368 N   0  0  0  0  0  0  0  0  0  0  0  0
   -2.3206    0.2299   -0.4247 C   0  0  0  0  0  0  0  0  0  0  0  0
   -0.7192   -4.2563   -0.0112 N   0  0  0  0  0  0  0  0  0  0  0  0
   -2.7994   -3.2366   -0.3172 O   0  0  0  0  0  0  0  0  0  0  0  0
    1.4345    1.8741   -1.9021 C   0  0  0  0  0  0  0  0  0  0  0  0
    3.5175   -2.8023   -1.4896 C   0  0  0  0  0  0  0  0  0  0  0  0
   -1.8710    1.0828    0.6106 C   0  0  0  0  0  0  0  0  0  0  0  0
   -2.9242    0.7993   -1.5688 C   0  0  0  0  0  0  0  0  0  0  0  0
   -1.9896    2.4805    0.4852 C   0  0  0  0  0  0  0  0  0  0  0  0
   -3.0399    2.1963   -1.6933 C   0  0  0  0  0  0  0  0  0  0  0  0
   -2.5680    3.0370   -0.6696 C   0  0  0  0  0  0  0  0  0  0  0  0
    0.3509   -0.5294    0.4983 H   0  0  0  0  0  0  0  0  0  0  0  0
    0.9228   -2.1689    0.4136 H   0  0  0  0  0  0  0  0  0  0  0  0
    0.9340   -2.1028   -2.0614 H   0  0  0  0  0  0  0  0  0  0  0  0
    0.2147   -0.5414   -2.0850 H   0  0  0  0  0  0  0  0  0  0  0  0
    3.3767    1.2608   -1.3199 H   0  0  0  0  0  0  0  0  0  0  0  0
    2.1741    1.0101   -0.0583 H   0  0  0  0  0  0  0  0  0  0  0  0
    4.3396   -0.8735   -1.1760 H   0  0  0  0  0  0  0  0  0  0  0  0
    3.2939   -1.3958    0.1413 H   0  0  0  0  0  0  0  0  0  0  0  0
   -1.1146   -5.1048   -0.0001 H   0  0  0  0  0  0  0  0  0  0  0  0
    1.5410    1.7207   -2.9784 H   0  0  0  0  0  0  0  0  0  0  0  0
    0.3934    1.7291   -1.6158 H   0  0  0  0  0  0  0  0  0  0  0  0
    1.7002    2.9054   -1.6657 H   0  0  0  0  0  0  0  0  0  0  0  0
    4.4353   -3.2575   -1.1139 H   0  0  0  0  0  0  0  0  0  0  0  0
    3.5500   -2.7927   -2.5811 H   0  0  0  0  0  0  0  0  0  0  0  0
    2.6829   -3.4198   -1.1569 H   0  0  0  0  0  0  0  0  0  0  0  0
   -1.4607    0.6977    1.4660 H   0  0  0  0  0  0  0  0  0  0  0  0
   -3.2741    0.2028   -2.3243 H   0  0  0  0  0  0  0  0  0  0  0  0
   -1.6579    3.0913    1.2356 H   0  0  0  0  0  0  0  0  0  0  0  0
   -3.4684    2.5983   -2.5291 H   0  0  0  0  0  0  0  0  0  0  0  0
   -2.6524    4.0515   -0.7612 H   0  0  0  0  0  0  0  0  0  0  0  0
  1  2  1  0  0  0  0 
  1  3  1  0  0  0  0 
  2  4  1  0  0  0  0 
  3  5  1  0  0  0  0 
  3  6  1  0  0  0  0 
  4  7  1  0  0  0  0 
  4  8  1  0  0  0  0 
  5  9  2  0  0  0  0 
  5 10  1  0  0  0  0 
  6 11  2  0  0  0  0 
  6 12  1  0  0  0  0 
  7 13  1  0  0  0  0 
  8 14  1  0  0  0  0 
  9 12  1  0  0  0  0 
 10 15  2  0  0  0  0 
 10 16  1  0  0  0  0 
 15 17  1  0  0  0  0 
 16 18  2  0  0  0  0 
 17 19  2  0  0  0  0 
 18 19  1  0  0  0  0 
  1 20  1  0  0  0  0 
  1 21  1  0  0  0  0 
  2 22  1  0  0  0  0 
  2 23  1  0  0  0  0 
  7 24  1  0  0  0  0 
  7 25  1  0  0  0  0 
  8 26  1  0  0  0  0 
  8 27  1  0  0  0  0 
 11 28  1  0  0  0  0 
 13 29  1  0  0  0  0 
 13 30  1  0  0  0  0 
 13 31  1  0  0  0  0 
 14 32  1  0  0  0  0 
 14 33  1  0  0  0  0 
 14 34  1  0  0  0  0 
 15 35  1  0  0  0  0 
 16 36  1  0  0  0  0 
 17 37  1  0  0  0  0 
 18 38  1  0  0  0  0 
 19 39  1  0  0  0  0 
M  END
> <cdk:Title>
imolamine

> <Conformer>
1

> <SuperDrugID>
SD001268

$$$$
