cloranolol
  CDK     0628171802

 37 37  0  0  0  0  0  0  0  0999 V2000
    0.1559   -2.5826    2.9863 O   0  0  0  0  0  0  0  0  0  0  0  0
    0.2791   -2.3272    1.5701 C   0  0  1  0  0  0  0  0  0  0  0  0
    1.0842   -3.4923    3.4268 C   0  0  0  0  0  0  0  0  0  0  0  0
   -0.7408   -1.2507    1.1203 C   0  0  2  0  0  0  0  0  0  0  0  0
    2.3515   -3.0780    3.9005 C   0  0  0  0  0  0  0  0  0  0  0  0
    0.7686   -4.8671    3.4009 C   0  0  0  0  0  0  0  0  0  0  0  0
   -0.7042   -0.9901   -0.4076 C   0  0  2  0  0  0  0  0  0  0  0  0
   -0.5038   -0.0316    1.8205 O   0  0  0  0  0  0  0  0  0  0  0  0
    2.7495   -1.4344    4.0092 Cl  0  0  0  0  0  0  0  0  0  0  0  0
    3.3063   -4.0402    4.2853 C   0  0  0  0  0  0  0  0  0  0  0  0
    1.7246   -5.8280    3.7845 C   0  0  0  0  0  0  0  0  0  0  0  0
    0.6347   -0.5253   -0.8522 N   0  0  1  0  0  0  0  0  0  0  0  0
    2.9966   -5.4116    4.2205 C   0  0  0  0  0  0  0  0  0  0  0  0
    1.3518   -7.4782    3.7126 Cl  0  0  0  0  0  0  0  0  0  0  0  0
    0.8910   -0.2760   -2.3036 C   0  0  2  0  0  0  0  0  0  0  0  0
   -0.0580    0.8239   -2.8747 C   0  0  0  0  0  0  0  0  0  0  0  0
    0.7849   -1.5885   -3.1430 C   0  0  0  0  0  0  0  0  0  0  0  0
    2.3605    0.2416   -2.3817 C   0  0  0  0  0  0  0  0  0  0  0  0
    1.2881   -1.9716    1.3368 H   0  0  0  0  0  0  0  0  0  0  0  0
    0.0918   -3.2466    1.0053 H   0  0  0  0  0  0  0  0  0  0  0  0
   -1.7484   -1.5868    1.3834 H   0  0  0  0  0  0  0  0  0  0  0  0
   -0.1586   -5.1652    3.0899 H   0  0  0  0  0  0  0  0  0  0  0  0
   -1.4553   -0.2340   -0.6412 H   0  0  0  0  0  0  0  0  0  0  0  0
   -0.9759   -1.9133   -0.9208 H   0  0  0  0  0  0  0  0  0  0  0  0
   -0.6431   -0.2579    2.7637 H   0  0  0  0  0  0  0  0  0  0  0  0
    4.2328   -3.7520    4.6099 H   0  0  0  0  0  0  0  0  0  0  0  0
    0.8130    0.3542   -0.3626 H   0  0  0  0  0  0  0  0  0  0  0  0
    3.7024   -6.1002    4.4936 H   0  0  0  0  0  0  0  0  0  0  0  0
   -0.0222    1.7218   -2.2532 H   0  0  0  0  0  0  0  0  0  0  0  0
   -1.0902    0.4738   -2.9123 H   0  0  0  0  0  0  0  0  0  0  0  0
    0.2334    1.0963   -3.8909 H   0  0  0  0  0  0  0  0  0  0  0  0
   -0.2411   -1.9566   -3.1773 H   0  0  0  0  0  0  0  0  0  0  0  0
    1.1045   -1.4128   -4.1727 H   0  0  0  0  0  0  0  0  0  0  0  0
    1.4172   -2.3708   -2.7157 H   0  0  0  0  0  0  0  0  0  0  0  0
    2.6412    0.4608   -3.4146 H   0  0  0  0  0  0  0  0  0  0  0  0
    2.4826    1.1556   -1.7964 H   0  0  0  0  0  0  0  0  0  0  0  0
    3.0569   -0.5043   -1.9923 H   0  0  0  0  0  0  0  0  0  0  0  0
  1  2  1  0  0  0  0 
  1  3  1  0  0  0  0 
  4  2  1  0  0  0  0 
  3  5  2  0  0  0  0 
  3  6  1  0  0  0  0 
  4  7  1  0  0  0  0 
  4  8  1  0  0  0  0 
  5  9  1  0  0  0  0 
  5 10  1  0  0  0  0 
  6 11  2  0  0  0  0 
  7 12  1  0  0  0  0 
 10 13  2  0  0  0  0 
 11 13  1  0  0  0  0 
 11 14  1  0  0  0  0 
 12 15  1  0  0  0  0 
 15 16  1  0  0  0  0 
 15 17  1  0  0  0  0 
 15 18  1  0  0  0  0 
  2 19  1  0  0  0  0 
  2 20  1  0  0  0  0 
  4 21  1  0  0  0  0 
  6 22  1  0  0  0  0 
  7 23  1  0  0  0  0 
  7 24  1  0  0  0  0 
  8 25  1  0  0  0  0 
 10 26  1  0  0  0  0 
 12 27  1  0  0  0  0 
 13 28  1  0  0  0  0 
 16 29  1  0  0  0  0 
 16 30  1  0  0  0  0 
 16 31  1  0  0  0  0 
 17 32  1  0  0  0  0 
 17 33  1  0  0  0  0 
 17 34  1  0  0  0  0 
 18 35  1  0  0  0  0 
 18 36  1  0  0  0  0 
 18 37  1  0  0  0  0 
M  END
> <cdk:Title>
cloranolol

> <Conformer>
1

> <SuperDrugID>
SD000627

$$$$
