dactinomycin
  CDK     0628171802

176182  0  0  0  0  0  0  0  0999 V2000
   -3.1893    2.4131    3.3335 C   0  0  0  0  0  0  0  0  0  0  0  0
   -2.4304    3.5544    3.4135 N   0  0  0  0  0  0  0  0  0  0  0  0
   -0.3043    4.2643    5.6604 N   0  0  0  0  0  0  0  0  0  0  0  0
    1.4757    6.6743    4.7099 N   0  0  0  0  0  0  0  0  0  0  0  0
    1.0997    9.2311    1.9548 N   0  0  0  0  0  0  0  0  0  0  0  0
   -2.1950    9.3172    2.6429 N   0  0  0  0  0  0  0  0  0  0  0  0
   -4.3314    1.9359    4.0753 C   0  0  0  0  0  0  0  0  0  0  0  0
   -2.7349    1.7036    2.4082 O   0  0  0  0  0  0  0  0  0  0  0  0
   -5.9151    2.1890    5.9625 C   0  0  0  0  0  0  0  0  0  0  0  0
   -6.6592    1.0685    5.5501 C   0  0  0  0  0  0  0  0  0  0  0  0
   -6.2050    0.3523    4.4247 C   0  0  0  0  0  0  0  0  0  0  0  0
   -5.0695    0.7719    3.6850 C   0  0  0  0  0  0  0  0  0  0  0  0
   -4.7732    2.5881    5.2490 C   0  0  0  0  0  0  0  0  0  0  0  0
   -6.8500   -0.7819    4.0328 O   0  0  0  0  0  0  0  0  0  0  0  0
   -6.4653   -1.5657    2.9865 C   0  0  0  0  0  0  0  0  0  0  0  0
   -5.3435   -1.1683    2.2186 C   0  0  0  0  0  0  0  0  0  0  0  0
   -4.7372   -0.0117    2.6192 N   0  0  0  0  0  0  0  0  0  0  0  0
   -7.1698   -2.7532    2.7070 C   0  0  0  0  0  0  0  0  0  0  0  0
   -6.6806   -3.5864    1.6748 C   0  0  0  0  0  0  0  0  0  0  0  0
   -5.5341   -3.2230    0.9222 C   0  0  0  0  0  0  0  0  0  0  0  0
   -4.8947   -1.9598    1.1151 C   0  0  0  0  0  0  0  0  0  0  0  0
   -7.8753    0.6429    6.2839 C   0  0  0  0  0  0  0  0  0  0  0  0
   -7.2647   -4.6691    1.4287 O   0  0  0  0  0  0  0  0  0  0  0  0
   -8.3715   -3.0902    3.5240 C   0  0  0  0  0  0  0  0  0  0  0  0
   -5.0634   -4.1564    0.0558 N   0  0  0  0  0  0  0  0  0  0  0  0
   -3.8665   -1.4696    0.2264 C   0  0  0  0  0  0  0  0  0  0  0  0
   -3.6893   -1.9390   -1.0538 N   0  0  0  0  0  0  0  0  0  0  0  0
   -4.5915   -2.0405   -3.9090 N   0  0  0  0  0  0  0  0  0  0  0  0
   -5.8624    0.7437   -3.6918 N   0  0  0  0  0  0  0  0  0  0  0  0
   -5.0156    3.2689   -1.0657 N   0  0  0  0  0  0  0  0  0  0  0  0
   -1.3899    3.2847   -2.1627 N   0  0  0  0  0  0  0  0  0  0  0  0
   -3.1355   -0.5164    0.5805 O   0  0  0  0  0  0  0  0  0  0  0  0
   -1.6620    4.4458    5.5462 C   0  0  0  0  0  0  0  0  0  0  0  0
   -3.3867    6.6804    3.2635 O   0  0  0  0  0  0  0  0  0  0  0  0
   -2.4076    4.7059    4.2695 C   0  0  2  0  0  0  0  0  0  0  0  0
   -4.1229    6.3133    5.5302 C   0  0  0  0  0  0  0  0  0  0  0  0
   -3.6947    5.6308    4.2015 C   0  0  1  0  0  0  0  0  0  0  0  0
   -2.2555    4.3739    6.6442 O   0  0  0  0  0  0  0  0  0  0  0  0
    0.9563    5.5689    4.0457 C   0  0  0  0  0  0  0  0  0  0  0  0
    1.5792    1.9388    5.5057 C   0  0  0  0  0  0  0  0  0  0  0  0
    0.6896    4.2028    4.6180 C   0  0  1  0  0  0  0  0  0  0  0  0
    3.0849    3.3655    4.0318 C   0  0  0  0  0  0  0  0  0  0  0  0
    1.9514    3.3966    5.0989 C   0  0  2  0  0  0  0  0  0  0  0  0
    0.6247    5.7034    2.8434 O   0  0  0  0  0  0  0  0  0  0  0  0
    1.7440    8.3026    2.7790 C   0  0  0  0  0  0  0  0  0  0  0  0
    1.4257    8.0391    4.2156 C   0  0  2  0  0  0  0  0  0  0  0  0
    2.3563    8.8324    5.1604 C   0  0  2  0  0  0  0  0  0  0  0  0
    2.2431    8.0656    6.4815 C   0  0  2  0  0  0  0  0  0  0  0  0
    2.0635    6.6124    6.0154 C   0  0  1  0  0  0  0  0  0  0  0  0
    2.6793    7.6036    2.3144 O   0  0  0  0  0  0  0  0  0  0  0  0
   -1.2195   10.0869    2.0061 C   0  0  0  0  0  0  0  0  0  0  0  0
    0.2046   10.2750    2.4409 C   0  0  1  0  0  0  0  0  0  0  0  0
   -1.5338   10.7061    0.9610 O   0  0  0  0  0  0  0  0  0  0  0  0
    1.3858    9.2018    0.5326 C   0  0  0  0  0  0  0  0  0  0  0  0
   -4.0940    7.6940    2.6911 C   0  0  0  0  0  0  0  0  0  0  0  0
   -4.1702    7.6307   -0.3524 C   0  0  0  0  0  0  0  0  0  0  0  0
   -3.3141    8.6928    1.8888 C   0  0  2  0  0  0  0  0  0  0  0  0
   -1.9144    6.8562    0.6104 C   0  0  0  0  0  0  0  0  0  0  0  0
   -2.9305    8.0292    0.5031 C   0  0  1  0  0  0  0  0  0  0  0  0
   -5.3332    7.7924    2.8440 O   0  0  0  0  0  0  0  0  0  0  0  0
   -2.1943    9.2660    4.0971 C   0  0  0  0  0  0  0  0  0  0  0  0
   -3.3111   -1.8942   -3.4255 C   0  0  0  0  0  0  0  0  0  0  0  0
   -0.8440    0.0002   -1.5355 O   0  0  0  0  0  0  0  0  0  0  0  0
   -2.8849   -1.3432   -2.0903 C   0  0  2  0  0  0  0  0  0  0  0  0
   -0.3262   -2.2012   -2.4811 C   0  0  0  0  0  0  0  0  0  0  0  0
   -1.3463   -1.3420   -1.6901 C   0  0  1  0  0  0  0  0  0  0  0  0
   -2.4680   -2.2322   -4.2854 O   0  0  0  0  0  0  0  0  0  0  0  0
   -5.9351   -0.3595   -2.8506 C   0  0  0  0  0  0  0  0  0  0  0  0
   -8.4498   -1.9812   -3.5628 C   0  0  0  0  0  0  0  0  0  0  0  0
   -5.8596   -1.7963   -3.2708 C   0  0  1  0  0  0  0  0  0  0  0  0
   -6.9634   -3.8699   -4.3796 C   0  0  0  0  0  0  0  0  0  0  0  0
   -7.0504   -2.3321   -4.1503 C   0  0  1  0  0  0  0  0  0  0  0  0
   -5.9827   -0.1798   -1.6105 O   0  0  0  0  0  0  0  0  0  0  0  0
   -5.8689    2.5933   -1.9397 C   0  0  0  0  0  0  0  0  0  0  0  0
   -5.4554    2.0712   -3.2823 C   0  0  2  0  0  0  0  0  0  0  0  0
   -5.9486    2.9808   -4.4261 C   0  0  2  0  0  0  0  0  0  0  0  0
   -5.8179    2.0877   -5.6634 C   0  0  2  0  0  0  0  0  0  0  0  0
   -6.0863    0.6794   -5.1083 C   0  0  1  0  0  0  0  0  0  0  0  0
   -7.0612    2.3737   -1.6072 O   0  0  0  0  0  0  0  0  0  0  0  0
   -2.5591    3.0612   -1.4277 C   0  0  0  0  0  0  0  0  0  0  0  0
   -3.7841    3.8984   -1.5228 C   0  0  1  0  0  0  0  0  0  0  0  0
   -2.6233    2.1088   -0.6148 O   0  0  0  0  0  0  0  0  0  0  0  0
   -5.3738    3.3719    0.3341 C   0  0  0  0  0  0  0  0  0  0  0  0
   -0.7222    0.9929   -2.4726 C   0  0  0  0  0  0  0  0  0  0  0  0
    1.8595    1.6355   -0.7445 C   0  0  0  0  0  0  0  0  0  0  0  0
   -0.2542    2.3582   -2.0911 C   0  0  2  0  0  0  0  0  0  0  0  0
    0.8781    3.9393   -0.3645 C   0  0  0  0  0  0  0  0  0  0  0  0
    0.5395    2.4636   -0.7317 C   0  0  2  0  0  0  0  0  0  0  0  0
   -1.0802    0.7892   -3.6578 O   0  0  0  0  0  0  0  0  0  0  0  0
   -1.2940    4.4346   -3.0437 C   0  0  0  0  0  0  0  0  0  0  0  0
   -1.7330    3.5866    2.7372 H   0  0  0  0  0  0  0  0  0  0  0  0
    0.0293    4.1503    6.5659 H   0  0  0  0  0  0  0  0  0  0  0  0
   -6.1926    2.7208    6.7918 H   0  0  0  0  0  0  0  0  0  0  0  0
   -4.2661    3.3689    5.6272 H   0  0  0  0  0  0  0  0  0  0  0  0
   -7.7186   -0.3515    6.7060 H   0  0  0  0  0  0  0  0  0  0  0  0
   -8.1246    1.3256    7.0990 H   0  0  0  0  0  0  0  0  0  0  0  0
   -8.7243    0.6098    5.5973 H   0  0  0  0  0  0  0  0  0  0  0  0
   -8.0887   -3.1862    4.5746 H   0  0  0  0  0  0  0  0  0  0  0  0
   -8.8465   -4.0252    3.2218 H   0  0  0  0  0  0  0  0  0  0  0  0
   -9.1154   -2.2943    3.4369 H   0  0  0  0  0  0  0  0  0  0  0  0
   -4.2063   -4.0438   -0.3792 H   0  0  0  0  0  0  0  0  0  0  0  0
   -5.5734   -4.9644   -0.1103 H   0  0  0  0  0  0  0  0  0  0  0  0
   -4.2006   -2.7138   -1.3154 H   0  0  0  0  0  0  0  0  0  0  0  0
   -4.6465   -2.3660   -4.8219 H   0  0  0  0  0  0  0  0  0  0  0  0
   -1.6689    5.3090    3.7502 H   0  0  0  0  0  0  0  0  0  0  0  0
   -4.5207    5.5858    6.2364 H   0  0  0  0  0  0  0  0  0  0  0  0
   -3.2718    6.8246    5.9830 H   0  0  0  0  0  0  0  0  0  0  0  0
   -4.9040    7.0527    5.3503 H   0  0  0  0  0  0  0  0  0  0  0  0
   -4.5433    5.0645    3.8096 H   0  0  0  0  0  0  0  0  0  0  0  0
    2.4591    1.4024    5.8687 H   0  0  0  0  0  0  0  0  0  0  0  0
    0.8388    1.9370    6.3083 H   0  0  0  0  0  0  0  0  0  0  0  0
    1.1691    1.3946    4.6520 H   0  0  0  0  0  0  0  0  0  0  0  0
    0.2602    3.5831    3.8243 H   0  0  0  0  0  0  0  0  0  0  0  0
    3.4823    4.3677    3.8606 H   0  0  0  0  0  0  0  0  0  0  0  0
    3.9120    2.7342    4.3651 H   0  0  0  0  0  0  0  0  0  0  0  0
    2.7081    2.9711    3.0856 H   0  0  0  0  0  0  0  0  0  0  0  0
    2.3601    3.8624    5.9978 H   0  0  0  0  0  0  0  0  0  0  0  0
    0.4073    8.3575    4.4079 H   0  0  0  0  0  0  0  0  0  0  0  0
    2.0416    9.8733    5.2718 H   0  0  0  0  0  0  0  0  0  0  0  0
    3.3941    8.8071    4.8129 H   0  0  0  0  0  0  0  0  0  0  0  0
    1.3615    8.3986    7.0380 H   0  0  0  0  0  0  0  0  0  0  0  0
    3.1328    8.1912    7.1042 H   0  0  0  0  0  0  0  0  0  0  0  0
    1.4371    6.0745    6.7303 H   0  0  0  0  0  0  0  0  0  0  0  0
    3.0450    6.1357    5.9495 H   0  0  0  0  0  0  0  0  0  0  0  0
    0.2820   10.4232    3.5139 H   0  0  0  0  0  0  0  0  0  0  0  0
    0.5729   11.2265    2.0404 H   0  0  0  0  0  0  0  0  0  0  0  0
    1.1093    8.2302    0.1157 H   0  0  0  0  0  0  0  0  0  0  0  0
    0.8445    9.9647   -0.0309 H   0  0  0  0  0  0  0  0  0  0  0  0
    2.4511    9.3702    0.3621 H   0  0  0  0  0  0  0  0  0  0  0  0
   -4.7562    6.8513    0.1367 H   0  0  0  0  0  0  0  0  0  0  0  0
   -3.8570    7.2625   -1.3317 H   0  0  0  0  0  0  0  0  0  0  0  0
   -4.8124    8.4987   -0.5149 H   0  0  0  0  0  0  0  0  0  0  0  0
   -3.9939    9.5205    1.6557 H   0  0  0  0  0  0  0  0  0  0  0  0
   -1.5544    6.5798   -0.3812 H   0  0  0  0  0  0  0  0  0  0  0  0
   -2.3660    5.9715    1.0604 H   0  0  0  0  0  0  0  0  0  0  0  0
   -1.0523    7.1518    1.2078 H   0  0  0  0  0  0  0  0  0  0  0  0
   -2.4343    8.7789   -0.1110 H   0  0  0  0  0  0  0  0  0  0  0  0
   -3.2023    9.4286    4.4844 H   0  0  0  0  0  0  0  0  0  0  0  0
   -1.8495    8.2920    4.4384 H   0  0  0  0  0  0  0  0  0  0  0  0
   -1.5887   10.0337    4.5744 H   0  0  0  0  0  0  0  0  0  0  0  0
   -3.1983   -0.2977   -2.1407 H   0  0  0  0  0  0  0  0  0  0  0  0
    0.6187   -2.2418   -1.9344 H   0  0  0  0  0  0  0  0  0  0  0  0
   -0.1232   -1.7785   -3.4648 H   0  0  0  0  0  0  0  0  0  0  0  0
   -0.6979   -3.2205   -2.5900 H   0  0  0  0  0  0  0  0  0  0  0  0
   -1.2646   -1.7526   -0.6802 H   0  0  0  0  0  0  0  0  0  0  0  0
   -8.5746   -2.4287   -2.5745 H   0  0  0  0  0  0  0  0  0  0  0  0
   -9.2406   -2.3574   -4.2160 H   0  0  0  0  0  0  0  0  0  0  0  0
   -8.5784   -0.9012   -3.4761 H   0  0  0  0  0  0  0  0  0  0  0  0
   -5.8831   -2.4243   -2.3748 H   0  0  0  0  0  0  0  0  0  0  0  0
   -7.0815   -4.4085   -3.4375 H   0  0  0  0  0  0  0  0  0  0  0  0
   -6.0034   -4.1433   -4.8203 H   0  0  0  0  0  0  0  0  0  0  0  0
   -7.7475   -4.1961   -5.0673 H   0  0  0  0  0  0  0  0  0  0  0  0
   -6.9908   -1.8909   -5.1466 H   0  0  0  0  0  0  0  0  0  0  0  0
   -4.3619    2.0339   -3.3232 H   0  0  0  0  0  0  0  0  0  0  0  0
   -5.3414    3.8835   -4.5191 H   0  0  0  0  0  0  0  0  0  0  0  0
   -6.9984    3.2585   -4.2850 H   0  0  0  0  0  0  0  0  0  0  0  0
   -4.8042    2.1479   -6.0710 H   0  0  0  0  0  0  0  0  0  0  0  0
   -6.5362    2.3668   -6.4386 H   0  0  0  0  0  0  0  0  0  0  0  0
   -5.4239   -0.0409   -5.5968 H   0  0  0  0  0  0  0  0  0  0  0  0
   -7.1303    0.4193   -5.3023 H   0  0  0  0  0  0  0  0  0  0  0  0
   -3.9226    4.2386   -2.5482 H   0  0  0  0  0  0  0  0  0  0  0  0
   -3.5879    4.8053   -0.9545 H   0  0  0  0  0  0  0  0  0  0  0  0
   -5.5899    2.2744    0.6904 H   0  0  0  0  0  0  0  0  0  0  0  0
   -4.5548    3.9020    0.9127 H   0  0  0  0  0  0  0  0  0  0  0  0
   -6.2435    4.0907    0.3879 H   0  0  0  0  0  0  0  0  0  0  0  0
    2.3792    1.7312    0.2123 H   0  0  0  0  0  0  0  0  0  0  0  0
    1.6564    0.5764   -0.9038 H   0  0  0  0  0  0  0  0  0  0  0  0
    2.5250    1.9854   -1.5377 H   0  0  0  0  0  0  0  0  0  0  0  0
    0.4803    2.6033   -2.8661 H   0  0  0  0  0  0  0  0  0  0  0  0
   -0.0327    4.5162   -0.2095 H   0  0  0  0  0  0  0  0  0  0  0  0
    1.4533    3.9859    0.5612 H   0  0  0  0  0  0  0  0  0  0  0  0
    1.4621    4.4105   -1.1583 H   0  0  0  0  0  0  0  0  0  0  0  0
   -0.0836    2.0674    0.0755 H   0  0  0  0  0  0  0  0  0  0  0  0
   -0.2705    4.6591   -3.3493 H   0  0  0  0  0  0  0  0  0  0  0  0
   -1.8804    4.2505   -3.9457 H   0  0  0  0  0  0  0  0  0  0  0  0
   -1.6676    5.3379   -2.5570 H   0  0  0  0  0  0  0  0  0  0  0  0
  1  2  1  0  0  0  0 
 33  3  1  0  0  0  0 
 39  4  1  0  0  0  0 
 45  5  1  0  0  0  0 
 51  6  1  0  0  0  0 
  1  7  1  0  0  0  0 
  1  8  2  0  0  0  0 
 12  7  2  0  0  0  0 
  7 13  1  0  0  0  0 
  9 10  1  0  0  0  0 
 10 11  2  0  0  0  0 
  9 13  2  0  0  0  0 
 11 14  1  0  0  0  0 
 11 12  1  0  0  0  0 
 12 17  1  0  0  0  0 
 14 15  1  0  0  0  0 
 16 17  2  0  0  0  0 
 16 21  1  0  0  0  0 
 16 15  1  0  0  0  0 
 15 18  2  0  0  0  0 
 18 19  1  0  0  0  0 
 19 20  1  0  0  0  0 
 20 21  2  0  0  0  0 
 10 22  1  0  0  0  0 
 19 23  2  0  0  0  0 
 18 24  1  0  0  0  0 
 20 25  1  0  0  0  0 
 26 27  1  0  0  0  0 
 62 28  1  0  0  0  0 
 68 29  1  0  0  0  0 
 74 30  1  0  0  0  0 
 80 31  1  0  0  0  0 
 26 32  2  0  0  0  0 
 21 26  1  0  0  0  0 
 63 84  1  0  0  0  0 
 34 55  1  0  0  0  0 
 36 37  1  0  0  0  0 
 37 34  1  0  0  0  0 
 37 35  1  0  0  0  0 
 35  2  1  0  0  0  0 
 35 33  1  0  0  0  0 
 33 38  2  0  0  0  0 
 42 43  1  0  0  0  0 
 43 40  1  0  0  0  0 
 43 41  1  0  0  0  0 
 41  3  1  0  0  0  0 
 41 39  1  0  0  0  0 
 39 44  2  0  0  0  0 
 50 45  2  0  0  0  0 
 46 45  1  0  0  0  0 
 46 47  1  0  0  0  0 
 47 48  1  0  0  0  0 
 48 49  1  0  0  0  0 
 49  4  1  0  0  0  0 
 46  4  1  0  0  0  0 
  5 52  1  0  0  0  0 
 52 51  1  0  0  0  0 
 51 53  2  0  0  0  0 
  5 54  1  0  0  0  0 
 58 59  1  0  0  0  0 
 59 56  1  0  0  0  0 
 59 57  1  0  0  0  0 
 57  6  1  0  0  0  0 
 57 55  1  0  0  0  0 
 55 60  2  0  0  0  0 
  6 61  1  0  0  0  0 
 65 66  1  0  0  0  0 
 66 63  1  0  0  0  0 
 66 64  1  0  0  0  0 
 64 27  1  0  0  0  0 
 64 62  1  0  0  0  0 
 62 67  2  0  0  0  0 
 71 72  1  0  0  0  0 
 72 69  1  0  0  0  0 
 72 70  1  0  0  0  0 
 70 28  1  0  0  0  0 
 70 68  1  0  0  0  0 
 68 73  2  0  0  0  0 
 79 74  2  0  0  0  0 
 75 74  1  0  0  0  0 
 75 76  1  0  0  0  0 
 76 77  1  0  0  0  0 
 77 78  1  0  0  0  0 
 78 29  1  0  0  0  0 
 75 29  1  0  0  0  0 
 30 81  1  0  0  0  0 
 81 80  1  0  0  0  0 
 80 82  2  0  0  0  0 
 30 83  1  0  0  0  0 
 87 88  1  0  0  0  0 
 88 85  1  0  0  0  0 
 88 86  1  0  0  0  0 
 86 31  1  0  0  0  0 
 86 84  1  0  0  0  0 
 84 89  2  0  0  0  0 
 31 90  1  0  0  0  0 
  2 91  1  0  0  0  0 
  3 92  1  0  0  0  0 
  9 93  1  0  0  0  0 
 13 94  1  0  0  0  0 
 22 95  1  0  0  0  0 
 22 96  1  0  0  0  0 
 22 97  1  0  0  0  0 
 24 98  1  0  0  0  0 
 24 99  1  0  0  0  0 
 24100  1  0  0  0  0 
 25101  1  0  0  0  0 
 25102  1  0  0  0  0 
 27103  1  0  0  0  0 
 28104  1  0  0  0  0 
 35105  1  0  0  0  0 
 36106  1  0  0  0  0 
 36107  1  0  0  0  0 
 36108  1  0  0  0  0 
 37109  1  0  0  0  0 
 40110  1  0  0  0  0 
 40111  1  0  0  0  0 
 40112  1  0  0  0  0 
 41113  1  0  0  0  0 
 42114  1  0  0  0  0 
 42115  1  0  0  0  0 
 42116  1  0  0  0  0 
 43117  1  0  0  0  0 
 46118  1  0  0  0  0 
 47119  1  0  0  0  0 
 47120  1  0  0  0  0 
 48121  1  0  0  0  0 
 48122  1  0  0  0  0 
 49123  1  0  0  0  0 
 49124  1  0  0  0  0 
 52125  1  0  0  0  0 
 52126  1  0  0  0  0 
 54127  1  0  0  0  0 
 54128  1  0  0  0  0 
 54129  1  0  0  0  0 
 56130  1  0  0  0  0 
 56131  1  0  0  0  0 
 56132  1  0  0  0  0 
 57133  1  0  0  0  0 
 58134  1  0  0  0  0 
 58135  1  0  0  0  0 
 58136  1  0  0  0  0 
 59137  1  0  0  0  0 
 61138  1  0  0  0  0 
 61139  1  0  0  0  0 
 61140  1  0  0  0  0 
 64141  1  0  0  0  0 
 65142  1  0  0  0  0 
 65143  1  0  0  0  0 
 65144  1  0  0  0  0 
 66145  1  0  0  0  0 
 69146  1  0  0  0  0 
 69147  1  0  0  0  0 
 69148  1  0  0  0  0 
 70149  1  0  0  0  0 
 71150  1  0  0  0  0 
 71151  1  0  0  0  0 
 71152  1  0  0  0  0 
 72153  1  0  0  0  0 
 75154  1  0  0  0  0 
 76155  1  0  0  0  0 
 76156  1  0  0  0  0 
 77157  1  0  0  0  0 
 77158  1  0  0  0  0 
 78159  1  0  0  0  0 
 78160  1  0  0  0  0 
 81161  1  0  0  0  0 
 81162  1  0  0  0  0 
 83163  1  0  0  0  0 
 83164  1  0  0  0  0 
 83165  1  0  0  0  0 
 85166  1  0  0  0  0 
 85167  1  0  0  0  0 
 85168  1  0  0  0  0 
 86169  1  0  0  0  0 
 87170  1  0  0  0  0 
 87171  1  0  0  0  0 
 87172  1  0  0  0  0 
 88173  1  0  0  0  0 
 90174  1  0  0  0  0 
 90175  1  0  0  0  0 
 90176  1  0  0  0  0 
M  END
> <cdk:Title>
dactinomycin

> <Conformer>
1

> <SuperDrugID>
SD000682

$$$$
