orlistat
  CDK     0628171801

 88 88  0  0  0  0  0  0  0  0999 V2000
   -1.6973   -4.2804    1.8473 C   0  0  2  0  0  0  0  0  0  0  0  0
   -1.8962   -2.8094    2.3433 C   0  0  1  0  0  0  0  0  0  0  0  0
   -2.6714   -4.7948    0.7492 C   0  0  1  0  0  0  0  0  0  0  0  0
   -1.5529   -1.7915    1.3771 O   0  0  0  0  0  0  0  0  0  0  0  0
   -3.3203   -2.4554    2.8778 C   0  0  1  0  0  0  0  0  0  0  0  0
   -2.5038   -6.3050    0.3736 C   0  0  2  0  0  0  0  0  0  0  0  0
   -3.9875   -5.1219    1.2295 O   0  0  0  0  0  0  0  0  0  0  0  0
   -0.3304   -1.6120    0.7953 C   0  0  0  0  0  0  0  0  0  0  0  0
   -3.7420   -3.2591    4.1454 C   0  0  1  0  0  0  0  0  0  0  0  0
   -2.3638   -6.6671   -1.1306 C   0  0  2  0  0  0  0  0  0  0  0  0
   -3.8509   -6.4188    0.9104 C   0  0  0  0  0  0  0  0  0  0  0  0
    0.5600   -0.4998    1.2210 C   0  0  2  0  0  0  0  0  0  0  0  0
    0.0203   -2.3891   -0.1233 O   0  0  0  0  0  0  0  0  0  0  0  0
   -5.2179   -3.0615    4.5949 C   0  0  2  0  0  0  0  0  0  0  0  0
   -0.9588   -6.2939   -1.6684 C   0  0  2  0  0  0  0  0  0  0  0  0
   -4.6196   -7.3953    1.0499 O   0  0  0  0  0  0  0  0  0  0  0  0
    0.8839   -0.6195    2.7429 C   0  0  1  0  0  0  0  0  0  0  0  0
   -0.0801    0.7600    0.9635 N   0  0  0  0  0  0  0  0  0  0  0  0
   -5.6057   -1.6140    5.0024 C   0  0  2  0  0  0  0  0  0  0  0  0
   -0.7156   -6.6918   -3.1496 C   0  0  2  0  0  0  0  0  0  0  0  0
    2.0183    0.3145    3.2811 C   0  0  2  0  0  0  0  0  0  0  0  0
    0.4502    1.8118    0.2893 C   0  0  0  0  0  0  0  0  0  0  0  0
   -7.0699   -1.5148    5.5158 C   0  0  1  0  0  0  0  0  0  0  0  0
    0.6823   -6.2180   -3.6388 C   0  0  1  0  0  0  0  0  0  0  0  0
    3.4132   -0.0447    2.6940 C   0  0  0  0  0  0  0  0  0  0  0  0
    2.0617    0.2727    4.8369 C   0  0  0  0  0  0  0  0  0  0  0  0
    1.5964    1.7985   -0.2146 O   0  0  0  0  0  0  0  0  0  0  0  0
   -7.4978   -0.0594    5.8436 C   0  0  2  0  0  0  0  0  0  0  0  0
    0.9932   -6.5907   -5.1122 C   0  0  1  0  0  0  0  0  0  0  0  0
   -8.9675    0.0596    6.3373 C   0  0  1  0  0  0  0  0  0  0  0  0
    2.3854   -6.0961   -5.5701 C   0  0  0  0  0  0  0  0  0  0  0  0
   -9.3613    1.5322    6.6387 C   0  0  1  0  0  0  0  0  0  0  0  0
  -10.8260    1.6990    7.1252 C   0  0  1  0  0  0  0  0  0  0  0  0
  -11.1802    3.1799    7.4363 C   0  0  1  0  0  0  0  0  0  0  0  0
  -12.6318    3.3609    7.9361 C   0  0  0  0  0  0  0  0  0  0  0  0
   -1.7612   -4.9484    2.7079 H   0  0  0  0  0  0  0  0  0  0  0  0
   -0.6800   -4.3859    1.4649 H   0  0  0  0  0  0  0  0  0  0  0  0
   -1.2039   -2.6762    3.1814 H   0  0  0  0  0  0  0  0  0  0  0  0
   -2.7165   -4.1243   -0.1164 H   0  0  0  0  0  0  0  0  0  0  0  0
   -3.2609   -1.3697    3.2135 H   0  0  0  0  0  0  0  0  0  0  0  0
   -4.0600   -2.6929    2.0498 H   0  0  0  0  0  0  0  0  0  0  0  0
   -1.7935   -6.8479    1.0046 H   0  0  0  0  0  0  0  0  0  0  0  0
   -3.6252   -4.3279    3.9603 H   0  0  0  0  0  0  0  0  0  0  0  0
   -3.0738   -2.9997    4.9718 H   0  0  0  0  0  0  0  0  0  0  0  0
   -3.1274   -6.1499   -1.7178 H   0  0  0  0  0  0  0  0  0  0  0  0
   -2.5179   -7.7443   -1.2432 H   0  0  0  0  0  0  0  0  0  0  0  0
    1.4899   -0.5907    0.6529 H   0  0  0  0  0  0  0  0  0  0  0  0
   -5.3879   -3.7156    5.4557 H   0  0  0  0  0  0  0  0  0  0  0  0
   -5.8821   -3.3994    3.7947 H   0  0  0  0  0  0  0  0  0  0  0  0
   -0.2076   -6.7888   -1.0471 H   0  0  0  0  0  0  0  0  0  0  0  0
   -0.8245   -5.2138   -1.5696 H   0  0  0  0  0  0  0  0  0  0  0  0
   -0.0337   -0.4102    3.3023 H   0  0  0  0  0  0  0  0  0  0  0  0
    1.1620   -1.6537    2.9690 H   0  0  0  0  0  0  0  0  0  0  0  0
   -0.9760    0.8767    1.3167 H   0  0  0  0  0  0  0  0  0  0  0  0
   -5.4937   -0.9525    4.1409 H   0  0  0  0  0  0  0  0  0  0  0  0
   -4.9284   -1.2717    5.7888 H   0  0  0  0  0  0  0  0  0  0  0  0
   -1.4906   -6.2454   -3.7794 H   0  0  0  0  0  0  0  0  0  0  0  0
   -0.7837   -7.7791   -3.2446 H   0  0  0  0  0  0  0  0  0  0  0  0
    1.7916    1.3466    2.9936 H   0  0  0  0  0  0  0  0  0  0  0  0
   -0.1112    2.6570    0.1898 H   0  0  0  0  0  0  0  0  0  0  0  0
   -7.7444   -1.9145    4.7539 H   0  0  0  0  0  0  0  0  0  0  0  0
   -7.1710   -2.1247    6.4172 H   0  0  0  0  0  0  0  0  0  0  0  0
    0.7388   -5.1308   -3.5347 H   0  0  0  0  0  0  0  0  0  0  0  0
    1.4497   -6.6591   -2.9965 H   0  0  0  0  0  0  0  0  0  0  0  0
    3.4607    0.2203    1.6393 H   0  0  0  0  0  0  0  0  0  0  0  0
    4.2073    0.5056    3.2019 H   0  0  0  0  0  0  0  0  0  0  0  0
    3.6197   -1.1124    2.7894 H   0  0  0  0  0  0  0  0  0  0  0  0
    1.1249    0.6469    5.2518 H   0  0  0  0  0  0  0  0  0  0  0  0
    2.8686    0.8968    5.2264 H   0  0  0  0  0  0  0  0  0  0  0  0
    2.2141   -0.7476    5.1945 H   0  0  0  0  0  0  0  0  0  0  0  0
   -7.3802    0.5510    4.9440 H   0  0  0  0  0  0  0  0  0  0  0  0
   -6.8304    0.3389    6.6129 H   0  0  0  0  0  0  0  0  0  0  0  0
    0.9540   -7.6767   -5.2277 H   0  0  0  0  0  0  0  0  0  0  0  0
    0.2343   -6.1512   -5.7642 H   0  0  0  0  0  0  0  0  0  0  0  0
   -9.6376   -0.3421    5.5717 H   0  0  0  0  0  0  0  0  0  0  0  0
   -9.0937   -0.5382    7.2441 H   0  0  0  0  0  0  0  0  0  0  0  0
    2.5567   -6.3848   -6.6077 H   0  0  0  0  0  0  0  0  0  0  0  0
    2.4487   -5.0093   -5.4979 H   0  0  0  0  0  0  0  0  0  0  0  0
    3.1708   -6.5374   -4.9541 H   0  0  0  0  0  0  0  0  0  0  0  0
   -8.6910    1.9266    7.4071 H   0  0  0  0  0  0  0  0  0  0  0  0
   -9.2234    2.1257    5.7309 H   0  0  0  0  0  0  0  0  0  0  0  0
  -11.5039    1.3257    6.3529 H   0  0  0  0  0  0  0  0  0  0  0  0
  -10.9754    1.1012    8.0287 H   0  0  0  0  0  0  0  0  0  0  0  0
  -10.5014    3.5644    8.2031 H   0  0  0  0  0  0  0  0  0  0  0  0
  -11.0469    3.7838    6.5341 H   0  0  0  0  0  0  0  0  0  0  0  0
  -12.8238    4.4166    8.1429 H   0  0  0  0  0  0  0  0  0  0  0  0
  -13.3414    3.0206    7.1787 H   0  0  0  0  0  0  0  0  0  0  0  0
  -12.7917    2.7926    8.8551 H   0  0  0  0  0  0  0  0  0  0  0  0
  2  1  1  0  0  0  0 
  2  4  1  0  0  0  0 
  2  5  1  0  0  0  0 
  3  1  1  0  0  0  0 
  6  3  1  0  0  0  0 
  3  7  1  0  0  0  0 
  4  8  1  0  0  0  0 
  5  9  1  0  0  0  0 
  6 10  1  0  0  0  0 
  6 11  1  0  0  0  0 
  7 11  1  0  0  0  0 
 12  8  1  0  0  0  0 
  8 13  2  0  0  0  0 
  9 14  1  0  0  0  0 
 10 15  1  0  0  0  0 
 11 16  2  0  0  0  0 
 12 17  1  0  0  0  0 
 12 18  1  0  0  0  0 
 14 19  1  0  0  0  0 
 15 20  1  0  0  0  0 
 17 21  1  0  0  0  0 
 18 22  1  0  0  0  0 
 19 23  1  0  0  0  0 
 20 24  1  0  0  0  0 
 21 25  1  0  0  0  0 
 21 26  1  0  0  0  0 
 22 27  2  0  0  0  0 
 23 28  1  0  0  0  0 
 24 29  1  0  0  0  0 
 28 30  1  0  0  0  0 
 29 31  1  0  0  0  0 
 30 32  1  0  0  0  0 
 32 33  1  0  0  0  0 
 33 34  1  0  0  0  0 
 34 35  1  0  0  0  0 
  1 36  1  0  0  0  0 
  1 37  1  0  0  0  0 
  2 38  1  0  0  0  0 
  3 39  1  0  0  0  0 
  5 40  1  0  0  0  0 
  5 41  1  0  0  0  0 
  6 42  1  0  0  0  0 
  9 43  1  0  0  0  0 
  9 44  1  0  0  0  0 
 10 45  1  0  0  0  0 
 10 46  1  0  0  0  0 
 12 47  1  0  0  0  0 
 14 48  1  0  0  0  0 
 14 49  1  0  0  0  0 
 15 50  1  0  0  0  0 
 15 51  1  0  0  0  0 
 17 52  1  0  0  0  0 
 17 53  1  0  0  0  0 
 18 54  1  0  0  0  0 
 19 55  1  0  0  0  0 
 19 56  1  0  0  0  0 
 20 57  1  0  0  0  0 
 20 58  1  0  0  0  0 
 21 59  1  0  0  0  0 
 22 60  1  0  0  0  0 
 23 61  1  0  0  0  0 
 23 62  1  0  0  0  0 
 24 63  1  0  0  0  0 
 24 64  1  0  0  0  0 
 25 65  1  0  0  0  0 
 25 66  1  0  0  0  0 
 25 67  1  0  0  0  0 
 26 68  1  0  0  0  0 
 26 69  1  0  0  0  0 
 26 70  1  0  0  0  0 
 28 71  1  0  0  0  0 
 28 72  1  0  0  0  0 
 29 73  1  0  0  0  0 
 29 74  1  0  0  0  0 
 30 75  1  0  0  0  0 
 30 76  1  0  0  0  0 
 31 77  1  0  0  0  0 
 31 78  1  0  0  0  0 
 31 79  1  0  0  0  0 
 32 80  1  0  0  0  0 
 32 81  1  0  0  0  0 
 33 82  1  0  0  0  0 
 33 83  1  0  0  0  0 
 34 84  1  0  0  0  0 
 34 85  1  0  0  0  0 
 35 86  1  0  0  0  0 
 35 87  1  0  0  0  0 
 35 88  1  0  0  0  0 
M  END
> <cdk:Title>
orlistat

> <Conformer>
1

> <SuperDrugID>
SD001785

$$$$
