losartan
  CDK     0628171801

 53 56  0  0  0  0  0  0  0  0999 V2000
    3.4770    2.3582    0.2515 C   0  0  1  0  0  0  0  0  0  0  0  0
    4.1237    1.3688   -0.5866 N   0  0  0  0  0  0  0  0  0  0  0  0
    2.4638    3.1704   -0.4734 C   0  0  0  0  0  0  0  0  0  0  0  0
    3.5379    0.2857   -1.1709 C   0  0  0  0  0  0  0  0  0  0  0  0
    5.4382    1.3427   -0.9282 C   0  0  0  0  0  0  0  0  0  0  0  0
    1.1103    3.1888   -0.0602 C   0  0  0  0  0  0  0  0  0  0  0  0
    2.8386    3.9352   -1.6032 C   0  0  0  0  0  0  0  0  0  0  0  0
    2.1175   -0.1487   -1.1220 C   0  0  1  0  0  0  0  0  0  0  0  0
    4.4534   -0.4074   -1.8711 N   0  0  0  0  0  0  0  0  0  0  0  0
    6.4965    2.3015   -0.5262 C   0  0  2  0  0  0  0  0  0  0  0  0
    5.6227    0.2221   -1.7356 C   0  0  0  0  0  0  0  0  0  0  0  0
    0.1478    3.9072   -0.7898 C   0  0  0  0  0  0  0  0  0  0  0  0
    1.8794    4.6516   -2.3394 C   0  0  0  0  0  0  0  0  0  0  0  0
    1.7317   -0.8797    0.1933 C   0  0  2  0  0  0  0  0  0  0  0  0
    6.2443    3.5911   -1.0702 O   0  0  0  0  0  0  0  0  0  0  0  0
    7.0496   -0.3112   -2.4691 Cl  0  0  0  0  0  0  0  0  0  0  0  0
    0.5246    4.6169   -1.9494 C   0  0  0  0  0  0  0  0  0  0  0  0
    0.2244   -1.2552    0.2526 C   0  0  2  0  0  0  0  0  0  0  0  0
   -0.4640    5.2258   -2.7468 C   0  0  0  0  0  0  0  0  0  0  0  0
   -0.1659   -1.9312    1.5871 C   0  0  0  0  0  0  0  0  0  0  0  0
   -1.2583    4.4708   -3.6618 C   0  0  0  0  0  0  0  0  0  0  0  0
   -0.6787    6.6148   -2.5872 C   0  0  0  0  0  0  0  0  0  0  0  0
   -2.2874    5.1485   -4.3618 C   0  0  0  0  0  0  0  0  0  0  0  0
   -1.0617    3.0789   -3.9120 C   0  0  0  0  0  0  0  0  0  0  0  0
   -1.7026    7.2595   -3.2997 C   0  0  0  0  0  0  0  0  0  0  0  0
   -2.5116    6.5243   -4.1806 C   0  0  0  0  0  0  0  0  0  0  0  0
   -1.9267    2.2324   -4.4840 N   0  0  0  0  0  0  0  0  0  0  0  0
    0.0246    2.3365   -3.6434 N   0  0  0  0  0  0  0  0  0  0  0  0
   -1.3929    1.0606   -4.5525 N   0  0  0  0  0  0  0  0  0  0  0  0
   -0.2065    1.1277   -4.0406 N   0  0  0  0  0  0  0  0  0  0  0  0
    3.0343    1.8462    1.1068 H   0  0  0  0  0  0  0  0  0  0  0  0
    4.1972    3.0597    0.6739 H   0  0  0  0  0  0  0  0  0  0  0  0
    0.8086    2.6632    0.7654 H   0  0  0  0  0  0  0  0  0  0  0  0
    3.8107    3.9655   -1.9130 H   0  0  0  0  0  0  0  0  0  0  0  0
    1.4712    0.7131   -1.2746 H   0  0  0  0  0  0  0  0  0  0  0  0
    1.9274   -0.8269   -1.9572 H   0  0  0  0  0  0  0  0  0  0  0  0
    7.4823    1.9841   -0.8670 H   0  0  0  0  0  0  0  0  0  0  0  0
    6.5235    2.3680    0.5615 H   0  0  0  0  0  0  0  0  0  0  0  0
   -0.8282    3.8959   -0.4804 H   0  0  0  0  0  0  0  0  0  0  0  0
    2.1704    5.1746   -3.1714 H   0  0  0  0  0  0  0  0  0  0  0  0
    1.9627   -0.2421    1.0476 H   0  0  0  0  0  0  0  0  0  0  0  0
    2.3289   -1.7913    0.2828 H   0  0  0  0  0  0  0  0  0  0  0  0
    6.9680    4.1567   -0.7266 H   0  0  0  0  0  0  0  0  0  0  0  0
   -0.0177   -1.9386   -0.5665 H   0  0  0  0  0  0  0  0  0  0  0  0
   -0.3823   -0.3526    0.1332 H   0  0  0  0  0  0  0  0  0  0  0  0
   -1.2379   -2.1388    1.6019 H   0  0  0  0  0  0  0  0  0  0  0  0
    0.0701   -1.2787    2.4304 H   0  0  0  0  0  0  0  0  0  0  0  0
    0.3715   -2.8740    1.7082 H   0  0  0  0  0  0  0  0  0  0  0  0
   -0.0995    7.1669   -1.9463 H   0  0  0  0  0  0  0  0  0  0  0  0
   -2.8859    4.6492   -5.0246 H   0  0  0  0  0  0  0  0  0  0  0  0
   -1.8620    8.2626   -3.1742 H   0  0  0  0  0  0  0  0  0  0  0  0
   -3.2626    6.9910   -4.6941 H   0  0  0  0  0  0  0  0  0  0  0  0
   -2.8166    2.4602   -4.7972 H   0  0  0  0  0  0  0  0  0  0  0  0
  1  2  1  0  0  0  0 
  1  3  1  0  0  0  0 
  2  4  1  0  0  0  0 
  2  5  1  0  0  0  0 
  3  6  2  0  0  0  0 
  3  7  1  0  0  0  0 
  4  8  1  0  0  0  0 
  4  9  2  0  0  0  0 
  5 10  1  0  0  0  0 
  5 11  2  0  0  0  0 
  6 12  1  0  0  0  0 
  7 13  2  0  0  0  0 
  8 14  1  0  0  0  0 
  9 11  1  0  0  0  0 
 10 15  1  0  0  0  0 
 11 16  1  0  0  0  0 
 12 17  2  0  0  0  0 
 13 17  1  0  0  0  0 
 14 18  1  0  0  0  0 
 17 19  1  0  0  0  0 
 18 20  1  0  0  0  0 
 19 21  2  0  0  0  0 
 19 22  1  0  0  0  0 
 21 23  1  0  0  0  0 
 21 24  1  0  0  0  0 
 22 25  2  0  0  0  0 
 23 26  2  0  0  0  0 
 24 27  1  0  0  0  0 
 24 28  2  0  0  0  0 
 25 26  1  0  0  0  0 
 27 29  1  0  0  0  0 
 28 30  1  0  0  0  0 
 29 30  2  0  0  0  0 
 31  1  1  0  0  0  0 
 32  1  1  0  0  0  0 
 33  6  1  0  0  0  0 
 34  7  1  0  0  0  0 
 35  8  1  0  0  0  0 
 36  8  1  0  0  0  0 
 37 10  1  0  0  0  0 
 38 10  1  0  0  0  0 
 39 12  1  0  0  0  0 
 40 13  1  0  0  0  0 
 41 14  1  0  0  0  0 
 42 14  1  0  0  0  0 
 43 15  1  0  0  0  0 
 44 18  1  0  0  0  0 
 45 18  1  0  0  0  0 
 46 20  1  0  0  0  0 
 47 20  1  0  0  0  0 
 48 20  1  0  0  0  0 
 49 22  1  0  0  0  0 
 50 23  1  0  0  0  0 
 51 25  1  0  0  0  0 
 52 26  1  0  0  0  0 
 53 27  1  0  0  0  0 
M  END
> <cdk:Title>
losartan

> <Conformer>
1

> <SuperDrugID>
SD001424

$$$$
