ceruletide
  CDK     0628171802

167171  0  0  0  0  0  0  0  0999 V2000
    7.1072   13.8368   -5.2043 C   0  0  0  0  0  0  0  0  0  0  0  0
    7.8778   12.8258   -4.7072 N   0  0  0  0  0  0  0  0  0  0  0  0
    6.5050   10.6107   -3.5793 N   0  0  0  0  0  0  0  0  0  0  0  0
    5.3805    7.7121   -3.4031 N   0  0  0  0  0  0  0  0  0  0  0  0
    3.8468    5.2783   -2.0627 N   0  0  0  0  0  0  0  0  0  0  0  0
    2.1201    2.7298   -0.9141 N   0  0  0  0  0  0  0  0  0  0  0  0
   -0.3424    1.6018   -2.4352 N   0  0  0  0  0  0  0  0  0  0  0  0
    0.3865   -0.7994   -3.9309 N   0  0  0  0  0  0  0  0  0  0  0  0
    0.6157   -3.0206   -6.4883 N   0  0  0  0  0  0  0  0  0  0  0  0
    2.4884   -5.4814   -7.7495 N   0  0  0  0  0  0  0  0  0  0  0  0
    4.3956   -7.6730   -9.5283 N   0  0  0  0  0  0  0  0  0  0  0  0
    6.5606   13.7517   -6.3294 O   0  0  0  0  0  0  0  0  0  0  0  0
    6.8787   15.0482   -4.3795 C   0  0  1  0  0  0  0  0  0  0  0  0
    8.2239   15.3923   -2.3373 C   0  0  2  0  0  0  0  0  0  0  0  0
    6.8939   14.8479   -2.0798 C   0  0  0  0  0  0  0  0  0  0  0  0
    6.1882   14.6816   -3.1999 N   0  0  0  0  0  0  0  0  0  0  0  0
    8.1648   15.7365   -3.8440 C   0  0  2  0  0  0  0  0  0  0  0  0
    6.4589   14.5473   -0.9460 O   0  0  0  0  0  0  0  0  0  0  0  0
    0.0073    3.0429   -8.2117 S   0  0  2  0  0  0  0  0  0  0  0  0
   -1.2380    4.0365   -8.0531 O   0  0  0  0  0  0  0  0  0  0  0  0
   -0.4346    1.7543   -9.0525 O   0  0  0  0  0  0  0  0  0  0  0  0
    0.5295    2.5358   -6.6645 O   0  0  0  0  0  0  0  0  0  0  0  0
    7.7405   10.5637   -4.1588 C   0  0  0  0  0  0  0  0  0  0  0  0
    9.4763   11.3499   -5.8685 C   0  0  2  0  0  0  0  0  0  0  0  0
    9.7559   12.2834   -7.0800 C   0  0  2  0  0  0  0  0  0  0  0  0
   11.0548   12.0038   -7.7307 C   0  0  0  0  0  0  0  0  0  0  0  0
   11.3030   10.8064   -8.2943 N   0  0  0  0  0  0  0  0  0  0  0  0
   11.9474   12.8802   -7.7863 O   0  0  0  0  0  0  0  0  0  0  0  0
    8.0482   11.5130   -5.2619 C   0  0  2  0  0  0  0  0  0  0  0  0
    8.6043    9.7477   -3.7560 O   0  0  0  0  0  0  0  0  0  0  0  0
    5.0046    8.9410   -2.9467 C   0  0  0  0  0  0  0  0  0  0  0  0
    5.6260   10.8326   -1.3195 C   0  0  1  0  0  0  0  0  0  0  0  0
    5.1984   10.1560   -0.0765 C   0  0  0  0  0  0  0  0  0  0  0  0
    3.9255   10.2458    0.3736 O   0  0  0  0  0  0  0  0  0  0  0  0
    6.0134    9.4887    0.5994 O   0  0  0  0  0  0  0  0  0  0  0  0
    6.0643    9.8508   -2.4478 C   0  0  2  0  0  0  0  0  0  0  0  0
    3.8121    9.3264   -2.9950 O   0  0  0  0  0  0  0  0  0  0  0  0
    4.7526    5.5279   -3.0490 C   0  0  0  0  0  0  0  0  0  0  0  0
    1.2777    3.8328   -9.0575 O   0  0  0  0  0  0  0  0  0  0  0  0
    3.9890    5.8169   -6.4327 C   0  0  0  0  0  0  0  0  0  0  0  0
    4.2484    4.5112   -6.9965 C   0  0  0  0  0  0  0  0  0  0  0  0
    3.3464    3.8572   -7.8533 C   0  0  0  0  0  0  0  0  0  0  0  0
    2.1235    4.4611   -8.1938 C   0  0  0  0  0  0  0  0  0  0  0  0
    5.0245    6.5879   -5.5296 C   0  0  1  0  0  0  0  0  0  0  0  0
    1.8076    5.7246   -7.6642 C   0  0  0  0  0  0  0  0  0  0  0  0
    2.7054    6.3742   -6.8000 C   0  0  0  0  0  0  0  0  0  0  0  0
    4.5450    6.7010   -3.9833 C   0  0  2  0  0  0  0  0  0  0  0  0
    5.7987    4.8442   -3.1593 O   0  0  0  0  0  0  0  0  0  0  0  0
    2.6529    3.9306   -0.5344 C   0  0  0  0  0  0  0  0  0  0  0  0
    4.9321    3.9915    1.2585 O   0  0  0  0  0  0  0  0  0  0  0  0
    4.0046    4.3282   -1.0025 C   0  0  2  0  0  0  0  0  0  0  0  0
    4.6804    6.3093    0.6244 C   0  0  0  0  0  0  0  0  0  0  0  0
    4.9507    4.8642    0.1269 C   0  0  1  0  0  0  0  0  0  0  0  0
    2.0067    4.7101    0.2066 O   0  0  0  0  0  0  0  0  0  0  0  0
    0.2546    1.2047   -1.2726 C   0  0  0  0  0  0  0  0  0  0  0  0
    0.9023    2.1976   -0.3933 C   0  0  2  0  0  0  0  0  0  0  0  0
    0.1953    0.0132   -0.8864 O   0  0  0  0  0  0  0  0  0  0  0  0
   -0.5801    0.0927   -4.2803 C   0  0  0  0  0  0  0  0  0  0  0  0
   -2.4276    1.7833   -3.6665 C   0  0  1  0  0  0  0  0  0  0  0  0
   -3.6746    1.0726   -4.0333 C   0  0  0  0  0  0  0  0  0  0  0  0
   -4.1959    0.8975   -5.3170 C   0  0  0  0  0  0  0  0  0  0  0  0
   -5.3302    0.1790   -5.2448 N   0  0  0  0  0  0  0  0  0  0  0  0
   -5.5795   -0.1158   -3.9596 C   0  0  0  0  0  0  0  0  0  0  0  0
   -4.5723    0.4407   -3.1707 C   0  0  0  0  0  0  0  0  0  0  0  0
   -4.5978    0.3080   -1.7680 C   0  0  0  0  0  0  0  0  0  0  0  0
   -5.6528   -0.4234   -1.1802 C   0  0  0  0  0  0  0  0  0  0  0  0
   -6.6591   -1.0068   -1.9844 C   0  0  0  0  0  0  0  0  0  0  0  0
   -6.6305   -0.8531   -3.3871 C   0  0  0  0  0  0  0  0  0  0  0  0
   -1.2857    0.8235   -3.1960 C   0  0  2  0  0  0  0  0  0  0  0  0
   -0.8558    0.2936   -5.4869 O   0  0  0  0  0  0  0  0  0  0  0  0
    0.9105   -2.7816   -5.1803 C   0  0  0  0  0  0  0  0  0  0  0  0
    3.8872   -1.9378   -4.9426 C   0  0  1  0  0  0  0  0  0  0  0  0
    2.7228   -1.3588   -4.1003 C   0  0  2  0  0  0  0  0  0  0  0  0
    1.3362   -1.4094   -4.8068 C   0  0  2  0  0  0  0  0  0  0  0  0
    6.6883   -1.8785   -5.5162 C   0  0  0  0  0  0  0  0  0  0  0  0
    5.4969   -1.5425   -4.1855 S   0  0  0  0  0  0  0  0  0  0  0  0
    0.8734   -3.6906   -4.3167 O   0  0  0  0  0  0  0  0  0  0  0  0
    1.6214   -4.4597   -7.9872 C   0  0  0  0  0  0  0  0  0  0  0  0
   -0.9004   -4.2941   -7.9360 C   0  0  2  0  0  0  0  0  0  0  0  0
   -1.1733   -5.5905   -8.5915 C   0  0  0  0  0  0  0  0  0  0  0  0
   -1.2800   -5.6835   -9.9356 O   0  0  0  0  0  0  0  0  0  0  0  0
   -1.3159   -6.6352   -7.9174 O   0  0  0  0  0  0  0  0  0  0  0  0
    0.4268   -4.2882   -7.1256 C   0  0  2  0  0  0  0  0  0  0  0  0
    1.8477   -3.6169   -8.8899 O   0  0  0  0  0  0  0  0  0  0  0  0
    4.1444   -7.0493   -8.3645 C   0  0  0  0  0  0  0  0  0  0  0  0
    4.7917   -4.7573   -7.5076 C   0  0  2  0  0  0  0  0  0  0  0  0
    6.1773   -4.7118   -8.0531 C   0  0  0  0  0  0  0  0  0  0  0  0
    6.4739   -3.9423   -9.2047 C   0  0  0  0  0  0  0  0  0  0  0  0
    7.7953   -3.8328   -9.6773 C   0  0  0  0  0  0  0  0  0  0  0  0
    8.8359   -4.5008   -9.0092 C   0  0  0  0  0  0  0  0  0  0  0  0
    8.5542   -5.2865   -7.8787 C   0  0  0  0  0  0  0  0  0  0  0  0
    7.2350   -5.3910   -7.4036 C   0  0  0  0  0  0  0  0  0  0  0  0
    3.7880   -5.6121   -8.3365 C   0  0  2  0  0  0  0  0  0  0  0  0
    4.2163   -7.7211   -7.3098 O   0  0  0  0  0  0  0  0  0  0  0  0
    8.3247   12.9978   -3.8633 H   0  0  0  0  0  0  0  0  0  0  0  0
    5.8649   11.2354   -3.9571 H   0  0  0  0  0  0  0  0  0  0  0  0
    6.3263    7.5021   -3.3355 H   0  0  0  0  0  0  0  0  0  0  0  0
    3.0493    5.8291   -2.0465 H   0  0  0  0  0  0  0  0  0  0  0  0
    2.6314    2.1848   -1.5360 H   0  0  0  0  0  0  0  0  0  0  0  0
   -0.1609    2.5063   -2.7407 H   0  0  0  0  0  0  0  0  0  0  0  0
    0.4806   -0.9954   -2.9875 H   0  0  0  0  0  0  0  0  0  0  0  0
    0.5865   -2.2459   -7.0711 H   0  0  0  0  0  0  0  0  0  0  0  0
    2.2354   -6.1361   -7.0792 H   0  0  0  0  0  0  0  0  0  0  0  0
    4.3349   -7.1819  -10.3630 H   0  0  0  0  0  0  0  0  0  0  0  0
    4.6382   -8.6123   -9.5347 H   0  0  0  0  0  0  0  0  0  0  0  0
    6.2594   15.7705   -4.9207 H   0  0  0  0  0  0  0  0  0  0  0  0
    8.9835   14.6348   -2.1241 H   0  0  0  0  0  0  0  0  0  0  0  0
    8.4052   16.2811   -1.7279 H   0  0  0  0  0  0  0  0  0  0  0  0
    5.2848   14.3308   -3.2036 H   0  0  0  0  0  0  0  0  0  0  0  0
    8.0756   16.8183   -3.9731 H   0  0  0  0  0  0  0  0  0  0  0  0
    9.0717   15.4071   -4.3573 H   0  0  0  0  0  0  0  0  0  0  0  0
    0.5261    3.3538   -6.1232 H   0  0  0  0  0  0  0  0  0  0  0  0
   10.2267   11.5389   -5.0960 H   0  0  0  0  0  0  0  0  0  0  0  0
    9.5884   10.3107   -6.1909 H   0  0  0  0  0  0  0  0  0  0  0  0
    9.7393   13.3226   -6.7373 H   0  0  0  0  0  0  0  0  0  0  0  0
    8.9676   12.1648   -7.8286 H   0  0  0  0  0  0  0  0  0  0  0  0
   10.6318   10.1068   -8.2619 H   0  0  0  0  0  0  0  0  0  0  0  0
   12.1525   10.6387   -8.7327 H   0  0  0  0  0  0  0  0  0  0  0  0
    7.3247   11.3205   -6.0595 H   0  0  0  0  0  0  0  0  0  0  0  0
    4.8209   11.4779   -1.6829 H   0  0  0  0  0  0  0  0  0  0  0  0
    6.4695   11.4817   -1.0669 H   0  0  0  0  0  0  0  0  0  0  0  0
    3.2596   10.7658   -0.1221 H   0  0  0  0  0  0  0  0  0  0  0  0
    6.8828    9.2452   -2.0409 H   0  0  0  0  0  0  0  0  0  0  0  0
    5.1292    4.0403   -6.7750 H   0  0  0  0  0  0  0  0  0  0  0  0
    3.5863    2.9381   -8.2319 H   0  0  0  0  0  0  0  0  0  0  0  0
    5.9986    6.0953   -5.5755 H   0  0  0  0  0  0  0  0  0  0  0  0
    5.1454    7.5871   -5.9566 H   0  0  0  0  0  0  0  0  0  0  0  0
    0.9211    6.1732   -7.9075 H   0  0  0  0  0  0  0  0  0  0  0  0
    2.4412    7.2901   -6.4296 H   0  0  0  0  0  0  0  0  0  0  0  0
    3.4701    7.0097   -3.8522 H   0  0  0  0  0  0  0  0  0  0  0  0
    5.1712    3.1090    0.9080 H   0  0  0  0  0  0  0  0  0  0  0  0
    4.4771    3.4267   -1.4068 H   0  0  0  0  0  0  0  0  0  0  0  0
    5.4566    6.6071    1.3332 H   0  0  0  0  0  0  0  0  0  0  0  0
    4.6907    7.0137   -0.2108 H   0  0  0  0  0  0  0  0  0  0  0  0
    3.7197    6.3799    1.1357 H   0  0  0  0  0  0  0  0  0  0  0  0
    5.9716    4.8512   -0.2647 H   0  0  0  0  0  0  0  0  0  0  0  0
    0.1735    2.9889   -0.2003 H   0  0  0  0  0  0  0  0  0  0  0  0
    1.1436    1.7409    0.5687 H   0  0  0  0  0  0  0  0  0  0  0  0
   -2.0738    2.3865   -4.5073 H   0  0  0  0  0  0  0  0  0  0  0  0
   -2.6779    2.4865   -2.8682 H   0  0  0  0  0  0  0  0  0  0  0  0
   -3.7812    1.2508   -6.1806 H   0  0  0  0  0  0  0  0  0  0  0  0
   -5.8758   -0.0895   -6.0004 H   0  0  0  0  0  0  0  0  0  0  0  0
   -3.8700    0.7274   -1.1839 H   0  0  0  0  0  0  0  0  0  0  0  0
   -5.6881   -0.5350   -0.1651 H   0  0  0  0  0  0  0  0  0  0  0  0
   -7.4143   -1.5417   -1.5486 H   0  0  0  0  0  0  0  0  0  0  0  0
   -7.3566   -1.2692   -3.9739 H   0  0  0  0  0  0  0  0  0  0  0  0
   -1.7336    0.0686   -2.5430 H   0  0  0  0  0  0  0  0  0  0  0  0
    3.7954   -3.0233   -5.0102 H   0  0  0  0  0  0  0  0  0  0  0  0
    3.8646   -1.5182   -5.9498 H   0  0  0  0  0  0  0  0  0  0  0  0
    2.9451   -0.3098   -3.8753 H   0  0  0  0  0  0  0  0  0  0  0  0
    2.6752   -1.8944   -3.1465 H   0  0  0  0  0  0  0  0  0  0  0  0
    1.4344   -0.8005   -5.7133 H   0  0  0  0  0  0  0  0  0  0  0  0
    6.6104   -2.9200   -5.8206 H   0  0  0  0  0  0  0  0  0  0  0  0
    6.4809   -1.2301   -6.3688 H   0  0  0  0  0  0  0  0  0  0  0  0
    7.6972   -1.6847   -5.1522 H   0  0  0  0  0  0  0  0  0  0  0  0
   -1.7305   -4.0712   -7.2615 H   0  0  0  0  0  0  0  0  0  0  0  0
   -0.8742   -3.5009   -8.6901 H   0  0  0  0  0  0  0  0  0  0  0  0
   -1.1929   -4.8858  -10.4961 H   0  0  0  0  0  0  0  0  0  0  0  0
    0.3848   -5.0896   -6.3798 H   0  0  0  0  0  0  0  0  0  0  0  0
    4.4260   -3.7279   -7.4639 H   0  0  0  0  0  0  0  0  0  0  0  0
    4.7941   -5.1206   -6.4745 H   0  0  0  0  0  0  0  0  0  0  0  0
    5.7309   -3.4385   -9.6957 H   0  0  0  0  0  0  0  0  0  0  0  0
    7.9993   -3.2657  -10.5041 H   0  0  0  0  0  0  0  0  0  0  0  0
    9.7967   -4.4156   -9.3441 H   0  0  0  0  0  0  0  0  0  0  0  0
    9.3077   -5.7810   -7.3982 H   0  0  0  0  0  0  0  0  0  0  0  0
    7.0554   -5.9556   -6.5700 H   0  0  0  0  0  0  0  0  0  0  0  0
    3.7694   -5.2326   -9.3636 H   0  0  0  0  0  0  0  0  0  0  0  0
  1  2  1  0  0  0  0 
 23  3  1  0  0  0  0 
 31  4  1  0  0  0  0 
 38  5  1  0  0  0  0 
 49  6  1  0  0  0  0 
 55  7  1  0  0  0  0 
 58  8  1  0  0  0  0 
 71  9  1  0  0  0  0 
 78 10  1  0  0  0  0 
 85 11  1  0  0  0  0 
  1 12  2  0  0  0  0 
 13  1  1  0  0  0  0 
 16 13  1  0  0  0  0 
 13 17  1  0  0  0  0 
 14 15  1  0  0  0  0 
 15 16  1  0  0  0  0 
 14 17  1  0  0  0  0 
 15 18  2  0  0  0  0 
 39 19  1  0  0  0  0 
 19 20  2  0  0  0  0 
 19 21  2  0  0  0  0 
 19 22  1  0  0  0  0 
 29  2  1  0  0  0  0 
 29 24  1  0  0  0  0 
 24 25  1  0  0  0  0 
 25 26  1  0  0  0  0 
 26 27  1  0  0  0  0 
 26 28  2  0  0  0  0 
 29 23  1  0  0  0  0 
 23 30  2  0  0  0  0 
 36  3  1  0  0  0  0 
 36 32  1  0  0  0  0 
 32 33  1  0  0  0  0 
 33 34  1  0  0  0  0 
 33 35  2  0  0  0  0 
 36 31  1  0  0  0  0 
 31 37  2  0  0  0  0 
 47  4  1  0  0  0  0 
 47 44  1  0  0  0  0 
 44 40  1  0  0  0  0 
 40 41  2  0  0  0  0 
 41 42  1  0  0  0  0 
 42 43  2  0  0  0  0 
 43 39  1  0  0  0  0 
 43 45  1  0  0  0  0 
 45 46  2  0  0  0  0 
 40 46  1  0  0  0  0 
 47 38  1  0  0  0  0 
 38 48  2  0  0  0  0 
 52 53  1  0  0  0  0 
 53 50  1  0  0  0  0 
 53 51  1  0  0  0  0 
 51  5  1  0  0  0  0 
 51 49  1  0  0  0  0 
 49 54  2  0  0  0  0 
  6 56  1  0  0  0  0 
 56 55  1  0  0  0  0 
 55 57  2  0  0  0  0 
 69  7  1  0  0  0  0 
 69 59  1  0  0  0  0 
 59 60  1  0  0  0  0 
 60 61  2  0  0  0  0 
 61 62  1  0  0  0  0 
 62 63  1  0  0  0  0 
 63 64  1  0  0  0  0 
 60 64  1  0  0  0  0 
 64 65  2  0  0  0  0 
 65 66  1  0  0  0  0 
 66 67  2  0  0  0  0 
 67 68  1  0  0  0  0 
 63 68  2  0  0  0  0 
 69 58  1  0  0  0  0 
 58 70  2  0  0  0  0 
 75 76  1  0  0  0  0 
 76 72  1  0  0  0  0 
 72 73  1  0  0  0  0 
 73 74  1  0  0  0  0 
 74  8  1  0  0  0  0 
 74 71  1  0  0  0  0 
 71 77  2  0  0  0  0 
 83  9  1  0  0  0  0 
 83 79  1  0  0  0  0 
 79 80  1  0  0  0  0 
 80 81  1  0  0  0  0 
 80 82  2  0  0  0  0 
 83 78  1  0  0  0  0 
 78 84  2  0  0  0  0 
 93 10  1  0  0  0  0 
 93 86  1  0  0  0  0 
 86 87  1  0  0  0  0 
 87 88  2  0  0  0  0 
 88 89  1  0  0  0  0 
 89 90  2  0  0  0  0 
 90 91  1  0  0  0  0 
 91 92  2  0  0  0  0 
 87 92  1  0  0  0  0 
 93 85  1  0  0  0  0 
 85 94  2  0  0  0  0 
  2 95  1  0  0  0  0 
  3 96  1  0  0  0  0 
  4 97  1  0  0  0  0 
  5 98  1  0  0  0  0 
  6 99  1  0  0  0  0 
  7100  1  0  0  0  0 
  8101  1  0  0  0  0 
  9102  1  0  0  0  0 
 10103  1  0  0  0  0 
 11104  1  0  0  0  0 
 11105  1  0  0  0  0 
 13106  1  0  0  0  0 
 14107  1  0  0  0  0 
 14108  1  0  0  0  0 
 16109  1  0  0  0  0 
 17110  1  0  0  0  0 
 17111  1  0  0  0  0 
 22112  1  0  0  0  0 
 24113  1  0  0  0  0 
 24114  1  0  0  0  0 
 25115  1  0  0  0  0 
 25116  1  0  0  0  0 
 27117  1  0  0  0  0 
 27118  1  0  0  0  0 
 29119  1  0  0  0  0 
 32120  1  0  0  0  0 
 32121  1  0  0  0  0 
 34122  1  0  0  0  0 
 36123  1  0  0  0  0 
 41124  1  0  0  0  0 
 42125  1  0  0  0  0 
 44126  1  0  0  0  0 
 44127  1  0  0  0  0 
 45128  1  0  0  0  0 
 46129  1  0  0  0  0 
 47130  1  0  0  0  0 
 50131  1  0  0  0  0 
 51132  1  0  0  0  0 
 52133  1  0  0  0  0 
 52134  1  0  0  0  0 
 52135  1  0  0  0  0 
 53136  1  0  0  0  0 
 56137  1  0  0  0  0 
 56138  1  0  0  0  0 
 59139  1  0  0  0  0 
 59140  1  0  0  0  0 
 61141  1  0  0  0  0 
 62142  1  0  0  0  0 
 65143  1  0  0  0  0 
 66144  1  0  0  0  0 
 67145  1  0  0  0  0 
 68146  1  0  0  0  0 
 69147  1  0  0  0  0 
 72148  1  0  0  0  0 
 72149  1  0  0  0  0 
 73150  1  0  0  0  0 
 73151  1  0  0  0  0 
 74152  1  0  0  0  0 
 75153  1  0  0  0  0 
 75154  1  0  0  0  0 
 75155  1  0  0  0  0 
 79156  1  0  0  0  0 
 79157  1  0  0  0  0 
 81158  1  0  0  0  0 
 83159  1  0  0  0  0 
 86160  1  0  0  0  0 
 86161  1  0  0  0  0 
 88162  1  0  0  0  0 
 89163  1  0  0  0  0 
 90164  1  0  0  0  0 
 91165  1  0  0  0  0 
 92166  1  0  0  0  0 
 93167  1  0  0  0  0 
M  END
> <cdk:Title>
ceruletide

> <Conformer>
1

> <SuperDrugID>
SD000506

$$$$
