methenolone
  CDK     0628171801

 52 55  0  0  0  0  0  0  0  0999 V2000
   -0.5873    0.6678   -2.0568 C   0  0  0  0  0  0  0  0  0  0  0  0
   -0.9807    0.8778   -0.5437 C   0  0  1  0  0  0  0  0  0  0  0  0
   -1.0366    2.4463   -0.1595 C   0  0  2  0  0  0  0  0  0  0  0  0
   -2.4604    0.3440   -0.2610 C   0  0  1  0  0  0  0  0  0  0  0  0
   -0.0125   -0.0078    0.2193 C   0  0  0  0  0  0  0  0  0  0  0  0
   -2.1725    3.2233   -0.9646 C   0  0  2  0  0  0  0  0  0  0  0  0
    0.3165    3.2577   -0.1618 C   0  0  1  0  0  0  0  0  0  0  0  0
   -3.6032    1.0937   -1.0056 C   0  0  1  0  0  0  0  0  0  0  0  0
   -2.5926   -1.1928   -0.4467 C   0  0  1  0  0  0  0  0  0  0  0  0
    1.3918    0.3531    0.4562 C   0  0  0  0  0  0  0  0  0  0  0  0
   -0.3500   -1.2556    0.6391 C   0  0  0  0  0  0  0  0  0  0  0  0
   -2.1848    4.7550   -0.6408 C   0  0  1  0  0  0  0  0  0  0  0  0
   -3.5735    2.6019   -0.6847 C   0  0  1  0  0  0  0  0  0  0  0  0
    0.2006    4.7938    0.0766 C   0  0  1  0  0  0  0  0  0  0  0  0
   -1.5544   -1.8717    0.3498 C   0  0  0  0  0  0  0  0  0  0  0  0
   -0.8162    5.4528   -0.9032 C   0  0  1  0  0  0  0  0  0  0  0  0
   -3.2025    5.6839   -1.3450 C   0  0  2  0  0  0  0  0  0  0  0  0
   -1.7570   -3.0488    0.7333 O   0  0  0  0  0  0  0  0  0  0  0  0
   -0.2713    5.3644   -2.3801 C   0  0  0  0  0  0  0  0  0  0  0  0
   -1.1984    6.9333   -0.5808 C   0  0  2  0  0  0  0  0  0  0  0  0
   -2.6155    7.1113   -1.1880 C   0  0  1  0  0  0  0  0  0  0  0  0
   -0.2847    7.9125   -1.0775 O   0  0  0  0  0  0  0  0  0  0  0  0
   -0.5159   -0.3918   -2.3095 H   0  0  0  0  0  0  0  0  0  0  0  0
    0.3795    1.1152   -2.2868 H   0  0  0  0  0  0  0  0  0  0  0  0
   -1.3109    1.0994   -2.7443 H   0  0  0  0  0  0  0  0  0  0  0  0
   -1.3398    2.4877    0.8947 H   0  0  0  0  0  0  0  0  0  0  0  0
   -2.6656    0.5126    0.8065 H   0  0  0  0  0  0  0  0  0  0  0  0
   -1.9939    3.1296   -2.0347 H   0  0  0  0  0  0  0  0  0  0  0  0
    0.9451    2.9220    0.6594 H   0  0  0  0  0  0  0  0  0  0  0  0
    0.8555    3.0797   -1.0917 H   0  0  0  0  0  0  0  0  0  0  0  0
   -3.5358    0.9368   -2.0833 H   0  0  0  0  0  0  0  0  0  0  0  0
   -4.5707    0.6984   -0.6794 H   0  0  0  0  0  0  0  0  0  0  0  0
   -3.5803   -1.5181   -0.1111 H   0  0  0  0  0  0  0  0  0  0  0  0
   -2.4809   -1.4729   -1.4962 H   0  0  0  0  0  0  0  0  0  0  0  0
    2.0609   -0.5141    0.4455 H   0  0  0  0  0  0  0  0  0  0  0  0
    1.7833    1.0041   -0.3213 H   0  0  0  0  0  0  0  0  0  0  0  0
    1.4880    0.8340    1.4319 H   0  0  0  0  0  0  0  0  0  0  0  0
    0.3033   -1.7997    1.1633 H   0  0  0  0  0  0  0  0  0  0  0  0
   -2.4193    4.8262    0.4304 H   0  0  0  0  0  0  0  0  0  0  0  0
   -3.8377    2.7437    0.3692 H   0  0  0  0  0  0  0  0  0  0  0  0
   -4.3364    3.0946   -1.2911 H   0  0  0  0  0  0  0  0  0  0  0  0
   -0.1107    4.9590    1.1155 H   0  0  0  0  0  0  0  0  0  0  0  0
    1.1868    5.2540   -0.0383 H   0  0  0  0  0  0  0  0  0  0  0  0
   -4.1887    5.6158   -0.8774 H   0  0  0  0  0  0  0  0  0  0  0  0
   -3.2969    5.4201   -2.4015 H   0  0  0  0  0  0  0  0  0  0  0  0
   -0.1728    4.3394   -2.7318 H   0  0  0  0  0  0  0  0  0  0  0  0
   -0.9186    5.8860   -3.0862 H   0  0  0  0  0  0  0  0  0  0  0  0
    0.7181    5.8242   -2.4395 H   0  0  0  0  0  0  0  0  0  0  0  0
   -1.2628    7.0809    0.5020 H   0  0  0  0  0  0  0  0  0  0  0  0
   -2.5618    7.6027   -2.1649 H   0  0  0  0  0  0  0  0  0  0  0  0
   -3.2425    7.7201   -0.5298 H   0  0  0  0  0  0  0  0  0  0  0  0
    0.5643    7.7333   -0.6234 H   0  0  0  0  0  0  0  0  0  0  0  0
  2  1  1  0  0  0  0 
  2  3  1  0  0  0  0 
  2  4  1  0  0  0  0 
  2  5  1  0  0  0  0 
  3  6  1  0  0  0  0 
  3  7  1  0  0  0  0 
  4  8  1  0  0  0  0 
  4  9  1  0  0  0  0 
  5 10  1  0  0  0  0 
  5 11  2  0  0  0  0 
  6 12  1  0  0  0  0 
  6 13  1  0  0  0  0 
  7 14  1  0  0  0  0 
  8 13  1  0  0  0  0 
  9 15  1  0  0  0  0 
 11 15  1  0  0  0  0 
 12 16  1  0  0  0  0 
 12 17  1  0  0  0  0 
 16 14  1  0  0  0  0 
 15 18  2  0  0  0  0 
 16 19  1  0  0  0  0 
 16 20  1  0  0  0  0 
 17 21  1  0  0  0  0 
 20 21  1  0  0  0  0 
 20 22  1  0  0  0  0 
 23  1  1  0  0  0  0 
 24  1  1  0  0  0  0 
 25  1  1  0  0  0  0 
  3 26  1  0  0  0  0 
  4 27  1  0  0  0  0 
  6 28  1  0  0  0  0 
 29  7  1  0  0  0  0 
 30  7  1  0  0  0  0 
 31  8  1  0  0  0  0 
 32  8  1  0  0  0  0 
 33  9  1  0  0  0  0 
 34  9  1  0  0  0  0 
 35 10  1  0  0  0  0 
 36 10  1  0  0  0  0 
 37 10  1  0  0  0  0 
 38 11  1  0  0  0  0 
 12 39  1  0  0  0  0 
 40 13  1  0  0  0  0 
 41 13  1  0  0  0  0 
 42 14  1  0  0  0  0 
 43 14  1  0  0  0  0 
 44 17  1  0  0  0  0 
 45 17  1  0  0  0  0 
 46 19  1  0  0  0  0 
 47 19  1  0  0  0  0 
 48 19  1  0  0  0  0 
 20 49  1  0  0  0  0 
 50 21  1  0  0  0  0 
 51 21  1  0  0  0  0 
 52 22  1  0  0  0  0 
M  END
> <cdk:Title>
methenolone

> <Conformer>
1

> <SuperDrugID>
SD001543

$$$$
