lopinavir
  CDK     0628171801

 94 97  0  0  0  0  0  0  0  0999 V2000
    2.9664    1.3116    5.5668 C   0  0  2  0  0  0  0  0  0  0  0  0
    2.3434    1.7760    4.2873 C   0  0  0  0  0  0  0  0  0  0  0  0
    2.5546    2.0948    6.8769 C   0  0  1  0  0  0  0  0  0  0  0  0
    4.4169    1.0698    5.5120 N   0  0  0  0  0  0  0  0  0  0  0  0
    3.0144    1.6810    3.1067 N   0  0  0  0  0  0  0  0  0  0  0  0
    1.1585    2.1866    4.2811 O   0  0  0  0  0  0  0  0  0  0  0  0
    2.7560    3.6373    6.8194 C   0  0  0  0  0  0  0  0  0  0  0  0
    1.1088    1.7694    7.3639 C   0  0  0  0  0  0  0  0  0  0  0  0
    5.3339    2.0171    5.0680 C   0  0  0  0  0  0  0  0  0  0  0  0
    4.9234   -0.2332    5.9242 C   0  0  2  0  0  0  0  0  0  0  0  0
    2.5384    2.0606    1.8054 C   0  0  1  0  0  0  0  0  0  0  0  0
    4.9956    3.1613    4.6905 O   0  0  0  0  0  0  0  0  0  0  0  0
    6.6713    1.7655    4.9862 N   0  0  0  0  0  0  0  0  0  0  0  0
    6.4031   -0.2292    6.3869 C   0  0  2  0  0  0  0  0  0  0  0  0
    2.5617    3.6175    1.6685 C   0  0  1  0  0  0  0  0  0  0  0  0
    3.4286    1.3519    0.7378 C   0  0  2  0  0  0  0  0  0  0  0  0
    7.2623    0.5188    5.3452 C   0  0  1  0  0  0  0  0  0  0  0  0
    2.3158    4.1521    0.2940 C   0  0  0  0  0  0  0  0  0  0  0  0
    3.5268   -0.2014    0.8413 C   0  0  1  0  0  0  0  0  0  0  0  0
    1.0582    3.9654   -0.3450 C   0  0  0  0  0  0  0  0  0  0  0  0
    3.3465    4.8551   -0.3741 C   0  0  0  0  0  0  0  0  0  0  0  0
    2.1880   -0.9819    0.6045 C   0  0  2  0  0  0  0  0  0  0  0  0
    4.5200   -0.6037   -0.1054 O   0  0  0  0  0  0  0  0  0  0  0  0
    0.7452    4.4655   -1.6332 C   0  0  0  0  0  0  0  0  0  0  0  0
    3.0528    5.3866   -1.6845 C   0  0  0  0  0  0  0  0  0  0  0  0
    2.4107   -2.5230    0.7444 C   0  0  1  0  0  0  0  0  0  0  0  0
    1.6934   -0.6307   -0.6992 N   0  0  0  0  0  0  0  0  0  0  0  0
    1.7457    5.2169   -2.3502 C   0  0  0  0  0  0  0  0  0  0  0  0
    1.1794   -3.3447    0.5953 C   0  0  0  0  0  0  0  0  0  0  0  0
    0.4124   -0.3861   -1.1014 C   0  0  0  0  0  0  0  0  0  0  0  0
    0.3699   -3.6563    1.7139 C   0  0  0  0  0  0  0  0  0  0  0  0
    0.8000   -3.8398   -0.6747 C   0  0  0  0  0  0  0  0  0  0  0  0
   -0.8288   -0.5939   -0.3284 C   0  0  2  0  0  0  0  0  0  0  0  0
    0.2908    0.0416   -2.2717 O   0  0  0  0  0  0  0  0  0  0  0  0
   -0.7789   -4.4568    1.5677 C   0  0  0  0  0  0  0  0  0  0  0  0
   -0.3468   -4.6397   -0.8223 C   0  0  0  0  0  0  0  0  0  0  0  0
   -1.3714    0.6758    0.0873 O   0  0  0  0  0  0  0  0  0  0  0  0
   -1.1343   -4.9512    0.2996 C   0  0  0  0  0  0  0  0  0  0  0  0
   -2.6273    0.5690    0.6436 C   0  0  0  0  0  0  0  0  0  0  0  0
   -3.7716    0.8048   -0.1716 C   0  0  0  0  0  0  0  0  0  0  0  0
   -2.7809    0.2434    2.0220 C   0  0  0  0  0  0  0  0  0  0  0  0
   -3.6865    1.1758   -1.6091 C   0  0  0  0  0  0  0  0  0  0  0  0
   -5.0587    0.6898    0.4024 C   0  0  0  0  0  0  0  0  0  0  0  0
   -1.6281    0.0400    2.9392 C   0  0  0  0  0  0  0  0  0  0  0  0
   -4.0849    0.1124    2.5536 C   0  0  0  0  0  0  0  0  0  0  0  0
   -5.2147    0.3371    1.7516 C   0  0  0  0  0  0  0  0  0  0  0  0
    2.4968    0.3272    5.6650 H   0  0  0  0  0  0  0  0  0  0  0  0
    3.2103    1.7310    7.6766 H   0  0  0  0  0  0  0  0  0  0  0  0
    3.9184    1.3340    3.1480 H   0  0  0  0  0  0  0  0  0  0  0  0
    2.2597    4.0682    5.9488 H   0  0  0  0  0  0  0  0  0  0  0  0
    2.3439    4.1084    7.7138 H   0  0  0  0  0  0  0  0  0  0  0  0
    3.8151    3.8886    6.7883 H   0  0  0  0  0  0  0  0  0  0  0  0
    0.3548    2.1770    6.6898 H   0  0  0  0  0  0  0  0  0  0  0  0
    0.9402    2.2002    8.3532 H   0  0  0  0  0  0  0  0  0  0  0  0
    0.9628    0.6904    7.4427 H   0  0  0  0  0  0  0  0  0  0  0  0
    4.8197   -0.9213    5.0794 H   0  0  0  0  0  0  0  0  0  0  0  0
    4.3352   -0.6343    6.7536 H   0  0  0  0  0  0  0  0  0  0  0  0
    1.5096    1.7172    1.6775 H   0  0  0  0  0  0  0  0  0  0  0  0
    7.2549    2.4657    4.6503 H   0  0  0  0  0  0  0  0  0  0  0  0
    6.7693   -1.2507    6.5171 H   0  0  0  0  0  0  0  0  0  0  0  0
    6.4811    0.2828    7.3497 H   0  0  0  0  0  0  0  0  0  0  0  0
    1.8063    4.0474    2.3314 H   0  0  0  0  0  0  0  0  0  0  0  0
    3.5284    3.9702    2.0411 H   0  0  0  0  0  0  0  0  0  0  0  0
    4.4405    1.7642    0.8142 H   0  0  0  0  0  0  0  0  0  0  0  0
    3.0639    1.6030   -0.2609 H   0  0  0  0  0  0  0  0  0  0  0  0
    7.3651   -0.0895    4.4439 H   0  0  0  0  0  0  0  0  0  0  0  0
    8.2606    0.6975    5.7514 H   0  0  0  0  0  0  0  0  0  0  0  0
    3.9188   -0.4577    1.8281 H   0  0  0  0  0  0  0  0  0  0  0  0
    0.3279    3.4430    0.1458 H   0  0  0  0  0  0  0  0  0  0  0  0
    4.2705    4.9903    0.0438 H   0  0  0  0  0  0  0  0  0  0  0  0
    1.4857   -0.6750    1.3835 H   0  0  0  0  0  0  0  0  0  0  0  0
    4.6916   -1.5499    0.0811 H   0  0  0  0  0  0  0  0  0  0  0  0
   -0.2494    4.2365   -1.9728 H   0  0  0  0  0  0  0  0  0  0  0  0
    3.8875    5.9125   -2.1027 H   0  0  0  0  0  0  0  0  0  0  0  0
    3.1424   -2.8581    0.0043 H   0  0  0  0  0  0  0  0  0  0  0  0
    2.8531   -2.7335    1.7244 H   0  0  0  0  0  0  0  0  0  0  0  0
    2.3730   -0.5160   -1.3832 H   0  0  0  0  0  0  0  0  0  0  0  0
    1.5613    5.6139   -3.2730 H   0  0  0  0  0  0  0  0  0  0  0  0
    0.6110   -3.3031    2.6426 H   0  0  0  0  0  0  0  0  0  0  0  0
    1.3591   -3.6222   -1.5019 H   0  0  0  0  0  0  0  0  0  0  0  0
   -0.6340   -1.2131    0.5422 H   0  0  0  0  0  0  0  0  0  0  0  0
   -1.5342   -1.1368   -0.9662 H   0  0  0  0  0  0  0  0  0  0  0  0
   -1.3535   -4.6793    2.3840 H   0  0  0  0  0  0  0  0  0  0  0  0
   -0.6049   -4.9980   -1.7445 H   0  0  0  0  0  0  0  0  0  0  0  0
   -1.9638   -5.5378    0.1895 H   0  0  0  0  0  0  0  0  0  0  0  0
   -4.1623    0.4054   -2.2206 H   0  0  0  0  0  0  0  0  0  0  0  0
   -2.6590    1.2933   -1.9534 H   0  0  0  0  0  0  0  0  0  0  0  0
   -4.2037    2.1237   -1.7730 H   0  0  0  0  0  0  0  0  0  0  0  0
   -5.8976    0.8634   -0.1604 H   0  0  0  0  0  0  0  0  0  0  0  0
   -1.5651   -1.0123    3.2239 H   0  0  0  0  0  0  0  0  0  0  0  0
   -1.7607    0.6404    3.8417 H   0  0  0  0  0  0  0  0  0  0  0  0
   -0.6780    0.3323    2.4910 H   0  0  0  0  0  0  0  0  0  0  0  0
   -4.2228   -0.1381    3.5368 H   0  0  0  0  0  0  0  0  0  0  0  0
   -6.1515    0.2522    2.1529 H   0  0  0  0  0  0  0  0  0  0  0  0
  1  2  1  0  0  0  0 
  1  3  1  0  0  0  0 
  1  4  1  0  0  0  0 
  2  5  1  0  0  0  0 
  2  6  2  0  0  0  0 
  3  7  1  0  0  0  0 
  3  8  1  0  0  0  0 
  4  9  1  0  0  0  0 
  4 10  1  0  0  0  0 
 11  5  1  0  0  0  0 
  9 12  2  0  0  0  0 
  9 13  1  0  0  0  0 
 10 14  1  0  0  0  0 
 11 15  1  0  0  0  0 
 11 16  1  0  0  0  0 
 13 17  1  0  0  0  0 
 14 17  1  0  0  0  0 
 15 18  1  0  0  0  0 
 19 16  1  0  0  0  0 
 18 20  2  0  0  0  0 
 18 21  1  0  0  0  0 
 19 22  1  0  0  0  0 
 19 23  1  0  0  0  0 
 20 24  1  0  0  0  0 
 21 25  2  0  0  0  0 
 22 26  1  0  0  0  0 
 22 27  1  0  0  0  0 
 24 28  2  0  0  0  0 
 25 28  1  0  0  0  0 
 26 29  1  0  0  0  0 
 27 30  1  0  0  0  0 
 29 31  2  0  0  0  0 
 29 32  1  0  0  0  0 
 30 33  1  0  0  0  0 
 30 34  2  0  0  0  0 
 31 35  1  0  0  0  0 
 32 36  2  0  0  0  0 
 33 37  1  0  0  0  0 
 35 38  2  0  0  0  0 
 36 38  1  0  0  0  0 
 37 39  1  0  0  0  0 
 39 40  2  0  0  0  0 
 39 41  1  0  0  0  0 
 40 42  1  0  0  0  0 
 40 43  1  0  0  0  0 
 41 44  1  0  0  0  0 
 41 45  2  0  0  0  0 
 43 46  2  0  0  0  0 
 45 46  1  0  0  0  0 
  1 47  1  0  0  0  0 
 48  3  1  0  0  0  0 
 49  5  1  0  0  0  0 
 50  7  1  0  0  0  0 
 51  7  1  0  0  0  0 
 52  7  1  0  0  0  0 
 53  8  1  0  0  0  0 
 54  8  1  0  0  0  0 
 55  8  1  0  0  0  0 
 56 10  1  0  0  0  0 
 57 10  1  0  0  0  0 
 11 58  1  0  0  0  0 
 59 13  1  0  0  0  0 
 60 14  1  0  0  0  0 
 61 14  1  0  0  0  0 
 62 15  1  0  0  0  0 
 63 15  1  0  0  0  0 
 64 16  1  0  0  0  0 
 65 16  1  0  0  0  0 
 66 17  1  0  0  0  0 
 67 17  1  0  0  0  0 
 19 68  1  0  0  0  0 
 69 20  1  0  0  0  0 
 70 21  1  0  0  0  0 
 22 71  1  0  0  0  0 
 72 23  1  0  0  0  0 
 73 24  1  0  0  0  0 
 74 25  1  0  0  0  0 
 75 26  1  0  0  0  0 
 76 26  1  0  0  0  0 
 77 27  1  0  0  0  0 
 78 28  1  0  0  0  0 
 79 31  1  0  0  0  0 
 80 32  1  0  0  0  0 
 81 33  1  0  0  0  0 
 82 33  1  0  0  0  0 
 83 35  1  0  0  0  0 
 84 36  1  0  0  0  0 
 85 38  1  0  0  0  0 
 86 42  1  0  0  0  0 
 87 42  1  0  0  0  0 
 88 42  1  0  0  0  0 
 89 43  1  0  0  0  0 
 90 44  1  0  0  0  0 
 91 44  1  0  0  0  0 
 92 44  1  0  0  0  0 
 93 45  1  0  0  0  0 
 94 46  1  0  0  0  0 
M  END
> <cdk:Title>
lopinavir

> <Conformer>
1

> <SuperDrugID>
SD001415

$$$$
