ethyl hydroxybenzoate
  CDK     0628171802

 22 22  0  0  0  0  0  0  0  0999 V2000
   -0.4710    3.1763   -0.9307 C   0  0  0  0  0  0  0  0  0  0  0  0
   -0.4139    4.5158   -1.3569 C   0  0  0  0  0  0  0  0  0  0  0  0
   -1.5071    5.3729   -1.1393 C   0  0  0  0  0  0  0  0  0  0  0  0
   -2.6602    4.8811   -0.5006 C   0  0  0  0  0  0  0  0  0  0  0  0
   -2.7205    3.5395   -0.0854 C   0  0  0  0  0  0  0  0  0  0  0  0
   -1.6333    2.6576   -0.3033 C   0  0  0  0  0  0  0  0  0  0  0  0
   -1.4413    6.6646   -1.5466 O   0  0  0  0  0  0  0  0  0  0  0  0
   -1.7058    1.2927    0.0844 C   0  0  0  0  0  0  0  0  0  0  0  0
   -2.7977    0.7781    0.4301 O   0  0  0  0  0  0  0  0  0  0  0  0
   -0.5781    0.5213    0.0558 O   0  0  0  0  0  0  0  0  0  0  0  0
   -0.4374   -0.8664    0.3796 C   0  0  1  0  0  0  0  0  0  0  0  0
   -0.7040   -1.1686    1.8683 C   0  0  0  0  0  0  0  0  0  0  0  0
    0.3484    2.5834   -1.0922 H   0  0  0  0  0  0  0  0  0  0  0  0
    0.4259    4.8606   -1.8288 H   0  0  0  0  0  0  0  0  0  0  0  0
   -3.4588    5.4980   -0.3377 H   0  0  0  0  0  0  0  0  0  0  0  0
   -3.5700    3.2160    0.3827 H   0  0  0  0  0  0  0  0  0  0  0  0
   -2.3371    7.0349   -1.4001 H   0  0  0  0  0  0  0  0  0  0  0  0
   -1.0996   -1.4659   -0.2495 H   0  0  0  0  0  0  0  0  0  0  0  0
    0.5926   -1.1372    0.1451 H   0  0  0  0  0  0  0  0  0  0  0  0
   -0.3490   -2.1723    2.1091 H   0  0  0  0  0  0  0  0  0  0  0  0
   -0.1791   -0.4471    2.4969 H   0  0  0  0  0  0  0  0  0  0  0  0
   -1.7725   -1.1171    2.0834 H   0  0  0  0  0  0  0  0  0  0  0  0
  1  2  2  0  0  0  0 
  1  6  1  0  0  0  0 
  2  3  1  0  0  0  0 
  3  4  2  0  0  0  0 
  4  5  1  0  0  0  0 
  5  6  2  0  0  0  0 
  3  7  1  0  0  0  0 
  6  8  1  0  0  0  0 
  8  9  2  0  0  0  0 
  8 10  1  0  0  0  0 
 10 11  1  0  0  0  0 
 11 12  1  0  0  0  0 
  1 13  1  0  0  0  0 
  2 14  1  0  0  0  0 
  4 15  1  0  0  0  0 
  5 16  1  0  0  0  0 
  7 17  1  0  0  0  0 
 11 18  1  0  0  0  0 
 11 19  1  0  0  0  0 
 12 20  1  0  0  0  0 
 12 21  1  0  0  0  0 
 12 22  1  0  0  0  0 
M  END
> <cdk:Title>
ethyl hydroxybenzoate

> <Conformer>
1

> <SuperDrugID>
SD003755

$$$$
