sabcomeline
  CDK     0628171801

 29 30  0  0  0  0  0  0  0  0999 V2000
    1.8282    1.1482    0.1587 C   0  0  0  0  0  0  0  0  0  0  0  0
    1.0366    0.1706   -0.1071 N   0  0  0  0  0  0  0  0  0  0  0  0
    1.4077    2.1297    0.8663 C   0  0  0  0  0  0  0  0  0  0  0  0
    3.2107    1.1480   -0.3577 C   0  0  2  0  0  0  0  0  0  0  0  0
   -0.1783   -0.0135    0.2560 O   0  0  0  0  0  0  0  0  0  0  0  0
    1.0282    3.0079    1.5012 N   0  0  0  0  0  0  0  0  0  0  0  0
    3.6242   -0.0987   -1.2378 C   0  0  1  0  0  0  0  0  0  0  0  0
    4.3172    1.3139    0.7608 C   0  0  2  0  0  0  0  0  0  0  0  0
   -0.5790   -1.3224   -0.1734 C   0  0  0  0  0  0  0  0  0  0  0  0
    5.0277    0.1784   -1.8736 C   0  0  2  0  0  0  0  0  0  0  0  0
    3.7827   -1.3681   -0.3331 C   0  0  2  0  0  0  0  0  0  0  0  0
    5.4232    0.3027    0.6225 N   0  0  2  0  0  0  0  0  0  0  0  0
    6.0669    0.4344   -0.7311 C   0  0  2  0  0  0  0  0  0  0  0  0
    4.8478   -1.0787    0.7751 C   0  0  1  0  0  0  0  0  0  0  0  0
    3.2689    2.0228   -1.0193 H   0  0  0  0  0  0  0  0  0  0  0  0
    2.8935   -0.2811   -2.0319 H   0  0  0  0  0  0  0  0  0  0  0  0
    3.8907    1.2188    1.7637 H   0  0  0  0  0  0  0  0  0  0  0  0
    4.7442    2.3203    0.7110 H   0  0  0  0  0  0  0  0  0  0  0  0
   -1.5859   -1.5107    0.1919 H   0  0  0  0  0  0  0  0  0  0  0  0
   -0.5945   -1.3927   -1.2648 H   0  0  0  0  0  0  0  0  0  0  0  0
    0.0762   -2.1002    0.2318 H   0  0  0  0  0  0  0  0  0  0  0  0
    4.9755    1.0428   -2.5414 H   0  0  0  0  0  0  0  0  0  0  0  0
    5.3364   -0.6806   -2.4782 H   0  0  0  0  0  0  0  0  0  0  0  0
    4.0920   -2.2214   -0.9435 H   0  0  0  0  0  0  0  0  0  0  0  0
    2.8331   -1.6408    0.1288 H   0  0  0  0  0  0  0  0  0  0  0  0
    6.5002    1.4331   -0.8374 H   0  0  0  0  0  0  0  0  0  0  0  0
    6.8961   -0.2751   -0.8139 H   0  0  0  0  0  0  0  0  0  0  0  0
    4.3963   -1.1859    1.7663 H   0  0  0  0  0  0  0  0  0  0  0  0
    5.6507   -1.8178    0.7187 H   0  0  0  0  0  0  0  0  0  0  0  0
  1  2  2  0  0  0  0 
  1  3  1  0  0  0  0 
  2  5  1  0  0  0  0 
  3  6  3  0  0  0  0 
  4  1  1  0  0  0  0 
  4  7  1  0  0  0  0 
  4  8  1  0  0  0  0 
  5  9  1  0  0  0  0 
  7 10  1  0  0  0  0 
  7 11  1  0  0  0  0 
  8 12  1  0  0  0  0 
 10 13  1  0  0  0  0 
 11 14  1  0  0  0  0 
 12 13  1  0  0  0  0 
 12 14  1  0  0  0  0 
  4 15  1  0  0  0  0 
  7 16  1  0  0  0  0 
  8 17  1  0  0  0  0 
  8 18  1  0  0  0  0 
  9 19  1  0  0  0  0 
  9 20  1  0  0  0  0 
  9 21  1  0  0  0  0 
 10 22  1  0  0  0  0 
 10 23  1  0  0  0  0 
 11 24  1  0  0  0  0 
 11 25  1  0  0  0  0 
 13 26  1  0  0  0  0 
 13 27  1  0  0  0  0 
 14 28  1  0  0  0  0 
 14 29  1  0  0  0  0 
M  END
> <cdk:Title>
sabcomeline

> <Conformer>
1

> <SuperDrugID>
SD003043

$$$$
