menadiol sulfate
  CDK     0628171801

 31 32  0  0  0  0  0  0  0  0999 V2000
   -9.6686  -31.5560    5.7570 C   0  0  0  0  0  0  0  0  0  0  0  0
   -9.4086  -32.9206    5.2375 C   0  0  0  0  0  0  0  0  0  0  0  0
  -10.3274  -33.9454    5.5465 C   0  0  0  0  0  0  0  0  0  0  0  0
  -10.1031  -35.2714    5.1341 C   0  0  0  0  0  0  0  0  0  0  0  0
  -11.0088  -36.2269    5.4980 O   0  0  0  0  0  0  0  0  0  0  0  0
   -8.9613  -35.5871    4.3593 C   0  0  0  0  0  0  0  0  0  0  0  0
   -8.7295  -36.9098    3.9115 C   0  0  0  0  0  0  0  0  0  0  0  0
   -7.5747  -37.2290    3.1789 C   0  0  0  0  0  0  0  0  0  0  0  0
   -6.6341  -36.2311    2.8850 C   0  0  0  0  0  0  0  0  0  0  0  0
   -6.8583  -34.9093    3.3059 C   0  0  0  0  0  0  0  0  0  0  0  0
   -8.0239  -34.5627    4.0347 C   0  0  0  0  0  0  0  0  0  0  0  0
   -8.2711  -33.2260    4.4475 C   0  0  0  0  0  0  0  0  0  0  0  0
   -7.3919  -32.2333    4.1045 O   0  0  0  0  0  0  0  0  0  0  0  0
  -10.6030  -36.9156    7.0213 S   0  0  2  0  0  0  0  0  0  0  0  0
   -7.7640  -31.5303    2.5780 S   0  0  2  0  0  0  0  0  0  0  0  0
   -8.9149  -36.9147    7.2858 O   0  0  0  0  0  0  0  0  0  0  0  0
  -11.0942  -38.4394    7.0257 O   0  0  0  0  0  0  0  0  0  0  0  0
  -11.3270  -36.1069    8.1976 O   0  0  0  0  0  0  0  0  0  0  0  0
   -8.7320  -30.1469    2.8191 O   0  0  0  0  0  0  0  0  0  0  0  0
   -8.5277  -32.5482    1.6052 O   0  0  0  0  0  0  0  0  0  0  0  0
   -6.3972  -31.0593    1.8884 O   0  0  0  0  0  0  0  0  0  0  0  0
  -10.3992  -31.0615    5.1197 H   0  0  0  0  0  0  0  0  0  0  0  0
   -8.7597  -30.9530    5.7925 H   0  0  0  0  0  0  0  0  0  0  0  0
  -10.0674  -31.6006    6.7729 H   0  0  0  0  0  0  0  0  0  0  0  0
  -11.1676  -33.7348    6.0936 H   0  0  0  0  0  0  0  0  0  0  0  0
   -9.3973  -37.6579    4.1151 H   0  0  0  0  0  0  0  0  0  0  0  0
   -7.4195  -38.1885    2.8592 H   0  0  0  0  0  0  0  0  0  0  0  0
   -5.7843  -36.4705    2.3667 H   0  0  0  0  0  0  0  0  0  0  0  0
   -6.1505  -34.2065    3.0767 H   0  0  0  0  0  0  0  0  0  0  0  0
   -8.6410  -35.9797    7.1802 H   0  0  0  0  0  0  0  0  0  0  0  0
   -9.6180  -30.5010    3.0339 H   0  0  0  0  0  0  0  0  0  0  0  0
  1  2  1  0  0  0  0 
  2  3  2  0  0  0  0 
  3  4  1  0  0  0  0 
  4  5  1  0  0  0  0 
  4  6  2  0  0  0  0 
  6  7  1  0  0  0  0 
  7  8  2  0  0  0  0 
  8  9  1  0  0  0  0 
  9 10  2  0  0  0  0 
 10 11  1  0  0  0  0 
  6 11  1  0  0  0  0 
 11 12  2  0  0  0  0 
  2 12  1  0  0  0  0 
 12 13  1  0  0  0  0 
  5 14  1  0  0  0  0 
 13 15  1  0  0  0  0 
 14 16  1  0  0  0  0 
 14 17  2  0  0  0  0 
 14 18  2  0  0  0  0 
 15 19  1  0  0  0  0 
 15 20  2  0  0  0  0 
 15 21  2  0  0  0  0 
  1 22  1  0  0  0  0 
  1 23  1  0  0  0  0 
  1 24  1  0  0  0  0 
  3 25  1  0  0  0  0 
  7 26  1  0  0  0  0 
  8 27  1  0  0  0  0 
  9 28  1  0  0  0  0 
 10 29  1  0  0  0  0 
 16 30  1  0  0  0  0 
 19 31  1  0  0  0  0 
M  END
> <cdk:Title>
menadiol sulfate

> <Conformer>
1

> <SuperDrugID>
SD001486

$$$$
