piperaquine
  CDK     0628171801

 69 74  0  0  0  0  0  0  0  0999 V2000
  -20.9635    6.8533   -0.0958 Cl  0  0  0  0  0  0  0  0  0  0  0  0
  -19.2819    6.7948    0.0865 C   0  0  0  0  0  0  0  0  0  0  0  0
  -18.5712    7.9337    0.5119 C   0  0  0  0  0  0  0  0  0  0  0  0
  -18.5923    5.5981   -0.1825 C   0  0  0  0  0  0  0  0  0  0  0  0
  -17.1717    7.8749    0.6665 C   0  0  0  0  0  0  0  0  0  0  0  0
  -17.1959    5.5395   -0.0304 C   0  0  0  0  0  0  0  0  0  0  0  0
  -16.4546    6.6789    0.3710 C   0  0  0  0  0  0  0  0  0  0  0  0
  -16.5071    8.9733    1.1082 N   0  0  0  0  0  0  0  0  0  0  0  0
  -15.0354    6.6855    0.5070 C   0  0  0  0  0  0  0  0  0  0  0  0
  -15.1653    8.9987    1.2837 C   0  0  0  0  0  0  0  0  0  0  0  0
  -14.4028    7.8589    0.9841 C   0  0  0  0  0  0  0  0  0  0  0  0
  -14.2452    5.6062    0.1681 N   0  0  0  0  0  0  0  0  0  0  0  0
  -13.3558    4.9815    1.1202 C   0  0  2  0  0  0  0  0  0  0  0  0
  -14.2164    5.0948   -1.1831 C   0  0  1  0  0  0  0  0  0  0  0  0
  -11.8986    5.0260    0.5856 C   0  0  2  0  0  0  0  0  0  0  0  0
  -12.7748    5.1711   -1.7293 C   0  0  2  0  0  0  0  0  0  0  0  0
  -11.8192    4.4764   -0.8074 N   0  0  1  0  0  0  0  0  0  0  0  0
  -10.4426    4.4019   -1.3917 C   0  0  2  0  0  0  0  0  0  0  0  0
   -9.4509    3.4679   -0.6367 C   0  0  2  0  0  0  0  0  0  0  0  0
   -8.2909    2.9529   -1.5404 C   0  0  1  0  0  0  0  0  0  0  0  0
   -7.0378    2.5721   -0.8120 N   0  0  1  0  0  0  0  0  0  0  0  0
   -7.1778    1.4303    0.1489 C   0  0  1  0  0  0  0  0  0  0  0  0
   -5.8981    2.3514   -1.7561 C   0  0  1  0  0  0  0  0  0  0  0  0
   -5.8469    1.1641    0.9054 C   0  0  1  0  0  0  0  0  0  0  0  0
   -4.5240    2.1379   -0.9382 C   0  0  2  0  0  0  0  0  0  0  0  0
   -4.7538    1.0320   -0.0318 N   0  0  0  0  0  0  0  0  0  0  0  0
   -4.0082   -0.1287   -0.1051 C   0  0  0  0  0  0  0  0  0  0  0  0
   -2.5999   -0.1642    0.1137 C   0  0  0  0  0  0  0  0  0  0  0  0
   -4.6773   -1.3320   -0.4365 C   0  0  0  0  0  0  0  0  0  0  0  0
   -1.9170   -1.4024   -0.0649 C   0  0  0  0  0  0  0  0  0  0  0  0
   -1.8403    0.9629    0.5126 C   0  0  0  0  0  0  0  0  0  0  0  0
   -3.9527   -2.5263   -0.5759 C   0  0  0  0  0  0  0  0  0  0  0  0
   -0.5206   -1.4879    0.1037 C   0  0  0  0  0  0  0  0  0  0  0  0
   -2.6114   -2.5211   -0.3960 N   0  0  0  0  0  0  0  0  0  0  0  0
   -0.4481    0.8757    0.6860 C   0  0  0  0  0  0  0  0  0  0  0  0
    0.2157   -0.3466    0.4743 C   0  0  0  0  0  0  0  0  0  0  0  0
    1.8944   -0.4380    0.6684 Cl  0  0  0  0  0  0  0  0  0  0  0  0
  -19.0710    8.8049    0.7072 H   0  0  0  0  0  0  0  0  0  0  0  0
  -19.1005    4.7627   -0.4897 H   0  0  0  0  0  0  0  0  0  0  0  0
  -16.7348    4.6468   -0.2095 H   0  0  0  0  0  0  0  0  0  0  0  0
  -14.7144    9.8481    1.6260 H   0  0  0  0  0  0  0  0  0  0  0  0
  -13.3878    7.8948    1.1055 H   0  0  0  0  0  0  0  0  0  0  0  0
  -13.6617    3.9403    1.2510 H   0  0  0  0  0  0  0  0  0  0  0  0
  -13.3989    5.4545    2.1064 H   0  0  0  0  0  0  0  0  0  0  0  0
  -14.5435    4.0506   -1.1830 H   0  0  0  0  0  0  0  0  0  0  0  0
  -14.8757    5.6500   -1.8572 H   0  0  0  0  0  0  0  0  0  0  0  0
  -11.2728    4.4448    1.2650 H   0  0  0  0  0  0  0  0  0  0  0  0
  -11.5411    6.0588    0.5991 H   0  0  0  0  0  0  0  0  0  0  0  0
  -12.4896    6.2209   -1.8494 H   0  0  0  0  0  0  0  0  0  0  0  0
  -12.7653    4.7052   -2.7185 H   0  0  0  0  0  0  0  0  0  0  0  0
  -10.0100    5.4057   -1.4526 H   0  0  0  0  0  0  0  0  0  0  0  0
  -10.5316    4.0226   -2.4141 H   0  0  0  0  0  0  0  0  0  0  0  0
   -9.9961    2.6052   -0.2457 H   0  0  0  0  0  0  0  0  0  0  0  0
   -9.0316    4.0184    0.2091 H   0  0  0  0  0  0  0  0  0  0  0  0
   -8.6503    2.1051   -2.1360 H   0  0  0  0  0  0  0  0  0  0  0  0
   -8.0416    3.7587   -2.2388 H   0  0  0  0  0  0  0  0  0  0  0  0
   -7.9468    1.6494    0.8936 H   0  0  0  0  0  0  0  0  0  0  0  0
   -7.4787    0.5242   -0.3863 H   0  0  0  0  0  0  0  0  0  0  0  0
   -6.0810    1.4795   -2.3909 H   0  0  0  0  0  0  0  0  0  0  0  0
   -5.7569    3.2207   -2.4025 H   0  0  0  0  0  0  0  0  0  0  0  0
   -5.6371    2.0015    1.5769 H   0  0  0  0  0  0  0  0  0  0  0  0
   -5.9642    0.2744    1.5318 H   0  0  0  0  0  0  0  0  0  0  0  0
   -4.2058    3.0085   -0.3019 H   0  0  0  0  0  0  0  0  0  0  0  0
   -3.6197    1.9334   -1.5768 H   0  0  0  0  0  0  0  0  0  0  0  0
   -5.6896   -1.3472   -0.5875 H   0  0  0  0  0  0  0  0  0  0  0  0
   -2.2863    1.8622    0.6903 H   0  0  0  0  0  0  0  0  0  0  0  0
   -4.4273   -3.3974   -0.8220 H   0  0  0  0  0  0  0  0  0  0  0  0
   -0.0417   -2.3803   -0.0454 H   0  0  0  0  0  0  0  0  0  0  0  0
    0.0747    1.7092    0.9672 H   0  0  0  0  0  0  0  0  0  0  0  0
  1  2  1  0  0  0  0 
  2  3  1  0  0  0  0 
  2  4  2  0  0  0  0 
  3  5  2  0  0  0  0 
  4  6  1  0  0  0  0 
  5  7  1  0  0  0  0 
  5  8  1  0  0  0  0 
  6  7  2  0  0  0  0 
  7  9  1  0  0  0  0 
  8 10  2  0  0  0  0 
  9 11  2  0  0  0  0 
  9 12  1  0  0  0  0 
 10 11  1  0  0  0  0 
 12 13  1  0  0  0  0 
 12 14  1  0  0  0  0 
 13 15  1  0  0  0  0 
 14 16  1  0  0  0  0 
 15 17  1  0  0  0  0 
 16 17  1  0  0  0  0 
 17 18  1  0  0  0  0 
 18 19  1  0  0  0  0 
 19 20  1  0  0  0  0 
 20 21  1  0  0  0  0 
 21 22  1  0  0  0  0 
 21 23  1  0  0  0  0 
 22 24  1  0  0  0  0 
 23 25  1  0  0  0  0 
 24 26  1  0  0  0  0 
 25 26  1  0  0  0  0 
 26 27  1  0  0  0  0 
 27 28  2  0  0  0  0 
 27 29  1  0  0  0  0 
 28 30  1  0  0  0  0 
 28 31  1  0  0  0  0 
 29 32  2  0  0  0  0 
 30 33  1  0  0  0  0 
 30 34  2  0  0  0  0 
 31 35  2  0  0  0  0 
 32 34  1  0  0  0  0 
 33 36  2  0  0  0  0 
 35 36  1  0  0  0  0 
 36 37  1  0  0  0  0 
  3 38  1  0  0  0  0 
  4 39  1  0  0  0  0 
  6 40  1  0  0  0  0 
 10 41  1  0  0  0  0 
 11 42  1  0  0  0  0 
 13 43  1  0  0  0  0 
 13 44  1  0  0  0  0 
 14 45  1  0  0  0  0 
 14 46  1  0  0  0  0 
 15 47  1  0  0  0  0 
 15 48  1  0  0  0  0 
 16 49  1  0  0  0  0 
 16 50  1  0  0  0  0 
 18 51  1  0  0  0  0 
 18 52  1  0  0  0  0 
 19 53  1  0  0  0  0 
 19 54  1  0  0  0  0 
 20 55  1  0  0  0  0 
 20 56  1  0  0  0  0 
 22 57  1  0  0  0  0 
 22 58  1  0  0  0  0 
 23 59  1  0  0  0  0 
 23 60  1  0  0  0  0 
 24 61  1  0  0  0  0 
 24 62  1  0  0  0  0 
 25 63  1  0  0  0  0 
 25 64  1  0  0  0  0 
 29 65  1  0  0  0  0 
 31 66  1  0  0  0  0 
 32 67  1  0  0  0  0 
 33 68  1  0  0  0  0 
 35 69  1  0  0  0  0 
M  END
> <cdk:Title>
piperaquine

> <Conformer>
1

> <SuperDrugID>
SD003423

$$$$
