guaiacol phosphate
  CDK     0628171801

 50 52  0  0  0  0  0  0  0  0999 V2000
    2.9476    0.1983    1.3449 P   0  0  2  0  0  0  0  0  0  0  0  0
    3.0855   -1.3823    1.5869 O   0  0  0  0  0  0  0  0  0  0  0  0
    3.3319    1.0136    2.6676 O   0  0  0  0  0  0  0  0  0  0  0  0
    1.4871    0.5625    0.7875 O   0  0  0  0  0  0  0  0  0  0  0  0
    3.9186    0.5682    0.3045 O   0  0  0  0  0  0  0  0  0  0  0  0
    1.8970   -2.0615    1.5447 C   0  0  0  0  0  0  0  0  0  0  0  0
    3.0487    0.4248    3.8701 C   0  0  0  0  0  0  0  0  0  0  0  0
    0.8526    1.6963    1.2225 C   0  0  0  0  0  0  0  0  0  0  0  0
    1.3346   -2.4490    0.3035 C   0  0  0  0  0  0  0  0  0  0  0  0
    1.2240   -2.3843    2.7421 C   0  0  0  0  0  0  0  0  0  0  0  0
    3.9504   -0.4936    4.4683 C   0  0  0  0  0  0  0  0  0  0  0  0
    1.8903    0.8141    4.5739 C   0  0  0  0  0  0  0  0  0  0  0  0
   -0.4891    1.5585    1.6526 C   0  0  0  0  0  0  0  0  0  0  0  0
    1.4397    2.9834    1.1959 C   0  0  0  0  0  0  0  0  0  0  0  0
    1.9706   -2.1458   -0.8708 O   0  0  0  0  0  0  0  0  0  0  0  0
    0.0811   -3.0925    0.2710 C   0  0  0  0  0  0  0  0  0  0  0  0
   -0.0335   -3.0124    2.7032 C   0  0  0  0  0  0  0  0  0  0  0  0
    5.0988   -0.8827    3.8279 O   0  0  0  0  0  0  0  0  0  0  0  0
    3.6537   -1.0474    5.7336 C   0  0  0  0  0  0  0  0  0  0  0  0
    1.6147    0.2777    5.8451 C   0  0  0  0  0  0  0  0  0  0  0  0
   -1.1041    0.3326    1.6324 O   0  0  0  0  0  0  0  0  0  0  0  0
   -1.1986    2.6836    2.1242 C   0  0  0  0  0  0  0  0  0  0  0  0
    0.7255    4.1027    1.6594 C   0  0  0  0  0  0  0  0  0  0  0  0
    2.9499   -3.1231   -1.2640 C   0  0  0  0  0  0  0  0  0  0  0  0
   -0.6040   -3.3694    1.4682 C   0  0  0  0  0  0  0  0  0  0  0  0
    6.1666    0.0772    3.9188 C   0  0  0  0  0  0  0  0  0  0  0  0
    2.4857   -0.6658    6.4194 C   0  0  0  0  0  0  0  0  0  0  0  0
   -1.8680    0.0919    0.4344 C   0  0  0  0  0  0  0  0  0  0  0  0
   -0.5885    3.9508    2.1367 C   0  0  0  0  0  0  0  0  0  0  0  0
    1.6430   -2.1596    3.6450 H   0  0  0  0  0  0  0  0  0  0  0  0
    1.2513    1.4998    4.1678 H   0  0  0  0  0  0  0  0  0  0  0  0
    2.3880    3.1080    0.8360 H   0  0  0  0  0  0  0  0  0  0  0  0
   -0.3396   -3.3477   -0.6251 H   0  0  0  0  0  0  0  0  0  0  0  0
   -0.5316   -3.2113    3.5736 H   0  0  0  0  0  0  0  0  0  0  0  0
    4.2883   -1.7273    6.1612 H   0  0  0  0  0  0  0  0  0  0  0  0
    0.7828    0.5794    6.3556 H   0  0  0  0  0  0  0  0  0  0  0  0
   -2.1635    2.5833    2.4503 H   0  0  0  0  0  0  0  0  0  0  0  0
    1.1601    5.0285    1.6443 H   0  0  0  0  0  0  0  0  0  0  0  0
    3.4106   -2.7744   -2.1893 H   0  0  0  0  0  0  0  0  0  0  0  0
    3.7401   -3.2312   -0.5145 H   0  0  0  0  0  0  0  0  0  0  0  0
    2.4853   -4.0960   -1.4529 H   0  0  0  0  0  0  0  0  0  0  0  0
   -1.5171   -3.8277    1.4398 H   0  0  0  0  0  0  0  0  0  0  0  0
    7.0409   -0.3432    3.4208 H   0  0  0  0  0  0  0  0  0  0  0  0
    5.9089    1.0085    3.4095 H   0  0  0  0  0  0  0  0  0  0  0  0
    6.4281    0.2876    4.9593 H   0  0  0  0  0  0  0  0  0  0  0  0
    2.2696   -1.0709    7.3351 H   0  0  0  0  0  0  0  0  0  0  0  0
   -2.3412   -0.8862    0.5274 H   0  0  0  0  0  0  0  0  0  0  0  0
   -2.6586    0.8364    0.3034 H   0  0  0  0  0  0  0  0  0  0  0  0
   -1.2295    0.0756   -0.4533 H   0  0  0  0  0  0  0  0  0  0  0  0
   -1.1020    4.7627    2.4872 H   0  0  0  0  0  0  0  0  0  0  0  0
  1  2  1  0  0  0  0 
  1  3  1  0  0  0  0 
  1  4  1  0  0  0  0 
  1  5  2  0  0  0  0 
  2  6  1  0  0  0  0 
  3  7  1  0  0  0  0 
  4  8  1  0  0  0  0 
  6  9  2  0  0  0  0 
  6 10  1  0  0  0  0 
  7 11  2  0  0  0  0 
  7 12  1  0  0  0  0 
  8 13  2  0  0  0  0 
  8 14  1  0  0  0  0 
  9 15  1  0  0  0  0 
  9 16  1  0  0  0  0 
 10 17  2  0  0  0  0 
 11 18  1  0  0  0  0 
 11 19  1  0  0  0  0 
 12 20  2  0  0  0  0 
 13 21  1  0  0  0  0 
 13 22  1  0  0  0  0 
 14 23  2  0  0  0  0 
 15 24  1  0  0  0  0 
 16 25  2  0  0  0  0 
 17 25  1  0  0  0  0 
 18 26  1  0  0  0  0 
 19 27  2  0  0  0  0 
 20 27  1  0  0  0  0 
 21 28  1  0  0  0  0 
 22 29  2  0  0  0  0 
 23 29  1  0  0  0  0 
 10 30  1  0  0  0  0 
 12 31  1  0  0  0  0 
 14 32  1  0  0  0  0 
 16 33  1  0  0  0  0 
 17 34  1  0  0  0  0 
 19 35  1  0  0  0  0 
 20 36  1  0  0  0  0 
 22 37  1  0  0  0  0 
 23 38  1  0  0  0  0 
 24 39  1  0  0  0  0 
 24 40  1  0  0  0  0 
 24 41  1  0  0  0  0 
 25 42  1  0  0  0  0 
 26 43  1  0  0  0  0 
 26 44  1  0  0  0  0 
 26 45  1  0  0  0  0 
 27 46  1  0  0  0  0 
 28 47  1  0  0  0  0 
 28 48  1  0  0  0  0 
 28 49  1  0  0  0  0 
 29 50  1  0  0  0  0 
M  END
> <cdk:Title>
guaiacol phosphate

> <Conformer>
1

> <SuperDrugID>
SD002974

$$$$
