iopamidol
  CDK     0628171801

 53 53  0  0  0  0  0  0  0  0999 V2000
    2.0795   -2.6834    6.3496 C   0  0  0  0  0  0  0  0  0  0  0  0
    1.9109   -2.9593    7.6714 N   0  0  0  0  0  0  0  0  0  0  0  0
    3.1824   -2.3234    5.8729 O   0  0  0  0  0  0  0  0  0  0  0  0
    0.9663   -2.7746    5.4935 C   0  0  0  0  0  0  0  0  0  0  0  0
    2.9109   -2.8595    8.6941 C   0  0  2  0  0  0  0  0  0  0  0  0
    0.3647   -1.5979    4.9850 C   0  0  0  0  0  0  0  0  0  0  0  0
    0.4303   -4.0386    5.1484 C   0  0  0  0  0  0  0  0  0  0  0  0
    2.9148   -4.1532    9.5487 C   0  0  1  0  0  0  0  0  0  0  0  0
    2.6105   -1.6122    9.5676 C   0  0  2  0  0  0  0  0  0  0  0  0
    1.1195    0.2582    5.4867 I   0  0  0  0  0  0  0  0  0  0  0  0
   -0.7787   -1.6882    4.1556 C   0  0  0  0  0  0  0  0  0  0  0  0
    1.2726   -5.7746    5.8797 I   0  0  0  0  0  0  0  0  0  0  0  0
   -0.6780   -4.1275    4.2793 C   0  0  0  0  0  0  0  0  0  0  0  0
    3.2632   -5.2872    8.7637 O   0  0  0  0  0  0  0  0  0  0  0  0
    2.6806   -0.4162    8.7956 O   0  0  0  0  0  0  0  0  0  0  0  0
   -1.4616   -0.5290    3.7582 C   0  0  0  0  0  0  0  0  0  0  0  0
   -1.2830   -2.9534    3.7782 C   0  0  0  0  0  0  0  0  0  0  0  0
   -1.1657   -5.3530    3.9616 N   0  0  0  0  0  0  0  0  0  0  0  0
   -2.5208   -0.1400    4.5166 N   0  0  0  0  0  0  0  0  0  0  0  0
   -1.0737    0.0958    2.7428 O   0  0  0  0  0  0  0  0  0  0  0  0
   -2.9119   -3.0936    2.5184 I   0  0  0  0  0  0  0  0  0  0  0  0
   -1.0600   -5.9413    2.7405 C   0  0  0  0  0  0  0  0  0  0  0  0
   -3.3518    1.0059    4.3077 C   0  0  1  0  0  0  0  0  0  0  0  0
   -1.7100   -7.2462    2.5063 C   0  0  2  0  0  0  0  0  0  0  0  0
   -0.4278   -5.3959    1.8040 O   0  0  0  0  0  0  0  0  0  0  0  0
   -4.8317    0.5470    4.2134 C   0  0  2  0  0  0  0  0  0  0  0  0
   -3.1285    2.0013    5.4752 C   0  0  1  0  0  0  0  0  0  0  0  0
   -3.2515   -7.1408    2.5710 C   0  0  0  0  0  0  0  0  0  0  0  0
   -1.2376   -8.1877    3.4669 O   0  0  0  0  0  0  0  0  0  0  0  0
   -5.0664   -0.2462    3.0550 O   0  0  0  0  0  0  0  0  0  0  0  0
   -1.7874    2.4831    5.4704 O   0  0  0  0  0  0  0  0  0  0  0  0
    1.0237   -3.2327    7.9548 H   0  0  0  0  0  0  0  0  0  0  0  0
    3.9113   -2.7395    8.2631 H   0  0  0  0  0  0  0  0  0  0  0  0
    3.6437   -4.0648   10.3558 H   0  0  0  0  0  0  0  0  0  0  0  0
    1.9304   -4.3239    9.9882 H   0  0  0  0  0  0  0  0  0  0  0  0
    3.3407   -1.5351   10.3774 H   0  0  0  0  0  0  0  0  0  0  0  0
    1.6115   -1.6855   10.0059 H   0  0  0  0  0  0  0  0  0  0  0  0
    3.2653   -6.0386    9.3947 H   0  0  0  0  0  0  0  0  0  0  0  0
    2.4541    0.3006    9.4235 H   0  0  0  0  0  0  0  0  0  0  0  0
   -1.6018   -5.8570    4.6667 H   0  0  0  0  0  0  0  0  0  0  0  0
   -2.7348   -0.6952    5.2831 H   0  0  0  0  0  0  0  0  0  0  0  0
   -3.0946    1.5216    3.3752 H   0  0  0  0  0  0  0  0  0  0  0  0
   -1.4371   -7.6211    1.5148 H   0  0  0  0  0  0  0  0  0  0  0  0
   -5.4884    1.4155    4.1428 H   0  0  0  0  0  0  0  0  0  0  0  0
   -5.1135   -0.0317    5.0977 H   0  0  0  0  0  0  0  0  0  0  0  0
   -3.7945    2.8597    5.3710 H   0  0  0  0  0  0  0  0  0  0  0  0
   -3.3273    1.5220    6.4373 H   0  0  0  0  0  0  0  0  0  0  0  0
   -3.6980   -8.1154    2.3640 H   0  0  0  0  0  0  0  0  0  0  0  0
   -3.5764   -6.8114    3.5602 H   0  0  0  0  0  0  0  0  0  0  0  0
   -3.6150   -6.4319    1.8228 H   0  0  0  0  0  0  0  0  0  0  0  0
   -1.6719   -9.0331    3.2269 H   0  0  0  0  0  0  0  0  0  0  0  0
   -4.5789   -1.0790    3.2154 H   0  0  0  0  0  0  0  0  0  0  0  0
   -1.7426    3.1209    6.2170 H   0  0  0  0  0  0  0  0  0  0  0  0
  1  2  1  0  0  0  0 
  1  3  2  0  0  0  0 
  1  4  1  0  0  0  0 
  2  5  1  0  0  0  0 
  4  6  2  0  0  0  0 
  4  7  1  0  0  0  0 
  5  8  1  0  0  0  0 
  5  9  1  0  0  0  0 
  6 10  1  0  0  0  0 
  6 11  1  0  0  0  0 
  7 12  1  0  0  0  0 
  7 13  2  0  0  0  0 
  8 14  1  0  0  0  0 
  9 15  1  0  0  0  0 
 11 16  1  0  0  0  0 
 11 17  2  0  0  0  0 
 13 17  1  0  0  0  0 
 13 18  1  0  0  0  0 
 16 19  1  0  0  0  0 
 16 20  2  0  0  0  0 
 17 21  1  0  0  0  0 
 18 22  1  0  0  0  0 
 19 23  1  0  0  0  0 
 24 22  1  0  0  0  0 
 22 25  2  0  0  0  0 
 23 26  1  0  0  0  0 
 23 27  1  0  0  0  0 
 24 28  1  0  0  0  0 
 24 29  1  0  0  0  0 
 26 30  1  0  0  0  0 
 27 31  1  0  0  0  0 
  2 32  1  0  0  0  0 
  5 33  1  0  0  0  0 
  8 34  1  0  0  0  0 
  8 35  1  0  0  0  0 
  9 36  1  0  0  0  0 
  9 37  1  0  0  0  0 
 14 38  1  0  0  0  0 
 15 39  1  0  0  0  0 
 18 40  1  0  0  0  0 
 19 41  1  0  0  0  0 
 23 42  1  0  0  0  0 
 24 43  1  0  0  0  0 
 26 44  1  0  0  0  0 
 26 45  1  0  0  0  0 
 27 46  1  0  0  0  0 
 27 47  1  0  0  0  0 
 28 48  1  0  0  0  0 
 28 49  1  0  0  0  0 
 28 50  1  0  0  0  0 
 29 51  1  0  0  0  0 
 30 52  1  0  0  0  0 
 31 53  1  0  0  0  0 
M  END
> <cdk:Title>
iopamidol

> <Conformer>
1

> <SuperDrugID>
SD001296

$$$$
