eburnamonine
  CDK     0628171801

 44 48  0  0  0  0  0  0  0  0999 V2000
   -3.4486   -1.6890   -1.2545 C   0  0  2  0  0  0  0  0  0  0  0  0
   -3.4044   -2.5557   -2.5393 C   0  0  0  0  0  0  0  0  0  0  0  0
   -2.0977   -1.4522   -0.4673 C   0  0  2  0  0  0  0  0  0  0  0  0
   -2.4313   -0.6125    0.8302 C   0  0  2  0  0  0  0  0  0  0  0  0
   -1.0858   -0.6285   -1.3578 C   0  0  2  0  0  0  0  0  0  0  0  0
   -1.4237   -2.8060   -0.0245 C   0  0  1  0  0  0  0  0  0  0  0  0
   -1.2230    0.0164    1.4042 C   0  0  0  0  0  0  0  0  0  0  0  0
   -3.1508   -1.3835    1.9080 N   0  0  2  0  0  0  0  0  0  0  0  0
    0.0669   -0.0642   -0.5913 C   0  0  0  0  0  0  0  0  0  0  0  0
   -2.2268   -3.5730    1.0567 C   0  0  2  0  0  0  0  0  0  0  0  0
   -0.0755    0.2573    0.7406 N   0  0  0  0  0  0  0  0  0  0  0  0
   -1.1335    0.3875    2.7417 C   0  0  0  0  0  0  0  0  0  0  0  0
   -3.4649   -0.5058    3.0910 C   0  0  1  0  0  0  0  0  0  0  0  0
   -2.5006   -2.6785    2.2874 C   0  0  1  0  0  0  0  0  0  0  0  0
    1.1510    0.1066   -1.1954 O   0  0  0  0  0  0  0  0  0  0  0  0
    0.7840    0.8049    1.6395 C   0  0  0  0  0  0  0  0  0  0  0  0
    0.1451    0.9068    2.8853 C   0  0  0  0  0  0  0  0  0  0  0  0
   -2.2011    0.1476    3.7412 C   0  0  2  0  0  0  0  0  0  0  0  0
    2.1217    1.2329    1.5069 C   0  0  0  0  0  0  0  0  0  0  0  0
    0.7957    1.4304    4.0181 C   0  0  0  0  0  0  0  0  0  0  0  0
    2.7912    1.7551    2.6354 C   0  0  0  0  0  0  0  0  0  0  0  0
    2.1318    1.8565    3.8805 C   0  0  0  0  0  0  0  0  0  0  0  0
   -3.0668    0.2307    0.5372 H   0  0  0  0  0  0  0  0  0  0  0  0
   -4.1867   -2.1418   -0.5885 H   0  0  0  0  0  0  0  0  0  0  0  0
   -3.8598   -0.7190   -1.5495 H   0  0  0  0  0  0  0  0  0  0  0  0
   -4.4068   -2.6105   -2.9699 H   0  0  0  0  0  0  0  0  0  0  0  0
   -3.0831   -3.5751   -2.3230 H   0  0  0  0  0  0  0  0  0  0  0  0
   -2.7398   -2.1180   -3.2855 H   0  0  0  0  0  0  0  0  0  0  0  0
   -1.5979    0.2198   -1.8199 H   0  0  0  0  0  0  0  0  0  0  0  0
   -0.7118   -1.2574   -2.1701 H   0  0  0  0  0  0  0  0  0  0  0  0
   -1.2710   -3.4633   -0.8818 H   0  0  0  0  0  0  0  0  0  0  0  0
   -0.4270   -2.6136    0.3839 H   0  0  0  0  0  0  0  0  0  0  0  0
   -1.6549   -4.4506    1.3732 H   0  0  0  0  0  0  0  0  0  0  0  0
   -3.1735   -3.9263    0.6410 H   0  0  0  0  0  0  0  0  0  0  0  0
   -4.1315    0.2930    2.7487 H   0  0  0  0  0  0  0  0  0  0  0  0
   -4.0238   -1.0694    3.8437 H   0  0  0  0  0  0  0  0  0  0  0  0
   -1.5524   -2.5069    2.8072 H   0  0  0  0  0  0  0  0  0  0  0  0
   -3.1593   -3.2231    2.9694 H   0  0  0  0  0  0  0  0  0  0  0  0
   -2.4817    1.0872    4.2246 H   0  0  0  0  0  0  0  0  0  0  0  0
   -1.8028   -0.5244    4.5048 H   0  0  0  0  0  0  0  0  0  0  0  0
    2.6079    1.1679    0.6126 H   0  0  0  0  0  0  0  0  0  0  0  0
    0.3174    1.4996    4.9196 H   0  0  0  0  0  0  0  0  0  0  0  0
    3.7616    2.0652    2.5512 H   0  0  0  0  0  0  0  0  0  0  0  0
    2.6293    2.2380    4.6905 H   0  0  0  0  0  0  0  0  0  0  0  0
  1  2  1  0  0  0  0 
  3  1  1  0  0  0  0 
  4  3  1  0  0  0  0 
  3  5  1  0  0  0  0 
  3  6  1  0  0  0  0 
  4  7  1  0  0  0  0 
  4  8  1  0  0  0  0 
  4 23  1  0  0  0  0 
  5  9  1  0  0  0  0 
  6 10  1  0  0  0  0 
  7 11  1  0  0  0  0 
  7 12  2  0  0  0  0 
  8 13  1  0  0  0  0 
  8 14  1  0  0  0  0 
  9 11  1  0  0  0  0 
  9 15  2  0  0  0  0 
 10 14  1  0  0  0  0 
 11 16  1  0  0  0  0 
 12 17  1  0  0  0  0 
 12 18  1  0  0  0  0 
 13 18  1  0  0  0  0 
 16 17  1  0  0  0  0 
 16 19  2  0  0  0  0 
 17 20  2  0  0  0  0 
 19 21  1  0  0  0  0 
 20 22  1  0  0  0  0 
 21 22  2  0  0  0  0 
  1 24  1  0  0  0  0 
  1 25  1  0  0  0  0 
  2 26  1  0  0  0  0 
  2 27  1  0  0  0  0 
  2 28  1  0  0  0  0 
  5 29  1  0  0  0  0 
  5 30  1  0  0  0  0 
  6 31  1  0  0  0  0 
  6 32  1  0  0  0  0 
 10 33  1  0  0  0  0 
 10 34  1  0  0  0  0 
 13 35  1  0  0  0  0 
 13 36  1  0  0  0  0 
 14 37  1  0  0  0  0 
 14 38  1  0  0  0  0 
 18 39  1  0  0  0  0 
 18 40  1  0  0  0  0 
 19 41  1  0  0  0  0 
 20 42  1  0  0  0  0 
 21 43  1  0  0  0  0 
 22 44  1  0  0  0  0 
M  END
> <cdk:Title>
eburnamonine

> <Conformer>
1

> <SuperDrugID>
SD002745

$$$$
