paramethasone acetate
  CDK     0628171801

 62 65  0  0  0  0  0  0  0  0999 V2000
   -0.1872    2.2585    0.8000 C   0  0  0  0  0  0  0  0  0  0  0  0
    0.7111    2.1274    2.0915 C   0  0  2  0  0  0  0  0  0  0  0  0
    0.6554    3.3629    3.0491 C   0  0  2  0  0  0  0  0  0  0  0  0
    2.2398    2.1629    1.6723 C   0  0  2  0  0  0  0  0  0  0  0  0
    0.2213    0.8999    2.9464 C   0  0  2  0  0  0  0  0  0  0  0  0
   -0.7793    3.6844    3.5885 C   0  0  1  0  0  0  0  0  0  0  0  0
    1.4331    4.4711    2.3144 C   0  0  1  0  0  0  0  0  0  0  0  0
    2.6066    1.3539    0.4526 C   0  0  0  0  0  0  0  0  0  0  0  0
    3.0502    1.6562    2.7465 O   0  0  0  0  0  0  0  0  0  0  0  0
    2.5286    3.7127    1.5123 C   0  0  1  0  0  0  0  0  0  0  0  0
   -1.1708    1.1027    3.6363 C   0  0  1  0  0  0  0  0  0  0  0  0
   -1.3145    2.4621    4.4330 C   0  0  2  0  0  0  0  0  0  0  0  0
   -0.7988    4.9964    4.4303 C   0  0  1  0  0  0  0  0  0  0  0  0
    2.7427   -0.1186    0.3967 C   0  0  2  0  0  0  0  0  0  0  0  0
    2.8169    1.9198   -0.6476 O   0  0  0  0  0  0  0  0  0  0  0  0
    3.9727    4.1587    1.8758 C   0  0  0  0  0  0  0  0  0  0  0  0
   -2.2000    0.9194    2.6671 O   0  0  0  0  0  0  0  0  0  0  0  0
   -2.7190    2.7630    5.1346 C   0  0  2  0  0  0  0  0  0  0  0  0
   -2.1842    5.2635    5.0681 C   0  0  1  0  0  0  0  0  0  0  0  0
    2.5666   -0.7855    1.6490 O   0  0  0  0  0  0  0  0  0  0  0  0
   -3.9350    2.8386    4.1409 C   0  0  0  0  0  0  0  0  0  0  0  0
   -2.6101    4.0860    5.8458 C   0  0  0  0  0  0  0  0  0  0  0  0
   -3.0547    1.6560    6.0647 C   0  0  0  0  0  0  0  0  0  0  0  0
   -2.0976    6.4509    5.7692 F   0  0  0  0  0  0  0  0  0  0  0  0
   -2.8595    4.1890    7.1738 C   0  0  0  0  0  0  0  0  0  0  0  0
   -3.2962    1.8339    7.3737 C   0  0  0  0  0  0  0  0  0  0  0  0
   -3.2159    3.0918    7.9373 C   0  0  0  0  0  0  0  0  0  0  0  0
   -3.4583    3.2408    9.1587 O   0  0  0  0  0  0  0  0  0  0  0  0
    2.6405   -2.1347    1.8397 C   0  0  0  0  0  0  0  0  0  0  0  0
    2.4280   -2.6840    3.1816 C   0  0  0  0  0  0  0  0  0  0  0  0
    2.8976   -2.9194    0.8961 O   0  0  0  0  0  0  0  0  0  0  0  0
   -1.2313    2.4468    1.0239 H   0  0  0  0  0  0  0  0  0  0  0  0
    0.1440    3.0702    0.1516 H   0  0  0  0  0  0  0  0  0  0  0  0
   -0.1494    1.3341    0.2206 H   0  0  0  0  0  0  0  0  0  0  0  0
    1.2593    3.1456    3.9440 H   0  0  0  0  0  0  0  0  0  0  0  0
    0.9444    0.6866    3.7367 H   0  0  0  0  0  0  0  0  0  0  0  0
    0.1748    0.0070    2.3190 H   0  0  0  0  0  0  0  0  0  0  0  0
   -1.4428    3.8607    2.7424 H   0  0  0  0  0  0  0  0  0  0  0  0
    0.7657    5.0177    1.6409 H   0  0  0  0  0  0  0  0  0  0  0  0
    1.8561    5.1874    3.0258 H   0  0  0  0  0  0  0  0  0  0  0  0
    3.9734    1.6954    2.4177 H   0  0  0  0  0  0  0  0  0  0  0  0
    2.3878    4.0133    0.4694 H   0  0  0  0  0  0  0  0  0  0  0  0
   -1.2852    0.2779    4.3432 H   0  0  0  0  0  0  0  0  0  0  0  0
   -0.6005    2.3569    5.2627 H   0  0  0  0  0  0  0  0  0  0  0  0
   -0.0441    4.9395    5.2217 H   0  0  0  0  0  0  0  0  0  0  0  0
   -0.5490    5.8468    3.7878 H   0  0  0  0  0  0  0  0  0  0  0  0
    3.7406   -0.3608    0.0143 H   0  0  0  0  0  0  0  0  0  0  0  0
    1.9968   -0.5006   -0.3063 H   0  0  0  0  0  0  0  0  0  0  0  0
    4.1801    3.9914    2.9342 H   0  0  0  0  0  0  0  0  0  0  0  0
    4.6983    3.6004    1.2819 H   0  0  0  0  0  0  0  0  0  0  0  0
    4.0984    5.2219    1.6645 H   0  0  0  0  0  0  0  0  0  0  0  0
   -2.0225    0.0450    2.2579 H   0  0  0  0  0  0  0  0  0  0  0  0
   -2.9148    5.4555    4.2789 H   0  0  0  0  0  0  0  0  0  0  0  0
   -4.2210    1.8576    3.7582 H   0  0  0  0  0  0  0  0  0  0  0  0
   -3.7192    3.4698    3.2796 H   0  0  0  0  0  0  0  0  0  0  0  0
   -4.8181    3.2434    4.6409 H   0  0  0  0  0  0  0  0  0  0  0  0
   -3.1281    0.7292    5.7125 H   0  0  0  0  0  0  0  0  0  0  0  0
   -2.7809    5.0642    7.6388 H   0  0  0  0  0  0  0  0  0  0  0  0
   -3.5366    1.0519    7.9408 H   0  0  0  0  0  0  0  0  0  0  0  0
    2.2179   -1.8886    3.9004 H   0  0  0  0  0  0  0  0  0  0  0  0
    1.5859   -3.3785    3.1683 H   0  0  0  0  0  0  0  0  0  0  0  0
    3.3271   -3.2166    3.4946 H   0  0  0  0  0  0  0  0  0  0  0  0
  2  1  1  0  0  0  0 
  3  2  1  0  0  0  0 
  2  4  1  0  0  0  0 
  2  5  1  0  0  0  0 
  6  3  1  0  0  0  0 
  3  7  1  0  0  0  0 
  4  8  1  0  0  0  0 
  4  9  1  0  0  0  0 
  4 10  1  0  0  0  0 
 11  5  1  0  0  0  0 
 12  6  1  0  0  0  0 
  6 13  1  0  0  0  0 
 10  7  1  0  0  0  0 
  8 14  1  0  0  0  0 
  8 15  2  0  0  0  0 
 10 16  1  0  0  0  0 
 12 11  1  0  0  0  0 
 11 17  1  0  0  0  0 
 12 18  1  0  0  0  0 
 19 13  1  0  0  0  0 
 14 20  1  0  0  0  0 
 18 21  1  0  0  0  0 
 18 22  1  0  0  0  0 
 18 23  1  0  0  0  0 
 19 22  1  0  0  0  0 
 19 24  1  0  0  0  0 
 22 25  2  0  0  0  0 
 23 26  2  0  0  0  0 
 25 27  1  0  0  0  0 
 26 27  1  0  0  0  0 
 27 28  2  0  0  0  0 
 20 29  1  0  0  0  0 
 29 30  1  0  0  0  0 
 29 31  2  0  0  0  0 
 32  1  1  0  0  0  0 
 33  1  1  0  0  0  0 
 34  1  1  0  0  0  0 
  3 35  1  0  0  0  0 
 36  5  1  0  0  0  0 
 37  5  1  0  0  0  0 
  6 38  1  0  0  0  0 
 39  7  1  0  0  0  0 
 40  7  1  0  0  0  0 
 41  9  1  0  0  0  0 
 10 42  1  0  0  0  0 
 11 43  1  0  0  0  0 
 12 44  1  0  0  0  0 
 45 13  1  0  0  0  0 
 46 13  1  0  0  0  0 
 47 14  1  0  0  0  0 
 48 14  1  0  0  0  0 
 49 16  1  0  0  0  0 
 50 16  1  0  0  0  0 
 51 16  1  0  0  0  0 
 52 17  1  0  0  0  0 
 19 53  1  0  0  0  0 
 54 21  1  0  0  0  0 
 55 21  1  0  0  0  0 
 56 21  1  0  0  0  0 
 57 23  1  0  0  0  0 
 58 25  1  0  0  0  0 
 59 26  1  0  0  0  0 
 60 30  1  0  0  0  0 
 61 30  1  0  0  0  0 
 62 30  1  0  0  0  0 
M  END
> <cdk:Title>
paramethasone acetate

> <Conformer>
1

> <SuperDrugID>
SD001847

$$$$
