guancidine
  CDK     0628171801

 25 24  0  0  0  0  0  0  0  0999 V2000
    1.8951    3.3590    2.6329 C   0  0  0  0  0  0  0  0  0  0  0  0
    1.1760    2.4174    1.6365 C   0  0  1  0  0  0  0  0  0  0  0  0
    1.8267    1.0011    1.4238 C   0  0  2  0  0  0  0  0  0  0  0  0
    1.0169    0.2011    0.3504 C   0  0  0  0  0  0  0  0  0  0  0  0
    1.7987    0.1822    2.7562 C   0  0  0  0  0  0  0  0  0  0  0  0
    3.1855    1.0810    1.0549 N   0  0  0  0  0  0  0  0  0  0  0  0
    3.8127    1.6051    0.0598 C   0  0  0  0  0  0  0  0  0  0  0  0
    3.1971    2.2564   -0.9238 N   0  0  0  0  0  0  0  0  0  0  0  0
    5.1355    1.4462    0.0988 N   0  0  0  0  0  0  0  0  0  0  0  0
    5.9388    1.7705   -0.8072 C   0  0  0  0  0  0  0  0  0  0  0  0
    6.6820    2.0531   -1.6358 N   0  0  0  0  0  0  0  0  0  0  0  0
    2.9268    3.5292    2.3224 H   0  0  0  0  0  0  0  0  0  0  0  0
    1.3822    4.3224    2.6655 H   0  0  0  0  0  0  0  0  0  0  0  0
    1.8881    2.9406    3.6387 H   0  0  0  0  0  0  0  0  0  0  0  0
    0.1452    2.2938    1.9784 H   0  0  0  0  0  0  0  0  0  0  0  0
    1.1223    2.9421    0.6795 H   0  0  0  0  0  0  0  0  0  0  0  0
    1.5057   -0.7509    0.1294 H   0  0  0  0  0  0  0  0  0  0  0  0
    0.0045   -0.0070    0.7059 H   0  0  0  0  0  0  0  0  0  0  0  0
    0.9318    0.7582   -0.5839 H   0  0  0  0  0  0  0  0  0  0  0  0
    2.4368    0.6332    3.5190 H   0  0  0  0  0  0  0  0  0  0  0  0
    0.7838    0.1252    3.1579 H   0  0  0  0  0  0  0  0  0  0  0  0
    2.1555   -0.8381    2.5955 H   0  0  0  0  0  0  0  0  0  0  0  0
    3.7157    2.6774   -1.6266 H   0  0  0  0  0  0  0  0  0  0  0  0
    2.2309    2.3257   -0.9456 H   0  0  0  0  0  0  0  0  0  0  0  0
    5.5150    1.0311    0.8895 H   0  0  0  0  0  0  0  0  0  0  0  0
  1  2  1  0  0  0  0 
  2  3  1  0  0  0  0 
  3  4  1  0  0  0  0 
  3  5  1  0  0  0  0 
  6  3  1  0  0  0  0 
  6  7  2  0  0  0  0 
  7  8  1  0  0  0  0 
  7  9  1  0  0  0  0 
  9 10  1  0  0  0  0 
 10 11  3  0  0  0  0 
 12  1  1  0  0  0  0 
 13  1  1  0  0  0  0 
 14  1  1  0  0  0  0 
 15  2  1  0  0  0  0 
 16  2  1  0  0  0  0 
 17  4  1  0  0  0  0 
 18  4  1  0  0  0  0 
 19  4  1  0  0  0  0 
 20  5  1  0  0  0  0 
 21  5  1  0  0  0  0 
 22  5  1  0  0  0  0 
 23  8  1  0  0  0  0 
 24  8  1  0  0  0  0 
 25  9  1  0  0  0  0 
M  END
> <cdk:Title>
guancidine

> <Conformer>
1

> <SuperDrugID>
SD001189

$$$$
