cefoselis
  CDK     0628171802

 57 60  0  0  0  0  0  0  0  0999 V2000
    6.8382   -4.0180    0.2268 C   0  0  0  0  0  0  0  0  0  0  0  0
    7.4398   -3.3234    1.2210 O   0  0  0  0  0  0  0  0  0  0  0  0
    6.3676   -5.1487    0.4853 O   0  0  0  0  0  0  0  0  0  0  0  0
    6.6731   -3.4681   -1.0359 C   0  0  0  0  0  0  0  0  0  0  0  0
    5.3950   -3.2142   -1.4026 N   0  0  0  0  0  0  0  0  0  0  0  0
    7.7146   -3.1309   -1.8530 C   0  0  0  0  0  0  0  0  0  0  0  0
    4.8120   -2.9020   -2.6605 C   0  0  1  0  0  0  0  0  0  0  0  0
    4.2631   -2.9680   -0.7256 C   0  0  0  0  0  0  0  0  0  0  0  0
    9.1376   -3.3113   -1.4872 C   0  0  2  0  0  0  0  0  0  0  0  0
    7.4961   -2.5602   -3.2012 C   0  0  2  0  0  0  0  0  0  0  0  0
    3.5208   -2.4819   -1.8932 C   0  0  1  0  0  0  0  0  0  0  0  0
    5.9159   -1.6648   -3.4113 S   0  0  0  0  0  0  0  0  0  0  0  0
    3.9631   -3.0338    0.4886 O   0  0  0  0  0  0  0  0  0  0  0  0
    9.8346   -2.0478   -1.3714 N   0  0  0  0  0  0  0  0  0  0  0  0
    3.2736   -1.0699   -1.8856 N   0  0  0  0  0  0  0  0  0  0  0  0
   10.8991   -1.6234   -2.0286 N   0  0  0  0  0  0  0  0  0  0  0  0
    9.4313   -1.0758   -0.5212 C   0  0  0  0  0  0  0  0  0  0  0  0
    2.5307   -0.3811   -0.9734 C   0  0  0  0  0  0  0  0  0  0  0  0
   11.6922   -2.3614   -2.9847 C   0  0  1  0  0  0  0  0  0  0  0  0
   11.1788   -0.3531   -1.6412 C   0  0  0  0  0  0  0  0  0  0  0  0
   10.2608    0.0154   -0.6751 C   0  0  0  0  0  0  0  0  0  0  0  0
    2.5037    1.0216   -0.9349 C   0  0  0  0  0  0  0  0  0  0  0  0
    1.8725   -1.0278   -0.1231 O   0  0  0  0  0  0  0  0  0  0  0  0
   12.6835   -3.3090   -2.2705 C   0  0  1  0  0  0  0  0  0  0  0  0
   12.1666    0.4590   -2.0707 N   0  0  0  0  0  0  0  0  0  0  0  0
    1.4345    1.6549   -0.5886 N   0  0  0  0  0  0  0  0  0  0  0  0
    3.6377    1.8073   -1.2127 C   0  0  0  0  0  0  0  0  0  0  0  0
   13.4169   -4.0798   -3.2161 O   0  0  0  0  0  0  0  0  0  0  0  0
    0.2867    1.1736   -0.2860 O   0  0  0  0  0  0  0  0  0  0  0  0
    4.7482    1.3084   -1.8409 N   0  0  0  0  0  0  0  0  0  0  0  0
    3.7665    3.1708   -0.8665 C   0  0  0  0  0  0  0  0  0  0  0  0
   -0.4095    2.0713    0.5910 C   0  0  0  0  0  0  0  0  0  0  0  0
    5.8000    2.1258   -2.0611 C   0  0  0  0  0  0  0  0  0  0  0  0
    5.3628    3.6805   -1.3845 S   0  0  0  0  0  0  0  0  0  0  0  0
    6.9450    1.8114   -2.6899 N   0  0  0  0  0  0  0  0  0  0  0  0
    4.6925   -3.7913   -3.2880 H   0  0  0  0  0  0  0  0  0  0  0  0
    9.5914   -3.9532   -2.2413 H   0  0  0  0  0  0  0  0  0  0  0  0
    9.2827   -3.8433   -0.5467 H   0  0  0  0  0  0  0  0  0  0  0  0
    7.5056   -3.3738   -3.9293 H   0  0  0  0  0  0  0  0  0  0  0  0
    8.2811   -1.8552   -3.4794 H   0  0  0  0  0  0  0  0  0  0  0  0
    2.6502   -3.0953   -2.1427 H   0  0  0  0  0  0  0  0  0  0  0  0
    3.6962   -0.5518   -2.5855 H   0  0  0  0  0  0  0  0  0  0  0  0
    8.6376   -1.1172    0.1226 H   0  0  0  0  0  0  0  0  0  0  0  0
   11.0501   -2.9282   -3.6604 H   0  0  0  0  0  0  0  0  0  0  0  0
   12.2731   -1.6888   -3.6217 H   0  0  0  0  0  0  0  0  0  0  0  0
   10.2028    0.9069   -0.1785 H   0  0  0  0  0  0  0  0  0  0  0  0
   13.3930   -2.7252   -1.6799 H   0  0  0  0  0  0  0  0  0  0  0  0
   12.1532   -3.9900   -1.6028 H   0  0  0  0  0  0  0  0  0  0  0  0
   12.2250    1.3649   -1.7288 H   0  0  0  0  0  0  0  0  0  0  0  0
   12.8190    0.1469   -2.7174 H   0  0  0  0  0  0  0  0  0  0  0  0
   12.7412   -4.6262   -3.6694 H   0  0  0  0  0  0  0  0  0  0  0  0
    3.0822    3.7647   -0.3893 H   0  0  0  0  0  0  0  0  0  0  0  0
   -1.4004    1.6566    0.7819 H   0  0  0  0  0  0  0  0  0  0  0  0
    0.1101    2.1689    1.5481 H   0  0  0  0  0  0  0  0  0  0  0  0
   -0.5265    3.0635    0.1426 H   0  0  0  0  0  0  0  0  0  0  0  0
    7.6491    2.4726   -2.7845 H   0  0  0  0  0  0  0  0  0  0  0  0
    7.0645    0.9267   -3.0699 H   0  0  0  0  0  0  0  0  0  0  0  0
  1  2  1  0  0  0  0 
  1  3  2  0  0  0  0 
  1  4  1  0  0  0  0 
  4  5  1  0  0  0  0 
  4  6  2  0  0  0  0 
  7  5  1  0  0  0  0 
  5  8  1  0  0  0  0 
  6  9  1  0  0  0  0 
  6 10  1  0  0  0  0 
 11  7  1  0  0  0  0 
  7 12  1  0  0  0  0 
  7 36  1  0  0  0  0 
 11  8  1  0  0  0  0 
  8 13  2  0  0  0  0 
  9 14  1  0  0  0  0 
 10 12  1  0  0  0  0 
 11 15  1  0  0  0  0 
 14 16  1  0  0  0  0 
 14 17  2  0  0  0  0 
 15 18  1  0  0  0  0 
 16 19  1  0  0  0  0 
 16 20  1  0  0  0  0 
 17 21  1  0  0  0  0 
 18 22  1  0  0  0  0 
 18 23  2  0  0  0  0 
 19 24  1  0  0  0  0 
 20 21  2  0  0  0  0 
 20 25  1  0  0  0  0 
 22 26  2  0  0  0  0 
 22 27  1  0  0  0  0 
 24 28  1  0  0  0  0 
 26 29  1  0  0  0  0 
 27 30  1  0  0  0  0 
 27 31  2  0  0  0  0 
 29 32  1  0  0  0  0 
 30 33  2  0  0  0  0 
 31 34  1  0  0  0  0 
 33 34  1  0  0  0  0 
 33 35  1  0  0  0  0 
  9 37  1  0  0  0  0 
  9 38  1  0  0  0  0 
 10 39  1  0  0  0  0 
 10 40  1  0  0  0  0 
 11 41  1  0  0  0  0 
 15 42  1  0  0  0  0 
 17 43  1  0  0  0  0 
 19 44  1  0  0  0  0 
 19 45  1  0  0  0  0 
 21 46  1  0  0  0  0 
 24 47  1  0  0  0  0 
 24 48  1  0  0  0  0 
 25 49  1  0  0  0  0 
 25 50  1  0  0  0  0 
 28 51  1  0  0  0  0 
 31 52  1  0  0  0  0 
 32 53  1  0  0  0  0 
 32 54  1  0  0  0  0 
 32 55  1  0  0  0  0 
 35 56  1  0  0  0  0 
 35 57  1  0  0  0  0 
M  CHG  1   2  -1
M  CHG  1  14   1
M  END
> <cdk:Title>
cefoselis

> <Conformer>
1

> <SuperDrugID>
SD000473

$$$$
