camylofin
  CDK     0628171802

 55 55  0  0  0  0  0  0  0  0999 V2000
   -1.7081    1.1369   -0.1094 C   0  0  1  0  0  0  0  0  0  0  0  0
   -0.6017    1.5715    0.7825 N   0  0  1  0  0  0  0  0  0  0  0  0
   -2.5326    0.1370    0.6052 C   0  0  0  0  0  0  0  0  0  0  0  0
   -2.5923    2.2565   -0.5660 C   0  0  0  0  0  0  0  0  0  0  0  0
    0.4285    2.4607    0.1910 C   0  0  2  0  0  0  0  0  0  0  0  0
   -3.0438    0.4551    1.8295 O   0  0  0  0  0  0  0  0  0  0  0  0
   -2.7683   -0.9813    0.0875 O   0  0  0  0  0  0  0  0  0  0  0  0
   -3.1200    3.1962    0.3554 C   0  0  0  0  0  0  0  0  0  0  0  0
   -2.9383    2.3903   -1.9335 C   0  0  0  0  0  0  0  0  0  0  0  0
    1.4943    2.7921    1.2667 C   0  0  2  0  0  0  0  0  0  0  0  0
   -3.9553   -0.3211    2.6133 C   0  0  2  0  0  0  0  0  0  0  0  0
   -3.9597    4.2380   -0.0794 C   0  0  0  0  0  0  0  0  0  0  0  0
   -3.7824    3.4282   -2.3662 C   0  0  0  0  0  0  0  0  0  0  0  0
    2.7114    3.5152    0.7545 N   0  0  1  0  0  0  0  0  0  0  0  0
   -4.2813    0.4195    3.9454 C   0  0  2  0  0  0  0  0  0  0  0  0
   -4.2949    4.3520   -1.4400 C   0  0  0  0  0  0  0  0  0  0  0  0
    2.4826    4.9694    0.4560 C   0  0  1  0  0  0  0  0  0  0  0  0
    3.9320    3.2689    1.6022 C   0  0  1  0  0  0  0  0  0  0  0  0
   -3.6546   -0.2237    5.2231 C   0  0  2  0  0  0  0  0  0  0  0  0
    3.4334    5.5047   -0.6414 C   0  0  0  0  0  0  0  0  0  0  0  0
    4.6505    1.9635    1.1954 C   0  0  0  0  0  0  0  0  0  0  0  0
   -4.1765    0.4650    6.5161 C   0  0  0  0  0  0  0  0  0  0  0  0
   -2.0993   -0.2273    5.2090 C   0  0  0  0  0  0  0  0  0  0  0  0
   -1.2523    0.6364   -0.9717 H   0  0  0  0  0  0  0  0  0  0  0  0
   -1.0155    2.0578    1.5816 H   0  0  0  0  0  0  0  0  0  0  0  0
   -0.0395    3.3787   -0.1691 H   0  0  0  0  0  0  0  0  0  0  0  0
    0.9071    1.9509   -0.6468 H   0  0  0  0  0  0  0  0  0  0  0  0
   -2.8937    3.1336    1.3500 H   0  0  0  0  0  0  0  0  0  0  0  0
   -2.5783    1.7297   -2.6262 H   0  0  0  0  0  0  0  0  0  0  0  0
    1.7886    1.8330    1.6985 H   0  0  0  0  0  0  0  0  0  0  0  0
    1.0286    3.3716    2.0707 H   0  0  0  0  0  0  0  0  0  0  0  0
   -3.5402   -1.3171    2.7940 H   0  0  0  0  0  0  0  0  0  0  0  0
   -4.8706   -0.4420    2.0304 H   0  0  0  0  0  0  0  0  0  0  0  0
   -4.3261    4.9127    0.5943 H   0  0  0  0  0  0  0  0  0  0  0  0
   -4.0231    3.5121   -3.3556 H   0  0  0  0  0  0  0  0  0  0  0  0
   -5.3669    0.4261    4.0685 H   0  0  0  0  0  0  0  0  0  0  0  0
   -3.9731    1.4670    3.8746 H   0  0  0  0  0  0  0  0  0  0  0  0
   -4.9149    5.1036   -1.7541 H   0  0  0  0  0  0  0  0  0  0  0  0
    1.4688    5.1383    0.0907 H   0  0  0  0  0  0  0  0  0  0  0  0
    2.5992    5.5680    1.3652 H   0  0  0  0  0  0  0  0  0  0  0  0
    4.6665    4.0727    1.5107 H   0  0  0  0  0  0  0  0  0  0  0  0
    3.6636    3.2224    2.6621 H   0  0  0  0  0  0  0  0  0  0  0  0
   -3.9874   -1.2656    5.2648 H   0  0  0  0  0  0  0  0  0  0  0  0
    4.4617    5.5620   -0.2808 H   0  0  0  0  0  0  0  0  0  0  0  0
    3.4017    4.8516   -1.5153 H   0  0  0  0  0  0  0  0  0  0  0  0
    3.1251    6.5088   -0.9449 H   0  0  0  0  0  0  0  0  0  0  0  0
    5.5314    1.8131    1.8243 H   0  0  0  0  0  0  0  0  0  0  0  0
    4.9706    2.0216    0.1535 H   0  0  0  0  0  0  0  0  0  0  0  0
    3.9927    1.1017    1.3137 H   0  0  0  0  0  0  0  0  0  0  0  0
   -3.7958   -0.0512    7.4007 H   0  0  0  0  0  0  0  0  0  0  0  0
   -3.8567    1.5089    6.5550 H   0  0  0  0  0  0  0  0  0  0  0  0
   -5.2670    0.4346    6.5565 H   0  0  0  0  0  0  0  0  0  0  0  0
   -1.7151   -0.7385    6.0969 H   0  0  0  0  0  0  0  0  0  0  0  0
   -1.7138    0.7944    5.1996 H   0  0  0  0  0  0  0  0  0  0  0  0
   -1.7192   -0.7530    4.3322 H   0  0  0  0  0  0  0  0  0  0  0  0
  1  2  1  0  0  0  0 
  1  3  1  0  0  0  0 
  1  4  1  0  0  0  0 
  2  5  1  0  0  0  0 
  3  6  1  0  0  0  0 
  3  7  2  0  0  0  0 
  4  8  2  0  0  0  0 
  4  9  1  0  0  0  0 
  5 10  1  0  0  0  0 
  6 11  1  0  0  0  0 
  8 12  1  0  0  0  0 
  9 13  2  0  0  0  0 
 10 14  1  0  0  0  0 
 11 15  1  0  0  0  0 
 12 16  2  0  0  0  0 
 13 16  1  0  0  0  0 
 14 17  1  0  0  0  0 
 14 18  1  0  0  0  0 
 15 19  1  0  0  0  0 
 17 20  1  0  0  0  0 
 18 21  1  0  0  0  0 
 19 22  1  0  0  0  0 
 19 23  1  0  0  0  0 
  1 24  1  0  0  0  0 
  2 25  1  0  0  0  0 
  5 26  1  0  0  0  0 
  5 27  1  0  0  0  0 
  8 28  1  0  0  0  0 
  9 29  1  0  0  0  0 
 10 30  1  0  0  0  0 
 10 31  1  0  0  0  0 
 11 32  1  0  0  0  0 
 11 33  1  0  0  0  0 
 12 34  1  0  0  0  0 
 13 35  1  0  0  0  0 
 15 36  1  0  0  0  0 
 15 37  1  0  0  0  0 
 16 38  1  0  0  0  0 
 17 39  1  0  0  0  0 
 17 40  1  0  0  0  0 
 18 41  1  0  0  0  0 
 18 42  1  0  0  0  0 
 19 43  1  0  0  0  0 
 20 44  1  0  0  0  0 
 20 45  1  0  0  0  0 
 20 46  1  0  0  0  0 
 21 47  1  0  0  0  0 
 21 48  1  0  0  0  0 
 21 49  1  0  0  0  0 
 22 50  1  0  0  0  0 
 22 51  1  0  0  0  0 
 22 52  1  0  0  0  0 
 23 53  1  0  0  0  0 
 23 54  1  0  0  0  0 
 23 55  1  0  0  0  0 
M  END
> <cdk:Title>
camylofin

> <Conformer>
1

> <SuperDrugID>
SD000411

$$$$
