clonixin
  CDK     0628171802

 29 30  0  0  0  0  0  0  0  0999 V2000
   -0.8406    2.3920    0.5855 N   0  0  0  0  0  0  0  0  0  0  0  0
   -1.0616    3.6726    0.1456 C   0  0  0  0  0  0  0  0  0  0  0  0
   -1.1198    1.1619    0.0315 C   0  0  0  0  0  0  0  0  0  0  0  0
   -0.5190    4.7944    0.8475 C   0  0  0  0  0  0  0  0  0  0  0  0
   -1.7500    3.8972   -1.0077 N   0  0  0  0  0  0  0  0  0  0  0  0
   -0.2666    0.0660    0.3746 C   0  0  0  0  0  0  0  0  0  0  0  0
   -2.2181    0.9311   -0.8320 C   0  0  0  0  0  0  0  0  0  0  0  0
    0.2364    4.7006    2.0549 C   0  0  0  0  0  0  0  0  0  0  0  0
   -0.7285    6.0821    0.2882 C   0  0  0  0  0  0  0  0  0  0  0  0
   -1.9688    5.1208   -1.5442 C   0  0  0  0  0  0  0  0  0  0  0  0
    0.8835    0.3010    1.2994 C   0  0  0  0  0  0  0  0  0  0  0  0
   -0.5202   -1.2194   -0.1869 C   0  0  0  0  0  0  0  0  0  0  0  0
   -2.4550   -0.3397   -1.3771 C   0  0  0  0  0  0  0  0  0  0  0  0
    1.0610    5.6976    2.4584 O   0  0  0  0  0  0  0  0  0  0  0  0
    0.1868    3.7147    2.8233 O   0  0  0  0  0  0  0  0  0  0  0  0
   -1.4540    6.2539   -0.9022 C   0  0  0  0  0  0  0  0  0  0  0  0
    0.4408   -2.5915    0.1056 Cl  0  0  0  0  0  0  0  0  0  0  0  0
   -1.6116   -1.4101   -1.0552 C   0  0  0  0  0  0  0  0  0  0  0  0
   -0.3428    2.3342    1.4085 H   0  0  0  0  0  0  0  0  0  0  0  0
   -2.8700    1.6787   -1.0709 H   0  0  0  0  0  0  0  0  0  0  0  0
   -0.3562    6.9219    0.7405 H   0  0  0  0  0  0  0  0  0  0  0  0
   -2.5012    5.2097   -2.4123 H   0  0  0  0  0  0  0  0  0  0  0  0
    1.4684   -0.5879    1.5216 H   0  0  0  0  0  0  0  0  0  0  0  0
    1.5578    1.0350    0.8548 H   0  0  0  0  0  0  0  0  0  0  0  0
    0.5191    0.6887    2.2509 H   0  0  0  0  0  0  0  0  0  0  0  0
   -3.2457   -0.4863   -2.0081 H   0  0  0  0  0  0  0  0  0  0  0  0
    1.5801    5.6028    3.2850 H   0  0  0  0  0  0  0  0  0  0  0  0
   -1.6027    7.1876   -1.2952 H   0  0  0  0  0  0  0  0  0  0  0  0
   -1.8030   -2.3303   -1.4588 H   0  0  0  0  0  0  0  0  0  0  0  0
  1  2  1  0  0  0  0 
  1  3  1  0  0  0  0 
  2  4  2  0  0  0  0 
  2  5  1  0  0  0  0 
  3  6  2  0  0  0  0 
  3  7  1  0  0  0  0 
  4  8  1  0  0  0  0 
  4  9  1  0  0  0  0 
  5 10  2  0  0  0  0 
  6 11  1  0  0  0  0 
  6 12  1  0  0  0  0 
  7 13  2  0  0  0  0 
  8 14  1  0  0  0  0 
  8 15  2  0  0  0  0 
  9 16  2  0  0  0  0 
 10 16  1  0  0  0  0 
 12 17  1  0  0  0  0 
 12 18  2  0  0  0  0 
 13 18  1  0  0  0  0 
  1 19  1  0  0  0  0 
  7 20  1  0  0  0  0 
  9 21  1  0  0  0  0 
 10 22  1  0  0  0  0 
 11 23  1  0  0  0  0 
 11 24  1  0  0  0  0 
 11 25  1  0  0  0  0 
 13 26  1  0  0  0  0 
 14 27  1  0  0  0  0 
 16 28  1  0  0  0  0 
 18 29  1  0  0  0  0 
M  END
> <cdk:Title>
clonixin

> <Conformer>
1

> <SuperDrugID>
SD000622

$$$$
