zaltoprofen
  CDK     0628171801

 35 37  0  0  0  0  0  0  0  0999 V2000
    1.0015    0.2081   -1.2140 C   0  0  1  0  0  0  0  0  0  0  0  0
    0.6389    0.9545   -2.4427 C   0  0  0  0  0  0  0  0  0  0  0  0
    1.5865   -1.1946   -1.5343 C   0  0  0  0  0  0  0  0  0  0  0  0
    1.8728    1.0426   -0.3217 C   0  0  0  0  0  0  0  0  0  0  0  0
    1.5653    1.3039   -3.3639 O   0  0  0  0  0  0  0  0  0  0  0  0
   -0.5466    1.2935   -2.6623 O   0  0  0  0  0  0  0  0  0  0  0  0
    3.2718    1.1659   -0.5047 C   0  0  0  0  0  0  0  0  0  0  0  0
    1.2910    1.7416    0.7557 C   0  0  0  0  0  0  0  0  0  0  0  0
    4.1033    1.9059    0.3805 C   0  0  0  0  0  0  0  0  0  0  0  0
    2.0783    2.5078    1.6258 C   0  0  0  0  0  0  0  0  0  0  0  0
    3.4774    2.5980    1.4598 C   0  0  0  0  0  0  0  0  0  0  0  0
    5.5681    1.8485    0.0734 C   0  0  2  0  0  0  0  0  0  0  0  0
    4.2706    3.5800    2.6919 S   0  0  0  0  0  0  0  0  0  0  0  0
    6.5450    2.4692    0.9947 C   0  0  0  0  0  0  0  0  0  0  0  0
    5.5570    4.4998    1.9278 C   0  0  0  0  0  0  0  0  0  0  0  0
    7.3999    1.7620    1.5775 O   0  0  0  0  0  0  0  0  0  0  0  0
    6.5792    3.8599    1.1928 C   0  0  0  0  0  0  0  0  0  0  0  0
    5.6048    5.8970    2.1232 C   0  0  0  0  0  0  0  0  0  0  0  0
    7.6486    4.6254    0.6728 C   0  0  0  0  0  0  0  0  0  0  0  0
    6.6617    6.6563    1.5872 C   0  0  0  0  0  0  0  0  0  0  0  0
    7.6859    6.0193    0.8649 C   0  0  0  0  0  0  0  0  0  0  0  0
    0.0661   -0.0047   -0.6824 H   0  0  0  0  0  0  0  0  0  0  0  0
    1.9322   -1.6754   -0.6157 H   0  0  0  0  0  0  0  0  0  0  0  0
    2.4240   -1.1314   -2.2312 H   0  0  0  0  0  0  0  0  0  0  0  0
    0.8163   -1.8314   -1.9792 H   0  0  0  0  0  0  0  0  0  0  0  0
    1.2808    1.7826   -4.1719 H   0  0  0  0  0  0  0  0  0  0  0  0
    3.6983    0.6866   -1.3018 H   0  0  0  0  0  0  0  0  0  0  0  0
    0.2800    1.7032    0.9141 H   0  0  0  0  0  0  0  0  0  0  0  0
    1.6062    2.9998    2.3906 H   0  0  0  0  0  0  0  0  0  0  0  0
    5.7227    2.2982   -0.9118 H   0  0  0  0  0  0  0  0  0  0  0  0
    5.8361    0.7902   -0.0171 H   0  0  0  0  0  0  0  0  0  0  0  0
    4.8780    6.3717    2.6643 H   0  0  0  0  0  0  0  0  0  0  0  0
    8.4052    4.1777    0.1481 H   0  0  0  0  0  0  0  0  0  0  0  0
    6.6899    7.6699    1.7284 H   0  0  0  0  0  0  0  0  0  0  0  0
    8.4586    6.5699    0.4815 H   0  0  0  0  0  0  0  0  0  0  0  0
  1  2  1  0  0  0  0 
  1  3  1  0  0  0  0 
  1  4  1  0  0  0  0 
  2  5  1  0  0  0  0 
  2  6  2  0  0  0  0 
  4  7  2  0  0  0  0 
  4  8  1  0  0  0  0 
  7  9  1  0  0  0  0 
  8 10  2  0  0  0  0 
  9 11  2  0  0  0  0 
  9 12  1  0  0  0  0 
 10 11  1  0  0  0  0 
 11 13  1  0  0  0  0 
 12 14  1  0  0  0  0 
 13 15  1  0  0  0  0 
 14 16  2  0  0  0  0 
 14 17  1  0  0  0  0 
 15 17  2  0  0  0  0 
 15 18  1  0  0  0  0 
 17 19  1  0  0  0  0 
 18 20  2  0  0  0  0 
 19 21  2  0  0  0  0 
 20 21  1  0  0  0  0 
  1 22  1  0  0  0  0 
  3 23  1  0  0  0  0 
  3 24  1  0  0  0  0 
  3 25  1  0  0  0  0 
  5 26  1  0  0  0  0 
  7 27  1  0  0  0  0 
  8 28  1  0  0  0  0 
 10 29  1  0  0  0  0 
 12 30  1  0  0  0  0 
 12 31  1  0  0  0  0 
 18 32  1  0  0  0  0 
 19 33  1  0  0  0  0 
 20 34  1  0  0  0  0 
 21 35  1  0  0  0  0 
M  END
> <cdk:Title>
zaltoprofen

> <Conformer>
1

> <SuperDrugID>
SD002575

$$$$
