nemonoxacin
  CDK     0628171802

 52 55  0  0  0  0  0  0  0  0999 V2000
    0.2357   -0.3912    4.1790 C   0  0  0  0  0  0  0  0  0  0  0  0
    0.4782    0.4351    3.0511 C   0  0  0  0  0  0  0  0  0  0  0  0
   -0.4729    1.4131    2.7096 C   0  0  0  0  0  0  0  0  0  0  0  0
   -1.6124    1.6038    3.5038 C   0  0  0  0  0  0  0  0  0  0  0  0
   -1.8510    0.7963    4.6432 C   0  0  0  0  0  0  0  0  0  0  0  0
   -0.9713   -0.2934    4.9363 C   0  0  0  0  0  0  0  0  0  0  0  0
   -1.3208   -1.1701    5.9478 N   0  0  0  0  0  0  0  0  0  0  0  0
   -2.9405    1.0587    5.5131 C   0  0  0  0  0  0  0  0  0  0  0  0
   -3.1557    0.2678    6.6696 C   0  0  0  0  0  0  0  0  0  0  0  0
   -2.3168   -0.8539    6.8330 C   0  0  0  0  0  0  0  0  0  0  0  0
   -3.7011    2.0266    5.2715 O   0  0  0  0  0  0  0  0  0  0  0  0
   -0.6892   -2.4577    6.1568 C   0  0  1  0  0  0  0  0  0  0  0  0
   -1.6184   -3.6934    6.1134 C   0  0  2  0  0  0  0  0  0  0  0  0
   -0.5794   -3.4900    5.0150 C   0  0  1  0  0  0  0  0  0  0  0  0
   -4.1599    0.5495    7.6474 C   0  0  0  0  0  0  0  0  0  0  0  0
   -4.2293   -0.1393    8.8158 O   0  0  0  0  0  0  0  0  0  0  0  0
   -5.0166    1.4498    7.5010 O   0  0  0  0  0  0  0  0  0  0  0  0
    1.2427   -1.2513    4.5375 O   0  0  0  0  0  0  0  0  0  0  0  0
    1.6281    0.3031    2.3023 N   0  0  0  0  0  0  0  0  0  0  0  0
    1.9090   -0.9253    1.5904 C   0  0  2  0  0  0  0  0  0  0  0  0
    2.1811   -0.6591    0.0787 C   0  0  2  0  0  0  0  0  0  0  0  0
    3.2536    0.4625   -0.0855 C   0  0  1  0  0  0  0  0  0  0  0  0
    2.9291    1.7362    0.7461 C   0  0  1  0  0  0  0  0  0  0  0  0
    2.6067    1.3689    2.2202 C   0  0  2  0  0  0  0  0  0  0  0  0
    0.8794   -0.3493   -0.7103 C   0  0  0  0  0  0  0  0  0  0  0  0
    4.0632    2.6729    0.6759 N   0  0  1  0  0  0  0  0  0  0  0  0
    2.1544   -0.6701    5.4901 C   0  0  0  0  0  0  0  0  0  0  0  0
   -0.3316    2.0033    1.8856 H   0  0  0  0  0  0  0  0  0  0  0  0
   -2.2636    2.3466    3.2356 H   0  0  0  0  0  0  0  0  0  0  0  0
   -2.4748   -1.4633    7.6440 H   0  0  0  0  0  0  0  0  0  0  0  0
    0.0676   -2.5311    6.9406 H   0  0  0  0  0  0  0  0  0  0  0  0
   -2.6493   -3.5455    5.7844 H   0  0  0  0  0  0  0  0  0  0  0  0
   -1.3988   -4.4875    6.8288 H   0  0  0  0  0  0  0  0  0  0  0  0
   -0.9797   -3.1951    4.0437 H   0  0  0  0  0  0  0  0  0  0  0  0
    0.2898   -4.1497    5.0556 H   0  0  0  0  0  0  0  0  0  0  0  0
   -4.9182    0.0762    9.4786 H   0  0  0  0  0  0  0  0  0  0  0  0
    1.0980   -1.6557    1.6909 H   0  0  0  0  0  0  0  0  0  0  0  0
    2.7976   -1.3863    2.0343 H   0  0  0  0  0  0  0  0  0  0  0  0
    2.5944   -1.5792   -0.3478 H   0  0  0  0  0  0  0  0  0  0  0  0
    4.2185    0.0651    0.2434 H   0  0  0  0  0  0  0  0  0  0  0  0
    3.3579    0.7276   -1.1411 H   0  0  0  0  0  0  0  0  0  0  0  0
    2.0636    2.2428    0.3098 H   0  0  0  0  0  0  0  0  0  0  0  0
    3.5241    1.0292    2.7091 H   0  0  0  0  0  0  0  0  0  0  0  0
    2.2827    2.2689    2.7518 H   0  0  0  0  0  0  0  0  0  0  0  0
    0.3732    0.5282   -0.3059 H   0  0  0  0  0  0  0  0  0  0  0  0
    1.1080   -0.1660   -1.7627 H   0  0  0  0  0  0  0  0  0  0  0  0
    0.1974   -1.2003   -0.6556 H   0  0  0  0  0  0  0  0  0  0  0  0
    3.8123    3.5032    1.2163 H   0  0  0  0  0  0  0  0  0  0  0  0
    4.8527    2.2335    1.1535 H   0  0  0  0  0  0  0  0  0  0  0  0
    2.9509   -1.3894    5.6766 H   0  0  0  0  0  0  0  0  0  0  0  0
    2.6100    0.2494    5.1150 H   0  0  0  0  0  0  0  0  0  0  0  0
    1.6544   -0.4599    6.4378 H   0  0  0  0  0  0  0  0  0  0  0  0
  1  2  1  0  0  0  0 
  1  6  2  0  0  0  0 
  2  3  2  0  0  0  0 
  3  4  1  0  0  0  0 
  4  5  2  0  0  0  0 
  5  6  1  0  0  0  0 
  8  9  1  0  0  0  0 
  9 10  2  0  0  0  0 
  7 10  1  0  0  0  0 
  5  8  1  0  0  0  0 
  7  6  1  0  0  0  0 
  8 11  2  0  0  0  0 
  7 12  1  0  0  0  0 
 13 14  1  0  0  0  0 
 12 13  1  0  0  0  0 
 14 12  1  0  0  0  0 
  9 15  1  0  0  0  0 
 15 16  1  0  0  0  0 
 15 17  2  0  0  0  0 
  1 18  1  0  0  0  0 
  2 19  1  0  0  0  0 
 20 21  1  0  0  0  0 
 21 22  1  0  0  0  0 
 22 23  1  0  0  0  0 
 23 24  1  0  0  0  0 
 19 20  1  0  0  0  0 
 19 24  1  0  0  0  0 
 21 25  1  0  0  0  0 
 23 26  1  0  0  0  0 
 18 27  1  0  0  0  0 
  3 28  1  0  0  0  0 
  4 29  1  0  0  0  0 
 10 30  1  0  0  0  0 
 12 31  1  0  0  0  0 
 13 32  1  0  0  0  0 
 13 33  1  0  0  0  0 
 14 34  1  0  0  0  0 
 14 35  1  0  0  0  0 
 16 36  1  0  0  0  0 
 20 37  1  0  0  0  0 
 20 38  1  0  0  0  0 
 21 39  1  0  0  0  0 
 22 40  1  0  0  0  0 
 22 41  1  0  0  0  0 
 23 42  1  0  0  0  0 
 24 43  1  0  0  0  0 
 24 44  1  0  0  0  0 
 25 45  1  0  0  0  0 
 25 46  1  0  0  0  0 
 25 47  1  0  0  0  0 
 26 48  1  0  0  0  0 
 26 49  1  0  0  0  0 
 27 50  1  0  0  0  0 
 27 51  1  0  0  0  0 
 27 52  1  0  0  0  0 
M  END
> <cdk:Title>
nemonoxacin

> <Conformer>
1

> <SuperDrugID>
SD003902

$$$$
