hydrocortisone phosphate
  CDK     0628171802

 61 64  0  0  0  0  0  0  0  0999 V2000
   -2.8049    2.0610    2.1051 C   0  0  2  0  0  0  0  0  0  0  0  0
   -1.8306    2.8209    3.0385 C   0  0  2  0  0  0  0  0  0  0  0  0
   -0.8119    3.5484    2.2579 C   0  0  0  0  0  0  0  0  0  0  0  0
   -1.0457    3.9538    0.9549 C   0  0  0  0  0  0  0  0  0  0  0  0
   -2.1914    3.7026    0.2775 C   0  0  0  0  0  0  0  0  0  0  0  0
   -3.3181    2.9104    0.8696 C   0  0  1  0  0  0  0  0  0  0  0  0
   -2.3620    4.2902   -1.0605 C   0  0  2  0  0  0  0  0  0  0  0  0
   -2.8306    3.2486   -2.0979 C   0  0  2  0  0  0  0  0  0  0  0  0
   -4.1396    2.5445   -1.6409 C   0  0  2  0  0  0  0  0  0  0  0  0
   -3.9164    1.8969   -0.2186 C   0  0  2  0  0  0  0  0  0  0  0  0
   -4.5931    1.4444   -2.6612 C   0  0  1  0  0  0  0  0  0  0  0  0
   -5.9352    0.7459   -2.2661 C   0  0  1  0  0  0  0  0  0  0  0  0
   -5.6773    0.0419   -0.8837 C   0  0  2  0  0  0  0  0  0  0  0  0
   -5.1355    0.9984    0.2347 C   0  0  2  0  0  0  0  0  0  0  0  0
    0.2657    3.8597    2.8189 O   0  0  0  0  0  0  0  0  0  0  0  0
   -6.2127    1.7597    0.7713 O   0  0  0  0  0  0  0  0  0  0  0  0
   -7.1636    1.7338   -2.1459 C   0  0  0  0  0  0  0  0  0  0  0  0
   -4.3713    3.9611    1.3817 C   0  0  0  0  0  0  0  0  0  0  0  0
   -4.7717    1.8051   -4.1530 C   0  0  1  0  0  0  0  0  0  0  0  0
   -5.7151    0.7082   -4.7148 C   0  0  2  0  0  0  0  0  0  0  0  0
   -6.1433   -0.2036   -3.5120 C   0  0  1  0  0  0  0  0  0  0  0  0
   -5.2033   -1.2899   -3.4911 O   0  0  0  0  0  0  0  0  0  0  0  0
   -7.4917   -0.8612   -3.5989 C   0  0  0  0  0  0  0  0  0  0  0  0
   -7.7864   -1.7125   -2.7257 O   0  0  0  0  0  0  0  0  0  0  0  0
   -8.5301   -0.5445   -4.6081 C   0  0  2  0  0  0  0  0  0  0  0  0
   -8.0487   -0.9204   -5.9144 O   0  0  0  0  0  0  0  0  0  0  0  0
   -8.8744   -0.3206   -7.1436 P   0  0  1  0  0  0  0  0  0  0  0  0
   -8.5279    1.2186   -7.2880 O   0  0  0  0  0  0  0  0  0  0  0  0
   -8.3837   -1.0492   -8.4619 O   0  0  0  0  0  0  0  0  0  0  0  0
  -10.3189   -0.5077   -6.9759 O   0  0  0  0  0  0  0  0  0  0  0  0
   -3.6420    1.6989    2.7077 H   0  0  0  0  0  0  0  0  0  0  0  0
   -2.2661    1.1755    1.7505 H   0  0  0  0  0  0  0  0  0  0  0  0
   -1.3466    2.1018    3.7072 H   0  0  0  0  0  0  0  0  0  0  0  0
   -2.3765    3.5399    3.6542 H   0  0  0  0  0  0  0  0  0  0  0  0
   -0.3248    4.4823    0.5193 H   0  0  0  0  0  0  0  0  0  0  0  0
   -1.4438    4.7439   -1.4469 H   0  0  0  0  0  0  0  0  0  0  0  0
   -3.1017    5.0928   -0.9991 H   0  0  0  0  0  0  0  0  0  0  0  0
   -2.0385    2.5094   -2.2470 H   0  0  0  0  0  0  0  0  0  0  0  0
   -2.9946    3.7591   -3.0491 H   0  0  0  0  0  0  0  0  0  0  0  0
   -4.9107    3.3141   -1.5826 H   0  0  0  0  0  0  0  0  0  0  0  0
   -3.1162    1.1651   -0.3873 H   0  0  0  0  0  0  0  0  0  0  0  0
   -3.7892    0.6936   -2.6543 H   0  0  0  0  0  0  0  0  0  0  0  0
   -4.9379   -0.7548   -1.0042 H   0  0  0  0  0  0  0  0  0  0  0  0
   -6.5940   -0.4428   -0.5390 H   0  0  0  0  0  0  0  0  0  0  0  0
   -4.8032    0.3563    1.0565 H   0  0  0  0  0  0  0  0  0  0  0  0
   -6.8423    1.0970    1.1251 H   0  0  0  0  0  0  0  0  0  0  0  0
   -7.0099    2.5131   -1.4062 H   0  0  0  0  0  0  0  0  0  0  0  0
   -7.3694    2.2433   -3.0868 H   0  0  0  0  0  0  0  0  0  0  0  0
   -8.0661    1.1913   -1.8573 H   0  0  0  0  0  0  0  0  0  0  0  0
   -4.9373    4.3856    0.5506 H   0  0  0  0  0  0  0  0  0  0  0  0
   -3.8901    4.7840    1.9173 H   0  0  0  0  0  0  0  0  0  0  0  0
   -5.0826    3.5235    2.0827 H   0  0  0  0  0  0  0  0  0  0  0  0
   -5.2177    2.7980   -4.2598 H   0  0  0  0  0  0  0  0  0  0  0  0
   -3.8123    1.8001   -4.6777 H   0  0  0  0  0  0  0  0  0  0  0  0
   -5.2146    0.1244   -5.4933 H   0  0  0  0  0  0  0  0  0  0  0  0
   -6.5691    1.2077   -5.1753 H   0  0  0  0  0  0  0  0  0  0  0  0
   -5.4471   -1.8354   -2.7139 H   0  0  0  0  0  0  0  0  0  0  0  0
   -8.7664    0.5211   -4.5298 H   0  0  0  0  0  0  0  0  0  0  0  0
   -9.4470   -1.1049   -4.3937 H   0  0  0  0  0  0  0  0  0  0  0  0
   -7.5632    1.2428   -7.4622 H   0  0  0  0  0  0  0  0  0  0  0  0
   -8.6030   -1.9931   -8.3179 H   0  0  0  0  0  0  0  0  0  0  0  0
  1  2  1  0  0  0  0 
  2  3  1  0  0  0  0 
  3  4  1  0  0  0  0 
  4  5  2  0  0  0  0 
  6  5  1  0  0  0  0 
  6  1  1  0  0  0  0 
  5  7  1  0  0  0  0 
  7  8  1  0  0  0  0 
  9  8  1  0  0  0  0 
 10  9  1  0  0  0  0 
 10  6  1  0  0  0  0 
  9 11  1  0  0  0  0 
 11 12  1  0  0  0  0 
 12 13  1  0  0  0  0 
 14 13  1  0  0  0  0 
 10 14  1  0  0  0  0 
  3 15  2  0  0  0  0 
 14 16  1  0  0  0  0 
 12 17  1  0  0  0  0 
  6 18  1  0  0  0  0 
 11 19  1  0  0  0  0 
 19 20  1  0  0  0  0 
 21 20  1  0  0  0  0 
 12 21  1  0  0  0  0 
 21 22  1  0  0  0  0 
 21 23  1  0  0  0  0 
 23 24  2  0  0  0  0 
 23 25  1  0  0  0  0 
 25 26  1  0  0  0  0 
 26 27  1  0  0  0  0 
 27 28  1  0  0  0  0 
 27 29  1  0  0  0  0 
 27 30  2  0  0  0  0 
 31  1  1  0  0  0  0 
 32  1  1  0  0  0  0 
 33  2  1  0  0  0  0 
 34  2  1  0  0  0  0 
 35  4  1  0  0  0  0 
 36  7  1  0  0  0  0 
 37  7  1  0  0  0  0 
 38  8  1  0  0  0  0 
 39  8  1  0  0  0  0 
  9 40  1  0  0  0  0 
 10 41  1  0  0  0  0 
 11 42  1  0  0  0  0 
 43 13  1  0  0  0  0 
 44 13  1  0  0  0  0 
 14 45  1  0  0  0  0 
 46 16  1  0  0  0  0 
 47 17  1  0  0  0  0 
 48 17  1  0  0  0  0 
 49 17  1  0  0  0  0 
 50 18  1  0  0  0  0 
 51 18  1  0  0  0  0 
 52 18  1  0  0  0  0 
 53 19  1  0  0  0  0 
 54 19  1  0  0  0  0 
 55 20  1  0  0  0  0 
 56 20  1  0  0  0  0 
 57 22  1  0  0  0  0 
 58 25  1  0  0  0  0 
 59 25  1  0  0  0  0 
 60 28  1  0  0  0  0 
 61 29  1  0  0  0  0 
M  END
> <cdk:Title>
hydrocortisone phosphate

> <Conformer>
1

> <SuperDrugID>
SD003931

$$$$
