iodothiouracil
  CDK     0628171801

 12 12  0  0  0  0  0  0  0  0999 V2000
   -2.6587    2.3126    0.0000 O   0  0  0  0  0  0  0  0  0  0  0  0
   -2.0830    1.2021    0.0000 C   0  0  0  0  0  0  0  0  0  0  0  0
   -2.8180    0.0015    0.0000 C   0  0  0  0  0  0  0  0  0  0  0  0
   -0.7238    1.1575    0.0000 N   0  0  0  0  0  0  0  0  0  0  0  0
   -4.8719   -0.0133    0.0000 I   0  0  0  0  0  0  0  0  0  0  0  0
   -2.0832   -1.1969    0.0000 C   0  0  0  0  0  0  0  0  0  0  0  0
   -0.0655   -0.0006    0.0000 C   0  0  0  0  0  0  0  0  0  0  0  0
   -0.7248   -1.1563    0.0000 N   0  0  0  0  0  0  0  0  0  0  0  0
    1.6352   -0.0001    0.0000 S   0  0  0  0  0  0  0  0  0  0  0  0
   -0.2232    1.9887    0.0000 H   0  0  0  0  0  0  0  0  0  0  0  0
   -2.5626   -2.0989    0.0000 H   0  0  0  0  0  0  0  0  0  0  0  0
   -0.2262   -1.9887    0.0000 H   0  0  0  0  0  0  0  0  0  0  0  0
  1  2  2  0  0  0  0 
  2  3  1  0  0  0  0 
  2  4  1  0  0  0  0 
  3  5  1  0  0  0  0 
  3  6  2  0  0  0  0 
  4  7  1  0  0  0  0 
  6  8  1  0  0  0  0 
  7  8  1  0  0  0  0 
  7  9  2  0  0  0  0 
 10  4  1  0  0  0  0 
 11  6  1  0  0  0  0 
 12  8  1  0  0  0  0 
M  END
> <cdk:Title>
iodothiouracil

> <Conformer>
1

> <SuperDrugID>
SD001291

$$$$
