glycyrrhizic acid
  CDK     0628171801

120126  0  0  0  0  0  0  0  0999 V2000
   -1.5426   -1.0682   -2.7174 C   0  0  0  0  0  0  0  0  0  0  0  0
   -1.9826   -1.1377   -1.1947 C   0  0  1  0  0  0  0  0  0  0  0  0
   -0.7700   -1.3324   -0.1603 C   0  0  1  0  0  0  0  0  0  0  0  0
   -2.7350    0.2755   -0.8561 C   0  0  1  0  0  0  0  0  0  0  0  0
   -2.8498   -2.4475   -1.0274 C   0  0  2  0  0  0  0  0  0  0  0  0
    0.1469   -2.6399   -0.3399 C   0  0  2  0  0  0  0  0  0  0  0  0
   -0.0666   -0.0291    0.0738 C   0  0  0  0  0  0  0  0  0  0  0  0
   -3.2532    0.3167    0.6433 C   0  0  0  0  0  0  0  0  0  0  0  0
   -1.7037    1.3784   -1.0227 C   0  0  0  0  0  0  0  0  0  0  0  0
   -4.0483    0.5089   -1.7341 C   0  0  2  0  0  0  0  0  0  0  0  0
   -2.0685   -3.7900   -1.2031 C   0  0  1  0  0  0  0  0  0  0  0  0
    1.0482   -2.4900   -1.6288 C   0  0  0  0  0  0  0  0  0  0  0  0
   -0.7978   -3.9302   -0.2881 C   0  0  1  0  0  0  0  0  0  0  0  0
    1.1119   -2.8102    0.8980 C   0  0  2  0  0  0  0  0  0  0  0  0
    0.8303    0.0918    0.9416 O   0  0  0  0  0  0  0  0  0  0  0  0
   -0.4544    1.1378   -0.5458 C   0  0  0  0  0  0  0  0  0  0  0  0
   -1.8876    2.6345   -1.8331 C   0  0  1  0  0  0  0  0  0  0  0  0
   -3.9658    1.5732   -2.8523 C   0  0  1  0  0  0  0  0  0  0  0  0
   -0.0596   -5.3558   -0.3197 C   0  0  2  0  0  0  0  0  0  0  0  0
    1.8825   -4.1485    0.9711 C   0  0  2  0  0  0  0  0  0  0  0  0
   -3.3349    2.9281   -2.3940 C   0  0  2  0  0  0  0  0  0  0  0  0
   -1.2575    3.9823   -1.2846 C   0  0  2  0  0  0  0  0  0  0  0  0
    0.5871   -5.6958   -1.7138 C   0  0  0  0  0  0  0  0  0  0  0  0
   -1.0851   -6.5180   -0.0327 C   0  0  0  0  0  0  0  0  0  0  0  0
    1.0319   -5.4393    0.8313 C   0  0  2  0  0  0  0  0  0  0  0  0
   -3.3067    3.8213   -3.6956 C   0  0  0  0  0  0  0  0  0  0  0  0
   -4.2058    3.6618   -1.3056 C   0  0  2  0  0  0  0  0  0  0  0  0
   -2.0801    4.7920   -0.2189 C   0  0  2  0  0  0  0  0  0  0  0  0
    1.8821   -6.5984    0.5870 O   0  0  0  0  0  0  0  0  0  0  0  0
   -3.5595    4.9538   -0.7277 C   0  0  2  0  0  0  0  0  0  0  0  0
   -1.4227    6.1370   -0.0462 C   0  0  0  0  0  0  0  0  0  0  0  0
   -2.0472    4.0975    1.1845 C   0  0  0  0  0  0  0  0  0  0  0  0
    2.9847   -6.9136    1.4725 C   0  0  2  0  0  0  0  0  0  0  0  0
   -2.0795    7.3097   -0.2131 O   0  0  0  0  0  0  0  0  0  0  0  0
   -0.2153    6.2296    0.2777 O   0  0  0  0  0  0  0  0  0  0  0  0
    3.8722   -8.0180    0.8209 C   0  0  2  0  0  0  0  0  0  0  0  0
    2.5464   -7.2688    2.8022 O   0  0  0  0  0  0  0  0  0  0  0  0
    4.1183   -7.7761   -0.5879 O   0  0  0  0  0  0  0  0  0  0  0  0
    3.1825   -9.4079    0.9389 C   0  0  1  0  0  0  0  0  0  0  0  0
    1.8243   -8.5136    2.8938 C   0  0  1  0  0  0  0  0  0  0  0  0
    5.1592   -6.8421   -0.9582 C   0  0  2  0  0  0  0  0  0  0  0  0
    4.0771  -10.4362    0.5127 O   0  0  0  0  0  0  0  0  0  0  0  0
    2.7079   -9.6912    2.3898 C   0  0  1  0  0  0  0  0  0  0  0  0
    1.4064   -8.6930    4.2974 C   0  0  0  0  0  0  0  0  0  0  0  0
    4.7755   -5.4891   -0.6208 O   0  0  0  0  0  0  0  0  0  0  0  0
    5.3783   -6.9706   -2.4924 C   0  0  2  0  0  0  0  0  0  0  0  0
    1.9907  -10.9246    2.4427 O   0  0  0  0  0  0  0  0  0  0  0  0
    0.0980   -8.8370    4.6064 O   0  0  0  0  0  0  0  0  0  0  0  0
    2.2475   -8.7169    5.2245 O   0  0  0  0  0  0  0  0  0  0  0  0
    5.7206   -4.4612   -0.9980 C   0  0  2  0  0  0  0  0  0  0  0  0
    5.8976   -8.2639   -2.7982 O   0  0  0  0  0  0  0  0  0  0  0  0
    6.3471   -5.8765   -3.0222 C   0  0  2  0  0  0  0  0  0  0  0  0
    5.2323   -3.1778   -0.4468 C   0  0  0  0  0  0  0  0  0  0  0  0
    5.9105   -4.4662   -2.5446 C   0  0  2  0  0  0  0  0  0  0  0  0
    6.4115   -5.9192   -4.4480 O   0  0  0  0  0  0  0  0  0  0  0  0
    5.1249   -3.0330    0.8929 O   0  0  0  0  0  0  0  0  0  0  0  0
    4.9004   -2.2072   -1.1668 O   0  0  0  0  0  0  0  0  0  0  0  0
    6.8787   -3.4922   -2.9344 O   0  0  0  0  0  0  0  0  0  0  0  0
   -2.3841   -0.8437   -3.3638 H   0  0  0  0  0  0  0  0  0  0  0  0
   -0.7765   -0.3130   -2.8950 H   0  0  0  0  0  0  0  0  0  0  0  0
   -1.1682   -1.9998   -3.1125 H   0  0  0  0  0  0  0  0  0  0  0  0
   -1.2360   -1.4980    0.8157 H   0  0  0  0  0  0  0  0  0  0  0  0
   -3.6767   -2.4637   -1.7387 H   0  0  0  0  0  0  0  0  0  0  0  0
   -3.2967   -2.4738   -0.0321 H   0  0  0  0  0  0  0  0  0  0  0  0
   -3.8440    1.2081    0.8430 H   0  0  0  0  0  0  0  0  0  0  0  0
   -2.4541    0.3215    1.3827 H   0  0  0  0  0  0  0  0  0  0  0  0
   -3.9096   -0.5247    0.8619 H   0  0  0  0  0  0  0  0  0  0  0  0
   -4.9091    0.8052   -1.1285 H   0  0  0  0  0  0  0  0  0  0  0  0
   -4.3830   -0.4144   -2.2010 H   0  0  0  0  0  0  0  0  0  0  0  0
   -2.7835   -4.5779   -0.9543 H   0  0  0  0  0  0  0  0  0  0  0  0
   -1.8099   -3.9427   -2.2499 H   0  0  0  0  0  0  0  0  0  0  0  0
    1.1800   -1.4452   -1.9134 H   0  0  0  0  0  0  0  0  0  0  0  0
    2.0573   -2.8768   -1.5023 H   0  0  0  0  0  0  0  0  0  0  0  0
    0.6304   -3.0198   -2.4792 H   0  0  0  0  0  0  0  0  0  0  0  0
   -1.2495   -3.9086    0.7127 H   0  0  0  0  0  0  0  0  0  0  0  0
    0.5498   -2.7015    1.8308 H   0  0  0  0  0  0  0  0  0  0  0  0
    1.8814   -2.0362    0.8911 H   0  0  0  0  0  0  0  0  0  0  0  0
    0.2720    1.7994   -0.6605 H   0  0  0  0  0  0  0  0  0  0  0  0
   -1.2817    2.4058   -2.7195 H   0  0  0  0  0  0  0  0  0  0  0  0
   -3.3854    1.1655   -3.6840 H   0  0  0  0  0  0  0  0  0  0  0  0
   -4.9768    1.7436   -3.2367 H   0  0  0  0  0  0  0  0  0  0  0  0
    2.3824   -4.1641    1.9428 H   0  0  0  0  0  0  0  0  0  0  0  0
    2.6577   -4.1675    0.2108 H   0  0  0  0  0  0  0  0  0  0  0  0
   -1.1046    4.6358   -2.1492 H   0  0  0  0  0  0  0  0  0  0  0  0
   -0.2471    3.8368   -0.9027 H   0  0  0  0  0  0  0  0  0  0  0  0
    0.8321   -6.7593   -1.7939 H   0  0  0  0  0  0  0  0  0  0  0  0
    1.5180   -5.1582   -1.8694 H   0  0  0  0  0  0  0  0  0  0  0  0
   -0.0827   -5.4565   -2.5381 H   0  0  0  0  0  0  0  0  0  0  0  0
   -1.6711   -6.3132    0.8662 H   0  0  0  0  0  0  0  0  0  0  0  0
   -1.7775   -6.6635   -0.8651 H   0  0  0  0  0  0  0  0  0  0  0  0
   -0.5705   -7.4710    0.1216 H   0  0  0  0  0  0  0  0  0  0  0  0
    0.5225   -5.5807    1.7925 H   0  0  0  0  0  0  0  0  0  0  0  0
   -4.3176    3.9588   -4.0898 H   0  0  0  0  0  0  0  0  0  0  0  0
   -2.7033    3.3579   -4.4804 H   0  0  0  0  0  0  0  0  0  0  0  0
   -2.8979    4.8153   -3.5207 H   0  0  0  0  0  0  0  0  0  0  0  0
   -4.4165    3.0028   -0.4698 H   0  0  0  0  0  0  0  0  0  0  0  0
   -5.1782    3.9275   -1.7297 H   0  0  0  0  0  0  0  0  0  0  0  0
   -4.1899    5.3248    0.0861 H   0  0  0  0  0  0  0  0  0  0  0  0
   -3.6000    5.7146   -1.5099 H   0  0  0  0  0  0  0  0  0  0  0  0
   -0.9673    4.0440    1.5304 H   0  0  0  0  0  0  0  0  0  0  0  0
   -2.5357    4.8050    1.9262 H   0  0  0  0  0  0  0  0  0  0  0  0
   -2.5755    3.0643    1.0689 H   0  0  0  0  0  0  0  0  0  0  0  0
    3.6348   -6.0496    1.5978 H   0  0  0  0  0  0  0  0  0  0  0  0
   -1.6068    8.1572   -0.0782 H   0  0  0  0  0  0  0  0  0  0  0  0
    4.8202   -8.0737    1.3684 H   0  0  0  0  0  0  0  0  0  0  0  0
    2.3152   -9.4360    0.2718 H   0  0  0  0  0  0  0  0  0  0  0  0
    0.9212   -8.4512    2.2771 H   0  0  0  0  0  0  0  0  0  0  0  0
    6.0887   -7.1071   -0.4426 H   0  0  0  0  0  0  0  0  0  0  0  0
    4.8321  -10.3950    1.1372 H   0  0  0  0  0  0  0  0  0  0  0  0
    3.5869   -9.7901    3.0342 H   0  0  0  0  0  0  0  0  0  0  0  0
    4.4119   -6.8665   -2.9960 H   0  0  0  0  0  0  0  0  0  0  0  0
    1.2215  -10.8009    1.8480 H   0  0  0  0  0  0  0  0  0  0  0  0
   -0.1760   -8.9668    5.5372 H   0  0  0  0  0  0  0  0  0  0  0  0
    6.6868   -4.6603   -0.5218 H   0  0  0  0  0  0  0  0  0  0  0  0
    5.9690   -8.2821   -3.7763 H   0  0  0  0  0  0  0  0  0  0  0  0
    7.3544   -6.0800   -2.6473 H   0  0  0  0  0  0  0  0  0  0  0  0
    4.9629   -4.2079   -3.0273 H   0  0  0  0  0  0  0  0  0  0  0  0
    5.5004   -5.7290   -4.7574 H   0  0  0  0  0  0  0  0  0  0  0  0
    4.7778   -2.1981    1.2691 H   0  0  0  0  0  0  0  0  0  0  0  0
    7.7009   -3.7455   -2.4644 H   0  0  0  0  0  0  0  0  0  0  0  0
  2  1  1  0  0  0  0 
  2  3  1  0  0  0  0 
  2  4  1  0  0  0  0 
  2  5  1  0  0  0  0 
  3  6  1  0  0  0  0 
  3  7  1  0  0  0  0 
  4  8  1  0  0  0  0 
  4  9  1  0  0  0  0 
  4 10  1  0  0  0  0 
  5 11  1  0  0  0  0 
  6 12  1  0  0  0  0 
  6 13  1  0  0  0  0 
  6 14  1  0  0  0  0 
  7 15  2  0  0  0  0 
  7 16  1  0  0  0  0 
  9 16  2  0  0  0  0 
 17  9  1  0  0  0  0 
 10 18  1  0  0  0  0 
 13 11  1  0  0  0  0 
 13 19  1  0  0  0  0 
 14 20  1  0  0  0  0 
 17 21  1  0  0  0  0 
 17 22  1  0  0  0  0 
 21 18  1  0  0  0  0 
 19 23  1  0  0  0  0 
 19 24  1  0  0  0  0 
 25 19  1  0  0  0  0 
 25 20  1  0  0  0  0 
 21 26  1  0  0  0  0 
 21 27  1  0  0  0  0 
 28 22  1  0  0  0  0 
 25 29  1  0  0  0  0 
 27 30  1  0  0  0  0 
 28 30  1  0  0  0  0 
 28 31  1  0  0  0  0 
 28 32  1  0  0  0  0 
 33 29  1  0  0  0  0 
 31 34  1  0  0  0  0 
 31 35  2  0  0  0  0 
 36 33  1  0  0  0  0 
 33 37  1  0  0  0  0 
 36 38  1  0  0  0  0 
 36 39  1  0  0  0  0 
 40 37  1  0  0  0  0 
 41 38  1  0  0  0  0 
 39 42  1  0  0  0  0 
 39 43  1  0  0  0  0 
 43 40  1  0  0  0  0 
 40 44  1  0  0  0  0 
 41 45  1  0  0  0  0 
 46 41  1  0  0  0  0 
 43 47  1  0  0  0  0 
 44 48  1  0  0  0  0 
 44 49  2  0  0  0  0 
 50 45  1  0  0  0  0 
 46 51  1  0  0  0  0 
 46 52  1  0  0  0  0 
 50 53  1  0  0  0  0 
 54 50  1  0  0  0  0 
 52 54  1  0  0  0  0 
 52 55  1  0  0  0  0 
 53 56  1  0  0  0  0 
 53 57  2  0  0  0  0 
 54 58  1  0  0  0  0 
 59  1  1  0  0  0  0 
 60  1  1  0  0  0  0 
 61  1  1  0  0  0  0 
  3 62  1  0  0  0  0 
 63  5  1  0  0  0  0 
 64  5  1  0  0  0  0 
 65  8  1  0  0  0  0 
 66  8  1  0  0  0  0 
 67  8  1  0  0  0  0 
 68 10  1  0  0  0  0 
 69 10  1  0  0  0  0 
 70 11  1  0  0  0  0 
 71 11  1  0  0  0  0 
 72 12  1  0  0  0  0 
 73 12  1  0  0  0  0 
 74 12  1  0  0  0  0 
 13 75  1  0  0  0  0 
 76 14  1  0  0  0  0 
 77 14  1  0  0  0  0 
 78 16  1  0  0  0  0 
 17 79  1  0  0  0  0 
 80 18  1  0  0  0  0 
 81 18  1  0  0  0  0 
 82 20  1  0  0  0  0 
 83 20  1  0  0  0  0 
 84 22  1  0  0  0  0 
 85 22  1  0  0  0  0 
 86 23  1  0  0  0  0 
 87 23  1  0  0  0  0 
 88 23  1  0  0  0  0 
 89 24  1  0  0  0  0 
 90 24  1  0  0  0  0 
 91 24  1  0  0  0  0 
 25 92  1  0  0  0  0 
 93 26  1  0  0  0  0 
 94 26  1  0  0  0  0 
 95 26  1  0  0  0  0 
 96 27  1  0  0  0  0 
 97 27  1  0  0  0  0 
 98 30  1  0  0  0  0 
 99 30  1  0  0  0  0 
100 32  1  0  0  0  0 
101 32  1  0  0  0  0 
102 32  1  0  0  0  0 
 33103  1  0  0  0  0 
104 34  1  0  0  0  0 
 36105  1  0  0  0  0 
 39106  1  0  0  0  0 
 40107  1  0  0  0  0 
 41108  1  0  0  0  0 
109 42  1  0  0  0  0 
 43110  1  0  0  0  0 
 46111  1  0  0  0  0 
112 47  1  0  0  0  0 
113 48  1  0  0  0  0 
 50114  1  0  0  0  0 
115 51  1  0  0  0  0 
 52116  1  0  0  0  0 
 54117  1  0  0  0  0 
118 55  1  0  0  0  0 
119 56  1  0  0  0  0 
120 58  1  0  0  0  0 
M  END
> <cdk:Title>
glycyrrhizic acid

> <Conformer>
1

> <SuperDrugID>
SD001177

$$$$
