hydrocortisone succinate
  CDK     0628171801

 67 70  0  0  0  0  0  0  0  0999 V2000
   -3.4097   -1.2255   -0.6091 C   0  0  0  0  0  0  0  0  0  0  0  0
   -2.7534   -2.6550   -0.7649 C   0  0  2  0  0  0  0  0  0  0  0  0
   -3.7697   -3.8425   -0.7287 C   0  0  2  0  0  0  0  0  0  0  0  0
   -1.9041   -2.9952    0.5262 C   0  0  2  0  0  0  0  0  0  0  0  0
   -2.0165   -2.7432   -2.1506 C   0  0  2  0  0  0  0  0  0  0  0  0
   -4.8463   -3.8156   -1.8630 C   0  0  1  0  0  0  0  0  0  0  0  0
   -4.2339   -3.9023    0.7410 C   0  0  1  0  0  0  0  0  0  0  0  0
   -0.9977   -1.9020    1.0134 C   0  0  0  0  0  0  0  0  0  0  0  0
   -1.0657   -4.1386    0.2964 O   0  0  0  0  0  0  0  0  0  0  0  0
   -2.9915   -3.4645    1.5573 C   0  0  2  0  0  0  0  0  0  0  0  0
   -2.9833   -2.7697   -3.3867 C   0  0  1  0  0  0  0  0  0  0  0  0
   -4.1480   -3.8337   -3.2757 C   0  0  2  0  0  0  0  0  0  0  0  0
   -5.8030   -5.0388   -1.7430 C   0  0  1  0  0  0  0  0  0  0  0  0
    0.3047   -1.5899    0.3888 C   0  0  2  0  0  0  0  0  0  0  0  0
   -1.3371   -1.1586    1.9649 O   0  0  0  0  0  0  0  0  0  0  0  0
   -3.4541   -1.4514   -3.6489 O   0  0  0  0  0  0  0  0  0  0  0  0
   -5.1863   -3.9272   -4.4918 C   0  0  2  0  0  0  0  0  0  0  0  0
   -6.8100   -5.1071   -2.9105 C   0  0  2  0  0  0  0  0  0  0  0  0
    0.1741   -0.3843   -0.3682 O   0  0  0  0  0  0  0  0  0  0  0  0
   -6.0358   -2.6186   -4.6933 C   0  0  0  0  0  0  0  0  0  0  0  0
   -6.1576   -5.0384   -4.2278 C   0  0  0  0  0  0  0  0  0  0  0  0
   -4.3749   -4.2046   -5.8229 C   0  0  1  0  0  0  0  0  0  0  0  0
    1.0521    0.6598   -0.4369 C   0  0  0  0  0  0  0  0  0  0  0  0
   -6.4974   -5.9547   -5.1673 C   0  0  0  0  0  0  0  0  0  0  0  0
   -5.2297   -4.7922   -6.9735 C   0  0  1  0  0  0  0  0  0  0  0  0
    0.7102    1.8075   -1.3010 C   0  0  2  0  0  0  0  0  0  0  0  0
    2.1356    0.6424    0.1938 O   0  0  0  0  0  0  0  0  0  0  0  0
   -6.0479   -5.9149   -6.4753 C   0  0  0  0  0  0  0  0  0  0  0  0
    0.5122    1.2958   -2.7875 C   0  0  2  0  0  0  0  0  0  0  0  0
   -6.3843   -6.8235   -7.2720 O   0  0  0  0  0  0  0  0  0  0  0  0
   -0.0176    2.3609   -3.6535 C   0  0  0  0  0  0  0  0  0  0  0  0
   -1.2074    2.1947   -4.2792 O   0  0  0  0  0  0  0  0  0  0  0  0
    0.6247    3.4211   -3.8309 O   0  0  0  0  0  0  0  0  0  0  0  0
   -4.1989   -1.0419   -1.3329 H   0  0  0  0  0  0  0  0  0  0  0  0
   -3.8517   -1.0801    0.3770 H   0  0  0  0  0  0  0  0  0  0  0  0
   -2.6573   -0.4455   -0.7481 H   0  0  0  0  0  0  0  0  0  0  0  0
   -3.2148   -4.7790   -0.8911 H   0  0  0  0  0  0  0  0  0  0  0  0
   -1.4086   -3.6514   -2.1881 H   0  0  0  0  0  0  0  0  0  0  0  0
   -1.3229   -1.9057   -2.2548 H   0  0  0  0  0  0  0  0  0  0  0  0
   -5.4480   -2.9128   -1.7555 H   0  0  0  0  0  0  0  0  0  0  0  0
   -5.0710   -3.2187    0.9042 H   0  0  0  0  0  0  0  0  0  0  0  0
   -4.5508   -4.9130    1.0117 H   0  0  0  0  0  0  0  0  0  0  0  0
   -0.6392   -4.3254    1.1601 H   0  0  0  0  0  0  0  0  0  0  0  0
   -3.2880   -2.6646    2.2399 H   0  0  0  0  0  0  0  0  0  0  0  0
   -2.6265   -4.2941    2.1702 H   0  0  0  0  0  0  0  0  0  0  0  0
   -2.3691   -3.0321   -4.2532 H   0  0  0  0  0  0  0  0  0  0  0  0
   -3.6110   -4.7902   -3.2943 H   0  0  0  0  0  0  0  0  0  0  0  0
   -5.2241   -5.9683   -1.7262 H   0  0  0  0  0  0  0  0  0  0  0  0
   -6.3652   -4.9792   -0.8072 H   0  0  0  0  0  0  0  0  0  0  0  0
    0.6288   -2.3776   -0.2935 H   0  0  0  0  0  0  0  0  0  0  0  0
    1.0621   -1.4941    1.1709 H   0  0  0  0  0  0  0  0  0  0  0  0
   -2.6455   -0.9144   -3.7856 H   0  0  0  0  0  0  0  0  0  0  0  0
   -7.5103   -4.2728   -2.8252 H   0  0  0  0  0  0  0  0  0  0  0  0
   -7.4000   -6.0197   -2.7740 H   0  0  0  0  0  0  0  0  0  0  0  0
   -5.4435   -1.8096   -5.1181 H   0  0  0  0  0  0  0  0  0  0  0  0
   -6.4616   -2.2613   -3.7563 H   0  0  0  0  0  0  0  0  0  0  0  0
   -6.8671   -2.7904   -5.3818 H   0  0  0  0  0  0  0  0  0  0  0  0
   -3.8846   -3.2958   -6.1827 H   0  0  0  0  0  0  0  0  0  0  0  0
   -3.5838   -4.9350   -5.6270 H   0  0  0  0  0  0  0  0  0  0  0  0
   -7.1227   -6.6940   -4.9337 H   0  0  0  0  0  0  0  0  0  0  0  0
   -5.8921   -4.0288   -7.3894 H   0  0  0  0  0  0  0  0  0  0  0  0
   -4.5688   -5.1366   -7.7756 H   0  0  0  0  0  0  0  0  0  0  0  0
    1.6219    2.4855   -1.3414 H   0  0  0  0  0  0  0  0  0  0  0  0
   -0.2341    2.2659   -0.7987 H   0  0  0  0  0  0  0  0  0  0  0  0
   -0.1950    0.4616   -2.8010 H   0  0  0  0  0  0  0  0  0  0  0  0
    1.4626    0.9406   -3.1964 H   0  0  0  0  0  0  0  0  0  0  0  0
   -1.5575    2.8893   -4.8740 H   0  0  0  0  0  0  0  0  0  0  0  0
  2  1  1  0  0  0  0 
  3  2  1  0  0  0  0 
  2  4  1  0  0  0  0 
  2  5  1  0  0  0  0 
  6  3  1  0  0  0  0 
  3  7  1  0  0  0  0 
  4  8  1  0  0  0  0 
  4  9  1  0  0  0  0 
  4 10  1  0  0  0  0 
 11  5  1  0  0  0  0 
 12  6  1  0  0  0  0 
  6 13  1  0  0  0  0 
  7 10  1  0  0  0  0 
  8 14  1  0  0  0  0 
  8 15  2  0  0  0  0 
 12 11  1  0  0  0  0 
 11 16  1  0  0  0  0 
 12 17  1  0  0  0  0 
 13 18  1  0  0  0  0 
 14 19  1  0  0  0  0 
 17 20  1  0  0  0  0 
 17 21  1  0  0  0  0 
 17 22  1  0  0  0  0 
 18 21  1  0  0  0  0 
 19 23  1  0  0  0  0 
 21 24  2  0  0  0  0 
 22 25  1  0  0  0  0 
 23 26  1  0  0  0  0 
 23 27  2  0  0  0  0 
 24 28  1  0  0  0  0 
 25 28  1  0  0  0  0 
 26 29  1  0  0  0  0 
 28 30  2  0  0  0  0 
 29 31  1  0  0  0  0 
 31 32  1  0  0  0  0 
 31 33  2  0  0  0  0 
 34  1  1  0  0  0  0 
 35  1  1  0  0  0  0 
 36  1  1  0  0  0  0 
  3 37  1  0  0  0  0 
 38  5  1  0  0  0  0 
 39  5  1  0  0  0  0 
  6 40  1  0  0  0  0 
 41  7  1  0  0  0  0 
 42  7  1  0  0  0  0 
 43  9  1  0  0  0  0 
 44 10  1  0  0  0  0 
 45 10  1  0  0  0  0 
 11 46  1  0  0  0  0 
 12 47  1  0  0  0  0 
 48 13  1  0  0  0  0 
 49 13  1  0  0  0  0 
 50 14  1  0  0  0  0 
 51 14  1  0  0  0  0 
 52 16  1  0  0  0  0 
 53 18  1  0  0  0  0 
 54 18  1  0  0  0  0 
 55 20  1  0  0  0  0 
 56 20  1  0  0  0  0 
 57 20  1  0  0  0  0 
 58 22  1  0  0  0  0 
 59 22  1  0  0  0  0 
 60 24  1  0  0  0  0 
 61 25  1  0  0  0  0 
 62 25  1  0  0  0  0 
 63 26  1  0  0  0  0 
 64 26  1  0  0  0  0 
 65 29  1  0  0  0  0 
 66 29  1  0  0  0  0 
 67 32  1  0  0  0  0 
M  END
> <cdk:Title>
hydrocortisone succinate

> <Conformer>
1

> <SuperDrugID>
SD003575

$$$$
