plerixafor
  CDK     0628171801

 90 92  0  0  0  0  0  0  0  0999 V2000
    0.1956    0.3533   10.8106 C   0  0  2  0  0  0  0  0  0  0  0  0
    0.6445    0.9483    9.5245 C   0  0  0  0  0  0  0  0  0  0  0  0
    0.8708    0.8974   12.0400 N   0  0  1  0  0  0  0  0  0  0  0  0
   -0.2129    1.7947    8.7859 C   0  0  0  0  0  0  0  0  0  0  0  0
    1.9377    0.6879    9.0151 C   0  0  0  0  0  0  0  0  0  0  0  0
    0.6851    2.3861   12.2315 C   0  0  2  0  0  0  0  0  0  0  0  0
    0.5743    0.0638   13.2659 C   0  0  2  0  0  0  0  0  0  0  0  0
    0.1914    2.3241    7.5491 C   0  0  0  0  0  0  0  0  0  0  0  0
    2.3324    1.2001    7.7648 C   0  0  0  0  0  0  0  0  0  0  0  0
    1.7637    3.2318   11.4953 C   0  0  1  0  0  0  0  0  0  0  0  0
    1.8093   -0.2453   14.1539 C   0  0  1  0  0  0  0  0  0  0  0  0
    1.4527    1.9993    6.9998 C   0  0  0  0  0  0  0  0  0  0  0  0
    1.8628    4.7105   11.9413 C   0  0  1  0  0  0  0  0  0  0  0  0
    2.3070    0.9171   14.9273 N   0  0  1  0  0  0  0  0  0  0  0  0
    1.8135    2.4350    5.6235 C   0  0  1  0  0  0  0  0  0  0  0  0
    3.1148    5.2902   11.3981 N   0  0  2  0  0  0  0  0  0  0  0  0
    3.5661    1.5434   14.4557 C   0  0  1  0  0  0  0  0  0  0  0  0
    1.6930    1.3224    4.6173 N   0  0  2  0  0  0  0  0  0  0  0  0
    3.6200    6.5105   12.0699 C   0  0  2  0  0  0  0  0  0  0  0  0
    3.6402    3.0288   14.9037 C   0  0  2  0  0  0  0  0  0  0  0  0
    2.3372    1.6261    3.2942 C   0  0  1  0  0  0  0  0  0  0  0  0
    0.3298    0.6747    4.5190 C   0  0  2  0  0  0  0  0  0  0  0  0
    4.7386    6.2285   13.1121 C   0  0  1  0  0  0  0  0  0  0  0  0
    4.6218    3.8852   14.0595 C   0  0  2  0  0  0  0  0  0  0  0  0
    3.8942    1.6757    3.3500 C   0  0  2  0  0  0  0  0  0  0  0  0
    0.2216   -0.6512    5.3237 C   0  0  2  0  0  0  0  0  0  0  0  0
    4.3497    5.3351   14.2337 N   0  0  2  0  0  0  0  0  0  0  0  0
    4.6050    0.9700    2.0462 C   0  0  2  0  0  0  0  0  0  0  0  0
    1.0759   -1.7375    4.7864 N   0  0  1  0  0  0  0  0  0  0  0  0
    6.1135    0.8714    2.1135 N   0  0  2  0  0  0  0  0  0  0  0  0
    2.5059   -1.7557    5.1843 C   0  0  1  0  0  0  0  0  0  0  0  0
    6.7626   -0.3606    1.5977 C   0  0  2  0  0  0  0  0  0  0  0  0
    3.3426   -2.2427    3.9781 C   0  0  2  0  0  0  0  0  0  0  0  0
    6.8348   -1.5170    2.6294 C   0  0  2  0  0  0  0  0  0  0  0  0
    4.8689   -2.0359    4.1389 C   0  0  2  0  0  0  0  0  0  0  0  0
    5.5205   -2.1800    2.8149 N   0  0  2  0  0  0  0  0  0  0  0  0
    0.3846   -0.7213   10.7257 H   0  0  0  0  0  0  0  0  0  0  0  0
   -0.8869    0.4662   10.9308 H   0  0  0  0  0  0  0  0  0  0  0  0
   -1.1389    2.0352    9.1491 H   0  0  0  0  0  0  0  0  0  0  0  0
    2.5955    0.1137    9.5463 H   0  0  0  0  0  0  0  0  0  0  0  0
    0.7431    2.6362   13.2913 H   0  0  0  0  0  0  0  0  0  0  0  0
   -0.3063    2.7033   11.8956 H   0  0  0  0  0  0  0  0  0  0  0  0
    0.1801   -0.9183   12.9872 H   0  0  0  0  0  0  0  0  0  0  0  0
   -0.2073    0.5278   13.8736 H   0  0  0  0  0  0  0  0  0  0  0  0
   -0.4538    2.9289    7.0379 H   0  0  0  0  0  0  0  0  0  0  0  0
    3.2656    0.9767    7.4100 H   0  0  0  0  0  0  0  0  0  0  0  0
    2.7293    2.7530   11.6473 H   0  0  0  0  0  0  0  0  0  0  0  0
    1.5739    3.2414   10.4246 H   0  0  0  0  0  0  0  0  0  0  0  0
    1.5019   -0.9834   14.8977 H   0  0  0  0  0  0  0  0  0  0  0  0
    2.5947   -0.7099   13.5517 H   0  0  0  0  0  0  0  0  0  0  0  0
    1.0079    5.2721   11.5577 H   0  0  0  0  0  0  0  0  0  0  0  0
    1.8496    4.7707   13.0284 H   0  0  0  0  0  0  0  0  0  0  0  0
    1.5723    1.6254   14.9145 H   0  0  0  0  0  0  0  0  0  0  0  0
    1.1707    3.2585    5.3039 H   0  0  0  0  0  0  0  0  0  0  0  0
    2.8333    2.8336    5.6549 H   0  0  0  0  0  0  0  0  0  0  0  0
    2.9271    5.5234   10.4198 H   0  0  0  0  0  0  0  0  0  0  0  0
    4.4131    0.9908   14.8716 H   0  0  0  0  0  0  0  0  0  0  0  0
    3.6311    1.4794   13.3683 H   0  0  0  0  0  0  0  0  0  0  0  0
    2.8074    7.0771   12.5351 H   0  0  0  0  0  0  0  0  0  0  0  0
    4.0481    7.1475   11.2908 H   0  0  0  0  0  0  0  0  0  0  0  0
    3.9275    3.0753   15.9572 H   0  0  0  0  0  0  0  0  0  0  0  0
    2.6431    3.4642   14.8236 H   0  0  0  0  0  0  0  0  0  0  0  0
    2.0611    0.8532    2.5732 H   0  0  0  0  0  0  0  0  0  0  0  0
    1.9516    2.5734    2.9063 H   0  0  0  0  0  0  0  0  0  0  0  0
    0.0634    0.4298    3.4856 H   0  0  0  0  0  0  0  0  0  0  0  0
   -0.4545    1.3565    4.8611 H   0  0  0  0  0  0  0  0  0  0  0  0
    5.6330    5.8534   12.6056 H   0  0  0  0  0  0  0  0  0  0  0  0
    5.0071    7.1850   13.5648 H   0  0  0  0  0  0  0  0  0  0  0  0
    4.5368    3.6101   13.0076 H   0  0  0  0  0  0  0  0  0  0  0  0
    5.6464    3.6789   14.3746 H   0  0  0  0  0  0  0  0  0  0  0  0
    4.2486    1.1576    4.2432 H   0  0  0  0  0  0  0  0  0  0  0  0
    4.2313    2.7152    3.4086 H   0  0  0  0  0  0  0  0  0  0  0  0
   -0.8118   -0.9976    5.2384 H   0  0  0  0  0  0  0  0  0  0  0  0
    0.4149   -0.5020    6.3870 H   0  0  0  0  0  0  0  0  0  0  0  0
    3.3507    5.4676   14.4005 H   0  0  0  0  0  0  0  0  0  0  0  0
    4.4245    1.5120    1.0820 H   0  0  0  0  0  0  0  0  0  0  0  0
    4.2134   -0.0571    1.8268 H   0  0  0  0  0  0  0  0  0  0  0  0
    0.6808   -2.6266    5.1062 H   0  0  0  0  0  0  0  0  0  0  0  0
    6.4057    0.9961    3.0856 H   0  0  0  0  0  0  0  0  0  0  0  0
    2.8574   -0.7699    5.4867 H   0  0  0  0  0  0  0  0  0  0  0  0
    2.6408   -2.4305    6.0318 H   0  0  0  0  0  0  0  0  0  0  0  0
    7.7861   -0.0856    1.3355 H   0  0  0  0  0  0  0  0  0  0  0  0
    6.2749   -0.6955    0.6781 H   0  0  0  0  0  0  0  0  0  0  0  0
    3.0074   -1.6879    3.0999 H   0  0  0  0  0  0  0  0  0  0  0  0
    3.1381   -3.3009    3.7944 H   0  0  0  0  0  0  0  0  0  0  0  0
    7.2588   -1.1444    3.5675 H   0  0  0  0  0  0  0  0  0  0  0  0
    7.5194   -2.2766    2.2467 H   0  0  0  0  0  0  0  0  0  0  0  0
    5.2708   -2.7726    4.8372 H   0  0  0  0  0  0  0  0  0  0  0  0
    5.0606   -1.0432    4.5451 H   0  0  0  0  0  0  0  0  0  0  0  0
    5.6369   -3.1810    2.6375 H   0  0  0  0  0  0  0  0  0  0  0  0
  1  2  1  0  0  0  0 
  1  3  1  0  0  0  0 
  2  4  2  0  0  0  0 
  2  5  1  0  0  0  0 
  3  6  1  0  0  0  0 
  3  7  1  0  0  0  0 
  4  8  1  0  0  0  0 
  5  9  2  0  0  0  0 
  6 10  1  0  0  0  0 
  7 11  1  0  0  0  0 
  8 12  2  0  0  0  0 
  9 12  1  0  0  0  0 
 10 13  1  0  0  0  0 
 11 14  1  0  0  0  0 
 12 15  1  0  0  0  0 
 13 16  1  0  0  0  0 
 14 17  1  0  0  0  0 
 15 18  1  0  0  0  0 
 16 19  1  0  0  0  0 
 17 20  1  0  0  0  0 
 18 21  1  0  0  0  0 
 18 22  1  0  0  0  0 
 19 23  1  0  0  0  0 
 20 24  1  0  0  0  0 
 21 25  1  0  0  0  0 
 22 26  1  0  0  0  0 
 23 27  1  0  0  0  0 
 24 27  1  0  0  0  0 
 25 28  1  0  0  0  0 
 26 29  1  0  0  0  0 
 28 30  1  0  0  0  0 
 29 31  1  0  0  0  0 
 30 32  1  0  0  0  0 
 31 33  1  0  0  0  0 
 32 34  1  0  0  0  0 
 33 35  1  0  0  0  0 
 34 36  1  0  0  0  0 
 35 36  1  0  0  0  0 
  1 37  1  0  0  0  0 
  1 38  1  0  0  0  0 
  4 39  1  0  0  0  0 
  5 40  1  0  0  0  0 
  6 41  1  0  0  0  0 
  6 42  1  0  0  0  0 
  7 43  1  0  0  0  0 
  7 44  1  0  0  0  0 
  8 45  1  0  0  0  0 
  9 46  1  0  0  0  0 
 10 47  1  0  0  0  0 
 10 48  1  0  0  0  0 
 11 49  1  0  0  0  0 
 11 50  1  0  0  0  0 
 13 51  1  0  0  0  0 
 13 52  1  0  0  0  0 
 14 53  1  0  0  0  0 
 15 54  1  0  0  0  0 
 15 55  1  0  0  0  0 
 16 56  1  0  0  0  0 
 17 57  1  0  0  0  0 
 17 58  1  0  0  0  0 
 19 59  1  0  0  0  0 
 19 60  1  0  0  0  0 
 20 61  1  0  0  0  0 
 20 62  1  0  0  0  0 
 21 63  1  0  0  0  0 
 21 64  1  0  0  0  0 
 22 65  1  0  0  0  0 
 22 66  1  0  0  0  0 
 23 67  1  0  0  0  0 
 23 68  1  0  0  0  0 
 24 69  1  0  0  0  0 
 24 70  1  0  0  0  0 
 25 71  1  0  0  0  0 
 25 72  1  0  0  0  0 
 26 73  1  0  0  0  0 
 26 74  1  0  0  0  0 
 27 75  1  0  0  0  0 
 28 76  1  0  0  0  0 
 28 77  1  0  0  0  0 
 29 78  1  0  0  0  0 
 30 79  1  0  0  0  0 
 31 80  1  0  0  0  0 
 31 81  1  0  0  0  0 
 32 82  1  0  0  0  0 
 32 83  1  0  0  0  0 
 33 84  1  0  0  0  0 
 33 85  1  0  0  0  0 
 34 86  1  0  0  0  0 
 34 87  1  0  0  0  0 
 35 88  1  0  0  0  0 
 35 89  1  0  0  0  0 
 36 90  1  0  0  0  0 
M  END
> <cdk:Title>
plerixafor

> <Conformer>
1

> <SuperDrugID>
SD003550

$$$$
