alloclamide
  CDK     0628171801

 44 44  0  0  0  0  0  0  0  0999 V2000
   -1.5108    1.2741   -0.3888 C   0  0  0  0  0  0  0  0  0  0  0  0
   -0.4911    1.5761    0.4722 N   0  0  0  0  0  0  0  0  0  0  0  0
   -1.3228    0.3751   -1.2455 O   0  0  0  0  0  0  0  0  0  0  0  0
   -2.7648    1.9556   -0.3624 C   0  0  0  0  0  0  0  0  0  0  0  0
    0.7826    0.9218    0.4521 C   0  0  2  0  0  0  0  0  0  0  0  0
   -3.9522    1.3466   -0.8598 C   0  0  0  0  0  0  0  0  0  0  0  0
   -2.8621    3.2793    0.1376 C   0  0  0  0  0  0  0  0  0  0  0  0
    1.7926    1.5184    1.4706 C   0  0  2  0  0  0  0  0  0  0  0  0
   -3.9592    0.0571   -1.3205 O   0  0  0  0  0  0  0  0  0  0  0  0
   -5.1647    2.0649   -0.9088 C   0  0  0  0  0  0  0  0  0  0  0  0
   -4.0852    3.9780    0.1246 C   0  0  0  0  0  0  0  0  0  0  0  0
    3.1828    0.9348    1.4086 N   0  0  1  0  0  0  0  0  0  0  0  0
   -4.3195   -0.9162   -0.3157 C   0  0  1  0  0  0  0  0  0  0  0  0
   -5.2372    3.3763   -0.4101 C   0  0  0  0  0  0  0  0  0  0  0  0
    3.2397   -0.4949    1.8733 C   0  0  1  0  0  0  0  0  0  0  0  0
    3.9391    1.1936    0.1350 C   0  0  1  0  0  0  0  0  0  0  0  0
   -4.0521   -2.2397   -0.8421 C   0  0  0  0  0  0  0  0  0  0  0  0
   -6.7069    4.2180   -0.4516 Cl  0  0  0  0  0  0  0  0  0  0  0  0
    4.6500   -1.0625    2.1646 C   0  0  0  0  0  0  0  0  0  0  0  0
    4.0295    2.6805   -0.2737 C   0  0  0  0  0  0  0  0  0  0  0  0
   -4.6958   -2.7501   -1.8990 C   0  0  0  0  0  0  0  0  0  0  0  0
   -0.6406    2.2613    1.1403 H   0  0  0  0  0  0  0  0  0  0  0  0
    1.1963    1.0045   -0.5554 H   0  0  0  0  0  0  0  0  0  0  0  0
    0.6305   -0.1364    0.6781 H   0  0  0  0  0  0  0  0  0  0  0  0
   -2.0373    3.7595    0.5075 H   0  0  0  0  0  0  0  0  0  0  0  0
    1.3930    1.3804    2.4774 H   0  0  0  0  0  0  0  0  0  0  0  0
    1.8436    2.5999    1.3292 H   0  0  0  0  0  0  0  0  0  0  0  0
   -5.9969    1.6229   -1.3082 H   0  0  0  0  0  0  0  0  0  0  0  0
   -4.1313    4.9275    0.5023 H   0  0  0  0  0  0  0  0  0  0  0  0
   -3.7333   -0.7809    0.6017 H   0  0  0  0  0  0  0  0  0  0  0  0
   -5.3805   -0.8280   -0.0568 H   0  0  0  0  0  0  0  0  0  0  0  0
    2.6795   -0.5822    2.8089 H   0  0  0  0  0  0  0  0  0  0  0  0
    2.7631   -1.1481    1.1373 H   0  0  0  0  0  0  0  0  0  0  0  0
    4.9706    0.8608    0.2557 H   0  0  0  0  0  0  0  0  0  0  0  0
    3.5144    0.6193   -0.6929 H   0  0  0  0  0  0  0  0  0  0  0  0
   -3.3454   -2.7909   -0.4086 H   0  0  0  0  0  0  0  0  0  0  0  0
    5.1899   -1.2717    1.2392 H   0  0  0  0  0  0  0  0  0  0  0  0
    5.2304   -0.3607    2.7661 H   0  0  0  0  0  0  0  0  0  0  0  0
    4.5576   -1.9986    2.7173 H   0  0  0  0  0  0  0  0  0  0  0  0
    4.8263    2.8193   -1.0061 H   0  0  0  0  0  0  0  0  0  0  0  0
    4.2492    3.2943    0.5999 H   0  0  0  0  0  0  0  0  0  0  0  0
    3.0903    3.0143   -0.7180 H   0  0  0  0  0  0  0  0  0  0  0  0
   -5.4043   -2.2345   -2.3663 H   0  0  0  0  0  0  0  0  0  0  0  0
   -4.4684   -3.6588   -2.2299 H   0  0  0  0  0  0  0  0  0  0  0  0
  1  2  1  0  0  0  0 
  1  3  2  0  0  0  0 
  1  4  1  0  0  0  0 
  2  5  1  0  0  0  0 
  4  6  2  0  0  0  0 
  4  7  1  0  0  0  0 
  5  8  1  0  0  0  0 
  6  9  1  0  0  0  0 
  6 10  1  0  0  0  0 
  7 11  2  0  0  0  0 
  8 12  1  0  0  0  0 
  9 13  1  0  0  0  0 
 10 14  2  0  0  0  0 
 11 14  1  0  0  0  0 
 12 15  1  0  0  0  0 
 12 16  1  0  0  0  0 
 13 17  1  0  0  0  0 
 14 18  1  0  0  0  0 
 15 19  1  0  0  0  0 
 16 20  1  0  0  0  0 
 17 21  2  0  0  0  0 
  2 22  1  0  0  0  0 
  5 23  1  0  0  0  0 
  5 24  1  0  0  0  0 
  7 25  1  0  0  0  0 
  8 26  1  0  0  0  0 
  8 27  1  0  0  0  0 
 10 28  1  0  0  0  0 
 11 29  1  0  0  0  0 
 13 30  1  0  0  0  0 
 13 31  1  0  0  0  0 
 15 32  1  0  0  0  0 
 15 33  1  0  0  0  0 
 16 34  1  0  0  0  0 
 16 35  1  0  0  0  0 
 17 36  1  0  0  0  0 
 19 37  1  0  0  0  0 
 19 38  1  0  0  0  0 
 19 39  1  0  0  0  0 
 20 40  1  0  0  0  0 
 20 41  1  0  0  0  0 
 20 42  1  0  0  0  0 
 21 43  1  0  0  0  0 
 21 44  1  0  0  0  0 
M  END
> <cdk:Title>
alloclamide

> <Conformer>
1

> <SuperDrugID>
SD000093

$$$$
