hidrosmin
  CDK     0628171801

 82 86  0  0  0  0  0  0  0  0999 V2000
    5.3231   -8.5231   -4.8153 O   0  0  0  0  0  0  0  0  0  0  0  0
    6.5005   -7.6954   -4.7006 C   0  0  1  0  0  0  0  0  0  0  0  0
    4.1715   -7.8418   -4.5130 C   0  0  0  0  0  0  0  0  0  0  0  0
    7.7601   -8.5584   -4.9059 C   0  0  1  0  0  0  0  0  0  0  0  0
    3.6115   -7.8457   -3.2063 C   0  0  0  0  0  0  0  0  0  0  0  0
    3.5345   -7.1306   -5.5510 C   0  0  0  0  0  0  0  0  0  0  0  0
    7.8138   -9.6198   -3.9575 O   0  0  0  0  0  0  0  0  0  0  0  0
    2.4332   -7.0871   -2.9653 C   0  0  0  0  0  0  0  0  0  0  0  0
    4.1517   -8.5713   -2.1150 C   0  0  0  0  0  0  0  0  0  0  0  0
    2.3693   -6.3810   -5.3036 C   0  0  0  0  0  0  0  0  0  0  0  0
    1.8860   -7.0558   -1.7127 O   0  0  0  0  0  0  0  0  0  0  0  0
    1.8168   -6.3706   -4.0070 C   0  0  0  0  0  0  0  0  0  0  0  0
    5.1759   -9.2853   -2.2303 O   0  0  0  0  0  0  0  0  0  0  0  0
    3.5489   -8.5257   -0.8462 C   0  0  0  0  0  0  0  0  0  0  0  0
    1.7724   -5.6822   -6.3215 O   0  0  0  0  0  0  0  0  0  0  0  0
    2.3943   -7.7442   -0.6473 C   0  0  0  0  0  0  0  0  0  0  0  0
    2.3078   -4.3525   -6.4998 C   0  0  2  0  0  0  0  0  0  0  0  0
    1.7604   -7.6564    0.6146 C   0  0  0  0  0  0  0  0  0  0  0  0
    2.0220   -3.5669   -5.3204 O   0  0  0  0  0  0  0  0  0  0  0  0
    1.6422   -3.7027   -7.7447 C   0  0  2  0  0  0  0  0  0  0  0  0
    1.4012   -8.8238    1.3306 C   0  0  0  0  0  0  0  0  0  0  0  0
    1.4822   -6.3963    1.1922 C   0  0  0  0  0  0  0  0  0  0  0  0
    2.5003   -2.2069   -5.3621 C   0  0  2  0  0  0  0  0  0  0  0  0
    2.0078   -4.4267   -8.9187 O   0  0  0  0  0  0  0  0  0  0  0  0
    2.0720   -2.2163   -7.8807 C   0  0  2  0  0  0  0  0  0  0  0  0
    0.7825   -8.7364    2.5919 C   0  0  0  0  0  0  0  0  0  0  0  0
    0.8755   -6.3075    2.4585 C   0  0  0  0  0  0  0  0  0  0  0  0
    2.1666   -1.5690   -3.9942 C   0  0  1  0  0  0  0  0  0  0  0  0
    1.8449   -1.4459   -6.5525 C   0  0  2  0  0  0  0  0  0  0  0  0
    1.3504   -1.5843   -8.9377 O   0  0  0  0  0  0  0  0  0  0  0  0
    0.4487   -9.8750    3.2492 O   0  0  0  0  0  0  0  0  0  0  0  0
    0.5098   -7.4750    3.1615 C   0  0  0  0  0  0  0  0  0  0  0  0
    2.9162   -2.2313   -2.9558 O   0  0  0  0  0  0  0  0  0  0  0  0
    2.3810   -0.1279   -6.6612 O   0  0  0  0  0  0  0  0  0  0  0  0
   -0.0676   -7.3823    4.4010 O   0  0  0  0  0  0  0  0  0  0  0  0
    2.6528   -1.7563   -1.6197 C   0  0  1  0  0  0  0  0  0  0  0  0
   -1.4772   -7.1022    4.3469 C   0  0  0  0  0  0  0  0  0  0  0  0
    3.5212   -2.5717   -0.6269 C   0  0  2  0  0  0  0  0  0  0  0  0
    2.9866   -0.3505   -1.5151 O   0  0  0  0  0  0  0  0  0  0  0  0
    3.2409   -3.9654   -0.7400 O   0  0  0  0  0  0  0  0  0  0  0  0
    3.2979   -2.0649    0.8241 C   0  0  2  0  0  0  0  0  0  0  0  0
    2.8056    0.2614   -0.2178 C   0  0  2  0  0  0  0  0  0  0  0  0
    1.9857   -2.4141    1.2676 O   0  0  0  0  0  0  0  0  0  0  0  0
    3.5457   -0.5307    0.9067 C   0  0  2  0  0  0  0  0  0  0  0  0
    1.3200    0.5675    0.0966 C   0  0  0  0  0  0  0  0  0  0  0  0
    4.9517   -0.2962    0.7946 O   0  0  0  0  0  0  0  0  0  0  0  0
    6.4917   -6.9065   -5.4608 H   0  0  0  0  0  0  0  0  0  0  0  0
    6.5593   -7.2285   -3.7114 H   0  0  0  0  0  0  0  0  0  0  0  0
    7.7587   -8.9820   -5.9127 H   0  0  0  0  0  0  0  0  0  0  0  0
    8.6503   -7.9373   -4.7846 H   0  0  0  0  0  0  0  0  0  0  0  0
    3.9300   -7.1510   -6.4935 H   0  0  0  0  0  0  0  0  0  0  0  0
    8.6412  -10.1021   -4.1695 H   0  0  0  0  0  0  0  0  0  0  0  0
    0.9633   -5.8397   -3.8193 H   0  0  0  0  0  0  0  0  0  0  0  0
    3.9580   -9.0494   -0.0679 H   0  0  0  0  0  0  0  0  0  0  0  0
    3.3924   -4.4064   -6.6661 H   0  0  0  0  0  0  0  0  0  0  0  0
    0.5548   -3.7518   -7.6334 H   0  0  0  0  0  0  0  0  0  0  0  0
    1.5814   -9.7513    0.9370 H   0  0  0  0  0  0  0  0  0  0  0  0
    1.7387   -5.5303    0.7119 H   0  0  0  0  0  0  0  0  0  0  0  0
    3.5897   -2.1992   -5.4859 H   0  0  0  0  0  0  0  0  0  0  0  0
    1.5580   -3.9645   -9.6573 H   0  0  0  0  0  0  0  0  0  0  0  0
    3.1348   -2.1774   -8.1387 H   0  0  0  0  0  0  0  0  0  0  0  0
    0.7078   -5.3883    2.8738 H   0  0  0  0  0  0  0  0  0  0  0  0
    2.4310   -0.5101   -4.0239 H   0  0  0  0  0  0  0  0  0  0  0  0
    1.0926   -1.6629   -3.8081 H   0  0  0  0  0  0  0  0  0  0  0  0
    0.7687   -1.3594   -6.3761 H   0  0  0  0  0  0  0  0  0  0  0  0
    0.4114   -1.6052   -8.6559 H   0  0  0  0  0  0  0  0  0  0  0  0
    1.2182  -10.0712    3.8224 H   0  0  0  0  0  0  0  0  0  0  0  0
    3.3458   -0.2549   -6.7830 H   0  0  0  0  0  0  0  0  0  0  0  0
    1.5951   -1.9260   -1.3915 H   0  0  0  0  0  0  0  0  0  0  0  0
   -1.8225   -7.0499    5.3789 H   0  0  0  0  0  0  0  0  0  0  0  0
   -1.6423   -6.0690    3.9094 H   0  0  0  0  0  0  0  0  0  0  0  0
   -2.0171   -7.9807    3.8755 H   0  0  0  0  0  0  0  0  0  0  0  0
    4.5722   -2.4319   -0.8904 H   0  0  0  0  0  0  0  0  0  0  0  0
    3.8431   -4.4037   -0.1011 H   0  0  0  0  0  0  0  0  0  0  0  0
    3.9980   -2.5691    1.4952 H   0  0  0  0  0  0  0  0  0  0  0  0
    3.2828    1.2421   -0.2982 H   0  0  0  0  0  0  0  0  0  0  0  0
    1.9396   -2.1143    2.1992 H   0  0  0  0  0  0  0  0  0  0  0  0
    3.2355   -0.1631    1.8882 H   0  0  0  0  0  0  0  0  0  0  0  0
    1.2536    1.1452    1.0203 H   0  0  0  0  0  0  0  0  0  0  0  0
    0.8823    1.1601   -0.7099 H   0  0  0  0  0  0  0  0  0  0  0  0
    0.7404   -0.3469    0.2157 H   0  0  0  0  0  0  0  0  0  0  0  0
    5.0563    0.6768    0.8494 H   0  0  0  0  0  0  0  0  0  0  0  0
  1  2  1  0  0  0  0 
  1  3  1  0  0  0  0 
  2  4  1  0  0  0  0 
  3  5  2  0  0  0  0 
  3  6  1  0  0  0  0 
  4  7  1  0  0  0  0 
  5  8  1  0  0  0  0 
  5  9  1  0  0  0  0 
  6 10  2  0  0  0  0 
  8 11  1  0  0  0  0 
  8 12  2  0  0  0  0 
  9 13  2  0  0  0  0 
  9 14  1  0  0  0  0 
 10 12  1  0  0  0  0 
 10 15  1  0  0  0  0 
 11 16  1  0  0  0  0 
 14 16  2  0  0  0  0 
 16 18  1  0  0  0  0 
 17 15  1  0  0  0  0 
 17 19  1  0  0  0  0 
 20 17  1  0  0  0  0 
 18 21  2  0  0  0  0 
 18 22  1  0  0  0  0 
 23 19  1  0  0  0  0 
 20 24  1  0  0  0  0 
 25 20  1  0  0  0  0 
 21 26  1  0  0  0  0 
 22 27  2  0  0  0  0 
 23 28  1  0  0  0  0 
 29 23  1  0  0  0  0 
 29 25  1  0  0  0  0 
 25 30  1  0  0  0  0 
 26 31  1  0  0  0  0 
 26 32  2  0  0  0  0 
 27 32  1  0  0  0  0 
 28 33  1  0  0  0  0 
 29 34  1  0  0  0  0 
 32 35  1  0  0  0  0 
 35 37  1  0  0  0  0 
 36 33  1  0  0  0  0 
 38 36  1  0  0  0  0 
 36 39  1  0  0  0  0 
 38 40  1  0  0  0  0 
 41 38  1  0  0  0  0 
 42 39  1  0  0  0  0 
 41 43  1  0  0  0  0 
 44 41  1  0  0  0  0 
 44 42  1  0  0  0  0 
 42 45  1  0  0  0  0 
 44 46  1  0  0  0  0 
  2 47  1  0  0  0  0 
  2 48  1  0  0  0  0 
  4 49  1  0  0  0  0 
  4 50  1  0  0  0  0 
  6 51  1  0  0  0  0 
  7 52  1  0  0  0  0 
 12 53  1  0  0  0  0 
 14 54  1  0  0  0  0 
 17 55  1  0  0  0  0 
 20 56  1  0  0  0  0 
 21 57  1  0  0  0  0 
 22 58  1  0  0  0  0 
 23 59  1  0  0  0  0 
 24 60  1  0  0  0  0 
 25 61  1  0  0  0  0 
 27 62  1  0  0  0  0 
 28 63  1  0  0  0  0 
 28 64  1  0  0  0  0 
 29 65  1  0  0  0  0 
 30 66  1  0  0  0  0 
 31 67  1  0  0  0  0 
 34 68  1  0  0  0  0 
 36 69  1  0  0  0  0 
 37 70  1  0  0  0  0 
 37 71  1  0  0  0  0 
 37 72  1  0  0  0  0 
 38 73  1  0  0  0  0 
 40 74  1  0  0  0  0 
 41 75  1  0  0  0  0 
 42 76  1  0  0  0  0 
 43 77  1  0  0  0  0 
 44 78  1  0  0  0  0 
 45 79  1  0  0  0  0 
 45 80  1  0  0  0  0 
 45 81  1  0  0  0  0 
 46 82  1  0  0  0  0 
M  END
> <cdk:Title>
hidrosmin

> <Conformer>
1

> <SuperDrugID>
SD003307

$$$$
