terpin
  CDK     0628171801

 32 32  0  0  0  0  0  0  0  0999 V2000
   -1.2851    3.4972    1.7073 C   0  0  1  0  0  0  0  0  0  0  0  0
   -2.3543    2.6436    0.9607 C   0  0  2  0  0  0  0  0  0  0  0  0
   -1.6440    1.7066   -0.0639 C   0  0  1  0  0  0  0  0  0  0  0  0
   -0.5679    0.8091    0.6084 C   0  0  2  0  0  0  0  0  0  0  0  0
    0.4968    1.6165    1.4259 C   0  0  1  0  0  0  0  0  0  0  0  0
   -0.2079    2.6177    2.4034 C   0  0  2  0  0  0  0  0  0  0  0  0
    1.5901    0.6959    2.1087 C   0  0  1  0  0  0  0  0  0  0  0  0
    2.7592    1.5184    2.7296 C   0  0  0  0  0  0  0  0  0  0  0  0
    1.0435   -0.2972    3.1824 C   0  0  0  0  0  0  0  0  0  0  0  0
    2.1886   -0.1148    1.0926 O   0  0  0  0  0  0  0  0  0  0  0  0
   -3.4116    3.5410    0.2595 C   0  0  0  0  0  0  0  0  0  0  0  0
   -3.0612    1.8418    1.9147 O   0  0  0  0  0  0  0  0  0  0  0  0
   -0.7915    4.1696    0.9981 H   0  0  0  0  0  0  0  0  0  0  0  0
   -1.7721    4.1205    2.4625 H   0  0  0  0  0  0  0  0  0  0  0  0
   -2.3810    1.0623   -0.5530 H   0  0  0  0  0  0  0  0  0  0  0  0
   -1.1643    2.3082   -0.8430 H   0  0  0  0  0  0  0  0  0  0  0  0
   -0.0699    0.2345   -0.1774 H   0  0  0  0  0  0  0  0  0  0  0  0
   -1.0808    0.1013    1.2612 H   0  0  0  0  0  0  0  0  0  0  0  0
    1.0323    2.2321    0.6923 H   0  0  0  0  0  0  0  0  0  0  0  0
   -0.6841    2.0698    3.2195 H   0  0  0  0  0  0  0  0  0  0  0  0
    0.5328    3.2907    2.8414 H   0  0  0  0  0  0  0  0  0  0  0  0
    3.5707    0.8576    3.0467 H   0  0  0  0  0  0  0  0  0  0  0  0
    2.4221    2.0730    3.6063 H   0  0  0  0  0  0  0  0  0  0  0  0
    3.1642    2.2262    2.0028 H   0  0  0  0  0  0  0  0  0  0  0  0
    1.8558   -0.9029    3.5922 H   0  0  0  0  0  0  0  0  0  0  0  0
    0.5786    0.2368    4.0116 H   0  0  0  0  0  0  0  0  0  0  0  0
    0.3133   -0.9855    2.7564 H   0  0  0  0  0  0  0  0  0  0  0  0
    2.5818    0.5133    0.4494 H   0  0  0  0  0  0  0  0  0  0  0  0
   -3.9188    4.1759    0.9901 H   0  0  0  0  0  0  0  0  0  0  0  0
   -4.1659    2.9243   -0.2357 H   0  0  0  0  0  0  0  0  0  0  0  0
   -2.9421    4.1827   -0.4899 H   0  0  0  0  0  0  0  0  0  0  0  0
   -3.4280    2.4761    2.5664 H   0  0  0  0  0  0  0  0  0  0  0  0
  1  2  1  0  0  0  0 
  2  3  1  0  0  0  0 
  3  4  1  0  0  0  0 
  4  5  1  0  0  0  0 
  5  6  1  0  0  0  0 
  1  6  1  0  0  0  0 
  5  7  1  0  0  0  0 
  7  8  1  0  0  0  0 
  7  9  1  0  0  0  0 
  7 10  1  0  0  0  0 
  2 11  1  0  0  0  0 
  2 12  1  0  0  0  0 
  1 13  1  0  0  0  0 
  1 14  1  0  0  0  0 
  3 15  1  0  0  0  0 
  3 16  1  0  0  0  0 
  4 17  1  0  0  0  0 
  4 18  1  0  0  0  0 
  5 19  1  0  0  0  0 
  6 20  1  0  0  0  0 
  6 21  1  0  0  0  0 
  8 22  1  0  0  0  0 
  8 23  1  0  0  0  0 
  8 24  1  0  0  0  0 
  9 25  1  0  0  0  0 
  9 26  1  0  0  0  0 
  9 27  1  0  0  0  0 
 10 28  1  0  0  0  0 
 11 29  1  0  0  0  0 
 11 30  1  0  0  0  0 
 11 31  1  0  0  0  0 
 12 32  1  0  0  0  0 
M  END
> <cdk:Title>
terpin

> <Conformer>
1

> <SuperDrugID>
SD002343

$$$$
