icosapent ethyl
  CDK     0628171801

 58 57  0  0  0  0  0  0  0  0999 V2000
   -5.1558    3.1444    3.1376 C   0  0  0  0  0  0  0  0  0  0  0  0
   -5.8971    3.4490    4.2191 C   0  0  0  0  0  0  0  0  0  0  0  0
   -4.1220    2.1181    3.0984 C   0  0  1  0  0  0  0  0  0  0  0  0
   -5.7846    2.8412    5.5381 C   0  0  1  0  0  0  0  0  0  0  0  0
   -3.3990    2.0034    1.7287 C   0  0  1  0  0  0  0  0  0  0  0  0
   -6.1579    1.4326    5.5719 C   0  0  0  0  0  0  0  0  0  0  0  0
   -2.3408    0.8676    1.7168 C   0  0  2  0  0  0  0  0  0  0  0  0
   -5.4943    0.4390    6.1939 C   0  0  0  0  0  0  0  0  0  0  0  0
   -1.6814    0.7186    0.4048 C   0  0  0  0  0  0  0  0  0  0  0  0
   -4.2638    0.5476    6.9662 C   0  0  2  0  0  0  0  0  0  0  0  0
   -1.7900   -0.4674   -0.2642 O   0  0  0  0  0  0  0  0  0  0  0  0
   -1.0273    1.6759   -0.0743 O   0  0  0  0  0  0  0  0  0  0  0  0
   -4.2874    1.4873    8.0811 C   0  0  0  0  0  0  0  0  0  0  0  0
   -1.2344   -0.7769   -1.5479 C   0  0  1  0  0  0  0  0  0  0  0  0
   -5.0702    1.4448    9.1767 C   0  0  0  0  0  0  0  0  0  0  0  0
   -1.6067   -2.2181   -1.9400 C   0  0  0  0  0  0  0  0  0  0  0  0
   -6.1019    0.4629    9.4834 C   0  0  1  0  0  0  0  0  0  0  0  0
   -7.3345    0.7003    8.7401 C   0  0  0  0  0  0  0  0  0  0  0  0
   -8.1639   -0.2312    8.2338 C   0  0  0  0  0  0  0  0  0  0  0  0
   -8.0496   -1.6755    8.3747 C   0  0  2  0  0  0  0  0  0  0  0  0
   -8.2435   -2.1398    9.7415 C   0  0  0  0  0  0  0  0  0  0  0  0
   -9.3485   -1.9987   10.4998 C   0  0  0  0  0  0  0  0  0  0  0  0
  -10.6136   -1.3825   10.1165 C   0  0  2  0  0  0  0  0  0  0  0  0
  -10.7905    0.0347   10.7114 C   0  0  0  0  0  0  0  0  0  0  0  0
   -5.3379    3.6578    2.3029 H   0  0  0  0  0  0  0  0  0  0  0  0
   -6.5792    4.1647    4.1113 H   0  0  0  0  0  0  0  0  0  0  0  0
   -3.3759    2.3339    3.8684 H   0  0  0  0  0  0  0  0  0  0  0  0
   -4.5813    1.1516    3.3213 H   0  0  0  0  0  0  0  0  0  0  0  0
   -4.7708    3.0203    5.8977 H   0  0  0  0  0  0  0  0  0  0  0  0
   -6.4589    3.3601    6.2253 H   0  0  0  0  0  0  0  0  0  0  0  0
   -4.1400    1.8089    0.9465 H   0  0  0  0  0  0  0  0  0  0  0  0
   -2.9095    2.9574    1.5092 H   0  0  0  0  0  0  0  0  0  0  0  0
   -6.9946    1.1821    5.0905 H   0  0  0  0  0  0  0  0  0  0  0  0
   -2.8285   -0.0754    1.9790 H   0  0  0  0  0  0  0  0  0  0  0  0
   -1.5773    1.0711    2.4715 H   0  0  0  0  0  0  0  0  0  0  0  0
   -5.8804   -0.4752    6.1086 H   0  0  0  0  0  0  0  0  0  0  0  0
   -3.4683    0.8288    6.2695 H   0  0  0  0  0  0  0  0  0  0  0  0
   -3.9893   -0.4349    7.3600 H   0  0  0  0  0  0  0  0  0  0  0  0
   -3.6445    2.2462    8.0254 H   0  0  0  0  0  0  0  0  0  0  0  0
   -1.6316   -0.0858   -2.2947 H   0  0  0  0  0  0  0  0  0  0  0  0
   -0.1466   -0.6799   -1.5157 H   0  0  0  0  0  0  0  0  0  0  0  0
   -4.9429    2.1758    9.8426 H   0  0  0  0  0  0  0  0  0  0  0  0
   -1.2159   -2.4471   -2.9335 H   0  0  0  0  0  0  0  0  0  0  0  0
   -1.1828   -2.9238   -1.2226 H   0  0  0  0  0  0  0  0  0  0  0  0
   -2.6923   -2.3351   -1.9531 H   0  0  0  0  0  0  0  0  0  0  0  0
   -5.6945   -0.5363    9.3248 H   0  0  0  0  0  0  0  0  0  0  0  0
   -6.3500    0.5380   10.5461 H   0  0  0  0  0  0  0  0  0  0  0  0
   -7.5965    1.6502    8.5923 H   0  0  0  0  0  0  0  0  0  0  0  0
   -8.9559    0.1013    7.7314 H   0  0  0  0  0  0  0  0  0  0  0  0
   -7.0690   -1.9906    8.0122 H   0  0  0  0  0  0  0  0  0  0  0  0
   -8.7783   -2.1749    7.7303 H   0  0  0  0  0  0  0  0  0  0  0  0
   -7.4739   -2.6118   10.1607 H   0  0  0  0  0  0  0  0  0  0  0  0
   -9.3033   -2.3569   11.4295 H   0  0  0  0  0  0  0  0  0  0  0  0
  -11.4240   -2.0171   10.4863 H   0  0  0  0  0  0  0  0  0  0  0  0
  -10.7286   -1.3260    9.0331 H   0  0  0  0  0  0  0  0  0  0  0  0
  -11.7823    0.4161   10.4619 H   0  0  0  0  0  0  0  0  0  0  0  0
  -10.7020    0.0174   11.8009 H   0  0  0  0  0  0  0  0  0  0  0  0
  -10.0465    0.7218   10.2998 H   0  0  0  0  0  0  0  0  0  0  0  0
  1  2  2  0  0  0  0 
  1  3  1  0  0  0  0 
  2  4  1  0  0  0  0 
  3  5  1  0  0  0  0 
  4  6  1  0  0  0  0 
  5  7  1  0  0  0  0 
  6  8  2  0  0  0  0 
  7  9  1  0  0  0  0 
  8 10  1  0  0  0  0 
  9 11  1  0  0  0  0 
  9 12  2  0  0  0  0 
 10 13  1  0  0  0  0 
 11 14  1  0  0  0  0 
 13 15  2  0  0  0  0 
 14 16  1  0  0  0  0 
 15 17  1  0  0  0  0 
 17 18  1  0  0  0  0 
 18 19  2  0  0  0  0 
 19 20  1  0  0  0  0 
 20 21  1  0  0  0  0 
 21 22  2  0  0  0  0 
 22 23  1  0  0  0  0 
 23 24  1  0  0  0  0 
  1 25  1  0  0  0  0 
  2 26  1  0  0  0  0 
  3 27  1  0  0  0  0 
  3 28  1  0  0  0  0 
  4 29  1  0  0  0  0 
  4 30  1  0  0  0  0 
  5 31  1  0  0  0  0 
  5 32  1  0  0  0  0 
  6 33  1  0  0  0  0 
  7 34  1  0  0  0  0 
  7 35  1  0  0  0  0 
  8 36  1  0  0  0  0 
 10 37  1  0  0  0  0 
 10 38  1  0  0  0  0 
 13 39  1  0  0  0  0 
 14 40  1  0  0  0  0 
 14 41  1  0  0  0  0 
 15 42  1  0  0  0  0 
 16 43  1  0  0  0  0 
 16 44  1  0  0  0  0 
 16 45  1  0  0  0  0 
 17 46  1  0  0  0  0 
 17 47  1  0  0  0  0 
 18 48  1  0  0  0  0 
 19 49  1  0  0  0  0 
 20 50  1  0  0  0  0 
 20 51  1  0  0  0  0 
 21 52  1  0  0  0  0 
 22 53  1  0  0  0  0 
 23 54  1  0  0  0  0 
 23 55  1  0  0  0  0 
 24 56  1  0  0  0  0 
 24 57  1  0  0  0  0 
 24 58  1  0  0  0  0 
M  END
> <cdk:Title>
icosapent ethyl

> <Conformer>
1

> <SuperDrugID>
SD001255

$$$$
