azithromycin
  CDK     0628171801

124126  0  0  0  0  0  0  0  0999 V2000
   -4.1298   -0.5434   -6.3767 O   0  0  0  0  0  0  0  0  0  0  0  0
   -4.1149   -0.9848   -4.9843 C   0  0  2  0  0  0  0  0  0  0  0  0
   -2.8913   -0.1310   -7.0145 C   0  0  1  0  0  0  0  0  0  0  0  0
   -3.6282   -2.4883   -4.7435 C   0  0  1  0  0  0  0  0  0  0  0  0
   -5.5688   -0.6577   -4.4204 C   0  0  2  0  0  0  0  0  0  0  0  0
   -3.0825    0.0831   -8.5448 C   0  0  2  0  0  0  0  0  0  0  0  0
   -2.2192    0.9770   -6.3747 O   0  0  0  0  0  0  0  0  0  0  0  0
   -3.0610   -3.2436   -5.9835 C   0  0  0  0  0  0  0  0  0  0  0  0
   -2.7397   -2.7133   -3.4518 C   0  0  2  0  0  0  0  0  0  0  0  0
   -6.6820   -1.5365   -5.0865 C   0  0  0  0  0  0  0  0  0  0  0  0
   -5.9319    0.6766   -4.7727 O   0  0  0  0  0  0  0  0  0  0  0  0
   -5.7237   -0.7232   -2.8572 C   0  0  2  0  0  0  0  0  0  0  0  0
   -1.8177   -0.0466   -9.2021 O   0  0  0  0  0  0  0  0  0  0  0  0
   -3.7362    1.4659   -8.8894 C   0  0  1  0  0  0  0  0  0  0  0  0
   -2.6369    2.3241   -6.6833 C   0  0  1  0  0  0  0  0  0  0  0  0
   -1.7103   -1.7271   -3.2008 O   0  0  0  0  0  0  0  0  0  0  0  0
   -2.3647   -4.2031   -3.0751 C   0  0  1  0  0  0  0  0  0  0  0  0
   -4.8835    0.2546   -1.9531 C   0  0  1  0  0  0  0  0  0  0  0  0
   -5.2189    1.5861   -8.5729 N   0  0  2  0  0  0  0  0  0  0  0  0
   -2.8358    2.5553   -8.2105 C   0  0  1  0  0  0  0  0  0  0  0  0
   -3.8266    2.7881   -5.8135 C   0  0  0  0  0  0  0  0  0  0  0  0
   -0.5703   -1.4600   -4.0426 C   0  0  1  0  0  0  0  0  0  0  0  0
   -1.3239   -4.2888   -1.9163 C   0  0  0  0  0  0  0  0  0  0  0  0
   -3.5910   -4.9865   -2.7037 C   0  0  0  0  0  0  0  0  0  0  0  0
   -5.5383    1.6643   -1.8221 C   0  0  0  0  0  0  0  0  0  0  0  0
   -4.4610   -0.3300   -0.5562 C   0  0  2  0  0  0  0  0  0  0  0  0
   -6.0739    0.4523   -9.0542 C   0  0  0  0  0  0  0  0  0  0  0  0
   -5.8350    2.8921   -8.9857 C   0  0  0  0  0  0  0  0  0  0  0  0
    0.1747   -0.3272   -3.2748 C   0  0  2  0  0  0  0  0  0  0  0  0
    0.2573   -2.6287   -4.2204 O   0  0  0  0  0  0  0  0  0  0  0  0
   -4.3531   -5.4197   -3.5974 O   0  0  0  0  0  0  0  0  0  0  0  0
   -3.8519   -5.2284   -1.3764 O   0  0  0  0  0  0  0  0  0  0  0  0
   -5.5013   -0.7592    0.4531 N   0  0  0  0  0  0  0  0  0  0  0  0
    1.6100    0.0156   -3.7914 C   0  0  2  0  0  0  0  0  0  0  0  0
    1.5732   -2.4286   -4.7854 C   0  0  2  0  0  0  0  0  0  0  0  0
   -4.9616   -5.7931   -0.6473 C   0  0  2  0  0  0  0  0  0  0  0  0
   -6.0782    0.3672    1.2554 C   0  0  0  0  0  0  0  0  0  0  0  0
   -6.3386   -2.0156    0.2279 C   0  0  2  0  0  0  0  0  0  0  0  0
    2.1760    0.7955   -2.6948 O   0  0  0  0  0  0  0  0  0  0  0  0
    1.5395    0.9129   -5.0695 C   0  0  0  0  0  0  0  0  0  0  0  0
    2.3841   -1.3308   -4.0207 C   0  0  2  0  0  0  0  0  0  0  0  0
    1.5384   -2.2971   -6.3332 C   0  0  0  0  0  0  0  0  0  0  0  0
   -5.3769   -7.1807   -1.2392 C   0  0  2  0  0  0  0  0  0  0  0  0
   -6.0774   -4.7030   -0.3459 C   0  0  1  0  0  0  0  0  0  0  0  0
   -7.4531   -2.2401    1.2978 C   0  0  0  0  0  0  0  0  0  0  0  0
   -5.4413   -3.3035    0.0396 C   0  0  2  0  0  0  0  0  0  0  0  0
    3.5334    1.2769   -2.7584 C   0  0  0  0  0  0  0  0  0  0  0  0
    2.7704   -1.8727   -2.7540 O   0  0  0  0  0  0  0  0  0  0  0  0
   -6.3328   -8.0397   -0.3740 C   0  0  0  0  0  0  0  0  0  0  0  0
   -7.0814   -4.5606   -1.5313 C   0  0  0  0  0  0  0  0  0  0  0  0
   -6.7840   -5.1503    0.8163 O   0  0  0  0  0  0  0  0  0  0  0  0
   -4.6167   -3.4252    1.1998 O   0  0  0  0  0  0  0  0  0  0  0  0
   -0.9081   -1.0869   -5.0043 H   0  0  0  0  0  0  0  0  0  0  0  0
   -2.1820   -0.9458   -6.9345 H   0  0  0  0  0  0  0  0  0  0  0  0
   -1.8850   -4.6889   -3.9294 H   0  0  0  0  0  0  0  0  0  0  0  0
   -3.4273   -0.3168   -4.4714 H   0  0  0  0  0  0  0  0  0  0  0  0
   -4.5307   -3.0579   -4.5445 H   0  0  0  0  0  0  0  0  0  0  0  0
   -3.6662   -0.7390   -8.9565 H   0  0  0  0  0  0  0  0  0  0  0  0
   -3.1761   -4.3221   -5.8680 H   0  0  0  0  0  0  0  0  0  0  0  0
   -2.0000   -3.0423   -6.1163 H   0  0  0  0  0  0  0  0  0  0  0  0
   -3.6028   -2.9744   -6.8900 H   0  0  0  0  0  0  0  0  0  0  0  0
   -3.3943   -2.4323   -2.6347 H   0  0  0  0  0  0  0  0  0  0  0  0
   -6.5501   -1.5829   -6.1687 H   0  0  0  0  0  0  0  0  0  0  0  0
   -7.6734   -1.1207   -4.8896 H   0  0  0  0  0  0  0  0  0  0  0  0
   -6.6873   -2.5561   -4.6998 H   0  0  0  0  0  0  0  0  0  0  0  0
   -6.0619    0.6718   -5.7442 H   0  0  0  0  0  0  0  0  0  0  0  0
   -5.5145   -1.7477   -2.5729 H   0  0  0  0  0  0  0  0  0  0  0  0
   -6.7775   -0.5558   -2.6150 H   0  0  0  0  0  0  0  0  0  0  0  0
   -1.2233    0.5934   -8.7604 H   0  0  0  0  0  0  0  0  0  0  0  0
   -3.6359    1.5984   -9.9727 H   0  0  0  0  0  0  0  0  0  0  0  0
   -1.7946    2.9505   -6.3746 H   0  0  0  0  0  0  0  0  0  0  0  0
   -3.9351    0.4415   -2.4582 H   0  0  0  0  0  0  0  0  0  0  0  0
   -1.8481    2.5325   -8.6793 H   0  0  0  0  0  0  0  0  0  0  0  0
   -3.2051    3.5630   -8.3929 H   0  0  0  0  0  0  0  0  0  0  0  0
   -3.9509    3.8703   -5.8850 H   0  0  0  0  0  0  0  0  0  0  0  0
   -3.6524    2.5257   -4.7683 H   0  0  0  0  0  0  0  0  0  0  0  0
   -4.7467    2.3225   -6.1446 H   0  0  0  0  0  0  0  0  0  0  0  0
   -1.1358   -5.3338   -1.6597 H   0  0  0  0  0  0  0  0  0  0  0  0
   -0.3708   -3.8521   -2.1976 H   0  0  0  0  0  0  0  0  0  0  0  0
   -1.6838   -3.7660   -1.0274 H   0  0  0  0  0  0  0  0  0  0  0  0
   -5.5849    2.1668   -2.7896 H   0  0  0  0  0  0  0  0  0  0  0  0
   -6.5532    1.5870   -1.4313 H   0  0  0  0  0  0  0  0  0  0  0  0
   -4.9554    2.3074   -1.1564 H   0  0  0  0  0  0  0  0  0  0  0  0
   -3.8122    0.4156   -0.0852 H   0  0  0  0  0  0  0  0  0  0  0  0
   -3.7740   -1.1524   -0.7269 H   0  0  0  0  0  0  0  0  0  0  0  0
   -7.1344    0.6328   -8.8648 H   0  0  0  0  0  0  0  0  0  0  0  0
   -5.8393   -0.4649   -8.5182 H   0  0  0  0  0  0  0  0  0  0  0  0
   -5.9376    0.2871  -10.1259 H   0  0  0  0  0  0  0  0  0  0  0  0
   -6.9078    2.9157   -8.7792 H   0  0  0  0  0  0  0  0  0  0  0  0
   -5.4154    3.7231   -8.4223 H   0  0  0  0  0  0  0  0  0  0  0  0
   -5.6877    3.0769  -10.0530 H   0  0  0  0  0  0  0  0  0  0  0  0
    0.2597   -0.6435   -2.2288 H   0  0  0  0  0  0  0  0  0  0  0  0
   -0.4453    0.5755   -3.2791 H   0  0  0  0  0  0  0  0  0  0  0  0
    2.1026   -3.3701   -4.6080 H   0  0  0  0  0  0  0  0  0  0  0  0
   -4.4991   -6.0216    0.3177 H   0  0  0  0  0  0  0  0  0  0  0  0
   -5.3981    1.2164    1.3532 H   0  0  0  0  0  0  0  0  0  0  0  0
   -6.2860    0.0311    2.2716 H   0  0  0  0  0  0  0  0  0  0  0  0
   -7.0017    0.7262    0.8015 H   0  0  0  0  0  0  0  0  0  0  0  0
   -6.8919   -1.8512   -0.6896 H   0  0  0  0  0  0  0  0  0  0  0  0
    0.8426    0.5225   -5.8061 H   0  0  0  0  0  0  0  0  0  0  0  0
    1.2028    1.9165   -4.8033 H   0  0  0  0  0  0  0  0  0  0  0  0
    2.5204    0.9982   -5.5412 H   0  0  0  0  0  0  0  0  0  0  0  0
    3.3189   -1.1377   -4.5521 H   0  0  0  0  0  0  0  0  0  0  0  0
    0.8006   -1.5720   -6.6673 H   0  0  0  0  0  0  0  0  0  0  0  0
    2.5172   -2.0043   -6.7191 H   0  0  0  0  0  0  0  0  0  0  0  0
    1.2749   -3.2599   -6.7769 H   0  0  0  0  0  0  0  0  0  0  0  0
   -4.4594   -7.7599   -1.3823 H   0  0  0  0  0  0  0  0  0  0  0  0
   -5.8300   -7.0496   -2.2237 H   0  0  0  0  0  0  0  0  0  0  0  0
   -8.1283   -1.3851    1.3280 H   0  0  0  0  0  0  0  0  0  0  0  0
   -8.0768   -3.0960    1.0517 H   0  0  0  0  0  0  0  0  0  0  0  0
   -7.0247   -2.3856    2.2900 H   0  0  0  0  0  0  0  0  0  0  0  0
   -4.7698   -3.0774   -0.7754 H   0  0  0  0  0  0  0  0  0  0  0  0
    3.7390    1.8023   -1.8243 H   0  0  0  0  0  0  0  0  0  0  0  0
    3.6716    1.9825   -3.5791 H   0  0  0  0  0  0  0  0  0  0  0  0
    4.2489    0.4585   -2.8494 H   0  0  0  0  0  0  0  0  0  0  0  0
    1.9335   -2.0383   -2.2720 H   0  0  0  0  0  0  0  0  0  0  0  0
   -6.3813   -9.0524   -0.7759 H   0  0  0  0  0  0  0  0  0  0  0  0
   -7.3452   -7.6370   -0.3879 H   0  0  0  0  0  0  0  0  0  0  0  0
   -5.9755   -8.0921    0.6560 H   0  0  0  0  0  0  0  0  0  0  0  0
   -7.8758   -3.8501   -1.3019 H   0  0  0  0  0  0  0  0  0  0  0  0
   -6.5593   -4.2207   -2.4271 H   0  0  0  0  0  0  0  0  0  0  0  0
   -7.5728   -5.5083   -1.7499 H   0  0  0  0  0  0  0  0  0  0  0  0
   -7.2071   -5.9963    0.5807 H   0  0  0  0  0  0  0  0  0  0  0  0
   -3.9101   -4.0638    0.9637 H   0  0  0  0  0  0  0  0  0  0  0  0
  3  1  1  0  0  0  0 
  2  1  1  0  0  0  0 
  4  2  1  0  0  0  0 
  2  5  1  0  0  0  0 
  6  3  1  0  0  0  0 
  3  7  1  0  0  0  0 
  3 54  1  0  0  0  0 
  4  8  1  0  0  0  0 
  9  4  1  0  0  0  0 
  5 10  1  0  0  0  0 
  5 11  1  0  0  0  0 
  5 12  1  0  0  0  0 
  6 13  1  0  0  0  0 
 14  6  1  0  0  0  0 
 15  7  1  0  0  0  0 
  9 16  1  0  0  0  0 
 17  9  1  0  0  0  0 
 18 12  1  0  0  0  0 
 14 19  1  0  0  0  0 
 14 20  1  0  0  0  0 
 15 20  1  0  0  0  0 
 15 21  1  0  0  0  0 
 22 16  1  0  0  0  0 
 17 23  1  0  0  0  0 
 17 24  1  0  0  0  0 
 17 55  1  0  0  0  0 
 18 25  1  0  0  0  0 
 18 26  1  0  0  0  0 
 19 27  1  0  0  0  0 
 19 28  1  0  0  0  0 
 22 29  1  0  0  0  0 
 22 30  1  0  0  0  0 
 22 53  1  0  0  0  0 
 24 31  2  0  0  0  0 
 24 32  1  0  0  0  0 
 26 33  1  0  0  0  0 
 34 29  1  0  0  0  0 
 35 30  1  0  0  0  0 
 36 32  1  0  0  0  0 
 33 37  1  0  0  0  0 
 38 33  1  0  0  0  0 
 34 39  1  0  0  0  0 
 34 40  1  0  0  0  0 
 41 34  1  0  0  0  0 
 41 35  1  0  0  0  0 
 35 42  1  0  0  0  0 
 36 43  1  0  0  0  0 
 44 36  1  0  0  0  0 
 38 45  1  0  0  0  0 
 46 38  1  0  0  0  0 
 39 47  1  0  0  0  0 
 41 48  1  0  0  0  0 
 43 49  1  0  0  0  0 
 44 46  1  0  0  0  0 
 44 50  1  0  0  0  0 
 44 51  1  0  0  0  0 
 46 52  1  0  0  0  0 
  2 56  1  0  0  0  0 
  4 57  1  0  0  0  0 
  6 58  1  0  0  0  0 
  8 59  1  0  0  0  0 
  8 60  1  0  0  0  0 
  8 61  1  0  0  0  0 
  9 62  1  0  0  0  0 
 10 63  1  0  0  0  0 
 10 64  1  0  0  0  0 
 10 65  1  0  0  0  0 
 11 66  1  0  0  0  0 
 12 67  1  0  0  0  0 
 12 68  1  0  0  0  0 
 13 69  1  0  0  0  0 
 14 70  1  0  0  0  0 
 15 71  1  0  0  0  0 
 18 72  1  0  0  0  0 
 20 73  1  0  0  0  0 
 20 74  1  0  0  0  0 
 21 75  1  0  0  0  0 
 21 76  1  0  0  0  0 
 21 77  1  0  0  0  0 
 23 78  1  0  0  0  0 
 23 79  1  0  0  0  0 
 23 80  1  0  0  0  0 
 25 81  1  0  0  0  0 
 25 82  1  0  0  0  0 
 25 83  1  0  0  0  0 
 26 84  1  0  0  0  0 
 26 85  1  0  0  0  0 
 27 86  1  0  0  0  0 
 27 87  1  0  0  0  0 
 27 88  1  0  0  0  0 
 28 89  1  0  0  0  0 
 28 90  1  0  0  0  0 
 28 91  1  0  0  0  0 
 29 92  1  0  0  0  0 
 29 93  1  0  0  0  0 
 35 94  1  0  0  0  0 
 36 95  1  0  0  0  0 
 37 96  1  0  0  0  0 
 37 97  1  0  0  0  0 
 37 98  1  0  0  0  0 
 38 99  1  0  0  0  0 
 40100  1  0  0  0  0 
 40101  1  0  0  0  0 
 40102  1  0  0  0  0 
 41103  1  0  0  0  0 
 42104  1  0  0  0  0 
 42105  1  0  0  0  0 
 42106  1  0  0  0  0 
 43107  1  0  0  0  0 
 43108  1  0  0  0  0 
 45109  1  0  0  0  0 
 45110  1  0  0  0  0 
 45111  1  0  0  0  0 
 46112  1  0  0  0  0 
 47113  1  0  0  0  0 
 47114  1  0  0  0  0 
 47115  1  0  0  0  0 
 48116  1  0  0  0  0 
 49117  1  0  0  0  0 
 49118  1  0  0  0  0 
 49119  1  0  0  0  0 
 50120  1  0  0  0  0 
 50121  1  0  0  0  0 
 50122  1  0  0  0  0 
 51123  1  0  0  0  0 
 52124  1  0  0  0  0 
M  END
> <cdk:Title>
azithromycin

> <Conformer>
1

> <SuperDrugID>
SD000230

$$$$
