erdosteine
  CDK     0628171801

 26 26  0  0  0  0  0  0  0  0999 V2000
   -4.1739   -1.3170    1.4985 N   0  0  0  0  0  0  0  0  0  0  0  0
   -3.2062   -2.0216    0.8559 C   0  0  0  0  0  0  0  0  0  0  0  0
   -5.2118   -1.8819    2.2995 C   0  0  1  0  0  0  0  0  0  0  0  0
   -2.2680   -1.3053   -0.0211 C   0  0  2  0  0  0  0  0  0  0  0  0
   -3.1180   -3.2670    0.9669 O   0  0  0  0  0  0  0  0  0  0  0  0
   -5.6419   -0.8687    3.2724 C   0  0  0  0  0  0  0  0  0  0  0  0
   -6.4460   -2.2425    1.4128 C   0  0  2  0  0  0  0  0  0  0  0  0
   -1.2015   -0.1891    0.9449 S   0  0  0  0  0  0  0  0  0  0  0  0
   -4.9874   -0.5292    4.2822 O   0  0  0  0  0  0  0  0  0  0  0  0
   -7.1561   -0.1219    2.8058 S   0  0  0  0  0  0  0  0  0  0  0  0
   -7.3375   -0.9919    1.2088 C   0  0  2  0  0  0  0  0  0  0  0  0
   -0.2374    0.6587   -0.3464 C   0  0  2  0  0  0  0  0  0  0  0  0
    0.8513    1.4395    0.2551 C   0  0  0  0  0  0  0  0  0  0  0  0
    0.5831    2.4971    1.0538 O   0  0  0  0  0  0  0  0  0  0  0  0
    2.0467    1.1507    0.0256 O   0  0  0  0  0  0  0  0  0  0  0  0
   -4.1826   -0.3560    1.3685 H   0  0  0  0  0  0  0  0  0  0  0  0
   -4.8623   -2.7683    2.8370 H   0  0  0  0  0  0  0  0  0  0  0  0
   -2.8296   -0.7231   -0.7548 H   0  0  0  0  0  0  0  0  0  0  0  0
   -1.6291   -2.0103   -0.5576 H   0  0  0  0  0  0  0  0  0  0  0  0
   -7.0305   -3.0181    1.9169 H   0  0  0  0  0  0  0  0  0  0  0  0
   -6.1377   -2.6441    0.4425 H   0  0  0  0  0  0  0  0  0  0  0  0
   -8.3784   -1.2466    1.0058 H   0  0  0  0  0  0  0  0  0  0  0  0
   -6.9407   -0.3604    0.4102 H   0  0  0  0  0  0  0  0  0  0  0  0
   -0.8976    1.3188   -0.9126 H   0  0  0  0  0  0  0  0  0  0  0  0
    0.1688   -0.0913   -1.0284 H   0  0  0  0  0  0  0  0  0  0  0  0
    1.3183    3.0224    1.4339 H   0  0  0  0  0  0  0  0  0  0  0  0
  1  2  1  0  0  0  0 
  1  3  1  0  0  0  0 
  2  4  1  0  0  0  0 
  2  5  2  0  0  0  0 
  3  6  1  0  0  0  0 
  3  7  1  0  0  0  0 
  4  8  1  0  0  0  0 
  6  9  2  0  0  0  0 
  6 10  1  0  0  0  0 
  7 11  1  0  0  0  0 
  8 12  1  0  0  0  0 
 10 11  1  0  0  0  0 
 12 13  1  0  0  0  0 
 13 14  1  0  0  0  0 
 13 15  2  0  0  0  0 
  1 16  1  0  0  0  0 
  3 17  1  0  0  0  0 
  4 18  1  0  0  0  0 
  4 19  1  0  0  0  0 
  7 20  1  0  0  0  0 
  7 21  1  0  0  0  0 
 11 22  1  0  0  0  0 
 11 23  1  0  0  0  0 
 12 24  1  0  0  0  0 
 12 25  1  0  0  0  0 
 14 26  1  0  0  0  0 
M  END
> <cdk:Title>
erdosteine

> <Conformer>
1

> <SuperDrugID>
SD000927

$$$$
