clindamycin
  CDK     0628171802

 60 61  0  0  0  0  0  0  0  0999 V2000
    2.4890   -4.0779   -6.7471 C   0  0  2  0  0  0  0  0  0  0  0  0
    3.8985   -4.3245   -6.8861 N   0  0  0  0  0  0  0  0  0  0  0  0
    1.8170   -5.2857   -6.0029 C   0  0  2  0  0  0  0  0  0  0  0  0
    1.8472   -3.7863   -8.1547 C   0  0  1  0  0  0  0  0  0  0  0  0
    4.8994   -3.7847   -6.1241 C   0  0  0  0  0  0  0  0  0  0  0  0
    2.3200   -5.4721   -4.5469 C   0  0  0  0  0  0  0  0  0  0  0  0
    2.0134   -6.8139   -6.8690 Cl  0  0  0  0  0  0  0  0  0  0  0  0
    0.4026   -3.6768   -8.0914 O   0  0  0  0  0  0  0  0  0  0  0  0
    2.4164   -2.5780   -8.9689 C   0  0  2  0  0  0  0  0  0  0  0  0
    4.6178   -3.0240   -5.1671 O   0  0  0  0  0  0  0  0  0  0  0  0
    6.3419   -4.0483   -6.3854 C   0  0  2  0  0  0  0  0  0  0  0  0
   -0.1291   -2.4588   -7.5197 C   0  0  2  0  0  0  0  0  0  0  0  0
    3.8396   -2.5790   -9.0507 O   0  0  0  0  0  0  0  0  0  0  0  0
    1.9068   -1.2087   -8.4423 C   0  0  1  0  0  0  0  0  0  0  0  0
    6.6664   -4.6132   -7.7862 C   0  0  2  0  0  0  0  0  0  0  0  0
    6.9501   -5.0718   -5.4943 N   0  0  2  0  0  0  0  0  0  0  0  0
   -1.9514   -2.5744   -7.5197 S   0  0  0  0  0  0  0  0  0  0  0  0
    0.3595   -1.2100   -8.3096 C   0  0  1  0  0  0  0  0  0  0  0  0
    2.5225   -0.8814   -7.1983 O   0  0  0  0  0  0  0  0  0  0  0  0
    8.1094   -5.1546   -7.6587 C   0  0  2  0  0  0  0  0  0  0  0  0
    7.1583   -4.6949   -4.0671 C   0  0  0  0  0  0  0  0  0  0  0  0
    8.1716   -5.5960   -6.1695 C   0  0  1  0  0  0  0  0  0  0  0  0
   -2.2991   -4.1001   -6.5953 C   0  0  0  0  0  0  0  0  0  0  0  0
   -0.2002   -1.1843   -9.6246 O   0  0  0  0  0  0  0  0  0  0  0  0
    9.2112   -4.1116   -8.0398 C   0  0  1  0  0  0  0  0  0  0  0  0
    9.3092   -3.8445   -9.5671 C   0  0  2  0  0  0  0  0  0  0  0  0
   10.4300   -2.8520   -9.9396 C   0  0  0  0  0  0  0  0  0  0  0  0
    2.3245   -3.1965   -6.1237 H   0  0  0  0  0  0  0  0  0  0  0  0
    2.0357   -4.6688   -8.7735 H   0  0  0  0  0  0  0  0  0  0  0  0
    4.1570   -4.9268   -7.6015 H   0  0  0  0  0  0  0  0  0  0  0  0
    0.7413   -5.1044   -5.9359 H   0  0  0  0  0  0  0  0  0  0  0  0
    1.7596   -6.2691   -4.0533 H   0  0  0  0  0  0  0  0  0  0  0  0
    2.1753   -4.5518   -3.9780 H   0  0  0  0  0  0  0  0  0  0  0  0
    3.3803   -5.7317   -4.5255 H   0  0  0  0  0  0  0  0  0  0  0  0
    2.0584   -2.6842   -9.9978 H   0  0  0  0  0  0  0  0  0  0  0  0
    6.8770   -3.0966   -6.2789 H   0  0  0  0  0  0  0  0  0  0  0  0
    0.1712   -2.3652   -6.4736 H   0  0  0  0  0  0  0  0  0  0  0  0
    4.0725   -3.4372   -9.4637 H   0  0  0  0  0  0  0  0  0  0  0  0
    2.1990   -0.4302   -9.1524 H   0  0  0  0  0  0  0  0  0  0  0  0
    6.5533   -3.8446   -8.5524 H   0  0  0  0  0  0  0  0  0  0  0  0
    6.0048   -5.4475   -8.0368 H   0  0  0  0  0  0  0  0  0  0  0  0
    0.0411   -0.2994   -7.7933 H   0  0  0  0  0  0  0  0  0  0  0  0
    2.1862    0.0120   -6.9717 H   0  0  0  0  0  0  0  0  0  0  0  0
    8.2321   -6.0369   -8.2976 H   0  0  0  0  0  0  0  0  0  0  0  0
    6.2329   -4.3359   -3.6143 H   0  0  0  0  0  0  0  0  0  0  0  0
    7.4800   -5.5727   -3.5024 H   0  0  0  0  0  0  0  0  0  0  0  0
    7.9196   -3.9173   -3.9715 H   0  0  0  0  0  0  0  0  0  0  0  0
    9.0955   -5.2476   -5.6943 H   0  0  0  0  0  0  0  0  0  0  0  0
    8.1594   -6.6872   -6.1015 H   0  0  0  0  0  0  0  0  0  0  0  0
   -3.3774   -4.2490   -6.5409 H   0  0  0  0  0  0  0  0  0  0  0  0
   -1.8966   -4.0173   -5.5861 H   0  0  0  0  0  0  0  0  0  0  0  0
   -1.8466   -4.9532   -7.1010 H   0  0  0  0  0  0  0  0  0  0  0  0
   -1.1681   -1.1130   -9.4945 H   0  0  0  0  0  0  0  0  0  0  0  0
    9.0264   -3.1686   -7.5175 H   0  0  0  0  0  0  0  0  0  0  0  0
   10.1833   -4.4849   -7.7045 H   0  0  0  0  0  0  0  0  0  0  0  0
    8.3653   -3.4438   -9.9394 H   0  0  0  0  0  0  0  0  0  0  0  0
    9.5013   -4.7878  -10.0820 H   0  0  0  0  0  0  0  0  0  0  0  0
   10.2741   -1.8956   -9.4403 H   0  0  0  0  0  0  0  0  0  0  0  0
   11.4037   -3.2492   -9.6526 H   0  0  0  0  0  0  0  0  0  0  0  0
   10.4261   -2.6872  -11.0174 H   0  0  0  0  0  0  0  0  0  0  0  0
  1  2  1  0  0  0  0 
  1  3  1  0  0  0  0 
  4  1  1  0  0  0  0 
  1 28  1  0  0  0  0 
  2  5  1  0  0  0  0 
  3  6  1  0  0  0  0 
  3  7  1  0  0  0  0 
  4  8  1  0  0  0  0 
  9  4  1  0  0  0  0 
  4 29  1  0  0  0  0 
  5 10  2  0  0  0  0 
 12  8  1  0  0  0  0 
  9 13  1  0  0  0  0 
 14  9  1  0  0  0  0 
 11  5  1  0  0  0  0 
 11 15  1  0  0  0  0 
 11 16  1  0  0  0  0 
 12 17  1  0  0  0  0 
 18 12  1  0  0  0  0 
 14 18  1  0  0  0  0 
 14 19  1  0  0  0  0 
 20 15  1  0  0  0  0 
 16 21  1  0  0  0  0 
 16 22  1  0  0  0  0 
 17 23  1  0  0  0  0 
 18 24  1  0  0  0  0 
 20 22  1  0  0  0  0 
 20 25  1  0  0  0  0 
 25 26  1  0  0  0  0 
 26 27  1  0  0  0  0 
  2 30  1  0  0  0  0 
  3 31  1  0  0  0  0 
  6 32  1  0  0  0  0 
  6 33  1  0  0  0  0 
  6 34  1  0  0  0  0 
  9 35  1  0  0  0  0 
 11 36  1  0  0  0  0 
 12 37  1  0  0  0  0 
 13 38  1  0  0  0  0 
 14 39  1  0  0  0  0 
 15 40  1  0  0  0  0 
 15 41  1  0  0  0  0 
 18 42  1  0  0  0  0 
 19 43  1  0  0  0  0 
 20 44  1  0  0  0  0 
 21 45  1  0  0  0  0 
 21 46  1  0  0  0  0 
 21 47  1  0  0  0  0 
 22 48  1  0  0  0  0 
 22 49  1  0  0  0  0 
 23 50  1  0  0  0  0 
 23 51  1  0  0  0  0 
 23 52  1  0  0  0  0 
 24 53  1  0  0  0  0 
 25 54  1  0  0  0  0 
 25 55  1  0  0  0  0 
 26 56  1  0  0  0  0 
 26 57  1  0  0  0  0 
 27 58  1  0  0  0  0 
 27 59  1  0  0  0  0 
 27 60  1  0  0  0  0 
M  END
> <cdk:Title>
clindamycin

> <Conformer>
1

> <SuperDrugID>
SD000597

$$$$
