chlordiazepoxide
  CDK     0628171802

 35 37  0  0  0  0  0  0  0  0999 V2000
    1.3527   -0.2793    0.3604 C   0  0  0  0  0  0  0  0  0  0  0  0
    0.0206    0.1185    0.3484 N   0  0  0  0  0  0  0  0  0  0  0  0
   -0.4943    1.2876    0.1658 C   0  0  0  0  0  0  0  0  0  0  0  0
    0.3238    2.3396   -0.0464 N   0  0  0  0  0  0  0  0  0  0  0  0
    0.0887    3.6731   -0.3015 C   0  0  0  0  0  0  0  0  0  0  0  0
    1.2289    4.3586   -0.7792 C   0  0  0  0  0  0  0  0  0  0  0  0
    1.1753    5.7161   -1.1258 C   0  0  0  0  0  0  0  0  0  0  0  0
   -0.0263    6.4257   -0.9858 C   0  0  0  0  0  0  0  0  0  0  0  0
   -0.0875    8.0638   -1.4110 Cl  0  0  0  0  0  0  0  0  0  0  0  0
   -1.1699    5.7706   -0.4924 C   0  0  0  0  0  0  0  0  0  0  0  0
   -1.1339    4.3955   -0.1368 C   0  0  0  0  0  0  0  0  0  0  0  0
   -2.3273    3.6959    0.4233 C   0  0  0  0  0  0  0  0  0  0  0  0
   -3.5402    4.4787    0.8266 C   0  0  0  0  0  0  0  0  0  0  0  0
   -3.6231    4.9631    2.1550 C   0  0  0  0  0  0  0  0  0  0  0  0
   -4.7391    5.7036    2.5867 C   0  0  0  0  0  0  0  0  0  0  0  0
   -5.7987    5.9612    1.7009 C   0  0  0  0  0  0  0  0  0  0  0  0
   -5.7396    5.4847    0.3818 C   0  0  0  0  0  0  0  0  0  0  0  0
   -4.6139    4.7628   -0.0561 C   0  0  0  0  0  0  0  0  0  0  0  0
   -2.5402    2.4977   -0.2701 N   0  0  0  0  0  0  0  0  0  0  0  0
   -3.1109    2.4895   -1.2931 O   0  0  0  0  0  0  0  0  0  0  0  0
   -1.9557    1.3150    0.2020 C   0  0  1  0  0  0  0  0  0  0  0  0
    1.3986   -1.3608    0.4939 H   0  0  0  0  0  0  0  0  0  0  0  0
    1.8860    0.2008    1.1826 H   0  0  0  0  0  0  0  0  0  0  0  0
    1.8347   -0.0250   -0.5859 H   0  0  0  0  0  0  0  0  0  0  0  0
    1.2671    2.1114   -0.0428 H   0  0  0  0  0  0  0  0  0  0  0  0
    2.1221    3.8703   -0.8915 H   0  0  0  0  0  0  0  0  0  0  0  0
    2.0139    6.1783   -1.4846 H   0  0  0  0  0  0  0  0  0  0  0  0
   -2.0291    6.3155   -0.3937 H   0  0  0  0  0  0  0  0  0  0  0  0
   -2.8725    4.7903    2.8289 H   0  0  0  0  0  0  0  0  0  0  0  0
   -4.7800    6.0558    3.5461 H   0  0  0  0  0  0  0  0  0  0  0  0
   -6.6094    6.4971    2.0153 H   0  0  0  0  0  0  0  0  0  0  0  0
   -6.5140    5.6665   -0.2593 H   0  0  0  0  0  0  0  0  0  0  0  0
   -4.5993    4.4499   -1.0278 H   0  0  0  0  0  0  0  0  0  0  0  0
   -2.3273    0.4666   -0.3914 H   0  0  0  0  0  0  0  0  0  0  0  0
   -2.2752    1.1338    1.2345 H   0  0  0  0  0  0  0  0  0  0  0  0
  2  1  1  0  0  0  0 
  2  3  2  0  0  0  0 
  3  4  1  0  0  0  0 
  4  5  1  0  0  0  0 
  5  6  2  0  0  0  0 
  6  7  1  0  0  0  0 
  7  8  2  0  0  0  0 
  8  9  1  0  0  0  0 
  8 10  1  0  0  0  0 
 10 11  2  0  0  0  0 
  5 11  1  0  0  0  0 
 11 12  1  0  0  0  0 
 12 13  1  0  0  0  0 
 13 14  2  0  0  0  0 
 14 15  1  0  0  0  0 
 15 16  2  0  0  0  0 
 16 17  1  0  0  0  0 
 17 18  2  0  0  0  0 
 13 18  1  0  0  0  0 
 12 19  1  0  0  0  0 
 19 20  2  0  0  0  0 
 19 21  1  0  0  0  0 
  3 21  1  0  0  0  0 
 22  1  1  0  0  0  0 
 23  1  1  0  0  0  0 
 24  1  1  0  0  0  0 
 25  4  1  0  0  0  0 
 26  6  1  0  0  0  0 
 27  7  1  0  0  0  0 
 28 10  1  0  0  0  0 
 29 14  1  0  0  0  0 
 30 15  1  0  0  0  0 
 31 16  1  0  0  0  0 
 32 17  1  0  0  0  0 
 33 18  1  0  0  0  0 
 34 21  1  0  0  0  0 
 35 21  1  0  0  0  0 
M  CHG  1  12  -1
M  CHG  1  19   1
M  END
> <cdk:Title>
chlordiazepoxide

> <Conformer>
1

> <SuperDrugID>
SD000519

$$$$
