glucagon
  CDK     0628171801

471477  0  0  0  0  0  0  0  0999 V2000
   32.8183   11.0273  -25.6104 N   0  0  2  0  0  0  0  0  0  0  0  0
   31.2848   10.8659  -28.0807 N   0  0  0  0  0  0  0  0  0  0  0  0
   29.5199   13.1080  -29.2164 N   0  0  0  0  0  0  0  0  0  0  0  0
   28.7376   14.7740  -26.2387 N   0  0  0  0  0  0  0  0  0  0  0  0
   26.0481   14.1506  -25.0483 N   0  0  0  0  0  0  0  0  0  0  0  0
   26.1247   11.4800  -23.0121 N   0  0  0  0  0  0  0  0  0  0  0  0
   24.9677    9.6689  -21.0546 N   0  0  0  0  0  0  0  0  0  0  0  0
   24.6545    6.9374  -19.3126 N   0  0  0  0  0  0  0  0  0  0  0  0
   24.1187    5.5150  -16.8525 N   0  0  0  0  0  0  0  0  0  0  0  0
   23.2762    2.8025  -15.5596 N   0  0  0  0  0  0  0  0  0  0  0  0
   23.1705    0.9434  -13.2585 N   0  0  0  0  0  0  0  0  0  0  0  0
   21.6743   -1.3558  -11.7047 N   0  0  0  0  0  0  0  0  0  0  0  0
   21.6429   -3.5909   -9.8475 N   0  0  0  0  0  0  0  0  0  0  0  0
   20.4312   -5.3160   -7.7617 N   0  0  0  0  0  0  0  0  0  0  0  0
   20.0360   -7.9392   -6.0954 N   0  0  0  0  0  0  0  0  0  0  0  0
   19.3306   -9.4455   -3.5592 N   0  0  0  0  0  0  0  0  0  0  0  0
   18.4119  -12.1027   -2.4137 N   0  0  0  0  0  0  0  0  0  0  0  0
   17.9772  -13.9854   -0.2335 N   0  0  0  0  0  0  0  0  0  0  0  0
   16.6871  -16.1042    1.3600 N   0  0  0  0  0  0  0  0  0  0  0  0
   15.7490  -17.8566    4.2738 N   0  0  0  0  0  0  0  0  0  0  0  0
   13.4759  -19.5900    5.0154 N   0  0  0  0  0  0  0  0  0  0  0  0
   12.3836  -22.0383    6.4070 N   0  0  0  0  0  0  0  0  0  0  0  0
    9.9437  -23.2518    7.5151 N   0  0  0  0  0  0  0  0  0  0  0  0
    7.9343  -24.9490    9.8016 N   0  0  0  0  0  0  0  0  0  0  0  0
    5.0878  -24.9282   10.8647 N   0  0  0  0  0  0  0  0  0  0  0  0
    2.6331  -26.2295   11.8054 N   0  0  0  0  0  0  0  0  0  0  0  0
    0.0607  -26.2517   13.6085 N   0  0  0  0  0  0  0  0  0  0  0  0
   -2.3843  -27.1992   15.8670 N   0  0  0  0  0  0  0  0  0  0  0  0
   -4.1345  -25.9831   18.0935 N   0  0  0  0  0  0  0  0  0  0  0  0
   -5.7383  -23.6790   18.8864 O   0  0  0  0  0  0  0  0  0  0  0  0
   32.1244    9.9130  -27.5808 C   0  0  0  0  0  0  0  0  0  0  0  0
   34.3446    9.2380  -26.4705 C   0  0  1  0  0  0  0  0  0  0  0  0
   35.3743    9.6697  -25.5019 C   0  0  0  0  0  0  0  0  0  0  0  0
   35.6773    9.0847  -24.2757 C   0  0  0  0  0  0  0  0  0  0  0  0
   36.6498    9.7921  -23.6818 N   0  0  0  0  0  0  0  0  0  0  0  0
   36.9524   10.7970  -24.5199 C   0  0  0  0  0  0  0  0  0  0  0  0
   36.1909   10.7251  -25.6209 N   0  0  0  0  0  0  0  0  0  0  0  0
   33.3212   10.3619  -26.8257 C   0  0  2  0  0  0  0  0  0  0  0  0
   31.8577    8.6935  -27.7091 O   0  0  0  0  0  0  0  0  0  0  0  0
   29.5053   11.7648  -29.4654 C   0  0  0  0  0  0  0  0  0  0  0  0
   28.9641   10.4200  -27.4109 C   0  0  1  0  0  0  0  0  0  0  0  0
   27.6683   10.0683  -27.8871 O   0  0  0  0  0  0  0  0  0  0  0  0
   29.9593   10.6498  -28.5819 C   0  0  2  0  0  0  0  0  0  0  0  0
   29.0373   11.4664  -30.5882 O   0  0  0  0  0  0  0  0  0  0  0  0
   29.0527   14.7721  -27.5670 C   0  0  0  0  0  0  0  0  0  0  0  0
   31.3555   14.5478  -28.5729 C   0  0  1  0  0  0  0  0  0  0  0  0
   32.1888   15.1697  -27.4195 C   0  0  1  0  0  0  0  0  0  0  0  0
   33.3757   15.9069  -27.9038 C   0  0  0  0  0  0  0  0  0  0  0  0
   34.3529   15.2823  -28.5863 N   0  0  0  0  0  0  0  0  0  0  0  0
   33.5027   17.1321  -27.6790 O   0  0  0  0  0  0  0  0  0  0  0  0
   30.0624   13.8189  -28.0953 C   0  0  2  0  0  0  0  0  0  0  0  0
   28.5373   15.6035  -28.3531 O   0  0  0  0  0  0  0  0  0  0  0  0
   27.0053   15.0175  -24.6075 C   0  0  0  0  0  0  0  0  0  0  0  0
   27.8700   15.7052  -25.5829 C   0  0  2  0  0  0  0  0  0  0  0  0
   27.1734   15.2461  -23.3850 O   0  0  0  0  0  0  0  0  0  0  0  0
   25.6779   11.9972  -24.1888 C   0  0  0  0  0  0  0  0  0  0  0  0
   23.2869   14.8463  -24.7862 O   0  0  0  0  0  0  0  0  0  0  0  0
   25.1606   13.3875  -24.2151 C   0  0  2  0  0  0  0  0  0  0  0  0
   22.6826   12.7249  -23.8011 C   0  0  0  0  0  0  0  0  0  0  0  0
   23.6849   13.4761  -24.7152 C   0  0  1  0  0  0  0  0  0  0  0  0
   25.7105   11.3242  -25.2473 O   0  0  0  0  0  0  0  0  0  0  0  0
   26.2850    9.7949  -21.4025 C   0  0  0  0  0  0  0  0  0  0  0  0
   28.1541   10.1263  -23.1528 C   0  0  2  0  0  0  0  0  0  0  0  0
   28.7658    8.7648  -23.1394 C   0  0  0  0  0  0  0  0  0  0  0  0
   28.4497    7.8242  -24.1497 C   0  0  0  0  0  0  0  0  0  0  0  0
   29.0604    6.5557  -24.1684 C   0  0  0  0  0  0  0  0  0  0  0  0
   29.9908    6.2053  -23.1740 C   0  0  0  0  0  0  0  0  0  0  0  0
   30.3055    7.1211  -22.1555 C   0  0  0  0  0  0  0  0  0  0  0  0
   29.6966    8.3901  -22.1397 C   0  0  0  0  0  0  0  0  0  0  0  0
   26.6301   10.1553  -22.8036 C   0  0  2  0  0  0  0  0  0  0  0  0
   27.1884    9.6223  -20.5490 O   0  0  0  0  0  0  0  0  0  0  0  0
   23.9251    7.9658  -19.8302 C   0  0  0  0  0  0  0  0  0  0  0  0
   24.0011   11.7069  -19.3347 O   0  0  0  0  0  0  0  0  0  0  0  0
   24.4588    9.3480  -19.7511 C   0  0  2  0  0  0  0  0  0  0  0  0
   22.8315   10.1665  -17.8858 C   0  0  0  0  0  0  0  0  0  0  0  0
   23.4038   10.4089  -19.3062 C   0  0  1  0  0  0  0  0  0  0  0  0
   22.8350    7.7526  -20.4122 O   0  0  0  0  0  0  0  0  0  0  0  0
   24.6533    4.9743  -17.9896 C   0  0  0  0  0  0  0  0  0  0  0  0
   24.9331    4.8719  -20.5492 C   0  0  1  0  0  0  0  0  0  0  0  0
   24.5269    3.5124  -20.6888 O   0  0  0  0  0  0  0  0  0  0  0  0
   24.2829    5.5525  -19.3093 C   0  0  2  0  0  0  0  0  0  0  0  0
   25.4272    3.9894  -17.9191 O   0  0  0  0  0  0  0  0  0  0  0  0
   23.1740    4.1197  -15.2109 C   0  0  0  0  0  0  0  0  0  0  0  0
   24.4374    6.2505  -14.5401 C   0  0  1  0  0  0  0  0  0  0  0  0
   24.6436    5.8546  -13.1296 C   0  0  0  0  0  0  0  0  0  0  0  0
   23.7412    6.1740  -12.1722 O   0  0  0  0  0  0  0  0  0  0  0  0
   25.6633    5.2150  -12.7866 O   0  0  0  0  0  0  0  0  0  0  0  0
   24.3067    5.0355  -15.5118 C   0  0  2  0  0  0  0  0  0  0  0  0
   22.1274    4.5699  -14.6849 O   0  0  0  0  0  0  0  0  0  0  0  0
   22.8542    0.6927  -14.5627 C   0  0  0  0  0  0  0  0  0  0  0  0
   21.7472    1.3589  -16.7871 C   0  0  2  0  0  0  0  0  0  0  0  0
   20.5343    0.4843  -16.7446 C   0  0  0  0  0  0  0  0  0  0  0  0
   20.5737   -0.8580  -17.1974 C   0  0  0  0  0  0  0  0  0  0  0  0
   19.4121   -1.6535  -17.2030 C   0  0  0  0  0  0  0  0  0  0  0  0
   18.1892   -1.1205  -16.7567 C   0  0  0  0  0  0  0  0  0  0  0  0
   17.0631   -1.8783  -16.8050 O   0  0  0  0  0  0  0  0  0  0  0  0
   18.1409    0.2010  -16.2745 C   0  0  0  0  0  0  0  0  0  0  0  0
   19.3014    0.9955  -16.2715 C   0  0  0  0  0  0  0  0  0  0  0  0
   22.2747    1.7895  -15.3812 C   0  0  2  0  0  0  0  0  0  0  0  0
   23.0204   -0.4518  -15.0488 O   0  0  0  0  0  0  0  0  0  0  0  0
   22.4778   -0.2986  -11.4056 C   0  0  0  0  0  0  0  0  0  0  0  0
   24.8792    0.5335  -11.5536 C   0  0  1  0  0  0  0  0  0  0  0  0
   25.3486   -0.3950  -10.5796 O   0  0  0  0  0  0  0  0  0  0  0  0
   23.6303   -0.0129  -12.2950 C   0  0  2  0  0  0  0  0  0  0  0  0
   22.2183    0.4624  -10.4422 O   0  0  0  0  0  0  0  0  0  0  0  0
   20.6563   -3.2116  -10.7147 C   0  0  0  0  0  0  0  0  0  0  0  0
   16.7382   -0.9278  -12.1031 C   0  0  2  0  0  0  0  0  0  0  0  0
   17.8808   -1.4845  -11.2066 C   0  0  1  0  0  0  0  0  0  0  0  0
   19.2698   -1.3603  -11.8943 C   0  0  2  0  0  0  0  0  0  0  0  0
   20.4896   -1.7636  -11.0059 C   0  0  2  0  0  0  0  0  0  0  0  0
   14.3362   -0.3426  -12.2878 N   0  0  2  0  0  0  0  0  0  0  0  0
   15.3578   -0.9200  -11.4060 C   0  0  1  0  0  0  0  0  0  0  0  0
   19.9338   -4.0656  -11.2811 O   0  0  0  0  0  0  0  0  0  0  0  0
   21.7418   -5.1981   -8.1154 C   0  0  0  0  0  0  0  0  0  0  0  0
   23.5710   -5.0569   -9.9157 C   0  0  2  0  0  0  0  0  0  0  0  0
   24.1098   -6.4462   -9.8196 C   0  0  0  0  0  0  0  0  0  0  0  0
   25.0715   -6.7973   -8.8404 C   0  0  0  0  0  0  0  0  0  0  0  0
   25.6080   -8.0973   -8.7876 C   0  0  0  0  0  0  0  0  0  0  0  0
   25.1955   -9.0683   -9.7179 C   0  0  0  0  0  0  0  0  0  0  0  0
   25.7495  -10.3069   -9.6904 O   0  0  0  0  0  0  0  0  0  0  0  0
   24.2200   -8.7415  -10.6789 C   0  0  0  0  0  0  0  0  0  0  0  0
   23.6822   -7.4429  -10.7285 C   0  0  0  0  0  0  0  0  0  0  0  0
   22.0605   -4.9311   -9.5416 C   0  0  2  0  0  0  0  0  0  0  0  0
   22.6491   -5.3056   -7.2560 O   0  0  0  0  0  0  0  0  0  0  0  0
   19.2743   -6.8535   -6.4204 C   0  0  0  0  0  0  0  0  0  0  0  0
   17.2035   -3.2150   -4.5974 C   0  0  0  0  0  0  0  0  0  0  0  0
   18.9599   -4.3174   -6.1064 C   0  0  2  0  0  0  0  0  0  0  0  0
   19.9095   -5.5122   -6.4399 C   0  0  2  0  0  0  0  0  0  0  0  0
   19.3186   -4.1640   -3.5330 C   0  0  0  0  0  0  0  0  0  0  0  0
   18.2922   -4.3230   -4.6906 C   0  0  1  0  0  0  0  0  0  0  0  0
   18.0679   -6.9791   -6.7410 O   0  0  0  0  0  0  0  0  0  0  0  0
   20.0414   -9.8050   -4.6642 C   0  0  0  0  0  0  0  0  0  0  0  0
   20.1126  -10.1177   -7.2101 C   0  0  2  0  0  0  0  0  0  0  0  0
   19.6449  -11.5226   -7.2066 C   0  0  0  0  0  0  0  0  0  0  0  0
   20.5191  -12.5531   -7.1233 O   0  0  0  0  0  0  0  0  0  0  0  0
   18.4240  -11.7901   -7.2797 O   0  0  0  0  0  0  0  0  0  0  0  0
   19.5932   -9.2983   -5.9879 C   0  0  2  0  0  0  0  0  0  0  0  0
   21.0362  -10.5638   -4.5690 O   0  0  0  0  0  0  0  0  0  0  0  0
   18.3515  -10.8182   -1.9623 C   0  0  0  0  0  0  0  0  0  0  0  0
   19.6769   -8.7545   -1.2382 C   0  0  1  0  0  0  0  0  0  0  0  0
   19.8566   -9.2282    0.0939 O   0  0  0  0  0  0  0  0  0  0  0  0
   19.5166   -9.9391   -2.2264 C   0  0  2  0  0  0  0  0  0  0  0  0
   17.3223  -10.3663   -1.4054 O   0  0  0  0  0  0  0  0  0  0  0  0
   17.8258  -14.2096   -1.5707 C   0  0  0  0  0  0  0  0  0  0  0  0
   17.0609  -13.4064   -3.9104 C   0  0  2  0  0  0  0  0  0  0  0  0
   15.7724  -14.2390   -4.1553 C   0  0  1  0  0  0  0  0  0  0  0  0
   15.4241  -14.3530   -5.6630 C   0  0  2  0  0  0  0  0  0  0  0  0
   14.2261  -15.0428   -5.8393 N   0  0  0  0  0  0  0  0  0  0  0  0
   13.5989  -15.2858   -6.9337 C   0  0  0  0  0  0  0  0  0  0  0  0
   14.0164  -14.8950   -8.1242 N   0  0  0  0  0  0  0  0  0  0  0  0
   12.4755  -15.9600   -6.8575 N   0  0  0  0  0  0  0  0  0  0  0  0
   17.3581  -13.0779   -2.4132 C   0  0  2  0  0  0  0  0  0  0  0  0
   18.1278  -15.3157   -2.0786 O   0  0  0  0  0  0  0  0  0  0  0  0
   17.7052  -15.2814    1.7448 C   0  0  0  0  0  0  0  0  0  0  0  0
   19.8594  -13.9413    1.2318 C   0  0  2  0  0  0  0  0  0  0  0  0
   20.9585  -14.6956    2.0304 C   0  0  1  0  0  0  0  0  0  0  0  0
   22.1780  -13.7788    2.3226 C   0  0  2  0  0  0  0  0  0  0  0  0
   23.2215  -14.4803    2.9230 N   0  0  0  0  0  0  0  0  0  0  0  0
   24.3748  -14.0285    3.2693 C   0  0  0  0  0  0  0  0  0  0  0  0
   24.7569  -12.7739    3.1083 N   0  0  0  0  0  0  0  0  0  0  0  0
   25.2277  -14.8650    3.8094 N   0  0  0  0  0  0  0  0  0  0  0  0
   18.6718  -14.8151    0.7134 C   0  0  2  0  0  0  0  0  0  0  0  0
   17.8050  -14.9172    2.9415 O   0  0  0  0  0  0  0  0  0  0  0  0
   15.9350  -17.8057    2.9219 C   0  0  0  0  0  0  0  0  0  0  0  0
   14.3602  -16.7786    1.2797 C   0  0  0  0  0  0  0  0  0  0  0  0
   15.6015  -16.5605    2.1823 C   0  0  2  0  0  0  0  0  0  0  0  0
   16.3440  -18.8047    2.2829 O   0  0  0  0  0  0  0  0  0  0  0  0
   14.5349  -19.1836    5.7758 C   0  0  0  0  0  0  0  0  0  0  0  0
   17.0740  -18.8370    6.0864 C   0  0  1  0  0  0  0  0  0  0  0  0
   17.3941  -20.0999    6.9386 C   0  0  1  0  0  0  0  0  0  0  0  0
   18.5250  -19.8978    7.8685 C   0  0  0  0  0  0  0  0  0  0  0  0
   19.7722  -19.6829    7.4143 N   0  0  0  0  0  0  0  0  0  0  0  0
   18.3497  -19.9407    9.1074 O   0  0  0  0  0  0  0  0  0  0  0  0
   15.8605  -19.0138    5.1193 C   0  0  2  0  0  0  0  0  0  0  0  0
   14.3897  -18.9467    6.9993 O   0  0  0  0  0  0  0  0  0  0  0  0
   11.8564  -21.2613    5.4176 C   0  0  0  0  0  0  0  0  0  0  0  0
   11.1722  -18.9323    4.5722 C   0  0  2  0  0  0  0  0  0  0  0  0
    9.7458  -19.0621    4.9449 C   0  0  0  0  0  0  0  0  0  0  0  0
    8.8455  -19.5861    4.0805 O   0  0  0  0  0  0  0  0  0  0  0  0
    9.3404  -18.6947    6.0708 O   0  0  0  0  0  0  0  0  0  0  0  0
   12.1244  -19.7983    5.4532 C   0  0  2  0  0  0  0  0  0  0  0  0
   11.1472  -21.7657    4.5137 O   0  0  0  0  0  0  0  0  0  0  0  0
   11.2454  -23.5969    7.7297 C   0  0  0  0  0  0  0  0  0  0  0  0
   13.5934  -24.1102    6.7866 C   0  0  1  0  0  0  0  0  0  0  0  0
   13.5641  -25.6010    6.7527 C   0  0  0  0  0  0  0  0  0  0  0  0
   13.2570  -26.2810    5.5490 C   0  0  0  0  0  0  0  0  0  0  0  0
   13.2329  -27.6868    5.5009 C   0  0  0  0  0  0  0  0  0  0  0  0
   13.5228  -28.4355    6.6547 C   0  0  0  0  0  0  0  0  0  0  0  0
   13.8375  -27.7775    7.8563 C   0  0  0  0  0  0  0  0  0  0  0  0
   13.8554  -26.3707    7.9048 C   0  0  0  0  0  0  0  0  0  0  0  0
   12.1923  -23.4496    6.5920 C   0  0  2  0  0  0  0  0  0  0  0  0
   11.6346  -23.9821    8.8583 O   0  0  0  0  0  0  0  0  0  0  0  0
    8.0736  -24.3270    8.5924 C   0  0  0  0  0  0  0  0  0  0  0  0
    7.4348  -21.7080    6.7940 C   0  0  0  0  0  0  0  0  0  0  0  0
    8.9081  -23.0963    8.4983 C   0  0  2  0  0  0  0  0  0  0  0  0
    7.0504  -21.4670    9.3001 C   0  0  0  0  0  0  0  0  0  0  0  0
    8.1026  -21.7801    8.1996 C   0  0  2  0  0  0  0  0  0  0  0  0
    7.5083  -24.7762    7.5677 O   0  0  0  0  0  0  0  0  0  0  0  0
    6.1908  -25.6685   11.1857 C   0  0  0  0  0  0  0  0  0  0  0  0
    8.0661  -27.2882   10.4833 C   0  0  1  0  0  0  0  0  0  0  0  0
    7.3260  -28.6365   10.7156 C   0  0  1  0  0  0  0  0  0  0  0  0
    8.2390  -29.7470   11.0666 C   0  0  0  0  0  0  0  0  0  0  0  0
    9.1964  -30.1608   10.2171 N   0  0  0  0  0  0  0  0  0  0  0  0
    8.1319  -30.3423   12.1628 O   0  0  0  0  0  0  0  0  0  0  0  0
    7.1263  -26.0971   10.1098 C   0  0  2  0  0  0  0  0  0  0  0  0
    6.4455  -25.9402   12.3836 O   0  0  0  0  0  0  0  0  0  0  0  0
    2.8177  -24.8951   11.5812 C   0  0  0  0  0  0  0  0  0  0  0  0
    4.2726  -22.7705   11.5623 C   0  0  1  0  0  0  0  0  0  0  0  0
    3.6230  -21.9410   12.6039 C   0  0  0  0  0  0  0  0  0  0  0  0
    2.3757  -21.3143   12.5248 C   0  0  0  0  0  0  0  0  0  0  0  0
    2.1563  -20.6019   13.6436 N   0  0  0  0  0  0  0  0  0  0  0  0
    3.2155  -20.7312   14.4538 C   0  0  0  0  0  0  0  0  0  0  0  0
    4.1491  -21.5663   13.8405 C   0  0  0  0  0  0  0  0  0  0  0  0
    5.3720  -21.8645   14.4703 C   0  0  0  0  0  0  0  0  0  0  0  0
    5.6370  -21.2928   15.7332 C   0  0  0  0  0  0  0  0  0  0  0  0
    4.6887  -20.4448   16.3489 C   0  0  0  0  0  0  0  0  0  0  0  0
    3.4624  -20.1585   15.7125 C   0  0  0  0  0  0  0  0  0  0  0  0
    4.1711  -24.3116   11.7872 C   0  0  2  0  0  0  0  0  0  0  0  0
    1.8546  -24.1738   11.2265 O   0  0  0  0  0  0  0  0  0  0  0  0
    0.9186  -27.1647   13.0670 C   0  0  0  0  0  0  0  0  0  0  0  0
   -0.5881  -28.5086    9.5981 C   0  0  0  0  0  0  0  0  0  0  0  0
    1.6746  -28.2639   10.8637 C   0  0  1  0  0  0  0  0  0  0  0  0
    1.4013  -26.9585   11.6778 C   0  0  2  0  0  0  0  0  0  0  0  0
    0.8968  -30.5410    9.9741 C   0  0  0  0  0  0  0  0  0  0  0  0
    0.4392  -29.1730   10.5587 C   0  0  2  0  0  0  0  0  0  0  0  0
    1.3812  -28.1075   13.7530 O   0  0  0  0  0  0  0  0  0  0  0  0
   -1.8162  -26.2423   15.0766 C   0  0  0  0  0  0  0  0  0  0  0  0
    0.0080  -24.5769   17.0557 C   0  0  1  0  0  0  0  0  0  0  0  0
    0.2203  -24.7974   15.5355 C   0  0  2  0  0  0  0  0  0  0  0  0
   -0.3369  -26.1473   14.9857 C   0  0  2  0  0  0  0  0  0  0  0  0
    0.6423  -23.0307   19.3960 C   0  0  0  0  0  0  0  0  0  0  0  0
    0.8003  -23.0210   17.5855 S   0  0  0  0  0  0  0  0  0  0  0  0
   -2.5181  -25.4273   14.4308 O   0  0  0  0  0  0  0  0  0  0  0  0
   -3.9767  -27.2378   17.5820 C   0  0  0  0  0  0  0  0  0  0  0  0
   -4.2191  -28.7780   15.5306 C   0  0  1  0  0  0  0  0  0  0  0  0
   -5.6722  -29.0564   15.6321 C   0  0  0  0  0  0  0  0  0  0  0  0
   -6.4355  -29.2113   14.5356 N   0  0  0  0  0  0  0  0  0  0  0  0
   -6.2279  -29.1772   16.7465 O   0  0  0  0  0  0  0  0  0  0  0  0
   -3.7846  -27.3967   16.1155 C   0  0  2  0  0  0  0  0  0  0  0  0
   -3.9410  -28.2384   18.3373 O   0  0  0  0  0  0  0  0  0  0  0  0
   -5.5856  -24.8513   19.5528 C   0  0  0  0  0  0  0  0  0  0  0  0
   -1.9424  -25.7025   19.8940 O   0  0  0  0  0  0  0  0  0  0  0  0
   -4.3318  -25.6345   19.4727 C   0  0  2  0  0  0  0  0  0  0  0  0
   -3.2089  -24.3904   21.4727 C   0  0  0  0  0  0  0  0  0  0  0  0
   -3.0889  -24.8551   19.9997 C   0  0  1  0  0  0  0  0  0  0  0  0
   -6.5394  -25.2563   20.2564 O   0  0  0  0  0  0  0  0  0  0  0  0
   33.6265   11.4206  -25.1228 H   0  0  0  0  0  0  0  0  0  0  0  0
   32.4313   10.2966  -25.0078 H   0  0  0  0  0  0  0  0  0  0  0  0
   31.5900   11.7818  -28.0282 H   0  0  0  0  0  0  0  0  0  0  0  0
   29.1412   13.6661  -29.9158 H   0  0  0  0  0  0  0  0  0  0  0  0
   29.1660   14.1034  -25.6812 H   0  0  0  0  0  0  0  0  0  0  0  0
   25.9702   14.0263  -26.0080 H   0  0  0  0  0  0  0  0  0  0  0  0
   26.1076   12.0705  -22.2422 H   0  0  0  0  0  0  0  0  0  0  0  0
   24.3083    9.8051  -21.7541 H   0  0  0  0  0  0  0  0  0  0  0  0
   25.5141    7.1610  -18.9219 H   0  0  0  0  0  0  0  0  0  0  0  0
   23.5392    6.2870  -16.9618 H   0  0  0  0  0  0  0  0  0  0  0  0
   24.1047    2.5240  -15.9801 H   0  0  0  0  0  0  0  0  0  0  0  0
   23.0436    1.8511  -12.9406 H   0  0  0  0  0  0  0  0  0  0  0  0
   21.9187   -1.8783  -12.4849 H   0  0  0  0  0  0  0  0  0  0  0  0
   22.1356   -2.8783   -9.4104 H   0  0  0  0  0  0  0  0  0  0  0  0
   19.7820   -5.2512   -8.4799 H   0  0  0  0  0  0  0  0  0  0  0  0
   20.9747   -7.7769   -5.9116 H   0  0  0  0  0  0  0  0  0  0  0  0
   18.5995   -8.8225   -3.6948 H   0  0  0  0  0  0  0  0  0  0  0  0
   19.2543  -12.3810   -2.8083 H   0  0  0  0  0  0  0  0  0  0  0  0
   17.6395  -13.1399    0.1026 H   0  0  0  0  0  0  0  0  0  0  0  0
   16.6853  -16.3929    0.4330 H   0  0  0  0  0  0  0  0  0  0  0  0
   15.4805  -17.0308    4.7069 H   0  0  0  0  0  0  0  0  0  0  0  0
   13.6561  -19.7555    4.0769 H   0  0  0  0  0  0  0  0  0  0  0  0
   12.9330  -21.5866    7.0668 H   0  0  0  0  0  0  0  0  0  0  0  0
    9.7053  -23.0479    6.5984 H   0  0  0  0  0  0  0  0  0  0  0  0
    8.4269  -24.5629   10.5432 H   0  0  0  0  0  0  0  0  0  0  0  0
    4.9213  -24.7726    9.9214 H   0  0  0  0  0  0  0  0  0  0  0  0
    3.4109  -26.7375   12.0879 H   0  0  0  0  0  0  0  0  0  0  0  0
   -0.2836  -25.5697   13.0099 H   0  0  0  0  0  0  0  0  0  0  0  0
   -1.7781  -27.8038   16.3214 H   0  0  0  0  0  0  0  0  0  0  0  0
   -4.1014  -25.2497   17.4581 H   0  0  0  0  0  0  0  0  0  0  0  0
   -5.0256  -23.3348   18.3055 H   0  0  0  0  0  0  0  0  0  0  0  0
   34.8541    8.9149  -27.3821 H   0  0  0  0  0  0  0  0  0  0  0  0
   33.8160    8.3729  -26.0604 H   0  0  0  0  0  0  0  0  0  0  0  0
   35.2333    8.2534  -23.8847 H   0  0  0  0  0  0  0  0  0  0  0  0
   37.6560   11.5146  -24.3414 H   0  0  0  0  0  0  0  0  0  0  0  0
   36.2186   11.3420  -26.3685 H   0  0  0  0  0  0  0  0  0  0  0  0
   33.8430   11.1120  -27.4270 H   0  0  0  0  0  0  0  0  0  0  0  0
   28.8767   11.3074  -26.7819 H   0  0  0  0  0  0  0  0  0  0  0  0
   29.3118    9.5977  -26.7831 H   0  0  0  0  0  0  0  0  0  0  0  0
   27.3688   10.8458  -28.4033 H   0  0  0  0  0  0  0  0  0  0  0  0
   29.9703    9.7310  -29.1787 H   0  0  0  0  0  0  0  0  0  0  0  0
   31.0923   15.3277  -29.2946 H   0  0  0  0  0  0  0  0  0  0  0  0
   31.9880   13.8234  -29.0949 H   0  0  0  0  0  0  0  0  0  0  0  0
   31.5513   15.8478  -26.8460 H   0  0  0  0  0  0  0  0  0  0  0  0
   32.5257   14.3758  -26.7479 H   0  0  0  0  0  0  0  0  0  0  0  0
   35.1304   15.7785  -28.8853 H   0  0  0  0  0  0  0  0  0  0  0  0
   34.2848   14.3343  -28.7793 H   0  0  0  0  0  0  0  0  0  0  0  0
   30.3402   13.1346  -27.2945 H   0  0  0  0  0  0  0  0  0  0  0  0
   27.2371   16.2583  -26.2822 H   0  0  0  0  0  0  0  0  0  0  0  0
   28.5052   16.4287  -25.0651 H   0  0  0  0  0  0  0  0  0  0  0  0
   22.3769   14.8350  -25.1538 H   0  0  0  0  0  0  0  0  0  0  0  0
   25.1651   13.7896  -23.1959 H   0  0  0  0  0  0  0  0  0  0  0  0
   21.6642   12.8495  -24.1740 H   0  0  0  0  0  0  0  0  0  0  0  0
   22.9089   11.6578  -23.7844 H   0  0  0  0  0  0  0  0  0  0  0  0
   22.7307   13.1112  -22.7812 H   0  0  0  0  0  0  0  0  0  0  0  0
   23.6103   13.0606  -25.7240 H   0  0  0  0  0  0  0  0  0  0  0  0
   28.3047   10.5428  -24.1530 H   0  0  0  0  0  0  0  0  0  0  0  0
   28.6832   10.7947  -22.4661 H   0  0  0  0  0  0  0  0  0  0  0  0
   27.7798    8.0608  -24.8862 H   0  0  0  0  0  0  0  0  0  0  0  0
   28.8307    5.8888  -24.9081 H   0  0  0  0  0  0  0  0  0  0  0  0
   30.4370    5.2855  -23.1899 H   0  0  0  0  0  0  0  0  0  0  0  0
   30.9786    6.8663  -21.4283 H   0  0  0  0  0  0  0  0  0  0  0  0
   29.9409    9.0414  -21.3910 H   0  0  0  0  0  0  0  0  0  0  0  0
   26.1088    9.4501  -23.4593 H   0  0  0  0  0  0  0  0  0  0  0  0
   23.2820   12.3280  -19.0936 H   0  0  0  0  0  0  0  0  0  0  0  0
   25.2614    9.3719  -19.0076 H   0  0  0  0  0  0  0  0  0  0  0  0
   23.6320   10.1681  -17.1433 H   0  0  0  0  0  0  0  0  0  0  0  0
   22.3094    9.2091  -17.8369 H   0  0  0  0  0  0  0  0  0  0  0  0
   22.1195   10.9549  -17.6312 H   0  0  0  0  0  0  0  0  0  0  0  0
   22.5705   10.4183  -20.0153 H   0  0  0  0  0  0  0  0  0  0  0  0
   26.0236    4.9123  -20.4873 H   0  0  0  0  0  0  0  0  0  0  0  0
   24.6272    5.3960  -21.4579 H   0  0  0  0  0  0  0  0  0  0  0  0
   24.9294    3.0426  -19.9290 H   0  0  0  0  0  0  0  0  0  0  0  0
   23.1979    5.4401  -19.4060 H   0  0  0  0  0  0  0  0  0  0  0  0
   23.5442    6.8775  -14.6113 H   0  0  0  0  0  0  0  0  0  0  0  0
   25.2872    6.8687  -14.8418 H   0  0  0  0  0  0  0  0  0  0  0  0
   22.9346    6.6774  -12.4041 H   0  0  0  0  0  0  0  0  0  0  0  0
   25.2416    4.4687  -15.4376 H   0  0  0  0  0  0  0  0  0  0  0  0
   21.4850    2.2546  -17.3571 H   0  0  0  0  0  0  0  0  0  0  0  0
   22.5598    0.8742  -17.3371 H   0  0  0  0  0  0  0  0  0  0  0  0
   21.4494   -1.2634  -17.5348 H   0  0  0  0  0  0  0  0  0  0  0  0
   19.4576   -2.6146  -17.5438 H   0  0  0  0  0  0  0  0  0  0  0  0
   16.3283   -1.2437  -16.9559 H   0  0  0  0  0  0  0  0  0  0  0  0
   17.2597    0.5877  -15.9346 H   0  0  0  0  0  0  0  0  0  0  0  0
   19.2370    1.9563  -15.9324 H   0  0  0  0  0  0  0  0  0  0  0  0
   21.4269    2.1879  -14.8170 H   0  0  0  0  0  0  0  0  0  0  0  0
   24.6570    1.4830  -11.0598 H   0  0  0  0  0  0  0  0  0  0  0  0
   25.6861    0.7040  -12.2692 H   0  0  0  0  0  0  0  0  0  0  0  0
   24.6167   -0.4767   -9.9322 H   0  0  0  0  0  0  0  0  0  0  0  0
   23.9408   -0.9441  -12.7823 H   0  0  0  0  0  0  0  0  0  0  0  0
   16.6691   -1.5325  -13.0117 H   0  0  0  0  0  0  0  0  0  0  0  0
   16.9786    0.0983  -12.3965 H   0  0  0  0  0  0  0  0  0  0  0  0
   17.8996   -0.9292  -10.2645 H   0  0  0  0  0  0  0  0  0  0  0  0
   17.6791   -2.5339  -10.9780 H   0  0  0  0  0  0  0  0  0  0  0  0
   19.4009   -0.3106  -12.1768 H   0  0  0  0  0  0  0  0  0  0  0  0
   19.2710   -1.9492  -12.8168 H   0  0  0  0  0  0  0  0  0  0  0  0
   20.3913   -1.2385  -10.0508 H   0  0  0  0  0  0  0  0  0  0  0  0
   14.6048    0.6283  -12.4675 H   0  0  0  0  0  0  0  0  0  0  0  0
   13.4637   -0.3151  -11.7556 H   0  0  0  0  0  0  0  0  0  0  0  0
   15.0605   -1.9392  -11.1509 H   0  0  0  0  0  0  0  0  0  0  0  0
   15.4016   -0.3241  -10.4919 H   0  0  0  0  0  0  0  0  0  0  0  0
   23.7122   -4.7172  -10.9459 H   0  0  0  0  0  0  0  0  0  0  0  0
   24.1503   -4.3735   -9.2867 H   0  0  0  0  0  0  0  0  0  0  0  0
   25.3936   -6.1055   -8.1607 H   0  0  0  0  0  0  0  0  0  0  0  0
   26.3063   -8.3300   -8.0785 H   0  0  0  0  0  0  0  0  0  0  0  0
   25.6959  -10.6374  -10.6123 H   0  0  0  0  0  0  0  0  0  0  0  0
   23.9067   -9.4461  -11.3481 H   0  0  0  0  0  0  0  0  0  0  0  0
   22.9844   -7.2262  -11.4422 H   0  0  0  0  0  0  0  0  0  0  0  0
   21.5064   -5.6584  -10.1426 H   0  0  0  0  0  0  0  0  0  0  0  0
   17.6478   -2.2267   -4.7377 H   0  0  0  0  0  0  0  0  0  0  0  0
   16.7113   -3.2412   -3.6225 H   0  0  0  0  0  0  0  0  0  0  0  0
   16.4370   -3.3641   -5.3616 H   0  0  0  0  0  0  0  0  0  0  0  0
   18.1704   -4.2859   -6.8639 H   0  0  0  0  0  0  0  0  0  0  0  0
   19.5330   -3.3908   -6.2105 H   0  0  0  0  0  0  0  0  0  0  0  0
   20.7172   -5.5015   -5.7034 H   0  0  0  0  0  0  0  0  0  0  0  0
   19.9041   -3.2500   -3.6590 H   0  0  0  0  0  0  0  0  0  0  0  0
   18.8029   -4.1172   -2.5709 H   0  0  0  0  0  0  0  0  0  0  0  0
   19.9998   -5.0151   -3.4982 H   0  0  0  0  0  0  0  0  0  0  0  0
   17.7807   -5.2793   -4.5488 H   0  0  0  0  0  0  0  0  0  0  0  0
   19.7635   -9.6507   -8.1357 H   0  0  0  0  0  0  0  0  0  0  0  0
   21.2060  -10.0964   -7.2276 H   0  0  0  0  0  0  0  0  0  0  0  0
   21.4806  -12.3797   -7.0631 H   0  0  0  0  0  0  0  0  0  0  0  0
   18.4989   -9.3509   -6.0055 H   0  0  0  0  0  0  0  0  0  0  0  0
   18.8027   -8.0995   -1.2701 H   0  0  0  0  0  0  0  0  0  0  0  0
   20.5568   -8.1661   -1.5073 H   0  0  0  0  0  0  0  0  0  0  0  0
   19.9635   -8.4194    0.6383 H   0  0  0  0  0  0  0  0  0  0  0  0
   20.4271  -10.5427   -2.1439 H   0  0  0  0  0  0  0  0  0  0  0  0
   16.9487  -12.4568   -4.4434 H   0  0  0  0  0  0  0  0  0  0  0  0
   17.9157  -13.9278   -4.3518 H   0  0  0  0  0  0  0  0  0  0  0  0
   15.9009  -15.2409   -3.7375 H   0  0  0  0  0  0  0  0  0  0  0  0
   14.9355  -13.7605   -3.6389 H   0  0  0  0  0  0  0  0  0  0  0  0
   16.2255  -14.8799   -6.1890 H   0  0  0  0  0  0  0  0  0  0  0  0
   15.3246  -13.3486   -6.0863 H   0  0  0  0  0  0  0  0  0  0  0  0
   13.4951  -15.1069   -8.9152 H   0  0  0  0  0  0  0  0  0  0  0  0
   14.8456  -14.3982   -8.2155 H   0  0  0  0  0  0  0  0  0  0  0  0
   11.9745  -16.1643   -7.6628 H   0  0  0  0  0  0  0  0  0  0  0  0
   12.1431  -16.2535   -5.9944 H   0  0  0  0  0  0  0  0  0  0  0  0
   16.4428  -12.6739   -1.9689 H   0  0  0  0  0  0  0  0  0  0  0  0
   20.3468  -13.4888    0.3615 H   0  0  0  0  0  0  0  0  0  0  0  0
   19.4705  -13.1237    1.8466 H   0  0  0  0  0  0  0  0  0  0  0  0
   20.5428  -15.0568    2.9748 H   0  0  0  0  0  0  0  0  0  0  0  0
   21.2935  -15.5598    1.4499 H   0  0  0  0  0  0  0  0  0  0  0  0
   21.8676  -12.9609    2.9794 H   0  0  0  0  0  0  0  0  0  0  0  0
   22.5434  -13.3536    1.3820 H   0  0  0  0  0  0  0  0  0  0  0  0
   25.6449  -12.4979    3.3878 H   0  0  0  0  0  0  0  0  0  0  0  0
   24.1552  -12.1225    2.7132 H   0  0  0  0  0  0  0  0  0  0  0  0
   26.1016  -14.5511    4.0900 H   0  0  0  0  0  0  0  0  0  0  0  0
   24.9883  -15.7977    3.9259 H   0  0  0  0  0  0  0  0  0  0  0  0
   19.0953  -15.6977    0.2238 H   0  0  0  0  0  0  0  0  0  0  0  0
   14.5613  -17.5300    0.5114 H   0  0  0  0  0  0  0  0  0  0  0  0
   13.5060  -17.1064    1.8774 H   0  0  0  0  0  0  0  0  0  0  0  0
   14.0879  -15.8439    0.7837 H   0  0  0  0  0  0  0  0  0  0  0  0
   15.3314  -15.7717    2.8934 H   0  0  0  0  0  0  0  0  0  0  0  0
   16.8943  -17.9877    6.7538 H   0  0  0  0  0  0  0  0  0  0  0  0
   17.9534  -18.6014    5.4791 H   0  0  0  0  0  0  0  0  0  0  0  0
   16.5098  -20.3819    7.5144 H   0  0  0  0  0  0  0  0  0  0  0  0
   17.6393  -20.9366    6.2806 H   0  0  0  0  0  0  0  0  0  0  0  0
   20.5029  -19.5623    8.0421 H   0  0  0  0  0  0  0  0  0  0  0  0
   19.9448  -19.6523    6.4601 H   0  0  0  0  0  0  0  0  0  0  0  0
   16.0532  -19.9147    4.5278 H   0  0  0  0  0  0  0  0  0  0  0  0
   11.4483  -17.8782    4.6645 H   0  0  0  0  0  0  0  0  0  0  0  0
   11.3005  -19.2090    3.5221 H   0  0  0  0  0  0  0  0  0  0  0  0
    9.1372  -19.8951    3.1984 H   0  0  0  0  0  0  0  0  0  0  0  0
   11.9918  -19.4633    6.4874 H   0  0  0  0  0  0  0  0  0  0  0  0
   14.0293  -23.7480    7.7229 H   0  0  0  0  0  0  0  0  0  0  0  0
   14.2644  -23.7743    5.9899 H   0  0  0  0  0  0  0  0  0  0  0  0
   13.0510  -25.7557    4.6956 H   0  0  0  0  0  0  0  0  0  0  0  0
   13.0062  -28.1646    4.6262 H   0  0  0  0  0  0  0  0  0  0  0  0
   13.5064  -29.4571    6.6191 H   0  0  0  0  0  0  0  0  0  0  0  0
   14.0535  -28.3220    8.6947 H   0  0  0  0  0  0  0  0  0  0  0  0
   14.0829  -25.9126    8.7893 H   0  0  0  0  0  0  0  0  0  0  0  0
   11.7274  -23.8980    5.7082 H   0  0  0  0  0  0  0  0  0  0  0  0
    8.1627  -21.8911    6.0034 H   0  0  0  0  0  0  0  0  0  0  0  0
    7.0129  -20.7135    6.6277 H   0  0  0  0  0  0  0  0  0  0  0  0
    6.6298  -22.4389    6.7053 H   0  0  0  0  0  0  0  0  0  0  0  0
    9.3848  -22.9341    9.4721 H   0  0  0  0  0  0  0  0  0  0  0  0
    7.5105  -21.4907   10.2902 H   0  0  0  0  0  0  0  0  0  0  0  0
    6.6238  -20.4725    9.1491 H   0  0  0  0  0  0  0  0  0  0  0  0
    6.2399  -22.1974    9.2704 H   0  0  0  0  0  0  0  0  0  0  0  0
    8.8295  -20.9607    8.2317 H   0  0  0  0  0  0  0  0  0  0  0  0
    8.6461  -27.0383   11.3780 H   0  0  0  0  0  0  0  0  0  0  0  0
    8.7722  -27.4252    9.6589 H   0  0  0  0  0  0  0  0  0  0  0  0
    6.5929  -28.5096   11.5161 H   0  0  0  0  0  0  0  0  0  0  0  0
    6.7830  -28.9149    9.8097 H   0  0  0  0  0  0  0  0  0  0  0  0
    9.7756  -30.9001   10.4629 H   0  0  0  0  0  0  0  0  0  0  0  0
    9.3096  -29.7217    9.3595 H   0  0  0  0  0  0  0  0  0  0  0  0
    6.5371  -26.4097    9.2417 H   0  0  0  0  0  0  0  0  0  0  0  0
    3.8571  -22.5167   10.5826 H   0  0  0  0  0  0  0  0  0  0  0  0
    5.3262  -22.4822   11.5402 H   0  0  0  0  0  0  0  0  0  0  0  0
    1.7282  -21.3727   11.7379 H   0  0  0  0  0  0  0  0  0  0  0  0
    1.3652  -20.0736   13.8306 H   0  0  0  0  0  0  0  0  0  0  0  0
    6.0576  -22.4763   14.0253 H   0  0  0  0  0  0  0  0  0  0  0  0
    6.5234  -21.4901   16.2030 H   0  0  0  0  0  0  0  0  0  0  0  0
    4.8942  -20.0313   17.2605 H   0  0  0  0  0  0  0  0  0  0  0  0
    2.7755  -19.5424   16.1517 H   0  0  0  0  0  0  0  0  0  0  0  0
    4.4560  -24.5177   12.8240 H   0  0  0  0  0  0  0  0  0  0  0  0
   -1.0013  -27.6012   10.0390 H   0  0  0  0  0  0  0  0  0  0  0  0
   -1.4212  -29.1883    9.4028 H   0  0  0  0  0  0  0  0  0  0  0  0
   -0.1176  -28.2534    8.6451 H   0  0  0  0  0  0  0  0  0  0  0  0
    2.1348  -27.9833    9.9114 H   0  0  0  0  0  0  0  0  0  0  0  0
    2.4143  -28.8575   11.4102 H   0  0  0  0  0  0  0  0  0  0  0  0
    0.6668  -26.3667   11.1237 H   0  0  0  0  0  0  0  0  0  0  0  0
    1.5713  -31.0466   10.6686 H   0  0  0  0  0  0  0  0  0  0  0  0
    0.0373  -31.1943    9.8071 H   0  0  0  0  0  0  0  0  0  0  0  0
    1.4173  -30.4016    9.0230 H   0  0  0  0  0  0  0  0  0  0  0  0
   -0.0716  -29.3824   11.5030 H   0  0  0  0  0  0  0  0  0  0  0  0
   -1.0581  -24.5231   17.2830 H   0  0  0  0  0  0  0  0  0  0  0  0
    0.4484  -25.4051   17.6155 H   0  0  0  0  0  0  0  0  0  0  0  0
    1.2990  -24.7730   15.3456 H   0  0  0  0  0  0  0  0  0  0  0  0
   -0.2285  -23.9623   14.9862 H   0  0  0  0  0  0  0  0  0  0  0  0
    0.1150  -26.9520   15.5758 H   0  0  0  0  0  0  0  0  0  0  0  0
    1.1200  -22.1367   19.7973 H   0  0  0  0  0  0  0  0  0  0  0  0
    1.1312  -23.9135   19.8096 H   0  0  0  0  0  0  0  0  0  0  0  0
   -0.4101  -23.0290   19.6768 H   0  0  0  0  0  0  0  0  0  0  0  0
   -3.6796  -29.5822   16.0378 H   0  0  0  0  0  0  0  0  0  0  0  0
   -3.9273  -28.8094   14.4752 H   0  0  0  0  0  0  0  0  0  0  0  0
   -7.3805  -29.4141   14.6241 H   0  0  0  0  0  0  0  0  0  0  0  0
   -6.0410  -29.1216   13.6549 H   0  0  0  0  0  0  0  0  0  0  0  0
   -4.3840  -26.6319   15.6119 H   0  0  0  0  0  0  0  0  0  0  0  0
   -1.1863  -25.1637   20.2088 H   0  0  0  0  0  0  0  0  0  0  0  0
   -4.4478  -26.5315   20.0908 H   0  0  0  0  0  0  0  0  0  0  0  0
   -3.3889  -25.2436   22.1287 H   0  0  0  0  0  0  0  0  0  0  0  0
   -4.0299  -23.6811   21.5869 H   0  0  0  0  0  0  0  0  0  0  0  0
   -2.2860  -23.8969   21.7856 H   0  0  0  0  0  0  0  0  0  0  0  0
   -2.9135  -23.9744   19.3735 H   0  0  0  0  0  0  0  0  0  0  0  0
  2 31  1  0  0  0  0 
  3 40  1  0  0  0  0 
  4 45  1  0  0  0  0 
  5 53  1  0  0  0  0 
  6 56  1  0  0  0  0 
  7 62  1  0  0  0  0 
  8 72  1  0  0  0  0 
  9 78  1  0  0  0  0 
 10 83  1  0  0  0  0 
 11 90  1  0  0  0  0 
 12101  1  0  0  0  0 
 13106  1  0  0  0  0 
 14114  1  0  0  0  0 
 15125  1  0  0  0  0 
 16132  1  0  0  0  0 
 17139  1  0  0  0  0 
 18144  1  0  0  0  0 
 19154  1  0  0  0  0 
 20164  1  0  0  0  0 
 21168  1  0  0  0  0 
 22176  1  0  0  0  0 
 23183  1  0  0  0  0 
 24193  1  0  0  0  0 
 25199  1  0  0  0  0 
 26207  1  0  0  0  0 
 27220  1  0  0  0  0 
 28227  1  0  0  0  0 
 29234  1  0  0  0  0 
 30241  1  0  0  0  0 
 38  1  1  0  0  0  0 
 38 32  1  0  0  0  0 
 32 33  1  0  0  0  0 
 33 34  2  0  0  0  0 
 34 35  1  0  0  0  0 
 35 36  2  0  0  0  0 
 36 37  1  0  0  0  0 
 33 37  1  0  0  0  0 
 38 31  1  0  0  0  0 
 31 39  2  0  0  0  0 
 43  2  1  0  0  0  0 
 43 41  1  0  0  0  0 
 41 42  1  0  0  0  0 
 43 40  1  0  0  0  0 
 40 44  2  0  0  0  0 
 51  3  1  0  0  0  0 
 51 46  1  0  0  0  0 
 46 47  1  0  0  0  0 
 47 48  1  0  0  0  0 
 48 49  1  0  0  0  0 
 48 50  2  0  0  0  0 
 51 45  1  0  0  0  0 
 45 52  2  0  0  0  0 
  4 54  1  0  0  0  0 
 54 53  1  0  0  0  0 
 53 55  2  0  0  0  0 
 60 59  1  0  0  0  0 
 60 57  1  0  0  0  0 
 58 60  1  0  0  0  0 
 58  5  1  0  0  0  0 
 58 56  1  0  0  0  0 
 56 61  2  0  0  0  0 
 70  6  1  0  0  0  0 
 70 63  1  0  0  0  0 
 63 64  1  0  0  0  0 
 64 65  2  0  0  0  0 
 65 66  1  0  0  0  0 
 66 67  2  0  0  0  0 
 67 68  1  0  0  0  0 
 68 69  2  0  0  0  0 
 64 69  1  0  0  0  0 
 70 62  1  0  0  0  0 
 62 71  2  0  0  0  0 
 76 75  1  0  0  0  0 
 76 73  1  0  0  0  0 
 74 76  1  0  0  0  0 
 74  7  1  0  0  0  0 
 74 72  1  0  0  0  0 
 72 77  2  0  0  0  0 
 81  8  1  0  0  0  0 
 81 79  1  0  0  0  0 
 79 80  1  0  0  0  0 
 81 78  1  0  0  0  0 
 78 82  2  0  0  0  0 
 88  9  1  0  0  0  0 
 88 84  1  0  0  0  0 
 84 85  1  0  0  0  0 
 85 86  1  0  0  0  0 
 85 87  2  0  0  0  0 
 88 83  1  0  0  0  0 
 83 89  2  0  0  0  0 
 99 10  1  0  0  0  0 
 99 91  1  0  0  0  0 
 91 92  1  0  0  0  0 
 92 93  2  0  0  0  0 
 93 94  1  0  0  0  0 
 94 95  2  0  0  0  0 
 95 96  1  0  0  0  0 
 95 97  1  0  0  0  0 
 97 98  2  0  0  0  0 
 92 98  1  0  0  0  0 
 99 90  1  0  0  0  0 
 90100  2  0  0  0  0 
104 11  1  0  0  0  0 
104102  1  0  0  0  0 
102103  1  0  0  0  0 
104101  1  0  0  0  0 
101105  2  0  0  0  0 
111112  1  0  0  0  0 
112107  1  0  0  0  0 
107108  1  0  0  0  0 
108109  1  0  0  0  0 
110109  1  0  0  0  0 
110 12  1  0  0  0  0 
110106  1  0  0  0  0 
106113  2  0  0  0  0 
123 13  1  0  0  0  0 
123115  1  0  0  0  0 
115116  1  0  0  0  0 
116117  2  0  0  0  0 
117118  1  0  0  0  0 
118119  2  0  0  0  0 
119120  1  0  0  0  0 
119121  1  0  0  0  0 
121122  2  0  0  0  0 
116122  1  0  0  0  0 
123114  1  0  0  0  0 
114124  2  0  0  0  0 
129130  1  0  0  0  0 
130126  1  0  0  0  0 
130127  1  0  0  0  0 
128127  1  0  0  0  0 
128 14  1  0  0  0  0 
128125  1  0  0  0  0 
125131  2  0  0  0  0 
137 15  1  0  0  0  0 
137133  1  0  0  0  0 
133134  1  0  0  0  0 
134135  1  0  0  0  0 
134136  2  0  0  0  0 
137132  1  0  0  0  0 
132138  2  0  0  0  0 
142 16  1  0  0  0  0 
142140  1  0  0  0  0 
140141  1  0  0  0  0 
142139  1  0  0  0  0 
139143  2  0  0  0  0 
152 17  1  0  0  0  0 
152145  1  0  0  0  0 
145146  1  0  0  0  0 
146147  1  0  0  0  0 
147148  1  0  0  0  0 
148149  2  0  0  0  0 
149150  1  0  0  0  0 
149151  1  0  0  0  0 
152144  1  0  0  0  0 
144153  2  0  0  0  0 
162 18  1  0  0  0  0 
162155  1  0  0  0  0 
155156  1  0  0  0  0 
156157  1  0  0  0  0 
157158  1  0  0  0  0 
158159  2  0  0  0  0 
159160  1  0  0  0  0 
159161  1  0  0  0  0 
162154  1  0  0  0  0 
154163  2  0  0  0  0 
166165  1  0  0  0  0 
166 19  1  0  0  0  0 
166164  1  0  0  0  0 
164167  2  0  0  0  0 
174 20  1  0  0  0  0 
174169  1  0  0  0  0 
169170  1  0  0  0  0 
170171  1  0  0  0  0 
171172  1  0  0  0  0 
171173  2  0  0  0  0 
174168  1  0  0  0  0 
168175  2  0  0  0  0 
181 21  1  0  0  0  0 
181177  1  0  0  0  0 
177178  1  0  0  0  0 
178179  1  0  0  0  0 
178180  2  0  0  0  0 
181176  1  0  0  0  0 
176182  2  0  0  0  0 
191 22  1  0  0  0  0 
191184  1  0  0  0  0 
184185  1  0  0  0  0 
185186  2  0  0  0  0 
186187  1  0  0  0  0 
187188  2  0  0  0  0 
188189  1  0  0  0  0 
189190  2  0  0  0  0 
185190  1  0  0  0  0 
191183  1  0  0  0  0 
183192  2  0  0  0  0 
196197  1  0  0  0  0 
197194  1  0  0  0  0 
195197  1  0  0  0  0 
195 23  1  0  0  0  0 
195193  1  0  0  0  0 
193198  2  0  0  0  0 
205 24  1  0  0  0  0 
205200  1  0  0  0  0 
200201  1  0  0  0  0 
201202  1  0  0  0  0 
202203  1  0  0  0  0 
202204  2  0  0  0  0 
205199  1  0  0  0  0 
199206  2  0  0  0  0 
218 25  1  0  0  0  0 
218208  1  0  0  0  0 
208209  1  0  0  0  0 
209210  2  0  0  0  0 
210211  1  0  0  0  0 
211212  1  0  0  0  0 
212213  1  0  0  0  0 
209213  1  0  0  0  0 
213214  2  0  0  0  0 
214215  1  0  0  0  0 
215216  2  0  0  0  0 
216217  1  0  0  0  0 
212217  2  0  0  0  0 
218207  1  0  0  0  0 
207219  2  0  0  0  0 
224225  1  0  0  0  0 
225221  1  0  0  0  0 
225222  1  0  0  0  0 
223222  1  0  0  0  0 
223 26  1  0  0  0  0 
223220  1  0  0  0  0 
220226  2  0  0  0  0 
231232  1  0  0  0  0 
232228  1  0  0  0  0 
228229  1  0  0  0  0 
230229  1  0  0  0  0 
230 27  1  0  0  0  0 
230227  1  0  0  0  0 
227233  2  0  0  0  0 
239 28  1  0  0  0  0 
239235  1  0  0  0  0 
235236  1  0  0  0  0 
236237  1  0  0  0  0 
236238  2  0  0  0  0 
239234  1  0  0  0  0 
234240  2  0  0  0  0 
245244  1  0  0  0  0 
245242  1  0  0  0  0 
243245  1  0  0  0  0 
243 29  1  0  0  0  0 
243241  1  0  0  0  0 
241246  2  0  0  0  0 
247  1  1  0  0  0  0 
248  1  1  0  0  0  0 
249  2  1  0  0  0  0 
250  3  1  0  0  0  0 
251  4  1  0  0  0  0 
252  5  1  0  0  0  0 
253  6  1  0  0  0  0 
254  7  1  0  0  0  0 
255  8  1  0  0  0  0 
256  9  1  0  0  0  0 
257 10  1  0  0  0  0 
258 11  1  0  0  0  0 
259 12  1  0  0  0  0 
260 13  1  0  0  0  0 
261 14  1  0  0  0  0 
262 15  1  0  0  0  0 
263 16  1  0  0  0  0 
264 17  1  0  0  0  0 
265 18  1  0  0  0  0 
266 19  1  0  0  0  0 
267 20  1  0  0  0  0 
268 21  1  0  0  0  0 
269 22  1  0  0  0  0 
270 23  1  0  0  0  0 
271 24  1  0  0  0  0 
272 25  1  0  0  0  0 
273 26  1  0  0  0  0 
274 27  1  0  0  0  0 
275 28  1  0  0  0  0 
276 29  1  0  0  0  0 
277 30  1  0  0  0  0 
278 32  1  0  0  0  0 
279 32  1  0  0  0  0 
280 34  1  0  0  0  0 
281 36  1  0  0  0  0 
282 37  1  0  0  0  0 
 38283  1  0  0  0  0 
284 41  1  0  0  0  0 
285 41  1  0  0  0  0 
286 42  1  0  0  0  0 
 43287  1  0  0  0  0 
288 46  1  0  0  0  0 
289 46  1  0  0  0  0 
290 47  1  0  0  0  0 
291 47  1  0  0  0  0 
292 49  1  0  0  0  0 
293 49  1  0  0  0  0 
 51294  1  0  0  0  0 
295 54  1  0  0  0  0 
296 54  1  0  0  0  0 
297 57  1  0  0  0  0 
 58298  1  0  0  0  0 
299 59  1  0  0  0  0 
300 59  1  0  0  0  0 
301 59  1  0  0  0  0 
 60302  1  0  0  0  0 
303 63  1  0  0  0  0 
304 63  1  0  0  0  0 
305 65  1  0  0  0  0 
306 66  1  0  0  0  0 
307 67  1  0  0  0  0 
308 68  1  0  0  0  0 
309 69  1  0  0  0  0 
 70310  1  0  0  0  0 
311 73  1  0  0  0  0 
 74312  1  0  0  0  0 
313 75  1  0  0  0  0 
314 75  1  0  0  0  0 
315 75  1  0  0  0  0 
 76316  1  0  0  0  0 
317 79  1  0  0  0  0 
318 79  1  0  0  0  0 
319 80  1  0  0  0  0 
 81320  1  0  0  0  0 
321 84  1  0  0  0  0 
322 84  1  0  0  0  0 
323 86  1  0  0  0  0 
 88324  1  0  0  0  0 
325 91  1  0  0  0  0 
326 91  1  0  0  0  0 
327 93  1  0  0  0  0 
328 94  1  0  0  0  0 
329 96  1  0  0  0  0 
330 97  1  0  0  0  0 
331 98  1  0  0  0  0 
 99332  1  0  0  0  0 
333102  1  0  0  0  0 
334102  1  0  0  0  0 
335103  1  0  0  0  0 
104336  1  0  0  0  0 
337107  1  0  0  0  0 
338107  1  0  0  0  0 
339108  1  0  0  0  0 
340108  1  0  0  0  0 
341109  1  0  0  0  0 
342109  1  0  0  0  0 
110343  1  0  0  0  0 
344111  1  0  0  0  0 
345111  1  0  0  0  0 
346112  1  0  0  0  0 
347112  1  0  0  0  0 
348115  1  0  0  0  0 
349115  1  0  0  0  0 
350117  1  0  0  0  0 
351118  1  0  0  0  0 
352120  1  0  0  0  0 
353121  1  0  0  0  0 
354122  1  0  0  0  0 
123355  1  0  0  0  0 
356126  1  0  0  0  0 
357126  1  0  0  0  0 
358126  1  0  0  0  0 
359127  1  0  0  0  0 
360127  1  0  0  0  0 
128361  1  0  0  0  0 
362129  1  0  0  0  0 
363129  1  0  0  0  0 
364129  1  0  0  0  0 
365130  1  0  0  0  0 
366133  1  0  0  0  0 
367133  1  0  0  0  0 
368135  1  0  0  0  0 
137369  1  0  0  0  0 
370140  1  0  0  0  0 
371140  1  0  0  0  0 
372141  1  0  0  0  0 
142373  1  0  0  0  0 
374145  1  0  0  0  0 
375145  1  0  0  0  0 
376146  1  0  0  0  0 
377146  1  0  0  0  0 
378147  1  0  0  0  0 
379147  1  0  0  0  0 
380150  1  0  0  0  0 
381150  1  0  0  0  0 
382151  1  0  0  0  0 
383151  1  0  0  0  0 
152384  1  0  0  0  0 
385155  1  0  0  0  0 
386155  1  0  0  0  0 
387156  1  0  0  0  0 
388156  1  0  0  0  0 
389157  1  0  0  0  0 
390157  1  0  0  0  0 
391160  1  0  0  0  0 
392160  1  0  0  0  0 
393161  1  0  0  0  0 
394161  1  0  0  0  0 
162395  1  0  0  0  0 
396165  1  0  0  0  0 
397165  1  0  0  0  0 
398165  1  0  0  0  0 
166399  1  0  0  0  0 
400169  1  0  0  0  0 
401169  1  0  0  0  0 
402170  1  0  0  0  0 
403170  1  0  0  0  0 
404172  1  0  0  0  0 
405172  1  0  0  0  0 
174406  1  0  0  0  0 
407177  1  0  0  0  0 
408177  1  0  0  0  0 
409179  1  0  0  0  0 
181410  1  0  0  0  0 
411184  1  0  0  0  0 
412184  1  0  0  0  0 
413186  1  0  0  0  0 
414187  1  0  0  0  0 
415188  1  0  0  0  0 
416189  1  0  0  0  0 
417190  1  0  0  0  0 
191418  1  0  0  0  0 
419194  1  0  0  0  0 
420194  1  0  0  0  0 
421194  1  0  0  0  0 
195422  1  0  0  0  0 
423196  1  0  0  0  0 
424196  1  0  0  0  0 
425196  1  0  0  0  0 
426197  1  0  0  0  0 
427200  1  0  0  0  0 
428200  1  0  0  0  0 
429201  1  0  0  0  0 
430201  1  0  0  0  0 
431203  1  0  0  0  0 
432203  1  0  0  0  0 
205433  1  0  0  0  0 
434208  1  0  0  0  0 
435208  1  0  0  0  0 
436210  1  0  0  0  0 
437211  1  0  0  0  0 
438214  1  0  0  0  0 
439215  1  0  0  0  0 
440216  1  0  0  0  0 
441217  1  0  0  0  0 
218442  1  0  0  0  0 
443221  1  0  0  0  0 
444221  1  0  0  0  0 
445221  1  0  0  0  0 
446222  1  0  0  0  0 
447222  1  0  0  0  0 
223448  1  0  0  0  0 
449224  1  0  0  0  0 
450224  1  0  0  0  0 
451224  1  0  0  0  0 
452225  1  0  0  0  0 
453228  1  0  0  0  0 
454228  1  0  0  0  0 
455229  1  0  0  0  0 
456229  1  0  0  0  0 
230457  1  0  0  0  0 
458231  1  0  0  0  0 
459231  1  0  0  0  0 
460231  1  0  0  0  0 
461235  1  0  0  0  0 
462235  1  0  0  0  0 
463237  1  0  0  0  0 
464237  1  0  0  0  0 
239465  1  0  0  0  0 
466242  1  0  0  0  0 
243467  1  0  0  0  0 
468244  1  0  0  0  0 
469244  1  0  0  0  0 
470244  1  0  0  0  0 
245471  1  0  0  0  0 
M  END
> <cdk:Title>
glucagon

> <Conformer>
1

> <SuperDrugID>
SD002610

$$$$
