treprostinil
  CDK     0628171801

 62 64  0  0  0  0  0  0  0  0999 V2000
    1.9320    2.7635   -1.7427 C   0  0  2  0  0  0  0  0  0  0  0  0
    2.9655    2.1845   -0.7369 C   0  0  1  0  0  0  0  0  0  0  0  0
    0.7758    3.5730   -1.0706 C   0  0  2  0  0  0  0  0  0  0  0  0
    4.1539    1.4224   -1.3963 C   0  0  2  0  0  0  0  0  0  0  0  0
   -0.3109    4.0576   -2.0944 C   0  0  2  0  0  0  0  0  0  0  0  0
    1.2585    4.8691   -0.3411 C   0  0  2  0  0  0  0  0  0  0  0  0
    5.1475    0.9102   -0.3130 C   0  0  2  0  0  0  0  0  0  0  0  0
    4.8553    2.2699   -2.3086 O   0  0  0  0  0  0  0  0  0  0  0  0
   -0.0158    5.5670   -2.2535 C   0  0  2  0  0  0  0  0  0  0  0  0
   -1.7705    3.7593   -1.6003 C   0  0  1  0  0  0  0  0  0  0  0  0
    1.2330    4.7282    1.0786 O   0  0  0  0  0  0  0  0  0  0  0  0
    0.3422    6.0136   -0.8220 C   0  0  2  0  0  0  0  0  0  0  0  0
    6.3406    0.0834   -0.8657 C   0  0  1  0  0  0  0  0  0  0  0  0
   -1.1420    6.3672   -2.9612 C   0  0  2  0  0  0  0  0  0  0  0  0
   -2.8266    4.7095   -2.0423 C   0  0  0  0  0  0  0  0  0  0  0  0
    7.3146   -0.3694    0.2576 C   0  0  1  0  0  0  0  0  0  0  0  0
   -2.5402    5.9467   -2.6811 C   0  0  0  0  0  0  0  0  0  0  0  0
   -4.1723    4.3685   -1.7671 C   0  0  0  0  0  0  0  0  0  0  0  0
    8.5196   -1.1751   -0.2955 C   0  0  2  0  0  0  0  0  0  0  0  0
   -3.6135    6.7929   -3.0734 C   0  0  0  0  0  0  0  0  0  0  0  0
   -5.2234    5.2289   -2.1221 C   0  0  0  0  0  0  0  0  0  0  0  0
    9.5074   -1.6312    0.8023 C   0  0  0  0  0  0  0  0  0  0  0  0
   -3.3856    7.9857   -3.7082 O   0  0  0  0  0  0  0  0  0  0  0  0
   -4.9443    6.4363   -2.7782 C   0  0  0  0  0  0  0  0  0  0  0  0
   -3.4228    7.8895   -5.1459 C   0  0  1  0  0  0  0  0  0  0  0  0
   -3.0557    9.1959   -5.7100 C   0  0  0  0  0  0  0  0  0  0  0  0
   -3.9013    9.8551   -6.5348 O   0  0  0  0  0  0  0  0  0  0  0  0
   -1.9490    9.7143   -5.4377 O   0  0  0  0  0  0  0  0  0  0  0  0
   -0.1761    3.5841   -3.0757 H   0  0  0  0  0  0  0  0  0  0  0  0
    0.8890    5.6831   -2.8685 H   0  0  0  0  0  0  0  0  0  0  0  0
    1.4932    1.9266   -2.2933 H   0  0  0  0  0  0  0  0  0  0  0  0
    2.4442    3.4098   -2.4586 H   0  0  0  0  0  0  0  0  0  0  0  0
    3.3756    2.9962   -0.1312 H   0  0  0  0  0  0  0  0  0  0  0  0
    2.4408    1.4969   -0.0668 H   0  0  0  0  0  0  0  0  0  0  0  0
    0.3165    2.9022   -0.3357 H   0  0  0  0  0  0  0  0  0  0  0  0
    3.7651    0.5680   -1.9581 H   0  0  0  0  0  0  0  0  0  0  0  0
    2.2847    5.1181   -0.6302 H   0  0  0  0  0  0  0  0  0  0  0  0
    4.6012    0.2844    0.3997 H   0  0  0  0  0  0  0  0  0  0  0  0
    5.5445    1.7749    0.2278 H   0  0  0  0  0  0  0  0  0  0  0  0
    4.2349    2.4203   -3.0524 H   0  0  0  0  0  0  0  0  0  0  0  0
   -2.0369    2.7444   -2.0404 H   0  0  0  0  0  0  0  0  0  0  0  0
   -1.7907    3.8519   -0.4670 H   0  0  0  0  0  0  0  0  0  0  0  0
    1.6057    5.5667    1.4252 H   0  0  0  0  0  0  0  0  0  0  0  0
    0.8646    6.9748   -0.8230 H   0  0  0  0  0  0  0  0  0  0  0  0
   -0.5503    6.0881   -0.1923 H   0  0  0  0  0  0  0  0  0  0  0  0
    5.9545   -0.8001   -1.3826 H   0  0  0  0  0  0  0  0  0  0  0  0
    6.8927    0.6900   -1.5888 H   0  0  0  0  0  0  0  0  0  0  0  0
   -0.9924    6.2726   -4.0380 H   0  0  0  0  0  0  0  0  0  0  0  0
   -1.0160    7.4231   -2.7106 H   0  0  0  0  0  0  0  0  0  0  0  0
    7.6897    0.5129    0.7847 H   0  0  0  0  0  0  0  0  0  0  0  0
    6.7701   -0.9893    0.9757 H   0  0  0  0  0  0  0  0  0  0  0  0
   -4.3962    3.4869   -1.2972 H   0  0  0  0  0  0  0  0  0  0  0  0
    9.0660   -0.5582   -1.0141 H   0  0  0  0  0  0  0  0  0  0  0  0
    8.1501   -2.0621   -0.8169 H   0  0  0  0  0  0  0  0  0  0  0  0
   -6.1905    4.9736   -1.9029 H   0  0  0  0  0  0  0  0  0  0  0  0
   10.3278   -2.1925    0.3479 H   0  0  0  0  0  0  0  0  0  0  0  0
    9.9252   -0.7669    1.3242 H   0  0  0  0  0  0  0  0  0  0  0  0
    9.0032   -2.2766    1.5255 H   0  0  0  0  0  0  0  0  0  0  0  0
   -5.7144    7.0561   -3.0400 H   0  0  0  0  0  0  0  0  0  0  0  0
   -2.7121    7.1481   -5.5221 H   0  0  0  0  0  0  0  0  0  0  0  0
   -4.4257    7.6111   -5.4827 H   0  0  0  0  0  0  0  0  0  0  0  0
   -3.6440   10.7182   -6.9194 H   0  0  0  0  0  0  0  0  0  0  0  0
  1  2  1  0  0  0  0 
  4  2  1  0  0  0  0 
  3  1  1  0  0  0  0 
  5  3  1  0  0  0  0 
  3  6  1  0  0  0  0 
  4  7  1  0  0  0  0 
  4  8  1  0  0  0  0 
  9  5  1  0  0  0  0 
  5 10  1  0  0  0  0 
  5 29  1  0  0  0  0 
  6 11  1  0  0  0  0 
  6 12  1  0  0  0  0 
  7 13  1  0  0  0  0 
  9 12  1  0  0  0  0 
  9 14  1  0  0  0  0 
  9 30  1  0  0  0  0 
 10 15  1  0  0  0  0 
 13 16  1  0  0  0  0 
 14 17  1  0  0  0  0 
 15 17  2  0  0  0  0 
 15 18  1  0  0  0  0 
 16 19  1  0  0  0  0 
 17 20  1  0  0  0  0 
 18 21  2  0  0  0  0 
 19 22  1  0  0  0  0 
 20 23  1  0  0  0  0 
 20 24  2  0  0  0  0 
 21 24  1  0  0  0  0 
 23 25  1  0  0  0  0 
 25 26  1  0  0  0  0 
 26 27  1  0  0  0  0 
 26 28  2  0  0  0  0 
  1 31  1  0  0  0  0 
  1 32  1  0  0  0  0 
  2 33  1  0  0  0  0 
  2 34  1  0  0  0  0 
  3 35  1  0  0  0  0 
  4 36  1  0  0  0  0 
  6 37  1  0  0  0  0 
  7 38  1  0  0  0  0 
  7 39  1  0  0  0  0 
  8 40  1  0  0  0  0 
 10 41  1  0  0  0  0 
 10 42  1  0  0  0  0 
 11 43  1  0  0  0  0 
 12 44  1  0  0  0  0 
 12 45  1  0  0  0  0 
 13 46  1  0  0  0  0 
 13 47  1  0  0  0  0 
 14 48  1  0  0  0  0 
 14 49  1  0  0  0  0 
 16 50  1  0  0  0  0 
 16 51  1  0  0  0  0 
 18 52  1  0  0  0  0 
 19 53  1  0  0  0  0 
 19 54  1  0  0  0  0 
 21 55  1  0  0  0  0 
 22 56  1  0  0  0  0 
 22 57  1  0  0  0  0 
 22 58  1  0  0  0  0 
 24 59  1  0  0  0  0 
 25 60  1  0  0  0  0 
 25 61  1  0  0  0  0 
 27 62  1  0  0  0  0 
M  END
> <cdk:Title>
treprostinil

> <Conformer>
1

> <SuperDrugID>
SD002451

$$$$
