penamecillin
  CDK     0628171801

 50 52  0  0  0  0  0  0  0  0999 V2000
   -3.6379    3.0519    1.7300 C   0  0  0  0  0  0  0  0  0  0  0  0
   -4.1609    4.2702    1.3872 O   0  0  0  0  0  0  0  0  0  0  0  0
   -3.8622    2.5587    2.8616 O   0  0  0  0  0  0  0  0  0  0  0  0
   -2.7906    2.3245    0.7515 C   0  0  2  0  0  0  0  0  0  0  0  0
   -5.0228    5.0736    2.2063 C   0  0  1  0  0  0  0  0  0  0  0  0
   -3.2389    0.9812    0.6277 N   0  0  0  0  0  0  0  0  0  0  0  0
   -1.2544    2.1518    1.0892 C   0  0  2  0  0  0  0  0  0  0  0  0
   -5.2656    6.3599    1.6225 O   0  0  0  0  0  0  0  0  0  0  0  0
   -2.8238   -0.1040    1.4249 C   0  0  2  0  0  0  0  0  0  0  0  0
   -3.8249    0.2575   -0.3200 C   0  0  0  0  0  0  0  0  0  0  0  0
   -1.0659    0.3624    1.4949 S   0  0  0  0  0  0  0  0  0  0  0  0
   -4.3295    7.3125    1.3284 C   0  0  0  0  0  0  0  0  0  0  0  0
   -3.4572   -1.0070    0.3176 C   0  0  1  0  0  0  0  0  0  0  0  0
   -4.3871    0.5446   -1.4003 O   0  0  0  0  0  0  0  0  0  0  0  0
   -4.7520    8.6246    0.8157 C   0  0  0  0  0  0  0  0  0  0  0  0
   -3.1055    7.0945    1.4852 O   0  0  0  0  0  0  0  0  0  0  0  0
   -2.5661   -1.8023   -0.4684 N   0  0  0  0  0  0  0  0  0  0  0  0
   -2.0648   -3.0078   -0.0823 C   0  0  0  0  0  0  0  0  0  0  0  0
   -1.2245   -3.7842   -1.0180 C   0  0  1  0  0  0  0  0  0  0  0  0
   -2.3177   -3.4896    1.0478 O   0  0  0  0  0  0  0  0  0  0  0  0
    0.1649   -3.2620   -1.0965 C   0  0  0  0  0  0  0  0  0  0  0  0
    1.0452   -3.4145    0.0025 C   0  0  0  0  0  0  0  0  0  0  0  0
    0.6462   -2.6317   -2.2688 C   0  0  0  0  0  0  0  0  0  0  0  0
    2.3801   -2.9774   -0.0802 C   0  0  0  0  0  0  0  0  0  0  0  0
    1.9811   -2.1935   -2.3495 C   0  0  0  0  0  0  0  0  0  0  0  0
    2.8493   -2.3704   -1.2579 C   0  0  0  0  0  0  0  0  0  0  0  0
   -3.3261   -0.1159    2.3963 H   0  0  0  0  0  0  0  0  0  0  0  0
   -0.7283    3.0035    2.2858 C   0  0  0  0  0  0  0  0  0  0  0  0
   -0.3617    2.4267   -0.1615 C   0  0  0  0  0  0  0  0  0  0  0  0
   -2.9102    2.8242   -0.2163 H   0  0  0  0  0  0  0  0  0  0  0  0
   -5.9811    4.5648    2.3227 H   0  0  0  0  0  0  0  0  0  0  0  0
   -4.5783    5.2123    3.1956 H   0  0  0  0  0  0  0  0  0  0  0  0
   -4.3425   -1.5515    0.6606 H   0  0  0  0  0  0  0  0  0  0  0  0
   -5.8390    8.6779    0.7390 H   0  0  0  0  0  0  0  0  0  0  0  0
   -4.3220    8.7990   -0.1721 H   0  0  0  0  0  0  0  0  0  0  0  0
   -4.4145    9.4132    1.4909 H   0  0  0  0  0  0  0  0  0  0  0  0
   -2.3255   -1.4753   -1.3511 H   0  0  0  0  0  0  0  0  0  0  0  0
   -1.1799   -4.8334   -0.7072 H   0  0  0  0  0  0  0  0  0  0  0  0
   -1.7082   -3.7808   -1.9985 H   0  0  0  0  0  0  0  0  0  0  0  0
    0.7198   -3.8542    0.8673 H   0  0  0  0  0  0  0  0  0  0  0  0
    0.0292   -2.4913   -3.0724 H   0  0  0  0  0  0  0  0  0  0  0  0
    3.0095   -3.1032    0.7155 H   0  0  0  0  0  0  0  0  0  0  0  0
    2.3211   -1.7479   -3.2032 H   0  0  0  0  0  0  0  0  0  0  0  0
    3.8209   -2.0577   -1.3197 H   0  0  0  0  0  0  0  0  0  0  0  0
   -1.2447    2.7423    3.2102 H   0  0  0  0  0  0  0  0  0  0  0  0
   -0.8818    4.0670    2.0897 H   0  0  0  0  0  0  0  0  0  0  0  0
    0.3391    2.8349    2.4466 H   0  0  0  0  0  0  0  0  0  0  0  0
   -0.6877    1.8249   -1.0136 H   0  0  0  0  0  0  0  0  0  0  0  0
   -0.4173    3.4804   -0.4474 H   0  0  0  0  0  0  0  0  0  0  0  0
    0.6846    2.1839    0.0433 H   0  0  0  0  0  0  0  0  0  0  0  0
  1  2  1  0  0  0  0 
  1  3  2  0  0  0  0 
  2  5  1  0  0  0  0 
  4  1  1  0  0  0  0 
  4  6  1  0  0  0  0 
  4  7  1  0  0  0  0 
  5  8  1  0  0  0  0 
  9  6  1  0  0  0  0 
  6 10  1  0  0  0  0 
  7 11  1  0  0  0  0 
  8 12  1  0  0  0  0 
  9 11  1  0  0  0  0 
 13  9  1  0  0  0  0 
  9 27  1  0  0  0  0 
 13 10  1  0  0  0  0 
 10 14  2  0  0  0  0 
 12 15  1  0  0  0  0 
 12 16  2  0  0  0  0 
 13 17  1  0  0  0  0 
 17 18  1  0  0  0  0 
 18 19  1  0  0  0  0 
 18 20  2  0  0  0  0 
 19 21  1  0  0  0  0 
 21 22  2  0  0  0  0 
 21 23  1  0  0  0  0 
 22 24  1  0  0  0  0 
 23 25  2  0  0  0  0 
 24 26  2  0  0  0  0 
 25 26  1  0  0  0  0 
  7 28  1  0  0  0  0 
  7 29  1  0  0  0  0 
  4 30  1  0  0  0  0 
  5 31  1  0  0  0  0 
  5 32  1  0  0  0  0 
 13 33  1  0  0  0  0 
 15 34  1  0  0  0  0 
 15 35  1  0  0  0  0 
 15 36  1  0  0  0  0 
 17 37  1  0  0  0  0 
 19 38  1  0  0  0  0 
 19 39  1  0  0  0  0 
 22 40  1  0  0  0  0 
 23 41  1  0  0  0  0 
 24 42  1  0  0  0  0 
 25 43  1  0  0  0  0 
 26 44  1  0  0  0  0 
 28 45  1  0  0  0  0 
 28 46  1  0  0  0  0 
 28 47  1  0  0  0  0 
 29 48  1  0  0  0  0 
 29 49  1  0  0  0  0 
 29 50  1  0  0  0  0 
M  END
> <cdk:Title>
penamecillin

> <Conformer>
1

> <SuperDrugID>
SD001862

$$$$
