pramiracetam
  CDK     0628171801

 46 46  0  0  0  0  0  0  0  0999 V2000
    2.9832    1.2648    0.3215 C   0  0  1  0  0  0  0  0  0  0  0  0
    2.9551    0.8978    1.7537 C   0  0  0  0  0  0  0  0  0  0  0  0
    2.9670    0.0992   -0.5220 N   0  0  0  0  0  0  0  0  0  0  0  0
    1.7585    0.6264    2.3493 N   0  0  0  0  0  0  0  0  0  0  0  0
    4.0317    0.8641    2.3958 O   0  0  0  0  0  0  0  0  0  0  0  0
    4.0379   -0.6870   -0.7781 C   0  0  0  0  0  0  0  0  0  0  0  0
    1.7934   -0.3794   -1.1713 C   0  0  2  0  0  0  0  0  0  0  0  0
    1.5502    0.3370    3.7348 C   0  0  1  0  0  0  0  0  0  0  0  0
    5.1926   -0.4854   -0.3358 O   0  0  0  0  0  0  0  0  0  0  0  0
    3.7269   -1.8288   -1.6323 C   0  0  2  0  0  0  0  0  0  0  0  0
    2.2186   -1.6698   -1.9074 C   0  0  2  0  0  0  0  0  0  0  0  0
    1.9623    1.5113    4.6696 C   0  0  2  0  0  0  0  0  0  0  0  0
    1.1691    1.6435    5.9419 N   0  0  0  0  0  0  0  0  0  0  0  0
    1.2516    0.5809    7.0172 C   0  0  1  0  0  0  0  0  0  0  0  0
    0.1370    2.7536    5.9816 C   0  0  1  0  0  0  0  0  0  0  0  0
    0.1527   -0.5054    6.8854 C   0  0  0  0  0  0  0  0  0  0  0  0
    2.6474   -0.0825    7.1888 C   0  0  0  0  0  0  0  0  0  0  0  0
   -1.0598    2.5131    5.0191 C   0  0  0  0  0  0  0  0  0  0  0  0
   -0.3757    3.1651    7.3904 C   0  0  0  0  0  0  0  0  0  0  0  0
    2.1230    1.9063    0.1048 H   0  0  0  0  0  0  0  0  0  0  0  0
    3.8723    1.8649    0.1044 H   0  0  0  0  0  0  0  0  0  0  0  0
    0.9683    0.6507    1.7861 H   0  0  0  0  0  0  0  0  0  0  0  0
    1.4219    0.3671   -1.8789 H   0  0  0  0  0  0  0  0  0  0  0  0
    1.0129   -0.5940   -0.4378 H   0  0  0  0  0  0  0  0  0  0  0  0
    0.4865    0.1315    3.8501 H   0  0  0  0  0  0  0  0  0  0  0  0
    2.0865   -0.5757    4.0004 H   0  0  0  0  0  0  0  0  0  0  0  0
    3.9361   -2.7626   -1.1058 H   0  0  0  0  0  0  0  0  0  0  0  0
    4.3093   -1.7874   -2.5564 H   0  0  0  0  0  0  0  0  0  0  0  0
    2.0301   -1.5825   -2.9808 H   0  0  0  0  0  0  0  0  0  0  0  0
    1.6642   -2.5320   -1.5235 H   0  0  0  0  0  0  0  0  0  0  0  0
    1.8909    2.4416    4.0984 H   0  0  0  0  0  0  0  0  0  0  0  0
    3.0207    1.4091    4.9168 H   0  0  0  0  0  0  0  0  0  0  0  0
    1.0888    1.0666    7.9795 H   0  0  0  0  0  0  0  0  0  0  0  0
    0.6391    3.6547    5.6144 H   0  0  0  0  0  0  0  0  0  0  0  0
    0.3111   -1.1125    5.9956 H   0  0  0  0  0  0  0  0  0  0  0  0
    0.1657   -1.1655    7.7554 H   0  0  0  0  0  0  0  0  0  0  0  0
   -0.8354   -0.0519    6.8289 H   0  0  0  0  0  0  0  0  0  0  0  0
    2.6519   -0.7424    8.0604 H   0  0  0  0  0  0  0  0  0  0  0  0
    3.4117    0.6827    7.3374 H   0  0  0  0  0  0  0  0  0  0  0  0
    2.9091   -0.6818    6.3171 H   0  0  0  0  0  0  0  0  0  0  0  0
   -1.6891    3.4054    4.9712 H   0  0  0  0  0  0  0  0  0  0  0  0
   -0.7107    2.3026    4.0076 H   0  0  0  0  0  0  0  0  0  0  0  0
   -1.6726    1.6784    5.3572 H   0  0  0  0  0  0  0  0  0  0  0  0
   -1.0514    4.0193    7.3186 H   0  0  0  0  0  0  0  0  0  0  0  0
    0.4635    3.4528    8.0267 H   0  0  0  0  0  0  0  0  0  0  0  0
   -0.9203    2.3487    7.8648 H   0  0  0  0  0  0  0  0  0  0  0  0
  1  2  1  0  0  0  0 
  1  3  1  0  0  0  0 
  2  4  1  0  0  0  0 
  2  5  2  0  0  0  0 
  3  6  1  0  0  0  0 
  3  7  1  0  0  0  0 
  4  8  1  0  0  0  0 
  6  9  2  0  0  0  0 
  6 10  1  0  0  0  0 
  7 11  1  0  0  0  0 
  8 12  1  0  0  0  0 
 10 11  1  0  0  0  0 
 12 13  1  0  0  0  0 
 13 14  1  0  0  0  0 
 13 15  1  0  0  0  0 
 14 16  1  0  0  0  0 
 14 17  1  0  0  0  0 
 15 18  1  0  0  0  0 
 15 19  1  0  0  0  0 
  1 20  1  0  0  0  0 
  1 21  1  0  0  0  0 
  4 22  1  0  0  0  0 
  7 23  1  0  0  0  0 
  7 24  1  0  0  0  0 
  8 25  1  0  0  0  0 
  8 26  1  0  0  0  0 
 10 27  1  0  0  0  0 
 10 28  1  0  0  0  0 
 11 29  1  0  0  0  0 
 11 30  1  0  0  0  0 
 12 31  1  0  0  0  0 
 12 32  1  0  0  0  0 
 14 33  1  0  0  0  0 
 15 34  1  0  0  0  0 
 16 35  1  0  0  0  0 
 16 36  1  0  0  0  0 
 16 37  1  0  0  0  0 
 17 38  1  0  0  0  0 
 17 39  1  0  0  0  0 
 17 40  1  0  0  0  0 
 18 41  1  0  0  0  0 
 18 42  1  0  0  0  0 
 18 43  1  0  0  0  0 
 19 44  1  0  0  0  0 
 19 45  1  0  0  0  0 
 19 46  1  0  0  0  0 
M  END
> <cdk:Title>
pramiracetam

> <Conformer>
1

> <SuperDrugID>
SD002003

$$$$
