picoperine
  CDK     0628171801

 47 49  0  0  0  0  0  0  0  0999 V2000
   -3.0255    1.7524    3.5025 N   0  0  0  0  0  0  0  0  0  0  0  0
   -3.6418    0.5969    2.8799 C   0  0  1  0  0  0  0  0  0  0  0  0
   -3.8009    2.7118    4.2593 C   0  0  2  0  0  0  0  0  0  0  0  0
   -1.6781    1.9721    3.3565 C   0  0  0  0  0  0  0  0  0  0  0  0
   -4.6535    0.9717    1.8603 C   0  0  0  0  0  0  0  0  0  0  0  0
   -4.2669    2.1928    5.6477 C   0  0  2  0  0  0  0  0  0  0  0  0
   -0.7438    1.2346    4.1195 C   0  0  0  0  0  0  0  0  0  0  0  0
   -1.2106    2.9587    2.4580 C   0  0  0  0  0  0  0  0  0  0  0  0
   -5.9752    0.4699    1.8818 C   0  0  0  0  0  0  0  0  0  0  0  0
   -4.2990    1.8394    0.8712 N   0  0  0  0  0  0  0  0  0  0  0  0
   -4.7382    3.3466    6.4733 N   0  0  2  0  0  0  0  0  0  0  0  0
    0.6356    1.4779    3.9797 C   0  0  0  0  0  0  0  0  0  0  0  0
    0.1688    3.1980    2.3183 C   0  0  0  0  0  0  0  0  0  0  0  0
   -6.8916    0.8958    0.9026 C   0  0  0  0  0  0  0  0  0  0  0  0
   -5.1580    2.2631   -0.0911 C   0  0  0  0  0  0  0  0  0  0  0  0
   -4.5199    3.2486    7.9479 C   0  0  2  0  0  0  0  0  0  0  0  0
   -6.0888    3.8938    6.1312 C   0  0  1  0  0  0  0  0  0  0  0  0
    1.0920    2.4565    3.0777 C   0  0  0  0  0  0  0  0  0  0  0  0
   -6.4859    1.8001   -0.0950 C   0  0  0  0  0  0  0  0  0  0  0  0
   -4.6089    4.6625    8.5784 C   0  0  2  0  0  0  0  0  0  0  0  0
   -6.2010    5.3376    6.6792 C   0  0  1  0  0  0  0  0  0  0  0  0
   -5.9353    5.3774    8.2067 C   0  0  1  0  0  0  0  0  0  0  0  0
   -2.8981   -0.0267    2.3725 H   0  0  0  0  0  0  0  0  0  0  0  0
   -4.0873   -0.0249    3.6612 H   0  0  0  0  0  0  0  0  0  0  0  0
   -4.6664    3.0067    3.6656 H   0  0  0  0  0  0  0  0  0  0  0  0
   -3.2260    3.6316    4.4278 H   0  0  0  0  0  0  0  0  0  0  0  0
   -3.4094    1.7082    6.1258 H   0  0  0  0  0  0  0  0  0  0  0  0
   -5.0564    1.4429    5.5412 H   0  0  0  0  0  0  0  0  0  0  0  0
   -1.0631    0.5242    4.7828 H   0  0  0  0  0  0  0  0  0  0  0  0
   -1.8737    3.5056    1.9025 H   0  0  0  0  0  0  0  0  0  0  0  0
   -6.2730   -0.1991    2.5967 H   0  0  0  0  0  0  0  0  0  0  0  0
    1.3088    0.9445    4.5346 H   0  0  0  0  0  0  0  0  0  0  0  0
    0.5008    3.9099    1.6642 H   0  0  0  0  0  0  0  0  0  0  0  0
   -7.8522    0.5472    0.9190 H   0  0  0  0  0  0  0  0  0  0  0  0
   -4.8350    2.9159   -0.8069 H   0  0  0  0  0  0  0  0  0  0  0  0
   -3.5281    2.8465    8.1688 H   0  0  0  0  0  0  0  0  0  0  0  0
   -5.2623    2.5841    8.3998 H   0  0  0  0  0  0  0  0  0  0  0  0
   -6.2465    3.9280    5.0525 H   0  0  0  0  0  0  0  0  0  0  0  0
   -6.8767    3.2653    6.5573 H   0  0  0  0  0  0  0  0  0  0  0  0
    2.0946    2.6326    2.9754 H   0  0  0  0  0  0  0  0  0  0  0  0
   -7.1467    2.1147   -0.8092 H   0  0  0  0  0  0  0  0  0  0  0  0
   -3.7661    5.2612    8.2199 H   0  0  0  0  0  0  0  0  0  0  0  0
   -4.5268    4.5849    9.6653 H   0  0  0  0  0  0  0  0  0  0  0  0
   -5.4674    5.9679    6.1658 H   0  0  0  0  0  0  0  0  0  0  0  0
   -7.1965    5.7374    6.4695 H   0  0  0  0  0  0  0  0  0  0  0  0
   -6.7637    4.8928    8.7307 H   0  0  0  0  0  0  0  0  0  0  0  0
   -5.8949    6.4190    8.5373 H   0  0  0  0  0  0  0  0  0  0  0  0
  1  2  1  0  0  0  0 
  1  3  1  0  0  0  0 
  1  4  1  0  0  0  0 
  2  5  1  0  0  0  0 
  3  6  1  0  0  0  0 
  4  7  2  0  0  0  0 
  4  8  1  0  0  0  0 
  5  9  2  0  0  0  0 
  5 10  1  0  0  0  0 
  6 11  1  0  0  0  0 
  7 12  1  0  0  0  0 
  8 13  2  0  0  0  0 
  9 14  1  0  0  0  0 
 10 15  2  0  0  0  0 
 11 16  1  0  0  0  0 
 11 17  1  0  0  0  0 
 12 18  2  0  0  0  0 
 13 18  1  0  0  0  0 
 14 19  2  0  0  0  0 
 15 19  1  0  0  0  0 
 16 20  1  0  0  0  0 
 17 21  1  0  0  0  0 
 20 22  1  0  0  0  0 
 21 22  1  0  0  0  0 
  2 23  1  0  0  0  0 
  2 24  1  0  0  0  0 
  3 25  1  0  0  0  0 
  3 26  1  0  0  0  0 
  6 27  1  0  0  0  0 
  6 28  1  0  0  0  0 
  7 29  1  0  0  0  0 
  8 30  1  0  0  0  0 
  9 31  1  0  0  0  0 
 12 32  1  0  0  0  0 
 13 33  1  0  0  0  0 
 14 34  1  0  0  0  0 
 15 35  1  0  0  0  0 
 16 36  1  0  0  0  0 
 16 37  1  0  0  0  0 
 17 38  1  0  0  0  0 
 17 39  1  0  0  0  0 
 18 40  1  0  0  0  0 
 19 41  1  0  0  0  0 
 20 42  1  0  0  0  0 
 20 43  1  0  0  0  0 
 21 44  1  0  0  0  0 
 21 45  1  0  0  0  0 
 22 46  1  0  0  0  0 
 22 47  1  0  0  0  0 
M  END
> <cdk:Title>
picoperine

> <Conformer>
1

> <SuperDrugID>
SD002990

$$$$
