hydroquinone
  CDK     0628171801

 14 14  0  0  0  0  0  0  0  0999 V2000
    2.8895    2.6642    3.9391 O   0  0  0  0  0  0  0  0  0  0  0  0
    2.8845    2.2401    2.6506 C   0  0  0  0  0  0  0  0  0  0  0  0
    2.4366    3.1152    1.6423 C   0  0  0  0  0  0  0  0  0  0  0  0
    2.4279    2.7001    0.2975 C   0  0  0  0  0  0  0  0  0  0  0  0
    2.8621    1.4032   -0.0454 C   0  0  0  0  0  0  0  0  0  0  0  0
    2.8571    0.9791   -1.3339 O   0  0  0  0  0  0  0  0  0  0  0  0
    3.3100    0.5282    0.9629 C   0  0  0  0  0  0  0  0  0  0  0  0
    3.3187    0.9432    2.3077 C   0  0  0  0  0  0  0  0  0  0  0  0
    3.2284    1.9124    4.4672 H   0  0  0  0  0  0  0  0  0  0  0  0
    2.1142    4.0547    1.8852 H   0  0  0  0  0  0  0  0  0  0  0  0
    2.1076    3.3435   -0.4287 H   0  0  0  0  0  0  0  0  0  0  0  0
    2.5182    1.7309   -1.8620 H   0  0  0  0  0  0  0  0  0  0  0  0
    3.6325   -0.4113    0.7200 H   0  0  0  0  0  0  0  0  0  0  0  0
    3.6390    0.2998    3.0339 H   0  0  0  0  0  0  0  0  0  0  0  0
  1  2  1  0  0  0  0 
  2  3  2  0  0  0  0 
  3  4  1  0  0  0  0 
  4  5  2  0  0  0  0 
  5  6  1  0  0  0  0 
  5  7  1  0  0  0  0 
  7  8  2  0  0  0  0 
  2  8  1  0  0  0  0 
  1  9  1  0  0  0  0 
  3 10  1  0  0  0  0 
  4 11  1  0  0  0  0 
  6 12  1  0  0  0  0 
  7 13  1  0  0  0  0 
  8 14  1  0  0  0  0 
M  END
> <cdk:Title>
hydroquinone

> <Conformer>
1

> <SuperDrugID>
SD002837

$$$$
