cefacetrile
  CDK     0628171802

 36 37  0  0  0  0  0  0  0  0999 V2000
   -0.2613   -2.8115    1.9656 C   0  0  0  0  0  0  0  0  0  0  0  0
    0.8111   -2.2672    1.3449 O   0  0  0  0  0  0  0  0  0  0  0  0
   -0.9111   -2.0522    2.7220 O   0  0  0  0  0  0  0  0  0  0  0  0
   -0.6626   -4.1378    1.7810 C   0  0  0  0  0  0  0  0  0  0  0  0
   -1.9929   -4.3470    1.6880 N   0  0  0  0  0  0  0  0  0  0  0  0
    0.1918   -5.1964    1.6746 C   0  0  0  0  0  0  0  0  0  0  0  0
   -2.7891   -5.4908    1.9538 C   0  0  1  0  0  0  0  0  0  0  0  0
   -3.0111   -3.6354    1.1839 C   0  0  0  0  0  0  0  0  0  0  0  0
    1.6522   -5.0488    1.6771 C   0  0  1  0  0  0  0  0  0  0  0  0
   -0.2677   -6.5914    1.5178 C   0  0  2  0  0  0  0  0  0  0  0  0
   -3.9936   -4.7049    1.3447 C   0  0  1  0  0  0  0  0  0  0  0  0
   -2.0085   -6.8402    1.0185 S   0  0  0  0  0  0  0  0  0  0  0  0
   -3.0887   -2.4951    0.6724 O   0  0  0  0  0  0  0  0  0  0  0  0
    2.0254   -4.8036    0.3156 O   0  0  0  0  0  0  0  0  0  0  0  0
   -4.4955   -5.1804    0.0942 N   0  0  0  0  0  0  0  0  0  0  0  0
    3.2804   -4.6289   -0.1839 C   0  0  0  0  0  0  0  0  0  0  0  0
   -5.5387   -4.6312   -0.5905 C   0  0  0  0  0  0  0  0  0  0  0  0
    3.4573   -4.4799   -1.6358 C   0  0  0  0  0  0  0  0  0  0  0  0
    4.2803   -4.5879    0.5705 O   0  0  0  0  0  0  0  0  0  0  0  0
   -5.9012   -5.1506   -1.9254 C   0  0  2  0  0  0  0  0  0  0  0  0
   -6.1854   -3.6661   -0.1157 O   0  0  0  0  0  0  0  0  0  0  0  0
   -6.2379   -6.4783   -1.8903 C   0  0  0  0  0  0  0  0  0  0  0  0
   -6.5177   -7.5914   -1.8591 N   0  0  0  0  0  0  0  0  0  0  0  0
   -2.8687   -5.6981    3.0265 H   0  0  0  0  0  0  0  0  0  0  0  0
    1.0579   -1.3356    1.5246 H   0  0  0  0  0  0  0  0  0  0  0  0
    1.9892   -4.2521    2.3438 H   0  0  0  0  0  0  0  0  0  0  0  0
    2.1535   -5.9621    2.0138 H   0  0  0  0  0  0  0  0  0  0  0  0
   -0.1263   -7.0957    2.4764 H   0  0  0  0  0  0  0  0  0  0  0  0
    0.3334   -7.1114    0.7669 H   0  0  0  0  0  0  0  0  0  0  0  0
   -4.7625   -4.4573    2.0822 H   0  0  0  0  0  0  0  0  0  0  0  0
   -4.0433   -5.9335   -0.3168 H   0  0  0  0  0  0  0  0  0  0  0  0
    2.5162   -4.6590   -2.1602 H   0  0  0  0  0  0  0  0  0  0  0  0
    4.1950   -5.1977   -1.9989 H   0  0  0  0  0  0  0  0  0  0  0  0
    3.7992   -3.4696   -1.8621 H   0  0  0  0  0  0  0  0  0  0  0  0
   -5.0547   -5.0152   -2.6019 H   0  0  0  0  0  0  0  0  0  0  0  0
   -6.7520   -4.6008   -2.3363 H   0  0  0  0  0  0  0  0  0  0  0  0
  1  2  1  0  0  0  0 
  1  3  2  0  0  0  0 
  1  4  1  0  0  0  0 
  4  5  1  0  0  0  0 
  4  6  2  0  0  0  0 
  7  5  1  0  0  0  0 
  5  8  1  0  0  0  0 
  6  9  1  0  0  0  0 
  6 10  1  0  0  0  0 
 11  7  1  0  0  0  0 
  7 12  1  0  0  0  0 
  7 24  1  0  0  0  0 
 11  8  1  0  0  0  0 
  8 13  2  0  0  0  0 
  9 14  1  0  0  0  0 
 10 12  1  0  0  0  0 
 11 15  1  0  0  0  0 
 14 16  1  0  0  0  0 
 15 17  1  0  0  0  0 
 16 18  1  0  0  0  0 
 16 19  2  0  0  0  0 
 17 20  1  0  0  0  0 
 17 21  2  0  0  0  0 
 20 22  1  0  0  0  0 
 22 23  3  0  0  0  0 
  2 25  1  0  0  0  0 
  9 26  1  0  0  0  0 
  9 27  1  0  0  0  0 
 10 28  1  0  0  0  0 
 10 29  1  0  0  0  0 
 11 30  1  0  0  0  0 
 15 31  1  0  0  0  0 
 18 32  1  0  0  0  0 
 18 33  1  0  0  0  0 
 18 34  1  0  0  0  0 
 20 35  1  0  0  0  0 
 20 36  1  0  0  0  0 
M  END
> <cdk:Title>
cefacetrile

> <Conformer>
1

> <SuperDrugID>
SD000453

$$$$
