sobuzoxane
  CDK     0628171801

 70 71  0  0  0  0  0  0  0  0999 V2000
   -1.8305   -2.4471   -2.3728 C   0  0  1  0  0  0  0  0  0  0  0  0
   -1.8155   -1.0656   -1.9816 O   0  0  0  0  0  0  0  0  0  0  0  0
   -2.5642   -3.2908   -1.4446 N   0  0  0  0  0  0  0  0  0  0  0  0
   -1.2129   -0.0605   -2.6856 C   0  0  0  0  0  0  0  0  0  0  0  0
   -3.6063   -4.0913   -1.8874 C   0  0  0  0  0  0  0  0  0  0  0  0
   -2.1820   -3.3421   -0.1091 C   0  0  0  0  0  0  0  0  0  0  0  0
   -1.2181    1.1980   -2.1588 O   0  0  0  0  0  0  0  0  0  0  0  0
   -0.6578   -0.2898   -3.7874 O   0  0  0  0  0  0  0  0  0  0  0  0
   -4.0587   -4.0236   -3.0554 O   0  0  0  0  0  0  0  0  0  0  0  0
   -4.1869   -5.1423   -1.0253 C   0  0  2  0  0  0  0  0  0  0  0  0
   -1.1900   -2.6961    0.3082 O   0  0  0  0  0  0  0  0  0  0  0  0
   -2.8861   -4.1763    0.8996 C   0  0  1  0  0  0  0  0  0  0  0  0
   -0.6859    2.3697   -2.7977 C   0  0  1  0  0  0  0  0  0  0  0  0
   -4.1733   -4.7452    0.4071 N   0  0  0  0  0  0  0  0  0  0  0  0
   -0.6335    3.5429   -1.7328 C   0  0  1  0  0  0  0  0  0  0  0  0
   -5.4573   -4.3602    1.0721 C   0  0  1  0  0  0  0  0  0  0  0  0
    0.1012    4.7758   -2.3231 C   0  0  0  0  0  0  0  0  0  0  0  0
   -2.0536    3.9273   -1.2391 C   0  0  0  0  0  0  0  0  0  0  0  0
   -5.8691   -2.8647    0.9379 C   0  0  2  0  0  0  0  0  0  0  0  0
   -7.3407   -2.6586    1.1670 N   0  0  1  0  0  0  0  0  0  0  0  0
   -7.8312   -2.7922    2.5760 C   0  0  1  0  0  0  0  0  0  0  0  0
   -7.9547   -1.4779    0.4910 C   0  0  2  0  0  0  0  0  0  0  0  0
   -7.9000   -1.5004    3.3135 C   0  0  0  0  0  0  0  0  0  0  0  0
   -7.7666   -0.2370    1.2864 C   0  0  0  0  0  0  0  0  0  0  0  0
   -8.0275   -1.5868    4.5592 O   0  0  0  0  0  0  0  0  0  0  0  0
   -7.8467   -0.2636    2.6729 N   0  0  0  0  0  0  0  0  0  0  0  0
   -7.5600    0.8179    0.6412 O   0  0  0  0  0  0  0  0  0  0  0  0
   -7.8808    0.9407    3.4916 C   0  0  2  0  0  0  0  0  0  0  0  0
   -7.8975    2.2207    2.8242 O   0  0  0  0  0  0  0  0  0  0  0  0
   -7.8996    3.4425    3.4453 C   0  0  0  0  0  0  0  0  0  0  0  0
   -7.9301    4.5787    2.6823 O   0  0  0  0  0  0  0  0  0  0  0  0
   -7.8666    3.5231    4.6965 O   0  0  0  0  0  0  0  0  0  0  0  0
   -7.8714    5.9302    3.1764 C   0  0  2  0  0  0  0  0  0  0  0  0
   -7.9100    6.9811    2.0273 C   0  0  1  0  0  0  0  0  0  0  0  0
   -7.7973    8.4314    2.5775 C   0  0  0  0  0  0  0  0  0  0  0  0
   -6.8097    6.7267    0.9624 C   0  0  0  0  0  0  0  0  0  0  0  0
   -2.2292   -2.4913   -3.3887 H   0  0  0  0  0  0  0  0  0  0  0  0
   -0.8007   -2.8084   -2.4236 H   0  0  0  0  0  0  0  0  0  0  0  0
   -3.5621   -6.0311   -1.1340 H   0  0  0  0  0  0  0  0  0  0  0  0
   -5.1898   -5.4120   -1.3648 H   0  0  0  0  0  0  0  0  0  0  0  0
   -2.2278   -5.0056    1.1679 H   0  0  0  0  0  0  0  0  0  0  0  0
   -3.0494   -3.5844    1.8026 H   0  0  0  0  0  0  0  0  0  0  0  0
    0.3981    2.1255   -3.0258 H   0  0  0  0  0  0  0  0  0  0  0  0
   -1.3690    2.5549   -3.7218 H   0  0  0  0  0  0  0  0  0  0  0  0
   -0.0573    3.1960   -0.8680 H   0  0  0  0  0  0  0  0  0  0  0  0
   -6.2635   -4.9853    0.6756 H   0  0  0  0  0  0  0  0  0  0  0  0
   -5.3682   -4.6110    2.1315 H   0  0  0  0  0  0  0  0  0  0  0  0
    1.1131    4.5045   -2.6301 H   0  0  0  0  0  0  0  0  0  0  0  0
   -0.4329    5.1663   -3.1916 H   0  0  0  0  0  0  0  0  0  0  0  0
    0.1783    5.5666   -1.5748 H   0  0  0  0  0  0  0  0  0  0  0  0
   -2.6793    4.2530   -2.0729 H   0  0  0  0  0  0  0  0  0  0  0  0
   -2.5316    3.0730   -0.7570 H   0  0  0  0  0  0  0  0  0  0  0  0
   -1.9957    4.7369   -0.5088 H   0  0  0  0  0  0  0  0  0  0  0  0
   -5.6052   -2.5487   -0.0740 H   0  0  0  0  0  0  0  0  0  0  0  0
   -5.2892   -2.2514    1.6358 H   0  0  0  0  0  0  0  0  0  0  0  0
   -8.8392   -3.2132    2.5471 H   0  0  0  0  0  0  0  0  0  0  0  0
   -7.2109   -3.4965    3.1378 H   0  0  0  0  0  0  0  0  0  0  0  0
   -9.0299   -1.6566    0.4034 H   0  0  0  0  0  0  0  0  0  0  0  0
   -7.5733   -1.3608   -0.5282 H   0  0  0  0  0  0  0  0  0  0  0  0
   -7.0122    0.9260    4.1580 H   0  0  0  0  0  0  0  0  0  0  0  0
   -8.7859    0.9075    4.1081 H   0  0  0  0  0  0  0  0  0  0  0  0
   -6.9538    6.0565    3.7573 H   0  0  0  0  0  0  0  0  0  0  0  0
   -8.7236    6.0944    3.8428 H   0  0  0  0  0  0  0  0  0  0  0  0
   -8.8804    6.8937    1.5276 H   0  0  0  0  0  0  0  0  0  0  0  0
   -7.8867    9.1544    1.7632 H   0  0  0  0  0  0  0  0  0  0  0  0
   -6.8346    8.5839    3.0713 H   0  0  0  0  0  0  0  0  0  0  0  0
   -8.5943    8.6329    3.2960 H   0  0  0  0  0  0  0  0  0  0  0  0
   -6.8686    7.4756    0.1692 H   0  0  0  0  0  0  0  0  0  0  0  0
   -6.9404    5.7450    0.5053 H   0  0  0  0  0  0  0  0  0  0  0  0
   -5.8160    6.7752    1.4132 H   0  0  0  0  0  0  0  0  0  0  0  0
  1  2  1  0  0  0  0 
  1  3  1  0  0  0  0 
  2  4  1  0  0  0  0 
  3  5  1  0  0  0  0 
  3  6  1  0  0  0  0 
  4  7  1  0  0  0  0 
  4  8  2  0  0  0  0 
  5  9  2  0  0  0  0 
  5 10  1  0  0  0  0 
  6 11  2  0  0  0  0 
  6 12  1  0  0  0  0 
  7 13  1  0  0  0  0 
 10 14  1  0  0  0  0 
 12 14  1  0  0  0  0 
 13 15  1  0  0  0  0 
 14 16  1  0  0  0  0 
 15 17  1  0  0  0  0 
 15 18  1  0  0  0  0 
 16 19  1  0  0  0  0 
 19 20  1  0  0  0  0 
 20 21  1  0  0  0  0 
 20 22  1  0  0  0  0 
 21 23  1  0  0  0  0 
 22 24  1  0  0  0  0 
 23 25  2  0  0  0  0 
 23 26  1  0  0  0  0 
 24 26  1  0  0  0  0 
 24 27  2  0  0  0  0 
 26 28  1  0  0  0  0 
 28 29  1  0  0  0  0 
 29 30  1  0  0  0  0 
 30 31  1  0  0  0  0 
 30 32  2  0  0  0  0 
 31 33  1  0  0  0  0 
 33 34  1  0  0  0  0 
 34 35  1  0  0  0  0 
 34 36  1  0  0  0  0 
 37  1  1  0  0  0  0 
 38  1  1  0  0  0  0 
 39 10  1  0  0  0  0 
 40 10  1  0  0  0  0 
 41 12  1  0  0  0  0 
 42 12  1  0  0  0  0 
 43 13  1  0  0  0  0 
 44 13  1  0  0  0  0 
 45 15  1  0  0  0  0 
 46 16  1  0  0  0  0 
 47 16  1  0  0  0  0 
 48 17  1  0  0  0  0 
 49 17  1  0  0  0  0 
 50 17  1  0  0  0  0 
 51 18  1  0  0  0  0 
 52 18  1  0  0  0  0 
 53 18  1  0  0  0  0 
 54 19  1  0  0  0  0 
 55 19  1  0  0  0  0 
 56 21  1  0  0  0  0 
 57 21  1  0  0  0  0 
 58 22  1  0  0  0  0 
 59 22  1  0  0  0  0 
 60 28  1  0  0  0  0 
 61 28  1  0  0  0  0 
 62 33  1  0  0  0  0 
 63 33  1  0  0  0  0 
 64 34  1  0  0  0  0 
 65 35  1  0  0  0  0 
 66 35  1  0  0  0  0 
 67 35  1  0  0  0  0 
 68 36  1  0  0  0  0 
 69 36  1  0  0  0  0 
 70 36  1  0  0  0  0 
M  END
> <cdk:Title>
sobuzoxane

> <Conformer>
1

> <SuperDrugID>
SD002205

$$$$
