lypressin
  CDK     0628171801

138141  0  0  0  0  0  0  0  0999 V2000
   -3.8087   -8.8603   -0.9772 H   0  0  0  0  0  0  0  0  0  0  0  0
   -4.6260   -8.3522   -1.3206 N   0  0  1  0  0  0  0  0  0  0  0  0
   -4.9815   -8.6441    1.3836 N   0  0  0  0  0  0  0  0  0  0  0  0
   -6.0848   -7.5492    4.1077 N   0  0  0  0  0  0  0  0  0  0  0  0
   -9.0536   -6.0633    5.2099 N   0  0  0  0  0  0  0  0  0  0  0  0
  -10.2529   -3.6817    4.3164 N   0  0  0  0  0  0  0  0  0  0  0  0
   -8.4491   -2.9011    1.4653 N   0  0  0  0  0  0  0  0  0  0  0  0
   -9.7564   -5.4898    0.4152 N   0  0  0  0  0  0  0  0  0  0  0  0
  -12.7554   -6.4227   -0.7133 N   0  0  0  0  0  0  0  0  0  0  0  0
  -14.7112   -4.8623    0.8896 N   0  0  0  0  0  0  0  0  0  0  0  0
  -14.2597   -2.1140    1.2488 N   0  0  0  0  0  0  0  0  0  0  0  0
   -4.8213   -7.3651    0.9129 C   0  0  0  0  0  0  0  0  0  0  0  0
   -5.9519   -4.4991   -0.6844 S   0  0  0  0  0  0  0  0  0  0  0  0
   -5.8838   -6.2645   -1.1501 C   0  0  2  0  0  0  0  0  0  0  0  0
   -4.7220   -7.0982   -0.5493 C   0  0  2  0  0  0  0  0  0  0  0  0
   -4.6699   -6.3988    1.6963 O   0  0  0  0  0  0  0  0  0  0  0  0
   -5.8875   -8.8267    3.6810 C   0  0  0  0  0  0  0  0  0  0  0  0
   -3.3808   -8.8229    3.2740 C   0  0  2  0  0  0  0  0  0  0  0  0
   -3.0521   -9.4918    4.5648 C   0  0  0  0  0  0  0  0  0  0  0  0
   -3.0053   -8.7539    5.7721 C   0  0  0  0  0  0  0  0  0  0  0  0
   -2.6941   -9.3832    6.9911 C   0  0  0  0  0  0  0  0  0  0  0  0
   -2.4112  -10.7600    7.0207 C   0  0  0  0  0  0  0  0  0  0  0  0
   -2.1011  -11.3486    8.2035 O   0  0  0  0  0  0  0  0  0  0  0  0
   -2.4511  -11.5066    5.8272 C   0  0  0  0  0  0  0  0  0  0  0  0
   -2.7717  -10.8785    4.6086 C   0  0  0  0  0  0  0  0  0  0  0  0
   -4.8023   -9.1523    2.7158 C   0  0  2  0  0  0  0  0  0  0  0  0
   -6.5505   -9.7670    4.1792 O   0  0  0  0  0  0  0  0  0  0  0  0
   -8.2917   -7.1905    5.1435 C   0  0  0  0  0  0  0  0  0  0  0  0
   -6.2102   -5.7447    5.6863 C   0  0  2  0  0  0  0  0  0  0  0  0
   -6.7106   -5.1783    6.9740 C   0  0  0  0  0  0  0  0  0  0  0  0
   -6.5369   -5.8773    8.1927 C   0  0  0  0  0  0  0  0  0  0  0  0
   -7.0226   -5.3466    9.4030 C   0  0  0  0  0  0  0  0  0  0  0  0
   -7.6791   -4.1027    9.4131 C   0  0  0  0  0  0  0  0  0  0  0  0
   -7.8473   -3.3896    8.2143 C   0  0  0  0  0  0  0  0  0  0  0  0
   -7.3645   -3.9225    7.0062 C   0  0  0  0  0  0  0  0  0  0  0  0
   -6.8041   -7.1345    5.2824 C   0  0  2  0  0  0  0  0  0  0  0  0
   -8.8397   -8.3124    5.0367 O   0  0  0  0  0  0  0  0  0  0  0  0
  -10.8571   -4.9031    4.2498 C   0  0  0  0  0  0  0  0  0  0  0  0
  -10.9343   -5.6153    6.6850 C   0  0  1  0  0  0  0  0  0  0  0  0
  -12.4762   -5.5321    6.8561 C   0  0  2  0  0  0  0  0  0  0  0  0
  -12.8670   -5.4880    8.2816 C   0  0  0  0  0  0  0  0  0  0  0  0
  -13.5765   -6.4874    8.8367 N   0  0  0  0  0  0  0  0  0  0  0  0
  -12.5335   -4.5204    9.0030 O   0  0  0  0  0  0  0  0  0  0  0  0
  -10.4846   -5.9500    5.2329 C   0  0  2  0  0  0  0  0  0  0  0  0
  -11.6533   -5.1900    3.3249 O   0  0  0  0  0  0  0  0  0  0  0  0
   -8.8323   -2.6942    2.7594 C   0  0  0  0  0  0  0  0  0  0  0  0
  -10.6369   -1.3062    3.9294 C   0  0  1  0  0  0  0  0  0  0  0  0
  -10.8969   -0.2488    2.9270 C   0  0  0  0  0  0  0  0  0  0  0  0
  -12.1336    0.2550    2.7668 N   0  0  0  0  0  0  0  0  0  0  0  0
   -9.9687    0.2119    2.2238 O   0  0  0  0  0  0  0  0  0  0  0  0
  -10.2281   -2.6702    3.2991 C   0  0  2  0  0  0  0  0  0  0  0  0
   -7.8764   -2.5360    3.5548 O   0  0  0  0  0  0  0  0  0  0  0  0
  -10.0585   -4.1902    0.0293 C   0  0  0  0  0  0  0  0  0  0  0  0
   -7.5657   -3.8679   -1.8756 S   0  0  0  0  0  0  0  0  0  0  0  0
   -8.4224   -2.5460   -0.9552 C   0  0  2  0  0  0  0  0  0  0  0  0
   -9.2710   -2.9477    0.2960 C   0  0  2  0  0  0  0  0  0  0  0  0
  -11.0454   -4.0020   -0.7246 O   0  0  0  0  0  0  0  0  0  0  0  0
  -11.7895   -6.8380    0.1594 C   0  0  0  0  0  0  0  0  0  0  0  0
  -10.3639   -6.6344   -0.2149 C   0  0  2  0  0  0  0  0  0  0  0  0
   -9.4498   -7.8333    0.1368 C   0  0  2  0  0  0  0  0  0  0  0  0
   -8.7791   -7.4084    1.4482 C   0  0  2  0  0  0  0  0  0  0  0  0
   -8.7870   -5.8716    1.3967 C   0  0  1  0  0  0  0  0  0  0  0  0
  -12.0827   -7.4055    1.2380 O   0  0  0  0  0  0  0  0  0  0  0  0
  -14.7495   -6.1974    0.6211 C   0  0  0  0  0  0  0  0  0  0  0  0
  -17.0388   -8.3906   -0.7065 C   0  0  1  0  0  0  0  0  0  0  0  0
  -15.8273   -8.4931   -1.6710 C   0  0  2  0  0  0  0  0  0  0  0  0
  -14.4394   -8.1814   -1.0375 C   0  0  1  0  0  0  0  0  0  0  0  0
  -14.1650   -6.6855   -0.6569 C   0  0  2  0  0  0  0  0  0  0  0  0
  -18.4186  -10.2791   -1.6377 N   0  0  1  0  0  0  0  0  0  0  0  0
  -18.3803   -8.8420   -1.3360 C   0  0  1  0  0  0  0  0  0  0  0  0
  -15.2413   -6.9996    1.4510 O   0  0  0  0  0  0  0  0  0  0  0  0
  -14.8993   -2.8168    2.2031 C   0  0  0  0  0  0  0  0  0  0  0  0
  -15.2091   -4.2570    2.0870 C   0  0  2  0  0  0  0  0  0  0  0  0
  -15.2446   -2.2037    3.2385 O   0  0  0  0  0  0  0  0  0  0  0  0
   -5.4493   -8.9152   -1.0927 H   0  0  0  0  0  0  0  0  0  0  0  0
   -5.1822   -9.3184    0.7173 H   0  0  0  0  0  0  0  0  0  0  0  0
   -5.6184   -6.8551    3.6206 H   0  0  0  0  0  0  0  0  0  0  0  0
   -8.5687   -5.2307    5.2796 H   0  0  0  0  0  0  0  0  0  0  0  0
   -9.7203   -3.5045    5.1082 H   0  0  0  0  0  0  0  0  0  0  0  0
   -7.4934   -2.9792    1.3142 H   0  0  0  0  0  0  0  0  0  0  0  0
  -12.4502   -5.9282   -1.4899 H   0  0  0  0  0  0  0  0  0  0  0  0
  -14.3266   -4.2847    0.2095 H   0  0  0  0  0  0  0  0  0  0  0  0
  -13.9746   -2.5464    0.4291 H   0  0  0  0  0  0  0  0  0  0  0  0
  -14.0886   -1.1674    1.3764 H   0  0  0  0  0  0  0  0  0  0  0  0
   -5.7941   -6.2859   -2.2384 H   0  0  0  0  0  0  0  0  0  0  0  0
   -6.8299   -6.7263   -0.8896 H   0  0  0  0  0  0  0  0  0  0  0  0
   -3.7835   -6.5669   -0.7270 H   0  0  0  0  0  0  0  0  0  0  0  0
   -2.6275   -9.1211    2.5385 H   0  0  0  0  0  0  0  0  0  0  0  0
   -3.2858   -7.7414    3.3863 H   0  0  0  0  0  0  0  0  0  0  0  0
   -3.1995   -7.7504    5.7708 H   0  0  0  0  0  0  0  0  0  0  0  0
   -2.6749   -8.8377    7.8574 H   0  0  0  0  0  0  0  0  0  0  0  0
   -1.9616  -12.2973    7.9996 H   0  0  0  0  0  0  0  0  0  0  0  0
   -2.2475  -12.5078    5.8446 H   0  0  0  0  0  0  0  0  0  0  0  0
   -2.7930  -11.4359    3.7513 H   0  0  0  0  0  0  0  0  0  0  0  0
   -4.8160  -10.2384    2.5760 H   0  0  0  0  0  0  0  0  0  0  0  0
   -5.1237   -5.8344    5.7764 H   0  0  0  0  0  0  0  0  0  0  0  0
   -6.3980   -5.0513    4.8611 H   0  0  0  0  0  0  0  0  0  0  0  0
   -6.0519   -6.7769    8.2108 H   0  0  0  0  0  0  0  0  0  0  0  0
   -6.8929   -5.8655   10.2738 H   0  0  0  0  0  0  0  0  0  0  0  0
   -8.0352   -3.7140   10.2890 H   0  0  0  0  0  0  0  0  0  0  0  0
   -8.3164   -2.4816    8.2211 H   0  0  0  0  0  0  0  0  0  0  0  0
   -7.4986   -3.3806    6.1503 H   0  0  0  0  0  0  0  0  0  0  0  0
   -6.5345   -7.8294    6.0832 H   0  0  0  0  0  0  0  0  0  0  0  0
  -10.4868   -4.6712    7.0096 H   0  0  0  0  0  0  0  0  0  0  0  0
  -10.5477   -6.3998    7.3442 H   0  0  0  0  0  0  0  0  0  0  0  0
  -12.9365   -6.4000    6.3768 H   0  0  0  0  0  0  0  0  0  0  0  0
  -12.8622   -4.6397    6.3561 H   0  0  0  0  0  0  0  0  0  0  0  0
  -13.8115   -6.4557    9.7791 H   0  0  0  0  0  0  0  0  0  0  0  0
  -13.8417   -7.2482    8.2949 H   0  0  0  0  0  0  0  0  0  0  0  0
  -10.9492   -6.8995    4.9426 H   0  0  0  0  0  0  0  0  0  0  0  0
   -9.8563   -0.9571    4.6136 H   0  0  0  0  0  0  0  0  0  0  0  0
  -11.5450   -1.4592    4.5253 H   0  0  0  0  0  0  0  0  0  0  0  0
  -12.8661   -0.0778    3.3093 H   0  0  0  0  0  0  0  0  0  0  0  0
  -12.2964    0.9471    2.1083 H   0  0  0  0  0  0  0  0  0  0  0  0
  -10.9488   -2.9053    2.5122 H   0  0  0  0  0  0  0  0  0  0  0  0
   -9.1011   -2.0960   -1.6847 H   0  0  0  0  0  0  0  0  0  0  0  0
   -7.6930   -1.7749   -0.6953 H   0  0  0  0  0  0  0  0  0  0  0  0
   -9.9904   -2.1292    0.4238 H   0  0  0  0  0  0  0  0  0  0  0  0
  -10.3037   -6.5066   -1.3008 H   0  0  0  0  0  0  0  0  0  0  0  0
   -8.6999   -7.9811   -0.6450 H   0  0  0  0  0  0  0  0  0  0  0  0
   -9.9905   -8.7756    0.2475 H   0  0  0  0  0  0  0  0  0  0  0  0
   -7.7662   -7.8056    1.5242 H   0  0  0  0  0  0  0  0  0  0  0  0
   -9.3628   -7.7682    2.2999 H   0  0  0  0  0  0  0  0  0  0  0  0
   -7.8009   -5.5041    1.1412 H   0  0  0  0  0  0  0  0  0  0  0  0
   -9.0406   -5.4815    2.3747 H   0  0  0  0  0  0  0  0  0  0  0  0
  -16.8523   -8.9915    0.1882 H   0  0  0  0  0  0  0  0  0  0  0  0
  -17.1577   -7.3487   -0.4013 H   0  0  0  0  0  0  0  0  0  0  0  0
  -15.9908   -7.8320   -2.5271 H   0  0  0  0  0  0  0  0  0  0  0  0
  -15.7832   -9.5152   -2.0546 H   0  0  0  0  0  0  0  0  0  0  0  0
  -14.2724   -8.8299   -0.1730 H   0  0  0  0  0  0  0  0  0  0  0  0
  -13.7029   -8.4776   -1.7910 H   0  0  0  0  0  0  0  0  0  0  0  0
  -14.5978   -6.0730   -1.4546 H   0  0  0  0  0  0  0  0  0  0  0  0
  -19.3319  -10.4657   -2.0600 H   0  0  0  0  0  0  0  0  0  0  0  0
  -17.7217  -10.4608   -2.3629 H   0  0  0  0  0  0  0  0  0  0  0  0
  -19.1897   -8.6290   -0.6339 H   0  0  0  0  0  0  0  0  0  0  0  0
  -18.5696   -8.2828   -2.2549 H   0  0  0  0  0  0  0  0  0  0  0  0
  -14.7791   -4.7668    2.9538 H   0  0  0  0  0  0  0  0  0  0  0  0
  -16.2953   -4.3794    2.1186 H   0  0  0  0  0  0  0  0  0  0  0  0
  1  2  1  0  0  0  0 
 12  3  1  0  0  0  0 
 17  4  1  0  0  0  0 
 28  5  1  0  0  0  0 
 38  6  1  0  0  0  0 
 46  7  1  0  0  0  0 
 53  8  1  0  0  0  0 
 58  9  1  0  0  0  0 
 64 10  1  0  0  0  0 
 72 11  1  0  0  0  0 
 13 54  1  0  0  0  0 
 15  2  1  0  0  0  0 
 15 14  1  0  0  0  0 
 14 13  1  0  0  0  0 
 15 12  1  0  0  0  0 
 12 16  2  0  0  0  0 
 26  3  1  0  0  0  0 
 26 18  1  0  0  0  0 
 18 19  1  0  0  0  0 
 19 20  2  0  0  0  0 
 20 21  1  0  0  0  0 
 21 22  2  0  0  0  0 
 22 23  1  0  0  0  0 
 22 24  1  0  0  0  0 
 24 25  2  0  0  0  0 
 19 25  1  0  0  0  0 
 26 17  1  0  0  0  0 
 17 27  2  0  0  0  0 
 36  4  1  0  0  0  0 
 36 29  1  0  0  0  0 
 29 30  1  0  0  0  0 
 30 31  2  0  0  0  0 
 31 32  1  0  0  0  0 
 32 33  2  0  0  0  0 
 33 34  1  0  0  0  0 
 34 35  2  0  0  0  0 
 30 35  1  0  0  0  0 
 36 28  1  0  0  0  0 
 28 37  2  0  0  0  0 
 44  5  1  0  0  0  0 
 44 39  1  0  0  0  0 
 39 40  1  0  0  0  0 
 40 41  1  0  0  0  0 
 41 42  1  0  0  0  0 
 41 43  2  0  0  0  0 
 44 38  1  0  0  0  0 
 38 45  2  0  0  0  0 
 51  6  1  0  0  0  0 
 51 47  1  0  0  0  0 
 47 48  1  0  0  0  0 
 48 49  1  0  0  0  0 
 48 50  2  0  0  0  0 
 51 46  1  0  0  0  0 
 46 52  2  0  0  0  0 
 56  7  1  0  0  0  0 
 56 55  1  0  0  0  0 
 55 54  1  0  0  0  0 
 56 53  1  0  0  0  0 
 53 57  2  0  0  0  0 
 63 58  2  0  0  0  0 
 59 58  1  0  0  0  0 
 59 60  1  0  0  0  0 
 60 61  1  0  0  0  0 
 61 62  1  0  0  0  0 
 62  8  1  0  0  0  0 
 59  8  1  0  0  0  0 
 69 70  1  0  0  0  0 
 70 65  1  0  0  0  0 
 65 66  1  0  0  0  0 
 66 67  1  0  0  0  0 
 67 68  1  0  0  0  0 
 68  9  1  0  0  0  0 
 68 64  1  0  0  0  0 
 64 71  2  0  0  0  0 
 10 73  1  0  0  0  0 
 73 72  1  0  0  0  0 
 72 74  2  0  0  0  0 
  2 75  1  0  0  0  0 
  3 76  1  0  0  0  0 
  4 77  1  0  0  0  0 
  5 78  1  0  0  0  0 
  6 79  1  0  0  0  0 
  7 80  1  0  0  0  0 
  9 81  1  0  0  0  0 
 10 82  1  0  0  0  0 
 11 83  1  0  0  0  0 
 11 84  1  0  0  0  0 
 14 85  1  0  0  0  0 
 14 86  1  0  0  0  0 
 15 87  1  0  0  0  0 
 18 88  1  0  0  0  0 
 18 89  1  0  0  0  0 
 20 90  1  0  0  0  0 
 21 91  1  0  0  0  0 
 23 92  1  0  0  0  0 
 24 93  1  0  0  0  0 
 25 94  1  0  0  0  0 
 26 95  1  0  0  0  0 
 29 96  1  0  0  0  0 
 29 97  1  0  0  0  0 
 31 98  1  0  0  0  0 
 32 99  1  0  0  0  0 
 33100  1  0  0  0  0 
 34101  1  0  0  0  0 
 35102  1  0  0  0  0 
 36103  1  0  0  0  0 
 39104  1  0  0  0  0 
 39105  1  0  0  0  0 
 40106  1  0  0  0  0 
 40107  1  0  0  0  0 
 42108  1  0  0  0  0 
 42109  1  0  0  0  0 
 44110  1  0  0  0  0 
 47111  1  0  0  0  0 
 47112  1  0  0  0  0 
 49113  1  0  0  0  0 
 49114  1  0  0  0  0 
 51115  1  0  0  0  0 
 55116  1  0  0  0  0 
 55117  1  0  0  0  0 
 56118  1  0  0  0  0 
 59119  1  0  0  0  0 
 60120  1  0  0  0  0 
 60121  1  0  0  0  0 
 61122  1  0  0  0  0 
 61123  1  0  0  0  0 
 62124  1  0  0  0  0 
 62125  1  0  0  0  0 
 65126  1  0  0  0  0 
 65127  1  0  0  0  0 
 66128  1  0  0  0  0 
 66129  1  0  0  0  0 
 67130  1  0  0  0  0 
 67131  1  0  0  0  0 
 68132  1  0  0  0  0 
 69133  1  0  0  0  0 
 69134  1  0  0  0  0 
 70135  1  0  0  0  0 
 70136  1  0  0  0  0 
 73137  1  0  0  0  0 
 73138  1  0  0  0  0 
M  END
> <cdk:Title>
lypressin

> <Conformer>
1

> <SuperDrugID>
SD002599

$$$$
