mizolastine
  CDK     0628171801

 57 61  0  0  0  0  0  0  0  0999 V2000
    0.2980   -0.2854    0.9493 C   0  0  2  0  0  0  0  0  0  0  0  0
   -1.0479   -0.0838    0.4646 N   0  0  0  0  0  0  0  0  0  0  0  0
    1.2293   -0.7435   -0.1196 C   0  0  0  0  0  0  0  0  0  0  0  0
   -2.1687   -0.8201    0.7150 C   0  0  0  0  0  0  0  0  0  0  0  0
   -1.4307    0.8817   -0.4009 C   0  0  0  0  0  0  0  0  0  0  0  0
    1.0075   -1.9819   -0.7654 C   0  0  0  0  0  0  0  0  0  0  0  0
    2.3519    0.0272   -0.5094 C   0  0  0  0  0  0  0  0  0  0  0  0
   -3.2302   -0.3221    0.0470 N   0  0  0  0  0  0  0  0  0  0  0  0
   -2.3307   -1.9700    1.4420 N   0  0  0  0  0  0  0  0  0  0  0  0
   -2.7898    0.7224   -0.6502 C   0  0  0  0  0  0  0  0  0  0  0  0
   -0.7161    1.9154   -1.0399 C   0  0  0  0  0  0  0  0  0  0  0  0
    1.8765   -2.4413   -1.7716 C   0  0  0  0  0  0  0  0  0  0  0  0
    3.2244   -0.4300   -1.5154 C   0  0  0  0  0  0  0  0  0  0  0  0
   -2.9174   -3.1183    0.7864 C   0  0  2  0  0  0  0  0  0  0  0  0
   -2.0267   -2.0708    2.8502 C   0  0  1  0  0  0  0  0  0  0  0  0
   -3.4934    1.5618   -1.5269 C   0  0  0  0  0  0  0  0  0  0  0  0
   -1.3984    2.7600   -1.9417 C   0  0  0  0  0  0  0  0  0  0  0  0
    2.9865   -1.6639   -2.1484 C   0  0  0  0  0  0  0  0  0  0  0  0
   -2.0453   -4.3739    1.0025 C   0  0  2  0  0  0  0  0  0  0  0  0
   -1.1706   -3.3342    3.1558 C   0  0  1  0  0  0  0  0  0  0  0  0
   -2.7800    2.5853   -2.1818 C   0  0  0  0  0  0  0  0  0  0  0  0
    3.7940   -2.0866   -3.0813 F   0  0  0  0  0  0  0  0  0  0  0  0
   -1.7829   -4.6289    2.5181 C   0  0  2  0  0  0  0  0  0  0  0  0
   -1.0520   -5.8895    2.6746 N   0  0  0  0  0  0  0  0  0  0  0  0
    0.3812   -5.8530    2.9054 C   0  0  0  0  0  0  0  0  0  0  0  0
   -1.7211   -7.1045    2.5051 C   0  0  0  0  0  0  0  0  0  0  0  0
   -3.0618   -7.1570    2.2328 N   0  0  0  0  0  0  0  0  0  0  0  0
   -1.0699   -8.3022    2.5721 N   0  0  0  0  0  0  0  0  0  0  0  0
   -3.7336   -8.3155    2.0187 C   0  0  0  0  0  0  0  0  0  0  0  0
   -1.6756   -9.4992    2.3706 C   0  0  0  0  0  0  0  0  0  0  0  0
   -4.9579   -8.2772    1.7604 O   0  0  0  0  0  0  0  0  0  0  0  0
   -3.0476   -9.5384    2.0808 C   0  0  0  0  0  0  0  0  0  0  0  0
    0.3338   -1.0298    1.7426 H   0  0  0  0  0  0  0  0  0  0  0  0
    0.6446    0.6494    1.3982 H   0  0  0  0  0  0  0  0  0  0  0  0
    0.2052   -2.5558   -0.5088 H   0  0  0  0  0  0  0  0  0  0  0  0
    2.5440    0.9294   -0.0658 H   0  0  0  0  0  0  0  0  0  0  0  0
    0.2781    2.0534   -0.8621 H   0  0  0  0  0  0  0  0  0  0  0  0
    1.6990   -3.3412   -2.2242 H   0  0  0  0  0  0  0  0  0  0  0  0
    4.0303    0.1387   -1.7870 H   0  0  0  0  0  0  0  0  0  0  0  0
   -3.0294   -2.9763   -0.2938 H   0  0  0  0  0  0  0  0  0  0  0  0
   -3.9183   -3.2949    1.1909 H   0  0  0  0  0  0  0  0  0  0  0  0
   -1.5139   -1.1825    3.2271 H   0  0  0  0  0  0  0  0  0  0  0  0
   -2.9679   -2.1470    3.4028 H   0  0  0  0  0  0  0  0  0  0  0  0
   -4.4938    1.4294   -1.6881 H   0  0  0  0  0  0  0  0  0  0  0  0
   -0.8890    3.5030   -2.4246 H   0  0  0  0  0  0  0  0  0  0  0  0
   -1.0929   -4.2483    0.4845 H   0  0  0  0  0  0  0  0  0  0  0  0
   -2.5523   -5.2233    0.5402 H   0  0  0  0  0  0  0  0  0  0  0  0
   -0.1625   -3.1630    2.7717 H   0  0  0  0  0  0  0  0  0  0  0  0
   -1.1016   -3.4620    4.2402 H   0  0  0  0  0  0  0  0  0  0  0  0
   -3.2661    3.2039   -2.8337 H   0  0  0  0  0  0  0  0  0  0  0  0
   -2.7481   -4.7390    3.0263 H   0  0  0  0  0  0  0  0  0  0  0  0
    0.8658   -6.8301    2.9280 H   0  0  0  0  0  0  0  0  0  0  0  0
    0.8710   -5.2775    2.1168 H   0  0  0  0  0  0  0  0  0  0  0  0
    0.5870   -5.3806    3.8667 H   0  0  0  0  0  0  0  0  0  0  0  0
   -3.5629   -6.3299    2.1731 H   0  0  0  0  0  0  0  0  0  0  0  0
   -1.1319  -10.3618    2.4286 H   0  0  0  0  0  0  0  0  0  0  0  0
   -3.5285  -10.4257    1.9219 H   0  0  0  0  0  0  0  0  0  0  0  0
  1  2  1  0  0  0  0 
  1  3  1  0  0  0  0 
  2  4  1  0  0  0  0 
  2  5  1  0  0  0  0 
  3  6  2  0  0  0  0 
  3  7  1  0  0  0  0 
  4  8  2  0  0  0  0 
  4  9  1  0  0  0  0 
  5 10  1  0  0  0  0 
  5 11  2  0  0  0  0 
  6 12  1  0  0  0  0 
  7 13  2  0  0  0  0 
  8 10  1  0  0  0  0 
  9 14  1  0  0  0  0 
  9 15  1  0  0  0  0 
 10 16  2  0  0  0  0 
 11 17  1  0  0  0  0 
 12 18  2  0  0  0  0 
 13 18  1  0  0  0  0 
 14 19  1  0  0  0  0 
 15 20  1  0  0  0  0 
 16 21  1  0  0  0  0 
 17 21  2  0  0  0  0 
 18 22  1  0  0  0  0 
 19 23  1  0  0  0  0 
 20 23  1  0  0  0  0 
 23 24  1  0  0  0  0 
 24 25  1  0  0  0  0 
 24 26  1  0  0  0  0 
 26 27  1  0  0  0  0 
 26 28  2  0  0  0  0 
 27 29  1  0  0  0  0 
 28 30  1  0  0  0  0 
 29 31  2  0  0  0  0 
 29 32  1  0  0  0  0 
 30 32  2  0  0  0  0 
 33  1  1  0  0  0  0 
 34  1  1  0  0  0  0 
 35  6  1  0  0  0  0 
 36  7  1  0  0  0  0 
 37 11  1  0  0  0  0 
 38 12  1  0  0  0  0 
 39 13  1  0  0  0  0 
 40 14  1  0  0  0  0 
 41 14  1  0  0  0  0 
 42 15  1  0  0  0  0 
 43 15  1  0  0  0  0 
 44 16  1  0  0  0  0 
 45 17  1  0  0  0  0 
 46 19  1  0  0  0  0 
 47 19  1  0  0  0  0 
 48 20  1  0  0  0  0 
 49 20  1  0  0  0  0 
 50 21  1  0  0  0  0 
 51 23  1  0  0  0  0 
 52 25  1  0  0  0  0 
 53 25  1  0  0  0  0 
 54 25  1  0  0  0  0 
 55 27  1  0  0  0  0 
 56 30  1  0  0  0  0 
 57 32  1  0  0  0  0 
M  END
> <cdk:Title>
mizolastine

> <Conformer>
1

> <SuperDrugID>
SD001623

$$$$
