camazepam
  CDK     0628171802

 44 46  0  0  0  0  0  0  0  0999 V2000
   -5.1174    1.3553    1.7599 C   0  0  0  0  0  0  0  0  0  0  0  0
   -5.3864    2.3135    0.7000 N   0  0  0  0  0  0  0  0  0  0  0  0
   -4.3565    3.1354    0.2375 C   0  0  0  0  0  0  0  0  0  0  0  0
   -6.6612    2.3632    0.1481 C   0  0  0  0  0  0  0  0  0  0  0  0
   -4.5226    4.5318   -0.0355 C   0  0  0  0  0  0  0  0  0  0  0  0
   -3.0853    2.5535   -0.0066 C   0  0  0  0  0  0  0  0  0  0  0  0
   -7.5385    1.5323    0.4936 O   0  0  0  0  0  0  0  0  0  0  0  0
   -7.0632    3.4010   -0.8341 C   0  0  1  0  0  0  0  0  0  0  0  0
   -5.7524    5.1930    0.1452 C   0  0  0  0  0  0  0  0  0  0  0  0
   -3.4269    5.2743   -0.5486 C   0  0  0  0  0  0  0  0  0  0  0  0
   -2.0105    3.3062   -0.5044 C   0  0  0  0  0  0  0  0  0  0  0  0
   -8.4570    3.2882   -1.1448 O   0  0  0  0  0  0  0  0  0  0  0  0
   -6.8540    4.6459   -0.2475 N   0  0  0  0  0  0  0  0  0  0  0  0
   -5.8541    6.4618    0.7415 C   0  0  0  0  0  0  0  0  0  0  0  0
   -2.1804    4.6702   -0.7818 C   0  0  0  0  0  0  0  0  0  0  0  0
   -9.1827    3.8817   -2.1395 C   0  0  0  0  0  0  0  0  0  0  0  0
   -6.8020    7.4174    0.2865 C   0  0  0  0  0  0  0  0  0  0  0  0
   -5.0108    6.8333    1.8211 C   0  0  0  0  0  0  0  0  0  0  0  0
   -0.8942    5.5833   -1.3984 Cl  0  0  0  0  0  0  0  0  0  0  0  0
  -10.5494    3.6747   -2.1735 N   0  0  0  0  0  0  0  0  0  0  0  0
   -8.5829    4.5770   -2.9955 O   0  0  0  0  0  0  0  0  0  0  0  0
   -6.8825    8.6970    0.8664 C   0  0  0  0  0  0  0  0  0  0  0  0
   -5.0886    8.1136    2.3989 C   0  0  0  0  0  0  0  0  0  0  0  0
  -11.1781    2.9323   -1.1015 C   0  0  0  0  0  0  0  0  0  0  0  0
  -11.3815    4.1482   -3.2555 C   0  0  0  0  0  0  0  0  0  0  0  0
   -6.0212    9.0484    1.9191 C   0  0  0  0  0  0  0  0  0  0  0  0
   -4.2855    1.6721    2.3956 H   0  0  0  0  0  0  0  0  0  0  0  0
   -5.9778    1.2234    2.4241 H   0  0  0  0  0  0  0  0  0  0  0  0
   -4.8711    0.3855    1.3195 H   0  0  0  0  0  0  0  0  0  0  0  0
   -2.9288    1.5586    0.1665 H   0  0  0  0  0  0  0  0  0  0  0  0
   -6.4724    3.2920   -1.7497 H   0  0  0  0  0  0  0  0  0  0  0  0
   -3.5348    6.2689   -0.7686 H   0  0  0  0  0  0  0  0  0  0  0  0
   -1.1089    2.8519   -0.6682 H   0  0  0  0  0  0  0  0  0  0  0  0
   -7.4403    7.1932   -0.4814 H   0  0  0  0  0  0  0  0  0  0  0  0
   -4.3276    6.1708    2.1995 H   0  0  0  0  0  0  0  0  0  0  0  0
   -7.5636    9.3748    0.5185 H   0  0  0  0  0  0  0  0  0  0  0  0
   -4.4670    8.3643    3.1716 H   0  0  0  0  0  0  0  0  0  0  0  0
  -10.9004    3.3541   -0.1309 H   0  0  0  0  0  0  0  0  0  0  0  0
  -10.8480    1.8909   -1.1377 H   0  0  0  0  0  0  0  0  0  0  0  0
  -12.2697    2.9400   -1.1584 H   0  0  0  0  0  0  0  0  0  0  0  0
  -12.0634    4.9174   -2.8869 H   0  0  0  0  0  0  0  0  0  0  0  0
  -10.8142    4.5698   -4.0860 H   0  0  0  0  0  0  0  0  0  0  0  0
  -11.9757    3.3242   -3.6579 H   0  0  0  0  0  0  0  0  0  0  0  0
   -6.0761    9.9815    2.3344 H   0  0  0  0  0  0  0  0  0  0  0  0
  1  2  1  0  0  0  0 
  2  3  1  0  0  0  0 
  2  4  1  0  0  0  0 
  3  5  2  0  0  0  0 
  3  6  1  0  0  0  0 
  4  7  2  0  0  0  0 
  8  4  1  0  0  0  0 
  5  9  1  0  0  0  0 
  5 10  1  0  0  0  0 
  6 11  2  0  0  0  0 
  8 12  1  0  0  0  0 
  8 13  1  0  0  0  0 
  9 13  2  0  0  0  0 
  9 14  1  0  0  0  0 
 10 15  2  0  0  0  0 
 11 15  1  0  0  0  0 
 12 16  1  0  0  0  0 
 14 17  2  0  0  0  0 
 14 18  1  0  0  0  0 
 15 19  1  0  0  0  0 
 16 20  1  0  0  0  0 
 16 21  2  0  0  0  0 
 17 22  1  0  0  0  0 
 18 23  2  0  0  0  0 
 20 24  1  0  0  0  0 
 20 25  1  0  0  0  0 
 22 26  2  0  0  0  0 
 23 26  1  0  0  0  0 
  1 27  1  0  0  0  0 
  1 28  1  0  0  0  0 
  1 29  1  0  0  0  0 
  6 30  1  0  0  0  0 
  8 31  1  0  0  0  0 
 10 32  1  0  0  0  0 
 11 33  1  0  0  0  0 
 17 34  1  0  0  0  0 
 18 35  1  0  0  0  0 
 22 36  1  0  0  0  0 
 23 37  1  0  0  0  0 
 24 38  1  0  0  0  0 
 24 39  1  0  0  0  0 
 24 40  1  0  0  0  0 
 25 41  1  0  0  0  0 
 25 42  1  0  0  0  0 
 25 43  1  0  0  0  0 
 26 44  1  0  0  0  0 
M  END
> <cdk:Title>
camazepam

> <Conformer>
1

> <SuperDrugID>
SD000408

$$$$
