cloxiquine
  CDK     0628171801

 18 19  0  0  0  0  0  0  0  0999 V2000
   -2.5493    0.4151    4.3325 Cl  0  0  0  0  0  0  0  0  0  0  0  0
   -1.3857    0.3168    3.0982 C   0  0  0  0  0  0  0  0  0  0  0  0
   -0.0757    0.8545    3.2224 C   0  0  0  0  0  0  0  0  0  0  0  0
   -1.7656   -0.3360    1.9075 C   0  0  0  0  0  0  0  0  0  0  0  0
    0.8335    0.7220    2.1316 C   0  0  0  0  0  0  0  0  0  0  0  0
    0.3909    1.5234    4.3823 C   0  0  0  0  0  0  0  0  0  0  0  0
   -0.8608   -0.4624    0.8412 C   0  0  0  0  0  0  0  0  0  0  0  0
    0.4400    0.0613    0.9495 C   0  0  0  0  0  0  0  0  0  0  0  0
    2.0916    1.2289    2.2282 N   0  0  0  0  0  0  0  0  0  0  0  0
    1.7015    2.0318    4.4401 C   0  0  0  0  0  0  0  0  0  0  0  0
    1.3101   -0.0760   -0.0850 O   0  0  0  0  0  0  0  0  0  0  0  0
    2.5475    1.8698    3.3314 C   0  0  0  0  0  0  0  0  0  0  0  0
   -2.7060   -0.7260    1.8072 H   0  0  0  0  0  0  0  0  0  0  0  0
   -0.2126    1.6488    5.1972 H   0  0  0  0  0  0  0  0  0  0  0  0
   -1.1535   -0.9374   -0.0151 H   0  0  0  0  0  0  0  0  0  0  0  0
    2.0380    2.5140    5.2772 H   0  0  0  0  0  0  0  0  0  0  0  0
    1.0104   -0.8694   -0.5785 H   0  0  0  0  0  0  0  0  0  0  0  0
    3.5032    2.2291    3.3479 H   0  0  0  0  0  0  0  0  0  0  0  0
  1  2  1  0  0  0  0 
  2  3  2  0  0  0  0 
  2  4  1  0  0  0  0 
  3  5  1  0  0  0  0 
  3  6  1  0  0  0  0 
  4  7  2  0  0  0  0 
  5  8  2  0  0  0  0 
  5  9  1  0  0  0  0 
  6 10  2  0  0  0  0 
  7  8  1  0  0  0  0 
  8 11  1  0  0  0  0 
  9 12  2  0  0  0  0 
 10 12  1  0  0  0  0 
  4 13  1  0  0  0  0 
  6 14  1  0  0  0  0 
  7 15  1  0  0  0  0 
 10 16  1  0  0  0  0 
 11 17  1  0  0  0  0 
 12 18  1  0  0  0  0 
M  END
> <cdk:Title>
cloxiquine

> <Conformer>
1

> <SuperDrugID>
SD002701

$$$$
