indanazoline
  CDK     0628171801

 30 32  0  0  0  0  0  0  0  0999 V2000
   -0.2479   -2.7321   -0.7238 N   0  0  0  0  0  0  0  0  0  0  0  0
   -0.8945   -1.5734   -0.8287 C   0  0  0  0  0  0  0  0  0  0  0  0
   -0.6649   -3.9442   -0.6497 C   0  0  0  0  0  0  0  0  0  0  0  0
   -0.2609   -0.4137   -0.3246 C   0  0  0  0  0  0  0  0  0  0  0  0
   -2.1620   -1.4140   -1.4472 C   0  0  0  0  0  0  0  0  0  0  0  0
   -1.9008   -4.3870   -0.5920 N   0  0  0  0  0  0  0  0  0  0  0  0
    0.1627   -4.9546   -0.6083 N   0  0  0  0  0  0  0  0  0  0  0  0
   -0.8913    0.8324   -0.3676 C   0  0  0  0  0  0  0  0  0  0  0  0
    1.0652   -0.3230    0.2948 C   0  0  2  0  0  0  0  0  0  0  0  0
   -2.7878   -0.1516   -1.5081 C   0  0  0  0  0  0  0  0  0  0  0  0
   -1.9801   -5.7963   -0.5514 C   0  0  2  0  0  0  0  0  0  0  0  0
   -0.4928   -6.2050   -0.5589 C   0  0  1  0  0  0  0  0  0  0  0  0
   -2.1595    0.9805   -0.9563 C   0  0  0  0  0  0  0  0  0  0  0  0
   -0.0958    1.8874    0.2550 C   0  0  2  0  0  0  0  0  0  0  0  0
    1.2333    1.1815    0.6227 C   0  0  1  0  0  0  0  0  0  0  0  0
   -2.6351   -2.2085   -1.8790 H   0  0  0  0  0  0  0  0  0  0  0  0
   -2.6806   -3.8123   -0.5635 H   0  0  0  0  0  0  0  0  0  0  0  0
    1.1276   -4.8556   -0.6255 H   0  0  0  0  0  0  0  0  0  0  0  0
    1.8319   -0.6591   -0.4079 H   0  0  0  0  0  0  0  0  0  0  0  0
    1.1061   -0.9339    1.1998 H   0  0  0  0  0  0  0  0  0  0  0  0
   -3.7018   -0.0553   -1.9566 H   0  0  0  0  0  0  0  0  0  0  0  0
   -2.5092   -6.1695   -1.4314 H   0  0  0  0  0  0  0  0  0  0  0  0
   -2.4851   -6.1250    0.3606 H   0  0  0  0  0  0  0  0  0  0  0  0
   -0.2405   -6.7968   -1.4403 H   0  0  0  0  0  0  0  0  0  0  0  0
   -0.2133   -6.7462    0.3478 H   0  0  0  0  0  0  0  0  0  0  0  0
   -2.6158    1.8949   -0.9889 H   0  0  0  0  0  0  0  0  0  0  0  0
   -0.6065    2.2636    1.1451 H   0  0  0  0  0  0  0  0  0  0  0  0
    0.0687    2.7096   -0.4463 H   0  0  0  0  0  0  0  0  0  0  0  0
    1.4651    1.3212    1.6825 H   0  0  0  0  0  0  0  0  0  0  0  0
    2.0523    1.6045    0.0336 H   0  0  0  0  0  0  0  0  0  0  0  0
  1  2  1  0  0  0  0 
  1  3  2  0  0  0  0 
  2  4  2  0  0  0  0 
  2  5  1  0  0  0  0 
  3  6  1  0  0  0  0 
  3  7  1  0  0  0  0 
  4  8  1  0  0  0  0 
  4  9  1  0  0  0  0 
  5 10  2  0  0  0  0 
  6 11  1  0  0  0  0 
  7 12  1  0  0  0  0 
  8 13  2  0  0  0  0 
  8 14  1  0  0  0  0 
  9 15  1  0  0  0  0 
 10 13  1  0  0  0  0 
 11 12  1  0  0  0  0 
 14 15  1  0  0  0  0 
 16  5  1  0  0  0  0 
 17  6  1  0  0  0  0 
 18  7  1  0  0  0  0 
 19  9  1  0  0  0  0 
 20  9  1  0  0  0  0 
 21 10  1  0  0  0  0 
 22 11  1  0  0  0  0 
 23 11  1  0  0  0  0 
 24 12  1  0  0  0  0 
 25 12  1  0  0  0  0 
 26 13  1  0  0  0  0 
 27 14  1  0  0  0  0 
 28 14  1  0  0  0  0 
 29 15  1  0  0  0  0 
 30 15  1  0  0  0  0 
M  END
> <cdk:Title>
indanazoline

> <Conformer>
1

> <SuperDrugID>
SD002849

$$$$
