dasabuvir
  CDK     0628171802

 62 65  0  0  0  0  0  0  0  0999 V2000
    0.1434    3.5432    2.7400 C   0  0  0  0  0  0  0  0  0  0  0  0
    0.5680    4.1558    3.9386 C   0  0  0  0  0  0  0  0  0  0  0  0
    0.0014    5.3708    4.3594 C   0  0  0  0  0  0  0  0  0  0  0  0
   -0.9874    6.0187    3.5837 C   0  0  0  0  0  0  0  0  0  0  0  0
   -1.3988    5.4150    2.3716 C   0  0  0  0  0  0  0  0  0  0  0  0
   -0.8449    4.1837    1.9411 C   0  0  0  0  0  0  0  0  0  0  0  0
   -1.2550    3.5704    0.7364 C   0  0  0  0  0  0  0  0  0  0  0  0
   -0.7130    2.3323    0.3430 C   0  0  0  0  0  0  0  0  0  0  0  0
    0.2433    1.6703    1.1422 C   0  0  0  0  0  0  0  0  0  0  0  0
    0.6780    2.2985    2.3314 C   0  0  0  0  0  0  0  0  0  0  0  0
    0.6936    0.4541    0.7147 N   0  0  0  0  0  0  0  0  0  0  0  0
    1.3868   -0.7741    1.6950 S   0  0  2  0  0  0  0  0  0  0  0  0
    1.1138   -2.4026    0.9087 C   0  0  0  0  0  0  0  0  0  0  0  0
    0.7023   -0.7850    3.1458 O   0  0  0  0  0  0  0  0  0  0  0  0
    2.9636   -0.5288    1.8469 O   0  0  0  0  0  0  0  0  0  0  0  0
   -1.5398    7.2584    4.0263 C   0  0  0  0  0  0  0  0  0  0  0  0
   -2.2590    7.2751    5.2385 C   0  0  0  0  0  0  0  0  0  0  0  0
   -2.8073    8.4673    5.7430 C   0  0  0  0  0  0  0  0  0  0  0  0
   -2.6604    9.6433    4.9796 C   0  0  0  0  0  0  0  0  0  0  0  0
   -1.9955    9.6905    3.7216 C   0  0  0  0  0  0  0  0  0  0  0  0
   -1.3668    8.4720    3.3006 C   0  0  0  0  0  0  0  0  0  0  0  0
   -0.5638    8.4183    2.1877 O   0  0  0  0  0  0  0  0  0  0  0  0
    0.8478    8.5169    2.4819 C   0  0  0  0  0  0  0  0  0  0  0  0
   -2.0198   11.0196    2.9508 C   0  0  1  0  0  0  0  0  0  0  0  0
   -3.5077   11.4987    2.7619 C   0  0  0  0  0  0  0  0  0  0  0  0
   -1.2342   12.1108    3.7569 C   0  0  0  0  0  0  0  0  0  0  0  0
   -1.4078   10.9967    1.5035 C   0  0  0  0  0  0  0  0  0  0  0  0
   -3.4646    8.4837    6.9573 N   0  0  0  0  0  0  0  0  0  0  0  0
   -2.9880    9.2801    7.9681 C   0  0  0  0  0  0  0  0  0  0  0  0
   -3.6113    9.3088    9.2274 C   0  0  0  0  0  0  0  0  0  0  0  0
   -4.7342    8.4899    9.4226 C   0  0  0  0  0  0  0  0  0  0  0  0
   -5.1941    7.7266    8.4017 N   0  0  0  0  0  0  0  0  0  0  0  0
   -4.5856    7.7193    7.1862 C   0  0  0  0  0  0  0  0  0  0  0  0
   -5.1069    6.9951    6.3059 O   0  0  0  0  0  0  0  0  0  0  0  0
   -5.3194    8.4587   10.5280 O   0  0  0  0  0  0  0  0  0  0  0  0
    1.2918    3.7205    4.5172 H   0  0  0  0  0  0  0  0  0  0  0  0
    0.3264    5.7853    5.2379 H   0  0  0  0  0  0  0  0  0  0  0  0
   -2.1191    5.8718    1.8051 H   0  0  0  0  0  0  0  0  0  0  0  0
   -1.9546    4.0183    0.1380 H   0  0  0  0  0  0  0  0  0  0  0  0
   -1.0365    1.9075   -0.5302 H   0  0  0  0  0  0  0  0  0  0  0  0
    1.3907    1.8461    2.9077 H   0  0  0  0  0  0  0  0  0  0  0  0
    0.5763    0.2414   -0.2244 H   0  0  0  0  0  0  0  0  0  0  0  0
    0.0483   -2.5521    0.7318 H   0  0  0  0  0  0  0  0  0  0  0  0
    1.4832   -3.1891    1.5671 H   0  0  0  0  0  0  0  0  0  0  0  0
    1.6491   -2.4464   -0.0399 H   0  0  0  0  0  0  0  0  0  0  0  0
   -2.3797    6.4101    5.7747 H   0  0  0  0  0  0  0  0  0  0  0  0
   -3.0709   10.4919    5.3692 H   0  0  0  0  0  0  0  0  0  0  0  0
    1.3886    8.5482    1.5352 H   0  0  0  0  0  0  0  0  0  0  0  0
    1.0861    9.4213    3.0470 H   0  0  0  0  0  0  0  0  0  0  0  0
    1.2073    7.6535    3.0408 H   0  0  0  0  0  0  0  0  0  0  0  0
   -3.5684   12.4130    2.1669 H   0  0  0  0  0  0  0  0  0  0  0  0
   -3.9912   11.7248    3.7117 H   0  0  0  0  0  0  0  0  0  0  0  0
   -4.0986   10.7303    2.2591 H   0  0  0  0  0  0  0  0  0  0  0  0
   -1.2218   13.0666    3.2265 H   0  0  0  0  0  0  0  0  0  0  0  0
   -0.1999   11.8000    3.9170 H   0  0  0  0  0  0  0  0  0  0  0  0
   -1.6844   12.2933    4.7330 H   0  0  0  0  0  0  0  0  0  0  0  0
   -1.5564   11.9493    0.9894 H   0  0  0  0  0  0  0  0  0  0  0  0
   -0.3314   10.8337    1.5232 H   0  0  0  0  0  0  0  0  0  0  0  0
   -1.8713   10.2180    0.8954 H   0  0  0  0  0  0  0  0  0  0  0  0
   -2.1598    9.8682    7.8308 H   0  0  0  0  0  0  0  0  0  0  0  0
   -3.2521    9.9058    9.9772 H   0  0  0  0  0  0  0  0  0  0  0  0
   -5.9786    7.1722    8.5449 H   0  0  0  0  0  0  0  0  0  0  0  0
  1  2  2  0  0  0  0 
  1  6  1  0  0  0  0 
  1 10  1  0  0  0  0 
  2  3  1  0  0  0  0 
  3  4  2  0  0  0  0 
  4  5  1  0  0  0  0 
  5  6  2  0  0  0  0 
  6  7  1  0  0  0  0 
  7  8  2  0  0  0  0 
  8  9  1  0  0  0  0 
  9 10  2  0  0  0  0 
  9 11  1  0  0  0  0 
 11 12  1  0  0  0  0 
 12 13  1  0  0  0  0 
 12 14  2  0  0  0  0 
 12 15  2  0  0  0  0 
  4 16  1  0  0  0  0 
 17 18  2  0  0  0  0 
 18 19  1  0  0  0  0 
 19 20  2  0  0  0  0 
 20 21  1  0  0  0  0 
 21 16  2  0  0  0  0 
 17 16  1  0  0  0  0 
 21 22  1  0  0  0  0 
 22 23  1  0  0  0  0 
 20 24  1  0  0  0  0 
 24 25  1  0  0  0  0 
 24 26  1  0  0  0  0 
 24 27  1  0  0  0  0 
 18 28  1  0  0  0  0 
 29 30  2  0  0  0  0 
 30 31  1  0  0  0  0 
 31 32  1  0  0  0  0 
 32 33  1  0  0  0  0 
 28 29  1  0  0  0  0 
 28 33  1  0  0  0  0 
 33 34  2  0  0  0  0 
 31 35  2  0  0  0  0 
 36  2  1  0  0  0  0 
 37  3  1  0  0  0  0 
 38  5  1  0  0  0  0 
 39  7  1  0  0  0  0 
 40  8  1  0  0  0  0 
 41 10  1  0  0  0  0 
 42 11  1  0  0  0  0 
 43 13  1  0  0  0  0 
 44 13  1  0  0  0  0 
 45 13  1  0  0  0  0 
 46 17  1  0  0  0  0 
 47 19  1  0  0  0  0 
 48 23  1  0  0  0  0 
 49 23  1  0  0  0  0 
 50 23  1  0  0  0  0 
 51 25  1  0  0  0  0 
 52 25  1  0  0  0  0 
 53 25  1  0  0  0  0 
 54 26  1  0  0  0  0 
 55 26  1  0  0  0  0 
 56 26  1  0  0  0  0 
 57 27  1  0  0  0  0 
 58 27  1  0  0  0  0 
 59 27  1  0  0  0  0 
 60 29  1  0  0  0  0 
 61 30  1  0  0  0  0 
 62 32  1  0  0  0  0 
M  END
> <cdk:Title>
dasabuvir

> <Conformer>
1

> <SuperDrugID>
SD003847

$$$$
