chlorquinaldol
  CDK     0628171801

 21 22  0  0  0  0  0  0  0  0999 V2000
   -2.1583   -3.5927    0.0142 O   0  0  0  0  0  0  0  0  0  0  0  0
   -2.8227   -2.4084   -0.0768 C   0  0  0  0  0  0  0  0  0  0  0  0
   -2.1208   -1.1819   -0.0729 C   0  0  0  0  0  0  0  0  0  0  0  0
   -4.2286   -2.4099   -0.1789 C   0  0  0  0  0  0  0  0  0  0  0  0
   -2.8234    0.0550   -0.1596 C   0  0  0  0  0  0  0  0  0  0  0  0
   -0.7626   -1.1784    0.0089 N   0  0  0  0  0  0  0  0  0  0  0  0
   -5.0987   -3.8649   -0.2076 Cl  0  0  0  0  0  0  0  0  0  0  0  0
   -4.9272   -1.1930   -0.2715 C   0  0  0  0  0  0  0  0  0  0  0  0
   -4.2385    0.0364   -0.2616 C   0  0  0  0  0  0  0  0  0  0  0  0
   -2.0568    1.2461   -0.1421 C   0  0  0  0  0  0  0  0  0  0  0  0
   -0.0056   -0.0499    0.0151 C   0  0  0  0  0  0  0  0  0  0  0  0
   -5.1776    1.4468   -0.3851 Cl  0  0  0  0  0  0  0  0  0  0  0  0
   -0.6546    1.1982   -0.0554 C   0  0  0  0  0  0  0  0  0  0  0  0
    1.4663   -0.1459    0.0872 C   0  0  0  0  0  0  0  0  0  0  0  0
   -1.2249   -3.3948   -0.2043 H   0  0  0  0  0  0  0  0  0  0  0  0
   -5.9487   -1.2036   -0.3503 H   0  0  0  0  0  0  0  0  0  0  0  0
   -2.5018    2.1648   -0.1937 H   0  0  0  0  0  0  0  0  0  0  0  0
   -0.1145    2.0679   -0.0465 H   0  0  0  0  0  0  0  0  0  0  0  0
    1.9070    0.3103   -0.8016 H   0  0  0  0  0  0  0  0  0  0  0  0
    1.7930   -1.1872    0.1406 H   0  0  0  0  0  0  0  0  0  0  0  0
    1.8311    0.3781    0.9730 H   0  0  0  0  0  0  0  0  0  0  0  0
  1  2  1  0  0  0  0 
  2  3  2  0  0  0  0 
  2  4  1  0  0  0  0 
  3  5  1  0  0  0  0 
  3  6  1  0  0  0  0 
  4  7  1  0  0  0  0 
  4  8  2  0  0  0  0 
  5  9  2  0  0  0  0 
  5 10  1  0  0  0  0 
  6 11  2  0  0  0  0 
  8  9  1  0  0  0  0 
  9 12  1  0  0  0  0 
 10 13  2  0  0  0  0 
 11 13  1  0  0  0  0 
 11 14  1  0  0  0  0 
  1 15  1  0  0  0  0 
  8 16  1  0  0  0  0 
 10 17  1  0  0  0  0 
 13 18  1  0  0  0  0 
 14 19  1  0  0  0  0 
 14 20  1  0  0  0  0 
 14 21  1  0  0  0  0 
M  END
> <cdk:Title>
chlorquinaldol

> <Conformer>
1

> <SuperDrugID>
SD002686

$$$$
