butalamine
  CDK     0628171801

 51 52  0  0  0  0  0  0  0  0999 V2000
   -0.5655    2.5075    0.6338 N   0  0  0  0  0  0  0  0  0  0  0  0
   -1.1377    2.7980   -0.6374 C   0  0  2  0  0  0  0  0  0  0  0  0
   -1.1766    2.8487    1.7929 C   0  0  0  0  0  0  0  0  0  0  0  0
   -0.1784    2.4872   -1.8146 C   0  0  1  0  0  0  0  0  0  0  0  0
   -0.6683    2.6378    3.0107 N   0  0  0  0  0  0  0  0  0  0  0  0
   -2.3745    3.4644    1.9179 O   0  0  0  0  0  0  0  0  0  0  0  0
   -0.5615    3.1286   -3.1217 N   0  0  2  0  0  0  0  0  0  0  0  0
   -1.5596    3.1397    3.8838 C   0  0  0  0  0  0  0  0  0  0  0  0
   -2.6008    3.6346    3.1893 N   0  0  0  0  0  0  0  0  0  0  0  0
   -1.9517    2.8158   -3.6177 C   0  0  2  0  0  0  0  0  0  0  0  0
    0.4768    2.9936   -4.2028 C   0  0  2  0  0  0  0  0  0  0  0  0
   -1.4079    3.1571    5.2966 C   0  0  0  0  0  0  0  0  0  0  0  0
   -2.5682    3.9202   -4.5218 C   0  0  2  0  0  0  0  0  0  0  0  0
    1.8494    3.6475   -3.8856 C   0  0  2  0  0  0  0  0  0  0  0  0
   -2.4060    3.7119    6.1381 C   0  0  0  0  0  0  0  0  0  0  0  0
   -0.2343    2.6387    5.8991 C   0  0  0  0  0  0  0  0  0  0  0  0
   -2.4002    5.3459   -3.9271 C   0  0  1  0  0  0  0  0  0  0  0  0
    2.7572    3.7833   -5.1369 C   0  0  1  0  0  0  0  0  0  0  0  0
   -2.2256    3.7596    7.5337 C   0  0  0  0  0  0  0  0  0  0  0  0
   -0.0550    2.6891    7.2927 C   0  0  0  0  0  0  0  0  0  0  0  0
   -3.0808    6.4416   -4.7724 C   0  0  0  0  0  0  0  0  0  0  0  0
    4.1631    4.3315   -4.8077 C   0  0  0  0  0  0  0  0  0  0  0  0
   -1.0534    3.2424    8.1121 C   0  0  0  0  0  0  0  0  0  0  0  0
    0.2816    2.0359    0.6724 H   0  0  0  0  0  0  0  0  0  0  0  0
   -1.4086    3.8561   -0.6825 H   0  0  0  0  0  0  0  0  0  0  0  0
   -2.0411    2.1931   -0.7253 H   0  0  0  0  0  0  0  0  0  0  0  0
    0.7950    2.8718   -1.5072 H   0  0  0  0  0  0  0  0  0  0  0  0
   -0.0861    1.4051   -1.9347 H   0  0  0  0  0  0  0  0  0  0  0  0
   -2.6571    2.7106   -2.7944 H   0  0  0  0  0  0  0  0  0  0  0  0
   -1.9569    1.8611   -4.1526 H   0  0  0  0  0  0  0  0  0  0  0  0
    0.1149    3.4754   -5.1130 H   0  0  0  0  0  0  0  0  0  0  0  0
    0.6302    1.9366   -4.4337 H   0  0  0  0  0  0  0  0  0  0  0  0
   -3.6343    3.7075   -4.6495 H   0  0  0  0  0  0  0  0  0  0  0  0
   -2.1169    3.8827   -5.5156 H   0  0  0  0  0  0  0  0  0  0  0  0
    2.3789    3.0373   -3.1513 H   0  0  0  0  0  0  0  0  0  0  0  0
    1.6802    4.6388   -3.4557 H   0  0  0  0  0  0  0  0  0  0  0  0
   -3.2739    4.0912    5.7505 H   0  0  0  0  0  0  0  0  0  0  0  0
    0.5054    2.2217    5.3296 H   0  0  0  0  0  0  0  0  0  0  0  0
   -2.8161    5.3748   -2.9171 H   0  0  0  0  0  0  0  0  0  0  0  0
   -1.3373    5.5889   -3.8554 H   0  0  0  0  0  0  0  0  0  0  0  0
    2.8702    2.8071   -5.6163 H   0  0  0  0  0  0  0  0  0  0  0  0
    2.2848    4.4585   -5.8536 H   0  0  0  0  0  0  0  0  0  0  0  0
   -2.9456    4.1738    8.1303 H   0  0  0  0  0  0  0  0  0  0  0  0
    0.8037    2.3256    7.7112 H   0  0  0  0  0  0  0  0  0  0  0  0
   -2.8844    7.4213   -4.3329 H   0  0  0  0  0  0  0  0  0  0  0  0
   -4.1588    6.2811   -4.8023 H   0  0  0  0  0  0  0  0  0  0  0  0
   -2.6871    6.4305   -5.7904 H   0  0  0  0  0  0  0  0  0  0  0  0
    4.7378    4.4531   -5.7273 H   0  0  0  0  0  0  0  0  0  0  0  0
    4.6942    3.6389   -4.1534 H   0  0  0  0  0  0  0  0  0  0  0  0
    4.0904    5.3016   -4.3147 H   0  0  0  0  0  0  0  0  0  0  0  0
   -0.9246    3.2720    9.1280 H   0  0  0  0  0  0  0  0  0  0  0  0
  1  2  1  0  0  0  0 
  1  3  1  0  0  0  0 
  2  4  1  0  0  0  0 
  3  5  2  0  0  0  0 
  3  6  1  0  0  0  0 
  4  7  1  0  0  0  0 
  5  8  1  0  0  0  0 
  6  9  1  0  0  0  0 
  7 10  1  0  0  0  0 
  7 11  1  0  0  0  0 
  8  9  2  0  0  0  0 
  8 12  1  0  0  0  0 
 10 13  1  0  0  0  0 
 11 14  1  0  0  0  0 
 12 15  2  0  0  0  0 
 12 16  1  0  0  0  0 
 13 17  1  0  0  0  0 
 14 18  1  0  0  0  0 
 15 19  1  0  0  0  0 
 16 20  2  0  0  0  0 
 17 21  1  0  0  0  0 
 18 22  1  0  0  0  0 
 19 23  2  0  0  0  0 
 20 23  1  0  0  0  0 
  1 24  1  0  0  0  0 
  2 25  1  0  0  0  0 
  2 26  1  0  0  0  0 
  4 27  1  0  0  0  0 
  4 28  1  0  0  0  0 
 10 29  1  0  0  0  0 
 10 30  1  0  0  0  0 
 11 31  1  0  0  0  0 
 11 32  1  0  0  0  0 
 13 33  1  0  0  0  0 
 13 34  1  0  0  0  0 
 14 35  1  0  0  0  0 
 14 36  1  0  0  0  0 
 15 37  1  0  0  0  0 
 16 38  1  0  0  0  0 
 17 39  1  0  0  0  0 
 17 40  1  0  0  0  0 
 18 41  1  0  0  0  0 
 18 42  1  0  0  0  0 
 19 43  1  0  0  0  0 
 20 44  1  0  0  0  0 
 21 45  1  0  0  0  0 
 21 46  1  0  0  0  0 
 21 47  1  0  0  0  0 
 22 48  1  0  0  0  0 
 22 49  1  0  0  0  0 
 22 50  1  0  0  0  0 
 23 51  1  0  0  0  0 
M  END
> <cdk:Title>
butalamine

> <Conformer>
1

> <SuperDrugID>
SD000382

$$$$
