haloxazolam
  CDK     0628171801

 37 40  0  0  0  0  0  0  0  0999 V2000
   -0.2746   -1.1928    0.3065 F   0  0  0  0  0  0  0  0  0  0  0  0
    0.2380    0.0077    0.2350 C   0  0  0  0  0  0  0  0  0  0  0  0
   -0.5836    1.1671    0.1284 C   0  0  0  0  0  0  0  0  0  0  0  0
    1.6438    0.1029    0.2541 C   0  0  0  0  0  0  0  0  0  0  0  0
   -2.0946    1.0444    0.0503 C   0  0  1  0  0  0  0  0  0  0  0  0
    0.0829    2.4219    0.0399 C   0  0  0  0  0  0  0  0  0  0  0  0
    2.2660    1.3583    0.1644 C   0  0  0  0  0  0  0  0  0  0  0  0
   -2.8370    2.3466    0.2572 C   0  0  0  0  0  0  0  0  0  0  0  0
   -2.4398    0.2668   -1.1624 N   0  0  0  0  0  0  0  0  0  0  0  0
   -2.5549    0.1268    1.0715 O   0  0  0  0  0  0  0  0  0  0  0  0
    1.4856    2.5189    0.0606 C   0  0  0  0  0  0  0  0  0  0  0  0
   -3.5659    3.0781   -0.7361 C   0  0  0  0  0  0  0  0  0  0  0  0
   -2.7796    2.8820    1.5733 C   0  0  0  0  0  0  0  0  0  0  0  0
   -3.6676   -0.5065   -0.9172 C   0  0  2  0  0  0  0  0  0  0  0  0
   -2.2038    0.8388   -2.5045 C   0  0  1  0  0  0  0  0  0  0  0  0
   -3.7643   -0.4927    0.6133 C   0  0  1  0  0  0  0  0  0  0  0  0
   -3.7190    2.8084   -2.0720 N   0  0  0  0  0  0  0  0  0  0  0  0
   -4.2340    4.2707   -0.3552 C   0  0  0  0  0  0  0  0  0  0  0  0
   -3.4225    4.0778    1.9210 C   0  0  0  0  0  0  0  0  0  0  0  0
   -3.1751    1.8719   -2.8860 C   0  0  0  0  0  0  0  0  0  0  0  0
   -4.1632    4.7701    0.9549 C   0  0  0  0  0  0  0  0  0  0  0  0
   -3.2782    4.7396    3.6550 Br  0  0  0  0  0  0  0  0  0  0  0  0
   -3.5386    1.9212   -4.0838 O   0  0  0  0  0  0  0  0  0  0  0  0
    2.2194   -0.7400    0.3284 H   0  0  0  0  0  0  0  0  0  0  0  0
   -0.4417    3.2930   -0.0533 H   0  0  0  0  0  0  0  0  0  0  0  0
    3.2864    1.4260    0.1717 H   0  0  0  0  0  0  0  0  0  0  0  0
    1.9393    3.4336   -0.0062 H   0  0  0  0  0  0  0  0  0  0  0  0
   -2.2519    2.3964    2.3042 H   0  0  0  0  0  0  0  0  0  0  0  0
   -3.5511   -1.5210   -1.3048 H   0  0  0  0  0  0  0  0  0  0  0  0
   -4.5505   -0.0393   -1.3597 H   0  0  0  0  0  0  0  0  0  0  0  0
   -1.2041    1.2752   -2.5581 H   0  0  0  0  0  0  0  0  0  0  0  0
   -2.2258    0.0185   -3.2267 H   0  0  0  0  0  0  0  0  0  0  0  0
   -3.8463   -1.5006    1.0252 H   0  0  0  0  0  0  0  0  0  0  0  0
   -4.6276    0.0932    0.9413 H   0  0  0  0  0  0  0  0  0  0  0  0
   -4.3227    3.4125   -2.5349 H   0  0  0  0  0  0  0  0  0  0  0  0
   -4.7804    4.8082   -1.0381 H   0  0  0  0  0  0  0  0  0  0  0  0
   -4.6432    5.6403    1.2009 H   0  0  0  0  0  0  0  0  0  0  0  0
  1  2  1  0  0  0  0 
  2  3  2  0  0  0  0 
  2  4  1  0  0  0  0 
  5  3  1  0  0  0  0 
  3  6  1  0  0  0  0 
  4  7  2  0  0  0  0 
  5  8  1  0  0  0  0 
  5  9  1  0  0  0  0 
  5 10  1  0  0  0  0 
  6 11  2  0  0  0  0 
  7 11  1  0  0  0  0 
  8 12  2  0  0  0  0 
  8 13  1  0  0  0  0 
  9 14  1  0  0  0  0 
  9 15  1  0  0  0  0 
 10 16  1  0  0  0  0 
 12 17  1  0  0  0  0 
 12 18  1  0  0  0  0 
 13 19  2  0  0  0  0 
 14 16  1  0  0  0  0 
 15 20  1  0  0  0  0 
 17 20  1  0  0  0  0 
 18 21  2  0  0  0  0 
 19 21  1  0  0  0  0 
 19 22  1  0  0  0  0 
 20 23  2  0  0  0  0 
  4 24  1  0  0  0  0 
  6 25  1  0  0  0  0 
  7 26  1  0  0  0  0 
 11 27  1  0  0  0  0 
 13 28  1  0  0  0  0 
 14 29  1  0  0  0  0 
 14 30  1  0  0  0  0 
 15 31  1  0  0  0  0 
 15 32  1  0  0  0  0 
 16 33  1  0  0  0  0 
 16 34  1  0  0  0  0 
 17 35  1  0  0  0  0 
 18 36  1  0  0  0  0 
 21 37  1  0  0  0  0 
M  END
> <cdk:Title>
haloxazolam

> <Conformer>
1

> <SuperDrugID>
SD001204

$$$$
