oxabolone cipionate
  CDK     0628171802

 68 72  0  0  0  0  0  0  0  0999 V2000
   -5.5703   -0.2498    4.0240 C   0  0  0  0  0  0  0  0  0  0  0  0
   -5.3199    1.2345    3.5564 C   0  0  2  0  0  0  0  0  0  0  0  0
   -3.8272    1.7090    3.5898 C   0  0  2  0  0  0  0  0  0  0  0  0
   -5.9649    2.2347    4.5858 C   0  0  1  0  0  0  0  0  0  0  0  0
   -5.7783    1.3928    2.0662 C   0  0  2  0  0  0  0  0  0  0  0  0
   -2.8721    0.8047    2.7513 C   0  0  1  0  0  0  0  0  0  0  0  0
   -3.5428    1.9173    5.0863 C   0  0  2  0  0  0  0  0  0  0  0  0
   -7.0418    1.7422    5.4061 O   0  0  0  0  0  0  0  0  0  0  0  0
   -4.8213    2.6311    5.5649 C   0  0  2  0  0  0  0  0  0  0  0  0
   -4.8839    0.5816    1.0743 C   0  0  2  0  0  0  0  0  0  0  0  0
   -3.3358    0.8042    1.2431 C   0  0  2  0  0  0  0  0  0  0  0  0
   -1.3746    1.2253    2.8537 C   0  0  2  0  0  0  0  0  0  0  0  0
   -8.3076    1.3811    5.0673 C   0  0  0  0  0  0  0  0  0  0  0  0
   -2.4497   -0.2084    0.4207 C   0  0  2  0  0  0  0  0  0  0  0  0
   -0.4802    0.2496    2.0500 C   0  0  1  0  0  0  0  0  0  0  0  0
   -9.2089    0.9100    6.1356 C   0  0  2  0  0  0  0  0  0  0  0  0
   -8.7056    1.4434    3.8816 O   0  0  0  0  0  0  0  0  0  0  0  0
   -0.9224    0.1374    0.5564 C   0  0  1  0  0  0  0  0  0  0  0  0
   -2.8169   -0.2805   -1.0958 C   0  0  1  0  0  0  0  0  0  0  0  0
   -8.7665   -0.4466    6.7521 C   0  0  2  0  0  0  0  0  0  0  0  0
   -0.0688   -0.7989   -0.2331 C   0  0  0  0  0  0  0  0  0  0  0  0
   -1.9213   -1.2527   -1.9113 C   0  0  2  0  0  0  0  0  0  0  0  0
   -9.7502   -1.0048    7.8329 C   0  0  1  0  0  0  0  0  0  0  0  0
    1.0925   -1.0776    0.1513 O   0  0  0  0  0  0  0  0  0  0  0  0
   -0.5209   -1.3645   -1.4477 C   0  0  0  0  0  0  0  0  0  0  0  0
  -11.1480   -1.3635    7.2720 C   0  0  2  0  0  0  0  0  0  0  0  0
   -9.2722   -2.4046    8.3980 C   0  0  1  0  0  0  0  0  0  0  0  0
    0.2647   -2.0340   -2.1597 O   0  0  0  0  0  0  0  0  0  0  0  0
  -11.7599   -2.3974    8.2372 C   0  0  2  0  0  0  0  0  0  0  0  0
  -10.5941   -3.1885    8.8747 C   0  0  2  0  0  0  0  0  0  0  0  0
   -6.6272   -0.5030    3.9295 H   0  0  0  0  0  0  0  0  0  0  0  0
   -5.2772   -0.4043    5.0635 H   0  0  0  0  0  0  0  0  0  0  0  0
   -5.0286   -0.9751    3.4222 H   0  0  0  0  0  0  0  0  0  0  0  0
   -3.7541    2.7114    3.1403 H   0  0  0  0  0  0  0  0  0  0  0  0
   -6.3050    3.1365    4.0636 H   0  0  0  0  0  0  0  0  0  0  0  0
   -5.7348    2.4468    1.7789 H   0  0  0  0  0  0  0  0  0  0  0  0
   -6.8174    1.0801    1.9492 H   0  0  0  0  0  0  0  0  0  0  0  0
   -2.9270   -0.2116    3.1466 H   0  0  0  0  0  0  0  0  0  0  0  0
   -2.6631    2.5407    5.2572 H   0  0  0  0  0  0  0  0  0  0  0  0
   -3.4113    0.9618    5.6004 H   0  0  0  0  0  0  0  0  0  0  0  0
   -5.0383    2.3472    6.5985 H   0  0  0  0  0  0  0  0  0  0  0  0
   -4.6692    3.7146    5.5366 H   0  0  0  0  0  0  0  0  0  0  0  0
   -5.1787    0.8824    0.0653 H   0  0  0  0  0  0  0  0  0  0  0  0
   -5.1117   -0.4830    1.1615 H   0  0  0  0  0  0  0  0  0  0  0  0
   -3.1428    1.8097    0.8470 H   0  0  0  0  0  0  0  0  0  0  0  0
   -1.0480    1.2115    3.8966 H   0  0  0  0  0  0  0  0  0  0  0  0
   -1.2357    2.2436    2.4777 H   0  0  0  0  0  0  0  0  0  0  0  0
   -2.6155   -1.2083    0.8352 H   0  0  0  0  0  0  0  0  0  0  0  0
    0.5521    0.6091    2.1037 H   0  0  0  0  0  0  0  0  0  0  0  0
   -0.5139   -0.7383    2.5210 H   0  0  0  0  0  0  0  0  0  0  0  0
  -10.2169    0.8097    5.7290 H   0  0  0  0  0  0  0  0  0  0  0  0
   -9.2321    1.6744    6.9147 H   0  0  0  0  0  0  0  0  0  0  0  0
   -0.7673    1.1266    0.1139 H   0  0  0  0  0  0  0  0  0  0  0  0
   -3.8466   -0.6225   -1.2169 H   0  0  0  0  0  0  0  0  0  0  0  0
   -2.7467    0.7205   -1.5313 H   0  0  0  0  0  0  0  0  0  0  0  0
   -7.7849   -0.3179    7.2168 H   0  0  0  0  0  0  0  0  0  0  0  0
   -8.6563   -1.1787    5.9470 H   0  0  0  0  0  0  0  0  0  0  0  0
   -1.9222   -0.9284   -2.9572 H   0  0  0  0  0  0  0  0  0  0  0  0
   -2.3587   -2.2564   -1.8771 H   0  0  0  0  0  0  0  0  0  0  0  0
   -9.8976   -0.1824    8.5930 H   0  0  0  0  0  0  0  0  0  0  0  0
  -11.0604   -1.8076    6.2761 H   0  0  0  0  0  0  0  0  0  0  0  0
  -11.7892   -0.4806    7.2025 H   0  0  0  0  0  0  0  0  0  0  0  0
   -8.7714   -2.9960    7.6254 H   0  0  0  0  0  0  0  0  0  0  0  0
   -8.5919   -2.2671    9.2421 H   0  0  0  0  0  0  0  0  0  0  0  0
  -12.4416   -3.0625    7.6994 H   0  0  0  0  0  0  0  0  0  0  0  0
  -12.3340   -1.8783    9.0113 H   0  0  0  0  0  0  0  0  0  0  0  0
  -10.7836   -3.2240    9.9812 H   0  0  0  0  0  0  0  0  0  0  0  0
  -10.6788   -4.2603    8.5458 H   0  0  0  0  0  0  0  0  0  0  0  0
  2  1  1  0  0  0  0 
  2  3  1  0  0  0  0 
  2  4  1  0  0  0  0 
  2  5  1  0  0  0  0 
  3  6  1  0  0  0  0 
  3  7  1  0  0  0  0 
  4  8  1  0  0  0  0 
  4  9  1  0  0  0  0 
  5 10  1  0  0  0  0 
  6 11  1  0  0  0  0 
  6 12  1  0  0  0  0 
  7  9  1  0  0  0  0 
  8 13  1  0  0  0  0 
 11 10  1  0  0  0  0 
 11 14  1  0  0  0  0 
 12 15  1  0  0  0  0 
 13 16  1  0  0  0  0 
 13 17  2  0  0  0  0 
 14 18  1  0  0  0  0 
 14 19  1  0  0  0  0 
 15 18  1  0  0  0  0 
 16 20  1  0  0  0  0 
 18 21  1  0  0  0  0 
 19 22  1  0  0  0  0 
 20 23  1  0  0  0  0 
 21 24  2  0  0  0  0 
 21 25  1  0  0  0  0 
 22 25  1  0  0  0  0 
 23 26  1  0  0  0  0 
 23 27  1  0  0  0  0 
 25 28  2  0  0  0  0 
 26 29  1  0  0  0  0 
 27 30  1  0  0  0  0 
 29 30  1  0  0  0  0 
 31  1  1  0  0  0  0 
 32  1  1  0  0  0  0 
 33  1  1  0  0  0  0 
  3 34  1  0  0  0  0 
  4 35  1  0  0  0  0 
 36  5  1  0  0  0  0 
 37  5  1  0  0  0  0 
  6 38  1  0  0  0  0 
 39  7  1  0  0  0  0 
 40  7  1  0  0  0  0 
 41  9  1  0  0  0  0 
 42  9  1  0  0  0  0 
 43 10  1  0  0  0  0 
 44 10  1  0  0  0  0 
 11 45  1  0  0  0  0 
 46 12  1  0  0  0  0 
 47 12  1  0  0  0  0 
 14 48  1  0  0  0  0 
 49 15  1  0  0  0  0 
 50 15  1  0  0  0  0 
 51 16  1  0  0  0  0 
 52 16  1  0  0  0  0 
 53 18  1  0  0  0  0 
 54 19  1  0  0  0  0 
 55 19  1  0  0  0  0 
 56 20  1  0  0  0  0 
 57 20  1  0  0  0  0 
 58 22  1  0  0  0  0 
 59 22  1  0  0  0  0 
 60 23  1  0  0  0  0 
 61 26  1  0  0  0  0 
 62 26  1  0  0  0  0 
 63 27  1  0  0  0  0 
 64 27  1  0  0  0  0 
 65 29  1  0  0  0  0 
 66 29  1  0  0  0  0 
 67 30  1  0  0  0  0 
 68 30  1  0  0  0  0 
M  END
> <cdk:Title>
oxabolone cipionate

> <Conformer>
1

> <SuperDrugID>
SD003711

$$$$
