methysergide
  CDK     0628171801

 53 56  0  0  0  0  0  0  0  0999 V2000
   -2.7165   -6.2882   -3.1280 C   0  0  0  0  0  0  0  0  0  0  0  0
   -2.3581   -5.1283   -2.3714 N   0  0  0  0  0  0  0  0  0  0  0  0
   -3.1830   -4.1145   -2.0093 C   0  0  0  0  0  0  0  0  0  0  0  0
   -1.1204   -4.8646   -1.8792 C   0  0  0  0  0  0  0  0  0  0  0  0
   -2.4477   -3.2099   -1.2527 C   0  0  0  0  0  0  0  0  0  0  0  0
   -4.5438   -3.8476   -2.2468 C   0  0  0  0  0  0  0  0  0  0  0  0
   -1.1552   -3.6672   -1.1701 C   0  0  0  0  0  0  0  0  0  0  0  0
   -2.9406   -2.0298   -0.6741 C   0  0  0  0  0  0  0  0  0  0  0  0
   -5.1053   -2.6700   -1.7056 C   0  0  0  0  0  0  0  0  0  0  0  0
   -0.1253   -2.9157   -0.4400 C   0  0  2  0  0  0  0  0  0  0  0  0
   -2.0243   -1.2420    0.0785 C   0  0  0  0  0  0  0  0  0  0  0  0
   -4.3206   -1.7803   -0.9305 C   0  0  0  0  0  0  0  0  0  0  0  0
   -0.7463   -1.8694    0.5641 C   0  0  2  0  0  0  0  0  0  0  0  0
   -2.2970    0.0502    0.3691 C   0  0  0  0  0  0  0  0  0  0  0  0
    0.3025   -0.8666    0.9942 N   0  0  2  0  0  0  0  0  0  0  0  0
   -1.4300    0.9364    1.1347 C   0  0  2  0  0  0  0  0  0  0  0  0
    1.5291   -1.4346    1.6398 C   0  0  0  0  0  0  0  0  0  0  0  0
   -0.2840    0.1879    1.8686 C   0  0  1  0  0  0  0  0  0  0  0  0
   -2.2095    1.8331    2.0379 C   0  0  0  0  0  0  0  0  0  0  0  0
   -2.3804    1.5459    3.3625 N   0  0  0  0  0  0  0  0  0  0  0  0
   -2.6929    2.8830    1.5516 O   0  0  0  0  0  0  0  0  0  0  0  0
   -2.9691    2.3979    4.3519 C   0  0  1  0  0  0  0  0  0  0  0  0
   -3.6499    1.5311    5.4532 C   0  0  2  0  0  0  0  0  0  0  0  0
   -1.8551    3.2910    4.9690 C   0  0  2  0  0  0  0  0  0  0  0  0
   -4.8654    0.7115    4.9637 C   0  0  0  0  0  0  0  0  0  0  0  0
   -1.2273    4.1090    3.9853 O   0  0  0  0  0  0  0  0  0  0  0  0
   -1.0387   -2.4455    1.4505 H   0  0  0  0  0  0  0  0  0  0  0  0
   -3.0736   -5.9942   -4.1164 H   0  0  0  0  0  0  0  0  0  0  0  0
   -1.8678   -6.9642   -3.2579 H   0  0  0  0  0  0  0  0  0  0  0  0
   -3.5069   -6.8358   -2.6116 H   0  0  0  0  0  0  0  0  0  0  0  0
   -0.2899   -5.4495   -1.9960 H   0  0  0  0  0  0  0  0  0  0  0  0
   -5.1152   -4.4894   -2.7983 H   0  0  0  0  0  0  0  0  0  0  0  0
   -6.0910   -2.4600   -1.8743 H   0  0  0  0  0  0  0  0  0  0  0  0
    0.5048   -2.4055   -1.1714 H   0  0  0  0  0  0  0  0  0  0  0  0
    0.4870   -3.6383    0.1081 H   0  0  0  0  0  0  0  0  0  0  0  0
   -4.7837   -0.9533   -0.5546 H   0  0  0  0  0  0  0  0  0  0  0  0
   -3.1298    0.4613    0.0154 H   0  0  0  0  0  0  0  0  0  0  0  0
   -0.9379    1.5741    0.3919 H   0  0  0  0  0  0  0  0  0  0  0  0
    2.0401   -2.1385    0.9852 H   0  0  0  0  0  0  0  0  0  0  0  0
    1.2819   -1.9426    2.5758 H   0  0  0  0  0  0  0  0  0  0  0  0
    2.2469   -0.6389    1.8533 H   0  0  0  0  0  0  0  0  0  0  0  0
   -0.6460   -0.2902    2.7831 H   0  0  0  0  0  0  0  0  0  0  0  0
    0.4741    0.9261    2.1528 H   0  0  0  0  0  0  0  0  0  0  0  0
   -2.0319    0.7012    3.6815 H   0  0  0  0  0  0  0  0  0  0  0  0
   -3.7315    3.0432    3.9024 H   0  0  0  0  0  0  0  0  0  0  0  0
   -3.9956    2.1860    6.2564 H   0  0  0  0  0  0  0  0  0  0  0  0
   -2.9177    0.8416    5.8829 H   0  0  0  0  0  0  0  0  0  0  0  0
   -1.0899    2.6683    5.4408 H   0  0  0  0  0  0  0  0  0  0  0  0
   -2.2815    3.9504    5.7274 H   0  0  0  0  0  0  0  0  0  0  0  0
   -4.5701    0.0141    4.1778 H   0  0  0  0  0  0  0  0  0  0  0  0
   -5.2787    0.1389    5.7972 H   0  0  0  0  0  0  0  0  0  0  0  0
   -5.6415    1.3766    4.5805 H   0  0  0  0  0  0  0  0  0  0  0  0
   -0.5540    4.6282    4.4754 H   0  0  0  0  0  0  0  0  0  0  0  0
  1  2  1  0  0  0  0 
  2  3  1  0  0  0  0 
  2  4  1  0  0  0  0 
  3  5  1  0  0  0  0 
  3  6  2  0  0  0  0 
  4  7  2  0  0  0  0 
  5  7  1  0  0  0  0 
  5  8  2  0  0  0  0 
  6  9  1  0  0  0  0 
  7 10  1  0  0  0  0 
  8 11  1  0  0  0  0 
  8 12  1  0  0  0  0 
  9 12  2  0  0  0  0 
 13 10  1  0  0  0  0 
 13 11  1  0  0  0  0 
 11 14  2  0  0  0  0 
 13 15  1  0  0  0  0 
 13 27  1  0  0  0  0 
 16 14  1  0  0  0  0 
 15 17  1  0  0  0  0 
 15 18  1  0  0  0  0 
 16 18  1  0  0  0  0 
 16 19  1  0  0  0  0 
 19 20  1  0  0  0  0 
 19 21  2  0  0  0  0 
 22 20  1  0  0  0  0 
 22 23  1  0  0  0  0 
 22 24  1  0  0  0  0 
 23 25  1  0  0  0  0 
 24 26  1  0  0  0  0 
  1 28  1  0  0  0  0 
  1 29  1  0  0  0  0 
  1 30  1  0  0  0  0 
  4 31  1  0  0  0  0 
  6 32  1  0  0  0  0 
  9 33  1  0  0  0  0 
 10 34  1  0  0  0  0 
 10 35  1  0  0  0  0 
 12 36  1  0  0  0  0 
 14 37  1  0  0  0  0 
 16 38  1  0  0  0  0 
 17 39  1  0  0  0  0 
 17 40  1  0  0  0  0 
 17 41  1  0  0  0  0 
 18 42  1  0  0  0  0 
 18 43  1  0  0  0  0 
 20 44  1  0  0  0  0 
 22 45  1  0  0  0  0 
 23 46  1  0  0  0  0 
 23 47  1  0  0  0  0 
 24 48  1  0  0  0  0 
 24 49  1  0  0  0  0 
 25 50  1  0  0  0  0 
 25 51  1  0  0  0  0 
 25 52  1  0  0  0  0 
 26 53  1  0  0  0  0 
M  END
> <cdk:Title>
methysergide

> <Conformer>
1

> <SuperDrugID>
SD001575

$$$$
