hydroxycarbamide
  CDK     0628171801

  9  8  0  0  0  0  0  0  0  0999 V2000
    2.3308    0.0842    0.5455 N   0  0  0  0  0  0  0  0  0  0  0  0
    1.1394    0.3014   -0.0325 C   0  0  0  0  0  0  0  0  0  0  0  0
    1.0665    1.1138   -0.9826 O   0  0  0  0  0  0  0  0  0  0  0  0
    0.0553   -0.3577    0.4238 N   0  0  0  0  0  0  0  0  0  0  0  0
   -1.1284   -0.1884   -0.0972 O   0  0  0  0  0  0  0  0  0  0  0  0
    2.4072   -0.5419    1.2817 H   0  0  0  0  0  0  0  0  0  0  0  0
    3.1179    0.5536    0.2280 H   0  0  0  0  0  0  0  0  0  0  0  0
    0.1577   -0.9786    1.1619 H   0  0  0  0  0  0  0  0  0  0  0  0
   -1.1854   -0.8654   -0.8037 H   0  0  0  0  0  0  0  0  0  0  0  0
  1  2  1  0  0  0  0 
  2  3  2  0  0  0  0 
  2  4  1  0  0  0  0 
  4  5  1  0  0  0  0 
  6  1  1  0  0  0  0 
  7  1  1  0  0  0  0 
  8  4  1  0  0  0  0 
  9  5  1  0  0  0  0 
M  END
> <cdk:Title>
hydroxycarbamide

> <Conformer>
1

> <SuperDrugID>
SD001243

$$$$
