lincomycin
  CDK     0628171801

 61 62  0  0  0  0  0  0  0  0999 V2000
    1.5703   -5.4429   -5.3532 C   0  0  2  0  0  0  0  0  0  0  0  0
    1.8704   -5.9604   -6.6553 N   0  0  0  0  0  0  0  0  0  0  0  0
    1.7053   -6.5898   -4.3030 C   0  0  1  0  0  0  0  0  0  0  0  0
    0.1658   -4.7381   -5.3569 C   0  0  1  0  0  0  0  0  0  0  0  0
    3.0283   -5.7800   -7.3561 C   0  0  0  0  0  0  0  0  0  0  0  0
    0.8101   -7.8294   -4.5497 C   0  0  0  0  0  0  0  0  0  0  0  0
    3.0675   -7.0184   -4.2708 O   0  0  0  0  0  0  0  0  0  0  0  0
   -0.2503   -4.3231   -4.0318 O   0  0  0  0  0  0  0  0  0  0  0  0
   -0.0330   -3.5493   -6.3559 C   0  0  2  0  0  0  0  0  0  0  0  0
    3.9839   -5.1339   -6.8616 O   0  0  0  0  0  0  0  0  0  0  0  0
    3.2084   -6.3206   -8.7280 C   0  0  2  0  0  0  0  0  0  0  0  0
    0.4121   -3.1619   -3.4823 C   0  0  2  0  0  0  0  0  0  0  0  0
    0.3813   -3.8536   -7.6864 O   0  0  0  0  0  0  0  0  0  0  0  0
    0.6508   -2.2449   -5.8666 C   0  0  1  0  0  0  0  0  0  0  0  0
    1.9068   -6.6905   -9.4749 C   0  0  2  0  0  0  0  0  0  0  0  0
    3.9572   -7.6039   -8.7750 N   0  0  2  0  0  0  0  0  0  0  0  0
   -0.2669   -2.8473   -1.8183 S   0  0  0  0  0  0  0  0  0  0  0  0
    0.2333   -1.9211   -4.4048 C   0  0  1  0  0  0  0  0  0  0  0  0
    2.0699   -2.3374   -5.9779 O   0  0  0  0  0  0  0  0  0  0  0  0
    2.3876   -7.5506  -10.6669 C   0  0  2  0  0  0  0  0  0  0  0  0
    5.4105   -7.5549   -8.4614 C   0  0  0  0  0  0  0  0  0  0  0  0
    3.6354   -8.2642  -10.0725 C   0  0  1  0  0  0  0  0  0  0  0  0
    0.0364   -4.3924   -0.9108 C   0  0  0  0  0  0  0  0  0  0  0  0
   -1.1286   -1.4869   -4.4174 O   0  0  0  0  0  0  0  0  0  0  0  0
    2.6927   -6.7245  -11.9598 C   0  0  1  0  0  0  0  0  0  0  0  0
    1.4220   -6.1898  -12.6811 C   0  0  2  0  0  0  0  0  0  0  0  0
    1.7457   -5.4002  -13.9708 C   0  0  0  0  0  0  0  0  0  0  0  0
    2.3178   -4.7000   -5.0744 H   0  0  0  0  0  0  0  0  0  0  0  0
   -0.5635   -5.4935   -5.6556 H   0  0  0  0  0  0  0  0  0  0  0  0
    1.1714   -6.4819   -7.0764 H   0  0  0  0  0  0  0  0  0  0  0  0
    1.4791   -6.1915   -3.3112 H   0  0  0  0  0  0  0  0  0  0  0  0
    0.9829   -8.5695   -3.7669 H   0  0  0  0  0  0  0  0  0  0  0  0
    1.0446   -8.2858   -5.5128 H   0  0  0  0  0  0  0  0  0  0  0  0
   -0.2462   -7.5613   -4.5323 H   0  0  0  0  0  0  0  0  0  0  0  0
    3.1251   -7.6580   -3.5307 H   0  0  0  0  0  0  0  0  0  0  0  0
   -1.1093   -3.3518   -6.4186 H   0  0  0  0  0  0  0  0  0  0  0  0
    3.7259   -5.5519   -9.3162 H   0  0  0  0  0  0  0  0  0  0  0  0
    1.4753   -3.3678   -3.3428 H   0  0  0  0  0  0  0  0  0  0  0  0
   -0.1207   -4.6599   -7.9345 H   0  0  0  0  0  0  0  0  0  0  0  0
    0.3448   -1.4204   -6.5190 H   0  0  0  0  0  0  0  0  0  0  0  0
    1.3568   -5.7930   -9.7653 H   0  0  0  0  0  0  0  0  0  0  0  0
    1.2543   -7.3134   -8.8544 H   0  0  0  0  0  0  0  0  0  0  0  0
    0.8416   -1.0939   -4.0305 H   0  0  0  0  0  0  0  0  0  0  0  0
    2.4052   -1.4717   -5.6628 H   0  0  0  0  0  0  0  0  0  0  0  0
    1.6309   -8.3034  -10.9135 H   0  0  0  0  0  0  0  0  0  0  0  0
    5.5808   -7.0873   -7.4938 H   0  0  0  0  0  0  0  0  0  0  0  0
    5.8017   -8.5719   -8.4078 H   0  0  0  0  0  0  0  0  0  0  0  0
    5.9604   -7.0001   -9.2253 H   0  0  0  0  0  0  0  0  0  0  0  0
    4.4710   -8.2393  -10.7791 H   0  0  0  0  0  0  0  0  0  0  0  0
    3.4157   -9.3153   -9.8646 H   0  0  0  0  0  0  0  0  0  0  0  0
   -0.3498   -4.2877    0.1034 H   0  0  0  0  0  0  0  0  0  0  0  0
    1.1066   -4.5967   -0.8703 H   0  0  0  0  0  0  0  0  0  0  0  0
   -0.4754   -5.2186   -1.4040 H   0  0  0  0  0  0  0  0  0  0  0  0
   -1.3370   -1.2427   -3.4903 H   0  0  0  0  0  0  0  0  0  0  0  0
    3.3505   -5.8846  -11.7162 H   0  0  0  0  0  0  0  0  0  0  0  0
    3.2274   -7.3718  -12.6626 H   0  0  0  0  0  0  0  0  0  0  0  0
    0.8612   -5.5282  -12.0183 H   0  0  0  0  0  0  0  0  0  0  0  0
    0.7747   -7.0338  -12.9362 H   0  0  0  0  0  0  0  0  0  0  0  0
    2.3991   -4.5526  -13.7492 H   0  0  0  0  0  0  0  0  0  0  0  0
    2.2371   -6.0479  -14.7000 H   0  0  0  0  0  0  0  0  0  0  0  0
    0.8212   -5.0176  -14.4095 H   0  0  0  0  0  0  0  0  0  0  0  0
  1  2  1  0  0  0  0 
  1  3  1  0  0  0  0 
  4  1  1  0  0  0  0 
  1 28  1  0  0  0  0 
  2  5  1  0  0  0  0 
  3  6  1  0  0  0  0 
  3  7  1  0  0  0  0 
  4  8  1  0  0  0  0 
  9  4  1  0  0  0  0 
  4 29  1  0  0  0  0 
  5 10  2  0  0  0  0 
 12  8  1  0  0  0  0 
  9 13  1  0  0  0  0 
 14  9  1  0  0  0  0 
 11  5  1  0  0  0  0 
 11 15  1  0  0  0  0 
 11 16  1  0  0  0  0 
 12 17  1  0  0  0  0 
 18 12  1  0  0  0  0 
 14 18  1  0  0  0  0 
 14 19  1  0  0  0  0 
 20 15  1  0  0  0  0 
 16 21  1  0  0  0  0 
 16 22  1  0  0  0  0 
 17 23  1  0  0  0  0 
 18 24  1  0  0  0  0 
 20 22  1  0  0  0  0 
 20 25  1  0  0  0  0 
 25 26  1  0  0  0  0 
 26 27  1  0  0  0  0 
  2 30  1  0  0  0  0 
  3 31  1  0  0  0  0 
  6 32  1  0  0  0  0 
  6 33  1  0  0  0  0 
  6 34  1  0  0  0  0 
  7 35  1  0  0  0  0 
  9 36  1  0  0  0  0 
 11 37  1  0  0  0  0 
 12 38  1  0  0  0  0 
 13 39  1  0  0  0  0 
 14 40  1  0  0  0  0 
 15 41  1  0  0  0  0 
 15 42  1  0  0  0  0 
 18 43  1  0  0  0  0 
 19 44  1  0  0  0  0 
 20 45  1  0  0  0  0 
 21 46  1  0  0  0  0 
 21 47  1  0  0  0  0 
 21 48  1  0  0  0  0 
 22 49  1  0  0  0  0 
 22 50  1  0  0  0  0 
 23 51  1  0  0  0  0 
 23 52  1  0  0  0  0 
 23 53  1  0  0  0  0 
 24 54  1  0  0  0  0 
 25 55  1  0  0  0  0 
 25 56  1  0  0  0  0 
 26 57  1  0  0  0  0 
 26 58  1  0  0  0  0 
 27 59  1  0  0  0  0 
 27 60  1  0  0  0  0 
 27 61  1  0  0  0  0 
M  END
> <cdk:Title>
lincomycin

> <Conformer>
1

> <SuperDrugID>
SD001397

$$$$
