diamorphine
  CDK     0628171801

 50 54  0  0  0  0  0  0  0  0999 V2000
   -5.5180   -0.0348    3.2028 O   0  0  0  0  0  0  0  0  0  0  0  0
   -6.8418   -0.2116    2.9113 C   0  0  0  0  0  0  0  0  0  0  0  0
   -4.3902   -0.2066    2.3230 C   0  0  2  0  0  0  0  0  0  0  0  0
   -7.8609    0.0963    3.9227 C   0  0  0  0  0  0  0  0  0  0  0  0
   -7.2092   -0.6379    1.7926 O   0  0  0  0  0  0  0  0  0  0  0  0
   -3.0874   -0.3761    3.1815 C   0  0  1  0  0  0  0  0  0  0  0  0
   -4.3052    0.8617    1.3286 C   0  0  0  0  0  0  0  0  0  0  0  0
   -1.7825    0.0619    2.4262 C   0  0  2  0  0  0  0  0  0  0  0  0
   -3.1467    0.3621    4.4303 O   0  0  0  0  0  0  0  0  0  0  0  0
   -3.1790    1.0956    0.6309 C   0  0  0  0  0  0  0  0  0  0  0  0
   -1.6019    1.3565    3.0874 C   0  0  0  0  0  0  0  0  0  0  0  0
   -1.9518    0.3369    0.8893 C   0  0  1  0  0  0  0  0  0  0  0  0
   -0.5684   -0.8959    2.6751 C   0  0  1  0  0  0  0  0  0  0  0  0
   -2.3762    1.4609    4.2329 C   0  0  0  0  0  0  0  0  0  0  0  0
   -0.8967    2.4563    2.5608 C   0  0  0  0  0  0  0  0  0  0  0  0
   -0.6177    1.0280    0.4201 C   0  0  1  0  0  0  0  0  0  0  0  0
    0.7441   -0.3957    2.0125 C   0  0  1  0  0  0  0  0  0  0  0  0
   -2.3702    2.6409    5.0013 C   0  0  0  0  0  0  0  0  0  0  0  0
   -0.3670    2.3954    1.1673 C   0  0  2  0  0  0  0  0  0  0  0  0
   -0.8255    3.6218    3.3540 C   0  0  0  0  0  0  0  0  0  0  0  0
    0.4994    0.0322    0.5994 N   0  0  2  0  0  0  0  0  0  0  0  0
   -3.2180    2.6684    6.0781 O   0  0  0  0  0  0  0  0  0  0  0  0
   -1.5366    3.7059    4.5714 C   0  0  0  0  0  0  0  0  0  0  0  0
    1.7425    0.3008   -0.1755 C   0  0  0  0  0  0  0  0  0  0  0  0
   -3.6248    3.6721    6.9129 C   0  0  0  0  0  0  0  0  0  0  0  0
   -4.6313    3.3461    7.9329 C   0  0  0  0  0  0  0  0  0  0  0  0
   -3.1966    4.8465    6.8297 O   0  0  0  0  0  0  0  0  0  0  0  0
   -2.0622   -0.6133    0.3575 H   0  0  0  0  0  0  0  0  0  0  0  0
   -3.0257   -1.4313    3.4635 H   0  0  0  0  0  0  0  0  0  0  0  0
   -0.7151    1.2297   -0.6509 H   0  0  0  0  0  0  0  0  0  0  0  0
   -4.5303   -1.1390    1.7643 H   0  0  0  0  0  0  0  0  0  0  0  0
   -8.4317   -0.8008    4.1616 H   0  0  0  0  0  0  0  0  0  0  0  0
   -7.3920    0.4667    4.8340 H   0  0  0  0  0  0  0  0  0  0  0  0
   -8.5405    0.8574    3.5376 H   0  0  0  0  0  0  0  0  0  0  0  0
   -5.1099    1.4168    1.1445 H   0  0  0  0  0  0  0  0  0  0  0  0
   -3.1848    1.8047   -0.0638 H   0  0  0  0  0  0  0  0  0  0  0  0
   -0.3991   -1.0362    3.7475 H   0  0  0  0  0  0  0  0  0  0  0  0
   -0.8088   -1.8759    2.2506 H   0  0  0  0  0  0  0  0  0  0  0  0
    1.1709    0.4269    2.5960 H   0  0  0  0  0  0  0  0  0  0  0  0
    1.4663   -1.2175    2.0392 H   0  0  0  0  0  0  0  0  0  0  0  0
    0.6960    2.6390    1.1817 H   0  0  0  0  0  0  0  0  0  0  0  0
   -0.8671    3.1819    0.5940 H   0  0  0  0  0  0  0  0  0  0  0  0
   -0.2813    4.4251    3.0335 H   0  0  0  0  0  0  0  0  0  0  0  0
   -1.4550    4.5618    5.1173 H   0  0  0  0  0  0  0  0  0  0  0  0
    1.5012    0.4738   -1.2255 H   0  0  0  0  0  0  0  0  0  0  0  0
    2.2744    1.1693    0.2153 H   0  0  0  0  0  0  0  0  0  0  0  0
    2.4116   -0.5617   -0.1329 H   0  0  0  0  0  0  0  0  0  0  0  0
   -5.4957    2.8823    7.4560 H   0  0  0  0  0  0  0  0  0  0  0  0
   -4.9666    4.2427    8.4554 H   0  0  0  0  0  0  0  0  0  0  0  0
   -4.2064    2.6535    8.6590 H   0  0  0  0  0  0  0  0  0  0  0  0
  1  2  1  0  0  0  0 
  2  4  1  0  0  0  0 
  2  5  2  0  0  0  0 
  3  1  1  0  0  0  0 
  6  3  1  0  0  0  0 
  3  7  1  0  0  0  0 
  8  6  1  0  0  0  0 
  6  9  1  0  0  0  0 
  6 29  1  0  0  0  0 
  7 10  2  0  0  0  0 
  8 11  1  0  0  0  0 
 12  8  1  0  0  0  0 
  8 13  1  0  0  0  0 
  9 14  1  0  0  0  0 
 12 10  1  0  0  0  0 
 11 14  2  0  0  0  0 
 11 15  1  0  0  0  0 
 12 16  1  0  0  0  0 
 12 28  1  0  0  0  0 
 13 17  1  0  0  0  0 
 14 18  1  0  0  0  0 
 15 19  1  0  0  0  0 
 15 20  2  0  0  0  0 
 16 19  1  0  0  0  0 
 16 21  1  0  0  0  0 
 16 30  1  0  0  0  0 
 17 21  1  0  0  0  0 
 18 22  1  0  0  0  0 
 18 23  2  0  0  0  0 
 20 23  1  0  0  0  0 
 21 24  1  0  0  0  0 
 22 25  1  0  0  0  0 
 25 26  1  0  0  0  0 
 25 27  2  0  0  0  0 
  3 31  1  0  0  0  0 
  4 32  1  0  0  0  0 
  4 33  1  0  0  0  0 
  4 34  1  0  0  0  0 
  7 35  1  0  0  0  0 
 10 36  1  0  0  0  0 
 13 37  1  0  0  0  0 
 13 38  1  0  0  0  0 
 17 39  1  0  0  0  0 
 17 40  1  0  0  0  0 
 19 41  1  0  0  0  0 
 19 42  1  0  0  0  0 
 20 43  1  0  0  0  0 
 23 44  1  0  0  0  0 
 24 45  1  0  0  0  0 
 24 46  1  0  0  0  0 
 24 47  1  0  0  0  0 
 26 48  1  0  0  0  0 
 26 49  1  0  0  0  0 
 26 50  1  0  0  0  0 
M  END
> <cdk:Title>
diamorphine

> <Conformer>
1

> <SuperDrugID>
SD003552

$$$$
