flosequinan
  CDK     0628171801

 26 27  0  0  0  0  0  0  0  0999 V2000
    0.7147    1.6835   -2.7529 O   0  0  0  0  0  0  0  0  0  0  0  0
    0.4860    2.4351   -1.7749 C   0  0  0  0  0  0  0  0  0  0  0  0
    0.6904    3.8329   -1.8659 C   0  0  0  0  0  0  0  0  0  0  0  0
    0.0110    1.8709   -0.5787 C   0  0  0  0  0  0  0  0  0  0  0  0
    0.4073    4.6546   -0.7290 C   0  0  0  0  0  0  0  0  0  0  0  0
    1.1593    4.4222   -3.0659 C   0  0  0  0  0  0  0  0  0  0  0  0
   -0.2904    0.1271   -0.4429 S   0  0  1  0  0  0  0  0  0  0  0  0
   -0.2316    2.7170    0.5157 C   0  0  0  0  0  0  0  0  0  0  0  0
   -0.0294    4.0724    0.4503 N   0  0  0  0  0  0  0  0  0  0  0  0
    0.5879    6.0592   -0.8713 C   0  0  0  0  0  0  0  0  0  0  0  0
    1.3325    5.8103   -3.1686 C   0  0  0  0  0  0  0  0  0  0  0  0
    0.7950   -0.4867    0.8962 C   0  0  0  0  0  0  0  0  0  0  0  0
   -1.7760   -0.0227    0.1453 O   0  0  0  0  0  0  0  0  0  0  0  0
   -0.2859    4.8523    1.6463 C   0  0  0  0  0  0  0  0  0  0  0  0
    1.0406    6.6319   -2.0716 C   0  0  0  0  0  0  0  0  0  0  0  0
    1.1893    7.9256   -2.1675 F   0  0  0  0  0  0  0  0  0  0  0  0
    1.3786    3.8483   -3.8843 H   0  0  0  0  0  0  0  0  0  0  0  0
   -0.5724    2.2845    1.3790 H   0  0  0  0  0  0  0  0  0  0  0  0
    0.3824    6.6967   -0.1019 H   0  0  0  0  0  0  0  0  0  0  0  0
    1.6650    6.2202   -4.0452 H   0  0  0  0  0  0  0  0  0  0  0  0
    0.6387   -1.5592    1.0214 H   0  0  0  0  0  0  0  0  0  0  0  0
    1.8400   -0.3001    0.6409 H   0  0  0  0  0  0  0  0  0  0  0  0
    0.5513    0.0228    1.8292 H   0  0  0  0  0  0  0  0  0  0  0  0
    0.6214    5.3890    1.9339 H   0  0  0  0  0  0  0  0  0  0  0  0
   -0.5863    4.2564    2.5133 H   0  0  0  0  0  0  0  0  0  0  0  0
   -1.0861    5.5718    1.4608 H   0  0  0  0  0  0  0  0  0  0  0  0
  1  2  2  0  0  0  0 
  2  3  1  0  0  0  0 
  2  4  1  0  0  0  0 
  3  5  1  0  0  0  0 
  3  6  2  0  0  0  0 
  4  7  1  0  0  0  0 
  4  8  2  0  0  0  0 
  5  9  1  0  0  0  0 
  5 10  2  0  0  0  0 
  6 11  1  0  0  0  0 
  7 12  1  0  0  0  0 
  7 13  2  0  0  0  0 
  8  9  1  0  0  0  0 
  9 14  1  0  0  0  0 
 10 15  1  0  0  0  0 
 11 15  2  0  0  0  0 
 15 16  1  0  0  0  0 
 17  6  1  0  0  0  0 
 18  8  1  0  0  0  0 
 19 10  1  0  0  0  0 
 20 11  1  0  0  0  0 
 21 12  1  0  0  0  0 
 22 12  1  0  0  0  0 
 23 12  1  0  0  0  0 
 24 14  1  0  0  0  0 
 25 14  1  0  0  0  0 
 26 14  1  0  0  0  0 
M  END
> <cdk:Title>
flosequinan

> <Conformer>
1

> <SuperDrugID>
SD001058

$$$$
