prednicarbate
  CDK     0628171801

 71 74  0  0  0  0  0  0  0  0999 V2000
   -2.2125    3.2191    2.3451 C   0  0  0  0  0  0  0  0  0  0  0  0
   -2.3903    2.4059    1.1219 C   0  0  1  0  0  0  0  0  0  0  0  0
   -1.8822    4.4133    2.1502 O   0  0  0  0  0  0  0  0  0  0  0  0
   -2.4217    2.6935    3.7416 C   0  0  2  0  0  0  0  0  0  0  0  0
   -3.5527    2.8924    0.4304 O   0  0  0  0  0  0  0  0  0  0  0  0
   -1.6202    1.4946    3.8909 O   0  0  0  0  0  0  0  0  0  0  0  0
   -3.9267    2.3532    4.1008 C   0  0  2  0  0  0  0  0  0  0  0  0
   -2.0403    3.6951    4.8927 C   0  0  2  0  0  0  0  0  0  0  0  0
   -3.6430    3.4290   -0.8260 C   0  0  0  0  0  0  0  0  0  0  0  0
   -0.2676    1.3132    3.7848 C   0  0  0  0  0  0  0  0  0  0  0  0
   -4.8798    3.5230    3.6225 C   0  0  0  0  0  0  0  0  0  0  0  0
   -3.8298    2.2103    5.6571 C   0  0  1  0  0  0  0  0  0  0  0  0
   -4.4801    0.9804    3.5721 C   0  0  2  0  0  0  0  0  0  0  0  0
   -2.9804    3.4219    6.0929 C   0  0  1  0  0  0  0  0  0  0  0  0
   -4.9479    3.9409   -1.3063 C   0  0  2  0  0  0  0  0  0  0  0  0
   -2.6449    3.4602   -1.5846 O   0  0  0  0  0  0  0  0  0  0  0  0
    0.2097    0.0600    4.0465 O   0  0  0  0  0  0  0  0  0  0  0  0
    0.4954    2.2507    3.4510 O   0  0  0  0  0  0  0  0  0  0  0  0
   -5.2073    1.9591    6.3559 C   0  0  1  0  0  0  0  0  0  0  0  0
   -5.8403    0.5530    4.2137 C   0  0  1  0  0  0  0  0  0  0  0  0
   -4.8332    5.4443   -1.7869 C   0  0  0  0  0  0  0  0  0  0  0  0
    1.5774   -0.3756    4.0945 C   0  0  2  0  0  0  0  0  0  0  0  0
   -5.8806    0.6421    5.7922 C   0  0  2  0  0  0  0  0  0  0  0  0
   -5.0677    1.8634    7.9057 C   0  0  1  0  0  0  0  0  0  0  0  0
   -6.9050    1.2670    3.5891 O   0  0  0  0  0  0  0  0  0  0  0  0
    2.3428    0.2009    5.3036 C   0  0  0  0  0  0  0  0  0  0  0  0
   -7.2772    0.3241    6.5013 C   0  0  2  0  0  0  0  0  0  0  0  0
   -6.4282    1.5611    8.5802 C   0  0  2  0  0  0  0  0  0  0  0  0
   -8.4331    1.3334    6.1541 C   0  0  0  0  0  0  0  0  0  0  0  0
   -7.0599    0.3730    7.9881 C   0  0  0  0  0  0  0  0  0  0  0  0
   -7.7836   -0.9988    6.0553 C   0  0  0  0  0  0  0  0  0  0  0  0
   -7.4137   -0.6619    8.7849 C   0  0  0  0  0  0  0  0  0  0  0  0
   -8.1110   -1.9867    6.9033 C   0  0  0  0  0  0  0  0  0  0  0  0
   -7.9657   -1.8205    8.2661 C   0  0  0  0  0  0  0  0  0  0  0  0
   -8.3269   -2.7367    9.0409 O   0  0  0  0  0  0  0  0  0  0  0  0
   -1.4885    2.4753    0.5089 H   0  0  0  0  0  0  0  0  0  0  0  0
   -2.5368    1.3507    1.3559 H   0  0  0  0  0  0  0  0  0  0  0  0
   -2.1797    4.7337    4.5863 H   0  0  0  0  0  0  0  0  0  0  0  0
   -0.9960    3.5880    5.1890 H   0  0  0  0  0  0  0  0  0  0  0  0
   -4.9829    3.5107    2.5380 H   0  0  0  0  0  0  0  0  0  0  0  0
   -4.4999    4.5042    3.9048 H   0  0  0  0  0  0  0  0  0  0  0  0
   -5.8838    3.4537    4.0303 H   0  0  0  0  0  0  0  0  0  0  0  0
   -3.2164    1.3310    5.8985 H   0  0  0  0  0  0  0  0  0  0  0  0
   -3.7563    0.1819    3.7689 H   0  0  0  0  0  0  0  0  0  0  0  0
   -4.6074    1.0205    2.4883 H   0  0  0  0  0  0  0  0  0  0  0  0
   -2.4071    3.2036    6.9977 H   0  0  0  0  0  0  0  0  0  0  0  0
   -3.6191    4.2872    6.2850 H   0  0  0  0  0  0  0  0  0  0  0  0
   -5.6279    3.9948   -0.3985 H   0  0  0  0  0  0  0  0  0  0  0  0
   -5.2750    3.1838   -2.1300 H   0  0  0  0  0  0  0  0  0  0  0  0
   -5.8479    2.8192    6.1649 H   0  0  0  0  0  0  0  0  0  0  0  0
   -5.9895   -0.4913    3.9275 H   0  0  0  0  0  0  0  0  0  0  0  0
   -5.8147    5.7893   -2.1213 H   0  0  0  0  0  0  0  0  0  0  0  0
   -4.4928    6.0885   -0.9725 H   0  0  0  0  0  0  0  0  0  0  0  0
   -4.1396    5.5323   -2.6269 H   0  0  0  0  0  0  0  0  0  0  0  0
    2.0923   -0.1024    3.1708 H   0  0  0  0  0  0  0  0  0  0  0  0
    1.5736   -1.4660    4.1721 H   0  0  0  0  0  0  0  0  0  0  0  0
   -5.2091   -0.1702    6.1068 H   0  0  0  0  0  0  0  0  0  0  0  0
   -4.3539    1.0772    8.1696 H   0  0  0  0  0  0  0  0  0  0  0  0
   -4.6881    2.8064    8.3084 H   0  0  0  0  0  0  0  0  0  0  0  0
   -6.8171    1.0891    2.6285 H   0  0  0  0  0  0  0  0  0  0  0  0
    1.8106   -0.0242    6.2274 H   0  0  0  0  0  0  0  0  0  0  0  0
    2.4454    1.2813    5.2105 H   0  0  0  0  0  0  0  0  0  0  0  0
    3.3417   -0.2340    5.3609 H   0  0  0  0  0  0  0  0  0  0  0  0
   -7.0931    2.4199    8.4602 H   0  0  0  0  0  0  0  0  0  0  0  0
   -6.2507    1.4556    9.6564 H   0  0  0  0  0  0  0  0  0  0  0  0
   -8.1242    2.3704    6.2760 H   0  0  0  0  0  0  0  0  0  0  0  0
   -8.7913    1.2207    5.1305 H   0  0  0  0  0  0  0  0  0  0  0  0
   -9.2985    1.1676    6.8015 H   0  0  0  0  0  0  0  0  0  0  0  0
   -7.9185   -1.1669    5.0845 H   0  0  0  0  0  0  0  0  0  0  0  0
   -7.2754   -0.6124    9.7695 H   0  0  0  0  0  0  0  0  0  0  0  0
   -8.4671   -2.8435    6.5466 H   0  0  0  0  0  0  0  0  0  0  0  0
  1  2  1  0  0  0  0 
  1  3  2  0  0  0  0 
  4  1  1  0  0  0  0 
  2  5  1  0  0  0  0 
  4  6  1  0  0  0  0 
  7  4  1  0  0  0  0 
  4  8  1  0  0  0  0 
  5  9  1  0  0  0  0 
  6 10  1  0  0  0  0 
  7 11  1  0  0  0  0 
 12  7  1  0  0  0  0 
  7 13  1  0  0  0  0 
  8 14  1  0  0  0  0 
  9 15  1  0  0  0  0 
  9 16  2  0  0  0  0 
 10 17  1  0  0  0  0 
 10 18  2  0  0  0  0 
 12 14  1  0  0  0  0 
 19 12  1  0  0  0  0 
 20 13  1  0  0  0  0 
 15 21  1  0  0  0  0 
 17 22  1  0  0  0  0 
 23 19  1  0  0  0  0 
 19 24  1  0  0  0  0 
 23 20  1  0  0  0  0 
 20 25  1  0  0  0  0 
 22 26  1  0  0  0  0 
 23 27  1  0  0  0  0 
 24 28  1  0  0  0  0 
 27 29  1  0  0  0  0 
 27 30  1  0  0  0  0 
 27 31  1  0  0  0  0 
 28 30  1  0  0  0  0 
 30 32  2  0  0  0  0 
 31 33  2  0  0  0  0 
 32 34  1  0  0  0  0 
 33 34  1  0  0  0  0 
 34 35  2  0  0  0  0 
 36  2  1  0  0  0  0 
 37  2  1  0  0  0  0 
 38  8  1  0  0  0  0 
 39  8  1  0  0  0  0 
 40 11  1  0  0  0  0 
 41 11  1  0  0  0  0 
 42 11  1  0  0  0  0 
 12 43  1  0  0  0  0 
 44 13  1  0  0  0  0 
 45 13  1  0  0  0  0 
 46 14  1  0  0  0  0 
 47 14  1  0  0  0  0 
 48 15  1  0  0  0  0 
 49 15  1  0  0  0  0 
 19 50  1  0  0  0  0 
 20 51  1  0  0  0  0 
 52 21  1  0  0  0  0 
 53 21  1  0  0  0  0 
 54 21  1  0  0  0  0 
 55 22  1  0  0  0  0 
 56 22  1  0  0  0  0 
 23 57  1  0  0  0  0 
 58 24  1  0  0  0  0 
 59 24  1  0  0  0  0 
 60 25  1  0  0  0  0 
 61 26  1  0  0  0  0 
 62 26  1  0  0  0  0 
 63 26  1  0  0  0  0 
 64 28  1  0  0  0  0 
 65 28  1  0  0  0  0 
 66 29  1  0  0  0  0 
 67 29  1  0  0  0  0 
 68 29  1  0  0  0  0 
 69 31  1  0  0  0  0 
 70 32  1  0  0  0  0 
 71 33  1  0  0  0  0 
M  END
> <cdk:Title>
prednicarbate

> <Conformer>
1

> <SuperDrugID>
SD002011

$$$$
