lansoprazole
  CDK     0628171801

 39 41  0  0  0  0  0  0  0  0999 V2000
   -0.3887   -0.1989   -0.0511 S   0  0  1  0  0  0  0  0  0  0  0  0
    1.2044   -0.7383   -0.7842 C   0  0  2  0  0  0  0  0  0  0  0  0
   -0.1066    1.2798    0.5031 O   0  0  0  0  0  0  0  0  0  0  0  0
   -1.4978   -0.0054   -1.4088 C   0  0  0  0  0  0  0  0  0  0  0  0
    1.0439   -2.0854   -1.3792 C   0  0  0  0  0  0  0  0  0  0  0  0
   -2.6633   -0.6682   -1.5471 N   0  0  0  0  0  0  0  0  0  0  0  0
   -1.2799    0.8069   -2.4572 N   0  0  0  0  0  0  0  0  0  0  0  0
    1.1094   -3.3111   -0.6544 C   0  0  0  0  0  0  0  0  0  0  0  0
    0.7876   -2.1143   -2.7152 N   0  0  0  0  0  0  0  0  0  0  0  0
   -3.1842   -0.2536   -2.7124 C   0  0  0  0  0  0  0  0  0  0  0  0
   -2.3181    0.6738   -3.2849 C   0  0  0  0  0  0  0  0  0  0  0  0
    1.3655   -3.3556    0.8128 C   0  0  0  0  0  0  0  0  0  0  0  0
    0.9411   -4.5188   -1.3865 C   0  0  0  0  0  0  0  0  0  0  0  0
    0.5824   -3.2492   -3.4203 C   0  0  0  0  0  0  0  0  0  0  0  0
   -4.3837   -0.6121   -3.3523 C   0  0  0  0  0  0  0  0  0  0  0  0
   -2.6014    1.2879   -4.5141 C   0  0  0  0  0  0  0  0  0  0  0  0
    1.0568   -5.7461   -0.7853 O   0  0  0  0  0  0  0  0  0  0  0  0
    0.6467   -4.4852   -2.7644 C   0  0  0  0  0  0  0  0  0  0  0  0
   -4.6905    0.0012   -4.5881 C   0  0  0  0  0  0  0  0  0  0  0  0
   -3.8059    0.9446   -5.1640 C   0  0  0  0  0  0  0  0  0  0  0  0
    2.4175   -6.2341   -0.7646 C   0  0  1  0  0  0  0  0  0  0  0  0
    2.4884   -7.5555    0.0295 C   0  0  1  0  0  0  0  0  0  0  0  0
    3.7778   -8.0281    0.0477 F   0  0  0  0  0  0  0  0  0  0  0  0
    2.0831   -7.3598    1.3283 F   0  0  0  0  0  0  0  0  0  0  0  0
    1.6874   -8.5102   -0.5477 F   0  0  0  0  0  0  0  0  0  0  0  0
    1.9898   -0.7363   -0.0246 H   0  0  0  0  0  0  0  0  0  0  0  0
    1.4831   -0.0111   -1.5525 H   0  0  0  0  0  0  0  0  0  0  0  0
   -0.5084    1.3802   -2.5887 H   0  0  0  0  0  0  0  0  0  0  0  0
    2.4396   -3.3009    1.0013 H   0  0  0  0  0  0  0  0  0  0  0  0
    0.9757   -4.2697    1.2652 H   0  0  0  0  0  0  0  0  0  0  0  0
    0.8785   -2.5273    1.3239 H   0  0  0  0  0  0  0  0  0  0  0  0
    0.3883   -3.1974   -4.4218 H   0  0  0  0  0  0  0  0  0  0  0  0
   -5.0175   -1.2962   -2.9308 H   0  0  0  0  0  0  0  0  0  0  0  0
   -1.9525    1.9647   -4.9207 H   0  0  0  0  0  0  0  0  0  0  0  0
    0.4932   -5.3491   -3.2892 H   0  0  0  0  0  0  0  0  0  0  0  0
   -5.5604   -0.2367   -5.0687 H   0  0  0  0  0  0  0  0  0  0  0  0
   -4.0404    1.3829   -6.0572 H   0  0  0  0  0  0  0  0  0  0  0  0
    2.7677   -6.4103   -1.7867 H   0  0  0  0  0  0  0  0  0  0  0  0
    3.0949   -5.5162   -0.2884 H   0  0  0  0  0  0  0  0  0  0  0  0
  1  2  1  0  0  0  0 
  1  3  2  0  0  0  0 
  1  4  1  0  0  0  0 
  2  5  1  0  0  0  0 
  4  6  2  0  0  0  0 
  4  7  1  0  0  0  0 
  5  8  2  0  0  0  0 
  5  9  1  0  0  0  0 
  6 10  1  0  0  0  0 
  7 11  1  0  0  0  0 
  8 12  1  0  0  0  0 
  8 13  1  0  0  0  0 
  9 14  2  0  0  0  0 
 10 11  1  0  0  0  0 
 10 15  2  0  0  0  0 
 11 16  2  0  0  0  0 
 13 17  1  0  0  0  0 
 13 18  2  0  0  0  0 
 14 18  1  0  0  0  0 
 15 19  1  0  0  0  0 
 16 20  1  0  0  0  0 
 17 21  1  0  0  0  0 
 19 20  2  0  0  0  0 
 21 22  1  0  0  0  0 
 22 23  1  0  0  0  0 
 22 24  1  0  0  0  0 
 22 25  1  0  0  0  0 
 26  2  1  0  0  0  0 
 27  2  1  0  0  0  0 
 28  7  1  0  0  0  0 
 29 12  1  0  0  0  0 
 30 12  1  0  0  0  0 
 31 12  1  0  0  0  0 
 32 14  1  0  0  0  0 
 33 15  1  0  0  0  0 
 34 16  1  0  0  0  0 
 35 18  1  0  0  0  0 
 36 19  1  0  0  0  0 
 37 20  1  0  0  0  0 
 38 21  1  0  0  0  0 
 39 21  1  0  0  0  0 
M  END
> <cdk:Title>
lansoprazole

> <Conformer>
1

> <SuperDrugID>
SD001366

$$$$
