tetrazepam
  CDK     0628171801

 37 39  0  0  0  0  0  0  0  0999 V2000
   -0.3201   -2.1252    3.9261 C   0  0  0  0  0  0  0  0  0  0  0  0
    0.6473   -1.2054    3.3577 N   0  0  0  0  0  0  0  0  0  0  0  0
    0.4385    0.1708    3.4459 C   0  0  0  0  0  0  0  0  0  0  0  0
    1.7658   -1.7346    2.7259 C   0  0  0  0  0  0  0  0  0  0  0  0
    0.5779    1.0612    2.3341 C   0  0  0  0  0  0  0  0  0  0  0  0
    0.0882    0.7146    4.7082 C   0  0  0  0  0  0  0  0  0  0  0  0
    2.0120   -2.9660    2.7682 O   0  0  0  0  0  0  0  0  0  0  0  0
    2.6894   -0.8996    1.9245 C   0  0  2  0  0  0  0  0  0  0  0  0
    0.9979    0.6088    1.0698 C   0  0  0  0  0  0  0  0  0  0  0  0
    0.3196    2.4451    2.5218 C   0  0  0  0  0  0  0  0  0  0  0  0
   -0.1584    2.0854    4.8755 C   0  0  0  0  0  0  0  0  0  0  0  0
    1.9466   -0.2575    0.9347 N   0  0  0  0  0  0  0  0  0  0  0  0
    0.4163    1.0520   -0.0900 C   0  0  0  0  0  0  0  0  0  0  0  0
   -0.0512    2.9540    3.7793 C   0  0  0  0  0  0  0  0  0  0  0  0
   -0.9835    0.6872   -0.3574 C   0  0  1  0  0  0  0  0  0  0  0  0
    1.1187    1.8249   -0.9500 C   0  0  0  0  0  0  0  0  0  0  0  0
   -0.3551    4.6073    3.9825 Cl  0  0  0  0  0  0  0  0  0  0  0  0
   -1.3838    0.7684   -1.8554 C   0  0  2  0  0  0  0  0  0  0  0  0
    0.6007    2.3353   -2.2140 C   0  0  1  0  0  0  0  0  0  0  0  0
   -0.9211    2.1216   -2.4443 C   0  0  2  0  0  0  0  0  0  0  0  0
    0.1253   -2.6552    4.7702 H   0  0  0  0  0  0  0  0  0  0  0  0
   -0.6306   -2.8582    3.1779 H   0  0  0  0  0  0  0  0  0  0  0  0
   -1.2291   -1.6299    4.2745 H   0  0  0  0  0  0  0  0  0  0  0  0
    0.0069    0.1081    5.5274 H   0  0  0  0  0  0  0  0  0  0  0  0
    3.4526   -1.5096    1.4344 H   0  0  0  0  0  0  0  0  0  0  0  0
    3.2006   -0.1767    2.5648 H   0  0  0  0  0  0  0  0  0  0  0  0
    0.4130    3.1019    1.7422 H   0  0  0  0  0  0  0  0  0  0  0  0
   -0.4131    2.4450    5.7992 H   0  0  0  0  0  0  0  0  0  0  0  0
   -1.1903   -0.3295   -0.0140 H   0  0  0  0  0  0  0  0  0  0  0  0
   -1.6299    1.3585    0.2145 H   0  0  0  0  0  0  0  0  0  0  0  0
    2.0611    2.0660   -0.7323 H   0  0  0  0  0  0  0  0  0  0  0  0
   -2.4670    0.6670   -1.9623 H   0  0  0  0  0  0  0  0  0  0  0  0
   -0.9155   -0.0502   -2.4101 H   0  0  0  0  0  0  0  0  0  0  0  0
    0.8183    3.4048   -2.2789 H   0  0  0  0  0  0  0  0  0  0  0  0
    1.1505    1.8411   -3.0182 H   0  0  0  0  0  0  0  0  0  0  0  0
   -1.4782    2.9316   -1.9625 H   0  0  0  0  0  0  0  0  0  0  0  0
   -1.1427    2.1563   -3.5147 H   0  0  0  0  0  0  0  0  0  0  0  0
  1  2  1  0  0  0  0 
  2  3  1  0  0  0  0 
  2  4  1  0  0  0  0 
  3  5  2  0  0  0  0 
  3  6  1  0  0  0  0 
  4  7  2  0  0  0  0 
  4  8  1  0  0  0  0 
  5  9  1  0  0  0  0 
  5 10  1  0  0  0  0 
  6 11  2  0  0  0  0 
  8 12  1  0  0  0  0 
  9 12  2  0  0  0  0 
  9 13  1  0  0  0  0 
 10 14  2  0  0  0  0 
 11 14  1  0  0  0  0 
 13 15  1  0  0  0  0 
 13 16  2  0  0  0  0 
 14 17  1  0  0  0  0 
 15 18  1  0  0  0  0 
 16 19  1  0  0  0  0 
 18 20  1  0  0  0  0 
 19 20  1  0  0  0  0 
  1 21  1  0  0  0  0 
  1 22  1  0  0  0  0 
  1 23  1  0  0  0  0 
  6 24  1  0  0  0  0 
  8 25  1  0  0  0  0 
  8 26  1  0  0  0  0 
 10 27  1  0  0  0  0 
 11 28  1  0  0  0  0 
 15 29  1  0  0  0  0 
 15 30  1  0  0  0  0 
 16 31  1  0  0  0  0 
 18 32  1  0  0  0  0 
 18 33  1  0  0  0  0 
 19 34  1  0  0  0  0 
 19 35  1  0  0  0  0 
 20 36  1  0  0  0  0 
 20 37  1  0  0  0  0 
M  END
> <cdk:Title>
tetrazepam

> <Conformer>
1

> <SuperDrugID>
SD002352

$$$$
