loxapine
  CDK     0628171801

 41 44  0  0  0  0  0  0  0  0999 V2000
   -0.1350   -6.1314    2.0815 Cl  0  0  0  0  0  0  0  0  0  0  0  0
   -1.1125   -5.1009    3.0034 C   0  0  0  0  0  0  0  0  0  0  0  0
   -1.3523   -3.7752    2.5923 C   0  0  0  0  0  0  0  0  0  0  0  0
   -1.6850   -5.5750    4.1961 C   0  0  0  0  0  0  0  0  0  0  0  0
   -2.1602   -2.8990    3.3652 C   0  0  0  0  0  0  0  0  0  0  0  0
   -2.4768   -4.7225    4.9805 C   0  0  0  0  0  0  0  0  0  0  0  0
   -2.3700   -1.5723    2.9466 C   0  0  0  0  0  0  0  0  0  0  0  0
   -2.7144   -3.3933    4.5788 C   0  0  0  0  0  0  0  0  0  0  0  0
   -2.4888   -0.5693    3.7554 N   0  0  0  0  0  0  0  0  0  0  0  0
   -2.3765   -1.2440    1.6365 N   0  0  0  0  0  0  0  0  0  0  0  0
   -3.5363   -2.6477    5.3825 O   0  0  0  0  0  0  0  0  0  0  0  0
   -2.4888   -0.4844    5.0787 C   0  0  0  0  0  0  0  0  0  0  0  0
   -1.4593   -0.2563    1.1112 C   0  0  2  0  0  0  0  0  0  0  0  0
   -3.3097   -1.8247    0.6941 C   0  0  1  0  0  0  0  0  0  0  0  0
   -2.9343   -1.5402    5.9100 C   0  0  0  0  0  0  0  0  0  0  0  0
   -2.0040    0.7031    5.6665 C   0  0  0  0  0  0  0  0  0  0  0  0
   -2.2651    0.8941    0.4639 C   0  0  2  0  0  0  0  0  0  0  0  0
   -4.1208   -0.6983   -0.0020 C   0  0  2  0  0  0  0  0  0  0  0  0
   -2.8266   -1.4278    7.3105 C   0  0  0  0  0  0  0  0  0  0  0  0
   -1.8736    0.7989    7.0648 C   0  0  0  0  0  0  0  0  0  0  0  0
   -3.2244    0.3671   -0.5543 N   0  0  1  0  0  0  0  0  0  0  0  0
   -2.2732   -0.2706    7.8865 C   0  0  0  0  0  0  0  0  0  0  0  0
   -3.9720    1.4529   -1.2517 C   0  0  0  0  0  0  0  0  0  0  0  0
   -0.9225   -3.4496    1.7217 H   0  0  0  0  0  0  0  0  0  0  0  0
   -1.5311   -6.5400    4.4979 H   0  0  0  0  0  0  0  0  0  0  0  0
   -2.8883   -5.0800    5.8459 H   0  0  0  0  0  0  0  0  0  0  0  0
   -0.8208   -0.7233    0.3571 H   0  0  0  0  0  0  0  0  0  0  0  0
   -0.7981    0.1593    1.8790 H   0  0  0  0  0  0  0  0  0  0  0  0
   -2.7536   -2.3881   -0.0624 H   0  0  0  0  0  0  0  0  0  0  0  0
   -4.0085   -2.5177    1.1735 H   0  0  0  0  0  0  0  0  0  0  0  0
   -1.7252    1.4958    5.0807 H   0  0  0  0  0  0  0  0  0  0  0  0
   -1.5568    1.5748   -0.0141 H   0  0  0  0  0  0  0  0  0  0  0  0
   -2.7995    1.4410    1.2490 H   0  0  0  0  0  0  0  0  0  0  0  0
   -4.8154   -0.2635    0.7231 H   0  0  0  0  0  0  0  0  0  0  0  0
   -4.7082   -1.1442   -0.8100 H   0  0  0  0  0  0  0  0  0  0  0  0
   -3.1522   -2.1864    7.9133 H   0  0  0  0  0  0  0  0  0  0  0  0
   -1.4874    1.6484    7.4822 H   0  0  0  0  0  0  0  0  0  0  0  0
   -2.1729   -0.2036    8.9023 H   0  0  0  0  0  0  0  0  0  0  0  0
   -4.6399    1.9784   -0.5644 H   0  0  0  0  0  0  0  0  0  0  0  0
   -4.5644    1.0368   -2.0682 H   0  0  0  0  0  0  0  0  0  0  0  0
   -3.2826    2.1792   -1.6878 H   0  0  0  0  0  0  0  0  0  0  0  0
  1  2  1  0  0  0  0 
  2  3  2  0  0  0  0 
  2  4  1  0  0  0  0 
  3  5  1  0  0  0  0 
  4  6  2  0  0  0  0 
  5  7  1  0  0  0  0 
  5  8  2  0  0  0  0 
  6  8  1  0  0  0  0 
  7  9  2  0  0  0  0 
  7 10  1  0  0  0  0 
  8 11  1  0  0  0  0 
  9 12  1  0  0  0  0 
 10 13  1  0  0  0  0 
 10 14  1  0  0  0  0 
 11 15  1  0  0  0  0 
 12 15  2  0  0  0  0 
 12 16  1  0  0  0  0 
 13 17  1  0  0  0  0 
 14 18  1  0  0  0  0 
 15 19  1  0  0  0  0 
 16 20  2  0  0  0  0 
 17 21  1  0  0  0  0 
 18 21  1  0  0  0  0 
 19 22  2  0  0  0  0 
 20 22  1  0  0  0  0 
 21 23  1  0  0  0  0 
  3 24  1  0  0  0  0 
  4 25  1  0  0  0  0 
  6 26  1  0  0  0  0 
 13 27  1  0  0  0  0 
 13 28  1  0  0  0  0 
 14 29  1  0  0  0  0 
 14 30  1  0  0  0  0 
 16 31  1  0  0  0  0 
 17 32  1  0  0  0  0 
 17 33  1  0  0  0  0 
 18 34  1  0  0  0  0 
 18 35  1  0  0  0  0 
 19 36  1  0  0  0  0 
 20 37  1  0  0  0  0 
 22 38  1  0  0  0  0 
 23 39  1  0  0  0  0 
 23 40  1  0  0  0  0 
 23 41  1  0  0  0  0 
M  END
> <cdk:Title>
loxapine

> <Conformer>
1

> <SuperDrugID>
SD001427

$$$$
