tiomesterone
  CDK     0628171801

 64 67  0  0  0  0  0  0  0  0999 V2000
   -1.4136   -3.2889    3.2322 S   0  0  0  0  0  0  0  0  0  0  0  0
   -0.5753   -4.7072    2.6303 C   0  0  0  0  0  0  0  0  0  0  0  0
   -2.9548   -3.1626    2.2419 C   0  0  1  0  0  0  0  0  0  0  0  0
   -1.0879   -6.0643    2.8940 C   0  0  0  0  0  0  0  0  0  0  0  0
    0.4920   -4.5341    2.0007 O   0  0  0  0  0  0  0  0  0  0  0  0
   -3.9543   -2.0746    2.7577 C   0  0  2  0  0  0  0  0  0  0  0  0
   -2.6338   -2.8919    0.7499 C   0  0  2  0  0  0  0  0  0  0  0  0
   -3.3800   -0.6229    2.5219 C   0  0  1  0  0  0  0  0  0  0  0  0
   -4.3669   -2.2513    4.2618 C   0  0  1  0  0  0  0  0  0  0  0  0
   -2.0827   -1.5431    0.5251 C   0  0  0  0  0  0  0  0  0  0  0  0
   -2.8433   -0.3542    1.0346 C   0  0  1  0  0  0  0  0  0  0  0  0
   -4.3533    0.4757    3.0927 C   0  0  1  0  0  0  0  0  0  0  0  0
   -5.4521   -1.2312    4.7434 C   0  0  1  0  0  0  0  0  0  0  0  0
   -4.8871   -3.6201    4.7504 C   0  0  1  0  0  0  0  0  0  0  0  0
   -0.9374   -1.4237   -0.1868 C   0  0  0  0  0  0  0  0  0  0  0  0
   -4.0526   -0.1592    0.0410 C   0  0  0  0  0  0  0  0  0  0  0  0
   -1.9494    0.9734    0.9669 C   0  0  1  0  0  0  0  0  0  0  0  0
   -4.8445    0.2064    4.5518 C   0  0  1  0  0  0  0  0  0  0  0  0
   -6.8185   -1.3146    3.9480 C   0  0  0  0  0  0  0  0  0  0  0  0
   -5.6917   -1.7388    6.2243 C   0  0  1  0  0  0  0  0  0  0  0  0
   -5.6114   -3.2980    6.0834 C   0  0  2  0  0  0  0  0  0  0  0  0
   -0.4004   -0.2082   -0.5728 C   0  0  0  0  0  0  0  0  0  0  0  0
   -0.7465    1.2285    2.3389 S   0  0  0  0  0  0  0  0  0  0  0  0
   -1.1442    1.0488   -0.3640 C   0  0  1  0  0  0  0  0  0  0  0  0
   -4.6989   -1.2065    7.3099 C   0  0  0  0  0  0  0  0  0  0  0  0
   -6.9843   -1.3733    6.7245 O   0  0  0  0  0  0  0  0  0  0  0  0
    0.7152   -0.1707   -1.1463 O   0  0  0  0  0  0  0  0  0  0  0  0
   -0.2875    2.9200    2.2358 C   0  0  0  0  0  0  0  0  0  0  0  0
    1.1289    3.3104    2.1848 C   0  0  0  0  0  0  0  0  0  0  0  0
   -1.1875    3.7899    2.1855 O   0  0  0  0  0  0  0  0  0  0  0  0
   -3.4546   -4.1337    2.3011 H   0  0  0  0  0  0  0  0  0  0  0  0
   -0.2693   -6.8034    2.6359 H   0  0  0  0  0  0  0  0  0  0  0  0
   -1.2015   -6.1533    4.0155 H   0  0  0  0  0  0  0  0  0  0  0  0
   -2.0723   -6.1629    2.2690 H   0  0  0  0  0  0  0  0  0  0  0  0
   -4.8563   -2.1936    2.1573 H   0  0  0  0  0  0  0  0  0  0  0  0
   -3.5586   -2.9859    0.1747 H   0  0  0  0  0  0  0  0  0  0  0  0
   -1.9866   -3.6918    0.3766 H   0  0  0  0  0  0  0  0  0  0  0  0
   -2.5106   -0.5872    3.1803 H   0  0  0  0  0  0  0  0  0  0  0  0
   -3.4509   -2.0734    4.8378 H   0  0  0  0  0  0  0  0  0  0  0  0
   -3.8467    1.4434    3.0902 H   0  0  0  0  0  0  0  0  0  0  0  0
   -5.2260    0.5744    2.4477 H   0  0  0  0  0  0  0  0  0  0  0  0
   -5.5789   -4.0504    4.0195 H   0  0  0  0  0  0  0  0  0  0  0  0
   -4.0684   -4.3273    4.9128 H   0  0  0  0  0  0  0  0  0  0  0  0
   -0.4478   -2.2413   -0.4770 H   0  0  0  0  0  0  0  0  0  0  0  0
   -4.5531    0.7971    0.2015 H   0  0  0  0  0  0  0  0  0  0  0  0
   -4.8061   -0.9386    0.1515 H   0  0  0  0  0  0  0  0  0  0  0  0
   -3.7244   -0.1766   -1.0007 H   0  0  0  0  0  0  0  0  0  0  0  0
   -2.6097    1.8426    1.0018 H   0  0  0  0  0  0  0  0  0  0  0  0
   -3.9839    0.3490    5.2092 H   0  0  0  0  0  0  0  0  0  0  0  0
   -5.5845    0.9630    4.8285 H   0  0  0  0  0  0  0  0  0  0  0  0
   -6.7044   -1.1257    2.8832 H   0  0  0  0  0  0  0  0  0  0  0  0
   -7.2892   -2.2934    4.0477 H   0  0  0  0  0  0  0  0  0  0  0  0
   -7.5266   -0.5743    4.3269 H   0  0  0  0  0  0  0  0  0  0  0  0
   -5.0778   -3.7562    6.9207 H   0  0  0  0  0  0  0  0  0  0  0  0
   -6.6141   -3.7358    6.0577 H   0  0  0  0  0  0  0  0  0  0  0  0
   -1.8210    1.1905   -1.2073 H   0  0  0  0  0  0  0  0  0  0  0  0
   -0.4643    1.9037   -0.3698 H   0  0  0  0  0  0  0  0  0  0  0  0
   -4.8995   -1.6803    8.2738 H   0  0  0  0  0  0  0  0  0  0  0  0
   -3.6595   -1.4089    7.0503 H   0  0  0  0  0  0  0  0  0  0  0  0
   -4.8203   -0.1296    7.4437 H   0  0  0  0  0  0  0  0  0  0  0  0
   -7.0611   -1.8339    7.5875 H   0  0  0  0  0  0  0  0  0  0  0  0
    1.6237    3.0224    3.1125 H   0  0  0  0  0  0  0  0  0  0  0  0
    1.2346    4.3893    2.0538 H   0  0  0  0  0  0  0  0  0  0  0  0
    1.6183    2.8111    1.3480 H   0  0  0  0  0  0  0  0  0  0  0  0
  1  2  1  0  0  0  0 
  2  4  1  0  0  0  0 
  2  5  2  0  0  0  0 
  3  1  1  0  0  0  0 
  6  3  1  0  0  0  0 
  3  7  1  0  0  0  0 
  6  8  1  0  0  0  0 
  6  9  1  0  0  0  0 
  7 10  1  0  0  0  0 
  8 11  1  0  0  0  0 
  8 12  1  0  0  0  0 
  9 13  1  0  0  0  0 
  9 14  1  0  0  0  0 
 11 10  1  0  0  0  0 
 10 15  2  0  0  0  0 
 11 16  1  0  0  0  0 
 11 17  1  0  0  0  0 
 12 18  1  0  0  0  0 
 13 18  1  0  0  0  0 
 13 19  1  0  0  0  0 
 13 20  1  0  0  0  0 
 14 21  1  0  0  0  0 
 15 22  1  0  0  0  0 
 17 23  1  0  0  0  0 
 17 24  1  0  0  0  0 
 20 21  1  0  0  0  0 
 20 25  1  0  0  0  0 
 20 26  1  0  0  0  0 
 22 24  1  0  0  0  0 
 22 27  2  0  0  0  0 
 23 28  1  0  0  0  0 
 28 29  1  0  0  0  0 
 28 30  2  0  0  0  0 
  3 31  1  0  0  0  0 
 32  4  1  0  0  0  0 
 33  4  1  0  0  0  0 
 34  4  1  0  0  0  0 
  6 35  1  0  0  0  0 
 36  7  1  0  0  0  0 
 37  7  1  0  0  0  0 
  8 38  1  0  0  0  0 
  9 39  1  0  0  0  0 
 40 12  1  0  0  0  0 
 41 12  1  0  0  0  0 
 42 14  1  0  0  0  0 
 43 14  1  0  0  0  0 
 44 15  1  0  0  0  0 
 45 16  1  0  0  0  0 
 46 16  1  0  0  0  0 
 47 16  1  0  0  0  0 
 17 48  1  0  0  0  0 
 49 18  1  0  0  0  0 
 50 18  1  0  0  0  0 
 51 19  1  0  0  0  0 
 52 19  1  0  0  0  0 
 53 19  1  0  0  0  0 
 54 21  1  0  0  0  0 
 55 21  1  0  0  0  0 
 56 24  1  0  0  0  0 
 57 24  1  0  0  0  0 
 58 25  1  0  0  0  0 
 59 25  1  0  0  0  0 
 60 25  1  0  0  0  0 
 61 26  1  0  0  0  0 
 62 29  1  0  0  0  0 
 63 29  1  0  0  0  0 
 64 29  1  0  0  0  0 
M  END
> <cdk:Title>
tiomesterone

> <Conformer>
1

> <SuperDrugID>
SD003278

$$$$
