todralazine
  CDK     0628171801

 29 30  0  0  0  0  0  0  0  0999 V2000
   -3.6929    2.8540    0.3473 N   0  0  2  0  0  0  0  0  0  0  0  0
   -2.3741    2.5677    0.2603 N   0  0  0  0  0  0  0  0  0  0  0  0
   -4.0567    3.8228   -0.6044 C   0  0  0  0  0  0  0  0  0  0  0  0
   -1.9127    1.3185    0.0275 C   0  0  0  0  0  0  0  0  0  0  0  0
   -4.4229    5.1529   -0.2747 C   0  0  0  0  0  0  0  0  0  0  0  0
   -4.0469    3.4558   -1.9132 N   0  0  0  0  0  0  0  0  0  0  0  0
   -0.5604    1.1431   -0.0179 O   0  0  0  0  0  0  0  0  0  0  0  0
   -2.7020    0.3556   -0.1190 O   0  0  0  0  0  0  0  0  0  0  0  0
   -4.7150    6.0539   -1.3399 C   0  0  0  0  0  0  0  0  0  0  0  0
   -4.5027    5.6235    1.0585 C   0  0  0  0  0  0  0  0  0  0  0  0
   -4.3411    4.2774   -2.8855 N   0  0  0  0  0  0  0  0  0  0  0  0
    0.1623   -0.0704   -0.2694 C   0  0  1  0  0  0  0  0  0  0  0  0
   -4.6709    5.5728   -2.6656 C   0  0  0  0  0  0  0  0  0  0  0  0
   -5.0410    7.4001   -1.0589 C   0  0  0  0  0  0  0  0  0  0  0  0
   -4.8362    6.9632    1.3275 C   0  0  0  0  0  0  0  0  0  0  0  0
    0.6947   -0.6361    1.0585 C   0  0  0  0  0  0  0  0  0  0  0  0
   -5.0953    7.8523    0.2713 C   0  0  0  0  0  0  0  0  0  0  0  0
   -3.8692    3.1901    1.2943 H   0  0  0  0  0  0  0  0  0  0  0  0
   -1.7364    3.2902    0.3782 H   0  0  0  0  0  0  0  0  0  0  0  0
   -4.3208    5.0026    1.8487 H   0  0  0  0  0  0  0  0  0  0  0  0
   -0.4634   -0.8161   -0.7659 H   0  0  0  0  0  0  0  0  0  0  0  0
    1.0051    0.1546   -0.9268 H   0  0  0  0  0  0  0  0  0  0  0  0
   -4.8786    6.1770   -3.4646 H   0  0  0  0  0  0  0  0  0  0  0  0
   -5.2441    8.0583   -1.8158 H   0  0  0  0  0  0  0  0  0  0  0  0
   -4.8854    7.2929    2.2946 H   0  0  0  0  0  0  0  0  0  0  0  0
    1.3107   -1.5152    0.8589 H   0  0  0  0  0  0  0  0  0  0  0  0
    1.3015    0.1182    1.5659 H   0  0  0  0  0  0  0  0  0  0  0  0
   -0.1374   -0.9218    1.7082 H   0  0  0  0  0  0  0  0  0  0  0  0
   -5.3299    8.8277    0.4712 H   0  0  0  0  0  0  0  0  0  0  0  0
  1  2  1  0  0  0  0 
  1  3  1  0  0  0  0 
  2  4  1  0  0  0  0 
  3  5  2  0  0  0  0 
  3  6  1  0  0  0  0 
  4  7  1  0  0  0  0 
  4  8  2  0  0  0  0 
  5  9  1  0  0  0  0 
  5 10  1  0  0  0  0 
  6 11  2  0  0  0  0 
  7 12  1  0  0  0  0 
  9 13  2  0  0  0  0 
  9 14  1  0  0  0  0 
 10 15  2  0  0  0  0 
 11 13  1  0  0  0  0 
 12 16  1  0  0  0  0 
 14 17  2  0  0  0  0 
 15 17  1  0  0  0  0 
 18  1  1  0  0  0  0 
 19  2  1  0  0  0  0 
 20 10  1  0  0  0  0 
 21 12  1  0  0  0  0 
 22 12  1  0  0  0  0 
 23 13  1  0  0  0  0 
 24 14  1  0  0  0  0 
 25 15  1  0  0  0  0 
 26 16  1  0  0  0  0 
 27 16  1  0  0  0  0 
 28 16  1  0  0  0  0 
 29 17  1  0  0  0  0 
M  END
> <cdk:Title>
todralazine

> <Conformer>
1

> <SuperDrugID>
SD002422

$$$$
