miglustat
  CDK     0628171801

 36 36  0  0  0  0  0  0  0  0999 V2000
    2.5352    0.7994    1.4243 C   0  0  2  0  0  0  0  0  0  0  0  0
    2.7490    0.2281   -0.0119 C   0  0  2  0  0  0  0  0  0  0  0  0
    2.2741    2.2853    1.5287 N   0  0  1  0  0  0  0  0  0  0  0  0
    1.6150    0.6129   -1.0027 C   0  0  2  0  0  0  0  0  0  0  0  0
    1.7851    2.7552    2.8901 C   0  0  2  0  0  0  0  0  0  0  0  0
    3.4457    3.0684    1.0007 C   0  0  1  0  0  0  0  0  0  0  0  0
    1.8980    0.1896   -2.4622 C   0  0  0  0  0  0  0  0  0  0  0  0
    0.4255    2.1067    3.3124 C   0  0  1  0  0  0  0  0  0  0  0  0
    1.6422    4.3168    2.9762 C   0  0  1  0  0  0  0  0  0  0  0  0
    3.2557    4.5999    1.0453 C   0  0  1  0  0  0  0  0  0  0  0  0
   -0.5715    2.2881    2.3112 O   0  0  0  0  0  0  0  0  0  0  0  0
    1.4044    4.7576    4.3170 O   0  0  0  0  0  0  0  0  0  0  0  0
    2.9064    5.0574    2.4777 C   0  0  1  0  0  0  0  0  0  0  0  0
    4.4482    5.2442    0.5939 O   0  0  0  0  0  0  0  0  0  0  0  0
    2.6889    6.4690    2.4862 O   0  0  0  0  0  0  0  0  0  0  0  0
    3.4057    0.5406    2.0362 H   0  0  0  0  0  0  0  0  0  0  0  0
    1.6965    0.2323    1.8220 H   0  0  0  0  0  0  0  0  0  0  0  0
    2.8003   -0.8625    0.0589 H   0  0  0  0  0  0  0  0  0  0  0  0
    3.7159    0.5584   -0.3959 H   0  0  0  0  0  0  0  0  0  0  0  0
    1.4690    1.6957   -0.9943 H   0  0  0  0  0  0  0  0  0  0  0  0
    0.6820    0.1429   -0.6760 H   0  0  0  0  0  0  0  0  0  0  0  0
    2.5320    2.4569    3.6324 H   0  0  0  0  0  0  0  0  0  0  0  0
    4.3534    2.8049    1.5524 H   0  0  0  0  0  0  0  0  0  0  0  0
    3.6129    2.8273   -0.0512 H   0  0  0  0  0  0  0  0  0  0  0  0
    1.0470    0.4586   -3.0901 H   0  0  0  0  0  0  0  0  0  0  0  0
    2.0535   -0.8881   -2.5288 H   0  0  0  0  0  0  0  0  0  0  0  0
    2.7826    0.7031   -2.8436 H   0  0  0  0  0  0  0  0  0  0  0  0
    0.5346    1.0409    3.5077 H   0  0  0  0  0  0  0  0  0  0  0  0
    0.0566    2.5388    4.2437 H   0  0  0  0  0  0  0  0  0  0  0  0
    0.7917    4.6364    2.3646 H   0  0  0  0  0  0  0  0  0  0  0  0
    2.4465    4.8754    0.3622 H   0  0  0  0  0  0  0  0  0  0  0  0
   -1.3826    1.8870    2.6885 H   0  0  0  0  0  0  0  0  0  0  0  0
    0.5092    4.4426    4.5510 H   0  0  0  0  0  0  0  0  0  0  0  0
    3.7481    4.8446    3.1450 H   0  0  0  0  0  0  0  0  0  0  0  0
    4.2338    6.2013    0.5903 H   0  0  0  0  0  0  0  0  0  0  0  0
    2.5355    6.7009    3.4265 H   0  0  0  0  0  0  0  0  0  0  0  0
  1  2  1  0  0  0  0 
  1  3  1  0  0  0  0 
  2  4  1  0  0  0  0 
  5  3  1  0  0  0  0 
  3  6  1  0  0  0  0 
  4  7  1  0  0  0  0 
  5  8  1  0  0  0  0 
  9  5  1  0  0  0  0 
 10  6  1  0  0  0  0 
  8 11  1  0  0  0  0 
  9 12  1  0  0  0  0 
 13  9  1  0  0  0  0 
 13 10  1  0  0  0  0 
 10 14  1  0  0  0  0 
 13 15  1  0  0  0  0 
  1 16  1  0  0  0  0 
  1 17  1  0  0  0  0 
  2 18  1  0  0  0  0 
  2 19  1  0  0  0  0 
  4 20  1  0  0  0  0 
  4 21  1  0  0  0  0 
  5 22  1  0  0  0  0 
  6 23  1  0  0  0  0 
  6 24  1  0  0  0  0 
  7 25  1  0  0  0  0 
  7 26  1  0  0  0  0 
  7 27  1  0  0  0  0 
  8 28  1  0  0  0  0 
  8 29  1  0  0  0  0 
  9 30  1  0  0  0  0 
 10 31  1  0  0  0  0 
 11 32  1  0  0  0  0 
 12 33  1  0  0  0  0 
 13 34  1  0  0  0  0 
 14 35  1  0  0  0  0 
 15 36  1  0  0  0  0 
M  END
> <cdk:Title>
miglustat

> <Conformer>
1

> <SuperDrugID>
SD001606

$$$$
