evogliptin
  Mrv0541 09131710103D              66.79807

 54 55  0  0  0  0            999 V2000
    0.8142   -3.8115   -6.6265 C   0  0  0  0  0  0  0  0  0  0  0  0
    1.3669   -5.1120   -5.9629 C   0  0  2  0  0  0  0  0  0  0  0  0
    2.5288   -5.6762   -6.8356 C   0  0  0  0  0  0  0  0  0  0  0  0
    0.2436   -6.1879   -5.8393 C   0  0  0  0  0  0  0  0  0  0  0  0
    2.0077   -4.8363   -4.6897 O   0  0  0  0  0  0  0  0  0  0  0  0
    1.2350   -4.3833   -3.5567 C   0  0  2  0  0  0  0  0  0  0  0  0
    2.2036   -4.0572   -2.3823 C   0  0  1  0  0  0  0  0  0  0  0  0
    1.5064   -3.3403   -1.3101 N   0  0  0  0  0  0  0  0  0  0  0  0
    1.0373   -4.1260   -0.1794 C   0  0  1  0  0  0  0  0  0  0  0  0
    2.1565   -5.0293    0.3907 C   0  0  1  0  0  0  0  0  0  0  0  0
    2.9095   -5.6803   -0.6240 N   0  0  0  0  0  0  0  0  0  0  0  0
    2.9489   -5.2623   -1.9107 C   0  0  0  0  0  0  0  0  0  0  0  0
    3.6757   -5.9157   -2.6933 O   0  0  0  0  0  0  0  0  0  0  0  0
    1.3070   -1.9622   -1.4195 C   0  0  0  0  0  0  0  0  0  0  0  0
    1.6986   -1.3536   -2.4468 O   0  0  0  0  0  0  0  0  0  0  0  0
    0.6835   -1.0847   -0.3940 C   0  0  2  0  0  0  0  0  0  0  0  0
   -0.8642   -1.2361   -0.2696 C   0  0  2  0  0  0  0  0  0  0  0  0
   -1.5006   -0.9265   -1.5626 N   0  0  1  0  0  0  0  0  0  0  0  0
   -1.4526   -0.3226    0.8500 C   0  0  2  0  0  0  0  0  0  0  0  0
   -0.8508   -0.5828    2.1938 C   0  0  0  0  0  0  0  0  0  0  0  0
   -1.1580   -1.7875    2.8697 C   0  0  0  0  0  0  0  0  0  0  0  0
   -0.5722   -2.0929    4.1131 C   0  0  0  0  0  0  0  0  0  0  0  0
   -0.8710   -3.2152    4.7095 F   0  0  0  0  0  0  0  0  0  0  0  0
    0.3325   -1.1912    4.7041 C   0  0  0  0  0  0  0  0  0  0  0  0
    0.8851   -1.4627    5.8564 F   0  0  0  0  0  0  0  0  0  0  0  0
    0.6440    0.0137    4.0492 C   0  0  0  0  0  0  0  0  0  0  0  0
    0.0574    0.3206    2.8054 C   0  0  0  0  0  0  0  0  0  0  0  0
    0.3969    1.4445    2.2309 F   0  0  0  0  0  0  0  0  0  0  0  0
    1.5732   -3.0260   -6.6217 H   0  0  0  0  0  0  0  0  0  0  0  0
    0.5168   -3.9992   -7.6611 H   0  0  0  0  0  0  0  0  0  0  0  0
   -0.0631   -3.4418   -6.0934 H   0  0  0  0  0  0  0  0  0  0  0  0
    3.3336   -4.9420   -6.9233 H   0  0  0  0  0  0  0  0  0  0  0  0
    2.1836   -5.9273   -7.8414 H   0  0  0  0  0  0  0  0  0  0  0  0
    2.9454   -6.5784   -6.3811 H   0  0  0  0  0  0  0  0  0  0  0  0
   -0.1126   -6.4955   -6.8250 H   0  0  0  0  0  0  0  0  0  0  0  0
   -0.6104   -5.7930   -5.2860 H   0  0  0  0  0  0  0  0  0  0  0  0
    0.6155   -7.0691   -5.3121 H   0  0  0  0  0  0  0  0  0  0  0  0
    0.5247   -5.1475   -3.2341 H   0  0  0  0  0  0  0  0  0  0  0  0
    0.6774   -3.4821   -3.8269 H   0  0  0  0  0  0  0  0  0  0  0  0
    2.9896   -3.4065   -2.7802 H   0  0  0  0  0  0  0  0  0  0  0  0
    0.6665   -3.5360    0.6565 H   0  0  0  0  0  0  0  0  0  0  0  0
    0.2082   -4.7538   -0.5218 H   0  0  0  0  0  0  0  0  0  0  0  0
    2.8444   -4.4376    0.9988 H   0  0  0  0  0  0  0  0  0  0  0  0
    1.7073   -5.7890    1.0336 H   0  0  0  0  0  0  0  0  0  0  0  0
    3.4367   -6.4575   -0.3744 H   0  0  0  0  0  0  0  0  0  0  0  0
    0.8943   -0.0344   -0.6268 H   0  0  0  0  0  0  0  0  0  0  0  0
    1.1782   -1.2857    0.5590 H   0  0  0  0  0  0  0  0  0  0  0  0
   -1.1268   -2.2715   -0.0437 H   0  0  0  0  0  0  0  0  0  0  0  0
   -2.5033   -1.0963   -1.4579 H   0  0  0  0  0  0  0  0  0  0  0  0
   -1.3773    0.0731   -1.7377 H   0  0  0  0  0  0  0  0  0  0  0  0
   -2.5334   -0.4769    0.9152 H   0  0  0  0  0  0  0  0  0  0  0  0
   -1.3113    0.7201    0.5523 H   0  0  0  0  0  0  0  0  0  0  0  0
   -1.8118   -2.4551    2.4526 H   0  0  0  0  0  0  0  0  0  0  0  0
    1.3008    0.6683    4.4807 H   0  0  0  0  0  0  0  0  0  0  0  0
  1  2  1  0  0  0  0
  2  3  1  0  0  0  0
  2  4  1  0  0  0  0
  2  5  1  0  0  0  0
  5  6  1  0  0  0  0
  7  6  1  0  0  0  0
  7  8  1  0  0  0  0
  8  9  1  0  0  0  0
  9 10  1  0  0  0  0
 10 11  1  0  0  0  0
 11 12  1  0  0  0  0
 12 13  2  0  0  0  0
  8 14  1  0  0  0  0
 14 15  2  0  0  0  0
 14 16  1  0  0  0  0
 17 16  1  0  0  0  0
 17 18  1  0  0  0  0
 17 19  1  0  0  0  0
 19 20  1  0  0  0  0
 20 21  2  0  0  0  0
 21 22  1  0  0  0  0
 22 23  1  0  0  0  0
 22 24  2  0  0  0  0
 24 25  1  0  0  0  0
 24 26  1  0  0  0  0
 26 27  2  0  0  0  0
 27 28  1  0  0  0  0
 12  7  1  0  0  0  0
 27 20  1  0  0  0  0
  1 29  1  0  0  0  0
  1 30  1  0  0  0  0
  1 31  1  0  0  0  0
  3 32  1  0  0  0  0
  3 33  1  0  0  0  0
  3 34  1  0  0  0  0
  4 35  1  0  0  0  0
  4 36  1  0  0  0  0
  4 37  1  0  0  0  0
  6 38  1  0  0  0  0
  6 39  1  0  0  0  0
  7 40  1  0  0  0  0
  9 41  1  0  0  0  0
  9 42  1  0  0  0  0
 10 43  1  0  0  0  0
 10 44  1  0  0  0  0
 11 45  1  0  0  0  0
 16 46  1  0  0  0  0
 16 47  1  0  0  0  0
 17 48  1  0  0  0  0
 18 49  1  0  0  0  0
 18 50  1  0  0  0  0
 19 51  1  0  0  0  0
 19 52  1  0  0  0  0
 21 53  1  0  0  0  0
 26 54  1  0  0  0  0
M  END
>  <SuperDrugID>
SD006005

>  <_MOLCOUNT>
1

$$$$
