phenylpropanol
  CDK     0628171801

 22 22  0  0  0  0  0  0  0  0999 V2000
   -0.0531   -0.9178   -0.9208 C   0  0  0  0  0  0  0  0  0  0  0  0
    0.5055    0.3490   -1.6124 C   0  0  1  0  0  0  0  0  0  0  0  0
    1.5504    1.1188   -0.7607 C   0  0  1  0  0  0  0  0  0  0  0  0
    2.1610    2.1310   -1.5605 O   0  0  0  0  0  0  0  0  0  0  0  0
    0.9745    1.7145    0.4791 C   0  0  0  0  0  0  0  0  0  0  0  0
    0.2303    2.9201    0.4429 C   0  0  0  0  0  0  0  0  0  0  0  0
   -0.2675    3.4930    1.6282 C   0  0  0  0  0  0  0  0  0  0  0  0
   -0.0503    2.8532    2.8609 C   0  0  0  0  0  0  0  0  0  0  0  0
    0.6471    1.6333    2.9103 C   0  0  0  0  0  0  0  0  0  0  0  0
    1.1609    1.0721    1.7271 C   0  0  0  0  0  0  0  0  0  0  0  0
    0.7640   -1.5601   -0.5884 H   0  0  0  0  0  0  0  0  0  0  0  0
   -0.6697   -1.4822   -1.6234 H   0  0  0  0  0  0  0  0  0  0  0  0
   -0.6673   -0.6500   -0.0590 H   0  0  0  0  0  0  0  0  0  0  0  0
    0.9892    0.0339   -2.5414 H   0  0  0  0  0  0  0  0  0  0  0  0
   -0.3242    1.0118   -1.8761 H   0  0  0  0  0  0  0  0  0  0  0  0
    2.3575    0.4252   -0.5059 H   0  0  0  0  0  0  0  0  0  0  0  0
    2.8761    2.4996   -0.9994 H   0  0  0  0  0  0  0  0  0  0  0  0
    0.0520    3.3932   -0.4465 H   0  0  0  0  0  0  0  0  0  0  0  0
   -0.7854    4.3742    1.5941 H   0  0  0  0  0  0  0  0  0  0  0  0
   -0.4033    3.2715    3.7225 H   0  0  0  0  0  0  0  0  0  0  0  0
    0.7806    1.1507    3.8034 H   0  0  0  0  0  0  0  0  0  0  0  0
    1.6682    0.1840    1.7833 H   0  0  0  0  0  0  0  0  0  0  0  0
  1  2  1  0  0  0  0 
  3  2  1  0  0  0  0 
  3  4  1  0  0  0  0 
  3  5  1  0  0  0  0 
  5  6  2  0  0  0  0 
  6  7  1  0  0  0  0 
  7  8  2  0  0  0  0 
  8  9  1  0  0  0  0 
  9 10  2  0  0  0  0 
  5 10  1  0  0  0  0 
  1 11  1  0  0  0  0 
  1 12  1  0  0  0  0 
  1 13  1  0  0  0  0 
  2 14  1  0  0  0  0 
  2 15  1  0  0  0  0 
  3 16  1  0  0  0  0 
  4 17  1  0  0  0  0 
  6 18  1  0  0  0  0 
  7 19  1  0  0  0  0 
  8 20  1  0  0  0  0 
  9 21  1  0  0  0  0 
 10 22  1  0  0  0  0 
M  END
> <cdk:Title>
phenylpropanol

> <Conformer>
1

> <SuperDrugID>
SD001927

$$$$
