sulfisoxazole acetyl
  CDK     0628171801

 36 37  0  0  0  0  0  0  0  0999 V2000
   -0.6338    1.9483    0.6050 N   0  0  0  0  0  0  0  0  0  0  0  0
   -1.5794    3.3896    0.7618 S   0  0  1  0  0  0  0  0  0  0  0  0
    0.1472    1.4441    1.6308 C   0  0  0  0  0  0  0  0  0  0  0  0
   -0.7433    1.3703   -0.6267 C   0  0  0  0  0  0  0  0  0  0  0  0
   -1.2414    4.1921    2.1103 O   0  0  0  0  0  0  0  0  0  0  0  0
   -1.2156    4.3560   -0.4691 O   0  0  0  0  0  0  0  0  0  0  0  0
   -3.3128    3.0050    0.7362 C   0  0  0  0  0  0  0  0  0  0  0  0
    0.9023    0.1670    1.6091 C   0  0  0  0  0  0  0  0  0  0  0  0
    0.2546    2.0703    2.7119 O   0  0  0  0  0  0  0  0  0  0  0  0
    0.2488    1.2011   -1.5926 C   0  0  0  0  0  0  0  0  0  0  0  0
   -1.9104    0.9339   -1.1589 O   0  0  0  0  0  0  0  0  0  0  0  0
   -4.2215    3.8081    0.0144 C   0  0  0  0  0  0  0  0  0  0  0  0
   -3.7954    1.8849    1.4450 C   0  0  0  0  0  0  0  0  0  0  0  0
    1.6718    1.5861   -1.4891 C   0  0  0  0  0  0  0  0  0  0  0  0
   -0.4103    0.6368   -2.6858 C   0  0  0  0  0  0  0  0  0  0  0  0
   -1.7099    0.4989   -2.3721 N   0  0  0  0  0  0  0  0  0  0  0  0
   -5.5918    3.4859   -0.0119 C   0  0  0  0  0  0  0  0  0  0  0  0
   -5.1660    1.5615    1.4183 C   0  0  0  0  0  0  0  0  0  0  0  0
    0.1728    0.2507   -3.9815 C   0  0  0  0  0  0  0  0  0  0  0  0
   -6.0692    2.3588    0.6861 C   0  0  0  0  0  0  0  0  0  0  0  0
   -7.3809    2.0466    0.6528 N   0  0  0  0  0  0  0  0  0  0  0  0
    0.7399   -0.4053    0.6982 H   0  0  0  0  0  0  0  0  0  0  0  0
    1.9720    0.3686    1.7093 H   0  0  0  0  0  0  0  0  0  0  0  0
    0.5914   -0.4583    2.4476 H   0  0  0  0  0  0  0  0  0  0  0  0
   -3.8955    4.6329   -0.4936 H   0  0  0  0  0  0  0  0  0  0  0  0
   -3.1520    1.2964    1.9810 H   0  0  0  0  0  0  0  0  0  0  0  0
    2.1366    1.6521   -2.4736 H   0  0  0  0  0  0  0  0  0  0  0  0
    1.7567    2.5603   -1.0053 H   0  0  0  0  0  0  0  0  0  0  0  0
    2.2161    0.8472   -0.9014 H   0  0  0  0  0  0  0  0  0  0  0  0
   -6.2383    4.0800   -0.5362 H   0  0  0  0  0  0  0  0  0  0  0  0
   -5.4981    0.7427    1.9341 H   0  0  0  0  0  0  0  0  0  0  0  0
    0.5725    1.1306   -4.4869 H   0  0  0  0  0  0  0  0  0  0  0  0
   -0.5845   -0.2049   -4.6228 H   0  0  0  0  0  0  0  0  0  0  0  0
    0.9788   -0.4682   -3.8270 H   0  0  0  0  0  0  0  0  0  0  0  0
   -7.7164    1.2816    1.1479 H   0  0  0  0  0  0  0  0  0  0  0  0
   -7.9945    2.5828    0.1260 H   0  0  0  0  0  0  0  0  0  0  0  0
  1  2  1  0  0  0  0 
  1  3  1  0  0  0  0 
  1  4  1  0  0  0  0 
  2  5  2  0  0  0  0 
  2  6  2  0  0  0  0 
  2  7  1  0  0  0  0 
  3  8  1  0  0  0  0 
  3  9  2  0  0  0  0 
  4 10  2  0  0  0  0 
  4 11  1  0  0  0  0 
  7 12  2  0  0  0  0 
  7 13  1  0  0  0  0 
 10 14  1  0  0  0  0 
 10 15  1  0  0  0  0 
 11 16  1  0  0  0  0 
 12 17  1  0  0  0  0 
 13 18  2  0  0  0  0 
 15 16  2  0  0  0  0 
 15 19  1  0  0  0  0 
 17 20  2  0  0  0  0 
 18 20  1  0  0  0  0 
 20 21  1  0  0  0  0 
  8 22  1  0  0  0  0 
  8 23  1  0  0  0  0 
  8 24  1  0  0  0  0 
 12 25  1  0  0  0  0 
 13 26  1  0  0  0  0 
 14 27  1  0  0  0  0 
 14 28  1  0  0  0  0 
 14 29  1  0  0  0  0 
 17 30  1  0  0  0  0 
 18 31  1  0  0  0  0 
 19 32  1  0  0  0  0 
 19 33  1  0  0  0  0 
 19 34  1  0  0  0  0 
 21 35  1  0  0  0  0 
 21 36  1  0  0  0  0 
M  END
> <cdk:Title>
sulfisoxazole acetyl

> <Conformer>
1

> <SuperDrugID>
SD003576

$$$$
