secnidazole
  CDK     0628171801

 24 24  0  0  0  0  0  0  0  0999 V2000
    0.5796   -0.2888    1.1401 N   0  0  0  0  0  0  0  0  0  0  0  0
    1.1206   -1.0016    0.1112 C   0  0  0  0  0  0  0  0  0  0  0  0
    1.9481   -0.1141   -0.5763 C   0  0  0  0  0  0  0  0  0  0  0  0
    1.9180    1.0790    0.0173 N   0  0  0  0  0  0  0  0  0  0  0  0
    1.0883    0.9700    1.0659 C   0  0  0  0  0  0  0  0  0  0  0  0
   -0.3687   -0.7412    2.1353 C   0  0  2  0  0  0  0  0  0  0  0  0
    0.2997   -1.2849    3.4309 C   0  0  1  0  0  0  0  0  0  0  0  0
   -0.7497   -1.7467    4.4734 C   0  0  0  0  0  0  0  0  0  0  0  0
    1.1840   -2.3661    3.1430 O   0  0  0  0  0  0  0  0  0  0  0  0
    0.8181    2.1162    1.9551 C   0  0  0  0  0  0  0  0  0  0  0  0
    0.9617   -2.2840   -0.2407 N   0  0  0  0  0  0  0  0  0  0  0  0
    1.6037   -2.7942   -1.2144 O   0  0  0  0  0  0  0  0  0  0  0  0
    0.2485   -3.0186    0.3163 O   0  0  0  0  0  0  0  0  0  0  0  0
    2.5013   -0.3263   -1.4090 H   0  0  0  0  0  0  0  0  0  0  0  0
   -1.0292   -1.5021    1.7198 H   0  0  0  0  0  0  0  0  0  0  0  0
   -1.0296    0.0855    2.4108 H   0  0  0  0  0  0  0  0  0  0  0  0
    0.8977   -0.4899    3.8801 H   0  0  0  0  0  0  0  0  0  0  0  0
   -1.3526   -2.5620    4.0673 H   0  0  0  0  0  0  0  0  0  0  0  0
   -0.2522   -2.0990    5.3789 H   0  0  0  0  0  0  0  0  0  0  0  0
   -1.4081   -0.9178    4.7424 H   0  0  0  0  0  0  0  0  0  0  0  0
    0.6063   -3.0883    2.8177 H   0  0  0  0  0  0  0  0  0  0  0  0
    1.0822    1.8564    2.9801 H   0  0  0  0  0  0  0  0  0  0  0  0
   -0.2381    2.3824    1.9105 H   0  0  0  0  0  0  0  0  0  0  0  0
    1.4052    2.9864    1.6528 H   0  0  0  0  0  0  0  0  0  0  0  0
  1  2  1  0  0  0  0 
  2  3  2  0  0  0  0 
  4  5  2  0  0  0  0 
  1  5  1  0  0  0  0 
  3  4  1  0  0  0  0 
  1  6  1  0  0  0  0 
  7  6  1  0  0  0  0 
  7  8  1  0  0  0  0 
  7  9  1  0  0  0  0 
  5 10  1  0  0  0  0 
  2 11  1  0  0  0  0 
 11 12  1  0  0  0  0 
 11 13  2  0  0  0  0 
  3 14  1  0  0  0  0 
  6 15  1  0  0  0  0 
  6 16  1  0  0  0  0 
  7 17  1  0  0  0  0 
  8 18  1  0  0  0  0 
  8 19  1  0  0  0  0 
  8 20  1  0  0  0  0 
  9 21  1  0  0  0  0 
 10 22  1  0  0  0  0 
 10 23  1  0  0  0  0 
 10 24  1  0  0  0  0 
M  CHG  1  11   1
M  CHG  1  12  -1
M  END
> <cdk:Title>
secnidazole

> <Conformer>
1

> <SuperDrugID>
SD002183

$$$$
