fursultiamine
  CDK     0628171801

 52 53  0  0  0  0  0  0  0  0999 V2000
   -1.1927    3.7803   10.1009 C   0  0  0  0  0  0  0  0  0  0  0  0
   -1.3878    2.9733   11.1752 N   0  0  0  0  0  0  0  0  0  0  0  0
   -0.5513    1.9448   11.4704 C   0  0  0  0  0  0  0  0  0  0  0  0
    0.5290    1.7285   10.6762 N   0  0  0  0  0  0  0  0  0  0  0  0
    0.7730    2.4930    9.5838 C   0  0  0  0  0  0  0  0  0  0  0  0
   -0.0955    3.5505    9.2314 C   0  0  0  0  0  0  0  0  0  0  0  0
   -0.8216    1.0803   12.6293 C   0  0  0  0  0  0  0  0  0  0  0  0
    0.1498    4.3059    7.9676 C   0  0  1  0  0  0  0  0  0  0  0  0
   -0.1502    3.6154    6.7078 N   0  0  0  0  0  0  0  0  0  0  0  0
    0.3973    4.1006    5.5615 C   0  0  0  0  0  0  0  0  0  0  0  0
   -0.9247    2.4713    6.5940 C   0  0  0  0  0  0  0  0  0  0  0  0
   -2.0950    4.7624    9.9175 N   0  0  0  0  0  0  0  0  0  0  0  0
   -1.5715    1.9530    7.5314 O   0  0  0  0  0  0  0  0  0  0  0  0
   -0.3434    4.7007    4.5855 C   0  0  0  0  0  0  0  0  0  0  0  0
    1.8468    3.9004    5.4236 C   0  0  0  0  0  0  0  0  0  0  0  0
    0.4217    5.2917    3.1363 S   0  0  0  0  0  0  0  0  0  0  0  0
   -1.8041    4.9033    4.6381 C   0  0  1  0  0  0  0  0  0  0  0  0
   -0.2649    3.9712    1.6452 S   0  0  0  0  0  0  0  0  0  0  0  0
    0.9932    2.6573    1.6706 C   0  0  2  0  0  0  0  0  0  0  0  0
    0.7309    1.5751    0.5937 C   0  0  2  0  0  0  0  0  0  0  0  0
   -0.4720    0.8469    0.8859 O   0  0  0  0  0  0  0  0  0  0  0  0
    1.8531    0.5113    0.4999 C   0  0  2  0  0  0  0  0  0  0  0  0
    1.1046   -0.8225    0.3391 C   0  0  1  0  0  0  0  0  0  0  0  0
   -0.3638   -0.3999    0.1921 C   0  0  2  0  0  0  0  0  0  0  0  0
   -2.2980    5.9616    5.6528 C   0  0  2  0  0  0  0  0  0  0  0  0
   -3.6848    6.2246    5.4578 O   0  0  0  0  0  0  0  0  0  0  0  0
    1.5940    2.2796    9.0150 H   0  0  0  0  0  0  0  0  0  0  0  0
   -0.0244    0.3480   12.7641 H   0  0  0  0  0  0  0  0  0  0  0  0
   -1.7602    0.5459   12.4792 H   0  0  0  0  0  0  0  0  0  0  0  0
   -0.8972    1.6821   13.5352 H   0  0  0  0  0  0  0  0  0  0  0  0
   -0.3795    5.2561    7.9864 H   0  0  0  0  0  0  0  0  0  0  0  0
    1.2051    4.5885    8.0011 H   0  0  0  0  0  0  0  0  0  0  0  0
   -1.0133    1.9933    5.6917 H   0  0  0  0  0  0  0  0  0  0  0  0
   -2.0207    5.3636    9.1626 H   0  0  0  0  0  0  0  0  0  0  0  0
   -2.8286    4.8697   10.5443 H   0  0  0  0  0  0  0  0  0  0  0  0
    2.2703    3.3244    6.2498 H   0  0  0  0  0  0  0  0  0  0  0  0
    2.0739    3.3425    4.5149 H   0  0  0  0  0  0  0  0  0  0  0  0
    2.3574    4.8658    5.3885 H   0  0  0  0  0  0  0  0  0  0  0  0
   -2.1843    5.2164    3.6619 H   0  0  0  0  0  0  0  0  0  0  0  0
   -2.3062    3.9584    4.8436 H   0  0  0  0  0  0  0  0  0  0  0  0
    0.9900    2.1913    2.6573 H   0  0  0  0  0  0  0  0  0  0  0  0
    1.9696    3.1159    1.4987 H   0  0  0  0  0  0  0  0  0  0  0  0
    0.6205    2.0653   -0.3815 H   0  0  0  0  0  0  0  0  0  0  0  0
    2.4769    0.4859    1.3986 H   0  0  0  0  0  0  0  0  0  0  0  0
    2.4941    0.7057   -0.3638 H   0  0  0  0  0  0  0  0  0  0  0  0
    1.4479   -1.3846   -0.5343 H   0  0  0  0  0  0  0  0  0  0  0  0
    1.2287   -1.4390    1.2341 H   0  0  0  0  0  0  0  0  0  0  0  0
   -0.6271   -0.2704   -0.8625 H   0  0  0  0  0  0  0  0  0  0  0  0
   -1.0349   -1.1388    0.6356 H   0  0  0  0  0  0  0  0  0  0  0  0
   -1.7434    6.8955    5.5389 H   0  0  0  0  0  0  0  0  0  0  0  0
   -2.1848    5.5977    6.6705 H   0  0  0  0  0  0  0  0  0  0  0  0
   -3.9313    6.8363    6.1841 H   0  0  0  0  0  0  0  0  0  0  0  0
  1  2  2  0  0  0  0 
  2  3  1  0  0  0  0 
  3  4  2  0  0  0  0 
  4  5  1  0  0  0  0 
  5  6  2  0  0  0  0 
  1  6  1  0  0  0  0 
  3  7  1  0  0  0  0 
  6  8  1  0  0  0  0 
  8  9  1  0  0  0  0 
  9 10  1  0  0  0  0 
  9 11  1  0  0  0  0 
  1 12  1  0  0  0  0 
 11 13  2  0  0  0  0 
 10 14  2  0  0  0  0 
 10 15  1  0  0  0  0 
 14 16  1  0  0  0  0 
 14 17  1  0  0  0  0 
 16 18  1  0  0  0  0 
 18 19  1  0  0  0  0 
 19 20  1  0  0  0  0 
 21 20  1  0  0  0  0 
 20 22  1  0  0  0  0 
 22 23  1  0  0  0  0 
 23 24  1  0  0  0  0 
 21 24  1  0  0  0  0 
 17 25  1  0  0  0  0 
 25 26  1  0  0  0  0 
  5 27  1  0  0  0  0 
  7 28  1  0  0  0  0 
  7 29  1  0  0  0  0 
  7 30  1  0  0  0  0 
  8 31  1  0  0  0  0 
  8 32  1  0  0  0  0 
 11 33  1  0  0  0  0 
 12 34  1  0  0  0  0 
 12 35  1  0  0  0  0 
 15 36  1  0  0  0  0 
 15 37  1  0  0  0  0 
 15 38  1  0  0  0  0 
 17 39  1  0  0  0  0 
 17 40  1  0  0  0  0 
 19 41  1  0  0  0  0 
 19 42  1  0  0  0  0 
 20 43  1  0  0  0  0 
 22 44  1  0  0  0  0 
 22 45  1  0  0  0  0 
 23 46  1  0  0  0  0 
 23 47  1  0  0  0  0 
 24 48  1  0  0  0  0 
 24 49  1  0  0  0  0 
 25 50  1  0  0  0  0 
 25 51  1  0  0  0  0 
 26 52  1  0  0  0  0 
M  END
> <cdk:Title>
fursultiamine

> <Conformer>
1

> <SuperDrugID>
SD001129

$$$$
