ceftriaxone
  CDK     0628171802

 54 57  0  0  0  0  0  0  0  0999 V2000
   -0.9699   -4.1169    3.7517 C   0  0  0  0  0  0  0  0  0  0  0  0
   -1.6880   -3.6074    2.7217 O   0  0  0  0  0  0  0  0  0  0  0  0
   -1.5623   -4.2930    4.8409 O   0  0  0  0  0  0  0  0  0  0  0  0
    0.3749   -4.4633    3.6284 C   0  0  0  0  0  0  0  0  0  0  0  0
    0.7136   -5.6997    4.0594 N   0  0  0  0  0  0  0  0  0  0  0  0
    1.3157   -3.6447    3.0704 C   0  0  0  0  0  0  0  0  0  0  0  0
    1.9688   -6.2883    4.3717 C   0  0  1  0  0  0  0  0  0  0  0  0
    0.0524   -6.8637    4.1604 C   0  0  0  0  0  0  0  0  0  0  0  0
    0.9967   -2.3275    2.5045 C   0  0  2  0  0  0  0  0  0  0  0  0
    2.7450   -4.0095    2.9843 C   0  0  2  0  0  0  0  0  0  0  0  0
    1.2542   -7.6778    4.3390 C   0  0  1  0  0  0  0  0  0  0  0  0
    3.1110   -5.7980    3.0443 S   0  0  0  0  0  0  0  0  0  0  0  0
   -1.1520   -7.1805    4.0300 O   0  0  0  0  0  0  0  0  0  0  0  0
    0.6656   -2.5658    0.7249 S   0  0  0  0  0  0  0  0  0  0  0  0
    1.5181   -8.4642    3.1742 N   0  0  0  0  0  0  0  0  0  0  0  0
   -0.3280   -1.1953    0.2689 C   0  0  0  0  0  0  0  0  0  0  0  0
    0.8029   -9.5492    2.7604 C   0  0  0  0  0  0  0  0  0  0  0  0
    0.1578    0.0230   -0.1335 N   0  0  0  0  0  0  0  0  0  0  0  0
   -1.6698   -1.3861    0.3190 N   0  0  0  0  0  0  0  0  0  0  0  0
    0.9442  -10.0633    1.4687 C   0  0  0  0  0  0  0  0  0  0  0  0
   -0.0280  -10.0769    3.5380 O   0  0  0  0  0  0  0  0  0  0  0  0
    1.5617    0.3202   -0.1674 C   0  0  0  0  0  0  0  0  0  0  0  0
   -0.6829    0.9660   -0.5039 N   0  0  0  0  0  0  0  0  0  0  0  0
   -2.5438   -0.4102   -0.0230 C   0  0  0  0  0  0  0  0  0  0  0  0
    0.9539  -11.3324    1.2510 N   0  0  0  0  0  0  0  0  0  0  0  0
    1.0840   -9.2300    0.3489 C   0  0  0  0  0  0  0  0  0  0  0  0
   -2.0320    0.8244   -0.4608 C   0  0  0  0  0  0  0  0  0  0  0  0
   -3.7733   -0.6354    0.0526 O   0  0  0  0  0  0  0  0  0  0  0  0
    0.8757  -12.2742    2.1149 O   0  0  0  0  0  0  0  0  0  0  0  0
    0.7863   -9.6177   -0.9750 C   0  0  0  0  0  0  0  0  0  0  0  0
    1.5316   -7.9414    0.4473 N   0  0  0  0  0  0  0  0  0  0  0  0
   -2.7716    1.7708   -0.8138 O   0  0  0  0  0  0  0  0  0  0  0  0
    1.5935  -13.4156    1.6270 C   0  0  0  0  0  0  0  0  0  0  0  0
    1.1552   -8.2424   -2.0000 S   0  0  0  0  0  0  0  0  0  0  0  0
    1.6652   -7.2112   -0.6784 C   0  0  0  0  0  0  0  0  0  0  0  0
    2.1109   -5.9493   -0.7595 N   0  0  0  0  0  0  0  0  0  0  0  0
   -2.6289   -3.3601    2.8455 H   0  0  0  0  0  0  0  0  0  0  0  0
    2.3226   -5.9856    5.3635 H   0  0  0  0  0  0  0  0  0  0  0  0
    1.8289   -1.6267    2.6179 H   0  0  0  0  0  0  0  0  0  0  0  0
    0.1384   -1.8535    2.9832 H   0  0  0  0  0  0  0  0  0  0  0  0
    3.2647   -3.5292    3.8164 H   0  0  0  0  0  0  0  0  0  0  0  0
    3.1921   -3.6437    2.0561 H   0  0  0  0  0  0  0  0  0  0  0  0
    1.2788   -8.2212    5.2876 H   0  0  0  0  0  0  0  0  0  0  0  0
    2.2331   -8.1598    2.5945 H   0  0  0  0  0  0  0  0  0  0  0  0
    1.9817    0.2535    0.8381 H   0  0  0  0  0  0  0  0  0  0  0  0
    1.7696    1.3235   -0.5484 H   0  0  0  0  0  0  0  0  0  0  0  0
    2.0784   -0.3895   -0.8154 H   0  0  0  0  0  0  0  0  0  0  0  0
   -0.3226    1.8022   -0.8381 H   0  0  0  0  0  0  0  0  0  0  0  0
    0.4176  -10.5164   -1.2951 H   0  0  0  0  0  0  0  0  0  0  0  0
    1.6037  -14.1738    2.4108 H   0  0  0  0  0  0  0  0  0  0  0  0
    1.1027  -13.8381    0.7450 H   0  0  0  0  0  0  0  0  0  0  0  0
    2.6329  -13.1639    1.3841 H   0  0  0  0  0  0  0  0  0  0  0  0
    2.1822   -5.5137   -1.6227 H   0  0  0  0  0  0  0  0  0  0  0  0
    2.3703   -5.4744    0.0455 H   0  0  0  0  0  0  0  0  0  0  0  0
  1  2  1  0  0  0  0 
  1  3  2  0  0  0  0 
  1  4  1  0  0  0  0 
  4  5  1  0  0  0  0 
  4  6  2  0  0  0  0 
  7  5  1  0  0  0  0 
  5  8  1  0  0  0  0 
  6  9  1  0  0  0  0 
  6 10  1  0  0  0  0 
  7 11  1  0  0  0  0 
  7 12  1  0  0  0  0 
 11  8  1  0  0  0  0 
  8 13  2  0  0  0  0 
  9 14  1  0  0  0  0 
 10 12  1  0  0  0  0 
 11 15  1  0  0  0  0 
 14 16  1  0  0  0  0 
 15 17  1  0  0  0  0 
 16 18  1  0  0  0  0 
 16 19  2  0  0  0  0 
 17 20  1  0  0  0  0 
 17 21  2  0  0  0  0 
 18 22  1  0  0  0  0 
 18 23  1  0  0  0  0 
 19 24  1  0  0  0  0 
 20 25  2  0  0  0  0 
 20 26  1  0  0  0  0 
 23 27  1  0  0  0  0 
 24 27  1  0  0  0  0 
 24 28  2  0  0  0  0 
 25 29  1  0  0  0  0 
 26 30  2  0  0  0  0 
 26 31  1  0  0  0  0 
 27 32  2  0  0  0  0 
 29 33  1  0  0  0  0 
 30 34  1  0  0  0  0 
 31 35  2  0  0  0  0 
 34 35  1  0  0  0  0 
 35 36  1  0  0  0  0 
 37  2  1  0  0  0  0 
  7 38  1  0  0  0  0 
 39  9  1  0  0  0  0 
 40  9  1  0  0  0  0 
 41 10  1  0  0  0  0 
 42 10  1  0  0  0  0 
 11 43  1  0  0  0  0 
 44 15  1  0  0  0  0 
 45 22  1  0  0  0  0 
 46 22  1  0  0  0  0 
 47 22  1  0  0  0  0 
 48 23  1  0  0  0  0 
 49 30  1  0  0  0  0 
 50 33  1  0  0  0  0 
 51 33  1  0  0  0  0 
 52 33  1  0  0  0  0 
 53 36  1  0  0  0  0 
 54 36  1  0  0  0  0 
M  END
> <cdk:Title>
ceftriaxone

> <Conformer>
1

> <SuperDrugID>
SD000491

$$$$
