mefexamide
  CDK     0628171801

 44 44  0  0  0  0  0  0  0  0999 V2000
    1.2951   -0.4721   -1.6685 O   0  0  0  0  0  0  0  0  0  0  0  0
    0.3691    0.3476   -0.9221 C   0  0  1  0  0  0  0  0  0  0  0  0
    2.4151    0.2281   -2.0179 C   0  0  0  0  0  0  0  0  0  0  0  0
   -0.8655   -0.4165   -0.6801 C   0  0  0  0  0  0  0  0  0  0  0  0
    3.5356    0.2675   -1.1626 C   0  0  0  0  0  0  0  0  0  0  0  0
    2.4423    0.9265   -3.2417 C   0  0  0  0  0  0  0  0  0  0  0  0
   -0.7978   -1.5722    0.0341 N   0  0  0  0  0  0  0  0  0  0  0  0
   -1.9551    0.0175   -1.1261 O   0  0  0  0  0  0  0  0  0  0  0  0
    4.6487    1.0591   -1.4990 C   0  0  0  0  0  0  0  0  0  0  0  0
    3.5540    1.7186   -3.5764 C   0  0  0  0  0  0  0  0  0  0  0  0
   -1.9163   -2.4011    0.3477 C   0  0  2  0  0  0  0  0  0  0  0  0
    4.6487    1.8119   -2.6922 C   0  0  0  0  0  0  0  0  0  0  0  0
   -1.5682   -3.4728    1.4151 C   0  0  1  0  0  0  0  0  0  0  0  0
    5.7104    2.6186   -2.9977 O   0  0  0  0  0  0  0  0  0  0  0  0
   -0.3700   -4.3584    1.1731 N   0  0  2  0  0  0  0  0  0  0  0  0
    5.5457    3.9553   -2.4881 C   0  0  0  0  0  0  0  0  0  0  0  0
   -0.4635   -5.1130   -0.1307 C   0  0  1  0  0  0  0  0  0  0  0  0
   -0.0878   -5.2613    2.3512 C   0  0  2  0  0  0  0  0  0  0  0  0
    0.7813   -5.9249   -0.5688 C   0  0  0  0  0  0  0  0  0  0  0  0
    0.2038   -4.5687    3.7068 C   0  0  0  0  0  0  0  0  0  0  0  0
    0.7970    0.6298    0.0468 H   0  0  0  0  0  0  0  0  0  0  0  0
    0.1217    1.2660   -1.4705 H   0  0  0  0  0  0  0  0  0  0  0  0
    3.5368   -0.2668   -0.2905 H   0  0  0  0  0  0  0  0  0  0  0  0
    1.6463    0.8709   -3.8814 H   0  0  0  0  0  0  0  0  0  0  0  0
    0.0795   -1.8625    0.3271 H   0  0  0  0  0  0  0  0  0  0  0  0
    5.4540    1.0979   -0.8695 H   0  0  0  0  0  0  0  0  0  0  0  0
    3.5601    2.2374   -4.4578 H   0  0  0  0  0  0  0  0  0  0  0  0
   -2.2826   -2.8680   -0.5667 H   0  0  0  0  0  0  0  0  0  0  0  0
   -2.7299   -1.7854    0.7441 H   0  0  0  0  0  0  0  0  0  0  0  0
   -1.4041   -2.8980    2.3266 H   0  0  0  0  0  0  0  0  0  0  0  0
   -2.4558   -4.0904    1.5787 H   0  0  0  0  0  0  0  0  0  0  0  0
    6.4230    4.5380   -2.7678 H   0  0  0  0  0  0  0  0  0  0  0  0
    4.6653    4.4418   -2.9173 H   0  0  0  0  0  0  0  0  0  0  0  0
    5.4692    3.9606   -1.3973 H   0  0  0  0  0  0  0  0  0  0  0  0
   -1.3227   -5.7899   -0.1142 H   0  0  0  0  0  0  0  0  0  0  0  0
   -0.6196   -4.4021   -0.9432 H   0  0  0  0  0  0  0  0  0  0  0  0
    0.8054   -5.8546    2.1503 H   0  0  0  0  0  0  0  0  0  0  0  0
   -0.9180   -5.9588    2.4982 H   0  0  0  0  0  0  0  0  0  0  0  0
    0.6338   -6.2979   -1.5858 H   0  0  0  0  0  0  0  0  0  0  0  0
    1.6712   -5.2940   -0.5597 H   0  0  0  0  0  0  0  0  0  0  0  0
    0.9456   -6.7868    0.0786 H   0  0  0  0  0  0  0  0  0  0  0  0
    0.9934   -3.8246    3.5918 H   0  0  0  0  0  0  0  0  0  0  0  0
    0.5321   -5.3124    4.4371 H   0  0  0  0  0  0  0  0  0  0  0  0
   -0.6876   -4.0857    4.1080 H   0  0  0  0  0  0  0  0  0  0  0  0
  1  2  1  0  0  0  0 
  1  3  1  0  0  0  0 
  2  4  1  0  0  0  0 
  3  5  2  0  0  0  0 
  3  6  1  0  0  0  0 
  4  7  1  0  0  0  0 
  4  8  2  0  0  0  0 
  5  9  1  0  0  0  0 
  6 10  2  0  0  0  0 
  7 11  1  0  0  0  0 
  9 12  2  0  0  0  0 
 10 12  1  0  0  0  0 
 11 13  1  0  0  0  0 
 12 14  1  0  0  0  0 
 13 15  1  0  0  0  0 
 14 16  1  0  0  0  0 
 15 17  1  0  0  0  0 
 15 18  1  0  0  0  0 
 17 19  1  0  0  0  0 
 18 20  1  0  0  0  0 
  2 21  1  0  0  0  0 
  2 22  1  0  0  0  0 
  5 23  1  0  0  0  0 
  6 24  1  0  0  0  0 
  7 25  1  0  0  0  0 
  9 26  1  0  0  0  0 
 10 27  1  0  0  0  0 
 11 28  1  0  0  0  0 
 11 29  1  0  0  0  0 
 13 30  1  0  0  0  0 
 13 31  1  0  0  0  0 
 16 32  1  0  0  0  0 
 16 33  1  0  0  0  0 
 16 34  1  0  0  0  0 
 17 35  1  0  0  0  0 
 17 36  1  0  0  0  0 
 18 37  1  0  0  0  0 
 18 38  1  0  0  0  0 
 19 39  1  0  0  0  0 
 19 40  1  0  0  0  0 
 19 41  1  0  0  0  0 
 20 42  1  0  0  0  0 
 20 43  1  0  0  0  0 
 20 44  1  0  0  0  0 
M  END
> <cdk:Title>
mefexamide

> <Conformer>
1

> <SuperDrugID>
SD003218

$$$$
