toliprolol
  CDK     0628171801

 37 37  0  0  0  0  0  0  0  0999 V2000
    0.0178   -0.2007   -0.2771 O   0  0  0  0  0  0  0  0  0  0  0  0
   -1.1634   -0.5862   -1.0129 C   0  0  1  0  0  0  0  0  0  0  0  0
   -0.1644   -0.2041    1.0805 C   0  0  0  0  0  0  0  0  0  0  0  0
   -0.9511   -0.3840   -2.5351 C   0  0  2  0  0  0  0  0  0  0  0  0
   -0.6103    0.9621    1.7361 C   0  0  0  0  0  0  0  0  0  0  0  0
    0.1256   -1.3578    1.8361 C   0  0  0  0  0  0  0  0  0  0  0  0
   -0.6044    1.0818   -2.9033 C   0  0  2  0  0  0  0  0  0  0  0  0
   -2.1423   -0.7749   -3.2176 O   0  0  0  0  0  0  0  0  0  0  0  0
   -0.7993    0.9832    3.1389 C   0  0  0  0  0  0  0  0  0  0  0  0
   -0.0418   -1.3466    3.2320 C   0  0  0  0  0  0  0  0  0  0  0  0
   -0.5001    1.2605   -4.3717 N   0  0  1  0  0  0  0  0  0  0  0  0
   -1.2698    2.2123    3.8220 C   0  0  0  0  0  0  0  0  0  0  0  0
   -0.5047   -0.1858    3.8775 C   0  0  0  0  0  0  0  0  0  0  0  0
   -0.0709    2.6070   -4.8408 C   0  0  1  0  0  0  0  0  0  0  0  0
    0.2329    2.5214   -6.3586 C   0  0  0  0  0  0  0  0  0  0  0  0
   -1.1350    3.7020   -4.5535 C   0  0  0  0  0  0  0  0  0  0  0  0
   -1.3821   -1.6422   -0.8259 H   0  0  0  0  0  0  0  0  0  0  0  0
   -2.0322    0.0061   -0.7011 H   0  0  0  0  0  0  0  0  0  0  0  0
   -0.1412   -1.0364   -2.8718 H   0  0  0  0  0  0  0  0  0  0  0  0
   -0.7954    1.8013    1.1817 H   0  0  0  0  0  0  0  0  0  0  0  0
    0.4612   -2.2045    1.3714 H   0  0  0  0  0  0  0  0  0  0  0  0
    0.3463    1.3549   -2.4385 H   0  0  0  0  0  0  0  0  0  0  0  0
   -1.3858    1.7339   -2.5096 H   0  0  0  0  0  0  0  0  0  0  0  0
   -2.2819   -1.7128   -2.9686 H   0  0  0  0  0  0  0  0  0  0  0  0
    0.1763   -2.1839    3.7782 H   0  0  0  0  0  0  0  0  0  0  0  0
    0.2051    0.5946   -4.6963 H   0  0  0  0  0  0  0  0  0  0  0  0
   -0.4069    2.8111    4.1197 H   0  0  0  0  0  0  0  0  0  0  0  0
   -1.8528    1.9697    4.7145 H   0  0  0  0  0  0  0  0  0  0  0  0
   -1.9037    2.8127    3.1648 H   0  0  0  0  0  0  0  0  0  0  0  0
   -0.6212   -0.1979    4.8945 H   0  0  0  0  0  0  0  0  0  0  0  0
    0.8620    2.8837   -4.3399 H   0  0  0  0  0  0  0  0  0  0  0  0
    1.0215    1.7904   -6.5472 H   0  0  0  0  0  0  0  0  0  0  0  0
   -0.6597    2.2242   -6.9141 H   0  0  0  0  0  0  0  0  0  0  0  0
    0.5731    3.4895   -6.7369 H   0  0  0  0  0  0  0  0  0  0  0  0
   -2.1172    3.3762   -4.9033 H   0  0  0  0  0  0  0  0  0  0  0  0
   -1.1918    3.9057   -3.4839 H   0  0  0  0  0  0  0  0  0  0  0  0
   -0.8764    4.6373   -5.0547 H   0  0  0  0  0  0  0  0  0  0  0  0
  1  2  1  0  0  0  0 
  1  3  1  0  0  0  0 
  4  2  1  0  0  0  0 
  3  5  2  0  0  0  0 
  3  6  1  0  0  0  0 
  4  7  1  0  0  0  0 
  4  8  1  0  0  0  0 
  5  9  1  0  0  0  0 
  6 10  2  0  0  0  0 
  7 11  1  0  0  0  0 
  9 12  1  0  0  0  0 
  9 13  2  0  0  0  0 
 10 13  1  0  0  0  0 
 11 14  1  0  0  0  0 
 14 15  1  0  0  0  0 
 14 16  1  0  0  0  0 
  2 17  1  0  0  0  0 
  2 18  1  0  0  0  0 
  4 19  1  0  0  0  0 
  5 20  1  0  0  0  0 
  6 21  1  0  0  0  0 
  7 22  1  0  0  0  0 
  7 23  1  0  0  0  0 
  8 24  1  0  0  0  0 
 10 25  1  0  0  0  0 
 11 26  1  0  0  0  0 
 12 27  1  0  0  0  0 
 12 28  1  0  0  0  0 
 12 29  1  0  0  0  0 
 13 30  1  0  0  0  0 
 14 31  1  0  0  0  0 
 15 32  1  0  0  0  0 
 15 33  1  0  0  0  0 
 15 34  1  0  0  0  0 
 16 35  1  0  0  0  0 
 16 36  1  0  0  0  0 
 16 37  1  0  0  0  0 
M  END
> <cdk:Title>
toliprolol

> <Conformer>
1

> <SuperDrugID>
SD003097

$$$$
