furtrethonium
  CDK     0628171801

 24 24  0  0  0  0  0  0  0  0999 V2000
    0.3279    1.9934    3.6428 C   0  0  0  0  0  0  0  0  0  0  0  0
    1.8386    2.0567    3.6419 N   0  0  1  0  0  0  0  0  0  0  0  0
    2.2823    3.4464    3.2450 C   0  0  0  0  0  0  0  0  0  0  0  0
    2.3246    1.7840    5.0496 C   0  0  0  0  0  0  0  0  0  0  0  0
    2.4300    1.0065    2.7126 C   0  0  2  0  0  0  0  0  0  0  0  0
    2.0089    1.0601    1.2919 C   0  0  0  0  0  0  0  0  0  0  0  0
    1.2169    0.1226    0.6317 C   0  0  0  0  0  0  0  0  0  0  0  0
    1.0621    0.5615   -0.6719 C   0  0  0  0  0  0  0  0  0  0  0  0
    1.7709    1.7502   -0.7766 C   0  0  0  0  0  0  0  0  0  0  0  0
    2.3423    2.0422    0.4156 O   0  0  0  0  0  0  0  0  0  0  0  0
   -0.1049    2.7229    4.3332 H   0  0  0  0  0  0  0  0  0  0  0  0
   -0.0857    2.2074    2.6546 H   0  0  0  0  0  0  0  0  0  0  0  0
   -0.0320    1.0050    3.9399 H   0  0  0  0  0  0  0  0  0  0  0  0
    1.8376    3.7559    2.2974 H   0  0  0  0  0  0  0  0  0  0  0  0
    3.3702    3.5019    3.1358 H   0  0  0  0  0  0  0  0  0  0  0  0
    1.9862    4.1922    3.9899 H   0  0  0  0  0  0  0  0  0  0  0  0
    1.9239    2.5072    5.7660 H   0  0  0  0  0  0  0  0  0  0  0  0
    3.4145    1.8341    5.1133 H   0  0  0  0  0  0  0  0  0  0  0  0
    2.0225    0.7912    5.3960 H   0  0  0  0  0  0  0  0  0  0  0  0
    2.1873    0.0079    3.0902 H   0  0  0  0  0  0  0  0  0  0  0  0
    3.5229    1.0726    2.7147 H   0  0  0  0  0  0  0  0  0  0  0  0
    0.8211   -0.7282    1.0331 H   0  0  0  0  0  0  0  0  0  0  0  0
    0.5301    0.1012   -1.4094 H   0  0  0  0  0  0  0  0  0  0  0  0
    1.8467    2.3186   -1.6221 H   0  0  0  0  0  0  0  0  0  0  0  0
  1  2  1  0  0  0  0 
  2  3  1  0  0  0  0 
  2  4  1  0  0  0  0 
  2  5  1  0  0  0  0 
  5  6  1  0  0  0  0 
  6  7  2  0  0  0  0 
  7  8  1  0  0  0  0 
  8  9  2  0  0  0  0 
  9 10  1  0  0  0  0 
  6 10  1  0  0  0  0 
  1 11  1  0  0  0  0 
  1 12  1  0  0  0  0 
  1 13  1  0  0  0  0 
  3 14  1  0  0  0  0 
  3 15  1  0  0  0  0 
  3 16  1  0  0  0  0 
  4 17  1  0  0  0  0 
  4 18  1  0  0  0  0 
  4 19  1  0  0  0  0 
  5 20  1  0  0  0  0 
  5 21  1  0  0  0  0 
  7 22  1  0  0  0  0 
  8 23  1  0  0  0  0 
  9 24  1  0  0  0  0 
M  CHG  1   2   1
M  END
> <cdk:Title>
furtrethonium

> <Conformer>
1

> <SuperDrugID>
SD002814

$$$$
