valaciclovir
  CDK     0628171801

 43 44  0  0  0  0  0  0  0  0999 V2000
   -7.9640   -0.0927    3.2253 C   0  0  0  0  0  0  0  0  0  0  0  0
   -7.0187   -0.7249    2.1628 C   0  0  2  0  0  0  0  0  0  0  0  0
   -7.8194   -1.0537    0.8703 C   0  0  0  0  0  0  0  0  0  0  0  0
   -6.2697   -1.9866    2.7090 C   0  0  2  0  0  0  0  0  0  0  0  0
   -5.6321   -1.7211    4.0084 N   0  0  1  0  0  0  0  0  0  0  0  0
   -5.1946   -2.4760    1.8178 C   0  0  0  0  0  0  0  0  0  0  0  0
   -5.2101   -3.6640    1.4141 O   0  0  0  0  0  0  0  0  0  0  0  0
   -4.1913   -1.6196    1.4588 O   0  0  0  0  0  0  0  0  0  0  0  0
   -2.9997   -1.9564    0.7360 C   0  0  1  0  0  0  0  0  0  0  0  0
   -2.1579   -0.6933    0.4253 C   0  0  2  0  0  0  0  0  0  0  0  0
   -0.7484   -0.9760    0.5613 O   0  0  0  0  0  0  0  0  0  0  0  0
    0.1339    0.0613    0.0846 C   0  0  2  0  0  0  0  0  0  0  0  0
    1.4387   -0.1342    0.6385 N   0  0  0  0  0  0  0  0  0  0  0  0
    2.5845   -0.4321   -0.0169 C   0  0  0  0  0  0  0  0  0  0  0  0
    3.6286   -0.5338    0.8305 N   0  0  0  0  0  0  0  0  0  0  0  0
    3.1253   -0.2885    2.0487 C   0  0  0  0  0  0  0  0  0  0  0  0
    1.7626   -0.0392    1.9363 C   0  0  0  0  0  0  0  0  0  0  0  0
    1.0072    0.2541    3.0245 N   0  0  0  0  0  0  0  0  0  0  0  0
    1.5950    0.3100    4.2498 C   0  0  0  0  0  0  0  0  0  0  0  0
    0.8504    0.6248    5.3206 N   0  0  0  0  0  0  0  0  0  0  0  0
    2.9302    0.0616    4.3903 N   0  0  0  0  0  0  0  0  0  0  0  0
    3.7192   -0.2408    3.3200 C   0  0  0  0  0  0  0  0  0  0  0  0
    4.9395   -0.4668    3.4787 O   0  0  0  0  0  0  0  0  0  0  0  0
   -8.5152    0.7499    2.8025 H   0  0  0  0  0  0  0  0  0  0  0  0
   -8.6804   -0.8314    3.5893 H   0  0  0  0  0  0  0  0  0  0  0  0
   -7.3906    0.2844    4.0745 H   0  0  0  0  0  0  0  0  0  0  0  0
   -6.2742    0.0361    1.9076 H   0  0  0  0  0  0  0  0  0  0  0  0
   -7.1570   -1.4363    0.0923 H   0  0  0  0  0  0  0  0  0  0  0  0
   -8.5849   -1.8042    1.0783 H   0  0  0  0  0  0  0  0  0  0  0  0
   -8.3058   -0.1563    0.4830 H   0  0  0  0  0  0  0  0  0  0  0  0
   -7.0000   -2.7842    2.8789 H   0  0  0  0  0  0  0  0  0  0  0  0
   -5.1565   -2.5796    4.2972 H   0  0  0  0  0  0  0  0  0  0  0  0
   -4.9083   -1.0143    3.8602 H   0  0  0  0  0  0  0  0  0  0  0  0
   -2.4215   -2.6401    1.3616 H   0  0  0  0  0  0  0  0  0  0  0  0
   -3.2540   -2.4709   -0.1945 H   0  0  0  0  0  0  0  0  0  0  0  0
   -2.4227    0.1004    1.1287 H   0  0  0  0  0  0  0  0  0  0  0  0
   -2.3895   -0.3475   -0.5867 H   0  0  0  0  0  0  0  0  0  0  0  0
   -0.2144    1.0557    0.3803 H   0  0  0  0  0  0  0  0  0  0  0  0
    0.1681    0.0213   -1.0072 H   0  0  0  0  0  0  0  0  0  0  0  0
    2.6644   -0.5693   -1.0275 H   0  0  0  0  0  0  0  0  0  0  0  0
    1.2596    0.6871    6.1968 H   0  0  0  0  0  0  0  0  0  0  0  0
   -0.0979    0.8014    5.2194 H   0  0  0  0  0  0  0  0  0  0  0  0
    3.3281    0.1002    5.2748 H   0  0  0  0  0  0  0  0  0  0  0  0
  1  2  1  0  0  0  0 
  2  3  1  0  0  0  0 
  4  2  1  0  0  0  0 
  4  5  1  0  0  0  0 
  4  6  1  0  0  0  0 
  6  7  2  0  0  0  0 
  6  8  1  0  0  0  0 
  8  9  1  0  0  0  0 
  9 10  1  0  0  0  0 
 10 11  1  0  0  0  0 
 11 12  1  0  0  0  0 
 12 13  1  0  0  0  0 
 13 14  1  0  0  0  0 
 14 15  2  0  0  0  0 
 15 16  1  0  0  0  0 
 16 17  2  0  0  0  0 
 13 17  1  0  0  0  0 
 17 18  1  0  0  0  0 
 18 19  2  0  0  0  0 
 19 20  1  0  0  0  0 
 19 21  1  0  0  0  0 
 21 22  1  0  0  0  0 
 16 22  1  0  0  0  0 
 22 23  2  0  0  0  0 
 24  1  1  0  0  0  0 
 25  1  1  0  0  0  0 
 26  1  1  0  0  0  0 
 27  2  1  0  0  0  0 
 28  3  1  0  0  0  0 
 29  3  1  0  0  0  0 
 30  3  1  0  0  0  0 
  4 31  1  0  0  0  0 
 32  5  1  0  0  0  0 
 33  5  1  0  0  0  0 
 34  9  1  0  0  0  0 
 35  9  1  0  0  0  0 
 36 10  1  0  0  0  0 
 37 10  1  0  0  0  0 
 38 12  1  0  0  0  0 
 39 12  1  0  0  0  0 
 40 14  1  0  0  0  0 
 41 20  1  0  0  0  0 
 42 20  1  0  0  0  0 
 43 21  1  0  0  0  0 
M  END
> <cdk:Title>
valaciclovir

> <Conformer>
1

> <SuperDrugID>
SD002523

$$$$
