verapamil
  CDK     0628171801

 71 72  0  0  0  0  0  0  0  0999 V2000
   -1.7261   -0.0872    0.3841 C   0  0  2  0  0  0  0  0  0  0  0  0
   -2.7112    0.0834   -0.8575 C   0  0  2  0  0  0  0  0  0  0  0  0
   -2.0254    1.0041    1.5163 C   0  0  2  0  0  0  0  0  0  0  0  0
   -0.4558    0.1484   -0.1305 C   0  0  0  0  0  0  0  0  0  0  0  0
   -1.6991   -1.4644    1.0559 C   0  0  0  0  0  0  0  0  0  0  0  0
   -2.3859   -0.5484   -2.2555 C   0  0  2  0  0  0  0  0  0  0  0  0
   -3.4471    0.8817    2.1470 C   0  0  0  0  0  0  0  0  0  0  0  0
   -1.8029    2.5050    1.1264 C   0  0  0  0  0  0  0  0  0  0  0  0
    0.5939    0.3485   -0.5514 N   0  0  0  0  0  0  0  0  0  0  0  0
   -0.6263   -1.8602    1.9125 C   0  0  0  0  0  0  0  0  0  0  0  0
   -2.7549   -2.4059    0.9250 C   0  0  0  0  0  0  0  0  0  0  0  0
   -2.3797   -2.0961   -2.3481 C   0  0  1  0  0  0  0  0  0  0  0  0
   -0.5596   -3.1346    2.5141 C   0  0  0  0  0  0  0  0  0  0  0  0
   -2.6928   -3.6898    1.4927 C   0  0  0  0  0  0  0  0  0  0  0  0
   -2.2155   -2.5888   -3.7640 N   0  0  2  0  0  0  0  0  0  0  0  0
    0.5191   -3.4607    3.2967 O   0  0  0  0  0  0  0  0  0  0  0  0
   -1.5838   -4.0717    2.2649 C   0  0  0  0  0  0  0  0  0  0  0  0
   -3.5057   -2.6088   -4.5424 C   0  0  2  0  0  0  0  0  0  0  0  0
   -1.4683   -3.8820   -3.8295 C   0  0  0  0  0  0  0  0  0  0  0  0
    0.2920   -3.2550    4.7035 C   0  0  0  0  0  0  0  0  0  0  0  0
   -1.5498   -5.3377    2.7841 O   0  0  0  0  0  0  0  0  0  0  0  0
   -3.3551   -2.8431   -6.0753 C   0  0  1  0  0  0  0  0  0  0  0  0
   -0.7766   -6.2548    1.9886 C   0  0  0  0  0  0  0  0  0  0  0  0
   -4.6232   -2.6225   -6.8286 C   0  0  0  0  0  0  0  0  0  0  0  0
   -5.7569   -3.4317   -6.5762 C   0  0  0  0  0  0  0  0  0  0  0  0
   -4.7258   -1.6104   -7.8118 C   0  0  0  0  0  0  0  0  0  0  0  0
   -6.9736   -3.2106   -7.2528 C   0  0  0  0  0  0  0  0  0  0  0  0
   -5.9309   -1.4012   -8.5063 C   0  0  0  0  0  0  0  0  0  0  0  0
   -8.0564   -3.9982   -6.9675 O   0  0  0  0  0  0  0  0  0  0  0  0
   -7.0584   -2.1987   -8.2338 C   0  0  0  0  0  0  0  0  0  0  0  0
   -8.9171   -3.4253   -5.9667 C   0  0  0  0  0  0  0  0  0  0  0  0
   -8.2366   -1.9590   -8.8889 O   0  0  0  0  0  0  0  0  0  0  0  0
   -8.3863   -2.7269  -10.0950 C   0  0  0  0  0  0  0  0  0  0  0  0
   -2.7974    1.1491   -1.0758 H   0  0  0  0  0  0  0  0  0  0  0  0
   -3.7222   -0.2192   -0.5857 H   0  0  0  0  0  0  0  0  0  0  0  0
   -1.3259    0.8360    2.3451 H   0  0  0  0  0  0  0  0  0  0  0  0
   -1.4224   -0.1819   -2.6167 H   0  0  0  0  0  0  0  0  0  0  0  0
   -3.1376   -0.1628   -2.9462 H   0  0  0  0  0  0  0  0  0  0  0  0
   -4.2192    1.1072    1.4096 H   0  0  0  0  0  0  0  0  0  0  0  0
   -3.5584    1.5821    2.9790 H   0  0  0  0  0  0  0  0  0  0  0  0
   -3.6208   -0.1193    2.5414 H   0  0  0  0  0  0  0  0  0  0  0  0
   -0.8219    2.6649    0.6805 H   0  0  0  0  0  0  0  0  0  0  0  0
   -1.8544    3.1392    2.0147 H   0  0  0  0  0  0  0  0  0  0  0  0
   -2.5614    2.8549    0.4261 H   0  0  0  0  0  0  0  0  0  0  0  0
    0.1401   -1.2119    2.1059 H   0  0  0  0  0  0  0  0  0  0  0  0
   -3.6037   -2.1781    0.4142 H   0  0  0  0  0  0  0  0  0  0  0  0
   -1.5531   -2.4350   -1.7175 H   0  0  0  0  0  0  0  0  0  0  0  0
   -3.3008   -2.5004   -1.9224 H   0  0  0  0  0  0  0  0  0  0  0  0
   -3.4609   -4.3488    1.3426 H   0  0  0  0  0  0  0  0  0  0  0  0
   -4.0109   -1.6477   -4.4220 H   0  0  0  0  0  0  0  0  0  0  0  0
   -4.1627   -3.3762   -4.1226 H   0  0  0  0  0  0  0  0  0  0  0  0
   -0.5336   -3.8229   -3.2688 H   0  0  0  0  0  0  0  0  0  0  0  0
   -1.1925   -4.1131   -4.8564 H   0  0  0  0  0  0  0  0  0  0  0  0
   -2.0653   -4.7050   -3.4291 H   0  0  0  0  0  0  0  0  0  0  0  0
    1.2079   -3.5157    5.2348 H   0  0  0  0  0  0  0  0  0  0  0  0
    0.0577   -2.2097    4.9253 H   0  0  0  0  0  0  0  0  0  0  0  0
   -0.5084   -3.8992    5.0774 H   0  0  0  0  0  0  0  0  0  0  0  0
   -2.5645   -2.1804   -6.4412 H   0  0  0  0  0  0  0  0  0  0  0  0
   -3.0357   -3.8699   -6.2652 H   0  0  0  0  0  0  0  0  0  0  0  0
   -0.9385   -7.2595    2.3808 H   0  0  0  0  0  0  0  0  0  0  0  0
   -1.0798   -6.2484    0.9368 H   0  0  0  0  0  0  0  0  0  0  0  0
    0.2896   -6.0271    2.0625 H   0  0  0  0  0  0  0  0  0  0  0  0
   -5.7057   -4.1883   -5.8889 H   0  0  0  0  0  0  0  0  0  0  0  0
   -3.9218   -1.0179   -8.0320 H   0  0  0  0  0  0  0  0  0  0  0  0
   -5.9855   -0.6653   -9.2127 H   0  0  0  0  0  0  0  0  0  0  0  0
   -9.7573   -4.1022   -5.8100 H   0  0  0  0  0  0  0  0  0  0  0  0
   -8.3948   -3.3046   -5.0145 H   0  0  0  0  0  0  0  0  0  0  0  0
   -9.3170   -2.4603   -6.2877 H   0  0  0  0  0  0  0  0  0  0  0  0
   -9.3494   -2.4740  -10.5393 H   0  0  0  0  0  0  0  0  0  0  0  0
   -7.6040   -2.4860  -10.8189 H   0  0  0  0  0  0  0  0  0  0  0  0
   -8.3788   -3.8005   -9.8903 H   0  0  0  0  0  0  0  0  0  0  0  0
  1  2  1  0  0  0  0 
  1  3  1  0  0  0  0 
  1  4  1  0  0  0  0 
  1  5  1  0  0  0  0 
  2  6  1  0  0  0  0 
  3  7  1  0  0  0  0 
  3  8  1  0  0  0  0 
  4  9  3  0  0  0  0 
  5 10  2  0  0  0  0 
  5 11  1  0  0  0  0 
  6 12  1  0  0  0  0 
 10 13  1  0  0  0  0 
 11 14  2  0  0  0  0 
 12 15  1  0  0  0  0 
 13 16  1  0  0  0  0 
 13 17  2  0  0  0  0 
 14 17  1  0  0  0  0 
 15 18  1  0  0  0  0 
 15 19  1  0  0  0  0 
 16 20  1  0  0  0  0 
 17 21  1  0  0  0  0 
 18 22  1  0  0  0  0 
 21 23  1  0  0  0  0 
 22 24  1  0  0  0  0 
 24 25  2  0  0  0  0 
 24 26  1  0  0  0  0 
 25 27  1  0  0  0  0 
 26 28  2  0  0  0  0 
 27 29  1  0  0  0  0 
 27 30  2  0  0  0  0 
 28 30  1  0  0  0  0 
 29 31  1  0  0  0  0 
 30 32  1  0  0  0  0 
 32 33  1  0  0  0  0 
  2 34  1  0  0  0  0 
  2 35  1  0  0  0  0 
  3 36  1  0  0  0  0 
  6 37  1  0  0  0  0 
  6 38  1  0  0  0  0 
  7 39  1  0  0  0  0 
  7 40  1  0  0  0  0 
  7 41  1  0  0  0  0 
  8 42  1  0  0  0  0 
  8 43  1  0  0  0  0 
  8 44  1  0  0  0  0 
 10 45  1  0  0  0  0 
 11 46  1  0  0  0  0 
 12 47  1  0  0  0  0 
 12 48  1  0  0  0  0 
 14 49  1  0  0  0  0 
 18 50  1  0  0  0  0 
 18 51  1  0  0  0  0 
 19 52  1  0  0  0  0 
 19 53  1  0  0  0  0 
 19 54  1  0  0  0  0 
 20 55  1  0  0  0  0 
 20 56  1  0  0  0  0 
 20 57  1  0  0  0  0 
 22 58  1  0  0  0  0 
 22 59  1  0  0  0  0 
 23 60  1  0  0  0  0 
 23 61  1  0  0  0  0 
 23 62  1  0  0  0  0 
 25 63  1  0  0  0  0 
 26 64  1  0  0  0  0 
 28 65  1  0  0  0  0 
 31 66  1  0  0  0  0 
 31 67  1  0  0  0  0 
 31 68  1  0  0  0  0 
 33 69  1  0  0  0  0 
 33 70  1  0  0  0  0 
 33 71  1  0  0  0  0 
M  END
> <cdk:Title>
verapamil

> <Conformer>
1

> <SuperDrugID>
SD002540

$$$$
