beclabuvir
  CDK     0628171802

 92 99  0  0  0  0  0  0  0  0999 V2000
    2.4835    1.4187   -0.7931 C   0  0  1  0  0  0  0  0  0  0  0  0
    3.1695    2.2734   -1.8900 C   0  0  2  0  0  0  0  0  0  0  0  0
    3.6956    3.6353   -1.6079 C   0  0  0  0  0  0  0  0  0  0  0  0
    4.3866    3.9627   -0.4071 C   0  0  0  0  0  0  0  0  0  0  0  0
    4.6802    2.9967    0.6027 C   0  0  0  0  0  0  0  0  0  0  0  0
    3.7623    2.1413    1.1262 N   0  0  0  0  0  0  0  0  0  0  0  0
    2.4126    2.0088    0.6475 C   0  0  2  0  0  0  0  0  0  0  0  0
    3.5007    4.6066   -2.6212 C   0  0  0  0  0  0  0  0  0  0  0  0
    3.9561    5.9384   -2.5014 C   0  0  0  0  0  0  0  0  0  0  0  0
    4.5700    6.3740   -1.3160 C   0  0  0  0  0  0  0  0  0  0  0  0
    4.7731    5.3569   -0.2626 C   0  0  0  0  0  0  0  0  0  0  0  0
    5.9526    2.7011    1.1316 C   0  0  0  0  0  0  0  0  0  0  0  0
    5.7352    1.6789    2.0668 C   0  0  0  0  0  0  0  0  0  0  0  0
    4.3706    1.3829    2.0614 C   0  0  0  0  0  0  0  0  0  0  0  0
    6.6109    0.9305    2.8788 C   0  0  0  0  0  0  0  0  0  0  0  0
    6.0912   -0.0935    3.6946 C   0  0  0  0  0  0  0  0  0  0  0  0
    4.7028   -0.3938    3.7246 C   0  0  0  0  0  0  0  0  0  0  0  0
    3.8458    0.3674    2.8880 C   0  0  0  0  0  0  0  0  0  0  0  0
    1.6367    2.1513   -1.8593 C   0  0  2  0  0  0  0  0  0  0  0  0
    3.7789    6.8203   -3.5328 O   0  0  0  0  0  0  0  0  0  0  0  0
    4.7199    6.6304   -4.6080 C   0  0  0  0  0  0  0  0  0  0  0  0
    2.5024   -0.0617   -0.9605 C   0  0  0  0  0  0  0  0  0  0  0  0
    3.6154   -0.8430   -1.2284 N   0  0  0  0  0  0  0  0  0  0  0  0
    4.9979   -0.4601   -1.2204 C   0  0  1  0  0  0  0  0  0  0  0  0
    5.7226   -1.2564   -0.0882 C   0  0  2  0  0  0  0  0  0  0  0  0
    5.5346   -2.7361   -0.2158 N   0  0  2  0  0  0  0  0  0  0  0  0
    4.1338   -3.1297   -0.5740 C   0  0  1  0  0  0  0  0  0  0  0  0
    3.5597   -2.2032   -1.6917 C   0  0  2  0  0  0  0  0  0  0  0  0
    4.4684   -2.1030   -2.9448 C   0  0  1  0  0  0  0  0  0  0  0  0
    5.4177   -0.9191   -2.6374 C   0  0  2  0  0  0  0  0  0  0  0  0
    6.1031   -3.5008    0.9313 C   0  0  0  0  0  0  0  0  0  0  0  0
    1.3793   -0.6124   -0.8654 O   0  0  0  0  0  0  0  0  0  0  0  0
    3.6032    1.7430   -2.7430 H   0  0  0  0  0  0  0  0  0  0  0  0
    7.2556    3.2667    0.6469 C   0  0  2  0  0  0  0  0  0  0  0  0
    8.0037    2.2283   -0.2400 C   0  0  1  0  0  0  0  0  0  0  0  0
    9.3002    2.8266   -0.8494 C   0  0  2  0  0  0  0  0  0  0  0  0
   10.2361    3.3895    0.2505 C   0  0  2  0  0  0  0  0  0  0  0  0
    9.5016    4.4187    1.1532 C   0  0  1  0  0  0  0  0  0  0  0  0
    8.1782    3.8649    1.7522 C   0  0  1  0  0  0  0  0  0  0  0  0
    4.1991   -1.4492    4.5461 C   0  0  0  0  0  0  0  0  0  0  0  0
    4.9969   -2.1834    5.1772 O   0  0  0  0  0  0  0  0  0  0  0  0
    2.8623   -1.6800    4.6778 N   0  0  0  0  0  0  0  0  0  0  0  0
    2.1434   -2.8936    5.6511 S   0  0  1  0  0  0  0  0  0  0  0  0
    1.8514   -2.2634    7.2820 N   0  0  2  0  0  0  0  0  0  0  0  0
    0.9115   -1.1118    7.2698 C   0  0  0  0  0  0  0  0  0  0  0  0
    3.1209   -1.9643    7.9926 C   0  0  0  0  0  0  0  0  0  0  0  0
    0.7448   -3.3086    4.9855 O   0  0  0  0  0  0  0  0  0  0  0  0
    3.0690   -4.2011    5.7194 O   0  0  0  0  0  0  0  0  0  0  0  0
    1.7892    1.3581    1.2629 H   0  0  0  0  0  0  0  0  0  0  0  0
    1.9367    2.9932    0.6684 H   0  0  0  0  0  0  0  0  0  0  0  0
    3.0171    4.3392   -3.4840 H   0  0  0  0  0  0  0  0  0  0  0  0
    4.8692    7.3431   -1.1873 H   0  0  0  0  0  0  0  0  0  0  0  0
    5.2300    5.5663    0.6856 H   0  0  0  0  0  0  0  0  0  0  0  0
    7.6156    1.0924    2.8751 H   0  0  0  0  0  0  0  0  0  0  0  0
    6.7517   -0.6309    4.2615 H   0  0  0  0  0  0  0  0  0  0  0  0
    2.8479    0.1698    2.8565 H   0  0  0  0  0  0  0  0  0  0  0  0
    1.0809    3.0357   -1.5350 H   0  0  0  0  0  0  0  0  0  0  0  0
    1.2155    1.5517   -2.6701 H   0  0  0  0  0  0  0  0  0  0  0  0
    4.5046    7.3745   -5.3765 H   0  0  0  0  0  0  0  0  0  0  0  0
    5.7496    6.7749   -4.2700 H   0  0  0  0  0  0  0  0  0  0  0  0
    4.6243    5.6395   -5.0628 H   0  0  0  0  0  0  0  0  0  0  0  0
    5.1778    0.6055   -1.0853 H   0  0  0  0  0  0  0  0  0  0  0  0
    5.3321   -0.9296    0.8712 H   0  0  0  0  0  0  0  0  0  0  0  0
    6.7912   -1.0321   -0.1107 H   0  0  0  0  0  0  0  0  0  0  0  0
    4.1240   -4.1626   -0.9293 H   0  0  0  0  0  0  0  0  0  0  0  0
    3.4794   -3.0721    0.3015 H   0  0  0  0  0  0  0  0  0  0  0  0
    2.5577   -2.5372   -1.9768 H   0  0  0  0  0  0  0  0  0  0  0  0
    5.0248   -3.0269   -3.1252 H   0  0  0  0  0  0  0  0  0  0  0  0
    3.8625   -1.8771   -3.8283 H   0  0  0  0  0  0  0  0  0  0  0  0
    6.4673   -1.2182   -2.6834 H   0  0  0  0  0  0  0  0  0  0  0  0
    5.2562   -0.1099   -3.3560 H   0  0  0  0  0  0  0  0  0  0  0  0
    5.5840   -3.2602    1.8630 H   0  0  0  0  0  0  0  0  0  0  0  0
    7.1610   -3.2650    1.0517 H   0  0  0  0  0  0  0  0  0  0  0  0
    6.0298   -4.5764    0.7534 H   0  0  0  0  0  0  0  0  0  0  0  0
    7.0453    4.1011   -0.0223 H   0  0  0  0  0  0  0  0  0  0  0  0
    8.2575    1.3467    0.3562 H   0  0  0  0  0  0  0  0  0  0  0  0
    7.3534    1.9106   -1.0638 H   0  0  0  0  0  0  0  0  0  0  0  0
    9.0423    3.6307   -1.5465 H   0  0  0  0  0  0  0  0  0  0  0  0
    9.8256    2.0533   -1.4158 H   0  0  0  0  0  0  0  0  0  0  0  0
   11.0892    3.8803   -0.2255 H   0  0  0  0  0  0  0  0  0  0  0  0
   10.6236    2.5660    0.8591 H   0  0  0  0  0  0  0  0  0  0  0  0
   10.1675    4.7207    1.9661 H   0  0  0  0  0  0  0  0  0  0  0  0
    9.2733    5.3076    0.5588 H   0  0  0  0  0  0  0  0  0  0  0  0
    7.6520    4.6739    2.2705 H   0  0  0  0  0  0  0  0  0  0  0  0
    8.4368    3.1130    2.4942 H   0  0  0  0  0  0  0  0  0  0  0  0
    2.2507   -1.0988    4.2040 H   0  0  0  0  0  0  0  0  0  0  0  0
    1.3140   -0.2739    6.6952 H   0  0  0  0  0  0  0  0  0  0  0  0
    0.7154   -0.7715    8.2891 H   0  0  0  0  0  0  0  0  0  0  0  0
   -0.0455   -1.4087    6.8369 H   0  0  0  0  0  0  0  0  0  0  0  0
    3.6637   -1.1475    7.5114 H   0  0  0  0  0  0  0  0  0  0  0  0
    3.7602   -2.8484    8.0132 H   0  0  0  0  0  0  0  0  0  0  0  0
    2.9171   -1.6870    9.0291 H   0  0  0  0  0  0  0  0  0  0  0  0
  1  2  1  0  0  0  0 
  7  1  1  0  0  0  0 
  2  3  1  0  0  0  0 
  4  5  1  0  0  0  0 
  5  6  1  0  0  0  0 
  6  7  1  0  0  0  0 
  8  9  1  0  0  0  0 
  9 10  2  0  0  0  0 
 10 11  1  0  0  0  0 
  3  8  2  0  0  0  0 
  4 11  2  0  0  0  0 
  4  3  1  0  0  0  0 
 12 13  1  0  0  0  0 
  5 12  2  0  0  0  0 
  6 14  1  0  0  0  0 
 15 16  1  0  0  0  0 
 16 17  2  0  0  0  0 
 17 18  1  0  0  0  0 
 13 15  2  0  0  0  0 
 14 18  2  0  0  0  0 
 14 13  1  0  0  0  0 
 19  1  1  0  0  0  0 
  2 19  1  0  0  0  0 
  9 20  1  0  0  0  0 
 20 21  1  0  0  0  0 
  1 22  1  0  0  0  0 
 22 23  1  0  0  0  0 
 24 25  1  0  0  0  0 
 25 26  1  0  0  0  0 
 26 27  1  0  0  0  0 
 27 28  1  0  0  0  0 
 23 24  1  0  0  0  0 
 23 28  1  0  0  0  0 
 28 29  1  0  0  0  0 
 24 30  1  0  0  0  0 
 29 30  1  0  0  0  0 
 26 31  1  0  0  0  0 
 22 32  2  0  0  0  0 
  2 33  1  0  0  0  0 
 12 34  1  0  0  0  0 
 35 36  1  0  0  0  0 
 36 37  1  0  0  0  0 
 37 38  1  0  0  0  0 
 38 39  1  0  0  0  0 
 34 35  1  0  0  0  0 
 34 39  1  0  0  0  0 
 17 40  1  0  0  0  0 
 40 41  2  0  0  0  0 
 40 42  1  0  0  0  0 
 42 43  1  0  0  0  0 
 43 44  1  0  0  0  0 
 44 45  1  0  0  0  0 
 44 46  1  0  0  0  0 
 43 47  2  0  0  0  0 
 43 48  2  0  0  0  0 
  7 49  1  0  0  0  0 
  7 50  1  0  0  0  0 
  8 51  1  0  0  0  0 
 10 52  1  0  0  0  0 
 11 53  1  0  0  0  0 
 15 54  1  0  0  0  0 
 16 55  1  0  0  0  0 
 18 56  1  0  0  0  0 
 19 57  1  0  0  0  0 
 19 58  1  0  0  0  0 
 21 59  1  0  0  0  0 
 21 60  1  0  0  0  0 
 21 61  1  0  0  0  0 
 24 62  1  0  0  0  0 
 25 63  1  0  0  0  0 
 25 64  1  0  0  0  0 
 27 65  1  0  0  0  0 
 27 66  1  0  0  0  0 
 28 67  1  0  0  0  0 
 29 68  1  0  0  0  0 
 29 69  1  0  0  0  0 
 30 70  1  0  0  0  0 
 30 71  1  0  0  0  0 
 31 72  1  0  0  0  0 
 31 73  1  0  0  0  0 
 31 74  1  0  0  0  0 
 34 75  1  0  0  0  0 
 35 76  1  0  0  0  0 
 35 77  1  0  0  0  0 
 36 78  1  0  0  0  0 
 36 79  1  0  0  0  0 
 37 80  1  0  0  0  0 
 37 81  1  0  0  0  0 
 38 82  1  0  0  0  0 
 38 83  1  0  0  0  0 
 39 84  1  0  0  0  0 
 39 85  1  0  0  0  0 
 42 86  1  0  0  0  0 
 45 87  1  0  0  0  0 
 45 88  1  0  0  0  0 
 45 89  1  0  0  0  0 
 46 90  1  0  0  0  0 
 46 91  1  0  0  0  0 
 46 92  1  0  0  0  0 
M  END
> <cdk:Title>
beclabuvir

> <Conformer>
1

> <SuperDrugID>
SD003943

$$$$
