flubendazole
  CDK     0628171801

 35 37  0  0  0  0  0  0  0  0999 V2000
    0.5014   -0.2751   -0.3103 C   0  0  0  0  0  0  0  0  0  0  0  0
   -0.1908    0.2076    0.6197 O   0  0  0  0  0  0  0  0  0  0  0  0
   -0.1114   -1.2900   -1.1016 C   0  0  0  0  0  0  0  0  0  0  0  0
    1.8168    0.2489   -0.5057 C   0  0  0  0  0  0  0  0  0  0  0  0
   -1.4895   -1.1806   -1.4331 C   0  0  0  0  0  0  0  0  0  0  0  0
    0.6169   -2.4264   -1.5575 C   0  0  0  0  0  0  0  0  0  0  0  0
    2.5289    0.8147    0.5833 C   0  0  0  0  0  0  0  0  0  0  0  0
    2.4366    0.2690   -1.7823 C   0  0  0  0  0  0  0  0  0  0  0  0
   -2.0880   -2.1867   -2.2063 C   0  0  0  0  0  0  0  0  0  0  0  0
   -0.0072   -3.4387   -2.3207 C   0  0  0  0  0  0  0  0  0  0  0  0
    3.8124    1.3619    0.4089 C   0  0  0  0  0  0  0  0  0  0  0  0
    3.7249    0.8115   -1.9560 C   0  0  0  0  0  0  0  0  0  0  0  0
   -1.3659   -3.2898   -2.6410 C   0  0  0  0  0  0  0  0  0  0  0  0
   -3.3331   -2.3242   -2.6742 N   0  0  0  0  0  0  0  0  0  0  0  0
    4.4165    1.3559   -0.8596 C   0  0  0  0  0  0  0  0  0  0  0  0
   -2.1795   -4.0767   -3.3603 N   0  0  0  0  0  0  0  0  0  0  0  0
   -3.3872   -3.4674   -3.3822 C   0  0  0  0  0  0  0  0  0  0  0  0
    5.6099    1.8601   -1.0186 F   0  0  0  0  0  0  0  0  0  0  0  0
   -4.5175   -3.8962   -4.0008 N   0  0  0  0  0  0  0  0  0  0  0  0
   -4.6634   -5.0394   -4.7173 C   0  0  0  0  0  0  0  0  0  0  0  0
   -5.9075   -5.3075   -5.2116 O   0  0  0  0  0  0  0  0  0  0  0  0
   -3.7158   -5.8366   -4.9182 O   0  0  0  0  0  0  0  0  0  0  0  0
   -6.2792   -6.4579   -5.9824 C   0  0  0  0  0  0  0  0  0  0  0  0
   -2.0465   -0.3766   -1.1327 H   0  0  0  0  0  0  0  0  0  0  0  0
    1.6094   -2.5324   -1.3300 H   0  0  0  0  0  0  0  0  0  0  0  0
    2.1182    0.8374    1.5212 H   0  0  0  0  0  0  0  0  0  0  0  0
    1.9510   -0.0961   -2.6056 H   0  0  0  0  0  0  0  0  0  0  0  0
    0.5131   -4.2623   -2.6341 H   0  0  0  0  0  0  0  0  0  0  0  0
    4.3014    1.7673    1.2095 H   0  0  0  0  0  0  0  0  0  0  0  0
    4.1553    0.8161   -2.8835 H   0  0  0  0  0  0  0  0  0  0  0  0
   -4.0683   -1.7080   -2.5319 H   0  0  0  0  0  0  0  0  0  0  0  0
   -5.3024   -3.3326   -3.9176 H   0  0  0  0  0  0  0  0  0  0  0  0
   -7.3432   -6.4098   -6.2232 H   0  0  0  0  0  0  0  0  0  0  0  0
   -6.0885   -7.3704   -5.4138 H   0  0  0  0  0  0  0  0  0  0  0  0
   -5.7065   -6.4843   -6.9111 H   0  0  0  0  0  0  0  0  0  0  0  0
  1  2  2  0  0  0  0 
  1  3  1  0  0  0  0 
  1  4  1  0  0  0  0 
  3  5  1  0  0  0  0 
  3  6  2  0  0  0  0 
  4  7  2  0  0  0  0 
  4  8  1  0  0  0  0 
  5  9  2  0  0  0  0 
  6 10  1  0  0  0  0 
  7 11  1  0  0  0  0 
  8 12  2  0  0  0  0 
  9 13  1  0  0  0  0 
  9 14  1  0  0  0  0 
 10 13  2  0  0  0  0 
 11 15  2  0  0  0  0 
 12 15  1  0  0  0  0 
 13 16  1  0  0  0  0 
 14 17  1  0  0  0  0 
 15 18  1  0  0  0  0 
 16 17  2  0  0  0  0 
 17 19  1  0  0  0  0 
 19 20  1  0  0  0  0 
 20 21  1  0  0  0  0 
 20 22  2  0  0  0  0 
 21 23  1  0  0  0  0 
 24  5  1  0  0  0  0 
 25  6  1  0  0  0  0 
 26  7  1  0  0  0  0 
 27  8  1  0  0  0  0 
 28 10  1  0  0  0  0 
 29 11  1  0  0  0  0 
 30 12  1  0  0  0  0 
 31 14  1  0  0  0  0 
 32 19  1  0  0  0  0 
 33 23  1  0  0  0  0 
 34 23  1  0  0  0  0 
 35 23  1  0  0  0  0 
M  END
> <cdk:Title>
flubendazole

> <Conformer>
1

> <SuperDrugID>
SD001061

$$$$
