mosapramine
  CDK     0628171801

 69 74  0  0  0  0  0  0  0  0999 V2000
   -4.7608    2.7808    3.5947 O   0  0  0  0  0  0  0  0  0  0  0  0
   -5.6184    1.9897    3.1399 C   0  0  0  0  0  0  0  0  0  0  0  0
   -5.3699    0.9403    2.1242 C   0  0  1  0  0  0  0  0  0  0  0  0
   -6.8939    2.0347    3.5350 N   0  0  0  0  0  0  0  0  0  0  0  0
   -6.6961    0.2501    2.1825 N   0  0  0  0  0  0  0  0  0  0  0  0
   -5.0492    1.5821    0.7275 C   0  0  2  0  0  0  0  0  0  0  0  0
   -4.2671   -0.0676    2.5945 C   0  0  1  0  0  0  0  0  0  0  0  0
   -7.7022    1.0763    2.8933 C   0  0  2  0  0  0  0  0  0  0  0  0
   -7.1852   -0.7064    1.1452 C   0  0  2  0  0  0  0  0  0  0  0  0
   -3.5622    1.9969    0.5744 C   0  0  1  0  0  0  0  0  0  0  0  0
   -2.8176    0.4147    2.3041 C   0  0  1  0  0  0  0  0  0  0  0  0
   -8.7286    1.7380    1.9346 C   0  0  1  0  0  0  0  0  0  0  0  0
   -8.2053   -0.0511    0.1793 C   0  0  2  0  0  0  0  0  0  0  0  0
   -2.6259    0.8715    0.8885 N   0  0  1  0  0  0  0  0  0  0  0  0
   -9.3201    0.6972    0.9527 C   0  0  2  0  0  0  0  0  0  0  0  0
   -2.5646   -0.2030   -0.1673 C   0  0  2  0  0  0  0  0  0  0  0  0
   -1.2850   -1.0801   -0.1357 C   0  0  2  0  0  0  0  0  0  0  0  0
    0.0358   -0.2654   -0.2535 C   0  0  1  0  0  0  0  0  0  0  0  0
    1.2631   -1.0519   -0.1919 N   0  0  0  0  0  0  0  0  0  0  0  0
    2.3267   -0.8225   -1.0555 C   0  0  0  0  0  0  0  0  0  0  0  0
    1.3969   -1.9859    0.8085 C   0  0  0  0  0  0  0  0  0  0  0  0
    3.0719   -1.8507   -1.7202 C   0  0  0  0  0  0  0  0  0  0  0  0
    2.7235    0.5283   -1.2475 C   0  0  0  0  0  0  0  0  0  0  0  0
    1.4807   -3.3661    0.4966 C   0  0  0  0  0  0  0  0  0  0  0  0
    1.3944   -1.5767    2.1630 C   0  0  0  0  0  0  0  0  0  0  0  0
    2.8056   -3.3236   -1.6253 C   0  0  2  0  0  0  0  0  0  0  0  0
    4.1712   -1.4806   -2.5369 C   0  0  0  0  0  0  0  0  0  0  0  0
    3.7998    0.8754   -2.0803 C   0  0  0  0  0  0  0  0  0  0  0  0
    1.5075   -3.7917   -0.9244 C   0  0  1  0  0  0  0  0  0  0  0  0
    1.5334   -4.3146    1.5446 C   0  0  0  0  0  0  0  0  0  0  0  0
    1.4325   -2.5284    3.1947 C   0  0  0  0  0  0  0  0  0  0  0  0
    4.5273   -0.1351   -2.7252 C   0  0  0  0  0  0  0  0  0  0  0  0
    4.2254    2.5026   -2.2881 Cl  0  0  0  0  0  0  0  0  0  0  0  0
    1.4910   -3.8969    2.8864 C   0  0  0  0  0  0  0  0  0  0  0  0
   -7.2313    2.6632    4.1915 H   0  0  0  0  0  0  0  0  0  0  0  0
   -5.6824    2.4558    0.5472 H   0  0  0  0  0  0  0  0  0  0  0  0
   -5.2596    0.8684   -0.0681 H   0  0  0  0  0  0  0  0  0  0  0  0
   -4.3695   -0.2703    3.6655 H   0  0  0  0  0  0  0  0  0  0  0  0
   -4.4107   -1.0214    2.0857 H   0  0  0  0  0  0  0  0  0  0  0  0
   -8.2154    0.4680    3.6431 H   0  0  0  0  0  0  0  0  0  0  0  0
   -7.6704   -1.5402    1.6581 H   0  0  0  0  0  0  0  0  0  0  0  0
   -6.3562   -1.1266    0.5711 H   0  0  0  0  0  0  0  0  0  0  0  0
   -3.3912    2.3633   -0.4414 H   0  0  0  0  0  0  0  0  0  0  0  0
   -3.3503    2.8380    1.2402 H   0  0  0  0  0  0  0  0  0  0  0  0
   -2.5751    1.2451    2.9741 H   0  0  0  0  0  0  0  0  0  0  0  0
   -2.1162   -0.3821    2.5578 H   0  0  0  0  0  0  0  0  0  0  0  0
   -9.5390    2.1895    2.5127 H   0  0  0  0  0  0  0  0  0  0  0  0
   -8.2430    2.5321    1.3603 H   0  0  0  0  0  0  0  0  0  0  0  0
   -8.6610   -0.8194   -0.4500 H   0  0  0  0  0  0  0  0  0  0  0  0
   -7.6854    0.6515   -0.4757 H   0  0  0  0  0  0  0  0  0  0  0  0
   -9.9710    1.2073    0.2388 H   0  0  0  0  0  0  0  0  0  0  0  0
   -9.9271   -0.0246    1.5072 H   0  0  0  0  0  0  0  0  0  0  0  0
   -2.6074    0.2475   -1.1632 H   0  0  0  0  0  0  0  0  0  0  0  0
   -3.4294   -0.8653   -0.0877 H   0  0  0  0  0  0  0  0  0  0  0  0
   -1.3307   -1.7943   -0.9624 H   0  0  0  0  0  0  0  0  0  0  0  0
   -1.2898   -1.6580    0.7881 H   0  0  0  0  0  0  0  0  0  0  0  0
   -0.0160    0.2909   -1.1953 H   0  0  0  0  0  0  0  0  0  0  0  0
    0.0631    0.4731    0.5524 H   0  0  0  0  0  0  0  0  0  0  0  0
    2.2302    1.2810   -0.7593 H   0  0  0  0  0  0  0  0  0  0  0  0
    1.3568   -0.5828    2.4019 H   0  0  0  0  0  0  0  0  0  0  0  0
    3.6577   -3.7906   -1.1180 H   0  0  0  0  0  0  0  0  0  0  0  0
    2.7703   -3.7364   -2.6394 H   0  0  0  0  0  0  0  0  0  0  0  0
    4.7326   -2.1953   -3.0116 H   0  0  0  0  0  0  0  0  0  0  0  0
    1.4394   -4.8806   -1.0085 H   0  0  0  0  0  0  0  0  0  0  0  0
    0.6417   -3.3817   -1.4502 H   0  0  0  0  0  0  0  0  0  0  0  0
    1.6031   -5.3147    1.3420 H   0  0  0  0  0  0  0  0  0  0  0  0
    1.4173   -2.2227    4.1691 H   0  0  0  0  0  0  0  0  0  0  0  0
    5.3191    0.1015   -3.3276 H   0  0  0  0  0  0  0  0  0  0  0  0
    1.5074   -4.5907    3.6364 H   0  0  0  0  0  0  0  0  0  0  0  0
  1  2  2  0  0  0  0 
  2  3  1  0  0  0  0 
  2  4  1  0  0  0  0 
  3  5  1  0  0  0  0 
  3  6  1  0  0  0  0 
  3  7  1  0  0  0  0 
  4  8  1  0  0  0  0 
  5  8  1  0  0  0  0 
  5  9  1  0  0  0  0 
  6 10  1  0  0  0  0 
  7 11  1  0  0  0  0 
  8 12  1  0  0  0  0 
  9 13  1  0  0  0  0 
 10 14  1  0  0  0  0 
 11 14  1  0  0  0  0 
 12 15  1  0  0  0  0 
 13 15  1  0  0  0  0 
 14 16  1  0  0  0  0 
 16 17  1  0  0  0  0 
 17 18  1  0  0  0  0 
 18 19  1  0  0  0  0 
 19 20  1  0  0  0  0 
 19 21  1  0  0  0  0 
 20 22  2  0  0  0  0 
 20 23  1  0  0  0  0 
 21 24  2  0  0  0  0 
 21 25  1  0  0  0  0 
 22 26  1  0  0  0  0 
 22 27  1  0  0  0  0 
 23 28  2  0  0  0  0 
 24 29  1  0  0  0  0 
 24 30  1  0  0  0  0 
 25 31  2  0  0  0  0 
 26 29  1  0  0  0  0 
 27 32  2  0  0  0  0 
 28 32  1  0  0  0  0 
 28 33  1  0  0  0  0 
 30 34  2  0  0  0  0 
 31 34  1  0  0  0  0 
  4 35  1  0  0  0  0 
  6 36  1  0  0  0  0 
  6 37  1  0  0  0  0 
  7 38  1  0  0  0  0 
  7 39  1  0  0  0  0 
  8 40  1  0  0  0  0 
  9 41  1  0  0  0  0 
  9 42  1  0  0  0  0 
 10 43  1  0  0  0  0 
 10 44  1  0  0  0  0 
 11 45  1  0  0  0  0 
 11 46  1  0  0  0  0 
 12 47  1  0  0  0  0 
 12 48  1  0  0  0  0 
 13 49  1  0  0  0  0 
 13 50  1  0  0  0  0 
 15 51  1  0  0  0  0 
 15 52  1  0  0  0  0 
 16 53  1  0  0  0  0 
 16 54  1  0  0  0  0 
 17 55  1  0  0  0  0 
 17 56  1  0  0  0  0 
 18 57  1  0  0  0  0 
 18 58  1  0  0  0  0 
 23 59  1  0  0  0  0 
 25 60  1  0  0  0  0 
 26 61  1  0  0  0  0 
 26 62  1  0  0  0  0 
 27 63  1  0  0  0  0 
 29 64  1  0  0  0  0 
 29 65  1  0  0  0  0 
 30 66  1  0  0  0  0 
 31 67  1  0  0  0  0 
 32 68  1  0  0  0  0 
 34 69  1  0  0  0  0 
M  END
> <cdk:Title>
mosapramine

> <Conformer>
1

> <SuperDrugID>
SD001644

$$$$
