sulfaguanidine
  CDK     0628171801

 24 24  0  0  0  0  0  0  0  0999 V2000
   -0.7254   -2.3773    0.9051 S   0  0  1  0  0  0  0  0  0  0  0  0
    0.2462   -1.2996   -0.0164 N   0  0  0  0  0  0  0  0  0  0  0  0
    0.0645   -3.7657    1.0604 O   0  0  0  0  0  0  0  0  0  0  0  0
   -0.9312   -1.7422    2.3649 O   0  0  0  0  0  0  0  0  0  0  0  0
   -2.3066   -2.6119    0.1391 C   0  0  0  0  0  0  0  0  0  0  0  0
    0.4304   -1.3631   -1.3290 C   0  0  0  0  0  0  0  0  0  0  0  0
   -3.1250   -1.5009   -0.1600 C   0  0  0  0  0  0  0  0  0  0  0  0
   -2.7552   -3.9086   -0.1835 C   0  0  0  0  0  0  0  0  0  0  0  0
    1.1071   -0.4288   -1.8766 N   0  0  0  0  0  0  0  0  0  0  0  0
   -0.0315   -2.3280   -2.1018 N   0  0  0  0  0  0  0  0  0  0  0  0
   -4.3722   -1.6849   -0.7876 C   0  0  0  0  0  0  0  0  0  0  0  0
   -3.9953   -4.0943   -0.8177 C   0  0  0  0  0  0  0  0  0  0  0  0
   -4.8083   -2.9837   -1.1204 C   0  0  0  0  0  0  0  0  0  0  0  0
   -5.9951   -3.1734   -1.7263 N   0  0  0  0  0  0  0  0  0  0  0  0
    0.7011   -0.5894    0.4664 H   0  0  0  0  0  0  0  0  0  0  0  0
   -2.8189   -0.5524    0.0773 H   0  0  0  0  0  0  0  0  0  0  0  0
   -2.1861   -4.7260    0.0379 H   0  0  0  0  0  0  0  0  0  0  0  0
    1.2639   -0.4296   -2.7989 H   0  0  0  0  0  0  0  0  0  0  0  0
   -0.5374   -3.0630   -1.7240 H   0  0  0  0  0  0  0  0  0  0  0  0
    0.1458   -2.3116   -3.0563 H   0  0  0  0  0  0  0  0  0  0  0  0
   -4.9542   -0.8709   -0.9985 H   0  0  0  0  0  0  0  0  0  0  0  0
   -4.2991   -5.0428   -1.0532 H   0  0  0  0  0  0  0  0  0  0  0  0
   -6.2841   -4.0710   -1.9553 H   0  0  0  0  0  0  0  0  0  0  0  0
   -6.5606   -2.4162   -1.9412 H   0  0  0  0  0  0  0  0  0  0  0  0
  1  2  1  0  0  0  0 
  1  3  2  0  0  0  0 
  1  4  2  0  0  0  0 
  1  5  1  0  0  0  0 
  2  6  1  0  0  0  0 
  5  7  2  0  0  0  0 
  5  8  1  0  0  0  0 
  6  9  2  0  0  0  0 
  6 10  1  0  0  0  0 
  7 11  1  0  0  0  0 
  8 12  2  0  0  0  0 
 11 13  2  0  0  0  0 
 12 13  1  0  0  0  0 
 13 14  1  0  0  0  0 
  2 15  1  0  0  0  0 
  7 16  1  0  0  0  0 
  8 17  1  0  0  0  0 
  9 18  1  0  0  0  0 
 10 19  1  0  0  0  0 
 10 20  1  0  0  0  0 
 11 21  1  0  0  0  0 
 12 22  1  0  0  0  0 
 14 23  1  0  0  0  0 
 14 24  1  0  0  0  0 
M  END
> <cdk:Title>
sulfaguanidine

> <Conformer>
1

> <SuperDrugID>
SD002252

$$$$
