nepafenac
  CDK     0628171801

 33 34  0  0  0  0  0  0  0  0999 V2000
   -1.4185   -7.0630   -2.6575 N   0  0  0  0  0  0  0  0  0  0  0  0
   -0.6604   -6.9442   -1.5522 C   0  0  0  0  0  0  0  0  0  0  0  0
    0.5320   -7.3198   -1.6194 O   0  0  0  0  0  0  0  0  0  0  0  0
   -1.2101   -6.4074   -0.2863 C   0  0  2  0  0  0  0  0  0  0  0  0
   -1.5795   -4.9587   -0.3642 C   0  0  0  0  0  0  0  0  0  0  0  0
   -0.6077   -3.9308   -0.5378 C   0  0  0  0  0  0  0  0  0  0  0  0
    0.6991   -4.2642   -0.6722 N   0  0  0  0  0  0  0  0  0  0  0  0
   -0.9974   -2.5603   -0.5838 C   0  0  0  0  0  0  0  0  0  0  0  0
   -2.3719   -2.2409   -0.4844 C   0  0  0  0  0  0  0  0  0  0  0  0
   -3.3343   -3.2456   -0.3093 C   0  0  0  0  0  0  0  0  0  0  0  0
   -2.9402   -4.5905   -0.2431 C   0  0  0  0  0  0  0  0  0  0  0  0
   -0.0647   -1.4881   -0.7179 C   0  0  0  0  0  0  0  0  0  0  0  0
   -0.3057   -0.6268   -1.5982 O   0  0  0  0  0  0  0  0  0  0  0  0
    1.1056   -1.3385    0.0901 C   0  0  0  0  0  0  0  0  0  0  0  0
    1.1722   -1.8680    1.4047 C   0  0  0  0  0  0  0  0  0  0  0  0
    2.3398   -1.7463    2.1800 C   0  0  0  0  0  0  0  0  0  0  0  0
    3.4605   -1.0769    1.6618 C   0  0  0  0  0  0  0  0  0  0  0  0
    3.4097   -0.5242    0.3713 C   0  0  0  0  0  0  0  0  0  0  0  0
    2.2427   -0.6528   -0.4059 C   0  0  0  0  0  0  0  0  0  0  0  0
   -1.0306   -7.4190   -3.4732 H   0  0  0  0  0  0  0  0  0  0  0  0
   -2.3530   -6.8047   -2.6399 H   0  0  0  0  0  0  0  0  0  0  0  0
   -0.4811   -6.5270    0.5199 H   0  0  0  0  0  0  0  0  0  0  0  0
   -2.0674   -7.0293   -0.0145 H   0  0  0  0  0  0  0  0  0  0  0  0
    0.9838   -5.1842   -0.5729 H   0  0  0  0  0  0  0  0  0  0  0  0
    1.3600   -3.5832   -0.8699 H   0  0  0  0  0  0  0  0  0  0  0  0
   -2.6890   -1.2668   -0.5236 H   0  0  0  0  0  0  0  0  0  0  0  0
   -4.3236   -2.9971   -0.2220 H   0  0  0  0  0  0  0  0  0  0  0  0
   -3.6637   -5.3008   -0.1032 H   0  0  0  0  0  0  0  0  0  0  0  0
    0.3691   -2.3487    1.8180 H   0  0  0  0  0  0  0  0  0  0  0  0
    2.3733   -2.1450    3.1211 H   0  0  0  0  0  0  0  0  0  0  0  0
    4.3114   -0.9918    2.2229 H   0  0  0  0  0  0  0  0  0  0  0  0
    4.2231   -0.0320   -0.0045 H   0  0  0  0  0  0  0  0  0  0  0  0
    2.2381   -0.2475   -1.3456 H   0  0  0  0  0  0  0  0  0  0  0  0
  1  2  1  0  0  0  0 
  2  3  2  0  0  0  0 
  2  4  1  0  0  0  0 
  4  5  1  0  0  0  0 
  5  6  2  0  0  0  0 
  6  7  1  0  0  0  0 
  6  8  1  0  0  0  0 
  8  9  2  0  0  0  0 
  9 10  1  0  0  0  0 
 10 11  2  0  0  0  0 
  5 11  1  0  0  0  0 
  8 12  1  0  0  0  0 
 12 13  2  0  0  0  0 
 12 14  1  0  0  0  0 
 14 15  2  0  0  0  0 
 15 16  1  0  0  0  0 
 16 17  2  0  0  0  0 
 17 18  1  0  0  0  0 
 18 19  2  0  0  0  0 
 14 19  1  0  0  0  0 
  1 20  1  0  0  0  0 
  1 21  1  0  0  0  0 
  4 22  1  0  0  0  0 
  4 23  1  0  0  0  0 
  7 24  1  0  0  0  0 
  7 25  1  0  0  0  0 
  9 26  1  0  0  0  0 
 10 27  1  0  0  0  0 
 11 28  1  0  0  0  0 
 15 29  1  0  0  0  0 
 16 30  1  0  0  0  0 
 17 31  1  0  0  0  0 
 18 32  1  0  0  0  0 
 19 33  1  0  0  0  0 
M  END
> <cdk:Title>
nepafenac

> <Conformer>
1

> <SuperDrugID>
SD001694

$$$$
