ftivazide
  CDK     0628171801

 33 34  0  0  0  0  0  0  0  0999 V2000
    0.8885    4.8489    7.7344 C   0  0  0  0  0  0  0  0  0  0  0  0
    1.4894    3.6380    7.6254 N   0  0  0  0  0  0  0  0  0  0  0  0
    1.5987    2.9895    6.4401 C   0  0  0  0  0  0  0  0  0  0  0  0
    1.0803    3.5732    5.2697 C   0  0  0  0  0  0  0  0  0  0  0  0
    0.4366    4.8341    5.3307 C   0  0  0  0  0  0  0  0  0  0  0  0
    0.3495    5.4732    6.5937 C   0  0  0  0  0  0  0  0  0  0  0  0
   -0.1190    5.4317    4.1658 C   0  0  0  0  0  0  0  0  0  0  0  0
    0.3971    5.1789    2.9302 N   0  0  0  0  0  0  0  0  0  0  0  0
   -1.0922    6.2156    4.2770 O   0  0  0  0  0  0  0  0  0  0  0  0
   -0.0793    5.6610    1.8563 N   0  0  0  0  0  0  0  0  0  0  0  0
   -0.8195    5.0121    1.0301 C   0  0  0  0  0  0  0  0  0  0  0  0
   -1.3038    5.5910   -0.1390 C   0  0  0  0  0  0  0  0  0  0  0  0
   -1.4094    6.9943   -0.3134 C   0  0  0  0  0  0  0  0  0  0  0  0
   -1.8976    7.5407   -1.5142 C   0  0  0  0  0  0  0  0  0  0  0  0
   -2.2879    6.6943   -2.5687 C   0  0  0  0  0  0  0  0  0  0  0  0
   -2.1999    5.2960   -2.4154 C   0  0  0  0  0  0  0  0  0  0  0  0
   -1.7070    4.7572   -1.2105 C   0  0  0  0  0  0  0  0  0  0  0  0
   -2.7428    7.2139   -3.7371 O   0  0  0  0  0  0  0  0  0  0  0  0
   -2.5579    4.4613   -3.4400 O   0  0  0  0  0  0  0  0  0  0  0  0
   -3.9122    3.9911   -3.3328 C   0  0  0  0  0  0  0  0  0  0  0  0
    0.8321    5.3012    8.6478 H   0  0  0  0  0  0  0  0  0  0  0  0
    2.0563    2.0766    6.4043 H   0  0  0  0  0  0  0  0  0  0  0  0
    1.1651    3.0645    4.3870 H   0  0  0  0  0  0  0  0  0  0  0  0
   -0.0952    6.3897    6.6932 H   0  0  0  0  0  0  0  0  0  0  0  0
    1.1833    4.6156    2.8598 H   0  0  0  0  0  0  0  0  0  0  0  0
   -1.0300    4.0558    1.2201 H   0  0  0  0  0  0  0  0  0  0  0  0
   -1.1340    7.6345    0.4337 H   0  0  0  0  0  0  0  0  0  0  0  0
   -1.9627    8.5561   -1.6201 H   0  0  0  0  0  0  0  0  0  0  0  0
   -1.6377    3.7401   -1.1260 H   0  0  0  0  0  0  0  0  0  0  0  0
   -2.4961    8.1629   -3.7234 H   0  0  0  0  0  0  0  0  0  0  0  0
   -4.1230    3.3745   -4.2074 H   0  0  0  0  0  0  0  0  0  0  0  0
   -4.0526    3.3721   -2.4421 H   0  0  0  0  0  0  0  0  0  0  0  0
   -4.6270    4.8187   -3.3206 H   0  0  0  0  0  0  0  0  0  0  0  0
  1  2  2  0  0  0  0 
  2  3  1  0  0  0  0 
  3  4  2  0  0  0  0 
  4  5  1  0  0  0  0 
  5  6  2  0  0  0  0 
  1  6  1  0  0  0  0 
  5  7  1  0  0  0  0 
  7  8  1  0  0  0  0 
  7  9  2  0  0  0  0 
 10  8  1  0  0  0  0 
 11 12  1  0  0  0  0 
 13 14  1  0  0  0  0 
 14 15  2  0  0  0  0 
 15 16  1  0  0  0  0 
 16 17  2  0  0  0  0 
 12 13  2  0  0  0  0 
 12 17  1  0  0  0  0 
 15 18  1  0  0  0  0 
 16 19  1  0  0  0  0 
 19 20  1  0  0  0  0 
 10 11  2  0  0  0  0 
  1 21  1  0  0  0  0 
  3 22  1  0  0  0  0 
  4 23  1  0  0  0  0 
  6 24  1  0  0  0  0 
  8 25  1  0  0  0  0 
 11 26  1  0  0  0  0 
 13 27  1  0  0  0  0 
 14 28  1  0  0  0  0 
 17 29  1  0  0  0  0 
 18 30  1  0  0  0  0 
 20 31  1  0  0  0  0 
 20 32  1  0  0  0  0 
 20 33  1  0  0  0  0 
M  END
> <cdk:Title>
ftivazide

> <Conformer>
1

> <SuperDrugID>
SD001123

$$$$
