trichloroacetic acid
  CDK     0628171801

  8  7  0  0  0  0  0  0  0  0999 V2000
    1.1035   -0.3110    0.4529 O   0  0  0  0  0  0  0  0  0  0  0  0
   -0.1224    0.1872    0.1621 C   0  0  0  0  0  0  0  0  0  0  0  0
   -0.2700    1.4290    0.2301 O   0  0  0  0  0  0  0  0  0  0  0  0
   -1.2210   -0.7253   -0.2214 C   0  0  1  0  0  0  0  0  0  0  0  0
   -0.7728   -1.6169   -1.6712 Cl  0  0  0  0  0  0  0  0  0  0  0  0
   -1.5178   -1.8783    1.0743 Cl  0  0  0  0  0  0  0  0  0  0  0  0
   -2.7482    0.0904   -0.5557 Cl  0  0  0  0  0  0  0  0  0  0  0  0
    1.8351    0.2909    0.7010 H   0  0  0  0  0  0  0  0  0  0  0  0
  1  2  1  0  0  0  0 
  2  3  2  0  0  0  0 
  2  4  1  0  0  0  0 
  4  5  1  0  0  0  0 
  4  6  1  0  0  0  0 
  4  7  1  0  0  0  0 
  1  8  1  0  0  0  0 
M  END
> <cdk:Title>
trichloroacetic acid

> <Conformer>
1

> <SuperDrugID>
SD003107

$$$$
