glycyclamide
  CDK     0628171801

 40 41  0  0  0  0  0  0  0  0999 V2000
   -0.6987   -4.5852    1.0929 S   0  0  2  0  0  0  0  0  0  0  0  0
   -1.6377   -3.1528    0.9263 N   0  0  0  0  0  0  0  0  0  0  0  0
   -0.8640   -5.1037    2.6039 O   0  0  0  0  0  0  0  0  0  0  0  0
    0.8424   -4.2018    0.8606 O   0  0  0  0  0  0  0  0  0  0  0  0
   -1.2380   -5.8438   -0.0324 C   0  0  0  0  0  0  0  0  0  0  0  0
   -2.4050   -2.8208   -0.1434 C   0  0  0  0  0  0  0  0  0  0  0  0
   -0.4268   -6.2388   -1.1149 C   0  0  0  0  0  0  0  0  0  0  0  0
   -2.5290   -6.3951    0.1027 C   0  0  0  0  0  0  0  0  0  0  0  0
   -3.1363   -1.6810   -0.0418 N   0  0  0  0  0  0  0  0  0  0  0  0
   -2.4716   -3.5343   -1.1716 O   0  0  0  0  0  0  0  0  0  0  0  0
   -0.9220   -7.1342   -2.0800 C   0  0  0  0  0  0  0  0  0  0  0  0
   -3.0259   -7.2865   -0.8662 C   0  0  0  0  0  0  0  0  0  0  0  0
   -4.1049   -1.2153   -0.9957 C   0  0  2  0  0  0  0  0  0  0  0  0
   -2.2311   -7.6579   -1.9749 C   0  0  0  0  0  0  0  0  0  0  0  0
   -3.4555   -0.6646   -2.3021 C   0  0  1  0  0  0  0  0  0  0  0  0
   -4.9850   -0.1271   -0.3155 C   0  0  2  0  0  0  0  0  0  0  0  0
   -2.7408   -8.5702   -3.0236 C   0  0  0  0  0  0  0  0  0  0  0  0
   -4.5090   -0.0601   -3.2725 C   0  0  2  0  0  0  0  0  0  0  0  0
   -6.0514    0.4468   -1.2854 C   0  0  2  0  0  0  0  0  0  0  0  0
   -5.4045    1.0016   -2.5807 C   0  0  2  0  0  0  0  0  0  0  0  0
   -1.6290   -2.5337    1.6738 H   0  0  0  0  0  0  0  0  0  0  0  0
    0.5174   -5.8630   -1.2214 H   0  0  0  0  0  0  0  0  0  0  0  0
   -3.1234   -6.1306    0.8915 H   0  0  0  0  0  0  0  0  0  0  0  0
   -3.0091   -1.1494    0.7616 H   0  0  0  0  0  0  0  0  0  0  0  0
   -0.3233   -7.3928   -2.8689 H   0  0  0  0  0  0  0  0  0  0  0  0
   -3.9752   -7.6540   -0.7588 H   0  0  0  0  0  0  0  0  0  0  0  0
   -4.7619   -2.0533   -1.2557 H   0  0  0  0  0  0  0  0  0  0  0  0
   -2.7218    0.1057   -2.0476 H   0  0  0  0  0  0  0  0  0  0  0  0
   -2.9308   -1.4715   -2.8210 H   0  0  0  0  0  0  0  0  0  0  0  0
   -4.3493    0.6890    0.0382 H   0  0  0  0  0  0  0  0  0  0  0  0
   -5.4911   -0.5535    0.5547 H   0  0  0  0  0  0  0  0  0  0  0  0
   -2.1261   -9.4717   -3.0571 H   0  0  0  0  0  0  0  0  0  0  0  0
   -3.7780   -8.8645   -2.8460 H   0  0  0  0  0  0  0  0  0  0  0  0
   -2.6912   -8.0718   -3.9934 H   0  0  0  0  0  0  0  0  0  0  0  0
   -5.1415   -0.8606   -3.6677 H   0  0  0  0  0  0  0  0  0  0  0  0
   -3.9978    0.4055   -4.1189 H   0  0  0  0  0  0  0  0  0  0  0  0
   -6.6018    1.2481   -0.7855 H   0  0  0  0  0  0  0  0  0  0  0  0
   -6.7675   -0.3387   -1.5446 H   0  0  0  0  0  0  0  0  0  0  0  0
   -6.1917    1.3169   -3.2724 H   0  0  0  0  0  0  0  0  0  0  0  0
   -4.8022    1.8820   -2.3370 H   0  0  0  0  0  0  0  0  0  0  0  0
  1  2  1  0  0  0  0 
  1  3  2  0  0  0  0 
  1  4  2  0  0  0  0 
  1  5  1  0  0  0  0 
  2  6  1  0  0  0  0 
  5  7  2  0  0  0  0 
  5  8  1  0  0  0  0 
  6  9  1  0  0  0  0 
  6 10  2  0  0  0  0 
  7 11  1  0  0  0  0 
  8 12  2  0  0  0  0 
  9 13  1  0  0  0  0 
 11 14  2  0  0  0  0 
 12 14  1  0  0  0  0 
 13 15  1  0  0  0  0 
 13 16  1  0  0  0  0 
 14 17  1  0  0  0  0 
 15 18  1  0  0  0  0 
 16 19  1  0  0  0  0 
 18 20  1  0  0  0  0 
 19 20  1  0  0  0  0 
  2 21  1  0  0  0  0 
  7 22  1  0  0  0  0 
  8 23  1  0  0  0  0 
  9 24  1  0  0  0  0 
 11 25  1  0  0  0  0 
 12 26  1  0  0  0  0 
 13 27  1  0  0  0  0 
 15 28  1  0  0  0  0 
 15 29  1  0  0  0  0 
 16 30  1  0  0  0  0 
 16 31  1  0  0  0  0 
 17 32  1  0  0  0  0 
 17 33  1  0  0  0  0 
 17 34  1  0  0  0  0 
 18 35  1  0  0  0  0 
 18 36  1  0  0  0  0 
 19 37  1  0  0  0  0 
 19 38  1  0  0  0  0 
 20 39  1  0  0  0  0 
 20 40  1  0  0  0  0 
M  END
> <cdk:Title>
glycyclamide

> <Conformer>
1

> <SuperDrugID>
SD001176

$$$$
