revaprazan
  CDK     0628171801

 50 53  0  0  0  0  0  0  0  0999 V2000
   -1.8932    5.2647   -1.5515 C   0  0  0  0  0  0  0  0  0  0  0  0
   -2.3538    5.3393   -2.8757 C   0  0  0  0  0  0  0  0  0  0  0  0
   -2.0107    4.3352   -3.7976 C   0  0  0  0  0  0  0  0  0  0  0  0
   -1.1828    3.2546   -3.4104 C   0  0  0  0  0  0  0  0  0  0  0  0
   -0.7007    3.1821   -2.0720 C   0  0  0  0  0  0  0  0  0  0  0  0
   -1.0845    4.1875   -1.1507 C   0  0  0  0  0  0  0  0  0  0  0  0
   -0.8409    2.2058   -4.4089 C   0  0  2  0  0  0  0  0  0  0  0  0
    0.4202    1.4007   -4.0226 C   0  0  2  0  0  0  0  0  0  0  0  0
    0.3608    1.0259   -2.6293 N   0  0  0  0  0  0  0  0  0  0  0  0
    0.2152    2.0778   -1.6318 C   0  0  1  0  0  0  0  0  0  0  0  0
    0.5395   -0.2885   -2.2647 C   0  0  0  0  0  0  0  0  0  0  0  0
   -0.3847   -1.0732   -1.5151 C   0  0  0  0  0  0  0  0  0  0  0  0
    0.0630   -2.3606   -1.1008 C   0  0  0  0  0  0  0  0  0  0  0  0
    1.2653   -2.8234   -1.5334 N   0  0  0  0  0  0  0  0  0  0  0  0
    2.0793   -2.1097   -2.3415 C   0  0  0  0  0  0  0  0  0  0  0  0
    1.7139   -0.8461   -2.6633 N   0  0  0  0  0  0  0  0  0  0  0  0
    3.2321   -2.6866   -2.7689 N   0  0  0  0  0  0  0  0  0  0  0  0
    3.8761   -2.4949   -3.9604 C   0  0  0  0  0  0  0  0  0  0  0  0
    3.2644   -1.9682   -5.1256 C   0  0  0  0  0  0  0  0  0  0  0  0
    3.9864   -1.8610   -6.3284 C   0  0  0  0  0  0  0  0  0  0  0  0
    5.3228   -2.2941   -6.3917 C   0  0  0  0  0  0  0  0  0  0  0  0
    5.9447   -2.8133   -5.2428 C   0  0  0  0  0  0  0  0  0  0  0  0
    5.2234   -2.9123   -4.0385 C   0  0  0  0  0  0  0  0  0  0  0  0
    5.9806   -2.2269   -7.5155 F   0  0  0  0  0  0  0  0  0  0  0  0
   -0.7157   -3.2589   -0.2153 C   0  0  0  0  0  0  0  0  0  0  0  0
   -1.7638   -0.6064   -1.1978 C   0  0  0  0  0  0  0  0  0  0  0  0
    1.6137    2.6386   -1.2425 C   0  0  0  0  0  0  0  0  0  0  0  0
   -2.1432    5.9952   -0.8829 H   0  0  0  0  0  0  0  0  0  0  0  0
   -2.9390    6.1249   -3.1691 H   0  0  0  0  0  0  0  0  0  0  0  0
   -2.3618    4.4022   -4.7578 H   0  0  0  0  0  0  0  0  0  0  0  0
   -0.7701    4.1453   -0.1785 H   0  0  0  0  0  0  0  0  0  0  0  0
   -0.6660    2.6578   -5.3904 H   0  0  0  0  0  0  0  0  0  0  0  0
   -1.6904    1.5239   -4.4988 H   0  0  0  0  0  0  0  0  0  0  0  0
    1.3054    2.0214   -4.1896 H   0  0  0  0  0  0  0  0  0  0  0  0
    0.4989    0.5382   -4.6910 H   0  0  0  0  0  0  0  0  0  0  0  0
   -0.2112    1.6564   -0.7159 H   0  0  0  0  0  0  0  0  0  0  0  0
    3.6317   -3.3345   -2.1661 H   0  0  0  0  0  0  0  0  0  0  0  0
    2.2842   -1.6771   -5.1220 H   0  0  0  0  0  0  0  0  0  0  0  0
    3.5311   -1.4756   -7.1585 H   0  0  0  0  0  0  0  0  0  0  0  0
    6.9190   -3.1248   -5.2782 H   0  0  0  0  0  0  0  0  0  0  0  0
    5.6915   -3.2985   -3.2156 H   0  0  0  0  0  0  0  0  0  0  0  0
   -1.6749   -3.5104   -0.6702 H   0  0  0  0  0  0  0  0  0  0  0  0
   -0.1815   -4.1930   -0.0252 H   0  0  0  0  0  0  0  0  0  0  0  0
   -0.8916   -2.7728    0.7456 H   0  0  0  0  0  0  0  0  0  0  0  0
   -2.0210    0.3158   -1.7176 H   0  0  0  0  0  0  0  0  0  0  0  0
   -1.8678   -0.4427   -0.1235 H   0  0  0  0  0  0  0  0  0  0  0  0
   -2.4926   -1.3562   -1.5122 H   0  0  0  0  0  0  0  0  0  0  0  0
    2.2979    1.8232   -1.0028 H   0  0  0  0  0  0  0  0  0  0  0  0
    2.0395    3.2227   -2.0598 H   0  0  0  0  0  0  0  0  0  0  0  0
    1.5409    3.2791   -0.3615 H   0  0  0  0  0  0  0  0  0  0  0  0
  1  2  2  0  0  0  0 
  1  6  1  0  0  0  0 
  2  3  1  0  0  0  0 
  3  4  2  0  0  0  0 
  4  5  1  0  0  0  0 
  5  6  2  0  0  0  0 
  7  8  1  0  0  0  0 
  8  9  1  0  0  0  0 
 10  9  1  0  0  0  0 
  4  7  1  0  0  0  0 
 10  5  1  0  0  0  0 
  9 11  1  0  0  0  0 
 12 13  1  0  0  0  0 
 13 14  2  0  0  0  0 
 14 15  1  0  0  0  0 
 15 16  2  0  0  0  0 
 11 12  2  0  0  0  0 
 11 16  1  0  0  0  0 
 15 17  1  0  0  0  0 
 17 18  1  0  0  0  0 
 19 20  1  0  0  0  0 
 20 21  2  0  0  0  0 
 21 22  1  0  0  0  0 
 22 23  2  0  0  0  0 
 18 19  2  0  0  0  0 
 18 23  1  0  0  0  0 
 21 24  1  0  0  0  0 
 13 25  1  0  0  0  0 
 12 26  1  0  0  0  0 
 10 27  1  0  0  0  0 
  1 28  1  0  0  0  0 
  2 29  1  0  0  0  0 
  3 30  1  0  0  0  0 
  6 31  1  0  0  0  0 
  7 32  1  0  0  0  0 
  7 33  1  0  0  0  0 
  8 34  1  0  0  0  0 
  8 35  1  0  0  0  0 
 10 36  1  0  0  0  0 
 17 37  1  0  0  0  0 
 19 38  1  0  0  0  0 
 20 39  1  0  0  0  0 
 22 40  1  0  0  0  0 
 23 41  1  0  0  0  0 
 25 42  1  0  0  0  0 
 25 43  1  0  0  0  0 
 25 44  1  0  0  0  0 
 26 45  1  0  0  0  0 
 26 46  1  0  0  0  0 
 26 47  1  0  0  0  0 
 27 48  1  0  0  0  0 
 27 49  1  0  0  0  0 
 27 50  1  0  0  0  0 
M  END
> <cdk:Title>
revaprazan

> <Conformer>
1

> <SuperDrugID>
SD003034

$$$$
