febuprol
  CDK     0628171801

 36 36  0  0  0  0  0  0  0  0999 V2000
   -0.9406    0.1443    0.6305 O   0  0  0  0  0  0  0  0  0  0  0  0
   -0.7404   -0.9639    1.5334 C   0  0  2  0  0  0  0  0  0  0  0  0
    0.1627    0.9350    0.4857 C   0  0  0  0  0  0  0  0  0  0  0  0
   -2.0026   -1.8623    1.5433 C   0  0  2  0  0  0  0  0  0  0  0  0
    0.3602    2.0463    1.3309 C   0  0  0  0  0  0  0  0  0  0  0  0
    1.0972    0.6547   -0.5322 C   0  0  0  0  0  0  0  0  0  0  0  0
   -2.3391   -2.4319    0.1421 C   0  0  1  0  0  0  0  0  0  0  0  0
   -3.1150   -1.1133    2.0296 O   0  0  0  0  0  0  0  0  0  0  0  0
    1.5026    2.8529    1.1775 C   0  0  0  0  0  0  0  0  0  0  0  0
    2.2384    1.4634   -0.6833 C   0  0  0  0  0  0  0  0  0  0  0  0
   -3.5116   -3.2742    0.1908 O   0  0  0  0  0  0  0  0  0  0  0  0
    2.4495    2.5535    0.1806 C   0  0  0  0  0  0  0  0  0  0  0  0
   -3.8878   -3.7997   -1.1010 C   0  0  2  0  0  0  0  0  0  0  0  0
   -5.1539   -4.6791   -0.9802 C   0  0  1  0  0  0  0  0  0  0  0  0
   -5.5976   -5.2785   -2.3435 C   0  0  1  0  0  0  0  0  0  0  0  0
   -6.8607   -6.1630   -2.2335 C   0  0  0  0  0  0  0  0  0  0  0  0
   -0.5601   -0.5905    2.5476 H   0  0  0  0  0  0  0  0  0  0  0  0
    0.1214   -1.5709    1.2309 H   0  0  0  0  0  0  0  0  0  0  0  0
   -1.8297   -2.6921    2.2343 H   0  0  0  0  0  0  0  0  0  0  0  0
   -0.3235    2.2640    2.0599 H   0  0  0  0  0  0  0  0  0  0  0  0
    0.9500   -0.1406   -1.1579 H   0  0  0  0  0  0  0  0  0  0  0  0
   -2.5126   -1.5972   -0.5456 H   0  0  0  0  0  0  0  0  0  0  0  0
   -1.4802   -3.0096   -0.2135 H   0  0  0  0  0  0  0  0  0  0  0  0
   -2.8469   -0.8120    2.9226 H   0  0  0  0  0  0  0  0  0  0  0  0
    1.6453    3.6559    1.7924 H   0  0  0  0  0  0  0  0  0  0  0  0
    2.9140    1.2559   -1.4201 H   0  0  0  0  0  0  0  0  0  0  0  0
    3.2904    3.1270    0.0841 H   0  0  0  0  0  0  0  0  0  0  0  0
   -3.0729   -4.4056   -1.5066 H   0  0  0  0  0  0  0  0  0  0  0  0
   -4.0972   -2.9782   -1.7919 H   0  0  0  0  0  0  0  0  0  0  0  0
   -4.9505   -5.4906   -0.2766 H   0  0  0  0  0  0  0  0  0  0  0  0
   -5.9651   -4.0708   -0.5715 H   0  0  0  0  0  0  0  0  0  0  0  0
   -5.8040   -4.4689   -3.0483 H   0  0  0  0  0  0  0  0  0  0  0  0
   -4.7874   -5.8845   -2.7569 H   0  0  0  0  0  0  0  0  0  0  0  0
   -6.6816   -7.0022   -1.5583 H   0  0  0  0  0  0  0  0  0  0  0  0
   -7.7035   -5.5798   -1.8571 H   0  0  0  0  0  0  0  0  0  0  0  0
   -7.1239   -6.5585   -3.2153 H   0  0  0  0  0  0  0  0  0  0  0  0
  1  2  1  0  0  0  0 
  1  3  1  0  0  0  0 
  4  2  1  0  0  0  0 
  3  5  2  0  0  0  0 
  3  6  1  0  0  0  0 
  4  7  1  0  0  0  0 
  4  8  1  0  0  0  0 
  5  9  1  0  0  0  0 
  6 10  2  0  0  0  0 
  7 11  1  0  0  0  0 
  9 12  2  0  0  0  0 
 10 12  1  0  0  0  0 
 11 13  1  0  0  0  0 
 13 14  1  0  0  0  0 
 14 15  1  0  0  0  0 
 15 16  1  0  0  0  0 
  2 17  1  0  0  0  0 
  2 18  1  0  0  0  0 
  4 19  1  0  0  0  0 
  5 20  1  0  0  0  0 
  6 21  1  0  0  0  0 
  7 22  1  0  0  0  0 
  7 23  1  0  0  0  0 
  8 24  1  0  0  0  0 
  9 25  1  0  0  0  0 
 10 26  1  0  0  0  0 
 12 27  1  0  0  0  0 
 13 28  1  0  0  0  0 
 13 29  1  0  0  0  0 
 14 30  1  0  0  0  0 
 14 31  1  0  0  0  0 
 15 32  1  0  0  0  0 
 15 33  1  0  0  0  0 
 16 34  1  0  0  0  0 
 16 35  1  0  0  0  0 
 16 36  1  0  0  0  0 
M  END
> <cdk:Title>
febuprol

> <Conformer>
1

> <SuperDrugID>
SD001013

$$$$
