sulfadiazine
  CDK     0628171801

 27 28  0  0  0  0  0  0  0  0999 V2000
   -0.7334    4.8916   -3.8730 N   0  0  0  0  0  0  0  0  0  0  0  0
   -1.2401    4.5242   -2.6800 C   0  0  0  0  0  0  0  0  0  0  0  0
   -0.9733    3.2404   -2.1641 C   0  0  0  0  0  0  0  0  0  0  0  0
   -1.5145    2.8491   -0.9254 C   0  0  0  0  0  0  0  0  0  0  0  0
   -2.3347    3.7333   -0.1931 C   0  0  0  0  0  0  0  0  0  0  0  0
   -2.5928    5.0220   -0.7094 C   0  0  0  0  0  0  0  0  0  0  0  0
   -2.0423    5.4175   -1.9424 C   0  0  0  0  0  0  0  0  0  0  0  0
   -3.0417    3.2144    1.3480 S   0  0  1  0  0  0  0  0  0  0  0  0
   -4.4430    2.4818    1.0745 O   0  0  0  0  0  0  0  0  0  0  0  0
   -2.0703    2.1803    2.0991 O   0  0  0  0  0  0  0  0  0  0  0  0
   -3.3267    4.5519    2.3866 N   0  0  0  0  0  0  0  0  0  0  0  0
   -2.3603    5.4016    2.8012 C   0  0  0  0  0  0  0  0  0  0  0  0
   -1.0498    5.2487    2.4656 N   0  0  0  0  0  0  0  0  0  0  0  0
   -0.0955    6.1152    2.8898 C   0  0  0  0  0  0  0  0  0  0  0  0
   -0.4557    7.2092    3.6949 C   0  0  0  0  0  0  0  0  0  0  0  0
   -1.8106    7.3540    4.0350 C   0  0  0  0  0  0  0  0  0  0  0  0
   -2.7192    6.4524    3.5830 N   0  0  0  0  0  0  0  0  0  0  0  0
   -0.9118    5.7763   -4.2292 H   0  0  0  0  0  0  0  0  0  0  0  0
   -0.1920    4.2676   -4.3818 H   0  0  0  0  0  0  0  0  0  0  0  0
   -0.3879    2.5845   -2.6891 H   0  0  0  0  0  0  0  0  0  0  0  0
   -1.3095    1.9132   -0.5680 H   0  0  0  0  0  0  0  0  0  0  0  0
   -3.1814    5.6801   -0.1927 H   0  0  0  0  0  0  0  0  0  0  0  0
   -2.2296    6.3575   -2.3007 H   0  0  0  0  0  0  0  0  0  0  0  0
   -4.2370    4.7047    2.6873 H   0  0  0  0  0  0  0  0  0  0  0  0
    0.8787    5.9709    2.6207 H   0  0  0  0  0  0  0  0  0  0  0  0
    0.2449    7.8791    4.0215 H   0  0  0  0  0  0  0  0  0  0  0  0
   -2.1169    8.1336    4.6202 H   0  0  0  0  0  0  0  0  0  0  0  0
  1  2  1  0  0  0  0 
  2  3  2  0  0  0  0 
  3  4  1  0  0  0  0 
  4  5  2  0  0  0  0 
  5  6  1  0  0  0  0 
  6  7  2  0  0  0  0 
  2  7  1  0  0  0  0 
  5  8  1  0  0  0  0 
  8  9  2  0  0  0  0 
  8 10  2  0  0  0  0 
  8 11  1  0  0  0  0 
 11 12  1  0  0  0  0 
 12 13  2  0  0  0  0 
 13 14  1  0  0  0  0 
 14 15  2  0  0  0  0 
 15 16  1  0  0  0  0 
 16 17  2  0  0  0  0 
 12 17  1  0  0  0  0 
  1 18  1  0  0  0  0 
  1 19  1  0  0  0  0 
  3 20  1  0  0  0  0 
  4 21  1  0  0  0  0 
  6 22  1  0  0  0  0 
  7 23  1  0  0  0  0 
 11 24  1  0  0  0  0 
 14 25  1  0  0  0  0 
 15 26  1  0  0  0  0 
 16 27  1  0  0  0  0 
M  END
> <cdk:Title>
sulfadiazine

> <Conformer>
1

> <SuperDrugID>
SD002247

$$$$
