desoxycorticosterone pivalate
  CDK     0628171802

 68 71  0  0  0  0  0  0  0  0999 V2000
   -1.2534  -11.7854    0.1039 C   0  0  0  0  0  0  0  0  0  0  0  0
   -1.8620  -10.9583   -1.0936 C   0  0  2  0  0  0  0  0  0  0  0  0
   -3.3888  -11.1992   -1.3436 C   0  0  2  0  0  0  0  0  0  0  0  0
   -1.2772  -11.4847   -2.4516 C   0  0  1  0  0  0  0  0  0  0  0  0
   -1.6916   -9.4226   -0.8308 C   0  0  2  0  0  0  0  0  0  0  0  0
   -4.2700  -10.8366   -0.1026 C   0  0  1  0  0  0  0  0  0  0  0  0
   -3.4525  -12.6241   -1.9296 C   0  0  1  0  0  0  0  0  0  0  0  0
    0.2052  -11.6740   -2.5224 C   0  0  0  0  0  0  0  0  0  0  0  0
   -2.1439  -12.7515   -2.7538 C   0  0  1  0  0  0  0  0  0  0  0  0
   -2.5745   -8.9148    0.3490 C   0  0  2  0  0  0  0  0  0  0  0  0
   -4.0942   -9.3094    0.2425 C   0  0  2  0  0  0  0  0  0  0  0  0
   -5.7754  -11.1402   -0.3255 C   0  0  1  0  0  0  0  0  0  0  0  0
    1.1544  -10.5440   -2.5725 C   0  0  2  0  0  0  0  0  0  0  0  0
    0.7070  -12.8230   -2.5170 O   0  0  0  0  0  0  0  0  0  0  0  0
   -5.0092   -8.8192    1.4561 C   0  0  2  0  0  0  0  0  0  0  0  0
   -6.6011  -10.7564    0.9248 C   0  0  2  0  0  0  0  0  0  0  0  0
    1.8273  -10.4637   -1.3095 O   0  0  0  0  0  0  0  0  0  0  0  0
   -4.4535   -9.3134    2.8397 C   0  0  0  0  0  0  0  0  0  0  0  0
   -6.4041   -9.3521    1.3256 C   0  0  0  0  0  0  0  0  0  0  0  0
   -5.0216   -7.2374    1.4541 C   0  0  1  0  0  0  0  0  0  0  0  0
    3.1668  -10.5390   -1.0333 C   0  0  0  0  0  0  0  0  0  0  0  0
   -7.4933   -8.6032    1.6222 C   0  0  0  0  0  0  0  0  0  0  0  0
   -6.1428   -6.6206    2.3239 C   0  0  1  0  0  0  0  0  0  0  0  0
    3.6521  -10.4959    0.3855 C   0  0  1  0  0  0  0  0  0  0  0  0
    3.9904  -10.6159   -1.9778 O   0  0  0  0  0  0  0  0  0  0  0  0
   -7.4310   -7.2965    2.0765 C   0  0  0  0  0  0  0  0  0  0  0  0
    4.3684   -9.1278    0.6257 C   0  0  0  0  0  0  0  0  0  0  0  0
    2.4658  -10.6221    1.4000 C   0  0  0  0  0  0  0  0  0  0  0  0
    4.6413  -11.6836    0.6365 C   0  0  0  0  0  0  0  0  0  0  0  0
   -8.4916   -6.6791    2.3352 O   0  0  0  0  0  0  0  0  0  0  0  0
   -1.7088  -11.5442    1.0608 H   0  0  0  0  0  0  0  0  0  0  0  0
   -1.3659  -12.8593   -0.0446 H   0  0  0  0  0  0  0  0  0  0  0  0
   -0.1901  -11.5780    0.1975 H   0  0  0  0  0  0  0  0  0  0  0  0
   -3.7301  -10.5373   -2.1562 H   0  0  0  0  0  0  0  0  0  0  0  0
   -1.5162  -10.7568   -3.2341 H   0  0  0  0  0  0  0  0  0  0  0  0
   -1.9632   -8.8567   -1.7272 H   0  0  0  0  0  0  0  0  0  0  0  0
   -0.6473   -9.1911   -0.6117 H   0  0  0  0  0  0  0  0  0  0  0  0
   -3.9489  -11.4491    0.7394 H   0  0  0  0  0  0  0  0  0  0  0  0
   -3.4817  -13.3609   -1.1231 H   0  0  0  0  0  0  0  0  0  0  0  0
   -4.3355  -12.7608   -2.5592 H   0  0  0  0  0  0  0  0  0  0  0  0
   -2.3653  -12.8101   -3.8223 H   0  0  0  0  0  0  0  0  0  0  0  0
   -1.6364  -13.6763   -2.4686 H   0  0  0  0  0  0  0  0  0  0  0  0
   -2.4768   -7.8290    0.3776 H   0  0  0  0  0  0  0  0  0  0  0  0
   -2.1542   -9.2913    1.2796 H   0  0  0  0  0  0  0  0  0  0  0  0
   -4.4592   -8.7777   -0.6461 H   0  0  0  0  0  0  0  0  0  0  0  0
   -6.1482  -10.5868   -1.1921 H   0  0  0  0  0  0  0  0  0  0  0  0
   -5.9142  -12.2062   -0.5232 H   0  0  0  0  0  0  0  0  0  0  0  0
    0.6340   -9.6026   -2.7414 H   0  0  0  0  0  0  0  0  0  0  0  0
    1.8509  -10.6874   -3.4011 H   0  0  0  0  0  0  0  0  0  0  0  0
   -6.3058  -11.4017    1.7573 H   0  0  0  0  0  0  0  0  0  0  0  0
   -7.6479  -10.9948    0.7056 H   0  0  0  0  0  0  0  0  0  0  0  0
   -3.5255   -8.8024    3.1015 H   0  0  0  0  0  0  0  0  0  0  0  0
   -4.2500  -10.3846    2.8306 H   0  0  0  0  0  0  0  0  0  0  0  0
   -5.1622   -9.1194    3.6478 H   0  0  0  0  0  0  0  0  0  0  0  0
   -4.0661   -6.8352    1.7992 H   0  0  0  0  0  0  0  0  0  0  0  0
   -5.1735   -6.8697    0.4343 H   0  0  0  0  0  0  0  0  0  0  0  0
   -8.4016   -9.0017    1.5367 H   0  0  0  0  0  0  0  0  0  0  0  0
   -5.8962   -6.7170    3.3834 H   0  0  0  0  0  0  0  0  0  0  0  0
   -6.2262   -5.5543    2.0940 H   0  0  0  0  0  0  0  0  0  0  0  0
    4.7621   -9.0666    1.6436 H   0  0  0  0  0  0  0  0  0  0  0  0
    3.6705   -8.2978    0.4830 H   0  0  0  0  0  0  0  0  0  0  0  0
    5.2032   -8.9915   -0.0667 H   0  0  0  0  0  0  0  0  0  0  0  0
    2.8178  -10.5379    2.4308 H   0  0  0  0  0  0  0  0  0  0  0  0
    1.7216   -9.8387    1.2339 H   0  0  0  0  0  0  0  0  0  0  0  0
    1.9735  -11.5910    1.2928 H   0  0  0  0  0  0  0  0  0  0  0  0
    4.9529  -11.6865    1.6836 H   0  0  0  0  0  0  0  0  0  0  0  0
    4.0863  -12.6609    0.4733 H   0  0  0  0  0  0  0  0  0  0  0  0
    5.5879  -11.5150    0.0332 H   0  0  0  0  0  0  0  0  0  0  0  0
  2  1  1  0  0  0  0 
  2  3  1  0  0  0  0 
  2  4  1  0  0  0  0 
  2  5  1  0  0  0  0 
  3  6  1  0  0  0  0 
  3  7  1  0  0  0  0 
  4  8  1  0  0  0  0 
  4  9  1  0  0  0  0 
  5 10  1  0  0  0  0 
  6 11  1  0  0  0  0 
  6 12  1  0  0  0  0 
  7  9  1  0  0  0  0 
  8 13  1  0  0  0  0 
  8 14  2  0  0  0  0 
 11 10  1  0  0  0  0 
 11 15  1  0  0  0  0 
 12 16  1  0  0  0  0 
 13 17  1  0  0  0  0 
 15 18  1  0  0  0  0 
 15 19  1  0  0  0  0 
 15 20  1  0  0  0  0 
 16 19  1  0  0  0  0 
 17 21  1  0  0  0  0 
 19 22  2  0  0  0  0 
 20 23  1  0  0  0  0 
 21 24  1  0  0  0  0 
 21 25  2  0  0  0  0 
 22 26  1  0  0  0  0 
 23 26  1  0  0  0  0 
 24 27  1  0  0  0  0 
 24 28  1  0  0  0  0 
 24 29  1  0  0  0  0 
 26 30  2  0  0  0  0 
 31  1  1  0  0  0  0 
 32  1  1  0  0  0  0 
 33  1  1  0  0  0  0 
  3 34  1  0  0  0  0 
  4 35  1  0  0  0  0 
 36  5  1  0  0  0  0 
 37  5  1  0  0  0  0 
  6 38  1  0  0  0  0 
 39  7  1  0  0  0  0 
 40  7  1  0  0  0  0 
 41  9  1  0  0  0  0 
 42  9  1  0  0  0  0 
 43 10  1  0  0  0  0 
 44 10  1  0  0  0  0 
 11 45  1  0  0  0  0 
 46 12  1  0  0  0  0 
 47 12  1  0  0  0  0 
 48 13  1  0  0  0  0 
 49 13  1  0  0  0  0 
 50 16  1  0  0  0  0 
 51 16  1  0  0  0  0 
 52 18  1  0  0  0  0 
 53 18  1  0  0  0  0 
 54 18  1  0  0  0  0 
 55 20  1  0  0  0  0 
 56 20  1  0  0  0  0 
 57 22  1  0  0  0  0 
 58 23  1  0  0  0  0 
 59 23  1  0  0  0  0 
 60 27  1  0  0  0  0 
 61 27  1  0  0  0  0 
 62 27  1  0  0  0  0 
 63 28  1  0  0  0  0 
 64 28  1  0  0  0  0 
 65 28  1  0  0  0  0 
 66 29  1  0  0  0  0 
 67 29  1  0  0  0  0 
 68 29  1  0  0  0  0 
M  END
> <cdk:Title>
desoxycorticosterone pivalate

> <Conformer>
1

> <SuperDrugID>
SD000726

$$$$
