mexazolam
  CDK     0628171801

 40 43  0  0  0  0  0  0  0  0999 V2000
    1.4590   -4.1592    1.1040 C   0  0  0  0  0  0  0  0  0  0  0  0
    2.3120   -3.3733    0.0764 C   0  0  2  0  0  0  0  0  0  0  0  0
    2.3173   -1.9218    0.3769 N   0  0  0  0  0  0  0  0  0  0  0  0
    1.7348   -3.4031   -1.3531 C   0  0  1  0  0  0  0  0  0  0  0  0
    2.0645   -1.1466   -0.8622 C   0  0  2  0  0  0  0  0  0  0  0  0
    3.2563   -1.3757    1.3856 C   0  0  1  0  0  0  0  0  0  0  0  0
    1.2399   -2.0822   -1.5911 O   0  0  0  0  0  0  0  0  0  0  0  0
    3.2440   -0.8601   -1.7704 C   0  0  0  0  0  0  0  0  0  0  0  0
    1.2657    0.0944   -0.4966 C   0  0  0  0  0  0  0  0  0  0  0  0
    4.6680   -1.5211    1.0069 C   0  0  0  0  0  0  0  0  0  0  0  0
    4.6267   -0.9792   -1.4251 C   0  0  0  0  0  0  0  0  0  0  0  0
    2.9194   -0.4279   -3.0874 C   0  0  0  0  0  0  0  0  0  0  0  0
   -0.1075    0.0588   -0.0974 C   0  0  0  0  0  0  0  0  0  0  0  0
    1.9007    1.3694   -0.4848 C   0  0  0  0  0  0  0  0  0  0  0  0
    5.4905   -1.8531    1.8909 O   0  0  0  0  0  0  0  0  0  0  0  0
    5.1910   -1.3197   -0.2245 N   0  0  0  0  0  0  0  0  0  0  0  0
    5.6054   -0.7195   -2.4171 C   0  0  0  0  0  0  0  0  0  0  0  0
    3.9042   -0.1798   -4.0578 C   0  0  0  0  0  0  0  0  0  0  0  0
   -1.0222   -1.3645    0.0516 Cl  0  0  0  0  0  0  0  0  0  0  0  0
   -0.7998    1.2468    0.2256 C   0  0  0  0  0  0  0  0  0  0  0  0
    1.2099    2.5468   -0.1560 C   0  0  0  0  0  0  0  0  0  0  0  0
    5.2549   -0.3317   -3.7187 C   0  0  0  0  0  0  0  0  0  0  0  0
    3.4681    0.2864   -5.6267 Cl  0  0  0  0  0  0  0  0  0  0  0  0
   -0.1456    2.4868    0.1900 C   0  0  0  0  0  0  0  0  0  0  0  0
    0.4297   -3.7964    1.1129 H   0  0  0  0  0  0  0  0  0  0  0  0
    1.4536   -5.2216    0.8531 H   0  0  0  0  0  0  0  0  0  0  0  0
    1.8755   -4.0482    2.1058 H   0  0  0  0  0  0  0  0  0  0  0  0
    3.3256   -3.7848    0.0621 H   0  0  0  0  0  0  0  0  0  0  0  0
    2.5141   -3.6332   -2.0852 H   0  0  0  0  0  0  0  0  0  0  0  0
    0.9254   -4.1244   -1.4761 H   0  0  0  0  0  0  0  0  0  0  0  0
    3.0575   -0.3167    1.5547 H   0  0  0  0  0  0  0  0  0  0  0  0
    3.0749   -1.8765    2.3400 H   0  0  0  0  0  0  0  0  0  0  0  0
    1.9397   -0.2983   -3.3546 H   0  0  0  0  0  0  0  0  0  0  0  0
    2.8929    1.4653   -0.7096 H   0  0  0  0  0  0  0  0  0  0  0  0
    6.1550   -1.4291   -0.2549 H   0  0  0  0  0  0  0  0  0  0  0  0
    6.6038   -0.8069   -2.2046 H   0  0  0  0  0  0  0  0  0  0  0  0
   -1.7877    1.2224    0.4953 H   0  0  0  0  0  0  0  0  0  0  0  0
    1.6966    3.4466   -0.1640 H   0  0  0  0  0  0  0  0  0  0  0  0
    5.9882   -0.1624   -4.4130 H   0  0  0  0  0  0  0  0  0  0  0  0
   -0.6516    3.3436    0.4241 H   0  0  0  0  0  0  0  0  0  0  0  0
  1  2  1  0  0  0  0 
  2  3  1  0  0  0  0 
  2  4  1  0  0  0  0 
  3  5  1  0  0  0  0 
  3  6  1  0  0  0  0 
  4  7  1  0  0  0  0 
  5  7  1  0  0  0  0 
  5  8  1  0  0  0  0 
  5  9  1  0  0  0  0 
  6 10  1  0  0  0  0 
  8 11  2  0  0  0  0 
  8 12  1  0  0  0  0 
  9 13  2  0  0  0  0 
  9 14  1  0  0  0  0 
 10 15  2  0  0  0  0 
 10 16  1  0  0  0  0 
 11 16  1  0  0  0  0 
 11 17  1  0  0  0  0 
 12 18  2  0  0  0  0 
 13 19  1  0  0  0  0 
 13 20  1  0  0  0  0 
 14 21  2  0  0  0  0 
 17 22  2  0  0  0  0 
 18 22  1  0  0  0  0 
 18 23  1  0  0  0  0 
 20 24  2  0  0  0  0 
 21 24  1  0  0  0  0 
  1 25  1  0  0  0  0 
  1 26  1  0  0  0  0 
  1 27  1  0  0  0  0 
  2 28  1  0  0  0  0 
  4 29  1  0  0  0  0 
  4 30  1  0  0  0  0 
  6 31  1  0  0  0  0 
  6 32  1  0  0  0  0 
 12 33  1  0  0  0  0 
 14 34  1  0  0  0  0 
 16 35  1  0  0  0  0 
 17 36  1  0  0  0  0 
 20 37  1  0  0  0  0 
 21 38  1  0  0  0  0 
 22 39  1  0  0  0  0 
 24 40  1  0  0  0  0 
M  END
> <cdk:Title>
mexazolam

> <Conformer>
1

> <SuperDrugID>
SD001593

$$$$
