sulfafurazole
  CDK     0628171801

 31 32  0  0  0  0  0  0  0  0999 V2000
   -1.6120   -1.0149   -4.0315 S   0  0  1  0  0  0  0  0  0  0  0  0
   -0.7629   -0.8383   -2.5537 N   0  0  0  0  0  0  0  0  0  0  0  0
   -3.1523   -0.6428   -3.7765 O   0  0  0  0  0  0  0  0  0  0  0  0
   -1.0069    0.0535   -5.0660 O   0  0  0  0  0  0  0  0  0  0  0  0
   -1.4436   -2.6410   -4.7165 C   0  0  0  0  0  0  0  0  0  0  0  0
   -0.8147   -1.7371   -1.5489 C   0  0  0  0  0  0  0  0  0  0  0  0
   -0.1667   -3.2259   -4.8494 C   0  0  0  0  0  0  0  0  0  0  0  0
   -2.5773   -3.3503   -5.1673 C   0  0  0  0  0  0  0  0  0  0  0  0
   -0.1880   -1.5904   -0.3165 C   0  0  0  0  0  0  0  0  0  0  0  0
   -1.4630   -2.9248   -1.5508 O   0  0  0  0  0  0  0  0  0  0  0  0
   -0.0273   -4.5086   -5.4132 C   0  0  0  0  0  0  0  0  0  0  0  0
   -2.4387   -4.6331   -5.7291 C   0  0  0  0  0  0  0  0  0  0  0  0
    0.6151   -0.4310    0.1187 C   0  0  0  0  0  0  0  0  0  0  0  0
   -0.4859   -2.7603    0.3812 C   0  0  0  0  0  0  0  0  0  0  0  0
   -1.2626   -3.5248   -0.4074 N   0  0  0  0  0  0  0  0  0  0  0  0
   -1.1626   -5.2189   -5.8514 C   0  0  0  0  0  0  0  0  0  0  0  0
   -0.0496   -3.1342    1.7374 C   0  0  0  0  0  0  0  0  0  0  0  0
   -1.0253   -6.4526   -6.3769 N   0  0  0  0  0  0  0  0  0  0  0  0
   -0.2341   -0.0349   -2.4205 H   0  0  0  0  0  0  0  0  0  0  0  0
    0.6679   -2.7244   -4.5362 H   0  0  0  0  0  0  0  0  0  0  0  0
   -3.5107   -2.9418   -5.0884 H   0  0  0  0  0  0  0  0  0  0  0  0
    0.9043   -4.9235   -5.5020 H   0  0  0  0  0  0  0  0  0  0  0  0
   -3.2705   -5.1370   -6.0475 H   0  0  0  0  0  0  0  0  0  0  0  0
    1.0722   -0.5989    1.0946 H   0  0  0  0  0  0  0  0  0  0  0  0
    1.4065   -0.2435   -0.6075 H   0  0  0  0  0  0  0  0  0  0  0  0
   -0.0234    0.4508    0.1793 H   0  0  0  0  0  0  0  0  0  0  0  0
    1.0392   -3.1140    1.7926 H   0  0  0  0  0  0  0  0  0  0  0  0
   -0.3910   -4.1397    1.9886 H   0  0  0  0  0  0  0  0  0  0  0  0
   -0.4579   -2.4336    2.4665 H   0  0  0  0  0  0  0  0  0  0  0  0
   -1.8059   -6.9479   -6.6716 H   0  0  0  0  0  0  0  0  0  0  0  0
   -0.1437   -6.8505   -6.4572 H   0  0  0  0  0  0  0  0  0  0  0  0
  1  2  1  0  0  0  0 
  1  3  2  0  0  0  0 
  1  4  2  0  0  0  0 
  1  5  1  0  0  0  0 
  2  6  1  0  0  0  0 
  5  7  2  0  0  0  0 
  5  8  1  0  0  0  0 
  6  9  2  0  0  0  0 
  6 10  1  0  0  0  0 
  7 11  1  0  0  0  0 
  8 12  2  0  0  0  0 
  9 13  1  0  0  0  0 
  9 14  1  0  0  0  0 
 10 15  1  0  0  0  0 
 11 16  2  0  0  0  0 
 12 16  1  0  0  0  0 
 14 15  2  0  0  0  0 
 14 17  1  0  0  0  0 
 16 18  1  0  0  0  0 
  2 19  1  0  0  0  0 
  7 20  1  0  0  0  0 
  8 21  1  0  0  0  0 
 11 22  1  0  0  0  0 
 12 23  1  0  0  0  0 
 13 24  1  0  0  0  0 
 13 25  1  0  0  0  0 
 13 26  1  0  0  0  0 
 17 27  1  0  0  0  0 
 17 28  1  0  0  0  0 
 17 29  1  0  0  0  0 
 18 30  1  0  0  0  0 
 18 31  1  0  0  0  0 
M  END
> <cdk:Title>
sulfafurazole

> <Conformer>
1

> <SuperDrugID>
SD002275

$$$$
