voacamine
  CDK     0628171802

104112  0  0  0  0  0  0  0  0999 V2000
  -10.5474   -3.7665    2.2703 C   0  0  1  0  0  0  0  0  0  0  0  0
  -11.3684   -2.4302    2.5369 C   0  0  2  0  0  0  0  0  0  0  0  0
   -9.1968   -3.4070    1.6873 C   0  0  0  0  0  0  0  0  0  0  0  0
  -10.2500   -4.5166    3.5472 C   0  0  0  0  0  0  0  0  0  0  0  0
  -11.4605   -4.6575    1.3071 C   0  0  2  0  0  0  0  0  0  0  0  0
  -12.6745   -2.7352    3.3817 C   0  0  2  0  0  0  0  0  0  0  0  0
  -11.8603   -1.8533    1.2222 N   0  0  2  0  0  0  0  0  0  0  0  0
  -10.7470   -1.7045    3.0684 H   0  0  0  0  0  0  0  0  0  0  0  0
   -8.9197   -2.7131    0.4936 C   0  0  0  0  0  0  0  0  0  0  0  0
   -7.9935   -3.6573    2.2665 N   0  0  0  0  0  0  0  0  0  0  0  0
  -10.0629   -3.8413    4.7236 O   0  0  0  0  0  0  0  0  0  0  0  0
  -10.0650   -5.7595    3.5441 O   0  0  0  0  0  0  0  0  0  0  0  0
  -12.9284   -4.1079    1.1995 C   0  0  1  0  0  0  0  0  0  0  0  0
  -13.5057   -3.8469    2.6293 C   0  0  2  0  0  0  0  0  0  0  0  0
  -13.5210   -1.4660    3.7316 C   0  0  2  0  0  0  0  0  0  0  0  0
  -12.3966   -3.1469    4.3543 H   0  0  0  0  0  0  0  0  0  0  0  0
  -12.8564   -2.7232    0.4953 C   0  0  2  0  0  0  0  0  0  0  0  0
  -10.8838   -1.1361    0.3531 C   0  0  2  0  0  0  0  0  0  0  0  0
   -7.5318   -2.7234    0.3359 C   0  0  0  0  0  0  0  0  0  0  0  0
   -9.8844   -2.0497   -0.4090 C   0  0  1  0  0  0  0  0  0  0  0  0
   -6.9844   -3.2372    1.4947 C   0  0  0  0  0  0  0  0  0  0  0  0
   -9.8151   -4.4361    6.0008 C   0  0  0  0  0  0  0  0  0  0  0  0
  -13.5680   -4.7976    0.6405 H   0  0  0  0  0  0  0  0  0  0  0  0
  -12.7889   -0.4244    4.6140 C   0  0  0  0  0  0  0  0  0  0  0  0
   -6.6955   -2.3447   -0.7222 C   0  0  0  0  0  0  0  0  0  0  0  0
   -5.5963   -3.2531    1.7070 C   0  0  0  0  0  0  0  0  0  0  0  0
   -5.2936   -2.4863   -0.5826 C   0  0  0  0  0  0  0  0  0  0  0  0
   -4.6967   -2.8512    0.6706 C   0  0  0  0  0  0  0  0  0  0  0  0
   -4.5611   -2.2214   -1.7086 O   0  0  0  0  0  0  0  0  0  0  0  0
   -3.1843   -2.8575    0.8571 C   0  0  2  0  0  0  0  0  0  0  0  0
   -4.4867   -3.3342   -2.6199 C   0  0  0  0  0  0  0  0  0  0  0  0
   -2.6978   -3.4418    2.1592 C   0  0  0  0  0  0  0  0  0  0  0  0
   -2.4122   -1.5767    0.3537 C   0  0  2  0  0  0  0  0  0  0  0  0
   -2.8569   -3.6248    0.1452 H   0  0  0  0  0  0  0  0  0  0  0  0
   -1.9863   -2.9164    3.2661 C   0  0  0  0  0  0  0  0  0  0  0  0
   -2.9733   -4.7349    2.4425 N   0  0  0  0  0  0  0  0  0  0  0  0
   -2.7711   -0.1002    0.7871 C   0  0  2  0  0  0  0  0  0  0  0  0
   -1.9591   -3.9332    4.2318 C   0  0  0  0  0  0  0  0  0  0  0  0
   -1.3309   -1.5910    3.4403 C   0  0  2  0  0  0  0  0  0  0  0  0
   -2.5549   -5.0551    3.6678 C   0  0  0  0  0  0  0  0  0  0  0  0
   -1.8991    0.4879    1.9482 C   0  0  1  0  0  0  0  0  0  0  0  0
   -4.1929    0.1787    1.0992 C   0  0  0  0  0  0  0  0  0  0  0  0
   -2.4940    0.5212   -0.0757 H   0  0  0  0  0  0  0  0  0  0  0  0
   -1.4702   -3.9872    5.5564 C   0  0  0  0  0  0  0  0  0  0  0  0
   -2.2086   -0.3055    3.2644 C   0  0  1  0  0  0  0  0  0  0  0  0
   -2.6586   -6.2717    4.3621 C   0  0  0  0  0  0  0  0  0  0  0  0
   -0.4555    0.7335    1.6506 C   0  0  0  0  0  0  0  0  0  0  0  0
   -2.2667    1.5084    2.1217 H   0  0  0  0  0  0  0  0  0  0  0  0
   -5.0243    0.6639    0.1451 C   0  0  0  0  0  0  0  0  0  0  0  0
   -4.6371    0.0421    2.4944 C   0  0  1  0  0  0  0  0  0  0  0  0
   -1.5811   -5.1944    6.2787 C   0  0  0  0  0  0  0  0  0  0  0  0
   -3.6709   -0.6440    3.4087 N   0  0  2  0  0  0  0  0  0  0  0  0
   -1.9428    0.3866    4.0739 H   0  0  0  0  0  0  0  0  0  0  0  0
   -2.1596   -6.3346    5.6791 C   0  0  0  0  0  0  0  0  0  0  0  0
    0.0899    0.4265    0.4337 O   0  0  0  0  0  0  0  0  0  0  0  0
    0.2606    1.2617    2.5352 O   0  0  0  0  0  0  0  0  0  0  0  0
   -6.4056    1.0730    0.3405 C   0  0  0  0  0  0  0  0  0  0  0  0
   -4.6715    0.7694   -0.7782 H   0  0  0  0  0  0  0  0  0  0  0  0
   -4.1625   -0.7400    4.8149 C   0  0  0  0  0  0  0  0  0  0  0  0
    1.4408    0.6641    0.0251 C   0  0  0  0  0  0  0  0  0  0  0  0
  -11.5299   -5.6997    1.6270 H   0  0  0  0  0  0  0  0  0  0  0  0
  -11.0336   -4.7049    0.3029 H   0  0  0  0  0  0  0  0  0  0  0  0
   -7.8733   -4.0870    3.1273 H   0  0  0  0  0  0  0  0  0  0  0  0
  -14.5618   -3.5701    2.5422 H   0  0  0  0  0  0  0  0  0  0  0  0
  -13.4756   -4.7815    3.1959 H   0  0  0  0  0  0  0  0  0  0  0  0
  -14.4128   -1.7838    4.2791 H   0  0  0  0  0  0  0  0  0  0  0  0
  -13.8613   -0.9726    2.8202 H   0  0  0  0  0  0  0  0  0  0  0  0
  -12.6257   -2.8691   -0.5624 H   0  0  0  0  0  0  0  0  0  0  0  0
  -13.8331   -2.2348    0.5263 H   0  0  0  0  0  0  0  0  0  0  0  0
  -10.3318   -0.4071    0.9526 H   0  0  0  0  0  0  0  0  0  0  0  0
  -11.4530   -0.5585   -0.3813 H   0  0  0  0  0  0  0  0  0  0  0  0
   -9.3534   -1.4157   -1.1216 H   0  0  0  0  0  0  0  0  0  0  0  0
  -10.4039   -2.8055   -0.9938 H   0  0  0  0  0  0  0  0  0  0  0  0
   -8.8738   -4.9880    5.9878 H   0  0  0  0  0  0  0  0  0  0  0  0
   -9.7565   -3.6513    6.7523 H   0  0  0  0  0  0  0  0  0  0  0  0
  -10.6303   -5.1139    6.2592 H   0  0  0  0  0  0  0  0  0  0  0  0
  -13.4873    0.3569    4.9243 H   0  0  0  0  0  0  0  0  0  0  0  0
  -11.9803    0.0539    4.0599 H   0  0  0  0  0  0  0  0  0  0  0  0
  -12.3754   -0.9031    5.5058 H   0  0  0  0  0  0  0  0  0  0  0  0
   -7.0955   -2.0001   -1.5973 H   0  0  0  0  0  0  0  0  0  0  0  0
   -5.2689   -3.5634    2.6206 H   0  0  0  0  0  0  0  0  0  0  0  0
   -3.8867   -3.0291   -3.4770 H   0  0  0  0  0  0  0  0  0  0  0  0
   -4.0072   -4.2001   -2.1563 H   0  0  0  0  0  0  0  0  0  0  0  0
   -5.4768   -3.6182   -2.9867 H   0  0  0  0  0  0  0  0  0  0  0  0
   -2.4622   -1.5826   -0.7363 H   0  0  0  0  0  0  0  0  0  0  0  0
   -1.3521   -1.7532    0.5384 H   0  0  0  0  0  0  0  0  0  0  0  0
   -3.4419   -5.3421    1.8498 H   0  0  0  0  0  0  0  0  0  0  0  0
   -0.4732   -1.5906    2.7710 H   0  0  0  0  0  0  0  0  0  0  0  0
   -0.8915   -1.5268    4.4365 H   0  0  0  0  0  0  0  0  0  0  0  0
   -1.0522   -3.1726    6.0072 H   0  0  0  0  0  0  0  0  0  0  0  0
   -3.0887   -7.0893    3.9250 H   0  0  0  0  0  0  0  0  0  0  0  0
   -4.8316    1.0458    2.8830 H   0  0  0  0  0  0  0  0  0  0  0  0
   -5.5726   -0.5195    2.5167 H   0  0  0  0  0  0  0  0  0  0  0  0
   -1.2468   -5.2417    7.2440 H   0  0  0  0  0  0  0  0  0  0  0  0
   -2.2247   -7.2074    6.2067 H   0  0  0  0  0  0  0  0  0  0  0  0
   -6.8454    1.4041   -0.6035 H   0  0  0  0  0  0  0  0  0  0  0  0
   -6.4589    1.9050    1.0452 H   0  0  0  0  0  0  0  0  0  0  0  0
   -7.0037    0.2429    0.7178 H   0  0  0  0  0  0  0  0  0  0  0  0
   -3.4675   -1.3108    5.4368 H   0  0  0  0  0  0  0  0  0  0  0  0
   -4.2801    0.2557    5.2515 H   0  0  0  0  0  0  0  0  0  0  0  0
   -5.1287   -1.2480    4.8371 H   0  0  0  0  0  0  0  0  0  0  0  0
    1.6621    1.7327    0.0558 H   0  0  0  0  0  0  0  0  0  0  0  0
    1.5714    0.3051   -0.9956 H   0  0  0  0  0  0  0  0  0  0  0  0
    2.1337    0.1291    0.6763 H   0  0  0  0  0  0  0  0  0  0  0  0
  1  2  1  0  0  0  0 
  1  3  1  0  0  0  0 
  1  4  1  0  0  0  0 
  1  5  1  0  0  0  0 
  2  6  1  0  0  0  0 
  2  7  1  0  0  0  0 
  2  8  1  0  0  0  0 
  3  9  2  0  0  0  0 
  3 10  1  0  0  0  0 
  4 11  1  0  0  0  0 
  4 12  2  0  0  0  0 
  5 13  1  0  0  0  0 
  6 14  1  0  0  0  0 
  6 15  1  0  0  0  0 
  6 16  1  0  0  0  0 
  7 17  1  0  0  0  0 
  7 18  1  0  0  0  0 
  9 19  1  0  0  0  0 
  9 20  1  0  0  0  0 
 10 21  1  0  0  0  0 
 11 22  1  0  0  0  0 
 13 14  1  0  0  0  0 
 13 17  1  0  0  0  0 
 13 23  1  0  0  0  0 
 15 24  1  0  0  0  0 
 18 20  1  0  0  0  0 
 19 21  1  0  0  0  0 
 19 25  2  0  0  0  0 
 21 26  2  0  0  0  0 
 25 27  1  0  0  0  0 
 26 28  1  0  0  0  0 
 27 28  2  0  0  0  0 
 27 29  1  0  0  0  0 
 28 30  1  0  0  0  0 
 29 31  1  0  0  0  0 
 30 32  1  0  0  0  0 
 30 33  1  0  0  0  0 
 30 34  1  0  0  0  0 
 32 35  2  0  0  0  0 
 32 36  1  0  0  0  0 
 33 37  1  0  0  0  0 
 35 38  1  0  0  0  0 
 35 39  1  0  0  0  0 
 36 40  1  0  0  0  0 
 37 41  1  0  0  0  0 
 37 42  1  0  0  0  0 
 37 43  1  0  0  0  0 
 38 40  1  0  0  0  0 
 38 44  2  0  0  0  0 
 39 45  1  0  0  0  0 
 40 46  2  0  0  0  0 
 41 45  1  0  0  0  0 
 41 47  1  0  0  0  0 
 41 48  1  0  0  0  0 
 42 49  2  0  0  0  0 
 42 50  1  0  0  0  0 
 44 51  1  0  0  0  0 
 45 52  1  0  0  0  0 
 45 53  1  0  0  0  0 
 46 54  1  0  0  0  0 
 47 55  1  0  0  0  0 
 47 56  2  0  0  0  0 
 49 57  1  0  0  0  0 
 49 58  1  0  0  0  0 
 50 52  1  0  0  0  0 
 51 54  2  0  0  0  0 
 52 59  1  0  0  0  0 
 55 60  1  0  0  0  0 
  5 61  1  0  0  0  0 
  5 62  1  0  0  0  0 
 10 63  1  0  0  0  0 
 14 64  1  0  0  0  0 
 14 65  1  0  0  0  0 
 15 66  1  0  0  0  0 
 15 67  1  0  0  0  0 
 17 68  1  0  0  0  0 
 17 69  1  0  0  0  0 
 18 70  1  0  0  0  0 
 18 71  1  0  0  0  0 
 20 72  1  0  0  0  0 
 20 73  1  0  0  0  0 
 22 74  1  0  0  0  0 
 22 75  1  0  0  0  0 
 22 76  1  0  0  0  0 
 24 77  1  0  0  0  0 
 24 78  1  0  0  0  0 
 24 79  1  0  0  0  0 
 25 80  1  0  0  0  0 
 26 81  1  0  0  0  0 
 31 82  1  0  0  0  0 
 31 83  1  0  0  0  0 
 31 84  1  0  0  0  0 
 33 85  1  0  0  0  0 
 33 86  1  0  0  0  0 
 36 87  1  0  0  0  0 
 39 88  1  0  0  0  0 
 39 89  1  0  0  0  0 
 44 90  1  0  0  0  0 
 46 91  1  0  0  0  0 
 50 92  1  0  0  0  0 
 50 93  1  0  0  0  0 
 51 94  1  0  0  0  0 
 54 95  1  0  0  0  0 
 57 96  1  0  0  0  0 
 57 97  1  0  0  0  0 
 57 98  1  0  0  0  0 
 59 99  1  0  0  0  0 
 59100  1  0  0  0  0 
 59101  1  0  0  0  0 
 60102  1  0  0  0  0 
 60103  1  0  0  0  0 
 60104  1  0  0  0  0 
M  END
> <cdk:Title>
voacamine

> <Conformer>
1

> <SuperDrugID>
SD003909

$$$$
