picilorex
  CDK     0628171801

 34 36  0  0  0  0  0  0  0  0999 V2000
    1.9682   -4.8184   -2.2449 C   0  0  1  0  0  0  0  0  0  0  0  0
    2.6209   -6.1205   -1.8881 C   0  0  0  0  0  0  0  0  0  0  0  0
    4.0328   -6.2178   -1.8224 C   0  0  0  0  0  0  0  0  0  0  0  0
    1.8575   -7.2742   -1.5817 C   0  0  0  0  0  0  0  0  0  0  0  0
    4.6612   -7.4268   -1.4748 C   0  0  0  0  0  0  0  0  0  0  0  0
    2.4826   -8.4838   -1.2287 C   0  0  0  0  0  0  0  0  0  0  0  0
    3.8875   -8.5645   -1.1779 C   0  0  0  0  0  0  0  0  0  0  0  0
    4.6441  -10.0183   -0.7536 Cl  0  0  0  0  0  0  0  0  0  0  0  0
    0.9541   -4.8494   -3.4177 C   0  0  1  0  0  0  0  0  0  0  0  0
    0.1939   -3.5943   -3.2685 N   0  0  1  0  0  0  0  0  0  0  0  0
    0.1413   -3.2640   -1.8271 C   0  0  2  0  0  0  0  0  0  0  0  0
    1.1365   -4.2032   -1.1026 C   0  0  2  0  0  0  0  0  0  0  0  0
    1.6044   -4.9555   -4.8180 C   0  0  0  0  0  0  0  0  0  0  0  0
   -1.3200   -3.4153   -1.3231 C   0  0  1  0  0  0  0  0  0  0  0  0
   -1.7841   -2.6445   -0.0769 C   0  0  2  0  0  0  0  0  0  0  0  0
   -2.2423   -2.1949   -1.4715 C   0  0  1  0  0  0  0  0  0  0  0  0
    2.7410   -4.0817   -2.5042 H   0  0  0  0  0  0  0  0  0  0  0  0
    4.6207   -5.4031   -2.0172 H   0  0  0  0  0  0  0  0  0  0  0  0
    0.8362   -7.2410   -1.6013 H   0  0  0  0  0  0  0  0  0  0  0  0
    5.6824   -7.4675   -1.4324 H   0  0  0  0  0  0  0  0  0  0  0  0
    1.9076   -9.2995   -1.0054 H   0  0  0  0  0  0  0  0  0  0  0  0
    0.2464   -5.6781   -3.3119 H   0  0  0  0  0  0  0  0  0  0  0  0
    0.7595   -2.8629   -3.7026 H   0  0  0  0  0  0  0  0  0  0  0  0
    0.4831   -2.2295   -1.7112 H   0  0  0  0  0  0  0  0  0  0  0  0
    1.7783   -3.6483   -0.4130 H   0  0  0  0  0  0  0  0  0  0  0  0
    0.6100   -4.9782   -0.5373 H   0  0  0  0  0  0  0  0  0  0  0  0
    0.8376   -4.8852   -5.5939 H   0  0  0  0  0  0  0  0  0  0  0  0
    2.1128   -5.9165   -4.9205 H   0  0  0  0  0  0  0  0  0  0  0  0
    2.3302   -4.1529   -4.9709 H   0  0  0  0  0  0  0  0  0  0  0  0
   -1.8174   -4.3758   -1.4705 H   0  0  0  0  0  0  0  0  0  0  0  0
   -1.0458   -2.0054    0.4085 H   0  0  0  0  0  0  0  0  0  0  0  0
   -2.5575   -3.1199    0.5302 H   0  0  0  0  0  0  0  0  0  0  0  0
   -1.7914   -1.2673   -1.8301 H   0  0  0  0  0  0  0  0  0  0  0  0
   -3.2844   -2.4062   -1.7151 H   0  0  0  0  0  0  0  0  0  0  0  0
  1  2  1  0  0  0  0 
  2  3  2  0  0  0  0 
  2  4  1  0  0  0  0 
  3  5  1  0  0  0  0 
  4  6  2  0  0  0  0 
  5  7  2  0  0  0  0 
  6  7  1  0  0  0  0 
  7  8  1  0  0  0  0 
  9 10  1  0  0  0  0 
 10 11  1  0  0  0  0 
 11 12  1  0  0  0  0 
  1  9  1  0  0  0  0 
  1 12  1  0  0  0  0 
  9 13  1  0  0  0  0 
 11 14  1  0  0  0  0 
 15 16  1  0  0  0  0 
 14 15  1  0  0  0  0 
 16 14  1  0  0  0  0 
  1 17  1  0  0  0  0 
  3 18  1  0  0  0  0 
  4 19  1  0  0  0  0 
  5 20  1  0  0  0  0 
  6 21  1  0  0  0  0 
  9 22  1  0  0  0  0 
 10 23  1  0  0  0  0 
 11 24  1  0  0  0  0 
 12 25  1  0  0  0  0 
 12 26  1  0  0  0  0 
 13 27  1  0  0  0  0 
 13 28  1  0  0  0  0 
 13 29  1  0  0  0  0 
 14 30  1  0  0  0  0 
 15 31  1  0  0  0  0 
 15 32  1  0  0  0  0 
 16 33  1  0  0  0  0 
 16 34  1  0  0  0  0 
M  END
> <cdk:Title>
picilorex

> <Conformer>
1

> <SuperDrugID>
SD003256

$$$$
