biperiden
  CDK     0628171801

 52 55  0  0  0  0  0  0  0  0999 V2000
   -3.0190    0.7716    0.4029 C   0  0  2  0  0  0  0  0  0  0  0  0
   -2.2354    1.4470    1.5854 C   0  0  2  0  0  0  0  0  0  0  0  0
   -2.3625   -0.4827    0.1618 O   0  0  0  0  0  0  0  0  0  0  0  0
   -2.9250    1.6277   -0.9298 C   0  0  2  0  0  0  0  0  0  0  0  0
   -4.4685    0.5474    0.7745 C   0  0  0  0  0  0  0  0  0  0  0  0
   -2.1584    0.6369    2.9199 C   0  0  2  0  0  0  0  0  0  0  0  0
   -3.7667    1.1138   -2.1589 C   0  0  1  0  0  0  0  0  0  0  0  0
   -1.5143    1.7852   -1.6065 C   0  0  1  0  0  0  0  0  0  0  0  0
   -5.0102   -0.7535    0.9624 C   0  0  0  0  0  0  0  0  0  0  0  0
   -5.3548    1.6461    0.9389 C   0  0  0  0  0  0  0  0  0  0  0  0
   -3.4631    0.4391    3.6413 N   0  0  2  0  0  0  0  0  0  0  0  0
   -3.1900    1.9464   -3.3261 C   0  0  1  0  0  0  0  0  0  0  0  0
   -3.3312   -0.2040   -2.5835 C   0  0  0  0  0  0  0  0  0  0  0  0
   -1.7920    1.3528   -3.0796 C   0  0  2  0  0  0  0  0  0  0  0  0
   -6.3763   -0.9485    1.2348 C   0  0  0  0  0  0  0  0  0  0  0  0
   -6.7233    1.4545    1.2004 C   0  0  0  0  0  0  0  0  0  0  0  0
   -3.9947    1.6791    4.2965 C   0  0  2  0  0  0  0  0  0  0  0  0
   -3.4312   -0.7110    4.6063 C   0  0  1  0  0  0  0  0  0  0  0  0
   -2.1236   -0.0583   -3.1298 C   0  0  0  0  0  0  0  0  0  0  0  0
   -7.2376    0.1550    1.3308 C   0  0  0  0  0  0  0  0  0  0  0  0
   -5.4189    1.4584    4.8638 C   0  0  2  0  0  0  0  0  0  0  0  0
   -4.8353   -1.0061    5.1968 C   0  0  1  0  0  0  0  0  0  0  0  0
   -5.4579    0.2584    5.8396 C   0  0  1  0  0  0  0  0  0  0  0  0
   -3.2781    2.6383   -0.6963 H   0  0  0  0  0  0  0  0  0  0  0  0
   -2.6455    2.4368    1.7836 H   0  0  0  0  0  0  0  0  0  0  0  0
   -1.2019    1.6099    1.2636 H   0  0  0  0  0  0  0  0  0  0  0  0
   -1.4218   -0.2714   -0.0118 H   0  0  0  0  0  0  0  0  0  0  0  0
   -1.4455    1.1296    3.5898 H   0  0  0  0  0  0  0  0  0  0  0  0
   -1.7209   -0.3339    2.6706 H   0  0  0  0  0  0  0  0  0  0  0  0
   -4.8507    1.2165   -2.0522 H   0  0  0  0  0  0  0  0  0  0  0  0
   -1.1813    2.8282   -1.5765 H   0  0  0  0  0  0  0  0  0  0  0  0
   -0.7368    1.1636   -1.1586 H   0  0  0  0  0  0  0  0  0  0  0  0
   -4.4184   -1.5851    0.9032 H   0  0  0  0  0  0  0  0  0  0  0  0
   -5.0165    2.6061    0.8648 H   0  0  0  0  0  0  0  0  0  0  0  0
   -3.6107    1.7062   -4.3136 H   0  0  0  0  0  0  0  0  0  0  0  0
   -3.2443    3.0305   -3.1713 H   0  0  0  0  0  0  0  0  0  0  0  0
   -3.8270   -1.0558   -2.4661 H   0  0  0  0  0  0  0  0  0  0  0  0
   -1.0321    1.6652   -3.8008 H   0  0  0  0  0  0  0  0  0  0  0  0
   -6.7426   -1.8943    1.3612 H   0  0  0  0  0  0  0  0  0  0  0  0
   -7.3433    2.2622    1.2922 H   0  0  0  0  0  0  0  0  0  0  0  0
   -4.0481    2.5008    3.5828 H   0  0  0  0  0  0  0  0  0  0  0  0
   -3.3285    1.9918    5.1058 H   0  0  0  0  0  0  0  0  0  0  0  0
   -3.0909   -1.6204    4.1035 H   0  0  0  0  0  0  0  0  0  0  0  0
   -2.7295   -0.5013    5.4206 H   0  0  0  0  0  0  0  0  0  0  0  0
   -1.5526   -0.7828   -3.4924 H   0  0  0  0  0  0  0  0  0  0  0  0
   -8.2336    0.0132    1.5050 H   0  0  0  0  0  0  0  0  0  0  0  0
   -6.1058    1.2655    4.0389 H   0  0  0  0  0  0  0  0  0  0  0  0
   -5.7498    2.3635    5.3791 H   0  0  0  0  0  0  0  0  0  0  0  0
   -5.4934   -1.3739    4.4033 H   0  0  0  0  0  0  0  0  0  0  0  0
   -4.7574   -1.7901    5.9536 H   0  0  0  0  0  0  0  0  0  0  0  0
   -4.9141    0.5141    6.7541 H   0  0  0  0  0  0  0  0  0  0  0  0
   -6.4939    0.0493    6.1182 H   0  0  0  0  0  0  0  0  0  0  0  0
  1  2  1  0  0  0  0 
  1  3  1  0  0  0  0 
  4  1  1  0  0  0  0 
  1  5  1  0  0  0  0 
  2  6  1  0  0  0  0 
  4  7  1  0  0  0  0 
  4  8  1  0  0  0  0 
  5  9  2  0  0  0  0 
  5 10  1  0  0  0  0 
  6 11  1  0  0  0  0 
  7 12  1  0  0  0  0 
  7 13  1  0  0  0  0 
  8 14  1  0  0  0  0 
  9 15  1  0  0  0  0 
 10 16  2  0  0  0  0 
 11 17  1  0  0  0  0 
 11 18  1  0  0  0  0 
 12 14  1  0  0  0  0 
 13 19  2  0  0  0  0 
 14 19  1  0  0  0  0 
 15 20  2  0  0  0  0 
 16 20  1  0  0  0  0 
 17 21  1  0  0  0  0 
 18 22  1  0  0  0  0 
 21 23  1  0  0  0  0 
 22 23  1  0  0  0  0 
  4 24  1  0  0  0  0 
  2 25  1  0  0  0  0 
  2 26  1  0  0  0  0 
  3 27  1  0  0  0  0 
  6 28  1  0  0  0  0 
  6 29  1  0  0  0  0 
  7 30  1  0  0  0  0 
  8 31  1  0  0  0  0 
  8 32  1  0  0  0  0 
  9 33  1  0  0  0  0 
 10 34  1  0  0  0  0 
 12 35  1  0  0  0  0 
 12 36  1  0  0  0  0 
 13 37  1  0  0  0  0 
 14 38  1  0  0  0  0 
 15 39  1  0  0  0  0 
 16 40  1  0  0  0  0 
 17 41  1  0  0  0  0 
 17 42  1  0  0  0  0 
 18 43  1  0  0  0  0 
 18 44  1  0  0  0  0 
 19 45  1  0  0  0  0 
 20 46  1  0  0  0  0 
 21 47  1  0  0  0  0 
 21 48  1  0  0  0  0 
 22 49  1  0  0  0  0 
 22 50  1  0  0  0  0 
 23 51  1  0  0  0  0 
 23 52  1  0  0  0  0 
M  END
> <cdk:Title>
biperiden

> <Conformer>
1

> <SuperDrugID>
SD000319

$$$$
