hexamidine
  CDK     0628171801

 52 53  0  0  0  0  0  0  0  0999 V2000
    4.3438   -9.9632   -3.3620 O   0  0  0  0  0  0  0  0  0  0  0  0
    3.4726   -9.7138   -2.2375 C   0  0  1  0  0  0  0  0  0  0  0  0
    4.5792   -8.8404   -4.1055 C   0  0  0  0  0  0  0  0  0  0  0  0
    3.1521  -11.0423   -1.5115 C   0  0  1  0  0  0  0  0  0  0  0  0
    5.6827   -8.0209   -3.8135 C   0  0  0  0  0  0  0  0  0  0  0  0
    3.7318   -8.5040   -5.1769 C   0  0  0  0  0  0  0  0  0  0  0  0
    2.4599  -12.0825   -2.4367 C   0  0  2  0  0  0  0  0  0  0  0  0
    5.8998   -6.8410   -4.5472 C   0  0  0  0  0  0  0  0  0  0  0  0
    3.9503   -7.3208   -5.9077 C   0  0  0  0  0  0  0  0  0  0  0  0
    2.1885  -13.4358   -1.7326 C   0  0  2  0  0  0  0  0  0  0  0  0
    5.0214   -6.4418   -5.5914 C   0  0  0  0  0  0  0  0  0  0  0  0
    1.5289  -14.4850   -2.6700 C   0  0  1  0  0  0  0  0  0  0  0  0
    5.1984   -5.2206   -6.2614 C   0  0  0  0  0  0  0  0  0  0  0  0
    1.2706  -15.8212   -1.9376 C   0  0  2  0  0  0  0  0  0  0  0  0
    6.2429   -4.4990   -6.0905 N   0  0  0  0  0  0  0  0  0  0  0  0
    4.2974   -4.7141   -7.0862 N   0  0  0  0  0  0  0  0  0  0  0  0
    0.6529  -16.7791   -2.8236 O   0  0  0  0  0  0  0  0  0  0  0  0
    0.3927  -17.9693   -2.1917 C   0  0  0  0  0  0  0  0  0  0  0  0
    1.3470  -19.0034   -2.1973 C   0  0  0  0  0  0  0  0  0  0  0  0
   -0.8279  -18.1669   -1.5195 C   0  0  0  0  0  0  0  0  0  0  0  0
    1.1004  -20.2018   -1.5015 C   0  0  0  0  0  0  0  0  0  0  0  0
   -1.0714  -19.3668   -0.8242 C   0  0  0  0  0  0  0  0  0  0  0  0
   -0.1094  -20.4116   -0.7858 C   0  0  0  0  0  0  0  0  0  0  0  0
   -0.3347  -21.5975   -0.0675 C   0  0  0  0  0  0  0  0  0  0  0  0
    0.5922  -22.4613    0.1240 N   0  0  0  0  0  0  0  0  0  0  0  0
   -1.5060  -21.9056    0.4628 N   0  0  0  0  0  0  0  0  0  0  0  0
    3.9602   -9.0366   -1.5275 H   0  0  0  0  0  0  0  0  0  0  0  0
    2.5309   -9.2569   -2.5615 H   0  0  0  0  0  0  0  0  0  0  0  0
    4.0846  -11.4580   -1.1201 H   0  0  0  0  0  0  0  0  0  0  0  0
    2.4993  -10.8244   -0.6610 H   0  0  0  0  0  0  0  0  0  0  0  0
    6.3219   -8.2812   -3.0589 H   0  0  0  0  0  0  0  0  0  0  0  0
    2.9494   -9.1178   -5.4184 H   0  0  0  0  0  0  0  0  0  0  0  0
    3.0962  -12.2656   -3.3063 H   0  0  0  0  0  0  0  0  0  0  0  0
    1.5114  -11.6660   -2.7874 H   0  0  0  0  0  0  0  0  0  0  0  0
    6.7087   -6.2690   -4.2932 H   0  0  0  0  0  0  0  0  0  0  0  0
    3.3057   -7.1120   -6.6736 H   0  0  0  0  0  0  0  0  0  0  0  0
    1.5355  -13.2586   -0.8735 H   0  0  0  0  0  0  0  0  0  0  0  0
    3.1374  -13.8355   -1.3635 H   0  0  0  0  0  0  0  0  0  0  0  0
    0.5789  -14.0929   -3.0428 H   0  0  0  0  0  0  0  0  0  0  0  0
    2.1826  -14.6694   -3.5268 H   0  0  0  0  0  0  0  0  0  0  0  0
    0.6189  -15.6231   -1.0809 H   0  0  0  0  0  0  0  0  0  0  0  0
    2.2276  -16.2071   -1.5724 H   0  0  0  0  0  0  0  0  0  0  0  0
    6.3383   -3.6781   -6.5282 H   0  0  0  0  0  0  0  0  0  0  0  0
    3.4587   -5.1753   -7.2444 H   0  0  0  0  0  0  0  0  0  0  0  0
    4.4673   -3.8680   -7.5322 H   0  0  0  0  0  0  0  0  0  0  0  0
    2.2292  -18.8762   -2.6988 H   0  0  0  0  0  0  0  0  0  0  0  0
   -1.5356  -17.4282   -1.5231 H   0  0  0  0  0  0  0  0  0  0  0  0
    1.8267  -20.9219   -1.5246 H   0  0  0  0  0  0  0  0  0  0  0  0
   -1.9652  -19.4558   -0.3364 H   0  0  0  0  0  0  0  0  0  0  0  0
    0.4267  -23.2473    0.6039 H   0  0  0  0  0  0  0  0  0  0  0  0
   -2.2652  -21.3101    0.3599 H   0  0  0  0  0  0  0  0  0  0  0  0
   -1.6140  -22.7346    0.9581 H   0  0  0  0  0  0  0  0  0  0  0  0
  1  2  1  0  0  0  0 
  1  3  1  0  0  0  0 
  2  4  1  0  0  0  0 
  3  5  2  0  0  0  0 
  3  6  1  0  0  0  0 
  4  7  1  0  0  0  0 
  5  8  1  0  0  0  0 
  6  9  2  0  0  0  0 
  7 10  1  0  0  0  0 
  8 11  2  0  0  0  0 
  9 11  1  0  0  0  0 
 10 12  1  0  0  0  0 
 11 13  1  0  0  0  0 
 12 14  1  0  0  0  0 
 13 15  2  0  0  0  0 
 13 16  1  0  0  0  0 
 14 17  1  0  0  0  0 
 17 18  1  0  0  0  0 
 18 19  2  0  0  0  0 
 18 20  1  0  0  0  0 
 19 21  1  0  0  0  0 
 20 22  2  0  0  0  0 
 21 23  2  0  0  0  0 
 22 23  1  0  0  0  0 
 23 24  1  0  0  0  0 
 24 25  2  0  0  0  0 
 24 26  1  0  0  0  0 
  2 27  1  0  0  0  0 
  2 28  1  0  0  0  0 
  4 29  1  0  0  0  0 
  4 30  1  0  0  0  0 
  5 31  1  0  0  0  0 
  6 32  1  0  0  0  0 
  7 33  1  0  0  0  0 
  7 34  1  0  0  0  0 
  8 35  1  0  0  0  0 
  9 36  1  0  0  0  0 
 10 37  1  0  0  0  0 
 10 38  1  0  0  0  0 
 12 39  1  0  0  0  0 
 12 40  1  0  0  0  0 
 14 41  1  0  0  0  0 
 14 42  1  0  0  0  0 
 15 43  1  0  0  0  0 
 16 44  1  0  0  0  0 
 16 45  1  0  0  0  0 
 19 46  1  0  0  0  0 
 20 47  1  0  0  0  0 
 21 48  1  0  0  0  0 
 22 49  1  0  0  0  0 
 25 50  1  0  0  0  0 
 26 51  1  0  0  0  0 
 26 52  1  0  0  0  0 
M  END
> <cdk:Title>
hexamidine

> <Conformer>
1

> <SuperDrugID>
SD002830

$$$$
