fluorodopa (18F)
  CDK     0628171801

 25 25  0  0  0  0  0  0  0  0999 V2000
    5.0582   -1.5231   -0.4913 C   0  0  1  0  0  0  0  0  0  0  0  0
    5.6364   -1.9670    0.8908 C   0  0  1  0  0  0  0  0  0  0  0  0
    3.8434   -0.6486   -0.4652 C   0  0  0  0  0  0  0  0  0  0  0  0
    6.2884   -0.9156    1.7072 C   0  0  0  0  0  0  0  0  0  0  0  0
    4.6376   -2.6566    1.7173 N   0  0  2  0  0  0  0  0  0  0  0  0
    2.5499   -1.1782   -0.2153 C   0  0  0  0  0  0  0  0  0  0  0  0
    3.9477    0.7384   -0.7417 C   0  0  0  0  0  0  0  0  0  0  0  0
    6.3960    0.3701    1.3009 O   0  0  0  0  0  0  0  0  0  0  0  0
    6.8036   -1.2117    2.8103 O   0  0  0  0  0  0  0  0  0  0  0  0
    2.3547   -2.4511    0.0048 F   0  0  0  0  0  0  0  0  0  0  0  0
    1.4157   -0.3443   -0.2121 C   0  0  0  0  0  0  0  0  0  0  0  0
    2.8125    1.5749   -0.7557 C   0  0  0  0  0  0  0  0  0  0  0  0
    1.5425    1.0292   -0.4831 C   0  0  0  0  0  0  0  0  0  0  0  0
    2.9335    2.9005   -1.0309 O   0  0  0  0  0  0  0  0  0  0  0  0
    0.4222    1.7947   -0.4914 O   0  0  0  0  0  0  0  0  0  0  0  0
    5.8591   -1.0336   -1.0527 H   0  0  0  0  0  0  0  0  0  0  0  0
    4.8157   -2.4222   -1.0649 H   0  0  0  0  0  0  0  0  0  0  0  0
    6.4129   -2.7076    0.6780 H   0  0  0  0  0  0  0  0  0  0  0  0
    4.2356   -3.3996    1.1425 H   0  0  0  0  0  0  0  0  0  0  0  0
    3.8906   -1.9881    1.9166 H   0  0  0  0  0  0  0  0  0  0  0  0
    4.8605    1.1547   -0.9394 H   0  0  0  0  0  0  0  0  0  0  0  0
    6.8650    1.0266    1.8593 H   0  0  0  0  0  0  0  0  0  0  0  0
    0.4909   -0.7407   -0.0206 H   0  0  0  0  0  0  0  0  0  0  0  0
    3.8286    3.0156   -1.4177 H   0  0  0  0  0  0  0  0  0  0  0  0
    0.6550    2.6034   -0.9954 H   0  0  0  0  0  0  0  0  0  0  0  0
  2  1  1  0  0  0  0 
  1  3  1  0  0  0  0 
  2  4  1  0  0  0  0 
  2  5  1  0  0  0  0 
  3  6  2  0  0  0  0 
  3  7  1  0  0  0  0 
  4  8  1  0  0  0  0 
  4  9  2  0  0  0  0 
  6 10  1  0  0  0  0 
  6 11  1  0  0  0  0 
  7 12  2  0  0  0  0 
 11 13  2  0  0  0  0 
 12 13  1  0  0  0  0 
 12 14  1  0  0  0  0 
 13 15  1  0  0  0  0 
  1 16  1  0  0  0  0 
  1 17  1  0  0  0  0 
  2 18  1  0  0  0  0 
  5 19  1  0  0  0  0 
  5 20  1  0  0  0  0 
  7 21  1  0  0  0  0 
  8 22  1  0  0  0  0 
 11 23  1  0  0  0  0 
 14 24  1  0  0  0  0 
 15 25  1  0  0  0  0 
M  ISO  1  10  18
M  END
> <cdk:Title>
fluorodopa (18F)

> <Conformer>
1

> <SuperDrugID>
SD003617

$$$$
