allopurinol
  CDK     0628171801

 14 15  0  0  0  0  0  0  0  0999 V2000
   -0.3840    2.5064   -0.0014 C   0  0  0  0  0  0  0  0  0  0  0  0
   -0.7218    1.1639   -0.0001 C   0  0  0  0  0  0  0  0  0  0  0  0
   -2.1084    1.1252    0.0014 C   0  0  0  0  0  0  0  0  0  0  0  0
   -2.5745    2.3847    0.0017 N   0  0  0  0  0  0  0  0  0  0  0  0
   -1.5465    3.1841    0.0000 N   0  0  0  0  0  0  0  0  0  0  0  0
   -2.7761   -0.0545    0.0034 N   0  0  0  0  0  0  0  0  0  0  0  0
   -2.0711   -1.2205    0.0008 C   0  0  0  0  0  0  0  0  0  0  0  0
   -0.7050   -1.2069   -0.0038 N   0  0  0  0  0  0  0  0  0  0  0  0
    0.0009   -0.0406    0.0006 C   0  0  0  0  0  0  0  0  0  0  0  0
    1.2520   -0.0583    0.0115 O   0  0  0  0  0  0  0  0  0  0  0  0
    0.5550    2.9079   -0.0034 H   0  0  0  0  0  0  0  0  0  0  0  0
   -1.6135    4.1519   -0.0027 H   0  0  0  0  0  0  0  0  0  0  0  0
   -2.5681   -2.1114    0.0014 H   0  0  0  0  0  0  0  0  0  0  0  0
   -0.2253   -2.0502   -0.0094 H   0  0  0  0  0  0  0  0  0  0  0  0
  1  2  2  0  0  0  0 
  2  3  1  0  0  0  0 
  3  4  2  0  0  0  0 
  4  5  1  0  0  0  0 
  1  5  1  0  0  0  0 
  3  6  1  0  0  0  0 
  6  7  2  0  0  0  0 
  7  8  1  0  0  0  0 
  8  9  1  0  0  0  0 
  2  9  1  0  0  0  0 
 10  9  2  0  0  0  0 
 11  1  1  0  0  0  0 
 12  5  1  0  0  0  0 
 13  7  1  0  0  0  0 
 14  8  1  0  0  0  0 
M  END
> <cdk:Title>
allopurinol

> <Conformer>
1

> <SuperDrugID>
SD000094

$$$$
