vardenafil
  CDK     0628171801

 66 69  0  0  0  0  0  0  0  0999 V2000
    6.0647   -5.1397   -3.0962 C   0  0  0  0  0  0  0  0  0  0  0  0
    4.5330   -5.3033   -3.2229 C   0  0  1  0  0  0  0  0  0  0  0  0
    3.7866   -5.2024   -1.8673 C   0  0  2  0  0  0  0  0  0  0  0  0
    2.3245   -5.3266   -2.0472 C   0  0  0  0  0  0  0  0  0  0  0  0
    1.6481   -6.4945   -2.0209 N   0  0  0  0  0  0  0  0  0  0  0  0
    0.3507   -6.2370   -2.2736 C   0  0  0  0  0  0  0  0  0  0  0  0
   -0.7605   -7.2591   -2.3624 C   0  0  0  0  0  0  0  0  0  0  0  0
    0.2380   -4.8620   -2.4518 C   0  0  0  0  0  0  0  0  0  0  0  0
    1.4630   -4.3248   -2.3075 N   0  0  0  0  0  0  0  0  0  0  0  0
    1.6998   -3.0421   -2.4404 N   0  0  0  0  0  0  0  0  0  0  0  0
    0.6859   -2.1908   -2.7638 C   0  0  0  0  0  0  0  0  0  0  0  0
   -0.5729   -2.6947   -2.9143 N   0  0  0  0  0  0  0  0  0  0  0  0
   -0.8435   -4.0167   -2.7539 C   0  0  0  0  0  0  0  0  0  0  0  0
   -2.0146   -4.4346   -2.8896 O   0  0  0  0  0  0  0  0  0  0  0  0
    0.9229   -0.8201   -2.9863 C   0  0  0  0  0  0  0  0  0  0  0  0
    0.6151   -0.2753   -4.2519 C   0  0  0  0  0  0  0  0  0  0  0  0
    0.8206    1.0890   -4.5385 C   0  0  0  0  0  0  0  0  0  0  0  0
    1.3708    1.9105   -3.5314 C   0  0  0  0  0  0  0  0  0  0  0  0
    1.6823    1.3852   -2.2637 C   0  0  0  0  0  0  0  0  0  0  0  0
    1.4479    0.0249   -1.9790 C   0  0  0  0  0  0  0  0  0  0  0  0
    1.7365   -0.4583   -0.7280 O   0  0  0  0  0  0  0  0  0  0  0  0
    0.6129   -0.4147    0.1782 C   0  0  1  0  0  0  0  0  0  0  0  0
    0.9894   -1.1377    1.4847 C   0  0  0  0  0  0  0  0  0  0  0  0
    0.4027    1.8188   -6.1068 S   0  0  2  0  0  0  0  0  0  0  0  0
    1.6991    2.5527   -6.7056 O   0  0  0  0  0  0  0  0  0  0  0  0
   -0.6979    2.9609   -5.8554 O   0  0  0  0  0  0  0  0  0  0  0  0
   -0.2351    0.7210   -7.3528 N   0  0  1  0  0  0  0  0  0  0  0  0
    0.7678   -0.2558   -7.8691 C   0  0  1  0  0  0  0  0  0  0  0  0
    0.1732   -1.2064   -8.9367 C   0  0  1  0  0  0  0  0  0  0  0  0
   -1.0650   -1.8484   -8.3964 N   0  0  2  0  0  0  0  0  0  0  0  0
   -1.6057   -3.0014   -9.1848 C   0  0  2  0  0  0  0  0  0  0  0  0
   -0.6587   -4.2193   -9.2706 C   0  0  0  0  0  0  0  0  0  0  0  0
   -2.1004   -0.8038   -8.1218 C   0  0  2  0  0  0  0  0  0  0  0  0
   -1.6003    0.1980   -7.0525 C   0  0  1  0  0  0  0  0  0  0  0  0
    6.3103   -4.1507   -2.7048 H   0  0  0  0  0  0  0  0  0  0  0  0
    6.4779   -5.9006   -2.4314 H   0  0  0  0  0  0  0  0  0  0  0  0
    6.5269   -5.2487   -4.0796 H   0  0  0  0  0  0  0  0  0  0  0  0
    4.1611   -4.5309   -3.9020 H   0  0  0  0  0  0  0  0  0  0  0  0
    4.3245   -6.2770   -3.6750 H   0  0  0  0  0  0  0  0  0  0  0  0
    4.0093   -4.2448   -1.3936 H   0  0  0  0  0  0  0  0  0  0  0  0
    4.1319   -5.9944   -1.1994 H   0  0  0  0  0  0  0  0  0  0  0  0
   -1.1567   -7.1422   -3.4133 H   0  0  0  0  0  0  0  0  0  0  0  0
   -0.2421   -8.2620   -2.3948 H   0  0  0  0  0  0  0  0  0  0  0  0
   -1.6078   -7.1782   -1.5098 H   0  0  0  0  0  0  0  0  0  0  0  0
   -1.2971   -2.0896   -3.1430 H   0  0  0  0  0  0  0  0  0  0  0  0
    0.2439   -0.8910   -4.9689 H   0  0  0  0  0  0  0  0  0  0  0  0
    1.5437    2.9020   -3.7106 H   0  0  0  0  0  0  0  0  0  0  0  0
    2.0777    1.9966   -1.5442 H   0  0  0  0  0  0  0  0  0  0  0  0
    0.3533    0.6223    0.4120 H   0  0  0  0  0  0  0  0  0  0  0  0
   -0.2653   -0.9091   -0.2504 H   0  0  0  0  0  0  0  0  0  0  0  0
    0.1377   -1.1518    2.1677 H   0  0  0  0  0  0  0  0  0  0  0  0
    1.8191   -0.6199    1.9675 H   0  0  0  0  0  0  0  0  0  0  0  0
    1.2865   -2.1666    1.2736 H   0  0  0  0  0  0  0  0  0  0  0  0
    1.5991    0.2914   -8.3245 H   0  0  0  0  0  0  0  0  0  0  0  0
    1.1676   -0.8650   -7.0574 H   0  0  0  0  0  0  0  0  0  0  0  0
   -0.0461   -0.6510   -9.8557 H   0  0  0  0  0  0  0  0  0  0  0  0
    0.9384   -1.9474   -9.1711 H   0  0  0  0  0  0  0  0  0  0  0  0
   -1.8746   -2.6860  -10.1957 H   0  0  0  0  0  0  0  0  0  0  0  0
   -2.5171   -3.3614   -8.6978 H   0  0  0  0  0  0  0  0  0  0  0  0
   -1.2032   -5.0793   -9.6664 H   0  0  0  0  0  0  0  0  0  0  0  0
    0.1777   -4.0144   -9.9402 H   0  0  0  0  0  0  0  0  0  0  0  0
   -0.2733   -4.4716   -8.2805 H   0  0  0  0  0  0  0  0  0  0  0  0
   -3.0208   -1.2626   -7.7481 H   0  0  0  0  0  0  0  0  0  0  0  0
   -2.3504   -0.2629   -9.0403 H   0  0  0  0  0  0  0  0  0  0  0  0
   -1.6279   -0.2960   -6.0822 H   0  0  0  0  0  0  0  0  0  0  0  0
   -2.3024    1.0350   -7.0129 H   0  0  0  0  0  0  0  0  0  0  0  0
  1  2  1  0  0  0  0 
  2  3  1  0  0  0  0 
  3  4  1  0  0  0  0 
  4  5  2  0  0  0  0 
  5  6  1  0  0  0  0 
  6  7  1  0  0  0  0 
  6  8  2  0  0  0  0 
  8  9  1  0  0  0  0 
  4  9  1  0  0  0  0 
  9 10  1  0  0  0  0 
 10 11  2  0  0  0  0 
 11 12  1  0  0  0  0 
 12 13  1  0  0  0  0 
  8 13  1  0  0  0  0 
 13 14  2  0  0  0  0 
 11 15  1  0  0  0  0 
 15 16  2  0  0  0  0 
 16 17  1  0  0  0  0 
 17 18  2  0  0  0  0 
 18 19  1  0  0  0  0 
 19 20  2  0  0  0  0 
 15 20  1  0  0  0  0 
 20 21  1  0  0  0  0 
 21 22  1  0  0  0  0 
 22 23  1  0  0  0  0 
 17 24  1  0  0  0  0 
 24 25  2  0  0  0  0 
 24 26  2  0  0  0  0 
 24 27  1  0  0  0  0 
 27 28  1  0  0  0  0 
 28 29  1  0  0  0  0 
 29 30  1  0  0  0  0 
 30 31  1  0  0  0  0 
 31 32  1  0  0  0  0 
 30 33  1  0  0  0  0 
 33 34  1  0  0  0  0 
 27 34  1  0  0  0  0 
 35  1  1  0  0  0  0 
 36  1  1  0  0  0  0 
 37  1  1  0  0  0  0 
 38  2  1  0  0  0  0 
 39  2  1  0  0  0  0 
 40  3  1  0  0  0  0 
 41  3  1  0  0  0  0 
 42  7  1  0  0  0  0 
 43  7  1  0  0  0  0 
 44  7  1  0  0  0  0 
 45 12  1  0  0  0  0 
 46 16  1  0  0  0  0 
 47 18  1  0  0  0  0 
 48 19  1  0  0  0  0 
 49 22  1  0  0  0  0 
 50 22  1  0  0  0  0 
 51 23  1  0  0  0  0 
 52 23  1  0  0  0  0 
 53 23  1  0  0  0  0 
 54 28  1  0  0  0  0 
 55 28  1  0  0  0  0 
 56 29  1  0  0  0  0 
 57 29  1  0  0  0  0 
 58 31  1  0  0  0  0 
 59 31  1  0  0  0  0 
 60 32  1  0  0  0  0 
 61 32  1  0  0  0  0 
 62 32  1  0  0  0  0 
 63 33  1  0  0  0  0 
 64 33  1  0  0  0  0 
 65 34  1  0  0  0  0 
 66 34  1  0  0  0  0 
M  END
> <cdk:Title>
vardenafil

> <Conformer>
1

> <SuperDrugID>
SD002534

$$$$
