acexamic acid
  CDK     0628171801

 27 26  0  0  0  0  0  0  0  0999 V2000
   -1.2566    0.4088   -0.2049 C   0  0  2  0  0  0  0  0  0  0  0  0
    0.1012    0.5920   -0.9340 C   0  0  2  0  0  0  0  0  0  0  0  0
   -1.6463   -1.0894   -0.0574 C   0  0  2  0  0  0  0  0  0  0  0  0
    0.4412    2.0048   -1.1808 C   0  0  0  0  0  0  0  0  0  0  0  0
   -2.8394   -1.3043    0.9090 C   0  0  1  0  0  0  0  0  0  0  0  0
    0.6695    2.4485   -2.4362 O   0  0  0  0  0  0  0  0  0  0  0  0
    0.5445    2.8154   -0.2323 O   0  0  0  0  0  0  0  0  0  0  0  0
   -3.3706   -2.7595    0.9118 C   0  0  2  0  0  0  0  0  0  0  0  0
   -4.2964   -2.9414    1.9846 N   0  0  0  0  0  0  0  0  0  0  0  0
   -5.0142   -4.0726    2.2138 C   0  0  0  0  0  0  0  0  0  0  0  0
   -5.8751   -4.1689    3.4034 C   0  0  0  0  0  0  0  0  0  0  0  0
   -4.9498   -5.0581    1.4402 O   0  0  0  0  0  0  0  0  0  0  0  0
   -2.0438    0.9278   -0.7623 H   0  0  0  0  0  0  0  0  0  0  0  0
   -1.1890    0.8646    0.7876 H   0  0  0  0  0  0  0  0  0  0  0  0
    0.0707    0.0595   -1.8891 H   0  0  0  0  0  0  0  0  0  0  0  0
    0.8976    0.1526   -0.3286 H   0  0  0  0  0  0  0  0  0  0  0  0
   -0.7897   -1.6489    0.3280 H   0  0  0  0  0  0  0  0  0  0  0  0
   -1.8943   -1.4882   -1.0454 H   0  0  0  0  0  0  0  0  0  0  0  0
   -2.5141   -1.0394    1.9192 H   0  0  0  0  0  0  0  0  0  0  0  0
   -3.6611   -0.6398    0.6308 H   0  0  0  0  0  0  0  0  0  0  0  0
    0.9089    3.3860   -2.5928 H   0  0  0  0  0  0  0  0  0  0  0  0
   -2.5439   -3.4631    1.0468 H   0  0  0  0  0  0  0  0  0  0  0  0
   -3.8593   -2.9666   -0.0449 H   0  0  0  0  0  0  0  0  0  0  0  0
   -4.3968   -2.2110    2.6170 H   0  0  0  0  0  0  0  0  0  0  0  0
   -5.5131   -4.9726    4.0448 H   0  0  0  0  0  0  0  0  0  0  0  0
   -5.8689   -3.2411    3.9783 H   0  0  0  0  0  0  0  0  0  0  0  0
   -6.9034   -4.3842    3.1079 H   0  0  0  0  0  0  0  0  0  0  0  0
  1  2  1  0  0  0  0 
  1  3  1  0  0  0  0 
  2  4  1  0  0  0  0 
  3  5  1  0  0  0  0 
  4  6  1  0  0  0  0 
  4  7  2  0  0  0  0 
  5  8  1  0  0  0  0 
  8  9  1  0  0  0  0 
  9 10  1  0  0  0  0 
 10 11  1  0  0  0  0 
 10 12  2  0  0  0  0 
  1 13  1  0  0  0  0 
  1 14  1  0  0  0  0 
  2 15  1  0  0  0  0 
  2 16  1  0  0  0  0 
  3 17  1  0  0  0  0 
  3 18  1  0  0  0  0 
  5 19  1  0  0  0  0 
  5 20  1  0  0  0  0 
  6 21  1  0  0  0  0 
  8 22  1  0  0  0  0 
  8 23  1  0  0  0  0 
  9 24  1  0  0  0  0 
 11 25  1  0  0  0  0 
 11 26  1  0  0  0  0 
 11 27  1  0  0  0  0 
M  END
> <cdk:Title>
acexamic acid

> <Conformer>
1

> <SuperDrugID>
SD002613

$$$$
