mepixanox
  CDK     0628171801

 45 48  0  0  0  0  0  0  0  0999 V2000
   -0.6474    0.6713    1.9857 C   0  0  2  0  0  0  0  0  0  0  0  0
   -1.8165    1.5203    2.3817 C   0  0  0  0  0  0  0  0  0  0  0  0
    0.0677    1.1238    0.7437 N   0  0  2  0  0  0  0  0  0  0  0  0
   -1.6594    2.5631    3.3350 C   0  0  0  0  0  0  0  0  0  0  0  0
   -3.1045    1.3012    1.8226 C   0  0  0  0  0  0  0  0  0  0  0  0
    1.0478    0.0931    0.2591 C   0  0  2  0  0  0  0  0  0  0  0  0
    0.7037    2.4774    0.8698 C   0  0  1  0  0  0  0  0  0  0  0  0
   -2.7462    3.4001    3.7064 C   0  0  0  0  0  0  0  0  0  0  0  0
   -0.4408    2.7896    3.9101 O   0  0  0  0  0  0  0  0  0  0  0  0
   -3.3295    0.2953    0.9146 O   0  0  0  0  0  0  0  0  0  0  0  0
   -4.1996    2.0878    2.2398 C   0  0  0  0  0  0  0  0  0  0  0  0
    1.7053    0.4992   -1.0841 C   0  0  2  0  0  0  0  0  0  0  0  0
    1.3454    2.9463   -0.4590 C   0  0  1  0  0  0  0  0  0  0  0  0
   -2.5114    4.4682    4.6097 C   0  0  0  0  0  0  0  0  0  0  0  0
   -4.0208    3.1326    3.1598 C   0  0  0  0  0  0  0  0  0  0  0  0
   -0.1922    3.7786    4.8131 C   0  0  0  0  0  0  0  0  0  0  0  0
   -3.3682    0.7510   -0.4512 C   0  0  0  0  0  0  0  0  0  0  0  0
    2.3569    1.9010   -0.9868 C   0  0  1  0  0  0  0  0  0  0  0  0
   -3.4487    5.2473    4.9100 O   0  0  0  0  0  0  0  0  0  0  0  0
   -1.2321    4.6695    5.1815 C   0  0  0  0  0  0  0  0  0  0  0  0
    1.0918    3.9001    5.3767 C   0  0  0  0  0  0  0  0  0  0  0  0
   -0.9475    5.6989    6.1114 C   0  0  0  0  0  0  0  0  0  0  0  0
    1.3526    4.9154    6.3138 C   0  0  0  0  0  0  0  0  0  0  0  0
    0.3356    5.8172    6.6764 C   0  0  0  0  0  0  0  0  0  0  0  0
   -1.0135   -0.3496    1.8443 H   0  0  0  0  0  0  0  0  0  0  0  0
    0.0679    0.6074    2.8110 H   0  0  0  0  0  0  0  0  0  0  0  0
    0.5357   -0.8587    0.0965 H   0  0  0  0  0  0  0  0  0  0  0  0
    1.8327   -0.0724    1.0059 H   0  0  0  0  0  0  0  0  0  0  0  0
   -0.0456    3.2248    1.1340 H   0  0  0  0  0  0  0  0  0  0  0  0
    1.4642    2.4649    1.6572 H   0  0  0  0  0  0  0  0  0  0  0  0
   -5.1358    1.9022    1.8702 H   0  0  0  0  0  0  0  0  0  0  0  0
    0.9451    0.5090   -1.8709 H   0  0  0  0  0  0  0  0  0  0  0  0
    2.4658   -0.2380   -1.3595 H   0  0  0  0  0  0  0  0  0  0  0  0
    0.5591    3.1004   -1.2038 H   0  0  0  0  0  0  0  0  0  0  0  0
    1.8525    3.9024   -0.3036 H   0  0  0  0  0  0  0  0  0  0  0  0
   -4.8331    3.6942    3.4284 H   0  0  0  0  0  0  0  0  0  0  0  0
   -3.5893   -0.1080   -1.0846 H   0  0  0  0  0  0  0  0  0  0  0  0
   -4.1566    1.4926   -0.6068 H   0  0  0  0  0  0  0  0  0  0  0  0
   -2.4081    1.1702   -0.7654 H   0  0  0  0  0  0  0  0  0  0  0  0
    3.2179    1.8573   -0.3128 H   0  0  0  0  0  0  0  0  0  0  0  0
    2.7160    2.2058   -1.9742 H   0  0  0  0  0  0  0  0  0  0  0  0
    1.8332    3.2485    5.1078 H   0  0  0  0  0  0  0  0  0  0  0  0
   -1.6718    6.3623    6.3960 H   0  0  0  0  0  0  0  0  0  0  0  0
    2.2804    4.9951    6.7350 H   0  0  0  0  0  0  0  0  0  0  0  0
    0.5262    6.5565    7.3561 H   0  0  0  0  0  0  0  0  0  0  0  0
  1  2  1  0  0  0  0 
  1  3  1  0  0  0  0 
  2  4  2  0  0  0  0 
  2  5  1  0  0  0  0 
  3  6  1  0  0  0  0 
  3  7  1  0  0  0  0 
  4  8  1  0  0  0  0 
  4  9  1  0  0  0  0 
  5 10  1  0  0  0  0 
  5 11  2  0  0  0  0 
  6 12  1  0  0  0  0 
  7 13  1  0  0  0  0 
  8 14  1  0  0  0  0 
  8 15  2  0  0  0  0 
  9 16  1  0  0  0  0 
 10 17  1  0  0  0  0 
 11 15  1  0  0  0  0 
 12 18  1  0  0  0  0 
 13 18  1  0  0  0  0 
 14 19  2  0  0  0  0 
 14 20  1  0  0  0  0 
 16 20  1  0  0  0  0 
 16 21  2  0  0  0  0 
 20 22  2  0  0  0  0 
 21 23  1  0  0  0  0 
 22 24  1  0  0  0  0 
 23 24  2  0  0  0  0 
  1 25  1  0  0  0  0 
  1 26  1  0  0  0  0 
  6 27  1  0  0  0  0 
  6 28  1  0  0  0  0 
  7 29  1  0  0  0  0 
  7 30  1  0  0  0  0 
 11 31  1  0  0  0  0 
 12 32  1  0  0  0  0 
 12 33  1  0  0  0  0 
 13 34  1  0  0  0  0 
 13 35  1  0  0  0  0 
 15 36  1  0  0  0  0 
 17 37  1  0  0  0  0 
 17 38  1  0  0  0  0 
 17 39  1  0  0  0  0 
 18 40  1  0  0  0  0 
 18 41  1  0  0  0  0 
 21 42  1  0  0  0  0 
 22 43  1  0  0  0  0 
 23 44  1  0  0  0  0 
 24 45  1  0  0  0  0 
M  END
> <cdk:Title>
mepixanox

> <Conformer>
1

> <SuperDrugID>
SD001505

$$$$
