amifampridine
  CDK     0628171801

 15 15  0  0  0  0  0  0  0  0999 V2000
    2.4517   -0.2141   -2.9811 N   0  0  0  0  0  0  0  0  0  0  0  0
    1.3391    0.4970   -2.7014 C   0  0  0  0  0  0  0  0  0  0  0  0
    0.7388    0.4559   -1.4211 C   0  0  0  0  0  0  0  0  0  0  0  0
    0.7699    1.3019   -3.7100 C   0  0  0  0  0  0  0  0  0  0  0  0
    1.2493   -0.2914   -0.4196 N   0  0  0  0  0  0  0  0  0  0  0  0
   -0.4231    1.2205   -1.1928 C   0  0  0  0  0  0  0  0  0  0  0  0
   -0.3931    2.0408   -3.4270 C   0  0  0  0  0  0  0  0  0  0  0  0
   -0.9461    1.9785   -2.1899 N   0  0  0  0  0  0  0  0  0  0  0  0
    2.8609   -0.7691   -2.2992 H   0  0  0  0  0  0  0  0  0  0  0  0
    2.8502   -0.1682   -3.8650 H   0  0  0  0  0  0  0  0  0  0  0  0
    1.1908    1.3528   -4.6406 H   0  0  0  0  0  0  0  0  0  0  0  0
    0.8167   -0.3041    0.4497 H   0  0  0  0  0  0  0  0  0  0  0  0
    2.0477   -0.8218   -0.5666 H   0  0  0  0  0  0  0  0  0  0  0  0
   -0.8846    1.2170   -0.2815 H   0  0  0  0  0  0  0  0  0  0  0  0
   -0.8270    2.6224   -4.1470 H   0  0  0  0  0  0  0  0  0  0  0  0
  1  2  1  0  0  0  0 
  2  3  2  0  0  0  0 
  2  4  1  0  0  0  0 
  3  5  1  0  0  0  0 
  3  6  1  0  0  0  0 
  4  7  2  0  0  0  0 
  6  8  2  0  0  0  0 
  7  8  1  0  0  0  0 
  1  9  1  0  0  0  0 
  1 10  1  0  0  0  0 
  4 11  1  0  0  0  0 
  5 12  1  0  0  0  0 
  5 13  1  0  0  0  0 
  6 14  1  0  0  0  0 
  7 15  1  0  0  0  0 
M  END
> <cdk:Title>
amifampridine

> <Conformer>
1

> <SuperDrugID>
SD003506

$$$$
