protocatechualdehyde
  CDK     0628171802

 16 16  0  0  0  0  0  0  0  0999 V2000
    1.4415    0.1197   -0.0785 C   0  0  0  0  0  0  0  0  0  0  0  0
    2.3673    0.9598   -0.1506 O   0  0  0  0  0  0  0  0  0  0  0  0
    0.0763    0.4902    0.0280 C   0  0  0  0  0  0  0  0  0  0  0  0
   -0.3364    1.8460    0.0350 C   0  0  0  0  0  0  0  0  0  0  0  0
   -0.9152   -0.5133    0.1417 C   0  0  0  0  0  0  0  0  0  0  0  0
   -1.6979    2.1904    0.1763 C   0  0  0  0  0  0  0  0  0  0  0  0
   -2.2724   -0.1720    0.2938 C   0  0  0  0  0  0  0  0  0  0  0  0
   -2.0778    3.4931    0.1700 O   0  0  0  0  0  0  0  0  0  0  0  0
   -2.6676    1.1783    0.3279 C   0  0  0  0  0  0  0  0  0  0  0  0
   -3.9815    1.4760    0.5092 O   0  0  0  0  0  0  0  0  0  0  0  0
    1.7090   -0.8683   -0.0888 H   0  0  0  0  0  0  0  0  0  0  0  0
    0.3542    2.5963   -0.0565 H   0  0  0  0  0  0  0  0  0  0  0  0
   -0.6605   -1.5061    0.1262 H   0  0  0  0  0  0  0  0  0  0  0  0
   -2.9737   -0.9102    0.3899 H   0  0  0  0  0  0  0  0  0  0  0  0
   -1.3295    3.9799   -0.2345 H   0  0  0  0  0  0  0  0  0  0  0  0
   -4.0125    2.4020    0.8297 H   0  0  0  0  0  0  0  0  0  0  0  0
  1  2  2  0  0  0  0 
  1  3  1  0  0  0  0 
  3  4  2  0  0  0  0 
  3  5  1  0  0  0  0 
  4  6  1  0  0  0  0 
  5  7  2  0  0  0  0 
  6  8  1  0  0  0  0 
  6  9  2  0  0  0  0 
  7  9  1  0  0  0  0 
  9 10  1  0  0  0  0 
  1 11  1  0  0  0  0 
  4 12  1  0  0  0  0 
  5 13  1  0  0  0  0 
  7 14  1  0  0  0  0 
  8 15  1  0  0  0  0 
 10 16  1  0  0  0  0 
M  END
> <cdk:Title>
protocatechualdehyde

> <Conformer>
1

> <SuperDrugID>
SD003657

$$$$
