cefetamet pivoxil
  CDK     0628171802

 59 61  0  0  0  0  0  0  0  0999 V2000
   -1.4247    2.0281   -1.2098 C   0  0  0  0  0  0  0  0  0  0  0  0
   -0.3301    1.4877   -0.5937 O   0  0  0  0  0  0  0  0  0  0  0  0
   -2.0463    1.3932   -2.0958 O   0  0  0  0  0  0  0  0  0  0  0  0
   -1.8897    3.2744   -0.8131 C   0  0  0  0  0  0  0  0  0  0  0  0
    0.2218    0.1961   -0.8521 C   0  0  2  0  0  0  0  0  0  0  0  0
   -3.1725    3.3340   -0.3976 N   0  0  0  0  0  0  0  0  0  0  0  0
   -1.1044    4.3898   -0.8042 C   0  0  0  0  0  0  0  0  0  0  0  0
   -0.7691   -0.7993   -0.5825 O   0  0  0  0  0  0  0  0  0  0  0  0
   -4.0492    4.4369   -0.2380 C   0  0  1  0  0  0  0  0  0  0  0  0
   -4.0342    2.4566    0.1370 C   0  0  0  0  0  0  0  0  0  0  0  0
    0.2842    4.3571   -1.2782 C   0  0  0  0  0  0  0  0  0  0  0  0
   -1.5797    5.7030   -0.3258 C   0  0  2  0  0  0  0  0  0  0  0  0
   -0.6284   -2.1500   -0.7148 C   0  0  0  0  0  0  0  0  0  0  0  0
   -5.0355    3.4670    0.4834 C   0  0  1  0  0  0  0  0  0  0  0  0
   -3.0989    5.6781    0.6938 S   0  0  0  0  0  0  0  0  0  0  0  0
   -3.9746    1.2254    0.3546 O   0  0  0  0  0  0  0  0  0  0  0  0
   -1.7778   -3.0696   -0.4446 C   0  0  2  0  0  0  0  0  0  0  0  0
    0.4780   -2.6178   -1.0803 O   0  0  0  0  0  0  0  0  0  0  0  0
   -5.1423    3.6476    1.8951 N   0  0  0  0  0  0  0  0  0  0  0  0
   -2.1225   -3.8315   -1.7635 C   0  0  0  0  0  0  0  0  0  0  0  0
   -3.0527   -2.2910    0.0250 C   0  0  0  0  0  0  0  0  0  0  0  0
   -1.3714   -4.0777    0.6772 C   0  0  0  0  0  0  0  0  0  0  0  0
   -5.7107    2.7767    2.7747 C   0  0  0  0  0  0  0  0  0  0  0  0
   -5.4967    2.9405    4.1466 C   0  0  0  0  0  0  0  0  0  0  0  0
   -6.3904    1.8076    2.3581 O   0  0  0  0  0  0  0  0  0  0  0  0
   -6.4340    2.7229    5.0040 N   0  0  0  0  0  0  0  0  0  0  0  0
   -4.2393    3.3233    4.6416 C   0  0  0  0  0  0  0  0  0  0  0  0
   -7.6413    2.3750    4.7620 O   0  0  0  0  0  0  0  0  0  0  0  0
   -3.1263    3.3568    3.8435 N   0  0  0  0  0  0  0  0  0  0  0  0
   -3.9793    3.6941    5.9772 C   0  0  0  0  0  0  0  0  0  0  0  0
   -8.3702    2.2116    5.9858 C   0  0  0  0  0  0  0  0  0  0  0  0
   -1.9501    3.7353    4.3833 C   0  0  0  0  0  0  0  0  0  0  0  0
   -2.2674    4.0683    6.0736 S   0  0  0  0  0  0  0  0  0  0  0  0
   -0.7808    3.8332    3.7357 N   0  0  0  0  0  0  0  0  0  0  0  0
   -4.4064    4.8091   -1.2032 H   0  0  0  0  0  0  0  0  0  0  0  0
    1.0816    0.0462   -0.1983 H   0  0  0  0  0  0  0  0  0  0  0  0
    0.5472    0.1391   -1.8930 H   0  0  0  0  0  0  0  0  0  0  0  0
    0.3467    3.8814   -2.2592 H   0  0  0  0  0  0  0  0  0  0  0  0
    0.7190    5.3541   -1.3806 H   0  0  0  0  0  0  0  0  0  0  0  0
    0.8992    3.8013   -0.5689 H   0  0  0  0  0  0  0  0  0  0  0  0
   -1.7667    6.3405   -1.1934 H   0  0  0  0  0  0  0  0  0  0  0  0
   -0.8163    6.1833    0.2903 H   0  0  0  0  0  0  0  0  0  0  0  0
   -5.9867    3.3449   -0.0418 H   0  0  0  0  0  0  0  0  0  0  0  0
   -4.7219    4.4363    2.2712 H   0  0  0  0  0  0  0  0  0  0  0  0
   -2.3962   -3.1280   -2.5545 H   0  0  0  0  0  0  0  0  0  0  0  0
   -1.2716   -4.4205   -2.1134 H   0  0  0  0  0  0  0  0  0  0  0  0
   -2.9617   -4.5128   -1.6101 H   0  0  0  0  0  0  0  0  0  0  0  0
   -3.3828   -1.5846   -0.7406 H   0  0  0  0  0  0  0  0  0  0  0  0
   -2.8518   -1.7312    0.9415 H   0  0  0  0  0  0  0  0  0  0  0  0
   -3.8772   -2.9796    0.2253 H   0  0  0  0  0  0  0  0  0  0  0  0
   -1.1206   -3.5477    1.5998 H   0  0  0  0  0  0  0  0  0  0  0  0
   -0.5035   -4.6715    0.3809 H   0  0  0  0  0  0  0  0  0  0  0  0
   -2.1900   -4.7673    0.8932 H   0  0  0  0  0  0  0  0  0  0  0  0
   -4.6477    3.7432    6.7502 H   0  0  0  0  0  0  0  0  0  0  0  0
   -9.3839    1.9018    5.7339 H   0  0  0  0  0  0  0  0  0  0  0  0
   -7.9253    1.4356    6.6163 H   0  0  0  0  0  0  0  0  0  0  0  0
   -8.4292    3.1503    6.5452 H   0  0  0  0  0  0  0  0  0  0  0  0
    0.0305    4.0613    4.2201 H   0  0  0  0  0  0  0  0  0  0  0  0
   -0.7498    3.6842    2.7769 H   0  0  0  0  0  0  0  0  0  0  0  0
  1  2  1  0  0  0  0 
  1  3  2  0  0  0  0 
  1  4  1  0  0  0  0 
  2  5  1  0  0  0  0 
  4  6  1  0  0  0  0 
  4  7  2  0  0  0  0 
  5  8  1  0  0  0  0 
  9  6  1  0  0  0  0 
  6 10  1  0  0  0  0 
  7 11  1  0  0  0  0 
  7 12  1  0  0  0  0 
  8 13  1  0  0  0  0 
 14  9  1  0  0  0  0 
  9 15  1  0  0  0  0 
  9 35  1  0  0  0  0 
 14 10  1  0  0  0  0 
 10 16  2  0  0  0  0 
 12 15  1  0  0  0  0 
 13 17  1  0  0  0  0 
 13 18  2  0  0  0  0 
 14 19  1  0  0  0  0 
 17 20  1  0  0  0  0 
 17 21  1  0  0  0  0 
 17 22  1  0  0  0  0 
 19 23  1  0  0  0  0 
 23 24  1  0  0  0  0 
 23 25  2  0  0  0  0 
 24 26  2  0  0  0  0 
 24 27  1  0  0  0  0 
 26 28  1  0  0  0  0 
 27 29  1  0  0  0  0 
 27 30  2  0  0  0  0 
 28 31  1  0  0  0  0 
 29 32  2  0  0  0  0 
 30 33  1  0  0  0  0 
 32 33  1  0  0  0  0 
 32 34  1  0  0  0  0 
  5 36  1  0  0  0  0 
  5 37  1  0  0  0  0 
 11 38  1  0  0  0  0 
 11 39  1  0  0  0  0 
 11 40  1  0  0  0  0 
 12 41  1  0  0  0  0 
 12 42  1  0  0  0  0 
 14 43  1  0  0  0  0 
 19 44  1  0  0  0  0 
 20 45  1  0  0  0  0 
 20 46  1  0  0  0  0 
 20 47  1  0  0  0  0 
 21 48  1  0  0  0  0 
 21 49  1  0  0  0  0 
 21 50  1  0  0  0  0 
 22 51  1  0  0  0  0 
 22 52  1  0  0  0  0 
 22 53  1  0  0  0  0 
 30 54  1  0  0  0  0 
 31 55  1  0  0  0  0 
 31 56  1  0  0  0  0 
 31 57  1  0  0  0  0 
 34 58  1  0  0  0  0 
 34 59  1  0  0  0  0 
M  END
> <cdk:Title>
cefetamet pivoxil

> <Conformer>
1

> <SuperDrugID>
SD000464

$$$$
