yohimbine
  CDK     0628171801

 52 56  0  0  0  0  0  0  0  0999 V2000
   -0.4011    0.9136    1.0278 C   0  0  0  0  0  0  0  0  0  0  0  0
    0.5791    0.0393    1.4139 O   0  0  0  0  0  0  0  0  0  0  0  0
   -0.3823    1.4339   -0.1140 O   0  0  0  0  0  0  0  0  0  0  0  0
   -1.5309    1.1625    1.9643 C   0  0  2  0  0  0  0  0  0  0  0  0
    1.6919   -0.4030    0.6301 C   0  0  0  0  0  0  0  0  0  0  0  0
   -2.8536    0.4517    1.5033 C   0  0  1  0  0  0  0  0  0  0  0  0
   -1.7536    2.6835    2.2484 C   0  0  1  0  0  0  0  0  0  0  0  0
   -2.6499   -1.0711    1.2293 C   0  0  1  0  0  0  0  0  0  0  0  0
   -3.9841    0.6653    2.5672 C   0  0  2  0  0  0  0  0  0  0  0  0
   -1.9994    3.4146    1.0464 O   0  0  0  0  0  0  0  0  0  0  0  0
   -2.9293    2.9126    3.2395 C   0  0  1  0  0  0  0  0  0  0  0  0
   -3.9782   -1.8076    0.8866 C   0  0  1  0  0  0  0  0  0  0  0  0
   -5.2813   -0.0999    2.1604 C   0  0  1  0  0  0  0  0  0  0  0  0
   -4.2305    2.1884    2.7958 C   0  0  1  0  0  0  0  0  0  0  0  0
   -3.7096   -3.2538    0.7163 C   0  0  0  0  0  0  0  0  0  0  0  0
   -5.0477   -1.5585    1.9146 N   0  0  2  0  0  0  0  0  0  0  0  0
   -4.1462   -4.2287    1.6127 C   0  0  0  0  0  0  0  0  0  0  0  0
   -2.9904   -3.8396   -0.2597 N   0  0  0  0  0  0  0  0  0  0  0  0
   -4.9823   -2.4234    3.1419 C   0  0  1  0  0  0  0  0  0  0  0  0
   -3.6398   -5.4406    1.1477 C   0  0  0  0  0  0  0  0  0  0  0  0
   -4.9763   -3.9420    2.7977 C   0  0  2  0  0  0  0  0  0  0  0  0
   -2.9363   -5.1594   -0.0251 C   0  0  0  0  0  0  0  0  0  0  0  0
   -3.7164   -6.7520    1.6519 C   0  0  0  0  0  0  0  0  0  0  0  0
   -2.3034   -6.1774   -0.7566 C   0  0  0  0  0  0  0  0  0  0  0  0
   -3.0809   -7.7845    0.9278 C   0  0  0  0  0  0  0  0  0  0  0  0
   -2.3870   -7.5003   -0.2723 C   0  0  0  0  0  0  0  0  0  0  0  0
   -4.3548   -1.4335   -0.0703 H   0  0  0  0  0  0  0  0  0  0  0  0
   -3.1753    0.9146    0.5637 H   0  0  0  0  0  0  0  0  0  0  0  0
   -3.6506    0.2440    3.5224 H   0  0  0  0  0  0  0  0  0  0  0  0
   -1.2476    0.7134    2.9229 H   0  0  0  0  0  0  0  0  0  0  0  0
    1.3437   -0.9009   -0.2774 H   0  0  0  0  0  0  0  0  0  0  0  0
    2.2731   -1.1148    1.2182 H   0  0  0  0  0  0  0  0  0  0  0  0
    2.3303    0.4408    0.3593 H   0  0  0  0  0  0  0  0  0  0  0  0
   -0.8431    3.0949    2.6944 H   0  0  0  0  0  0  0  0  0  0  0  0
   -1.9599   -1.1937    0.3899 H   0  0  0  0  0  0  0  0  0  0  0  0
   -2.1889   -1.5328    2.1079 H   0  0  0  0  0  0  0  0  0  0  0  0
   -1.9490    4.3583    1.3127 H   0  0  0  0  0  0  0  0  0  0  0  0
   -2.6368    2.5391    4.2253 H   0  0  0  0  0  0  0  0  0  0  0  0
   -3.1205    3.9850    3.3429 H   0  0  0  0  0  0  0  0  0  0  0  0
   -6.0462    0.0313    2.9307 H   0  0  0  0  0  0  0  0  0  0  0  0
   -5.6811    0.3393    1.2422 H   0  0  0  0  0  0  0  0  0  0  0  0
   -4.6052    2.6454    1.8761 H   0  0  0  0  0  0  0  0  0  0  0  0
   -4.9894    2.3276    3.5697 H   0  0  0  0  0  0  0  0  0  0  0  0
   -2.5731   -3.3793   -1.0050 H   0  0  0  0  0  0  0  0  0  0  0  0
   -4.0816   -2.1872    3.7134 H   0  0  0  0  0  0  0  0  0  0  0  0
   -5.8440   -2.2276    3.7862 H   0  0  0  0  0  0  0  0  0  0  0  0
   -4.5959   -4.5094    3.6508 H   0  0  0  0  0  0  0  0  0  0  0  0
   -5.9945   -4.2778    2.5880 H   0  0  0  0  0  0  0  0  0  0  0  0
   -4.2142   -6.9547    2.5208 H   0  0  0  0  0  0  0  0  0  0  0  0
   -1.7948   -5.9636   -1.6168 H   0  0  0  0  0  0  0  0  0  0  0  0
   -3.1227   -8.7472    1.2727 H   0  0  0  0  0  0  0  0  0  0  0  0
   -1.9414   -8.2586   -0.7932 H   0  0  0  0  0  0  0  0  0  0  0  0
  1  2  1  0  0  0  0 
  1  3  2  0  0  0  0 
  2  5  1  0  0  0  0 
  4  1  1  0  0  0  0 
  6  4  1  0  0  0  0 
  4  7  1  0  0  0  0 
  6  8  1  0  0  0  0 
  9  6  1  0  0  0  0 
  6 28  1  0  0  0  0 
  7 10  1  0  0  0  0 
  7 11  1  0  0  0  0 
 12  8  1  0  0  0  0 
  9 13  1  0  0  0  0 
  9 14  1  0  0  0  0 
  9 29  1  0  0  0  0 
 11 14  1  0  0  0  0 
 12 15  1  0  0  0  0 
 12 16  1  0  0  0  0 
 12 27  1  0  0  0  0 
 13 16  1  0  0  0  0 
 15 17  2  0  0  0  0 
 15 18  1  0  0  0  0 
 16 19  1  0  0  0  0 
 17 20  1  0  0  0  0 
 17 21  1  0  0  0  0 
 18 22  1  0  0  0  0 
 19 21  1  0  0  0  0 
 20 22  1  0  0  0  0 
 20 23  2  0  0  0  0 
 22 24  2  0  0  0  0 
 23 25  1  0  0  0  0 
 24 26  1  0  0  0  0 
 25 26  2  0  0  0  0 
  4 30  1  0  0  0  0 
  5 31  1  0  0  0  0 
  5 32  1  0  0  0  0 
  5 33  1  0  0  0  0 
  7 34  1  0  0  0  0 
  8 35  1  0  0  0  0 
  8 36  1  0  0  0  0 
 10 37  1  0  0  0  0 
 11 38  1  0  0  0  0 
 11 39  1  0  0  0  0 
 13 40  1  0  0  0  0 
 13 41  1  0  0  0  0 
 14 42  1  0  0  0  0 
 14 43  1  0  0  0  0 
 18 44  1  0  0  0  0 
 19 45  1  0  0  0  0 
 19 46  1  0  0  0  0 
 21 47  1  0  0  0  0 
 21 48  1  0  0  0  0 
 23 49  1  0  0  0  0 
 24 50  1  0  0  0  0 
 25 51  1  0  0  0  0 
 26 52  1  0  0  0  0 
M  END
> <cdk:Title>
yohimbine

> <Conformer>
1

> <SuperDrugID>
SD003132

$$$$
