colchicine
  CDK     0628171802

 54 56  0  0  0  0  0  0  0  0999 V2000
    1.1989    7.3772    0.3987 O   0  0  0  0  0  0  0  0  0  0  0  0
    1.5870    8.1921    1.5196 C   0  0  0  0  0  0  0  0  0  0  0  0
    1.9347    6.2196    0.2892 C   0  0  0  0  0  0  0  0  0  0  0  0
    1.5545    5.0254    0.9773 C   0  0  0  0  0  0  0  0  0  0  0  0
    3.0705    6.2568   -0.5480 C   0  0  0  0  0  0  0  0  0  0  0  0
    0.2845    5.0565    1.6492 C   0  0  0  0  0  0  0  0  0  0  0  0
    2.4598    3.9241    0.9619 C   0  0  0  0  0  0  0  0  0  0  0  0
    3.3839    7.3911   -1.2529 O   0  0  0  0  0  0  0  0  0  0  0  0
    3.9133    5.1337   -0.6259 C   0  0  0  0  0  0  0  0  0  0  0  0
    0.1982    4.8364    3.0399 C   0  0  0  0  0  0  0  0  0  0  0  0
   -0.8271    5.4015    0.8570 C   0  0  0  0  0  0  0  0  0  0  0  0
    3.6137    3.9957    0.1398 C   0  0  0  0  0  0  0  0  0  0  0  0
    2.3366    2.6690    1.7541 C   0  0  1  0  0  0  0  0  0  0  0  0
    2.6780    7.5096   -2.5015 C   0  0  0  0  0  0  0  0  0  0  0  0
    5.0000    5.1195   -1.4634 O   0  0  0  0  0  0  0  0  0  0  0  0
    0.7603    3.5770    3.6424 C   0  0  2  0  0  0  0  0  0  0  0  0
   -0.4351    5.7490    3.9140 C   0  0  0  0  0  0  0  0  0  0  0  0
   -1.9721    6.1097    1.2340 C   0  0  0  0  0  0  0  0  0  0  0  0
    1.0828    2.4371    2.6248 C   0  0  1  0  0  0  0  0  0  0  0  0
    6.1984    5.6550   -0.8769 C   0  0  0  0  0  0  0  0  0  0  0  0
   -0.1346    3.0174    4.6317 N   0  0  0  0  0  0  0  0  0  0  0  0
   -1.4531    6.6775    3.6321 C   0  0  0  0  0  0  0  0  0  0  0  0
   -2.2150    6.7678    2.4501 C   0  0  0  0  0  0  0  0  0  0  0  0
   -1.4503    2.6881    4.4546 C   0  0  0  0  0  0  0  0  0  0  0  0
   -1.7726    7.4436    4.5738 O   0  0  0  0  0  0  0  0  0  0  0  0
   -3.2909    7.6255    2.4412 O   0  0  0  0  0  0  0  0  0  0  0  0
   -2.2223    2.1685    5.5937 C   0  0  0  0  0  0  0  0  0  0  0  0
   -2.0295    2.8311    3.3520 O   0  0  0  0  0  0  0  0  0  0  0  0
   -4.5403    6.9997    2.7819 C   0  0  0  0  0  0  0  0  0  0  0  0
    0.9248    9.0575    1.5522 H   0  0  0  0  0  0  0  0  0  0  0  0
    1.4890    7.6520    2.4640 H   0  0  0  0  0  0  0  0  0  0  0  0
    2.6133    8.5499    1.4121 H   0  0  0  0  0  0  0  0  0  0  0  0
   -0.7688    5.1708   -0.1414 H   0  0  0  0  0  0  0  0  0  0  0  0
    4.2604    3.2026    0.0846 H   0  0  0  0  0  0  0  0  0  0  0  0
    2.3949    1.8256    1.0571 H   0  0  0  0  0  0  0  0  0  0  0  0
    3.2091    2.6143    2.4148 H   0  0  0  0  0  0  0  0  0  0  0  0
    3.0125    8.4255   -2.9885 H   0  0  0  0  0  0  0  0  0  0  0  0
    2.8923    6.6689   -3.1658 H   0  0  0  0  0  0  0  0  0  0  0  0
    1.5986    7.5850   -2.3514 H   0  0  0  0  0  0  0  0  0  0  0  0
    1.6782    3.8381    4.1762 H   0  0  0  0  0  0  0  0  0  0  0  0
   -0.1450    5.6951    4.8980 H   0  0  0  0  0  0  0  0  0  0  0  0
   -2.6714    6.2386    0.4979 H   0  0  0  0  0  0  0  0  0  0  0  0
    0.2267    2.2590    1.9677 H   0  0  0  0  0  0  0  0  0  0  0  0
    1.2558    1.5074    3.1774 H   0  0  0  0  0  0  0  0  0  0  0  0
    6.9837    5.6273   -1.6334 H   0  0  0  0  0  0  0  0  0  0  0  0
    6.0612    6.6930   -0.5675 H   0  0  0  0  0  0  0  0  0  0  0  0
    6.5263    5.0598   -0.0217 H   0  0  0  0  0  0  0  0  0  0  0  0
    0.2388    2.8484    5.5125 H   0  0  0  0  0  0  0  0  0  0  0  0
   -3.2414    1.9051    5.3015 H   0  0  0  0  0  0  0  0  0  0  0  0
   -1.7383    1.2783    5.9976 H   0  0  0  0  0  0  0  0  0  0  0  0
   -2.2784    2.9287    6.3722 H   0  0  0  0  0  0  0  0  0  0  0  0
   -5.3327    7.7362    2.6484 H   0  0  0  0  0  0  0  0  0  0  0  0
   -4.7575    6.1488    2.1308 H   0  0  0  0  0  0  0  0  0  0  0  0
   -4.5390    6.6780    3.8254 H   0  0  0  0  0  0  0  0  0  0  0  0
  1  2  1  0  0  0  0 
  1  3  1  0  0  0  0 
  3  4  2  0  0  0  0 
  3  5  1  0  0  0  0 
  4  6  1  0  0  0  0 
  4  7  1  0  0  0  0 
  5  8  1  0  0  0  0 
  5  9  2  0  0  0  0 
  6 10  1  0  0  0  0 
  6 11  2  0  0  0  0 
  7 12  2  0  0  0  0 
  7 13  1  0  0  0  0 
  8 14  1  0  0  0  0 
  9 12  1  0  0  0  0 
  9 15  1  0  0  0  0 
 16 10  1  0  0  0  0 
 10 17  2  0  0  0  0 
 11 18  1  0  0  0  0 
 13 19  1  0  0  0  0 
 15 20  1  0  0  0  0 
 16 19  1  0  0  0  0 
 16 21  1  0  0  0  0 
 17 22  1  0  0  0  0 
 18 23  2  0  0  0  0 
 21 24  1  0  0  0  0 
 22 23  1  0  0  0  0 
 22 25  2  0  0  0  0 
 23 26  1  0  0  0  0 
 24 27  1  0  0  0  0 
 24 28  2  0  0  0  0 
 26 29  1  0  0  0  0 
  2 30  1  0  0  0  0 
  2 31  1  0  0  0  0 
  2 32  1  0  0  0  0 
 11 33  1  0  0  0  0 
 12 34  1  0  0  0  0 
 13 35  1  0  0  0  0 
 13 36  1  0  0  0  0 
 14 37  1  0  0  0  0 
 14 38  1  0  0  0  0 
 14 39  1  0  0  0  0 
 16 40  1  0  0  0  0 
 17 41  1  0  0  0  0 
 18 42  1  0  0  0  0 
 19 43  1  0  0  0  0 
 19 44  1  0  0  0  0 
 20 45  1  0  0  0  0 
 20 46  1  0  0  0  0 
 20 47  1  0  0  0  0 
 21 48  1  0  0  0  0 
 27 49  1  0  0  0  0 
 27 50  1  0  0  0  0 
 27 51  1  0  0  0  0 
 29 52  1  0  0  0  0 
 29 53  1  0  0  0  0 
 29 54  1  0  0  0  0 
M  END
> <cdk:Title>
colchicine

> <Conformer>
1

> <SuperDrugID>
SD000642

$$$$
