clocapramine
  CDK     0628171802

 71 75  0  0  0  0  0  0  0  0999 V2000
   -3.2004    1.1046    5.9871 C   0  0  0  0  0  0  0  0  0  0  0  0
   -3.8421   -0.0676    6.1703 N   0  0  0  0  0  0  0  0  0  0  0  0
   -3.8100    2.1261    6.3825 O   0  0  0  0  0  0  0  0  0  0  0  0
   -1.8173    1.2378    5.4103 C   0  0  1  0  0  0  0  0  0  0  0  0
   -1.1983   -0.1122    4.8947 C   0  0  1  0  0  0  0  0  0  0  0  0
   -1.9436    2.1510    4.1351 C   0  0  2  0  0  0  0  0  0  0  0  0
   -0.9720    1.8513    6.5301 N   0  0  2  0  0  0  0  0  0  0  0  0
   -1.8971   -0.7324    3.6446 C   0  0  1  0  0  0  0  0  0  0  0  0
   -2.8173    1.4738    2.9518 C   0  0  2  0  0  0  0  0  0  0  0  0
    0.2933    2.5882    6.1779 C   0  0  2  0  0  0  0  0  0  0  0  0
   -0.7848    1.0158    7.7774 C   0  0  1  0  0  0  0  0  0  0  0  0
   -2.0770    0.2438    2.5194 N   0  0  2  0  0  0  0  0  0  0  0  0
    0.8125    3.4579    7.3534 C   0  0  2  0  0  0  0  0  0  0  0  0
   -0.3087    1.8640    8.9838 C   0  0  1  0  0  0  0  0  0  0  0  0
   -2.5569   -0.3668    1.2272 C   0  0  1  0  0  0  0  0  0  0  0  0
    0.9916    2.6265    8.6434 C   0  0  1  0  0  0  0  0  0  0  0  0
   -1.4968   -1.2487    0.5037 C   0  0  2  0  0  0  0  0  0  0  0  0
   -0.1329   -0.5218    0.2852 C   0  0  1  0  0  0  0  0  0  0  0  0
    0.9844   -1.3505   -0.1579 N   0  0  0  0  0  0  0  0  0  0  0  0
    1.9038   -0.9003   -1.0994 C   0  0  0  0  0  0  0  0  0  0  0  0
    1.1924   -2.5644    0.4594 C   0  0  0  0  0  0  0  0  0  0  0  0
    2.4303   -1.6997   -2.1660 C   0  0  0  0  0  0  0  0  0  0  0  0
    2.3844    0.4304   -0.9625 C   0  0  0  0  0  0  0  0  0  0  0  0
    1.0739   -3.7745   -0.2717 C   0  0  0  0  0  0  0  0  0  0  0  0
    1.4613   -2.6141    1.8481 C   0  0  0  0  0  0  0  0  0  0  0  0
    2.0395   -3.1087   -2.4821 C   0  0  2  0  0  0  0  0  0  0  0  0
    3.4143   -1.1456   -3.0237 C   0  0  0  0  0  0  0  0  0  0  0  0
    3.3570    0.9626   -1.8262 C   0  0  0  0  0  0  0  0  0  0  0  0
    0.8350   -3.7293   -1.7367 C   0  0  1  0  0  0  0  0  0  0  0  0
    1.1883   -5.0094    0.4094 C   0  0  0  0  0  0  0  0  0  0  0  0
    1.5816   -3.8468    2.5109 C   0  0  0  0  0  0  0  0  0  0  0  0
    3.8751    0.1679   -2.8583 C   0  0  0  0  0  0  0  0  0  0  0  0
    3.9139    2.5485   -1.6191 Cl  0  0  0  0  0  0  0  0  0  0  0  0
    1.4407   -5.0452    1.7925 C   0  0  0  0  0  0  0  0  0  0  0  0
   -3.4279   -0.9034    5.9048 H   0  0  0  0  0  0  0  0  0  0  0  0
   -4.7260   -0.0754    6.5719 H   0  0  0  0  0  0  0  0  0  0  0  0
   -0.1507    0.0636    4.6325 H   0  0  0  0  0  0  0  0  0  0  0  0
   -1.2038   -0.8530    5.6958 H   0  0  0  0  0  0  0  0  0  0  0  0
   -0.9603    2.3358    3.6960 H   0  0  0  0  0  0  0  0  0  0  0  0
   -2.3749    3.1238    4.3876 H   0  0  0  0  0  0  0  0  0  0  0  0
   -1.2732   -1.5681    3.3203 H   0  0  0  0  0  0  0  0  0  0  0  0
   -2.8694   -1.1511    3.9206 H   0  0  0  0  0  0  0  0  0  0  0  0
   -2.9524    2.1268    2.0467 H   0  0  0  0  0  0  0  0  0  0  0  0
   -3.8641    1.1718    3.2231 H   0  0  0  0  0  0  0  0  0  0  0  0
    0.1319    3.2851    5.3594 H   0  0  0  0  0  0  0  0  0  0  0  0
    1.0693    1.8842    5.8670 H   0  0  0  0  0  0  0  0  0  0  0  0
   -1.7149    0.5289    8.0803 H   0  0  0  0  0  0  0  0  0  0  0  0
   -0.0560    0.2214    7.5887 H   0  0  0  0  0  0  0  0  0  0  0  0
    0.1017    4.2674    7.5454 H   0  0  0  0  0  0  0  0  0  0  0  0
    1.7680    3.9119    7.0779 H   0  0  0  0  0  0  0  0  0  0  0  0
   -1.0910    2.5785    9.2548 H   0  0  0  0  0  0  0  0  0  0  0  0
   -0.1293    1.2203    9.8486 H   0  0  0  0  0  0  0  0  0  0  0  0
   -3.4543   -0.9662    1.4127 H   0  0  0  0  0  0  0  0  0  0  0  0
   -2.8372    0.4159    0.5153 H   0  0  0  0  0  0  0  0  0  0  0  0
    1.8081    1.9133    8.5004 H   0  0  0  0  0  0  0  0  0  0  0  0
    1.2612    3.2884    9.4711 H   0  0  0  0  0  0  0  0  0  0  0  0
   -1.8944   -1.5560   -0.4689 H   0  0  0  0  0  0  0  0  0  0  0  0
   -1.3528   -2.1579    1.0880 H   0  0  0  0  0  0  0  0  0  0  0  0
   -0.3218    0.2878   -0.4301 H   0  0  0  0  0  0  0  0  0  0  0  0
    0.1727   -0.0558    1.2251 H   0  0  0  0  0  0  0  0  0  0  0  0
    2.0359    1.0311   -0.2106 H   0  0  0  0  0  0  0  0  0  0  0  0
    1.5654   -1.7507    2.3870 H   0  0  0  0  0  0  0  0  0  0  0  0
    2.9110   -3.7504   -2.3093 H   0  0  0  0  0  0  0  0  0  0  0  0
    1.8027   -3.1608   -3.5510 H   0  0  0  0  0  0  0  0  0  0  0  0
    3.8070   -1.6991   -3.7912 H   0  0  0  0  0  0  0  0  0  0  0  0
    0.6719   -4.7360   -2.1382 H   0  0  0  0  0  0  0  0  0  0  0  0
   -0.0655   -3.1482   -1.9493 H   0  0  0  0  0  0  0  0  0  0  0  0
    1.0869   -5.8929   -0.0970 H   0  0  0  0  0  0  0  0  0  0  0  0
    1.7666   -3.8718    3.5150 H   0  0  0  0  0  0  0  0  0  0  0  0
    4.5852    0.5399   -3.4941 H   0  0  0  0  0  0  0  0  0  0  0  0
    1.5276   -5.9420    2.2754 H   0  0  0  0  0  0  0  0  0  0  0  0
  1  2  1  0  0  0  0 
  1  3  2  0  0  0  0 
  1  4  1  0  0  0  0 
  4  5  1  0  0  0  0 
  4  6  1  0  0  0  0 
  4  7  1  0  0  0  0 
  5  8  1  0  0  0  0 
  6  9  1  0  0  0  0 
  7 10  1  0  0  0  0 
  7 11  1  0  0  0  0 
  8 12  1  0  0  0  0 
  9 12  1  0  0  0  0 
 10 13  1  0  0  0  0 
 11 14  1  0  0  0  0 
 12 15  1  0  0  0  0 
 13 16  1  0  0  0  0 
 14 16  1  0  0  0  0 
 15 17  1  0  0  0  0 
 17 18  1  0  0  0  0 
 18 19  1  0  0  0  0 
 19 20  1  0  0  0  0 
 19 21  1  0  0  0  0 
 20 22  2  0  0  0  0 
 20 23  1  0  0  0  0 
 21 24  2  0  0  0  0 
 21 25  1  0  0  0  0 
 22 26  1  0  0  0  0 
 22 27  1  0  0  0  0 
 23 28  2  0  0  0  0 
 24 29  1  0  0  0  0 
 24 30  1  0  0  0  0 
 25 31  2  0  0  0  0 
 26 29  1  0  0  0  0 
 27 32  2  0  0  0  0 
 28 32  1  0  0  0  0 
 28 33  1  0  0  0  0 
 30 34  2  0  0  0  0 
 31 34  1  0  0  0  0 
  2 35  1  0  0  0  0 
  2 36  1  0  0  0  0 
  5 37  1  0  0  0  0 
  5 38  1  0  0  0  0 
  6 39  1  0  0  0  0 
  6 40  1  0  0  0  0 
  8 41  1  0  0  0  0 
  8 42  1  0  0  0  0 
  9 43  1  0  0  0  0 
  9 44  1  0  0  0  0 
 10 45  1  0  0  0  0 
 10 46  1  0  0  0  0 
 11 47  1  0  0  0  0 
 11 48  1  0  0  0  0 
 13 49  1  0  0  0  0 
 13 50  1  0  0  0  0 
 14 51  1  0  0  0  0 
 14 52  1  0  0  0  0 
 15 53  1  0  0  0  0 
 15 54  1  0  0  0  0 
 16 55  1  0  0  0  0 
 16 56  1  0  0  0  0 
 17 57  1  0  0  0  0 
 17 58  1  0  0  0  0 
 18 59  1  0  0  0  0 
 18 60  1  0  0  0  0 
 23 61  1  0  0  0  0 
 25 62  1  0  0  0  0 
 26 63  1  0  0  0  0 
 26 64  1  0  0  0  0 
 27 65  1  0  0  0  0 
 29 66  1  0  0  0  0 
 29 67  1  0  0  0  0 
 30 68  1  0  0  0  0 
 31 69  1  0  0  0  0 
 32 70  1  0  0  0  0 
 34 71  1  0  0  0  0 
M  END
> <cdk:Title>
clocapramine

> <Conformer>
1

> <SuperDrugID>
SD000605

$$$$
