drospirenone
  CDK     0628171802

 57 63  0  0  0  0  0  0  0  0999 V2000
   -6.9217   -0.2885    3.4905 C   0  0  0  0  0  0  0  0  0  0  0  0
   -5.7457   -0.7099    4.4624 C   0  0  1  0  0  0  0  0  0  0  0  0
   -6.3672   -1.3160    5.7944 C   0  0  2  0  0  0  0  0  0  0  0  0
   -4.8132   -1.8903    4.0078 C   0  0  1  0  0  0  0  0  0  0  0  0
   -4.7799    0.5345    4.5474 C   0  0  2  0  0  0  0  0  0  0  0  0
   -6.2492   -2.8688    5.6549 C   0  0  2  0  0  0  0  0  0  0  0  0
   -7.7682   -1.0686    5.9802 O   0  0  0  0  0  0  0  0  0  0  0  0
   -5.7916   -0.8212    7.1679 C   0  0  1  0  0  0  0  0  0  0  0  0
   -5.4232   -3.2568    4.4120 C   0  0  1  0  0  0  0  0  0  0  0  0
   -4.2260   -1.6996    2.5670 C   0  0  1  0  0  0  0  0  0  0  0  0
   -4.0351    0.8368    3.2066 C   0  0  2  0  0  0  0  0  0  0  0  0
   -6.9091   -3.6418    4.5050 C   0  0  1  0  0  0  0  0  0  0  0  0
   -8.1205   -0.7843    7.2474 C   0  0  0  0  0  0  0  0  0  0  0  0
   -6.9808   -0.7586    8.1516 C   0  0  1  0  0  0  0  0  0  0  0  0
   -3.3285   -0.4004    2.5356 C   0  0  2  0  0  0  0  0  0  0  0  0
   -3.3974   -2.9283    2.0801 C   0  0  2  0  0  0  0  0  0  0  0  0
   -9.3062   -0.5966    7.5997 O   0  0  0  0  0  0  0  0  0  0  0  0
   -2.6867   -0.1258    1.1031 C   0  0  2  0  0  0  0  0  0  0  0  0
   -2.2398   -2.6883    1.0888 C   0  0  1  0  0  0  0  0  0  0  0  0
   -3.5240   -3.3801    0.6119 C   0  0  1  0  0  0  0  0  0  0  0  0
   -3.7752    0.2332    0.0260 C   0  0  0  0  0  0  0  0  0  0  0  0
   -1.9267   -1.3274    0.6347 C   0  0  0  0  0  0  0  0  0  0  0  0
   -1.6838    1.0921    1.1898 C   0  0  1  0  0  0  0  0  0  0  0  0
   -0.8925   -1.2173   -0.2319 C   0  0  0  0  0  0  0  0  0  0  0  0
   -0.8244    1.2865   -0.0910 C   0  0  2  0  0  0  0  0  0  0  0  0
   -0.4030   -0.0025   -0.6819 C   0  0  0  0  0  0  0  0  0  0  0  0
    0.4238    0.0171   -1.6233 O   0  0  0  0  0  0  0  0  0  0  0  0
   -7.4751    0.5501    3.9206 H   0  0  0  0  0  0  0  0  0  0  0  0
   -7.6420   -1.0757    3.3187 H   0  0  0  0  0  0  0  0  0  0  0  0
   -6.5844    0.0261    2.5074 H   0  0  0  0  0  0  0  0  0  0  0  0
   -3.9254   -1.8762    4.6587 H   0  0  0  0  0  0  0  0  0  0  0  0
   -4.0050    0.3656    5.3008 H   0  0  0  0  0  0  0  0  0  0  0  0
   -5.3358    1.4260    4.8546 H   0  0  0  0  0  0  0  0  0  0  0  0
   -6.0452   -3.4704    6.5454 H   0  0  0  0  0  0  0  0  0  0  0  0
   -4.9971   -1.4660    7.5523 H   0  0  0  0  0  0  0  0  0  0  0  0
   -5.3947    0.1908    7.0974 H   0  0  0  0  0  0  0  0  0  0  0  0
   -4.7219   -4.0607    4.6553 H   0  0  0  0  0  0  0  0  0  0  0  0
   -5.0704   -1.5915    1.8891 H   0  0  0  0  0  0  0  0  0  0  0  0
   -3.2854    1.5968    3.4314 H   0  0  0  0  0  0  0  0  0  0  0  0
   -4.7329    1.2955    2.5105 H   0  0  0  0  0  0  0  0  0  0  0  0
   -7.0858   -4.7036    4.6898 H   0  0  0  0  0  0  0  0  0  0  0  0
   -7.5747   -3.1399    3.8168 H   0  0  0  0  0  0  0  0  0  0  0  0
   -7.0086   -1.6224    8.8187 H   0  0  0  0  0  0  0  0  0  0  0  0
   -6.9750    0.1626    8.7399 H   0  0  0  0  0  0  0  0  0  0  0  0
   -2.4801   -0.6143    3.1989 H   0  0  0  0  0  0  0  0  0  0  0  0
   -3.1947   -3.7399    2.7820 H   0  0  0  0  0  0  0  0  0  0  0  0
   -1.4014   -3.3734    1.2513 H   0  0  0  0  0  0  0  0  0  0  0  0
   -3.4355   -4.4532    0.4361 H   0  0  0  0  0  0  0  0  0  0  0  0
   -4.1857   -2.8030   -0.0310 H   0  0  0  0  0  0  0  0  0  0  0  0
   -3.3351    0.3353   -0.9670 H   0  0  0  0  0  0  0  0  0  0  0  0
   -4.5491   -0.5238   -0.0520 H   0  0  0  0  0  0  0  0  0  0  0  0
   -4.2666    1.1777    0.2569 H   0  0  0  0  0  0  0  0  0  0  0  0
   -2.2161    2.0273    1.3782 H   0  0  0  0  0  0  0  0  0  0  0  0
   -1.0028    0.9364    2.0305 H   0  0  0  0  0  0  0  0  0  0  0  0
   -0.4367   -2.0390   -0.5643 H   0  0  0  0  0  0  0  0  0  0  0  0
    0.0593    1.8796    0.1608 H   0  0  0  0  0  0  0  0  0  0  0  0
   -1.3921    1.8424   -0.8411 H   0  0  0  0  0  0  0  0  0  0  0  0
  2  1  1  0  0  0  0 
  2  3  1  0  0  0  0 
  4  2  1  0  0  0  0 
  2  5  1  0  0  0  0 
  3  6  1  0  0  0  0 
  3  7  1  0  0  0  0 
  3  8  1  0  0  0  0 
  4  9  1  0  0  0  0 
  4 10  1  0  0  0  0 
  5 11  1  0  0  0  0 
  9  6  1  0  0  0  0 
  6 12  1  0  0  0  0 
  7 13  1  0  0  0  0 
  8 14  1  0  0  0  0 
  9 12  1  0  0  0  0 
 10 15  1  0  0  0  0 
 10 16  1  0  0  0  0 
 15 11  1  0  0  0  0 
 13 14  1  0  0  0  0 
 13 17  2  0  0  0  0 
 15 18  1  0  0  0  0 
 16 19  1  0  0  0  0 
 16 20  1  0  0  0  0 
 18 21  1  0  0  0  0 
 18 22  1  0  0  0  0 
 18 23  1  0  0  0  0 
 19 20  1  0  0  0  0 
 19 22  1  0  0  0  0 
 22 24  2  0  0  0  0 
 23 25  1  0  0  0  0 
 24 26  1  0  0  0  0 
 25 26  1  0  0  0  0 
 26 27  2  0  0  0  0 
 28  1  1  0  0  0  0 
 29  1  1  0  0  0  0 
 30  1  1  0  0  0  0 
  4 31  1  0  0  0  0 
 32  5  1  0  0  0  0 
 33  5  1  0  0  0  0 
  6 34  1  0  0  0  0 
 35  8  1  0  0  0  0 
 36  8  1  0  0  0  0 
  9 37  1  0  0  0  0 
 10 38  1  0  0  0  0 
 39 11  1  0  0  0  0 
 40 11  1  0  0  0  0 
 41 12  1  0  0  0  0 
 42 12  1  0  0  0  0 
 43 14  1  0  0  0  0 
 44 14  1  0  0  0  0 
 15 45  1  0  0  0  0 
 16 46  1  0  0  0  0 
 19 47  1  0  0  0  0 
 48 20  1  0  0  0  0 
 49 20  1  0  0  0  0 
 50 21  1  0  0  0  0 
 51 21  1  0  0  0  0 
 52 21  1  0  0  0  0 
 53 23  1  0  0  0  0 
 54 23  1  0  0  0  0 
 55 24  1  0  0  0  0 
 56 25  1  0  0  0  0 
 57 25  1  0  0  0  0 
M  END
> <cdk:Title>
drospirenone

> <Conformer>
1

> <SuperDrugID>
SD000858

$$$$
