metopon
  CDK     0628171801

 43 47  0  0  0  0  0  0  0  0999 V2000
   -3.6084   -2.6231    2.8234 C   0  0  0  0  0  0  0  0  0  0  0  0
   -2.2673   -2.1306    3.4436 C   0  0  2  0  0  0  0  0  0  0  0  0
   -1.2475   -1.4726    2.4245 C   0  0  2  0  0  0  0  0  0  0  0  0
   -1.5623   -3.2914    3.9757 O   0  0  0  0  0  0  0  0  0  0  0  0
   -2.6127   -1.1972    4.5707 C   0  0  0  0  0  0  0  0  0  0  0  0
   -0.0195   -1.8536    3.1263 C   0  0  0  0  0  0  0  0  0  0  0  0
   -1.2915    0.0904    2.2697 C   0  0  2  0  0  0  0  0  0  0  0  0
   -1.2326   -2.1072    0.9843 C   0  0  1  0  0  0  0  0  0  0  0  0
   -0.2480   -2.9356    3.9630 C   0  0  0  0  0  0  0  0  0  0  0  0
   -2.7383   -1.6431    5.7361 O   0  0  0  0  0  0  0  0  0  0  0  0
   -2.7866    0.2547    4.3375 C   0  0  2  0  0  0  0  0  0  0  0  0
    1.2240   -1.1944    3.0590 C   0  0  0  0  0  0  0  0  0  0  0  0
    0.0312    0.5203    1.5343 C   0  0  1  0  0  0  0  0  0  0  0  0
   -1.5492    0.8374    3.6134 C   0  0  2  0  0  0  0  0  0  0  0  0
   -0.1174   -1.5356    0.0631 C   0  0  1  0  0  0  0  0  0  0  0  0
    0.8088   -3.4837    4.7091 C   0  0  0  0  0  0  0  0  0  0  0  0
    1.3293    0.0950    2.3212 C   0  0  2  0  0  0  0  0  0  0  0  0
    2.2993   -1.7649    3.7805 C   0  0  0  0  0  0  0  0  0  0  0  0
   -0.0361   -0.0433    0.1388 N   0  0  2  0  0  0  0  0  0  0  0  0
    0.5767   -4.5356    5.5320 O   0  0  0  0  0  0  0  0  0  0  0  0
    2.0935   -2.9052    4.5912 C   0  0  0  0  0  0  0  0  0  0  0  0
    0.9090    0.5560   -0.8469 C   0  0  0  0  0  0  0  0  0  0  0  0
   -2.1390    0.3461    1.6223 H   0  0  0  0  0  0  0  0  0  0  0  0
    0.0216    1.6135    1.4597 H   0  0  0  0  0  0  0  0  0  0  0  0
   -4.1380   -1.7984    2.3395 H   0  0  0  0  0  0  0  0  0  0  0  0
   -3.4327   -3.4049    2.0832 H   0  0  0  0  0  0  0  0  0  0  0  0
   -4.2579   -3.0459    3.5930 H   0  0  0  0  0  0  0  0  0  0  0  0
   -1.1147   -3.1934    1.0400 H   0  0  0  0  0  0  0  0  0  0  0  0
   -2.1942   -1.9090    0.5019 H   0  0  0  0  0  0  0  0  0  0  0  0
   -2.9274    0.7845    5.2828 H   0  0  0  0  0  0  0  0  0  0  0  0
   -3.6803    0.4146    3.7294 H   0  0  0  0  0  0  0  0  0  0  0  0
   -1.7185    1.8994    3.4102 H   0  0  0  0  0  0  0  0  0  0  0  0
   -0.6804    0.7614    4.2734 H   0  0  0  0  0  0  0  0  0  0  0  0
    0.8449   -1.9789    0.3334 H   0  0  0  0  0  0  0  0  0  0  0  0
   -0.3365   -1.8448   -0.9619 H   0  0  0  0  0  0  0  0  0  0  0  0
    2.1838    0.0511    1.6466 H   0  0  0  0  0  0  0  0  0  0  0  0
    1.5499    0.8681    3.0617 H   0  0  0  0  0  0  0  0  0  0  0  0
    3.2309   -1.3439    3.7300 H   0  0  0  0  0  0  0  0  0  0  0  0
    1.4009   -4.6548    6.0472 H   0  0  0  0  0  0  0  0  0  0  0  0
    2.8794   -3.3018    5.1093 H   0  0  0  0  0  0  0  0  0  0  0  0
    0.8987    1.6458   -0.7830 H   0  0  0  0  0  0  0  0  0  0  0  0
    1.9317    0.2059   -0.6851 H   0  0  0  0  0  0  0  0  0  0  0  0
    0.6070    0.2843   -1.8603 H   0  0  0  0  0  0  0  0  0  0  0  0
  2  1  1  0  0  0  0 
  3  2  1  0  0  0  0 
  2  4  1  0  0  0  0 
  2  5  1  0  0  0  0 
  3  6  1  0  0  0  0 
  7  3  1  0  0  0  0 
  3  8  1  0  0  0  0 
  4  9  1  0  0  0  0 
  5 10  2  0  0  0  0 
  5 11  1  0  0  0  0 
  6  9  2  0  0  0  0 
  6 12  1  0  0  0  0 
 13  7  1  0  0  0  0 
  7 14  1  0  0  0  0 
  7 23  1  0  0  0  0 
  8 15  1  0  0  0  0 
  9 16  1  0  0  0  0 
 11 14  1  0  0  0  0 
 12 17  1  0  0  0  0 
 12 18  2  0  0  0  0 
 13 17  1  0  0  0  0 
 13 19  1  0  0  0  0 
 13 24  1  0  0  0  0 
 15 19  1  0  0  0  0 
 16 20  1  0  0  0  0 
 16 21  2  0  0  0  0 
 18 21  1  0  0  0  0 
 19 22  1  0  0  0  0 
  1 25  1  0  0  0  0 
  1 26  1  0  0  0  0 
  1 27  1  0  0  0  0 
  8 28  1  0  0  0  0 
  8 29  1  0  0  0  0 
 11 30  1  0  0  0  0 
 11 31  1  0  0  0  0 
 14 32  1  0  0  0  0 
 14 33  1  0  0  0  0 
 15 34  1  0  0  0  0 
 15 35  1  0  0  0  0 
 17 36  1  0  0  0  0 
 17 37  1  0  0  0  0 
 18 38  1  0  0  0  0 
 20 39  1  0  0  0  0 
 21 40  1  0  0  0  0 
 22 41  1  0  0  0  0 
 22 42  1  0  0  0  0 
 22 43  1  0  0  0  0 
M  END
> <cdk:Title>
metopon

> <Conformer>
1

> <SuperDrugID>
SD001585

$$$$
