methylphenidate
  CDK     0628171801

 36 37  0  0  0  0  0  0  0  0999 V2000
   -0.0189    0.4898   -0.4803 C   0  0  2  0  0  0  0  0  0  0  0  0
    0.5962    0.5688    0.8715 C   0  0  0  0  0  0  0  0  0  0  0  0
   -0.2333    1.8843   -0.9973 C   0  0  0  0  0  0  0  0  0  0  0  0
   -1.2863   -0.4339   -0.5114 C   0  0  1  0  0  0  0  0  0  0  0  0
    1.9000    0.1948    1.0328 O   0  0  0  0  0  0  0  0  0  0  0  0
   -0.0721    0.9759    1.8519 O   0  0  0  0  0  0  0  0  0  0  0  0
   -1.2288    2.7392   -0.4578 C   0  0  0  0  0  0  0  0  0  0  0  0
    0.5880    2.3978   -2.0345 C   0  0  0  0  0  0  0  0  0  0  0  0
   -1.9005   -0.4284   -1.8694 N   0  0  1  0  0  0  0  0  0  0  0  0
   -0.9504   -1.9075   -0.1107 C   0  0  2  0  0  0  0  0  0  0  0  0
    2.6427    0.2148    2.2572 C   0  0  0  0  0  0  0  0  0  0  0  0
   -1.3971    4.0528   -0.9357 C   0  0  0  0  0  0  0  0  0  0  0  0
    0.4263    3.7128   -2.5091 C   0  0  0  0  0  0  0  0  0  0  0  0
   -3.1271   -1.2555   -1.9885 C   0  0  1  0  0  0  0  0  0  0  0  0
   -2.1911   -2.8301   -0.2152 C   0  0  2  0  0  0  0  0  0  0  0  0
   -0.5656    4.5419   -1.9592 C   0  0  0  0  0  0  0  0  0  0  0  0
   -2.8475   -2.7322   -1.6146 C   0  0  2  0  0  0  0  0  0  0  0  0
   -2.0239   -0.0453    0.1983 H   0  0  0  0  0  0  0  0  0  0  0  0
    0.7131   -0.0051   -1.1272 H   0  0  0  0  0  0  0  0  0  0  0  0
   -1.8393    2.4141    0.2951 H   0  0  0  0  0  0  0  0  0  0  0  0
    1.3229    1.8213   -2.4507 H   0  0  0  0  0  0  0  0  0  0  0  0
   -2.1762    0.5335   -2.0774 H   0  0  0  0  0  0  0  0  0  0  0  0
   -0.5812   -1.9461    0.9164 H   0  0  0  0  0  0  0  0  0  0  0  0
   -0.1646   -2.2963   -0.7650 H   0  0  0  0  0  0  0  0  0  0  0  0
    3.6673   -0.0941    2.0531 H   0  0  0  0  0  0  0  0  0  0  0  0
    2.2044   -0.4783    2.9748 H   0  0  0  0  0  0  0  0  0  0  0  0
    2.6504    1.2221    2.6800 H   0  0  0  0  0  0  0  0  0  0  0  0
   -2.1207    4.6560   -0.5376 H   0  0  0  0  0  0  0  0  0  0  0  0
    1.0342    4.0647   -3.2525 H   0  0  0  0  0  0  0  0  0  0  0  0
   -3.9107   -0.8486   -1.3434 H   0  0  0  0  0  0  0  0  0  0  0  0
   -3.4811   -1.2060   -3.0205 H   0  0  0  0  0  0  0  0  0  0  0  0
   -2.9194   -2.5438    0.5487 H   0  0  0  0  0  0  0  0  0  0  0  0
   -1.8964   -3.8647   -0.0205 H   0  0  0  0  0  0  0  0  0  0  0  0
   -0.6850    5.4990   -2.3035 H   0  0  0  0  0  0  0  0  0  0  0  0
   -2.1821   -3.1715   -2.3634 H   0  0  0  0  0  0  0  0  0  0  0  0
   -3.7834   -3.2975   -1.6195 H   0  0  0  0  0  0  0  0  0  0  0  0
  1  2  1  0  0  0  0 
  1  3  1  0  0  0  0 
  4  1  1  0  0  0  0 
  2  5  1  0  0  0  0 
  2  6  2  0  0  0  0 
  3  7  2  0  0  0  0 
  3  8  1  0  0  0  0 
  4  9  1  0  0  0  0 
  4 10  1  0  0  0  0 
  5 11  1  0  0  0  0 
  7 12  1  0  0  0  0 
  8 13  2  0  0  0  0 
  9 14  1  0  0  0  0 
 10 15  1  0  0  0  0 
 12 16  2  0  0  0  0 
 13 16  1  0  0  0  0 
 14 17  1  0  0  0  0 
 15 17  1  0  0  0  0 
  4 18  1  0  0  0  0 
  1 19  1  0  0  0  0 
  7 20  1  0  0  0  0 
  8 21  1  0  0  0  0 
  9 22  1  0  0  0  0 
 10 23  1  0  0  0  0 
 10 24  1  0  0  0  0 
 11 25  1  0  0  0  0 
 11 26  1  0  0  0  0 
 11 27  1  0  0  0  0 
 12 28  1  0  0  0  0 
 13 29  1  0  0  0  0 
 14 30  1  0  0  0  0 
 14 31  1  0  0  0  0 
 15 32  1  0  0  0  0 
 15 33  1  0  0  0  0 
 16 34  1  0  0  0  0 
 17 35  1  0  0  0  0 
 17 36  1  0  0  0  0 
M  END
> <cdk:Title>
methylphenidate

> <Conformer>
1

> <SuperDrugID>
SD001567

$$$$
