ectylurea
  CDK     0628171802

 23 22  0  0  0  0  0  0  0  0999 V2000
   -0.6475   -0.4607    1.3727 C   0  0  0  0  0  0  0  0  0  0  0  0
   -1.6353   -0.0394    0.2568 C   0  0  2  0  0  0  0  0  0  0  0  0
   -1.7779    1.4162    0.1212 C   0  0  0  0  0  0  0  0  0  0  0  0
   -2.4136    2.1311    1.0771 C   0  0  0  0  0  0  0  0  0  0  0  0
   -2.6329    3.5669    1.0695 C   0  0  0  0  0  0  0  0  0  0  0  0
   -1.2822    2.0159   -1.0329 C   0  0  0  0  0  0  0  0  0  0  0  0
   -1.9448    1.8691   -2.0845 O   0  0  0  0  0  0  0  0  0  0  0  0
   -0.1243    2.7260   -1.1466 N   0  0  0  0  0  0  0  0  0  0  0  0
    0.8135    2.9733   -0.1941 C   0  0  0  0  0  0  0  0  0  0  0  0
    1.9008    3.6755   -0.5459 N   0  0  0  0  0  0  0  0  0  0  0  0
    0.7344    2.5837    0.9930 O   0  0  0  0  0  0  0  0  0  0  0  0
    0.3634   -0.1294    1.1256 H   0  0  0  0  0  0  0  0  0  0  0  0
   -0.6363   -1.5490    1.4628 H   0  0  0  0  0  0  0  0  0  0  0  0
   -0.9352   -0.0373    2.3379 H   0  0  0  0  0  0  0  0  0  0  0  0
   -2.6173   -0.4783    0.4587 H   0  0  0  0  0  0  0  0  0  0  0  0
   -1.2760   -0.4905   -0.6745 H   0  0  0  0  0  0  0  0  0  0  0  0
   -2.7700    1.6430    1.8682 H   0  0  0  0  0  0  0  0  0  0  0  0
   -3.2863    3.8582    1.8946 H   0  0  0  0  0  0  0  0  0  0  0  0
   -1.6850    4.0930    1.1868 H   0  0  0  0  0  0  0  0  0  0  0  0
   -3.1112    3.8776    0.1401 H   0  0  0  0  0  0  0  0  0  0  0  0
    0.0613    3.0932   -2.0266 H   0  0  0  0  0  0  0  0  0  0  0  0
    2.0018    3.9918   -1.4575 H   0  0  0  0  0  0  0  0  0  0  0  0
    2.5901    3.8670    0.1102 H   0  0  0  0  0  0  0  0  0  0  0  0
  1  2  1  0  0  0  0 
  2  3  1  0  0  0  0 
  3  4  2  0  0  0  0 
  4  5  1  0  0  0  0 
  3  6  1  0  0  0  0 
  6  7  2  0  0  0  0 
  6  8  1  0  0  0  0 
  8  9  1  0  0  0  0 
  9 10  1  0  0  0  0 
  9 11  2  0  0  0  0 
  1 12  1  0  0  0  0 
  1 13  1  0  0  0  0 
  1 14  1  0  0  0  0 
  2 15  1  0  0  0  0 
  2 16  1  0  0  0  0 
  4 17  1  0  0  0  0 
  5 18  1  0  0  0  0 
  5 19  1  0  0  0  0 
  5 20  1  0  0  0  0 
  8 21  1  0  0  0  0 
 10 22  1  0  0  0  0 
 10 23  1  0  0  0  0 
M  END
> <cdk:Title>
ectylurea

> <Conformer>
1

> <SuperDrugID>
SD000873

$$$$
