acetamidoeugenol
  CDK     0628171802

 43 43  0  0  0  0  0  0  0  0999 V2000
    5.3043   -0.7711    7.0569 O   0  0  0  0  0  0  0  0  0  0  0  0
    4.4244   -1.3339    8.0609 C   0  0  1  0  0  0  0  0  0  0  0  0
    6.2714    0.0387    7.5893 C   0  0  0  0  0  0  0  0  0  0  0  0
    3.3518   -2.1757    7.4709 C   0  0  0  0  0  0  0  0  0  0  0  0
    6.0912    1.4373    7.6064 C   0  0  0  0  0  0  0  0  0  0  0  0
    7.4491   -0.5240    8.1219 C   0  0  0  0  0  0  0  0  0  0  0  0
    2.5006   -3.0145    8.1973 N   0  0  0  0  0  0  0  0  0  0  0  0
    3.2341   -2.0926    6.2241 O   0  0  0  0  0  0  0  0  0  0  0  0
    4.9750    1.9990    7.0482 O   0  0  0  0  0  0  0  0  0  0  0  0
    7.0573    2.2553    8.2273 C   0  0  0  0  0  0  0  0  0  0  0  0
    8.4183    0.2992    8.7204 C   0  0  0  0  0  0  0  0  0  0  0  0
    2.5892   -3.1505    9.6473 C   0  0  2  0  0  0  0  0  0  0  0  0
    1.4890   -3.8125    7.5101 C   0  0  2  0  0  0  0  0  0  0  0  0
    5.1742    2.3752    5.6732 C   0  0  0  0  0  0  0  0  0  0  0  0
    8.2277    1.6990    8.7933 C   0  0  0  0  0  0  0  0  0  0  0  0
    2.0139   -1.9463   10.4359 C   0  0  0  0  0  0  0  0  0  0  0  0
    0.0615   -3.2418    7.6688 C   0  0  0  0  0  0  0  0  0  0  0  0
    9.2172    2.5776    9.4693 C   0  0  2  0  0  0  0  0  0  0  0  0
    8.7044    2.9913   10.7649 C   0  0  0  0  0  0  0  0  0  0  0  0
    8.4373    4.2600   11.0978 C   0  0  0  0  0  0  0  0  0  0  0  0
    5.0149   -1.9477    8.7458 H   0  0  0  0  0  0  0  0  0  0  0  0
    3.9431   -0.5268    8.6167 H   0  0  0  0  0  0  0  0  0  0  0  0
    7.5942   -1.5361    8.0871 H   0  0  0  0  0  0  0  0  0  0  0  0
    6.8984    3.2649    8.2632 H   0  0  0  0  0  0  0  0  0  0  0  0
    9.2530   -0.1345    9.1193 H   0  0  0  0  0  0  0  0  0  0  0  0
    3.6244   -3.3190    9.9520 H   0  0  0  0  0  0  0  0  0  0  0  0
    2.0503   -4.0404    9.9897 H   0  0  0  0  0  0  0  0  0  0  0  0
    1.5050   -4.8402    7.8843 H   0  0  0  0  0  0  0  0  0  0  0  0
    1.6800   -3.9000    6.4375 H   0  0  0  0  0  0  0  0  0  0  0  0
    4.2322    2.7688    5.2923 H   0  0  0  0  0  0  0  0  0  0  0  0
    5.9317    3.1583    5.5797 H   0  0  0  0  0  0  0  0  0  0  0  0
    5.4570    1.5171    5.0569 H   0  0  0  0  0  0  0  0  0  0  0  0
    1.7851   -2.2479   11.4617 H   0  0  0  0  0  0  0  0  0  0  0  0
    2.7361   -1.1327   10.4843 H   0  0  0  0  0  0  0  0  0  0  0  0
    1.1005   -1.5763    9.9671 H   0  0  0  0  0  0  0  0  0  0  0  0
   -0.6364   -3.8288    7.0685 H   0  0  0  0  0  0  0  0  0  0  0  0
   -0.2607   -3.2842    8.7098 H   0  0  0  0  0  0  0  0  0  0  0  0
    0.0296   -2.2055    7.3275 H   0  0  0  0  0  0  0  0  0  0  0  0
    9.4436    3.4290    8.8199 H   0  0  0  0  0  0  0  0  0  0  0  0
   10.1616    2.0522    9.6323 H   0  0  0  0  0  0  0  0  0  0  0  0
    8.5402    2.2834   11.4459 H   0  0  0  0  0  0  0  0  0  0  0  0
    8.5881    5.0034   10.4591 H   0  0  0  0  0  0  0  0  0  0  0  0
    8.0771    4.4719   11.9977 H   0  0  0  0  0  0  0  0  0  0  0  0
  1  2  1  0  0  0  0 
  1  3  1  0  0  0  0 
  2  4  1  0  0  0  0 
  3  5  2  0  0  0  0 
  3  6  1  0  0  0  0 
  4  7  1  0  0  0  0 
  4  8  2  0  0  0  0 
  5  9  1  0  0  0  0 
  5 10  1  0  0  0  0 
  6 11  2  0  0  0  0 
  7 12  1  0  0  0  0 
  7 13  1  0  0  0  0 
  9 14  1  0  0  0  0 
 10 15  2  0  0  0  0 
 11 15  1  0  0  0  0 
 12 16  1  0  0  0  0 
 13 17  1  0  0  0  0 
 15 18  1  0  0  0  0 
 18 19  1  0  0  0  0 
 19 20  2  0  0  0  0 
  2 21  1  0  0  0  0 
  2 22  1  0  0  0  0 
  6 23  1  0  0  0  0 
 10 24  1  0  0  0  0 
 11 25  1  0  0  0  0 
 12 26  1  0  0  0  0 
 12 27  1  0  0  0  0 
 13 28  1  0  0  0  0 
 13 29  1  0  0  0  0 
 14 30  1  0  0  0  0 
 14 31  1  0  0  0  0 
 14 32  1  0  0  0  0 
 16 33  1  0  0  0  0 
 16 34  1  0  0  0  0 
 16 35  1  0  0  0  0 
 17 36  1  0  0  0  0 
 17 37  1  0  0  0  0 
 17 38  1  0  0  0  0 
 18 39  1  0  0  0  0 
 18 40  1  0  0  0  0 
 19 41  1  0  0  0  0 
 20 42  1  0  0  0  0 
 20 43  1  0  0  0  0 
M  END
> <cdk:Title>
acetamidoeugenol

> <Conformer>
1

> <SuperDrugID>
SD000028

$$$$
