cyproterone acetate
  CDK     0628171802

 58 62  0  0  0  0  0  0  0  0999 V2000
   -3.0872    1.2013    1.7491 C   0  0  0  0  0  0  0  0  0  0  0  0
   -2.9686    0.5149    0.3448 C   0  0  1  0  0  0  0  0  0  0  0  0
   -2.4179   -0.9321    0.6298 C   0  0  2  0  0  0  0  0  0  0  0  0
   -4.3599    0.3709   -0.3948 C   0  0  2  0  0  0  0  0  0  0  0  0
   -2.0749    1.3818   -0.4972 C   0  0  0  0  0  0  0  0  0  0  0  0
   -0.9171   -1.1679    0.4266 C   0  0  1  0  0  0  0  0  0  0  0  0
   -1.9320   -1.8443   -0.5115 C   0  0  2  0  0  0  0  0  0  0  0  0
   -4.9629    1.7835   -0.7276 C   0  0  2  0  0  0  0  0  0  0  0  0
   -5.4444   -0.5608    0.2545 C   0  0  2  0  0  0  0  0  0  0  0  0
   -2.6187    2.5190   -1.0988 C   0  0  0  0  0  0  0  0  0  0  0  0
   -0.7651    1.0673   -0.6684 C   0  0  0  0  0  0  0  0  0  0  0  0
   -0.1487   -0.0610   -0.1574 C   0  0  0  0  0  0  0  0  0  0  0  0
   -6.2025    1.5724   -1.6573 C   0  0  1  0  0  0  0  0  0  0  0  0
   -3.9496    2.6950   -1.2515 C   0  0  0  0  0  0  0  0  0  0  0  0
   -6.7408   -0.6698   -0.6066 C   0  0  2  0  0  0  0  0  0  0  0  0
   -1.6754    3.7924   -1.6548 Cl  0  0  0  0  0  0  0  0  0  0  0  0
    1.0958   -0.1889   -0.2291 O   0  0  0  0  0  0  0  0  0  0  0  0
   -7.3496    0.7319   -0.9895 C   0  0  1  0  0  0  0  0  0  0  0  0
   -6.9278    2.7877   -2.2645 C   0  0  1  0  0  0  0  0  0  0  0  0
   -7.9679    1.3821    0.3132 C   0  0  0  0  0  0  0  0  0  0  0  0
   -8.4074    0.7433   -2.1660 C   0  0  2  0  0  0  0  0  0  0  0  0
   -8.2924    2.2128   -2.7181 C   0  0  2  0  0  0  0  0  0  0  0  0
   -9.7953    0.3087   -1.7763 C   0  0  0  0  0  0  0  0  0  0  0  0
   -7.9402   -0.1765   -3.1823 O   0  0  0  0  0  0  0  0  0  0  0  0
  -10.1269   -1.0817   -1.3918 C   0  0  0  0  0  0  0  0  0  0  0  0
  -10.7406    1.1322   -1.7499 O   0  0  0  0  0  0  0  0  0  0  0  0
   -8.4537   -0.5050   -4.4031 C   0  0  0  0  0  0  0  0  0  0  0  0
   -7.7720   -1.5643   -5.1548 C   0  0  0  0  0  0  0  0  0  0  0  0
   -9.4755    0.0533   -4.8670 O   0  0  0  0  0  0  0  0  0  0  0  0
   -3.4429    2.2301    1.6763 H   0  0  0  0  0  0  0  0  0  0  0  0
   -2.1120    1.2279    2.2420 H   0  0  0  0  0  0  0  0  0  0  0  0
   -3.7742    0.6572    2.3992 H   0  0  0  0  0  0  0  0  0  0  0  0
   -2.8284   -1.4806    1.4826 H   0  0  0  0  0  0  0  0  0  0  0  0
   -4.1249   -0.1067   -1.3554 H   0  0  0  0  0  0  0  0  0  0  0  0
   -0.4438   -1.8242    1.1610 H   0  0  0  0  0  0  0  0  0  0  0  0
   -2.0224   -1.4438   -1.5237 H   0  0  0  0  0  0  0  0  0  0  0  0
   -2.0924   -2.9122   -0.3556 H   0  0  0  0  0  0  0  0  0  0  0  0
   -5.3023    2.2605    0.1927 H   0  0  0  0  0  0  0  0  0  0  0  0
   -5.6992   -0.2041    1.2523 H   0  0  0  0  0  0  0  0  0  0  0  0
   -5.0488   -1.5725    0.3671 H   0  0  0  0  0  0  0  0  0  0  0  0
   -0.1754    1.6573   -1.2070 H   0  0  0  0  0  0  0  0  0  0  0  0
   -5.8096    1.0276   -2.5274 H   0  0  0  0  0  0  0  0  0  0  0  0
   -4.2800    3.5202   -1.7007 H   0  0  0  0  0  0  0  0  0  0  0  0
   -7.4750   -1.2663   -0.0605 H   0  0  0  0  0  0  0  0  0  0  0  0
   -6.4838   -1.2375   -1.5052 H   0  0  0  0  0  0  0  0  0  0  0  0
   -7.0595    3.5770   -1.5179 H   0  0  0  0  0  0  0  0  0  0  0  0
   -6.3721    3.1989   -3.1125 H   0  0  0  0  0  0  0  0  0  0  0  0
   -8.4241    2.3494    0.1101 H   0  0  0  0  0  0  0  0  0  0  0  0
   -8.7433    0.7387    0.7295 H   0  0  0  0  0  0  0  0  0  0  0  0
   -7.2349    1.5316    1.1007 H   0  0  0  0  0  0  0  0  0  0  0  0
   -8.3601    2.2344   -3.8076 H   0  0  0  0  0  0  0  0  0  0  0  0
   -9.0804    2.8616   -2.3297 H   0  0  0  0  0  0  0  0  0  0  0  0
   -9.4559   -1.8006   -1.8624 H   0  0  0  0  0  0  0  0  0  0  0  0
  -11.1458   -1.3260   -1.6987 H   0  0  0  0  0  0  0  0  0  0  0  0
  -10.0535   -1.1877   -0.3093 H   0  0  0  0  0  0  0  0  0  0  0  0
   -7.7421   -2.4764   -4.5556 H   0  0  0  0  0  0  0  0  0  0  0  0
   -8.2881   -1.7760   -6.0912 H   0  0  0  0  0  0  0  0  0  0  0  0
   -6.7476   -1.2625   -5.3744 H   0  0  0  0  0  0  0  0  0  0  0  0
  2  1  1  0  0  0  0 
  2  3  1  0  0  0  0 
  2  4  1  0  0  0  0 
  2  5  1  0  0  0  0 
  3  6  1  0  0  0  0 
  3  7  1  0  0  0  0 
  4  8  1  0  0  0  0 
  4  9  1  0  0  0  0 
  5 10  1  0  0  0  0 
  5 11  2  0  0  0  0 
  6  7  1  0  0  0  0 
  6 12  1  0  0  0  0 
  8 13  1  0  0  0  0 
  8 14  1  0  0  0  0 
  9 15  1  0  0  0  0 
 10 14  2  0  0  0  0 
 10 16  1  0  0  0  0 
 11 12  1  0  0  0  0 
 12 17  2  0  0  0  0 
 13 18  1  0  0  0  0 
 13 19  1  0  0  0  0 
 18 15  1  0  0  0  0 
 18 20  1  0  0  0  0 
 18 21  1  0  0  0  0 
 19 22  1  0  0  0  0 
 21 22  1  0  0  0  0 
 21 23  1  0  0  0  0 
 21 24  1  0  0  0  0 
 23 25  1  0  0  0  0 
 23 26  2  0  0  0  0 
 24 27  1  0  0  0  0 
 27 28  1  0  0  0  0 
 27 29  2  0  0  0  0 
 30  1  1  0  0  0  0 
 31  1  1  0  0  0  0 
 32  1  1  0  0  0  0 
  3 33  1  0  0  0  0 
  4 34  1  0  0  0  0 
  6 35  1  0  0  0  0 
 36  7  1  0  0  0  0 
 37  7  1  0  0  0  0 
  8 38  1  0  0  0  0 
 39  9  1  0  0  0  0 
 40  9  1  0  0  0  0 
 41 11  1  0  0  0  0 
 13 42  1  0  0  0  0 
 43 14  1  0  0  0  0 
 44 15  1  0  0  0  0 
 45 15  1  0  0  0  0 
 46 19  1  0  0  0  0 
 47 19  1  0  0  0  0 
 48 20  1  0  0  0  0 
 49 20  1  0  0  0  0 
 50 20  1  0  0  0  0 
 51 22  1  0  0  0  0 
 52 22  1  0  0  0  0 
 53 25  1  0  0  0  0 
 54 25  1  0  0  0  0 
 55 25  1  0  0  0  0 
 56 28  1  0  0  0  0 
 57 28  1  0  0  0  0 
 58 28  1  0  0  0  0 
M  END
> <cdk:Title>
cyproterone acetate

> <Conformer>
1

> <SuperDrugID>
SD000675

$$$$
