dihydrocodeine
  CDK     0628171802

 45 49  0  0  0  0  0  0  0  0999 V2000
   -2.2859    2.0966    3.5578 O   0  0  0  0  0  0  0  0  0  0  0  0
   -2.0501    3.3083    2.8341 C   0  0  2  0  0  0  0  0  0  0  0  0
   -0.9607    3.1193    1.7175 C   0  0  1  0  0  0  0  0  0  0  0  0
   -1.6818    4.4334    3.8389 C   0  0  1  0  0  0  0  0  0  0  0  0
    0.5239    3.2620    2.2018 C   0  0  2  0  0  0  0  0  0  0  0  0
   -1.0569    1.7942    1.1217 O   0  0  0  0  0  0  0  0  0  0  0  0
   -0.3097    4.1535    4.5083 C   0  0  2  0  0  0  0  0  0  0  0  0
    0.7280    1.8566    2.5320 C   0  0  0  0  0  0  0  0  0  0  0  0
    0.8139    4.1829    3.4352 C   0  0  1  0  0  0  0  0  0  0  0  0
    1.5105    3.6815    1.0571 C   0  0  1  0  0  0  0  0  0  0  0  0
   -0.1549    1.0506    1.8271 C   0  0  0  0  0  0  0  0  0  0  0  0
    1.6426    1.3500    3.4709 C   0  0  0  0  0  0  0  0  0  0  0  0
    2.2556    3.8180    3.9428 C   0  0  1  0  0  0  0  0  0  0  0  0
    3.0020    3.6789    1.5096 C   0  0  1  0  0  0  0  0  0  0  0  0
   -0.0670   -0.3516    1.9384 C   0  0  0  0  0  0  0  0  0  0  0  0
    2.3972    2.2978    4.3342 C   0  0  2  0  0  0  0  0  0  0  0  0
    1.7342   -0.0567    3.5885 C   0  0  0  0  0  0  0  0  0  0  0  0
    3.2198    4.2636    2.8732 N   0  0  2  0  0  0  0  0  0  0  0  0
   -0.8736   -1.1624    1.1882 O   0  0  0  0  0  0  0  0  0  0  0  0
    0.8996   -0.8983    2.8171 C   0  0  0  0  0  0  0  0  0  0  0  0
    4.6566    4.3357    3.2750 C   0  0  0  0  0  0  0  0  0  0  0  0
   -2.1052   -1.5182    1.8381 C   0  0  0  0  0  0  0  0  0  0  0  0
    0.8400    5.2250    3.0908 H   0  0  0  0  0  0  0  0  0  0  0  0
   -1.1633    3.8628    0.9409 H   0  0  0  0  0  0  0  0  0  0  0  0
    2.4491    4.4183    4.8373 H   0  0  0  0  0  0  0  0  0  0  0  0
   -3.0450    2.2919    4.1474 H   0  0  0  0  0  0  0  0  0  0  0  0
   -2.9982    3.5671    2.3539 H   0  0  0  0  0  0  0  0  0  0  0  0
   -1.6433    5.3911    3.3095 H   0  0  0  0  0  0  0  0  0  0  0  0
   -2.4536    4.5161    4.6090 H   0  0  0  0  0  0  0  0  0  0  0  0
   -0.3363    3.1884    5.0187 H   0  0  0  0  0  0  0  0  0  0  0  0
   -0.1112    4.9183    5.2640 H   0  0  0  0  0  0  0  0  0  0  0  0
    1.4011    3.0251    0.1880 H   0  0  0  0  0  0  0  0  0  0  0  0
    1.2475    4.6908    0.7264 H   0  0  0  0  0  0  0  0  0  0  0  0
    3.3799    2.6538    1.4886 H   0  0  0  0  0  0  0  0  0  0  0  0
    3.5706    4.2560    0.7749 H   0  0  0  0  0  0  0  0  0  0  0  0
    3.4489    2.0098    4.3441 H   0  0  0  0  0  0  0  0  0  0  0  0
    2.0168    2.1676    5.3510 H   0  0  0  0  0  0  0  0  0  0  0  0
    2.4056   -0.4726    4.2394 H   0  0  0  0  0  0  0  0  0  0  0  0
    0.9873   -1.9134    2.9086 H   0  0  0  0  0  0  0  0  0  0  0  0
    5.2288    4.8788    2.5205 H   0  0  0  0  0  0  0  0  0  0  0  0
    5.0941    3.3392    3.3786 H   0  0  0  0  0  0  0  0  0  0  0  0
    4.7704    4.8763    4.2173 H   0  0  0  0  0  0  0  0  0  0  0  0
   -2.6529   -2.1823    1.1685 H   0  0  0  0  0  0  0  0  0  0  0  0
   -1.9274   -2.0507    2.7759 H   0  0  0  0  0  0  0  0  0  0  0  0
   -2.7238   -0.6379    2.0280 H   0  0  0  0  0  0  0  0  0  0  0  0
  2  1  1  0  0  0  0 
  3  2  1  0  0  0  0 
  2  4  1  0  0  0  0 
  5  3  1  0  0  0  0 
  3  6  1  0  0  0  0 
  3 24  1  0  0  0  0 
  4  7  1  0  0  0  0 
  5  8  1  0  0  0  0 
  9  5  1  0  0  0  0 
  5 10  1  0  0  0  0 
  6 11  1  0  0  0  0 
  9  7  1  0  0  0  0 
  8 11  2  0  0  0  0 
  8 12  1  0  0  0  0 
 13  9  1  0  0  0  0 
  9 23  1  0  0  0  0 
 10 14  1  0  0  0  0 
 11 15  1  0  0  0  0 
 12 16  1  0  0  0  0 
 12 17  2  0  0  0  0 
 13 16  1  0  0  0  0 
 13 18  1  0  0  0  0 
 13 25  1  0  0  0  0 
 14 18  1  0  0  0  0 
 15 19  1  0  0  0  0 
 15 20  2  0  0  0  0 
 17 20  1  0  0  0  0 
 18 21  1  0  0  0  0 
 19 22  1  0  0  0  0 
  1 26  1  0  0  0  0 
  2 27  1  0  0  0  0 
  4 28  1  0  0  0  0 
  4 29  1  0  0  0  0 
  7 30  1  0  0  0  0 
  7 31  1  0  0  0  0 
 10 32  1  0  0  0  0 
 10 33  1  0  0  0  0 
 14 34  1  0  0  0  0 
 14 35  1  0  0  0  0 
 16 36  1  0  0  0  0 
 16 37  1  0  0  0  0 
 17 38  1  0  0  0  0 
 20 39  1  0  0  0  0 
 21 40  1  0  0  0  0 
 21 41  1  0  0  0  0 
 21 42  1  0  0  0  0 
 22 43  1  0  0  0  0 
 22 44  1  0  0  0  0 
 22 45  1  0  0  0  0 
M  END
> <cdk:Title>
dihydrocodeine

> <Conformer>
1

> <SuperDrugID>
SD000788

$$$$
