bendamustine
  CDK     0628171801

 44 45  0  0  0  0  0  0  0  0999 V2000
   -9.6900   -5.8777   -9.2050 C   0  0  0  0  0  0  0  0  0  0  0  0
   -8.9444   -5.1918   -8.1868 N   0  0  0  0  0  0  0  0  0  0  0  0
   -7.6500   -4.8327   -8.2873 C   0  0  0  0  0  0  0  0  0  0  0  0
   -9.3594   -4.7594   -6.9655 C   0  0  0  0  0  0  0  0  0  0  0  0
   -7.2943   -4.1818   -7.1192 C   0  0  0  0  0  0  0  0  0  0  0  0
   -6.7090   -4.9872   -9.3138 C   0  0  0  0  0  0  0  0  0  0  0  0
  -10.7072   -4.8650   -6.3721 C   0  0  2  0  0  0  0  0  0  0  0  0
   -8.3523   -4.1519   -6.3049 N   0  0  0  0  0  0  0  0  0  0  0  0
   -6.0121   -3.6510   -6.9299 C   0  0  0  0  0  0  0  0  0  0  0  0
   -5.4221   -4.4384   -9.1407 C   0  0  0  0  0  0  0  0  0  0  0  0
  -11.6195   -3.6990   -6.8443 C   0  0  2  0  0  0  0  0  0  0  0  0
   -5.0234   -3.7310   -7.9585 C   0  0  0  0  0  0  0  0  0  0  0  0
  -13.0711   -3.8035   -6.3029 C   0  0  2  0  0  0  0  0  0  0  0  0
   -3.7423   -3.1338   -7.8296 N   0  0  0  0  0  0  0  0  0  0  0  0
  -13.8572   -4.8866   -6.9292 C   0  0  0  0  0  0  0  0  0  0  0  0
   -2.7197   -3.4061   -8.8448 C   0  0  1  0  0  0  0  0  0  0  0  0
   -3.4569   -2.1946   -6.7452 C   0  0  2  0  0  0  0  0  0  0  0  0
  -14.2460   -5.9634   -6.2056 O   0  0  0  0  0  0  0  0  0  0  0  0
  -14.1710   -4.8242   -8.1402 O   0  0  0  0  0  0  0  0  0  0  0  0
   -1.2928   -2.8077   -8.7481 C   0  0  1  0  0  0  0  0  0  0  0  0
   -4.1418   -0.8222   -6.9498 C   0  0  2  0  0  0  0  0  0  0  0  0
   -0.2894   -3.2913  -10.1120 Cl  0  0  0  0  0  0  0  0  0  0  0  0
   -3.7928    0.2782   -5.6210 Cl  0  0  0  0  0  0  0  0  0  0  0  0
  -10.7456   -5.9893   -8.9568 H   0  0  0  0  0  0  0  0  0  0  0  0
   -9.6271   -5.3298  -10.1477 H   0  0  0  0  0  0  0  0  0  0  0  0
   -9.2710   -6.8742   -9.3531 H   0  0  0  0  0  0  0  0  0  0  0  0
   -6.9538   -5.4752  -10.1766 H   0  0  0  0  0  0  0  0  0  0  0  0
  -10.6172   -4.8294   -5.2818 H   0  0  0  0  0  0  0  0  0  0  0  0
  -11.1438   -5.8316   -6.6313 H   0  0  0  0  0  0  0  0  0  0  0  0
   -5.8380   -3.1999   -6.0348 H   0  0  0  0  0  0  0  0  0  0  0  0
   -4.7828   -4.5658   -9.9236 H   0  0  0  0  0  0  0  0  0  0  0  0
  -11.6440   -3.6521   -7.9383 H   0  0  0  0  0  0  0  0  0  0  0  0
  -11.1875   -2.7586   -6.4843 H   0  0  0  0  0  0  0  0  0  0  0  0
  -13.5923   -2.8588   -6.4766 H   0  0  0  0  0  0  0  0  0  0  0  0
  -13.0313   -3.9524   -5.2214 H   0  0  0  0  0  0  0  0  0  0  0  0
   -2.5910   -4.4920   -8.8963 H   0  0  0  0  0  0  0  0  0  0  0  0
   -3.1046   -3.0499   -9.8051 H   0  0  0  0  0  0  0  0  0  0  0  0
   -2.3965   -1.9978   -6.6198 H   0  0  0  0  0  0  0  0  0  0  0  0
   -3.7443   -2.6192   -5.7851 H   0  0  0  0  0  0  0  0  0  0  0  0
  -14.7595   -6.6850   -6.6286 H   0  0  0  0  0  0  0  0  0  0  0  0
   -1.3496   -1.7174   -8.7461 H   0  0  0  0  0  0  0  0  0  0  0  0
   -0.7957   -3.1560   -7.8421 H   0  0  0  0  0  0  0  0  0  0  0  0
   -5.2239   -0.9337   -7.0150 H   0  0  0  0  0  0  0  0  0  0  0  0
   -3.7772   -0.3649   -7.8701 H   0  0  0  0  0  0  0  0  0  0  0  0
  1  2  1  0  0  0  0 
  2  3  1  0  0  0  0 
  2  4  1  0  0  0  0 
  3  5  1  0  0  0  0 
  3  6  2  0  0  0  0 
  4  7  1  0  0  0  0 
  4  8  2  0  0  0  0 
  5  8  1  0  0  0  0 
  5  9  2  0  0  0  0 
  6 10  1  0  0  0  0 
  7 11  1  0  0  0  0 
  9 12  1  0  0  0  0 
 10 12  2  0  0  0  0 
 11 13  1  0  0  0  0 
 12 14  1  0  0  0  0 
 13 15  1  0  0  0  0 
 14 16  1  0  0  0  0 
 14 17  1  0  0  0  0 
 15 18  1  0  0  0  0 
 15 19  2  0  0  0  0 
 16 20  1  0  0  0  0 
 17 21  1  0  0  0  0 
 20 22  1  0  0  0  0 
 21 23  1  0  0  0  0 
  1 24  1  0  0  0  0 
  1 25  1  0  0  0  0 
  1 26  1  0  0  0  0 
  6 27  1  0  0  0  0 
  7 28  1  0  0  0  0 
  7 29  1  0  0  0  0 
  9 30  1  0  0  0  0 
 10 31  1  0  0  0  0 
 11 32  1  0  0  0  0 
 11 33  1  0  0  0  0 
 13 34  1  0  0  0  0 
 13 35  1  0  0  0  0 
 16 36  1  0  0  0  0 
 16 37  1  0  0  0  0 
 17 38  1  0  0  0  0 
 17 39  1  0  0  0  0 
 18 40  1  0  0  0  0 
 20 41  1  0  0  0  0 
 20 42  1  0  0  0  0 
 21 43  1  0  0  0  0 
 21 44  1  0  0  0  0 
M  END
> <cdk:Title>
bendamustine

> <Conformer>
1

> <SuperDrugID>
SD000253

$$$$
