ebastine
  CDK     0628171802

 74 77  0  0  0  0  0  0  0  0999 V2000
    3.4027   -1.5840   -8.8901 C   0  0  2  0  0  0  0  0  0  0  0  0
    3.1414   -1.9430   -7.5076 O   0  0  0  0  0  0  0  0  0  0  0  0
    4.2233   -2.5948   -9.6257 C   0  0  0  0  0  0  0  0  0  0  0  0
    4.0324   -0.2326   -8.9711 C   0  0  0  0  0  0  0  0  0  0  0  0
    2.4934   -3.2075   -7.2191 C   0  0  2  0  0  0  0  0  0  0  0  0
    5.4135   -3.1164   -9.0626 C   0  0  0  0  0  0  0  0  0  0  0  0
    3.8078   -3.0837  -10.8887 C   0  0  0  0  0  0  0  0  0  0  0  0
    4.9498    0.2216   -7.9920 C   0  0  0  0  0  0  0  0  0  0  0  0
    3.7061    0.6440  -10.0367 C   0  0  0  0  0  0  0  0  0  0  0  0
    1.0833   -3.3425   -7.8666 C   0  0  2  0  0  0  0  0  0  0  0  0
    2.4134   -3.3515   -5.6730 C   0  0  1  0  0  0  0  0  0  0  0  0
    6.1486   -4.1183   -9.7255 C   0  0  0  0  0  0  0  0  0  0  0  0
    4.5457   -4.0800  -11.5567 C   0  0  0  0  0  0  0  0  0  0  0  0
    5.4958    1.5185   -8.0570 C   0  0  0  0  0  0  0  0  0  0  0  0
    4.2500    1.9408  -10.1033 C   0  0  0  0  0  0  0  0  0  0  0  0
    0.3641   -4.6223   -7.3800 C   0  0  1  0  0  0  0  0  0  0  0  0
    1.6019   -4.6098   -5.2450 C   0  0  1  0  0  0  0  0  0  0  0  0
    5.7104   -4.6045  -10.9705 C   0  0  0  0  0  0  0  0  0  0  0  0
    5.1413    2.3794   -9.1097 C   0  0  0  0  0  0  0  0  0  0  0  0
    0.2445   -4.6759   -5.8882 N   0  0  1  0  0  0  0  0  0  0  0  0
   -0.7564   -3.7554   -5.2510 C   0  0  2  0  0  0  0  0  0  0  0  0
   -2.1959   -3.7453   -5.8324 C   0  0  1  0  0  0  0  0  0  0  0  0
   -2.9046   -5.1258   -5.8029 C   0  0  1  0  0  0  0  0  0  0  0  0
   -4.3231   -5.0308   -6.2479 C   0  0  0  0  0  0  0  0  0  0  0  0
   -4.5695   -5.5096   -7.3825 O   0  0  0  0  0  0  0  0  0  0  0  0
   -5.3890   -4.4484   -5.4816 C   0  0  0  0  0  0  0  0  0  0  0  0
   -5.2374   -4.0700   -4.1260 C   0  0  0  0  0  0  0  0  0  0  0  0
   -6.6602   -4.2318   -6.0647 C   0  0  0  0  0  0  0  0  0  0  0  0
   -6.3058   -3.5239   -3.3907 C   0  0  0  0  0  0  0  0  0  0  0  0
   -7.7287   -3.6938   -5.3231 C   0  0  0  0  0  0  0  0  0  0  0  0
   -7.5935   -3.3316   -3.9560 C   0  0  0  0  0  0  0  0  0  0  0  0
   -8.7342   -2.7589   -3.1185 C   0  0  2  0  0  0  0  0  0  0  0  0
  -10.1149   -2.7089   -3.8683 C   0  0  0  0  0  0  0  0  0  0  0  0
   -8.3968   -1.2891   -2.6806 C   0  0  0  0  0  0  0  0  0  0  0  0
   -8.9560   -3.6500   -1.8469 C   0  0  0  0  0  0  0  0  0  0  0  0
    2.4211   -1.4887   -9.3627 H   0  0  0  0  0  0  0  0  0  0  0  0
    3.1196   -4.0281   -7.5818 H   0  0  0  0  0  0  0  0  0  0  0  0
    5.7428   -2.7860   -8.1533 H   0  0  0  0  0  0  0  0  0  0  0  0
    2.9588   -2.7252  -11.3318 H   0  0  0  0  0  0  0  0  0  0  0  0
    5.2227   -0.3850   -7.2170 H   0  0  0  0  0  0  0  0  0  0  0  0
    3.0613    0.3470  -10.7733 H   0  0  0  0  0  0  0  0  0  0  0  0
    1.1771   -3.4023   -8.9523 H   0  0  0  0  0  0  0  0  0  0  0  0
    0.4812   -2.4627   -7.6288 H   0  0  0  0  0  0  0  0  0  0  0  0
    3.4250   -3.4198   -5.2613 H   0  0  0  0  0  0  0  0  0  0  0  0
    1.9505   -2.4595   -5.2436 H   0  0  0  0  0  0  0  0  0  0  0  0
    6.9951   -4.5011   -9.2986 H   0  0  0  0  0  0  0  0  0  0  0  0
    4.2308   -4.4270  -12.4663 H   0  0  0  0  0  0  0  0  0  0  0  0
    6.1462    1.8361   -7.3355 H   0  0  0  0  0  0  0  0  0  0  0  0
    3.9927    2.5644  -10.8715 H   0  0  0  0  0  0  0  0  0  0  0  0
   -0.6075   -4.6977   -7.8658 H   0  0  0  0  0  0  0  0  0  0  0  0
    0.9256   -5.4958   -7.7225 H   0  0  0  0  0  0  0  0  0  0  0  0
    2.1686   -5.5032   -5.5257 H   0  0  0  0  0  0  0  0  0  0  0  0
    1.5161   -4.6315   -4.1533 H   0  0  0  0  0  0  0  0  0  0  0  0
    6.2379   -5.3388  -11.4486 H   0  0  0  0  0  0  0  0  0  0  0  0
    5.5286    3.3243   -9.1523 H   0  0  0  0  0  0  0  0  0  0  0  0
   -0.3914   -2.7270   -5.2871 H   0  0  0  0  0  0  0  0  0  0  0  0
   -0.8409   -4.0336   -4.1966 H   0  0  0  0  0  0  0  0  0  0  0  0
   -2.7730   -3.0274   -5.2462 H   0  0  0  0  0  0  0  0  0  0  0  0
   -2.1741   -3.3644   -6.8561 H   0  0  0  0  0  0  0  0  0  0  0  0
   -2.3553   -5.8091   -6.4589 H   0  0  0  0  0  0  0  0  0  0  0  0
   -2.8603   -5.5573   -4.8003 H   0  0  0  0  0  0  0  0  0  0  0  0
   -4.3480   -4.1882   -3.6425 H   0  0  0  0  0  0  0  0  0  0  0  0
   -6.8343   -4.4676   -7.0463 H   0  0  0  0  0  0  0  0  0  0  0  0
   -6.1200   -3.2730   -2.4180 H   0  0  0  0  0  0  0  0  0  0  0  0
   -8.6096   -3.5757   -5.8214 H   0  0  0  0  0  0  0  0  0  0  0  0
  -10.9126   -2.3301   -3.2255 H   0  0  0  0  0  0  0  0  0  0  0  0
  -10.0642   -2.0534   -4.7398 H   0  0  0  0  0  0  0  0  0  0  0  0
  -10.4095   -3.7062   -4.2018 H   0  0  0  0  0  0  0  0  0  0  0  0
   -9.2963   -0.9013   -2.0296 H   0  0  0  0  0  0  0  0  0  0  0  0
   -8.2007   -0.6983   -3.6271 H   0  0  0  0  0  0  0  0  0  0  0  0
   -7.3958   -1.2877   -2.1512 H   0  0  0  0  0  0  0  0  0  0  0  0
   -9.8084   -3.2998   -1.2600 H   0  0  0  0  0  0  0  0  0  0  0  0
   -8.0894   -3.6396   -1.1850 H   0  0  0  0  0  0  0  0  0  0  0  0
   -9.1481   -4.6859   -2.1349 H   0  0  0  0  0  0  0  0  0  0  0  0
  1  2  1  0  0  0  0 
  1  3  1  0  0  0  0 
  1  4  1  0  0  0  0 
  2  5  1  0  0  0  0 
  3  6  2  0  0  0  0 
  3  7  1  0  0  0  0 
  4  8  2  0  0  0  0 
  4  9  1  0  0  0  0 
  5 10  1  0  0  0  0 
  5 11  1  0  0  0  0 
  6 12  1  0  0  0  0 
  7 13  2  0  0  0  0 
  8 14  1  0  0  0  0 
  9 15  2  0  0  0  0 
 10 16  1  0  0  0  0 
 11 17  1  0  0  0  0 
 12 18  2  0  0  0  0 
 13 18  1  0  0  0  0 
 14 19  2  0  0  0  0 
 15 19  1  0  0  0  0 
 16 20  1  0  0  0  0 
 17 20  1  0  0  0  0 
 20 21  1  0  0  0  0 
 21 22  1  0  0  0  0 
 22 23  1  0  0  0  0 
 23 24  1  0  0  0  0 
 24 25  2  0  0  0  0 
 24 26  1  0  0  0  0 
 26 27  2  0  0  0  0 
 26 28  1  0  0  0  0 
 27 29  1  0  0  0  0 
 28 30  2  0  0  0  0 
 29 31  2  0  0  0  0 
 30 31  1  0  0  0  0 
 31 32  1  0  0  0  0 
 32 33  1  0  0  0  0 
 32 34  1  0  0  0  0 
 32 35  1  0  0  0  0 
 36  1  1  0  0  0  0 
 37  5  1  0  0  0  0 
 38  6  1  0  0  0  0 
 39  7  1  0  0  0  0 
 40  8  1  0  0  0  0 
 41  9  1  0  0  0  0 
 42 10  1  0  0  0  0 
 43 10  1  0  0  0  0 
 44 11  1  0  0  0  0 
 45 11  1  0  0  0  0 
 46 12  1  0  0  0  0 
 47 13  1  0  0  0  0 
 48 14  1  0  0  0  0 
 49 15  1  0  0  0  0 
 50 16  1  0  0  0  0 
 51 16  1  0  0  0  0 
 52 17  1  0  0  0  0 
 53 17  1  0  0  0  0 
 54 18  1  0  0  0  0 
 55 19  1  0  0  0  0 
 56 21  1  0  0  0  0 
 57 21  1  0  0  0  0 
 58 22  1  0  0  0  0 
 59 22  1  0  0  0  0 
 60 23  1  0  0  0  0 
 61 23  1  0  0  0  0 
 62 27  1  0  0  0  0 
 63 28  1  0  0  0  0 
 64 29  1  0  0  0  0 
 65 30  1  0  0  0  0 
 66 33  1  0  0  0  0 
 67 33  1  0  0  0  0 
 68 33  1  0  0  0  0 
 69 34  1  0  0  0  0 
 70 34  1  0  0  0  0 
 71 34  1  0  0  0  0 
 72 35  1  0  0  0  0 
 73 35  1  0  0  0  0 
 74 35  1  0  0  0  0 
M  END
> <cdk:Title>
ebastine

> <Conformer>
1

> <SuperDrugID>
SD000867

$$$$
