afatinib
  CDK     0628171801

 59 62  0  0  0  0  0  0  0  0999 V2000
    1.0087   -5.8097    5.1829 N   0  0  0  0  0  0  0  0  0  0  0  0
   -0.2526   -5.3993    5.5235 C   0  0  0  0  0  0  0  0  0  0  0  0
    1.5132   -7.0241    4.8143 C   0  0  0  0  0  0  0  0  0  0  0  0
   -0.4314   -4.1273    6.1316 C   0  0  0  0  0  0  0  0  0  0  0  0
   -1.3516   -6.1779    5.3308 N   0  0  0  0  0  0  0  0  0  0  0  0
    0.7824   -8.1376    4.3343 C   0  0  0  0  0  0  0  0  0  0  0  0
    2.9175   -7.1415    4.9294 C   0  0  0  0  0  0  0  0  0  0  0  0
   -1.7412   -3.7648    6.5497 C   0  0  0  0  0  0  0  0  0  0  0  0
    0.6252   -3.2225    6.3806 C   0  0  0  0  0  0  0  0  0  0  0  0
   -2.5991   -5.8001    5.7025 C   0  0  0  0  0  0  0  0  0  0  0  0
    1.4400   -9.3331    3.9764 C   0  0  0  0  0  0  0  0  0  0  0  0
    3.5777   -8.3286    4.5746 C   0  0  0  0  0  0  0  0  0  0  0  0
   -1.9626   -2.5507    7.2311 C   0  0  0  0  0  0  0  0  0  0  0  0
   -2.7801   -4.6045    6.3125 N   0  0  0  0  0  0  0  0  0  0  0  0
    0.4158   -2.0197    7.0876 C   0  0  0  0  0  0  0  0  0  0  0  0
    0.5315  -10.6426    3.4000 Cl  0  0  0  0  0  0  0  0  0  0  0  0
    2.8426   -9.4256    4.0921 C   0  0  0  0  0  0  0  0  0  0  0  0
   -0.8886   -1.6784    7.5087 C   0  0  0  0  0  0  0  0  0  0  0  0
    1.4880   -1.2594    7.4517 N   0  0  0  0  0  0  0  0  0  0  0  0
    3.4827  -10.5125    3.7574 F   0  0  0  0  0  0  0  0  0  0  0  0
   -1.0875   -0.5211    8.2156 O   0  0  0  0  0  0  0  0  0  0  0  0
    2.5581   -0.9483    6.6614 C   0  0  0  0  0  0  0  0  0  0  0  0
   -1.7222    0.5590    7.4907 C   0  0  1  0  0  0  0  0  0  0  0  0
    3.8014   -0.6421    7.1914 C   0  0  0  0  0  0  0  0  0  0  0  0
    2.4528   -1.0013    5.4116 O   0  0  0  0  0  0  0  0  0  0  0  0
   -1.8670    1.7531    8.4467 C   0  0  1  0  0  0  0  0  0  0  0  0
   -0.8462    1.1915    6.3906 C   0  0  2  0  0  0  0  0  0  0  0  0
    4.1698   -0.8996    8.4610 C   0  0  0  0  0  0  0  0  0  0  0  0
   -0.5613    2.5463    8.2340 C   0  0  1  0  0  0  0  0  0  0  0  0
    0.0987    2.0186    7.0750 O   0  0  0  0  0  0  0  0  0  0  0  0
    5.5165   -0.6958    8.9784 C   0  0  2  0  0  0  0  0  0  0  0  0
    6.1753   -1.9963    9.3364 N   0  0  1  0  0  0  0  0  0  0  0  0
    6.4575   -2.8761    8.1619 C   0  0  0  0  0  0  0  0  0  0  0  0
    7.3830   -1.8457   10.2032 C   0  0  0  0  0  0  0  0  0  0  0  0
    1.6872   -5.1269    5.2670 H   0  0  0  0  0  0  0  0  0  0  0  0
   -0.2295   -8.0892    4.2268 H   0  0  0  0  0  0  0  0  0  0  0  0
    3.4752   -6.3546    5.2760 H   0  0  0  0  0  0  0  0  0  0  0  0
    1.5753   -3.4467    6.0818 H   0  0  0  0  0  0  0  0  0  0  0  0
   -3.3973   -6.4141    5.5348 H   0  0  0  0  0  0  0  0  0  0  0  0
    4.5945   -8.3879    4.6679 H   0  0  0  0  0  0  0  0  0  0  0  0
   -2.9070   -2.3053    7.5412 H   0  0  0  0  0  0  0  0  0  0  0  0
    1.5211   -0.9742    8.3783 H   0  0  0  0  0  0  0  0  0  0  0  0
   -2.7022    0.2595    7.1045 H   0  0  0  0  0  0  0  0  0  0  0  0
    4.4817   -0.2676    6.5710 H   0  0  0  0  0  0  0  0  0  0  0  0
   -2.7318    2.3622    8.1643 H   0  0  0  0  0  0  0  0  0  0  0  0
   -1.9882    1.4378    9.4870 H   0  0  0  0  0  0  0  0  0  0  0  0
   -1.4514    1.8075    5.7155 H   0  0  0  0  0  0  0  0  0  0  0  0
   -0.3256    0.4416    5.7940 H   0  0  0  0  0  0  0  0  0  0  0  0
    3.5074   -1.2869    9.0935 H   0  0  0  0  0  0  0  0  0  0  0  0
   -0.7656    3.6103    8.0921 H   0  0  0  0  0  0  0  0  0  0  0  0
    0.1010    2.4290    9.0943 H   0  0  0  0  0  0  0  0  0  0  0  0
    5.4093   -0.0777    9.8740 H   0  0  0  0  0  0  0  0  0  0  0  0
    6.1452   -0.1387    8.2757 H   0  0  0  0  0  0  0  0  0  0  0  0
    7.2052   -2.4261    7.5026 H   0  0  0  0  0  0  0  0  0  0  0  0
    5.5517   -3.0620    7.5847 H   0  0  0  0  0  0  0  0  0  0  0  0
    6.8186   -3.8509    8.4936 H   0  0  0  0  0  0  0  0  0  0  0  0
    8.2066   -1.3765    9.6589 H   0  0  0  0  0  0  0  0  0  0  0  0
    7.7162   -2.8240   10.5597 H   0  0  0  0  0  0  0  0  0  0  0  0
    7.1597   -1.2426   11.0852 H   0  0  0  0  0  0  0  0  0  0  0  0
  1  2  1  0  0  0  0 
  1  3  1  0  0  0  0 
  2  4  2  0  0  0  0 
  2  5  1  0  0  0  0 
  3  6  2  0  0  0  0 
  3  7  1  0  0  0  0 
  4  8  1  0  0  0  0 
  4  9  1  0  0  0  0 
  5 10  2  0  0  0  0 
  6 11  1  0  0  0  0 
  7 12  2  0  0  0  0 
  8 13  1  0  0  0  0 
  8 14  2  0  0  0  0 
  9 15  2  0  0  0  0 
 10 14  1  0  0  0  0 
 11 16  1  0  0  0  0 
 11 17  2  0  0  0  0 
 12 17  1  0  0  0  0 
 13 18  2  0  0  0  0 
 15 18  1  0  0  0  0 
 15 19  1  0  0  0  0 
 17 20  1  0  0  0  0 
 18 21  1  0  0  0  0 
 19 22  1  0  0  0  0 
 22 24  1  0  0  0  0 
 22 25  2  0  0  0  0 
 23 21  1  0  0  0  0 
 23 26  1  0  0  0  0 
 23 27  1  0  0  0  0 
 24 28  2  0  0  0  0 
 26 29  1  0  0  0  0 
 27 30  1  0  0  0  0 
 28 31  1  0  0  0  0 
 29 30  1  0  0  0  0 
 31 32  1  0  0  0  0 
 32 33  1  0  0  0  0 
 32 34  1  0  0  0  0 
  1 35  1  0  0  0  0 
  6 36  1  0  0  0  0 
  7 37  1  0  0  0  0 
  9 38  1  0  0  0  0 
 10 39  1  0  0  0  0 
 12 40  1  0  0  0  0 
 13 41  1  0  0  0  0 
 19 42  1  0  0  0  0 
 23 43  1  0  0  0  0 
 24 44  1  0  0  0  0 
 26 45  1  0  0  0  0 
 26 46  1  0  0  0  0 
 27 47  1  0  0  0  0 
 27 48  1  0  0  0  0 
 28 49  1  0  0  0  0 
 29 50  1  0  0  0  0 
 29 51  1  0  0  0  0 
 31 52  1  0  0  0  0 
 31 53  1  0  0  0  0 
 33 54  1  0  0  0  0 
 33 55  1  0  0  0  0 
 33 56  1  0  0  0  0 
 34 57  1  0  0  0  0 
 34 58  1  0  0  0  0 
 34 59  1  0  0  0  0 
M  END
> <cdk:Title>
afatinib

> <Conformer>
1

> <SuperDrugID>
SD003495

$$$$
