zolmitriptan
  CDK     0628171801

 42 44  0  0  0  0  0  0  0  0999 V2000
    8.7792   -2.4564   -0.6581 C   0  0  1  0  0  0  0  0  0  0  0  0
    7.7636   -1.9318    0.3914 C   0  0  2  0  0  0  0  0  0  0  0  0
    8.3043   -3.6595   -1.3834 C   0  0  0  0  0  0  0  0  0  0  0  0
    6.4565   -1.5143   -0.2162 N   0  0  1  0  0  0  0  0  0  0  0  0
    7.5699   -3.7287   -2.5702 C   0  0  0  0  0  0  0  0  0  0  0  0
    8.5271   -4.9872   -1.0079 C   0  0  0  0  0  0  0  0  0  0  0  0
    5.2833   -1.7206    0.6836 C   0  0  0  0  0  0  0  0  0  0  0  0
    6.4700   -0.1413   -0.8061 C   0  0  0  0  0  0  0  0  0  0  0  0
    7.4026   -5.0778   -2.8784 C   0  0  0  0  0  0  0  0  0  0  0  0
    7.0342   -2.7328   -3.4070 C   0  0  0  0  0  0  0  0  0  0  0  0
    7.9829   -5.8114   -1.9189 N   0  0  0  0  0  0  0  0  0  0  0  0
    6.7219   -5.4818   -4.0372 C   0  0  0  0  0  0  0  0  0  0  0  0
    6.3178   -3.1106   -4.5713 C   0  0  0  0  0  0  0  0  0  0  0  0
    6.1839   -4.4894   -4.8830 C   0  0  0  0  0  0  0  0  0  0  0  0
    5.6877   -2.0673   -5.4266 C   0  0  1  0  0  0  0  0  0  0  0  0
    4.2242   -1.7723   -4.9912 C   0  0  2  0  0  0  0  0  0  0  0  0
    3.3545   -2.8571   -5.2695 N   0  0  0  0  0  0  0  0  0  0  0  0
    3.5470   -0.6064   -5.7668 C   0  0  1  0  0  0  0  0  0  0  0  0
    2.3257   -2.5036   -6.0421 C   0  0  0  0  0  0  0  0  0  0  0  0
    2.3860   -1.1949   -6.3467 O   0  0  0  0  0  0  0  0  0  0  0  0
    1.4289   -3.2831   -6.4306 O   0  0  0  0  0  0  0  0  0  0  0  0
    9.0292   -1.6702   -1.3724 H   0  0  0  0  0  0  0  0  0  0  0  0
    9.7084   -2.7067   -0.1388 H   0  0  0  0  0  0  0  0  0  0  0  0
    8.2139   -1.0942    0.9348 H   0  0  0  0  0  0  0  0  0  0  0  0
    7.6151   -2.7326    1.1233 H   0  0  0  0  0  0  0  0  0  0  0  0
    9.0318   -5.2911   -0.1747 H   0  0  0  0  0  0  0  0  0  0  0  0
    5.1978   -2.7744    0.9560 H   0  0  0  0  0  0  0  0  0  0  0  0
    4.3538   -1.4403    0.1819 H   0  0  0  0  0  0  0  0  0  0  0  0
    5.3793   -1.1302    1.5987 H   0  0  0  0  0  0  0  0  0  0  0  0
    7.3424    0.0128   -1.4400 H   0  0  0  0  0  0  0  0  0  0  0  0
    5.5860    0.0059   -1.4305 H   0  0  0  0  0  0  0  0  0  0  0  0
    6.4820    0.6246   -0.0259 H   0  0  0  0  0  0  0  0  0  0  0  0
    7.1552   -1.7479   -3.1700 H   0  0  0  0  0  0  0  0  0  0  0  0
    8.0071   -6.7797   -1.8884 H   0  0  0  0  0  0  0  0  0  0  0  0
    6.6174   -6.4728   -4.2621 H   0  0  0  0  0  0  0  0  0  0  0  0
    5.6840   -4.7791   -5.7276 H   0  0  0  0  0  0  0  0  0  0  0  0
    6.2648   -1.1404   -5.3563 H   0  0  0  0  0  0  0  0  0  0  0  0
    5.7101   -2.3716   -6.4775 H   0  0  0  0  0  0  0  0  0  0  0  0
    4.1882   -1.5643   -3.9171 H   0  0  0  0  0  0  0  0  0  0  0  0
    3.4903   -3.7570   -4.9302 H   0  0  0  0  0  0  0  0  0  0  0  0
    3.2529    0.2033   -5.0944 H   0  0  0  0  0  0  0  0  0  0  0  0
    4.1809   -0.2045   -6.5609 H   0  0  0  0  0  0  0  0  0  0  0  0
  1  2  1  0  0  0  0 
  1  3  1  0  0  0  0 
  2  4  1  0  0  0  0 
  3  5  1  0  0  0  0 
  3  6  2  0  0  0  0 
  4  7  1  0  0  0  0 
  4  8  1  0  0  0  0 
  5  9  1  0  0  0  0 
  5 10  2  0  0  0  0 
  6 11  1  0  0  0  0 
  9 11  1  0  0  0  0 
  9 12  2  0  0  0  0 
 10 13  1  0  0  0  0 
 12 14  1  0  0  0  0 
 13 14  2  0  0  0  0 
 13 15  1  0  0  0  0 
 16 15  1  0  0  0  0 
 16 17  1  0  0  0  0 
 16 18  1  0  0  0  0 
 17 19  1  0  0  0  0 
 18 20  1  0  0  0  0 
 19 20  1  0  0  0  0 
 19 21  2  0  0  0  0 
 22  1  1  0  0  0  0 
 23  1  1  0  0  0  0 
 24  2  1  0  0  0  0 
 25  2  1  0  0  0  0 
 26  6  1  0  0  0  0 
 27  7  1  0  0  0  0 
 28  7  1  0  0  0  0 
 29  7  1  0  0  0  0 
 30  8  1  0  0  0  0 
 31  8  1  0  0  0  0 
 32  8  1  0  0  0  0 
 33 10  1  0  0  0  0 
 34 11  1  0  0  0  0 
 35 12  1  0  0  0  0 
 36 14  1  0  0  0  0 
 37 15  1  0  0  0  0 
 38 15  1  0  0  0  0 
 16 39  1  0  0  0  0 
 40 17  1  0  0  0  0 
 41 18  1  0  0  0  0 
 42 18  1  0  0  0  0 
M  END
> <cdk:Title>
zolmitriptan

> <Conformer>
1

> <SuperDrugID>
SD002585

$$$$
