flunitrazepam
  CDK     0628171801

 35 37  0  0  0  0  0  0  0  0999 V2000
   -4.8168    4.2424    0.3720 C   0  0  0  0  0  0  0  0  0  0  0  0
   -4.9735    2.8049    0.4776 N   0  0  0  0  0  0  0  0  0  0  0  0
   -4.8108    2.1674    1.7108 C   0  0  0  0  0  0  0  0  0  0  0  0
   -5.2853    2.0985   -0.6765 C   0  0  0  0  0  0  0  0  0  0  0  0
   -4.0449    0.9733    1.8862 C   0  0  0  0  0  0  0  0  0  0  0  0
   -5.4536    2.7138    2.8489 C   0  0  0  0  0  0  0  0  0  0  0  0
   -5.5629    2.6937   -1.7476 O   0  0  0  0  0  0  0  0  0  0  0  0
   -5.2621    0.6203   -0.7246 C   0  0  2  0  0  0  0  0  0  0  0  0
   -3.4116    0.3275    0.8079 C   0  0  0  0  0  0  0  0  0  0  0  0
   -3.9472    0.3934    3.1792 C   0  0  0  0  0  0  0  0  0  0  0  0
   -5.3311    2.1310    4.1195 C   0  0  0  0  0  0  0  0  0  0  0  0
   -3.9988    0.1873   -0.3340 N   0  0  0  0  0  0  0  0  0  0  0  0
   -2.1280   -0.2240    0.9157 C   0  0  0  0  0  0  0  0  0  0  0  0
   -4.5758    0.9529    4.3175 C   0  0  0  0  0  0  0  0  0  0  0  0
   -1.0414    0.4926    1.4893 C   0  0  0  0  0  0  0  0  0  0  0  0
   -1.8888   -1.5443    0.4534 C   0  0  0  0  0  0  0  0  0  0  0  0
   -4.4740    0.3764    5.5327 N   0  0  0  0  0  0  0  0  0  0  0  0
   -1.1793    1.7125    1.9433 F   0  0  0  0  0  0  0  0  0  0  0  0
    0.2362   -0.0957    1.5761 C   0  0  0  0  0  0  0  0  0  0  0  0
   -0.6123   -2.1263    0.5432 C   0  0  0  0  0  0  0  0  0  0  0  0
   -3.8337   -0.7049    5.7307 O   0  0  0  0  0  0  0  0  0  0  0  0
   -4.9663    0.8219    6.4951 O   0  0  0  0  0  0  0  0  0  0  0  0
    0.4527   -1.4005    1.1010 C   0  0  0  0  0  0  0  0  0  0  0  0
   -4.4653    4.7039    1.2969 H   0  0  0  0  0  0  0  0  0  0  0  0
   -5.7693    4.7015    0.0997 H   0  0  0  0  0  0  0  0  0  0  0  0
   -4.0819    4.4887   -0.3976 H   0  0  0  0  0  0  0  0  0  0  0  0
   -6.0348    3.5503    2.7607 H   0  0  0  0  0  0  0  0  0  0  0  0
   -5.4448    0.2556   -1.7378 H   0  0  0  0  0  0  0  0  0  0  0  0
   -6.0329    0.2042   -0.0688 H   0  0  0  0  0  0  0  0  0  0  0  0
   -3.4114   -0.4710    3.2974 H   0  0  0  0  0  0  0  0  0  0  0  0
   -5.8118    2.5754    4.9065 H   0  0  0  0  0  0  0  0  0  0  0  0
   -2.6491   -2.1016    0.0523 H   0  0  0  0  0  0  0  0  0  0  0  0
    1.0146    0.4242    1.9876 H   0  0  0  0  0  0  0  0  0  0  0  0
   -0.4605   -3.0795    0.2066 H   0  0  0  0  0  0  0  0  0  0  0  0
    1.3820   -1.8224    1.1641 H   0  0  0  0  0  0  0  0  0  0  0  0
  1  2  1  0  0  0  0 
  2  3  1  0  0  0  0 
  2  4  1  0  0  0  0 
  3  5  2  0  0  0  0 
  3  6  1  0  0  0  0 
  4  7  2  0  0  0  0 
  4  8  1  0  0  0  0 
  5  9  1  0  0  0  0 
  5 10  1  0  0  0  0 
  6 11  2  0  0  0  0 
  8 12  1  0  0  0  0 
  9 12  2  0  0  0  0 
  9 13  1  0  0  0  0 
 10 14  2  0  0  0  0 
 11 14  1  0  0  0  0 
 13 15  2  0  0  0  0 
 13 16  1  0  0  0  0 
 14 17  1  0  0  0  0 
 15 18  1  0  0  0  0 
 15 19  1  0  0  0  0 
 16 20  2  0  0  0  0 
 17 21  1  0  0  0  0 
 17 22  2  0  0  0  0 
 19 23  2  0  0  0  0 
 20 23  1  0  0  0  0 
  1 24  1  0  0  0  0 
  1 25  1  0  0  0  0 
  1 26  1  0  0  0  0 
  6 27  1  0  0  0  0 
  8 28  1  0  0  0  0 
  8 29  1  0  0  0  0 
 10 30  1  0  0  0  0 
 11 31  1  0  0  0  0 
 16 32  1  0  0  0  0 
 19 33  1  0  0  0  0 
 20 34  1  0  0  0  0 
 23 35  1  0  0  0  0 
M  CHG  1  17   1
M  CHG  1  21  -1
M  END
> <cdk:Title>
flunitrazepam

> <Conformer>
1

> <SuperDrugID>
SD001076

$$$$
