pirisudanol
  CDK     0628171801

 48 48  0  0  0  0  0  0  0  0999 V2000
    2.3239    0.2019   -1.6425 C   0  0  2  0  0  0  0  0  0  0  0  0
    1.6111   -1.0156   -1.9022 O   0  0  0  0  0  0  0  0  0  0  0  0
    2.4881    0.3139   -0.1655 C   0  0  0  0  0  0  0  0  0  0  0  0
    1.0950   -1.4426   -3.0905 C   0  0  0  0  0  0  0  0  0  0  0  0
    1.4108    0.6031    0.7289 C   0  0  0  0  0  0  0  0  0  0  0  0
    3.7641    0.0621    0.3933 C   0  0  0  0  0  0  0  0  0  0  0  0
    0.5254   -2.8009   -3.1814 C   0  0  2  0  0  0  0  0  0  0  0  0
    1.0927   -0.6989   -4.1003 O   0  0  0  0  0  0  0  0  0  0  0  0
    0.0333    0.9558    0.2683 C   0  0  2  0  0  0  0  0  0  0  0  0
    1.6483    0.5460    2.1305 C   0  0  0  0  0  0  0  0  0  0  0  0
    3.9362    0.0197    1.7336 N   0  0  0  0  0  0  0  0  0  0  0  0
   -1.0079   -2.8086   -3.4155 C   0  0  2  0  0  0  0  0  0  0  0  0
   -0.9039   -0.0350    0.6703 O   0  0  0  0  0  0  0  0  0  0  0  0
    0.6553    0.7855    3.0296 O   0  0  0  0  0  0  0  0  0  0  0  0
    2.9340    0.2274    2.6227 C   0  0  0  0  0  0  0  0  0  0  0  0
   -1.5205   -4.1811   -3.6121 C   0  0  0  0  0  0  0  0  0  0  0  0
    3.2203    0.1057    4.0694 C   0  0  0  0  0  0  0  0  0  0  0  0
   -1.3875   -5.0756   -2.5890 O   0  0  0  0  0  0  0  0  0  0  0  0
   -2.0598   -4.5009   -4.6978 O   0  0  0  0  0  0  0  0  0  0  0  0
   -1.7533   -6.4634   -2.5443 C   0  0  1  0  0  0  0  0  0  0  0  0
   -2.8136   -6.7215   -1.4371 C   0  0  2  0  0  0  0  0  0  0  0  0
   -2.4296   -7.8113   -0.4798 N   0  0  1  0  0  0  0  0  0  0  0  0
   -3.1843   -7.7449    0.8064 C   0  0  0  0  0  0  0  0  0  0  0  0
   -2.4593   -9.1802   -1.0773 C   0  0  0  0  0  0  0  0  0  0  0  0
    1.7996    1.0697   -2.0466 H   0  0  0  0  0  0  0  0  0  0  0  0
    3.2873    0.1453   -2.1572 H   0  0  0  0  0  0  0  0  0  0  0  0
    4.5791   -0.1126   -0.1981 H   0  0  0  0  0  0  0  0  0  0  0  0
    0.7474   -3.3459   -2.2601 H   0  0  0  0  0  0  0  0  0  0  0  0
    1.0279   -3.3211   -4.0012 H   0  0  0  0  0  0  0  0  0  0  0  0
   -0.0561    1.0483   -0.8105 H   0  0  0  0  0  0  0  0  0  0  0  0
   -0.2644    1.9172    0.6940 H   0  0  0  0  0  0  0  0  0  0  0  0
   -1.2440   -2.1970   -4.2905 H   0  0  0  0  0  0  0  0  0  0  0  0
   -1.5196   -2.3729   -2.5526 H   0  0  0  0  0  0  0  0  0  0  0  0
   -1.7580    0.2805    0.3079 H   0  0  0  0  0  0  0  0  0  0  0  0
    0.1861    1.5784    2.6973 H   0  0  0  0  0  0  0  0  0  0  0  0
    2.6315   -0.7147    4.4892 H   0  0  0  0  0  0  0  0  0  0  0  0
    4.2798   -0.1003    4.2482 H   0  0  0  0  0  0  0  0  0  0  0  0
    2.9566    1.0336    4.5828 H   0  0  0  0  0  0  0  0  0  0  0  0
   -2.1337   -6.8105   -3.5086 H   0  0  0  0  0  0  0  0  0  0  0  0
   -0.8364   -7.0148   -2.3310 H   0  0  0  0  0  0  0  0  0  0  0  0
   -3.7765   -6.9546   -1.9008 H   0  0  0  0  0  0  0  0  0  0  0  0
   -2.9515   -5.7845   -0.8884 H   0  0  0  0  0  0  0  0  0  0  0  0
   -2.8038   -8.4863    1.5128 H   0  0  0  0  0  0  0  0  0  0  0  0
   -3.0573   -6.7645    1.2717 H   0  0  0  0  0  0  0  0  0  0  0  0
   -4.2523   -7.9214    0.6481 H   0  0  0  0  0  0  0  0  0  0  0  0
   -1.8141   -9.2339   -1.9550 H   0  0  0  0  0  0  0  0  0  0  0  0
   -2.0879   -9.9156   -0.3600 H   0  0  0  0  0  0  0  0  0  0  0  0
   -3.4731   -9.4621   -1.3736 H   0  0  0  0  0  0  0  0  0  0  0  0
  1  2  1  0  0  0  0 
  1  3  1  0  0  0  0 
  2  4  1  0  0  0  0 
  3  5  2  0  0  0  0 
  3  6  1  0  0  0  0 
  4  7  1  0  0  0  0 
  4  8  2  0  0  0  0 
  5  9  1  0  0  0  0 
  5 10  1  0  0  0  0 
  6 11  2  0  0  0  0 
  7 12  1  0  0  0  0 
  9 13  1  0  0  0  0 
 10 14  1  0  0  0  0 
 10 15  2  0  0  0  0 
 11 15  1  0  0  0  0 
 12 16  1  0  0  0  0 
 15 17  1  0  0  0  0 
 16 18  1  0  0  0  0 
 16 19  2  0  0  0  0 
 18 20  1  0  0  0  0 
 20 21  1  0  0  0  0 
 21 22  1  0  0  0  0 
 22 23  1  0  0  0  0 
 22 24  1  0  0  0  0 
  1 25  1  0  0  0  0 
  1 26  1  0  0  0  0 
  6 27  1  0  0  0  0 
  7 28  1  0  0  0  0 
  7 29  1  0  0  0  0 
  9 30  1  0  0  0  0 
  9 31  1  0  0  0  0 
 12 32  1  0  0  0  0 
 12 33  1  0  0  0  0 
 13 34  1  0  0  0  0 
 14 35  1  0  0  0  0 
 17 36  1  0  0  0  0 
 17 37  1  0  0  0  0 
 17 38  1  0  0  0  0 
 20 39  1  0  0  0  0 
 20 40  1  0  0  0  0 
 21 41  1  0  0  0  0 
 21 42  1  0  0  0  0 
 23 43  1  0  0  0  0 
 23 44  1  0  0  0  0 
 23 45  1  0  0  0  0 
 24 46  1  0  0  0  0 
 24 47  1  0  0  0  0 
 24 48  1  0  0  0  0 
M  END
> <cdk:Title>
pirisudanol

> <Conformer>
1

> <SuperDrugID>
SD001979

$$$$
