iodixanol
  CDK     0628171801

106107  0  0  0  0  0  0  0  0999 V2000
    4.6703    9.8055   -4.9689 N   0  0  0  0  0  0  0  0  0  0  0  0
    3.4492    9.7529   -4.1659 C   0  0  2  0  0  0  0  0  0  0  0  0
    5.3502    8.5809   -5.0339 C   0  0  0  0  0  0  0  0  0  0  0  0
    5.0051   10.8828   -5.8490 C   0  0  0  0  0  0  0  0  0  0  0  0
    2.2448    9.2705   -5.0506 C   0  0  2  0  0  0  0  0  0  0  0  0
    5.6638    7.7072   -3.8763 C   0  0  0  0  0  0  0  0  0  0  0  0
    5.7324    8.1364   -6.1446 O   0  0  0  0  0  0  0  0  0  0  0  0
    6.2859   10.8950   -6.4852 C   0  0  0  0  0  0  0  0  0  0  0  0
    4.1751   11.9979   -6.2233 C   0  0  0  0  0  0  0  0  0  0  0  0
    0.8205    9.7079   -4.5812 C   0  0  2  0  0  0  0  0  0  0  0  0
    2.2891    7.8412   -5.1101 O   0  0  0  0  0  0  0  0  0  0  0  0
    7.9832   10.2579   -5.4825 I   0  0  0  0  0  0  0  0  0  0  0  0
    6.4617   11.4379   -7.7822 C   0  0  0  0  0  0  0  0  0  0  0  0
    2.6999   12.8560   -5.0436 I   0  0  0  0  0  0  0  0  0  0  0  0
    4.3970   12.6816   -7.4525 C   0  0  0  0  0  0  0  0  0  0  0  0
   -0.3535    9.0194   -5.1270 N   0  0  0  0  0  0  0  0  0  0  0  0
    7.5761   11.0458   -8.5652 C   0  0  0  0  0  0  0  0  0  0  0  0
    5.4796   12.3226   -8.2830 C   0  0  0  0  0  0  0  0  0  0  0  0
    3.5544   13.7398   -7.8486 C   0  0  0  0  0  0  0  0  0  0  0  0
   -0.4013    8.3873   -6.3715 C   0  0  0  0  0  0  0  0  0  0  0  0
   -1.5100    9.1083   -4.3731 C   0  0  0  0  0  0  0  0  0  0  0  0
    8.3541   11.9485   -9.2220 N   0  0  0  0  0  0  0  0  0  0  0  0
    7.8138    9.8179   -8.6716 O   0  0  0  0  0  0  0  0  0  0  0  0
    5.5920   13.1081  -10.1942 I   0  0  0  0  0  0  0  0  0  0  0  0
    3.9220   15.0092   -7.5261 N   0  0  0  0  0  0  0  0  0  0  0  0
    2.4729   13.4706   -8.4221 O   0  0  0  0  0  0  0  0  0  0  0  0
   -1.5191    7.5297   -6.8385 C   0  0  0  0  0  0  0  0  0  0  0  0
    0.5051    8.5491   -7.2216 O   0  0  0  0  0  0  0  0  0  0  0  0
   -1.7185    8.2748   -3.2437 C   0  0  0  0  0  0  0  0  0  0  0  0
   -2.5170   10.0327   -4.7504 C   0  0  0  0  0  0  0  0  0  0  0  0
    9.3952   11.5976  -10.1362 C   0  0  2  0  0  0  0  0  0  0  0  0
    3.1052   16.1754   -7.6464 C   0  0  1  0  0  0  0  0  0  0  0  0
   -0.3326    6.7961   -2.8399 I   0  0  0  0  0  0  0  0  0  0  0  0
   -2.8630    8.4508   -2.4202 C   0  0  0  0  0  0  0  0  0  0  0  0
   -2.2617   11.1979   -6.4410 I   0  0  0  0  0  0  0  0  0  0  0  0
   -3.6970   10.1471   -3.9784 C   0  0  0  0  0  0  0  0  0  0  0  0
    9.8941   12.8406  -10.9166 C   0  0  2  0  0  0  0  0  0  0  0  0
    3.4588   17.0260   -8.8936 C   0  0  2  0  0  0  0  0  0  0  0  0
   -3.1271    7.5689   -1.3454 C   0  0  0  0  0  0  0  0  0  0  0  0
   -3.7940    9.4728   -2.7381 C   0  0  0  0  0  0  0  0  0  0  0  0
   -4.8129   10.8658   -4.4721 C   0  0  0  0  0  0  0  0  0  0  0  0
   10.8987   12.4819  -12.0378 C   0  0  1  0  0  0  0  0  0  0  0  0
   10.5224   13.7565  -10.0213 O   0  0  0  0  0  0  0  0  0  0  0  0
    2.6095   18.3181   -8.9854 C   0  0  2  0  0  0  0  0  0  0  0  0
    3.2393   16.2630  -10.0792 O   0  0  0  0  0  0  0  0  0  0  0  0
   -3.2803    8.0214   -0.0667 N   0  0  0  0  0  0  0  0  0  0  0  0
   -3.2708    6.3518   -1.6158 O   0  0  0  0  0  0  0  0  0  0  0  0
   -5.3069   10.0190   -1.4357 I   0  0  0  0  0  0  0  0  0  0  0  0
   -6.0059   10.2811   -4.8048 N   0  0  0  0  0  0  0  0  0  0  0  0
   -4.7266   12.1065   -4.6158 O   0  0  0  0  0  0  0  0  0  0  0  0
   10.2867   11.6876  -13.0505 O   0  0  0  0  0  0  0  0  0  0  0  0
    2.8554   19.1792   -7.8781 O   0  0  0  0  0  0  0  0  0  0  0  0
   -3.7060    7.2308    1.0515 C   0  0  2  0  0  0  0  0  0  0  0  0
   -6.3496    8.8870   -4.7108 C   0  0  1  0  0  0  0  0  0  0  0  0
   -5.2558    7.2114    1.2013 C   0  0  2  0  0  0  0  0  0  0  0  0
   -7.3340    8.4367   -5.8345 C   0  0  2  0  0  0  0  0  0  0  0  0
   -5.7450    6.4486    2.4559 C   0  0  1  0  0  0  0  0  0  0  0  0
   -5.8525    6.5746    0.0708 O   0  0  0  0  0  0  0  0  0  0  0  0
   -8.5940    7.7077   -5.2973 C   0  0  2  0  0  0  0  0  0  0  0  0
   -6.6638    7.5733   -6.7560 O   0  0  0  0  0  0  0  0  0  0  0  0
   -5.2786    7.0537    3.6557 O   0  0  0  0  0  0  0  0  0  0  0  0
   -9.3732    8.5961   -4.4976 O   0  0  0  0  0  0  0  0  0  0  0  0
    3.2758   10.6893   -3.6553 H   0  0  0  0  0  0  0  0  0  0  0  0
    3.5102    9.0606   -3.3227 H   0  0  0  0  0  0  0  0  0  0  0  0
    2.3843    9.6561   -6.0633 H   0  0  0  0  0  0  0  0  0  0  0  0
    6.6829    7.3250   -3.9642 H   0  0  0  0  0  0  0  0  0  0  0  0
    5.6106    8.2597   -2.9377 H   0  0  0  0  0  0  0  0  0  0  0  0
    4.9756    6.8612   -3.8395 H   0  0  0  0  0  0  0  0  0  0  0  0
    0.6923   10.7664   -4.8089 H   0  0  0  0  0  0  0  0  0  0  0  0
    0.8250    9.6263   -3.4899 H   0  0  0  0  0  0  0  0  0  0  0  0
    3.1580    7.6115   -5.5025 H   0  0  0  0  0  0  0  0  0  0  0  0
    8.1760   12.8919   -9.0739 H   0  0  0  0  0  0  0  0  0  0  0  0
    4.8024   15.1275   -7.1354 H   0  0  0  0  0  0  0  0  0  0  0  0
   -2.2366    8.1265   -7.4022 H   0  0  0  0  0  0  0  0  0  0  0  0
   -2.0299    7.0566   -6.0011 H   0  0  0  0  0  0  0  0  0  0  0  0
   -1.1491    6.7328   -7.4866 H   0  0  0  0  0  0  0  0  0  0  0  0
    9.0051   10.8657  -10.8505 H   0  0  0  0  0  0  0  0  0  0  0  0
   10.2229   11.1419   -9.5848 H   0  0  0  0  0  0  0  0  0  0  0  0
    2.0434   15.9129   -7.6643 H   0  0  0  0  0  0  0  0  0  0  0  0
    3.2794   16.7685   -6.7456 H   0  0  0  0  0  0  0  0  0  0  0  0
    9.0380   13.3469  -11.3720 H   0  0  0  0  0  0  0  0  0  0  0  0
    4.5173   17.3009   -8.8584 H   0  0  0  0  0  0  0  0  0  0  0  0
   11.2672   13.3991  -12.5028 H   0  0  0  0  0  0  0  0  0  0  0  0
   11.7496   11.9367  -11.6246 H   0  0  0  0  0  0  0  0  0  0  0  0
    9.8230   14.0193   -9.3875 H   0  0  0  0  0  0  0  0  0  0  0  0
    1.5465   18.0686   -9.0112 H   0  0  0  0  0  0  0  0  0  0  0  0
    2.8582   18.8583   -9.9012 H   0  0  0  0  0  0  0  0  0  0  0  0
    3.8432   15.4951  -10.0048 H   0  0  0  0  0  0  0  0  0  0  0  0
   -3.1284    8.9673    0.0966 H   0  0  0  0  0  0  0  0  0  0  0  0
   -6.7056   10.8773   -5.1191 H   0  0  0  0  0  0  0  0  0  0  0  0
   11.0001   11.5169  -13.7018 H   0  0  0  0  0  0  0  0  0  0  0  0
    2.2646   19.9487   -8.0192 H   0  0  0  0  0  0  0  0  0  0  0  0
   -3.2560    7.6642    1.9468 H   0  0  0  0  0  0  0  0  0  0  0  0
   -3.3336    6.2079    0.9672 H   0  0  0  0  0  0  0  0  0  0  0  0
   -5.4614    8.2504   -4.7396 H   0  0  0  0  0  0  0  0  0  0  0  0
   -6.8058    8.7438   -3.7304 H   0  0  0  0  0  0  0  0  0  0  0  0
   -5.6326    8.2373    1.2545 H   0  0  0  0  0  0  0  0  0  0  0  0
   -7.6738    9.3041   -6.4058 H   0  0  0  0  0  0  0  0  0  0  0  0
   -6.8374    6.4501    2.4800 H   0  0  0  0  0  0  0  0  0  0  0  0
   -5.4022    5.4131    2.4257 H   0  0  0  0  0  0  0  0  0  0  0  0
   -5.6413    7.1456   -0.6955 H   0  0  0  0  0  0  0  0  0  0  0  0
   -8.3101    6.8400   -4.6977 H   0  0  0  0  0  0  0  0  0  0  0  0
   -9.2083    7.3580   -6.1300 H   0  0  0  0  0  0  0  0  0  0  0  0
   -5.8885    8.0811   -7.0796 H   0  0  0  0  0  0  0  0  0  0  0  0
   -5.6205    6.4804    4.3745 H   0  0  0  0  0  0  0  0  0  0  0  0
  -10.1313    8.0645   -4.1756 H   0  0  0  0  0  0  0  0  0  0  0  0
  1  2  1  0  0  0  0 
  1  3  1  0  0  0  0 
  1  4  1  0  0  0  0 
  2  5  1  0  0  0  0 
  3  6  1  0  0  0  0 
  3  7  2  0  0  0  0 
  4  8  2  0  0  0  0 
  4  9  1  0  0  0  0 
  5 10  1  0  0  0  0 
  5 11  1  0  0  0  0 
  8 12  1  0  0  0  0 
  8 13  1  0  0  0  0 
  9 14  1  0  0  0  0 
  9 15  2  0  0  0  0 
 10 16  1  0  0  0  0 
 13 17  1  0  0  0  0 
 13 18  2  0  0  0  0 
 15 18  1  0  0  0  0 
 15 19  1  0  0  0  0 
 16 20  1  0  0  0  0 
 16 21  1  0  0  0  0 
 17 22  1  0  0  0  0 
 17 23  2  0  0  0  0 
 18 24  1  0  0  0  0 
 19 25  1  0  0  0  0 
 19 26  2  0  0  0  0 
 20 27  1  0  0  0  0 
 20 28  2  0  0  0  0 
 21 29  2  0  0  0  0 
 21 30  1  0  0  0  0 
 22 31  1  0  0  0  0 
 25 32  1  0  0  0  0 
 29 33  1  0  0  0  0 
 29 34  1  0  0  0  0 
 30 35  1  0  0  0  0 
 30 36  2  0  0  0  0 
 31 37  1  0  0  0  0 
 32 38  1  0  0  0  0 
 34 39  1  0  0  0  0 
 34 40  2  0  0  0  0 
 36 40  1  0  0  0  0 
 36 41  1  0  0  0  0 
 37 42  1  0  0  0  0 
 37 43  1  0  0  0  0 
 38 44  1  0  0  0  0 
 38 45  1  0  0  0  0 
 39 46  1  0  0  0  0 
 39 47  2  0  0  0  0 
 40 48  1  0  0  0  0 
 41 49  1  0  0  0  0 
 41 50  2  0  0  0  0 
 42 51  1  0  0  0  0 
 44 52  1  0  0  0  0 
 46 53  1  0  0  0  0 
 49 54  1  0  0  0  0 
 53 55  1  0  0  0  0 
 54 56  1  0  0  0  0 
 55 57  1  0  0  0  0 
 55 58  1  0  0  0  0 
 56 59  1  0  0  0  0 
 56 60  1  0  0  0  0 
 57 61  1  0  0  0  0 
 59 62  1  0  0  0  0 
  2 63  1  0  0  0  0 
  2 64  1  0  0  0  0 
  5 65  1  0  0  0  0 
  6 66  1  0  0  0  0 
  6 67  1  0  0  0  0 
  6 68  1  0  0  0  0 
 10 69  1  0  0  0  0 
 10 70  1  0  0  0  0 
 11 71  1  0  0  0  0 
 22 72  1  0  0  0  0 
 25 73  1  0  0  0  0 
 27 74  1  0  0  0  0 
 27 75  1  0  0  0  0 
 27 76  1  0  0  0  0 
 31 77  1  0  0  0  0 
 31 78  1  0  0  0  0 
 32 79  1  0  0  0  0 
 32 80  1  0  0  0  0 
 37 81  1  0  0  0  0 
 38 82  1  0  0  0  0 
 42 83  1  0  0  0  0 
 42 84  1  0  0  0  0 
 43 85  1  0  0  0  0 
 44 86  1  0  0  0  0 
 44 87  1  0  0  0  0 
 45 88  1  0  0  0  0 
 46 89  1  0  0  0  0 
 49 90  1  0  0  0  0 
 51 91  1  0  0  0  0 
 52 92  1  0  0  0  0 
 53 93  1  0  0  0  0 
 53 94  1  0  0  0  0 
 54 95  1  0  0  0  0 
 54 96  1  0  0  0  0 
 55 97  1  0  0  0  0 
 56 98  1  0  0  0  0 
 57 99  1  0  0  0  0 
 57100  1  0  0  0  0 
 58101  1  0  0  0  0 
 59102  1  0  0  0  0 
 59103  1  0  0  0  0 
 60104  1  0  0  0  0 
 61105  1  0  0  0  0 
 62106  1  0  0  0  0 
M  END
> <cdk:Title>
iodixanol

> <Conformer>
1

> <SuperDrugID>
SD002852

$$$$
