trypan blue
  CDK     0628171802

 86 91  0  0  0  0  0  0  0  0999 V2000
    3.1028   -6.2642    3.1042 O   0  0  0  0  0  0  0  0  0  0  0  0
    1.9877   -6.8614    3.6058 C   0  0  0  0  0  0  0  0  0  0  0  0
    0.7118   -6.6402    3.0103 C   0  0  0  0  0  0  0  0  0  0  0  0
    2.1572   -7.7068    4.7348 C   0  0  0  0  0  0  0  0  0  0  0  0
   -0.4199   -7.2673    3.6073 C   0  0  0  0  0  0  0  0  0  0  0  0
    0.4907   -5.8392    1.8494 C   0  0  0  0  0  0  0  0  0  0  0  0
    3.4172   -7.8094    5.1750 N   0  0  0  0  0  0  0  0  0  0  0  0
    1.0123   -8.3461    5.2902 C   0  0  0  0  0  0  0  0  0  0  0  0
   -0.2572   -8.0996    4.7318 C   0  0  0  0  0  0  0  0  0  0  0  0
   -1.7158   -7.0746    3.0760 C   0  0  0  0  0  0  0  0  0  0  0  0
    1.4665   -5.2075    1.1589 N   0  0  0  0  0  0  0  0  0  0  0  0
   -0.8108   -5.6690    1.3300 C   0  0  0  0  0  0  0  0  0  0  0  0
    3.9222   -8.4075    6.1213 N   0  0  0  0  0  0  0  0  0  0  0  0
    1.0639   -9.4672    6.6651 S   0  0  1  0  0  0  0  0  0  0  0  0
   -1.9194   -6.2837    1.9341 C   0  0  0  0  0  0  0  0  0  0  0  0
    5.2176   -8.4231    6.4647 C   0  0  0  0  0  0  0  0  0  0  0  0
    1.9973  -10.7276    6.3348 O   0  0  0  0  0  0  0  0  0  0  0  0
    1.5838   -8.7145    7.9798 O   0  0  0  0  0  0  0  0  0  0  0  0
   -0.4900  -10.0816    7.0443 O   0  0  0  0  0  0  0  0  0  0  0  0
   -3.5545   -6.0935    1.2787 S   0  0  2  0  0  0  0  0  0  0  0  0
    5.6264   -9.1855    7.5950 C   0  0  0  0  0  0  0  0  0  0  0  0
    6.2060   -7.7013    5.7475 C   0  0  0  0  0  0  0  0  0  0  0  0
   -4.5365   -5.4424    2.3663 O   0  0  0  0  0  0  0  0  0  0  0  0
   -4.1403   -7.5187    0.8341 O   0  0  0  0  0  0  0  0  0  0  0  0
   -3.5455   -5.0806   -0.1005 O   0  0  0  0  0  0  0  0  0  0  0  0
    4.6603   -9.9864    8.3902 C   0  0  0  0  0  0  0  0  0  0  0  0
    6.9871   -9.1917    7.9827 C   0  0  0  0  0  0  0  0  0  0  0  0
    7.5600   -7.7287    6.1399 C   0  0  0  0  0  0  0  0  0  0  0  0
    7.9675   -8.4638    7.2757 C   0  0  0  0  0  0  0  0  0  0  0  0
    9.3229   -8.4881    7.7251 C   0  0  0  0  0  0  0  0  0  0  0  0
   10.3549   -8.9952    6.9047 C   0  0  0  0  0  0  0  0  0  0  0  0
    9.6610   -8.0462    9.0248 C   0  0  0  0  0  0  0  0  0  0  0  0
   11.6926   -9.0916    7.3670 C   0  0  0  0  0  0  0  0  0  0  0  0
   10.9871   -8.1123    9.4904 C   0  0  0  0  0  0  0  0  0  0  0  0
   12.7332   -9.6802    6.4819 C   0  0  0  0  0  0  0  0  0  0  0  0
   12.0164   -8.6416    8.6781 C   0  0  0  0  0  0  0  0  0  0  0  0
   13.2753   -8.7488    9.1070 N   0  0  0  0  0  0  0  0  0  0  0  0
   13.7519   -8.4989   10.2127 N   0  0  0  0  0  0  0  0  0  0  0  0
   15.0223   -8.6272   10.6167 C   0  0  0  0  0  0  0  0  0  0  0  0
   15.3286   -8.2442   11.9466 C   0  0  0  0  0  0  0  0  0  0  0  0
   16.0706   -9.1243    9.7900 C   0  0  0  0  0  0  0  0  0  0  0  0
   14.0867   -7.6442   13.0673 S   0  0  2  0  0  0  0  0  0  0  0  0
   16.6518   -8.3390   12.4168 C   0  0  0  0  0  0  0  0  0  0  0  0
   15.7588   -9.5695    8.5481 O   0  0  0  0  0  0  0  0  0  0  0  0
   17.4222   -9.1756   10.2386 C   0  0  0  0  0  0  0  0  0  0  0  0
   12.9712   -8.7709   13.3074 O   0  0  0  0  0  0  0  0  0  0  0  0
   13.3876   -6.3240   12.4844 O   0  0  0  0  0  0  0  0  0  0  0  0
   14.7616   -7.2524   14.5932 O   0  0  0  0  0  0  0  0  0  0  0  0
   17.6957   -8.7893   11.5839 C   0  0  0  0  0  0  0  0  0  0  0  0
   18.5218   -9.5900    9.4274 C   0  0  0  0  0  0  0  0  0  0  0  0
   19.0113   -8.8576   12.0991 C   0  0  0  0  0  0  0  0  0  0  0  0
   18.4251   -9.9236    8.1207 N   0  0  0  0  0  0  0  0  0  0  0  0
   19.8241   -9.6580    9.9631 C   0  0  0  0  0  0  0  0  0  0  0  0
   20.0749   -9.3039   11.2969 C   0  0  0  0  0  0  0  0  0  0  0  0
   21.7226   -9.4398   11.9284 S   0  0  1  0  0  0  0  0  0  0  0  0
   22.2251  -10.9605   11.8466 O   0  0  0  0  0  0  0  0  0  0  0  0
   22.7204   -8.5157   11.0786 O   0  0  0  0  0  0  0  0  0  0  0  0
   21.8027   -8.9401   13.5629 O   0  0  0  0  0  0  0  0  0  0  0  0
    2.9226   -5.3035    3.1744 H   0  0  0  0  0  0  0  0  0  0  0  0
   -1.0838   -8.5435    5.1408 H   0  0  0  0  0  0  0  0  0  0  0  0
   -2.5263   -7.5187    3.5171 H   0  0  0  0  0  0  0  0  0  0  0  0
    1.2348   -4.6951    0.3700 H   0  0  0  0  0  0  0  0  0  0  0  0
    2.3928   -5.2557    1.4268 H   0  0  0  0  0  0  0  0  0  0  0  0
   -0.9541   -5.0904    0.4992 H   0  0  0  0  0  0  0  0  0  0  0  0
   -0.5232  -10.9524    6.5988 H   0  0  0  0  0  0  0  0  0  0  0  0
    5.9449   -7.1429    4.9305 H   0  0  0  0  0  0  0  0  0  0  0  0
   -4.2811   -5.4144   -0.6554 H   0  0  0  0  0  0  0  0  0  0  0  0
    3.9149   -9.3226    8.8293 H   0  0  0  0  0  0  0  0  0  0  0  0
    5.1330  -10.5399    9.2056 H   0  0  0  0  0  0  0  0  0  0  0  0
    4.1750  -10.7163    7.7429 H   0  0  0  0  0  0  0  0  0  0  0  0
    7.2729   -9.7438    8.7959 H   0  0  0  0  0  0  0  0  0  0  0  0
    8.2458   -7.1964    5.5967 H   0  0  0  0  0  0  0  0  0  0  0  0
   10.1211   -9.3188    5.9616 H   0  0  0  0  0  0  0  0  0  0  0  0
    8.9399   -7.6721    9.6472 H   0  0  0  0  0  0  0  0  0  0  0  0
   11.1959   -7.7724   10.4323 H   0  0  0  0  0  0  0  0  0  0  0  0
   13.4845   -8.9250    6.2424 H   0  0  0  0  0  0  0  0  0  0  0  0
   12.3183  -10.0589    5.5454 H   0  0  0  0  0  0  0  0  0  0  0  0
   13.2154  -10.5143    6.9952 H   0  0  0  0  0  0  0  0  0  0  0  0
   16.8628   -8.0697   13.3815 H   0  0  0  0  0  0  0  0  0  0  0  0
   15.1009  -10.2813    8.6985 H   0  0  0  0  0  0  0  0  0  0  0  0
   15.1699   -6.3704   14.4662 H   0  0  0  0  0  0  0  0  0  0  0  0
   19.1994   -8.5825   13.0672 H   0  0  0  0  0  0  0  0  0  0  0  0
   17.5842   -9.8786    7.6491 H   0  0  0  0  0  0  0  0  0  0  0  0
   19.2176  -10.2039    7.6384 H   0  0  0  0  0  0  0  0  0  0  0  0
   20.6049   -9.9704    9.3787 H   0  0  0  0  0  0  0  0  0  0  0  0
   21.0979   -9.4502   14.0123 H   0  0  0  0  0  0  0  0  0  0  0  0
  1  2  1  0  0  0  0 
  2  3  2  0  0  0  0 
  2  4  1  0  0  0  0 
  3  5  1  0  0  0  0 
  3  6  1  0  0  0  0 
  7  4  1  0  0  0  0 
  4  8  2  0  0  0  0 
  5  9  2  0  0  0  0 
  5 10  1  0  0  0  0 
  6 11  1  0  0  0  0 
  6 12  2  0  0  0  0 
  7 13  2  0  0  0  0 
  8  9  1  0  0  0  0 
  8 14  1  0  0  0  0 
 10 15  2  0  0  0  0 
 12 15  1  0  0  0  0 
 13 16  1  0  0  0  0 
 14 17  2  0  0  0  0 
 14 18  2  0  0  0  0 
 14 19  1  0  0  0  0 
 15 20  1  0  0  0  0 
 16 21  2  0  0  0  0 
 16 22  1  0  0  0  0 
 20 23  2  0  0  0  0 
 20 24  2  0  0  0  0 
 20 25  1  0  0  0  0 
 21 26  1  0  0  0  0 
 21 27  1  0  0  0  0 
 22 28  2  0  0  0  0 
 27 29  2  0  0  0  0 
 28 29  1  0  0  0  0 
 29 30  1  0  0  0  0 
 30 31  2  0  0  0  0 
 30 32  1  0  0  0  0 
 31 33  1  0  0  0  0 
 32 34  2  0  0  0  0 
 33 35  1  0  0  0  0 
 33 36  2  0  0  0  0 
 34 36  1  0  0  0  0 
 37 36  1  0  0  0  0 
 37 38  2  0  0  0  0 
 38 39  1  0  0  0  0 
 39 40  2  0  0  0  0 
 39 41  1  0  0  0  0 
 40 42  1  0  0  0  0 
 40 43  1  0  0  0  0 
 41 44  1  0  0  0  0 
 41 45  2  0  0  0  0 
 42 46  2  0  0  0  0 
 42 47  2  0  0  0  0 
 42 48  1  0  0  0  0 
 43 49  2  0  0  0  0 
 45 49  1  0  0  0  0 
 45 50  1  0  0  0  0 
 49 51  1  0  0  0  0 
 50 52  1  0  0  0  0 
 50 53  2  0  0  0  0 
 51 54  2  0  0  0  0 
 53 54  1  0  0  0  0 
 54 55  1  0  0  0  0 
 55 56  2  0  0  0  0 
 55 57  2  0  0  0  0 
 55 58  1  0  0  0  0 
 59  1  1  0  0  0  0 
 60  9  1  0  0  0  0 
 61 10  1  0  0  0  0 
 62 11  1  0  0  0  0 
 63 11  1  0  0  0  0 
 64 12  1  0  0  0  0 
 65 19  1  0  0  0  0 
 66 22  1  0  0  0  0 
 67 25  1  0  0  0  0 
 68 26  1  0  0  0  0 
 69 26  1  0  0  0  0 
 70 26  1  0  0  0  0 
 71 27  1  0  0  0  0 
 72 28  1  0  0  0  0 
 73 31  1  0  0  0  0 
 74 32  1  0  0  0  0 
 75 34  1  0  0  0  0 
 76 35  1  0  0  0  0 
 77 35  1  0  0  0  0 
 78 35  1  0  0  0  0 
 79 43  1  0  0  0  0 
 80 44  1  0  0  0  0 
 81 48  1  0  0  0  0 
 82 51  1  0  0  0  0 
 83 52  1  0  0  0  0 
 84 52  1  0  0  0  0 
 85 53  1  0  0  0  0 
 86 58  1  0  0  0  0 
M  END
> <cdk:Title>
trypan blue

> <Conformer>
1

> <SuperDrugID>
SD003653

$$$$
