bisacodyl
  CDK     0628171801

 46 48  0  0  0  0  0  0  0  0999 V2000
   -0.0450    4.1065   -0.9995 C   0  0  2  0  0  0  0  0  0  0  0  0
    0.1550    2.6112   -0.9373 C   0  0  0  0  0  0  0  0  0  0  0  0
   -1.5248    4.3732   -0.8616 C   0  0  0  0  0  0  0  0  0  0  0  0
    0.6285    4.7982   -2.1521 C   0  0  0  0  0  0  0  0  0  0  0  0
    0.6110    1.9950    0.2577 C   0  0  0  0  0  0  0  0  0  0  0  0
   -0.1899    1.7513   -2.0112 C   0  0  0  0  0  0  0  0  0  0  0  0
   -2.4457    4.1175   -1.9096 C   0  0  0  0  0  0  0  0  0  0  0  0
   -2.0663    4.8033    0.3783 C   0  0  0  0  0  0  0  0  0  0  0  0
    1.6508    5.7650   -1.9696 C   0  0  0  0  0  0  0  0  0  0  0  0
    0.2701    4.5117   -3.4356 N   0  0  0  0  0  0  0  0  0  0  0  0
    0.6085    0.5944    0.4073 C   0  0  0  0  0  0  0  0  0  0  0  0
   -0.1732    0.3534   -1.8711 C   0  0  0  0  0  0  0  0  0  0  0  0
   -3.8339    4.1932   -1.7061 C   0  0  0  0  0  0  0  0  0  0  0  0
   -3.4577    4.8594    0.5906 C   0  0  0  0  0  0  0  0  0  0  0  0
    2.2474    6.3818   -3.0869 C   0  0  0  0  0  0  0  0  0  0  0  0
    0.8187    5.0819   -4.5367 C   0  0  0  0  0  0  0  0  0  0  0  0
    0.1759   -0.2410   -0.6406 C   0  0  0  0  0  0  0  0  0  0  0  0
   -4.3572    4.5139   -0.4363 C   0  0  0  0  0  0  0  0  0  0  0  0
    1.8319    6.0414   -4.3855 C   0  0  0  0  0  0  0  0  0  0  0  0
    0.1053   -1.5894   -0.3840 O   0  0  0  0  0  0  0  0  0  0  0  0
   -5.6952    4.4948   -0.1226 O   0  0  0  0  0  0  0  0  0  0  0  0
   -0.5842   -2.5996   -1.0094 C   0  0  0  0  0  0  0  0  0  0  0  0
   -6.7637    3.8821   -0.7309 C   0  0  0  0  0  0  0  0  0  0  0  0
   -0.4675   -3.9652   -0.4799 C   0  0  0  0  0  0  0  0  0  0  0  0
   -1.3453   -2.4037   -1.9862 O   0  0  0  0  0  0  0  0  0  0  0  0
   -8.0981    4.0385   -0.1360 C   0  0  0  0  0  0  0  0  0  0  0  0
   -6.6471    3.1574   -1.7473 O   0  0  0  0  0  0  0  0  0  0  0  0
    0.4294    4.5204   -0.1041 H   0  0  0  0  0  0  0  0  0  0  0  0
    0.9197    2.5652    1.0501 H   0  0  0  0  0  0  0  0  0  0  0  0
   -0.4853    2.1270   -2.9103 H   0  0  0  0  0  0  0  0  0  0  0  0
   -2.1238    3.8455   -2.8365 H   0  0  0  0  0  0  0  0  0  0  0  0
   -1.4483    5.0490    1.1569 H   0  0  0  0  0  0  0  0  0  0  0  0
    1.9667    6.0259   -1.0336 H   0  0  0  0  0  0  0  0  0  0  0  0
    0.9015    0.1856    1.2979 H   0  0  0  0  0  0  0  0  0  0  0  0
   -0.4246   -0.2226   -2.6755 H   0  0  0  0  0  0  0  0  0  0  0  0
   -4.4554    4.0053   -2.4939 H   0  0  0  0  0  0  0  0  0  0  0  0
   -3.8132    5.1309    1.5104 H   0  0  0  0  0  0  0  0  0  0  0  0
    2.9847    7.0790   -2.9546 H   0  0  0  0  0  0  0  0  0  0  0  0
    0.4927    4.8111   -5.4660 H   0  0  0  0  0  0  0  0  0  0  0  0
    2.2608    6.4855   -5.2036 H   0  0  0  0  0  0  0  0  0  0  0  0
   -1.1164   -4.6566   -1.0230 H   0  0  0  0  0  0  0  0  0  0  0  0
    0.5629   -4.3070   -0.5709 H   0  0  0  0  0  0  0  0  0  0  0  0
   -0.7558   -3.9762    0.5707 H   0  0  0  0  0  0  0  0  0  0  0  0
   -8.0780    3.7041    0.9007 H   0  0  0  0  0  0  0  0  0  0  0  0
   -8.8428    3.4477   -0.6748 H   0  0  0  0  0  0  0  0  0  0  0  0
   -8.3930    5.0868   -0.1673 H   0  0  0  0  0  0  0  0  0  0  0  0
  1  2  1  0  0  0  0 
  1  3  1  0  0  0  0 
  1  4  1  0  0  0  0 
  2  5  2  0  0  0  0 
  2  6  1  0  0  0  0 
  3  7  2  0  0  0  0 
  3  8  1  0  0  0  0 
  4  9  2  0  0  0  0 
  4 10  1  0  0  0  0 
  5 11  1  0  0  0  0 
  6 12  2  0  0  0  0 
  7 13  1  0  0  0  0 
  8 14  2  0  0  0  0 
  9 15  1  0  0  0  0 
 10 16  2  0  0  0  0 
 11 17  2  0  0  0  0 
 12 17  1  0  0  0  0 
 13 18  2  0  0  0  0 
 14 18  1  0  0  0  0 
 15 19  2  0  0  0  0 
 16 19  1  0  0  0  0 
 17 20  1  0  0  0  0 
 18 21  1  0  0  0  0 
 20 22  1  0  0  0  0 
 21 23  1  0  0  0  0 
 22 24  1  0  0  0  0 
 22 25  2  0  0  0  0 
 23 26  1  0  0  0  0 
 23 27  2  0  0  0  0 
  1 28  1  0  0  0  0 
  5 29  1  0  0  0  0 
  6 30  1  0  0  0  0 
  7 31  1  0  0  0  0 
  8 32  1  0  0  0  0 
  9 33  1  0  0  0  0 
 11 34  1  0  0  0  0 
 12 35  1  0  0  0  0 
 13 36  1  0  0  0  0 
 14 37  1  0  0  0  0 
 15 38  1  0  0  0  0 
 16 39  1  0  0  0  0 
 19 40  1  0  0  0  0 
 24 41  1  0  0  0  0 
 24 42  1  0  0  0  0 
 24 43  1  0  0  0  0 
 26 44  1  0  0  0  0 
 26 45  1  0  0  0  0 
 26 46  1  0  0  0  0 
M  END
> <cdk:Title>
bisacodyl

> <Conformer>
1

> <SuperDrugID>
SD000320

$$$$
