pentaerythritol
  CDK     0628171801

 21 20  0  0  0  0  0  0  0  0999 V2000
   -2.0004   -0.6243    0.1995 O   0  0  0  0  0  0  0  0  0  0  0  0
   -1.7406    0.6576    0.7691 C   0  0  2  0  0  0  0  0  0  0  0  0
   -0.2244    0.8735    1.1072 C   0  0  1  0  0  0  0  0  0  0  0  0
    0.6355    0.7454   -0.1982 C   0  0  2  0  0  0  0  0  0  0  0  0
    0.2702    1.6996   -1.1938 O   0  0  0  0  0  0  0  0  0  0  0  0
   -0.0446    2.3039    1.7247 C   0  0  1  0  0  0  0  0  0  0  0  0
    1.3109    2.5901    2.0652 O   0  0  0  0  0  0  0  0  0  0  0  0
    0.2521   -0.2128    2.1331 C   0  0  1  0  0  0  0  0  0  0  0  0
   -0.4783   -0.1713    3.3579 O   0  0  0  0  0  0  0  0  0  0  0  0
   -2.9682   -0.6393    0.0342 H   0  0  0  0  0  0  0  0  0  0  0  0
   -2.3527    0.7496    1.6692 H   0  0  0  0  0  0  0  0  0  0  0  0
   -2.0879    1.4115    0.0590 H   0  0  0  0  0  0  0  0  0  0  0  0
    0.5241   -0.2490   -0.6365 H   0  0  0  0  0  0  0  0  0  0  0  0
    1.6955    0.8882    0.0235 H   0  0  0  0  0  0  0  0  0  0  0  0
    0.8696    1.5215   -1.9509 H   0  0  0  0  0  0  0  0  0  0  0  0
   -0.3781    3.0712    1.0223 H   0  0  0  0  0  0  0  0  0  0  0  0
   -0.6429    2.4094    2.6325 H   0  0  0  0  0  0  0  0  0  0  0  0
    1.2949    3.4992    2.4362 H   0  0  0  0  0  0  0  0  0  0  0  0
    0.1377   -1.2150    1.7138 H   0  0  0  0  0  0  0  0  0  0  0  0
    1.3091   -0.0778    2.3738 H   0  0  0  0  0  0  0  0  0  0  0  0
   -0.0940   -0.8872    3.9092 H   0  0  0  0  0  0  0  0  0  0  0  0
  1  2  1  0  0  0  0 
  2  3  1  0  0  0  0 
  3  4  1  0  0  0  0 
  4  5  1  0  0  0  0 
  3  6  1  0  0  0  0 
  6  7  1  0  0  0  0 
  3  8  1  0  0  0  0 
  8  9  1  0  0  0  0 
  1 10  1  0  0  0  0 
  2 11  1  0  0  0  0 
  2 12  1  0  0  0  0 
  4 13  1  0  0  0  0 
  4 14  1  0  0  0  0 
  5 15  1  0  0  0  0 
  6 16  1  0  0  0  0 
  6 17  1  0  0  0  0 
  7 18  1  0  0  0  0 
  8 19  1  0  0  0  0 
  8 20  1  0  0  0  0 
  9 21  1  0  0  0  0 
M  END
> <cdk:Title>
pentaerythritol

> <Conformer>
1

> <SuperDrugID>
SD001869

$$$$
