isradipine
  CDK     0628171801

 48 50  0  0  0  0  0  0  0  0999 V2000
   -3.2212   -4.2907   -3.0969 C   0  0  0  0  0  0  0  0  0  0  0  0
   -3.7152   -4.6692   -4.3125 O   0  0  0  0  0  0  0  0  0  0  0  0
   -3.3389   -5.0981   -2.1434 O   0  0  0  0  0  0  0  0  0  0  0  0
   -2.5910   -3.0451   -2.9050 C   0  0  0  0  0  0  0  0  0  0  0  0
   -4.3896   -5.8798   -4.6877 C   0  0  2  0  0  0  0  0  0  0  0  0
   -1.6446   -2.9066   -1.7624 C   0  0  2  0  0  0  0  0  0  0  0  0
   -2.7791   -1.9680   -3.7152 C   0  0  0  0  0  0  0  0  0  0  0  0
   -3.4182   -7.0857   -4.7468 C   0  0  0  0  0  0  0  0  0  0  0  0
   -5.0585   -5.6172   -6.0567 C   0  0  0  0  0  0  0  0  0  0  0  0
   -1.1556   -1.5339   -1.4594 C   0  0  0  0  0  0  0  0  0  0  0  0
   -0.4703   -3.8228   -1.9787 C   0  0  0  0  0  0  0  0  0  0  0  0
   -3.6471   -1.9130   -4.8904 C   0  0  0  0  0  0  0  0  0  0  0  0
   -2.1448   -0.8189   -3.4457 N   0  0  0  0  0  0  0  0  0  0  0  0
   -0.4521   -1.3262   -0.2580 C   0  0  0  0  0  0  0  0  0  0  0  0
   -1.4294   -0.5431   -2.3486 C   0  0  0  0  0  0  0  0  0  0  0  0
   -0.0951   -4.8030   -1.0306 C   0  0  0  0  0  0  0  0  0  0  0  0
    0.3111   -3.7606   -3.1654 C   0  0  0  0  0  0  0  0  0  0  0  0
    0.4302   -0.2937   -0.0883 O   0  0  0  0  0  0  0  0  0  0  0  0
   -0.6153   -2.1095    0.7095 O   0  0  0  0  0  0  0  0  0  0  0  0
   -1.0348    0.8575   -2.2195 C   0  0  0  0  0  0  0  0  0  0  0  0
    0.9648   -5.6713   -1.2489 C   0  0  0  0  0  0  0  0  0  0  0  0
   -0.5911   -5.1108    0.1746 N   0  0  0  0  0  0  0  0  0  0  0  0
    1.3784   -4.6584   -3.3952 C   0  0  0  0  0  0  0  0  0  0  0  0
    1.2007   -0.0205    1.0867 C   0  0  0  0  0  0  0  0  0  0  0  0
    1.7187   -5.6264   -2.4298 C   0  0  0  0  0  0  0  0  0  0  0  0
    1.0739   -6.4624   -0.1778 N   0  0  0  0  0  0  0  0  0  0  0  0
    0.1277   -6.0973    0.6499 O   0  0  0  0  0  0  0  0  0  0  0  0
   -5.1788   -6.0863   -3.9576 H   0  0  0  0  0  0  0  0  0  0  0  0
   -2.2118   -3.2188   -0.8761 H   0  0  0  0  0  0  0  0  0  0  0  0
   -3.9541   -7.9940   -5.0343 H   0  0  0  0  0  0  0  0  0  0  0  0
   -2.9569   -7.2503   -3.7709 H   0  0  0  0  0  0  0  0  0  0  0  0
   -2.6301   -6.9017   -5.4779 H   0  0  0  0  0  0  0  0  0  0  0  0
   -5.6468   -6.4829   -6.3649 H   0  0  0  0  0  0  0  0  0  0  0  0
   -5.7243   -4.7540   -5.9849 H   0  0  0  0  0  0  0  0  0  0  0  0
   -4.3015   -5.4097   -6.8167 H   0  0  0  0  0  0  0  0  0  0  0  0
   -3.3038   -2.6174   -5.6486 H   0  0  0  0  0  0  0  0  0  0  0  0
   -3.6562   -0.9233   -5.3568 H   0  0  0  0  0  0  0  0  0  0  0  0
   -4.6733   -2.1514   -4.6052 H   0  0  0  0  0  0  0  0  0  0  0  0
   -2.2397   -0.1047   -4.0958 H   0  0  0  0  0  0  0  0  0  0  0  0
    0.0972   -3.0630   -3.8813 H   0  0  0  0  0  0  0  0  0  0  0  0
    0.0508    0.9518   -2.2306 H   0  0  0  0  0  0  0  0  0  0  0  0
   -1.4276    1.2699   -1.2900 H   0  0  0  0  0  0  0  0  0  0  0  0
   -1.4152    1.4782   -3.0342 H   0  0  0  0  0  0  0  0  0  0  0  0
    1.9071   -4.6063   -4.2678 H   0  0  0  0  0  0  0  0  0  0  0  0
    0.5411    0.1621    1.9361 H   0  0  0  0  0  0  0  0  0  0  0  0
    1.8121    0.8657    0.9198 H   0  0  0  0  0  0  0  0  0  0  0  0
    1.8548   -0.8651    1.3075 H   0  0  0  0  0  0  0  0  0  0  0  0
    2.4905   -6.2772   -2.5864 H   0  0  0  0  0  0  0  0  0  0  0  0
  1  2  1  0  0  0  0 
  1  3  2  0  0  0  0 
  1  4  1  0  0  0  0 
  2  5  1  0  0  0  0 
  6  4  1  0  0  0  0 
  4  7  2  0  0  0  0 
  5  8  1  0  0  0  0 
  5  9  1  0  0  0  0 
  6 10  1  0  0  0  0 
  6 11  1  0  0  0  0 
  7 12  1  0  0  0  0 
  7 13  1  0  0  0  0 
 10 14  1  0  0  0  0 
 10 15  2  0  0  0  0 
 11 16  1  0  0  0  0 
 11 17  2  0  0  0  0 
 13 15  1  0  0  0  0 
 14 18  1  0  0  0  0 
 14 19  2  0  0  0  0 
 15 20  1  0  0  0  0 
 16 21  1  0  0  0  0 
 16 22  2  0  0  0  0 
 17 23  1  0  0  0  0 
 18 24  1  0  0  0  0 
 21 25  1  0  0  0  0 
 21 26  2  0  0  0  0 
 22 27  1  0  0  0  0 
 23 25  2  0  0  0  0 
 26 27  1  0  0  0  0 
 28  5  1  0  0  0  0 
 29  6  1  0  0  0  0 
 30  8  1  0  0  0  0 
 31  8  1  0  0  0  0 
 32  8  1  0  0  0  0 
 33  9  1  0  0  0  0 
 34  9  1  0  0  0  0 
 35  9  1  0  0  0  0 
 36 12  1  0  0  0  0 
 37 12  1  0  0  0  0 
 38 12  1  0  0  0  0 
 39 13  1  0  0  0  0 
 40 17  1  0  0  0  0 
 41 20  1  0  0  0  0 
 42 20  1  0  0  0  0 
 43 20  1  0  0  0  0 
 44 23  1  0  0  0  0 
 45 24  1  0  0  0  0 
 46 24  1  0  0  0  0 
 47 24  1  0  0  0  0 
 48 25  1  0  0  0  0 
M  END
> <cdk:Title>
isradipine

> <Conformer>
1

> <SuperDrugID>
SD001338

$$$$
