aranidipine
  CDK     0628171801

 48 49  0  0  0  0  0  0  0  0999 V2000
   -3.4953   -5.5398    1.3086 C   0  0  0  0  0  0  0  0  0  0  0  0
   -3.8592   -6.3558    2.3419 O   0  0  0  0  0  0  0  0  0  0  0  0
   -4.0188   -5.7799    0.1955 O   0  0  0  0  0  0  0  0  0  0  0  0
   -2.5882   -4.4705    1.4610 C   0  0  0  0  0  0  0  0  0  0  0  0
   -4.7503   -7.4769    2.3183 C   0  0  1  0  0  0  0  0  0  0  0  0
   -2.5602   -3.3957    0.4217 C   0  0  2  0  0  0  0  0  0  0  0  0
   -1.7350   -4.3600    2.5149 C   0  0  0  0  0  0  0  0  0  0  0  0
   -4.7580   -8.0773    3.6669 C   0  0  0  0  0  0  0  0  0  0  0  0
   -1.4605   -2.3887    0.5262 C   0  0  0  0  0  0  0  0  0  0  0  0
   -3.9049   -2.6985    0.3699 C   0  0  0  0  0  0  0  0  0  0  0  0
   -1.6291   -5.2843    3.6388 C   0  0  0  0  0  0  0  0  0  0  0  0
   -0.8736   -3.3415    2.5724 N   0  0  0  0  0  0  0  0  0  0  0  0
   -5.9225   -7.9485    4.5636 C   0  0  0  0  0  0  0  0  0  0  0  0
   -3.7246   -8.6565    4.0779 O   0  0  0  0  0  0  0  0  0  0  0  0
   -1.2809   -1.4587   -0.5194 C   0  0  0  0  0  0  0  0  0  0  0  0
   -0.6579   -2.4291    1.6228 C   0  0  0  0  0  0  0  0  0  0  0  0
   -4.7251   -2.6292   -0.8031 C   0  0  0  0  0  0  0  0  0  0  0  0
   -4.3770   -2.0618    1.5497 C   0  0  0  0  0  0  0  0  0  0  0  0
   -0.5524   -0.3100   -0.3727 O   0  0  0  0  0  0  0  0  0  0  0  0
   -1.7959   -1.6622   -1.6437 O   0  0  0  0  0  0  0  0  0  0  0  0
    0.4892   -1.5632    1.8796 C   0  0  0  0  0  0  0  0  0  0  0  0
   -4.3916   -3.1560   -1.9805 N   0  0  0  0  0  0  0  0  0  0  0  0
   -5.9666   -1.9483   -0.7501 C   0  0  0  0  0  0  0  0  0  0  0  0
   -5.6150   -1.4000    1.5875 C   0  0  0  0  0  0  0  0  0  0  0  0
   -0.2961    0.7024   -1.3475 C   0  0  0  0  0  0  0  0  0  0  0  0
   -4.2448   -4.3029   -2.1335 O   0  0  0  0  0  0  0  0  0  0  0  0
   -4.2796   -2.4213   -3.0101 O   0  0  0  0  0  0  0  0  0  0  0  0
   -6.4116   -1.3460    0.4363 C   0  0  0  0  0  0  0  0  0  0  0  0
   -5.7524   -7.1454    2.0300 H   0  0  0  0  0  0  0  0  0  0  0  0
   -4.4050   -8.2161    1.5902 H   0  0  0  0  0  0  0  0  0  0  0  0
   -2.3577   -3.9214   -0.5151 H   0  0  0  0  0  0  0  0  0  0  0  0
   -2.5614   -5.2965    4.2048 H   0  0  0  0  0  0  0  0  0  0  0  0
   -0.8339   -5.0088    4.3366 H   0  0  0  0  0  0  0  0  0  0  0  0
   -1.4038   -6.2873    3.2747 H   0  0  0  0  0  0  0  0  0  0  0  0
   -0.3297   -3.2742    3.3740 H   0  0  0  0  0  0  0  0  0  0  0  0
   -5.7222   -8.3925    5.5415 H   0  0  0  0  0  0  0  0  0  0  0  0
   -6.1578   -6.8926    4.7044 H   0  0  0  0  0  0  0  0  0  0  0  0
   -6.7863   -8.4487    4.1234 H   0  0  0  0  0  0  0  0  0  0  0  0
   -3.8175   -2.0784    2.4058 H   0  0  0  0  0  0  0  0  0  0  0  0
    0.1545   -0.5351    2.0219 H   0  0  0  0  0  0  0  0  0  0  0  0
    1.1876   -1.6105    1.0414 H   0  0  0  0  0  0  0  0  0  0  0  0
    1.0450   -1.8512    2.7757 H   0  0  0  0  0  0  0  0  0  0  0  0
   -6.5637   -1.8885   -1.5811 H   0  0  0  0  0  0  0  0  0  0  0  0
   -5.9349   -0.9566    2.4515 H   0  0  0  0  0  0  0  0  0  0  0  0
    0.1814    0.2699   -2.2275 H   0  0  0  0  0  0  0  0  0  0  0  0
    0.3739    1.4444   -0.9132 H   0  0  0  0  0  0  0  0  0  0  0  0
   -1.2286    1.1882   -1.6360 H   0  0  0  0  0  0  0  0  0  0  0  0
   -7.3140   -0.8666    0.4589 H   0  0  0  0  0  0  0  0  0  0  0  0
  1  2  1  0  0  0  0 
  1  3  2  0  0  0  0 
  1  4  1  0  0  0  0 
  2  5  1  0  0  0  0 
  6  4  1  0  0  0  0 
  4  7  2  0  0  0  0 
  5  8  1  0  0  0  0 
  6  9  1  0  0  0  0 
  6 10  1  0  0  0  0 
  7 11  1  0  0  0  0 
  7 12  1  0  0  0  0 
  8 13  1  0  0  0  0 
  8 14  2  0  0  0  0 
  9 15  1  0  0  0  0 
  9 16  2  0  0  0  0 
 10 17  2  0  0  0  0 
 10 18  1  0  0  0  0 
 12 16  1  0  0  0  0 
 15 19  1  0  0  0  0 
 15 20  2  0  0  0  0 
 16 21  1  0  0  0  0 
 17 22  1  0  0  0  0 
 17 23  1  0  0  0  0 
 18 24  2  0  0  0  0 
 19 25  1  0  0  0  0 
 22 26  2  0  0  0  0 
 22 27  1  0  0  0  0 
 23 28  2  0  0  0  0 
 24 28  1  0  0  0  0 
 29  5  1  0  0  0  0 
 30  5  1  0  0  0  0 
 31  6  1  0  0  0  0 
 32 11  1  0  0  0  0 
 33 11  1  0  0  0  0 
 34 11  1  0  0  0  0 
 35 12  1  0  0  0  0 
 36 13  1  0  0  0  0 
 37 13  1  0  0  0  0 
 38 13  1  0  0  0  0 
 39 18  1  0  0  0  0 
 40 21  1  0  0  0  0 
 41 21  1  0  0  0  0 
 42 21  1  0  0  0  0 
 43 23  1  0  0  0  0 
 44 24  1  0  0  0  0 
 45 25  1  0  0  0  0 
 46 25  1  0  0  0  0 
 47 25  1  0  0  0  0 
 48 28  1  0  0  0  0 
M  CHG  1  22   1
M  CHG  1  27  -1
M  END
> <cdk:Title>
aranidipine

> <Conformer>
1

> <SuperDrugID>
SD000195

$$$$
