elbasvir
  CDK     0628171802

120128  0  0  0  0  0  0  0  0999 V2000
  -21.1301  -18.0477    7.0984 C   0  0  0  0  0  0  0  0  0  0  0  0
  -22.1386  -18.9713    6.7436 C   0  0  0  0  0  0  0  0  0  0  0  0
  -23.2370  -18.5962    6.0484 N   0  0  0  0  0  0  0  0  0  0  0  0
  -23.4298  -17.2503    5.5608 C   0  0  1  0  0  0  0  0  0  0  0  0
  -22.3257  -16.3387    5.7967 O   0  0  0  0  0  0  0  0  0  0  0  0
  -21.2651  -16.7373    6.5817 C   0  0  0  0  0  0  0  0  0  0  0  0
  -24.0482  -19.6705    5.9070 C   0  0  0  0  0  0  0  0  0  0  0  0
  -23.4087  -20.7809    6.4550 C   0  0  0  0  0  0  0  0  0  0  0  0
  -22.2132  -20.3418    7.0022 C   0  0  0  0  0  0  0  0  0  0  0  0
  -23.9739  -22.0653    6.3969 C   0  0  0  0  0  0  0  0  0  0  0  0
  -25.2498  -22.2203    5.7996 C   0  0  0  0  0  0  0  0  0  0  0  0
  -25.9259  -21.0819    5.2874 C   0  0  0  0  0  0  0  0  0  0  0  0
  -25.3246  -19.8060    5.3268 C   0  0  0  0  0  0  0  0  0  0  0  0
  -25.8530  -23.4936    5.7563 C   0  0  0  0  0  0  0  0  0  0  0  0
  -27.0972  -23.7650    6.1855 N   0  0  0  0  0  0  0  0  0  0  0  0
  -27.2726  -25.0969    6.0932 C   0  0  0  0  0  0  0  0  0  0  0  0
  -26.1763  -25.6552    5.5563 N   0  0  0  0  0  0  0  0  0  0  0  0
  -25.2757  -24.6911    5.3425 C   0  0  0  0  0  0  0  0  0  0  0  0
  -28.4632  -25.8257    6.5761 C   0  0  1  0  0  0  0  0  0  0  0  0
  -28.9412  -25.3244    7.8463 N   0  0  0  0  0  0  0  0  0  0  0  0
  -30.3019  -24.8712    7.7317 C   0  0  2  0  0  0  0  0  0  0  0  0
  -30.8672  -25.6042    6.5062 C   0  0  1  0  0  0  0  0  0  0  0  0
  -29.6483  -25.6849    5.5853 C   0  0  2  0  0  0  0  0  0  0  0  0
  -28.2535  -25.2754    9.0636 C   0  0  0  0  0  0  0  0  0  0  0  0
  -28.7708  -24.6067    9.9928 O   0  0  0  0  0  0  0  0  0  0  0  0
  -26.9956  -26.0067    9.4506 C   0  0  1  0  0  0  0  0  0  0  0  0
  -26.9691  -27.3137    8.8646 N   0  0  0  0  0  0  0  0  0  0  0  0
  -25.6424  -25.2480    9.2120 C   0  0  2  0  0  0  0  0  0  0  0  0
  -24.4134  -26.0683    9.7108 C   0  0  0  0  0  0  0  0  0  0  0  0
  -25.6142  -23.8269    9.8454 C   0  0  0  0  0  0  0  0  0  0  0  0
  -27.8402  -28.3159    9.1482 C   0  0  0  0  0  0  0  0  0  0  0  0
  -27.7515  -29.4428    8.3911 O   0  0  0  0  0  0  0  0  0  0  0  0
  -28.7140  -28.1949   10.0409 O   0  0  0  0  0  0  0  0  0  0  0  0
  -28.6527  -30.5466    8.4630 C   0  0  0  0  0  0  0  0  0  0  0  0
  -19.0700  -17.3716    8.2306 C   0  0  0  0  0  0  0  0  0  0  0  0
  -20.0299  -18.3552    7.9291 C   0  0  0  0  0  0  0  0  0  0  0  0
  -20.2770  -15.7725    6.8555 C   0  0  0  0  0  0  0  0  0  0  0  0
  -19.1689  -16.0741    7.6795 C   0  0  0  0  0  0  0  0  0  0  0  0
  -23.6495  -17.2153    4.0854 C   0  0  0  0  0  0  0  0  0  0  0  0
  -24.7894  -16.5687    3.5341 C   0  0  0  0  0  0  0  0  0  0  0  0
  -25.0617  -16.4992    2.1475 C   0  0  0  0  0  0  0  0  0  0  0  0
  -24.1419  -17.1180    1.2265 C   0  0  0  0  0  0  0  0  0  0  0  0
  -22.9551  -17.7755    1.8123 C   0  0  0  0  0  0  0  0  0  0  0  0
  -22.6994  -17.8238    3.2325 C   0  0  0  0  0  0  0  0  0  0  0  0
  -18.1995  -15.0871    7.9713 C   0  0  0  0  0  0  0  0  0  0  0  0
  -17.6459  -14.8857    9.1806 N   0  0  0  0  0  0  0  0  0  0  0  0
  -16.8475  -13.8049    9.0833 C   0  0  0  0  0  0  0  0  0  0  0  0
  -16.8471  -13.3575    7.8178 N   0  0  0  0  0  0  0  0  0  0  0  0
  -17.6833  -14.1213    7.1078 C   0  0  0  0  0  0  0  0  0  0  0  0
  -16.1363  -13.1721   10.2172 C   0  0  1  0  0  0  0  0  0  0  0  0
  -16.9977  -12.9560   11.3556 N   0  0  0  0  0  0  0  0  0  0  0  0
  -16.4601  -13.5891   12.5317 C   0  0  2  0  0  0  0  0  0  0  0  0
  -14.9704  -13.8151   12.2385 C   0  0  1  0  0  0  0  0  0  0  0  0
  -14.9720  -14.0627   10.7280 C   0  0  2  0  0  0  0  0  0  0  0  0
  -18.2025  -12.2477   11.3964 C   0  0  0  0  0  0  0  0  0  0  0  0
  -18.8929  -12.3626   12.4399 O   0  0  0  0  0  0  0  0  0  0  0  0
  -18.7872  -11.3005   10.3825 C   0  0  1  0  0  0  0  0  0  0  0  0
  -17.7672  -10.6761    9.5907 N   0  0  0  0  0  0  0  0  0  0  0  0
  -19.9114  -11.8732    9.4438 C   0  0  1  0  0  0  0  0  0  0  0  0
  -21.0184  -12.6637   10.1995 C   0  0  0  0  0  0  0  0  0  0  0  0
  -20.5716  -10.7459    8.5876 C   0  0  0  0  0  0  0  0  0  0  0  0
  -17.1961   -9.4635    9.8160 C   0  0  0  0  0  0  0  0  0  0  0  0
  -16.2262   -9.0659    8.9410 O   0  0  0  0  0  0  0  0  0  0  0  0
  -17.5151   -8.7543   10.7996 O   0  0  0  0  0  0  0  0  0  0  0  0
  -15.4862   -7.8392    8.9368 C   0  0  0  0  0  0  0  0  0  0  0  0
  -24.2904  -16.8376    6.0961 H   0  0  0  0  0  0  0  0  0  0  0  0
  -21.5255  -20.9200    7.4891 H   0  0  0  0  0  0  0  0  0  0  0  0
  -23.4712  -22.8623    6.7970 H   0  0  0  0  0  0  0  0  0  0  0  0
  -26.8565  -21.1769    4.8699 H   0  0  0  0  0  0  0  0  0  0  0  0
  -25.8145  -18.9978    4.9425 H   0  0  0  0  0  0  0  0  0  0  0  0
  -26.0506  -26.5982    5.3729 H   0  0  0  0  0  0  0  0  0  0  0  0
  -24.3377  -24.8181    4.9582 H   0  0  0  0  0  0  0  0  0  0  0  0
  -28.2319  -26.8903    6.6569 H   0  0  0  0  0  0  0  0  0  0  0  0
  -30.3218  -23.7893    7.5737 H   0  0  0  0  0  0  0  0  0  0  0  0
  -30.9038  -25.1178    8.6108 H   0  0  0  0  0  0  0  0  0  0  0  0
  -31.2010  -26.6087    6.7826 H   0  0  0  0  0  0  0  0  0  0  0  0
  -31.6958  -25.0625    6.0468 H   0  0  0  0  0  0  0  0  0  0  0  0
  -29.7198  -26.5377    4.9048 H   0  0  0  0  0  0  0  0  0  0  0  0
  -29.5862  -24.7669    4.9911 H   0  0  0  0  0  0  0  0  0  0  0  0
  -27.0334  -26.1741   10.5325 H   0  0  0  0  0  0  0  0  0  0  0  0
  -26.3027  -27.4823    8.1781 H   0  0  0  0  0  0  0  0  0  0  0  0
  -25.4962  -25.1188    8.1451 H   0  0  0  0  0  0  0  0  0  0  0  0
  -24.3567  -27.0289    9.1976 H   0  0  0  0  0  0  0  0  0  0  0  0
  -23.4808  -25.5381    9.5057 H   0  0  0  0  0  0  0  0  0  0  0  0
  -24.4758  -26.2551   10.7846 H   0  0  0  0  0  0  0  0  0  0  0  0
  -26.4018  -23.2011    9.4231 H   0  0  0  0  0  0  0  0  0  0  0  0
  -24.6606  -23.3305    9.6439 H   0  0  0  0  0  0  0  0  0  0  0  0
  -25.7533  -23.8827   10.9277 H   0  0  0  0  0  0  0  0  0  0  0  0
  -28.3773  -31.2674    7.6961 H   0  0  0  0  0  0  0  0  0  0  0  0
  -29.6722  -30.2083    8.2704 H   0  0  0  0  0  0  0  0  0  0  0  0
  -28.6042  -31.0169    9.4472 H   0  0  0  0  0  0  0  0  0  0  0  0
  -18.2917  -17.6160    8.8483 H   0  0  0  0  0  0  0  0  0  0  0  0
  -19.9186  -19.2899    8.3272 H   0  0  0  0  0  0  0  0  0  0  0  0
  -20.3818  -14.8343    6.4597 H   0  0  0  0  0  0  0  0  0  0  0  0
  -25.4580  -16.1206    4.1656 H   0  0  0  0  0  0  0  0  0  0  0  0
  -25.9634  -15.9703    1.8966 H   0  0  0  0  0  0  0  0  0  0  0  0
  -24.3004  -17.1004    0.2180 H   0  0  0  0  0  0  0  0  0  0  0  0
  -22.1899  -18.2662    1.2470 H   0  0  0  0  0  0  0  0  0  0  0  0
  -21.8615  -18.2854    3.5967 H   0  0  0  0  0  0  0  0  0  0  0  0
  -16.3433  -12.5985    7.4785 H   0  0  0  0  0  0  0  0  0  0  0  0
  -17.9038  -14.0047    6.1160 H   0  0  0  0  0  0  0  0  0  0  0  0
  -15.7091  -12.2154    9.9032 H   0  0  0  0  0  0  0  0  0  0  0  0
  -16.9672  -14.5437   12.7023 H   0  0  0  0  0  0  0  0  0  0  0  0
  -16.5569  -12.9637   13.4236 H   0  0  0  0  0  0  0  0  0  0  0  0
  -14.3972  -12.9130   12.4749 H   0  0  0  0  0  0  0  0  0  0  0  0
  -14.5608  -14.6600   12.7988 H   0  0  0  0  0  0  0  0  0  0  0  0
  -14.0136  -13.7818   10.2812 H   0  0  0  0  0  0  0  0  0  0  0  0
  -15.1496  -15.1286   10.5430 H   0  0  0  0  0  0  0  0  0  0  0  0
  -19.2766  -10.5105   10.9635 H   0  0  0  0  0  0  0  0  0  0  0  0
  -17.4588  -11.1654    8.8127 H   0  0  0  0  0  0  0  0  0  0  0  0
  -19.4522  -12.5724    8.7425 H   0  0  0  0  0  0  0  0  0  0  0  0
  -20.5926  -13.5334   10.7001 H   0  0  0  0  0  0  0  0  0  0  0  0
  -21.7732  -13.0296    9.5010 H   0  0  0  0  0  0  0  0  0  0  0  0
  -21.5069  -12.0306   10.9425 H   0  0  0  0  0  0  0  0  0  0  0  0
  -19.8236  -10.2150    7.9954 H   0  0  0  0  0  0  0  0  0  0  0  0
  -21.3021  -11.1638    7.8920 H   0  0  0  0  0  0  0  0  0  0  0  0
  -21.0796  -10.0224    9.2291 H   0  0  0  0  0  0  0  0  0  0  0  0
  -14.4472   -8.0534    9.1807 H   0  0  0  0  0  0  0  0  0  0  0  0
  -15.8647   -7.1200    9.6628 H   0  0  0  0  0  0  0  0  0  0  0  0
  -15.5361   -7.4009    7.9389 H   0  0  0  0  0  0  0  0  0  0  0  0
  1  2  1  0  0  0  0 
  2  3  1  0  0  0  0 
  4  3  1  0  0  0  0 
  4  5  1  0  0  0  0 
  6  5  1  0  0  0  0 
  7  8  1  0  0  0  0 
  8  9  1  0  0  0  0 
  2  9  2  0  0  0  0 
  3  7  1  0  0  0  0 
 10 11  1  0  0  0  0 
 11 12  2  0  0  0  0 
 12 13  1  0  0  0  0 
  7 13  2  0  0  0  0 
  8 10  2  0  0  0  0 
 11 14  1  0  0  0  0 
 15 16  2  0  0  0  0 
 16 17  1  0  0  0  0 
 17 18  1  0  0  0  0 
 14 15  1  0  0  0  0 
 14 18  2  0  0  0  0 
 19 16  1  0  0  0  0 
 20 21  1  0  0  0  0 
 21 22  1  0  0  0  0 
 22 23  1  0  0  0  0 
 19 20  1  0  0  0  0 
 19 23  1  0  0  0  0 
 20 24  1  0  0  0  0 
 24 25  2  0  0  0  0 
 26 24  1  0  0  0  0 
 26 27  1  0  0  0  0 
 26 28  1  0  0  0  0 
 28 29  1  0  0  0  0 
 28 30  1  0  0  0  0 
 27 31  1  0  0  0  0 
 31 32  1  0  0  0  0 
 31 33  2  0  0  0  0 
 32 34  1  0  0  0  0 
 35 36  1  0  0  0  0 
 37 38  1  0  0  0  0 
 35 38  2  0  0  0  0 
  6 37  2  0  0  0  0 
 36  1  2  0  0  0  0 
  1  6  1  0  0  0  0 
  4 39  1  0  0  0  0 
 40 41  1  0  0  0  0 
 41 42  2  0  0  0  0 
 42 43  1  0  0  0  0 
 43 44  2  0  0  0  0 
 39 40  2  0  0  0  0 
 39 44  1  0  0  0  0 
 38 45  1  0  0  0  0 
 46 47  2  0  0  0  0 
 47 48  1  0  0  0  0 
 48 49  1  0  0  0  0 
 45 46  1  0  0  0  0 
 45 49  2  0  0  0  0 
 50 47  1  0  0  0  0 
 51 52  1  0  0  0  0 
 52 53  1  0  0  0  0 
 53 54  1  0  0  0  0 
 50 51  1  0  0  0  0 
 50 54  1  0  0  0  0 
 51 55  1  0  0  0  0 
 55 56  2  0  0  0  0 
 57 55  1  0  0  0  0 
 57 58  1  0  0  0  0 
 57 59  1  0  0  0  0 
 59 60  1  0  0  0  0 
 59 61  1  0  0  0  0 
 58 62  1  0  0  0  0 
 62 63  1  0  0  0  0 
 62 64  2  0  0  0  0 
 63 65  1  0  0  0  0 
  4 66  1  0  0  0  0 
 67  9  1  0  0  0  0 
 68 10  1  0  0  0  0 
 69 12  1  0  0  0  0 
 70 13  1  0  0  0  0 
 71 17  1  0  0  0  0 
 72 18  1  0  0  0  0 
 19 73  1  0  0  0  0 
 74 21  1  0  0  0  0 
 75 21  1  0  0  0  0 
 76 22  1  0  0  0  0 
 77 22  1  0  0  0  0 
 78 23  1  0  0  0  0 
 79 23  1  0  0  0  0 
 26 80  1  0  0  0  0 
 81 27  1  0  0  0  0 
 82 28  1  0  0  0  0 
 83 29  1  0  0  0  0 
 84 29  1  0  0  0  0 
 85 29  1  0  0  0  0 
 86 30  1  0  0  0  0 
 87 30  1  0  0  0  0 
 88 30  1  0  0  0  0 
 89 34  1  0  0  0  0 
 90 34  1  0  0  0  0 
 91 34  1  0  0  0  0 
 92 35  1  0  0  0  0 
 93 36  1  0  0  0  0 
 94 37  1  0  0  0  0 
 95 40  1  0  0  0  0 
 96 41  1  0  0  0  0 
 97 42  1  0  0  0  0 
 98 43  1  0  0  0  0 
 99 44  1  0  0  0  0 
100 48  1  0  0  0  0 
101 49  1  0  0  0  0 
 50102  1  0  0  0  0 
103 52  1  0  0  0  0 
104 52  1  0  0  0  0 
105 53  1  0  0  0  0 
106 53  1  0  0  0  0 
107 54  1  0  0  0  0 
108 54  1  0  0  0  0 
 57109  1  0  0  0  0 
110 58  1  0  0  0  0 
111 59  1  0  0  0  0 
112 60  1  0  0  0  0 
113 60  1  0  0  0  0 
114 60  1  0  0  0  0 
115 61  1  0  0  0  0 
116 61  1  0  0  0  0 
117 61  1  0  0  0  0 
118 65  1  0  0  0  0 
119 65  1  0  0  0  0 
120 65  1  0  0  0  0 
M  END
> <cdk:Title>
elbasvir

> <Conformer>
1

> <SuperDrugID>
SD003903

$$$$
