gepefrine
  CDK     0628171801

 24 24  0  0  0  0  0  0  0  0999 V2000
   -2.2808   -0.4220   -1.2116 C   0  0  0  0  0  0  0  0  0  0  0  0
   -1.5089   -0.4418   -2.5543 C   0  0  2  0  0  0  0  0  0  0  0  0
   -2.3360   -1.1152   -3.5701 N   0  0  2  0  0  0  0  0  0  0  0  0
   -0.1296   -1.1591   -2.4703 C   0  0  1  0  0  0  0  0  0  0  0  0
    0.8520   -0.4981   -1.5629 C   0  0  0  0  0  0  0  0  0  0  0  0
    1.0197   -0.9470   -0.2301 C   0  0  0  0  0  0  0  0  0  0  0  0
    1.9529   -0.3321    0.6249 C   0  0  0  0  0  0  0  0  0  0  0  0
    2.7383    0.7374    0.1602 C   0  0  0  0  0  0  0  0  0  0  0  0
    2.5845    1.1969   -1.1608 C   0  0  0  0  0  0  0  0  0  0  0  0
    3.3422    2.2283   -1.6014 O   0  0  0  0  0  0  0  0  0  0  0  0
    1.6443    0.5853   -2.0151 C   0  0  0  0  0  0  0  0  0  0  0  0
   -2.3706   -1.4304   -0.8016 H   0  0  0  0  0  0  0  0  0  0  0  0
   -1.7604    0.2080   -0.4871 H   0  0  0  0  0  0  0  0  0  0  0  0
   -3.2860   -0.0176   -1.3570 H   0  0  0  0  0  0  0  0  0  0  0  0
   -1.3649    0.5897   -2.8867 H   0  0  0  0  0  0  0  0  0  0  0  0
   -1.8674   -0.9894   -4.4715 H   0  0  0  0  0  0  0  0  0  0  0  0
   -3.2228   -0.6087   -3.6252 H   0  0  0  0  0  0  0  0  0  0  0  0
   -0.2881   -2.1942   -2.1540 H   0  0  0  0  0  0  0  0  0  0  0  0
    0.2991   -1.2130   -3.4755 H   0  0  0  0  0  0  0  0  0  0  0  0
    0.4589   -1.7220    0.1332 H   0  0  0  0  0  0  0  0  0  0  0  0
    2.0634   -0.6646    1.5850 H   0  0  0  0  0  0  0  0  0  0  0  0
    3.4149    1.1827    0.7859 H   0  0  0  0  0  0  0  0  0  0  0  0
    2.7642    3.0114   -1.5023 H   0  0  0  0  0  0  0  0  0  0  0  0
    1.5502    0.9273   -2.9755 H   0  0  0  0  0  0  0  0  0  0  0  0
  1  2  1  0  0  0  0 
  2  3  1  0  0  0  0 
  2  4  1  0  0  0  0 
  4  5  1  0  0  0  0 
  5  6  2  0  0  0  0 
  6  7  1  0  0  0  0 
  7  8  2  0  0  0  0 
  8  9  1  0  0  0  0 
  9 10  1  0  0  0  0 
  9 11  2  0  0  0  0 
  5 11  1  0  0  0  0 
  1 12  1  0  0  0  0 
  1 13  1  0  0  0  0 
  1 14  1  0  0  0  0 
  2 15  1  0  0  0  0 
  3 16  1  0  0  0  0 
  3 17  1  0  0  0  0 
  4 18  1  0  0  0  0 
  4 19  1  0  0  0  0 
  6 20  1  0  0  0  0 
  7 21  1  0  0  0  0 
  8 22  1  0  0  0  0 
 10 23  1  0  0  0  0 
 11 24  1  0  0  0  0 
M  END
> <cdk:Title>
gepefrine

> <Conformer>
1

> <SuperDrugID>
SD001148

$$$$
