pemirolast
  CDK     0628171801

 25 27  0  0  0  0  0  0  0  0999 V2000
    2.0835    1.1228    1.5189 O   0  0  0  0  0  0  0  0  0  0  0  0
    2.1897    1.1249    0.2664 C   0  0  0  0  0  0  0  0  0  0  0  0
    3.2451    1.7777   -0.3383 N   0  0  0  0  0  0  0  0  0  0  0  0
    1.2056    0.4436   -0.4988 C   0  0  0  0  0  0  0  0  0  0  0  0
    3.3655    1.7529   -1.7157 C   0  0  0  0  0  0  0  0  0  0  0  0
    4.1859    2.4495    0.4039 C   0  0  0  0  0  0  0  0  0  0  0  0
    1.3584    0.4948   -1.9008 C   0  0  0  0  0  0  0  0  0  0  0  0
    0.1176   -0.2753    0.0759 C   0  0  0  0  0  0  0  0  0  0  0  0
    4.4561    2.3729   -2.3814 C   0  0  0  0  0  0  0  0  0  0  0  0
    2.4169    1.1232   -2.4531 N   0  0  0  0  0  0  0  0  0  0  0  0
    5.2663    3.1104   -0.2010 C   0  0  0  0  0  0  0  0  0  0  0  0
   -0.8846   -0.8856   -0.5708 N   0  0  0  0  0  0  0  0  0  0  0  0
   -0.1170   -0.5020    1.3776 N   0  0  0  0  0  0  0  0  0  0  0  0
    4.6190    2.2884   -3.8567 C   0  0  0  0  0  0  0  0  0  0  0  0
    5.3980    3.0682   -1.5935 C   0  0  0  0  0  0  0  0  0  0  0  0
   -1.6685   -1.4447    0.2869 N   0  0  0  0  0  0  0  0  0  0  0  0
   -1.1979   -1.2084    1.4690 N   0  0  0  0  0  0  0  0  0  0  0  0
    4.1316    2.4931    1.4254 H   0  0  0  0  0  0  0  0  0  0  0  0
    0.6822    0.0542   -2.5288 H   0  0  0  0  0  0  0  0  0  0  0  0
    5.9514    3.6128    0.3683 H   0  0  0  0  0  0  0  0  0  0  0  0
   -1.0032   -0.9063   -1.5331 H   0  0  0  0  0  0  0  0  0  0  0  0
    5.4995    2.8283   -4.2101 H   0  0  0  0  0  0  0  0  0  0  0  0
    4.7219    1.2431   -4.1544 H   0  0  0  0  0  0  0  0  0  0  0  0
    3.7436    2.7103   -4.3518 H   0  0  0  0  0  0  0  0  0  0  0  0
    6.1915    3.5489   -2.0235 H   0  0  0  0  0  0  0  0  0  0  0  0
  1  2  2  0  0  0  0 
  2  3  1  0  0  0  0 
  2  4  1  0  0  0  0 
  3  5  1  0  0  0  0 
  3  6  1  0  0  0  0 
  4  7  2  0  0  0  0 
  4  8  1  0  0  0  0 
  5  9  1  0  0  0  0 
  5 10  2  0  0  0  0 
  6 11  2  0  0  0  0 
  7 10  1  0  0  0  0 
  8 12  1  0  0  0  0 
  8 13  2  0  0  0  0 
  9 14  1  0  0  0  0 
  9 15  2  0  0  0  0 
 11 15  1  0  0  0  0 
 12 16  1  0  0  0  0 
 13 17  1  0  0  0  0 
 16 17  2  0  0  0  0 
 18  6  1  0  0  0  0 
 19  7  1  0  0  0  0 
 20 11  1  0  0  0  0 
 21 12  1  0  0  0  0 
 22 14  1  0  0  0  0 
 23 14  1  0  0  0  0 
 24 14  1  0  0  0  0 
 25 15  1  0  0  0  0 
M  END
> <cdk:Title>
pemirolast

> <Conformer>
1

> <SuperDrugID>
SD001859

$$$$
