gossypol
  CDK     0628171801

 68 71  0  0  0  0  0  0  0  0999 V2000
    1.2842   -9.8941   -4.7235 C   0  0  2  0  0  0  0  0  0  0  0  0
    0.9504  -11.1535   -3.8732 C   0  0  0  0  0  0  0  0  0  0  0  0
    1.4783  -10.2438   -6.2303 C   0  0  0  0  0  0  0  0  0  0  0  0
    2.4172   -9.0760   -4.1215 C   0  0  0  0  0  0  0  0  0  0  0  0
    2.2737   -7.7666   -3.5360 C   0  0  0  0  0  0  0  0  0  0  0  0
    3.7173   -9.6489   -4.1432 C   0  0  0  0  0  0  0  0  0  0  0  0
    3.4253   -7.0381   -3.0788 C   0  0  0  0  0  0  0  0  0  0  0  0
    1.0082   -7.1405   -3.3687 C   0  0  0  0  0  0  0  0  0  0  0  0
    3.9496  -10.8841   -4.6621 O   0  0  0  0  0  0  0  0  0  0  0  0
    4.8294   -8.9844   -3.6094 C   0  0  0  0  0  0  0  0  0  0  0  0
    4.6942   -7.6977   -3.0460 C   0  0  0  0  0  0  0  0  0  0  0  0
    3.2681   -5.6755   -2.6792 C   0  0  0  0  0  0  0  0  0  0  0  0
    0.8396   -5.8266   -2.8842 C   0  0  0  0  0  0  0  0  0  0  0  0
    6.0232   -9.6453   -3.6244 O   0  0  0  0  0  0  0  0  0  0  0  0
    5.8311   -7.1600   -2.3865 C   0  0  0  0  0  0  0  0  0  0  0  0
    4.3561   -4.8844   -2.4480 O   0  0  0  0  0  0  0  0  0  0  0  0
    1.9922   -5.0703   -2.5582 C   0  0  0  0  0  0  0  0  0  0  0  0
   -0.5613   -5.3207   -2.7543 C   0  0  0  0  0  0  0  0  0  0  0  0
    6.9676   -7.1345   -2.9109 O   0  0  0  0  0  0  0  0  0  0  0  0
    1.9008   -3.7204   -2.0889 C   0  0  0  0  0  0  0  0  0  0  0  0
    2.0305   -3.4671   -0.6993 C   0  0  0  0  0  0  0  0  0  0  0  0
    1.7076   -2.6379   -2.9869 C   0  0  0  0  0  0  0  0  0  0  0  0
    2.1626   -4.6113    0.1022 O   0  0  0  0  0  0  0  0  0  0  0  0
    1.9902   -2.1028   -0.2168 C   0  0  0  0  0  0  0  0  0  0  0  0
    1.6115   -2.7809   -4.4704 C   0  0  0  0  0  0  0  0  0  0  0  0
    1.5985   -1.3299   -2.4657 C   0  0  0  0  0  0  0  0  0  0  0  0
    1.6692   -1.0119   -1.0842 C   0  0  0  0  0  0  0  0  0  0  0  0
    2.2562   -1.7462    1.1755 C   0  0  0  0  0  0  0  0  0  0  0  0
    1.4531    0.3234   -0.5665 C   0  0  0  0  0  0  0  0  0  0  0  0
    2.8041   -2.7058    2.0635 C   0  0  0  0  0  0  0  0  0  0  0  0
    2.0795   -0.4184    1.7268 C   0  0  0  0  0  0  0  0  0  0  0  0
    0.9947    1.5037   -1.4139 C   0  0  2  0  0  0  0  0  0  0  0  0
    1.6673    0.5736    0.8248 C   0  0  0  0  0  0  0  0  0  0  0  0
    2.4176   -2.8433    3.2457 O   0  0  0  0  0  0  0  0  0  0  0  0
    2.3104   -0.0950    3.0297 O   0  0  0  0  0  0  0  0  0  0  0  0
    2.1050    2.5794   -1.5722 C   0  0  0  0  0  0  0  0  0  0  0  0
   -0.3653    2.1194   -0.9703 C   0  0  0  0  0  0  0  0  0  0  0  0
    1.4948    1.8081    1.3690 O   0  0  0  0  0  0  0  0  0  0  0  0
    0.3586   -9.3319   -4.7434 H   0  0  0  0  0  0  0  0  0  0  0  0
    0.8194  -10.8783   -2.8241 H   0  0  0  0  0  0  0  0  0  0  0  0
    0.0213  -11.6110   -4.2220 H   0  0  0  0  0  0  0  0  0  0  0  0
    1.7382  -11.9041   -3.9390 H   0  0  0  0  0  0  0  0  0  0  0  0
    1.7753   -9.3536   -6.7888 H   0  0  0  0  0  0  0  0  0  0  0  0
    0.5422  -10.6146   -6.6558 H   0  0  0  0  0  0  0  0  0  0  0  0
    2.2282  -11.0183   -6.3839 H   0  0  0  0  0  0  0  0  0  0  0  0
    0.1482   -7.6354   -3.5801 H   0  0  0  0  0  0  0  0  0  0  0  0
    4.7884  -10.8038   -5.1652 H   0  0  0  0  0  0  0  0  0  0  0  0
    6.6455   -9.0460   -4.0862 H   0  0  0  0  0  0  0  0  0  0  0  0
    5.7318   -6.7659   -1.4473 H   0  0  0  0  0  0  0  0  0  0  0  0
    4.2161   -4.4886   -1.5625 H   0  0  0  0  0  0  0  0  0  0  0  0
   -1.1262   -5.9722   -2.0850 H   0  0  0  0  0  0  0  0  0  0  0  0
   -0.6291   -4.3088   -2.3575 H   0  0  0  0  0  0  0  0  0  0  0  0
   -1.0469   -5.3268   -3.7322 H   0  0  0  0  0  0  0  0  0  0  0  0
    3.0823   -4.9168   -0.0436 H   0  0  0  0  0  0  0  0  0  0  0  0
    2.3851   -2.1732   -4.9433 H   0  0  0  0  0  0  0  0  0  0  0  0
    1.7387   -3.8028   -4.8228 H   0  0  0  0  0  0  0  0  0  0  0  0
    0.6368   -2.4270   -4.8137 H   0  0  0  0  0  0  0  0  0  0  0  0
    1.4858   -0.5984   -3.1591 H   0  0  0  0  0  0  0  0  0  0  0  0
    3.5538   -3.3207    1.7416 H   0  0  0  0  0  0  0  0  0  0  0  0
    0.7726    1.1974   -2.4286 H   0  0  0  0  0  0  0  0  0  0  0  0
    1.7628   -0.7211    3.5465 H   0  0  0  0  0  0  0  0  0  0  0  0
    3.0431    2.1132   -1.8786 H   0  0  0  0  0  0  0  0  0  0  0  0
    1.8227    3.3061   -2.3371 H   0  0  0  0  0  0  0  0  0  0  0  0
    2.2753    3.1221   -0.6432 H   0  0  0  0  0  0  0  0  0  0  0  0
   -1.1021    1.3314   -0.8053 H   0  0  0  0  0  0  0  0  0  0  0  0
   -0.7511    2.7832   -1.7484 H   0  0  0  0  0  0  0  0  0  0  0  0
   -0.2762    2.7098   -0.0604 H   0  0  0  0  0  0  0  0  0  0  0  0
    1.0589    1.6486    2.2338 H   0  0  0  0  0  0  0  0  0  0  0  0
  1  2  1  0  0  0  0 
  1  3  1  0  0  0  0 
  1  4  1  0  0  0  0 
  4  5  2  0  0  0  0 
  4  6  1  0  0  0  0 
  5  7  1  0  0  0  0 
  5  8  1  0  0  0  0 
  6  9  1  0  0  0  0 
  6 10  2  0  0  0  0 
  7 11  2  0  0  0  0 
  7 12  1  0  0  0  0 
  8 13  2  0  0  0  0 
 10 11  1  0  0  0  0 
 10 14  1  0  0  0  0 
 11 15  1  0  0  0  0 
 12 16  1  0  0  0  0 
 12 17  2  0  0  0  0 
 13 17  1  0  0  0  0 
 13 18  1  0  0  0  0 
 15 19  2  0  0  0  0 
 17 20  1  0  0  0  0 
 20 21  1  0  0  0  0 
 20 22  2  0  0  0  0 
 21 23  1  0  0  0  0 
 21 24  2  0  0  0  0 
 22 25  1  0  0  0  0 
 22 26  1  0  0  0  0 
 24 27  1  0  0  0  0 
 24 28  1  0  0  0  0 
 26 27  2  0  0  0  0 
 27 29  1  0  0  0  0 
 28 30  1  0  0  0  0 
 28 31  2  0  0  0  0 
 29 32  1  0  0  0  0 
 29 33  2  0  0  0  0 
 30 34  2  0  0  0  0 
 31 33  1  0  0  0  0 
 31 35  1  0  0  0  0 
 32 36  1  0  0  0  0 
 32 37  1  0  0  0  0 
 33 38  1  0  0  0  0 
  1 39  1  0  0  0  0 
  2 40  1  0  0  0  0 
  2 41  1  0  0  0  0 
  2 42  1  0  0  0  0 
  3 43  1  0  0  0  0 
  3 44  1  0  0  0  0 
  3 45  1  0  0  0  0 
  8 46  1  0  0  0  0 
  9 47  1  0  0  0  0 
 14 48  1  0  0  0  0 
 15 49  1  0  0  0  0 
 16 50  1  0  0  0  0 
 18 51  1  0  0  0  0 
 18 52  1  0  0  0  0 
 18 53  1  0  0  0  0 
 23 54  1  0  0  0  0 
 25 55  1  0  0  0  0 
 25 56  1  0  0  0  0 
 25 57  1  0  0  0  0 
 26 58  1  0  0  0  0 
 30 59  1  0  0  0  0 
 32 60  1  0  0  0  0 
 35 61  1  0  0  0  0 
 36 62  1  0  0  0  0 
 36 63  1  0  0  0  0 
 36 64  1  0  0  0  0 
 37 65  1  0  0  0  0 
 37 66  1  0  0  0  0 
 37 67  1  0  0  0  0 
 38 68  1  0  0  0  0 
M  END
> <cdk:Title>
gossypol

> <Conformer>
1

> <SuperDrugID>
SD001179

$$$$
