pyridoxal phosphate
  CDK     0628171801

 26 26  0  0  0  0  0  0  0  0999 V2000
    2.4383    0.5348    0.0554 C   0  0  2  0  0  0  0  0  0  0  0  0
    2.3799    1.9527   -0.1952 O   0  0  0  0  0  0  0  0  0  0  0  0
    3.6007    0.2769    0.9511 C   0  0  0  0  0  0  0  0  0  0  0  0
    1.1138    2.4535   -1.0311 P   0  0  1  0  0  0  0  0  0  0  0  0
    3.6312    0.6178    2.3411 C   0  0  0  0  0  0  0  0  0  0  0  0
    4.7423   -0.3431    0.3902 C   0  0  0  0  0  0  0  0  0  0  0  0
    1.2391    3.8925   -1.2878 O   0  0  0  0  0  0  0  0  0  0  0  0
    1.0275    1.6629   -2.4017 O   0  0  0  0  0  0  0  0  0  0  0  0
   -0.2053    2.1693   -0.2009 O   0  0  0  0  0  0  0  0  0  0  0  0
    2.5418    1.2305    3.0339 C   0  0  0  0  0  0  0  0  0  0  0  0
    4.8068    0.3198    3.0882 C   0  0  0  0  0  0  0  0  0  0  0  0
    5.8274   -0.6118    1.1482 N   0  0  0  0  0  0  0  0  0  0  0  0
    1.5879    1.8223    2.4816 O   0  0  0  0  0  0  0  0  0  0  0  0
    4.9214    0.6384    4.4058 O   0  0  0  0  0  0  0  0  0  0  0  0
    5.9071   -0.3113    2.4653 C   0  0  0  0  0  0  0  0  0  0  0  0
    7.1522   -0.6547    3.1850 C   0  0  0  0  0  0  0  0  0  0  0  0
    2.5483    0.0044   -0.8951 H   0  0  0  0  0  0  0  0  0  0  0  0
    1.5335    0.1492    0.5359 H   0  0  0  0  0  0  0  0  0  0  0  0
    4.7738   -0.6051   -0.5982 H   0  0  0  0  0  0  0  0  0  0  0  0
    1.8710    1.8608   -2.8602 H   0  0  0  0  0  0  0  0  0  0  0  0
   -0.2280    1.1962   -0.0903 H   0  0  0  0  0  0  0  0  0  0  0  0
    2.5095    1.2131    4.0546 H   0  0  0  0  0  0  0  0  0  0  0  0
    4.8463    1.6152    4.4360 H   0  0  0  0  0  0  0  0  0  0  0  0
    7.5895    0.2463    3.6208 H   0  0  0  0  0  0  0  0  0  0  0  0
    7.8863   -1.1030    2.5087 H   0  0  0  0  0  0  0  0  0  0  0  0
    6.9332   -1.3704    3.9803 H   0  0  0  0  0  0  0  0  0  0  0  0
  1  2  1  0  0  0  0 
  1  3  1  0  0  0  0 
  2  4  1  0  0  0  0 
  3  5  2  0  0  0  0 
  3  6  1  0  0  0  0 
  4  7  2  0  0  0  0 
  4  8  1  0  0  0  0 
  4  9  1  0  0  0  0 
  5 10  1  0  0  0  0 
  5 11  1  0  0  0  0 
  6 12  2  0  0  0  0 
 10 13  2  0  0  0  0 
 11 14  1  0  0  0  0 
 11 15  2  0  0  0  0 
 12 15  1  0  0  0  0 
 15 16  1  0  0  0  0 
  1 17  1  0  0  0  0 
  1 18  1  0  0  0  0 
  6 19  1  0  0  0  0 
  8 20  1  0  0  0  0 
  9 21  1  0  0  0  0 
 10 22  1  0  0  0  0 
 14 23  1  0  0  0  0 
 16 24  1  0  0  0  0 
 16 25  1  0  0  0  0 
 16 26  1  0  0  0  0 
M  END
> <cdk:Title>
pyridoxal phosphate

> <Conformer>
1

> <SuperDrugID>
SD003019

$$$$
