piperonyl butoxide
  CDK     0628171801

 54 55  0  0  0  0  0  0  0  0999 V2000
    3.4319    1.3014    2.5816 C   0  0  2  0  0  0  0  0  0  0  0  0
    4.4769    2.0834    1.9789 O   0  0  0  0  0  0  0  0  0  0  0  0
    2.1756    2.0894    2.4826 C   0  0  0  0  0  0  0  0  0  0  0  0
    5.7531    1.4231    1.9505 C   0  0  1  0  0  0  0  0  0  0  0  0
    1.7769    2.8399    3.6208 C   0  0  0  0  0  0  0  0  0  0  0  0
    1.3844    2.1406    1.2862 C   0  0  0  0  0  0  0  0  0  0  0  0
    6.8220    2.4044    1.4362 C   0  0  1  0  0  0  0  0  0  0  0  0
    0.6066    3.6106    3.5750 C   0  0  0  0  0  0  0  0  0  0  0  0
    1.7446    1.3979    0.0346 C   0  0  1  0  0  0  0  0  0  0  0  0
    0.2018    2.9323    1.2843 C   0  0  0  0  0  0  0  0  0  0  0  0
    8.0815    1.7143    1.4005 O   0  0  0  0  0  0  0  0  0  0  0  0
   -0.1681    3.6511    2.4327 C   0  0  0  0  0  0  0  0  0  0  0  0
    0.0999    4.3716    4.5622 O   0  0  0  0  0  0  0  0  0  0  0  0
    1.1782   -0.0492    0.0146 C   0  0  2  0  0  0  0  0  0  0  0  0
    9.1931    2.5060    0.9513 C   0  0  2  0  0  0  0  0  0  0  0  0
   -1.2484    4.4406    2.5931 O   0  0  0  0  0  0  0  0  0  0  0  0
   -1.1139    4.8626    3.9645 C   0  0  1  0  0  0  0  0  0  0  0  0
    1.6401   -0.8657   -1.2147 C   0  0  0  0  0  0  0  0  0  0  0  0
   10.4483    1.6143    0.9814 C   0  0  1  0  0  0  0  0  0  0  0  0
   11.5904    2.3678    0.5364 O   0  0  0  0  0  0  0  0  0  0  0  0
   12.8199    1.6155    0.5292 C   0  0  2  0  0  0  0  0  0  0  0  0
   13.9605    2.5330    0.0343 C   0  0  2  0  0  0  0  0  0  0  0  0
   15.3366    1.8130   -0.0117 C   0  0  2  0  0  0  0  0  0  0  0  0
   16.4755    2.7328   -0.5073 C   0  0  0  0  0  0  0  0  0  0  0  0
    3.6821    1.0892    3.6258 H   0  0  0  0  0  0  0  0  0  0  0  0
    3.3187    0.3343    2.0877 H   0  0  0  0  0  0  0  0  0  0  0  0
    6.0442    1.0926    2.9531 H   0  0  0  0  0  0  0  0  0  0  0  0
    5.7088    0.5555    1.2849 H   0  0  0  0  0  0  0  0  0  0  0  0
    2.3332    2.8387    4.4810 H   0  0  0  0  0  0  0  0  0  0  0  0
    6.5449    2.7523    0.4369 H   0  0  0  0  0  0  0  0  0  0  0  0
    6.8729    3.2618    2.1144 H   0  0  0  0  0  0  0  0  0  0  0  0
    1.3648    1.9284   -0.8441 H   0  0  0  0  0  0  0  0  0  0  0  0
    2.8296    1.3685   -0.0853 H   0  0  0  0  0  0  0  0  0  0  0  0
   -0.3926    2.9883    0.4509 H   0  0  0  0  0  0  0  0  0  0  0  0
    0.0868   -0.0081    0.0141 H   0  0  0  0  0  0  0  0  0  0  0  0
    1.4918   -0.5834    0.9144 H   0  0  0  0  0  0  0  0  0  0  0  0
    9.3445    3.3658    1.6107 H   0  0  0  0  0  0  0  0  0  0  0  0
    9.0253    2.8602   -0.0702 H   0  0  0  0  0  0  0  0  0  0  0  0
   -1.9674    4.4953    4.5409 H   0  0  0  0  0  0  0  0  0  0  0  0
   -1.1139    5.9547    4.0047 H   0  0  0  0  0  0  0  0  0  0  0  0
    2.7307   -0.9261   -1.2441 H   0  0  0  0  0  0  0  0  0  0  0  0
    1.2402   -1.8818   -1.1633 H   0  0  0  0  0  0  0  0  0  0  0  0
    1.2844   -0.4004   -2.1356 H   0  0  0  0  0  0  0  0  0  0  0  0
   10.6006    1.2603    2.0060 H   0  0  0  0  0  0  0  0  0  0  0  0
   10.2808    0.7532    0.3267 H   0  0  0  0  0  0  0  0  0  0  0  0
   12.7352    0.7537   -0.1417 H   0  0  0  0  0  0  0  0  0  0  0  0
   13.0557    1.2616    1.5388 H   0  0  0  0  0  0  0  0  0  0  0  0
   14.0242    3.3965    0.7021 H   0  0  0  0  0  0  0  0  0  0  0  0
   13.7051    2.8930   -0.9661 H   0  0  0  0  0  0  0  0  0  0  0  0
   15.2739    0.9476   -0.6787 H   0  0  0  0  0  0  0  0  0  0  0  0
   15.5930    1.4510    0.9888 H   0  0  0  0  0  0  0  0  0  0  0  0
   17.4189    2.1816   -0.5214 H   0  0  0  0  0  0  0  0  0  0  0  0
   16.5847    3.5924    0.1570 H   0  0  0  0  0  0  0  0  0  0  0  0
   16.2641    3.0866   -1.5184 H   0  0  0  0  0  0  0  0  0  0  0  0
  1  2  1  0  0  0  0 
  1  3  1  0  0  0  0 
  2  4  1  0  0  0  0 
  3  5  2  0  0  0  0 
  3  6  1  0  0  0  0 
  4  7  1  0  0  0  0 
  5  8  1  0  0  0  0 
  6  9  1  0  0  0  0 
  6 10  2  0  0  0  0 
  7 11  1  0  0  0  0 
  8 12  2  0  0  0  0 
  8 13  1  0  0  0  0 
  9 14  1  0  0  0  0 
 10 12  1  0  0  0  0 
 11 15  1  0  0  0  0 
 12 16  1  0  0  0  0 
 13 17  1  0  0  0  0 
 14 18  1  0  0  0  0 
 15 19  1  0  0  0  0 
 16 17  1  0  0  0  0 
 19 20  1  0  0  0  0 
 20 21  1  0  0  0  0 
 21 22  1  0  0  0  0 
 22 23  1  0  0  0  0 
 23 24  1  0  0  0  0 
  1 25  1  0  0  0  0 
  1 26  1  0  0  0  0 
  4 27  1  0  0  0  0 
  4 28  1  0  0  0  0 
  5 29  1  0  0  0  0 
  7 30  1  0  0  0  0 
  7 31  1  0  0  0  0 
  9 32  1  0  0  0  0 
  9 33  1  0  0  0  0 
 10 34  1  0  0  0  0 
 14 35  1  0  0  0  0 
 14 36  1  0  0  0  0 
 15 37  1  0  0  0  0 
 15 38  1  0  0  0  0 
 17 39  1  0  0  0  0 
 17 40  1  0  0  0  0 
 18 41  1  0  0  0  0 
 18 42  1  0  0  0  0 
 18 43  1  0  0  0  0 
 19 44  1  0  0  0  0 
 19 45  1  0  0  0  0 
 21 46  1  0  0  0  0 
 21 47  1  0  0  0  0 
 22 48  1  0  0  0  0 
 22 49  1  0  0  0  0 
 23 50  1  0  0  0  0 
 23 51  1  0  0  0  0 
 24 52  1  0  0  0  0 
 24 53  1  0  0  0  0 
 24 54  1  0  0  0  0 
M  END
> <cdk:Title>
piperonyl butoxide

> <Conformer>
1

> <SuperDrugID>
SD003470

$$$$
