cilostazol
  CDK     0628171802

 54 57  0  0  0  0  0  0  0  0999 V2000
   -2.8009    1.2886    1.4665 C   0  0  2  0  0  0  0  0  0  0  0  0
   -3.8567    1.6544    0.3844 C   0  0  1  0  0  0  0  0  0  0  0  0
   -2.1190    2.4671    2.0543 C   0  0  0  0  0  0  0  0  0  0  0  0
   -3.2465    2.3392   -0.8709 C   0  0  2  0  0  0  0  0  0  0  0  0
   -2.5390    3.3093    3.0222 N   0  0  0  0  0  0  0  0  0  0  0  0
   -0.9010    2.8815    1.6796 N   0  0  0  0  0  0  0  0  0  0  0  0
   -4.2914    2.7432   -1.9370 C   0  0  2  0  0  0  0  0  0  0  0  0
   -1.5959    4.1815    3.1896 N   0  0  0  0  0  0  0  0  0  0  0  0
   -3.7472    3.2505    3.8055 C   0  0  2  0  0  0  0  0  0  0  0  0
   -0.6183    3.9251    2.3841 N   0  0  0  0  0  0  0  0  0  0  0  0
   -3.6020    3.3958   -3.0228 O   0  0  0  0  0  0  0  0  0  0  0  0
   -4.2816    4.6574    4.2220 C   0  0  1  0  0  0  0  0  0  0  0  0
   -3.4989    2.3631    5.0615 C   0  0  2  0  0  0  0  0  0  0  0  0
   -4.4279    3.7583   -4.0502 C   0  0  0  0  0  0  0  0  0  0  0  0
   -5.5465    4.5605    5.1155 C   0  0  2  0  0  0  0  0  0  0  0  0
   -4.7664    2.2457    5.9448 C   0  0  2  0  0  0  0  0  0  0  0  0
   -4.7432    2.8311   -5.0628 C   0  0  0  0  0  0  0  0  0  0  0  0
   -4.9399    5.0686   -4.1228 C   0  0  0  0  0  0  0  0  0  0  0  0
   -5.3169    3.6395    6.3426 C   0  0  2  0  0  0  0  0  0  0  0  0
   -5.6120    3.1874   -6.1177 C   0  0  0  0  0  0  0  0  0  0  0  0
   -5.7887    5.4406   -5.1814 C   0  0  0  0  0  0  0  0  0  0  0  0
   -6.1336    4.5045   -6.1781 C   0  0  0  0  0  0  0  0  0  0  0  0
   -5.9437    2.2098   -7.1869 C   0  0  2  0  0  0  0  0  0  0  0  0
   -6.9662    4.8830   -7.1884 N   0  0  0  0  0  0  0  0  0  0  0  0
   -7.2030    2.5666   -8.0311 C   0  0  2  0  0  0  0  0  0  0  0  0
   -7.4849    4.0181   -8.0966 C   0  0  0  0  0  0  0  0  0  0  0  0
   -8.2660    4.4650   -8.9670 O   0  0  0  0  0  0  0  0  0  0  0  0
   -2.0505    0.6300    1.0194 H   0  0  0  0  0  0  0  0  0  0  0  0
   -3.2813    0.7204    2.2657 H   0  0  0  0  0  0  0  0  0  0  0  0
   -4.3551    0.7310    0.0742 H   0  0  0  0  0  0  0  0  0  0  0  0
   -4.6164    2.3068    0.8216 H   0  0  0  0  0  0  0  0  0  0  0  0
   -2.5253    1.6575   -1.3302 H   0  0  0  0  0  0  0  0  0  0  0  0
   -2.7124    3.2408   -0.5644 H   0  0  0  0  0  0  0  0  0  0  0  0
   -5.0193    3.4261   -1.4867 H   0  0  0  0  0  0  0  0  0  0  0  0
   -4.8107    1.8444   -2.2864 H   0  0  0  0  0  0  0  0  0  0  0  0
   -4.5322    2.7774    3.2092 H   0  0  0  0  0  0  0  0  0  0  0  0
   -3.5099    5.2012    4.7742 H   0  0  0  0  0  0  0  0  0  0  0  0
   -4.5197    5.2367    3.3269 H   0  0  0  0  0  0  0  0  0  0  0  0
   -2.6855    2.7879    5.6575 H   0  0  0  0  0  0  0  0  0  0  0  0
   -3.1928    1.3607    4.7522 H   0  0  0  0  0  0  0  0  0  0  0  0
   -6.3840    4.1825    4.5233 H   0  0  0  0  0  0  0  0  0  0  0  0
   -5.8137    5.5596    5.4682 H   0  0  0  0  0  0  0  0  0  0  0  0
   -4.5209    1.6845    6.8498 H   0  0  0  0  0  0  0  0  0  0  0  0
   -5.5347    1.6866    5.4035 H   0  0  0  0  0  0  0  0  0  0  0  0
   -4.3404    1.8902   -5.0226 H   0  0  0  0  0  0  0  0  0  0  0  0
   -4.7011    5.7532   -3.4018 H   0  0  0  0  0  0  0  0  0  0  0  0
   -6.2584    3.5134    6.8815 H   0  0  0  0  0  0  0  0  0  0  0  0
   -4.6056    4.1203    7.0193 H   0  0  0  0  0  0  0  0  0  0  0  0
   -6.1544    6.3962   -5.2229 H   0  0  0  0  0  0  0  0  0  0  0  0
   -6.0991    1.2215   -6.7449 H   0  0  0  0  0  0  0  0  0  0  0  0
   -5.0734    2.1449   -7.8453 H   0  0  0  0  0  0  0  0  0  0  0  0
   -7.2159    5.8184   -7.2519 H   0  0  0  0  0  0  0  0  0  0  0  0
   -8.0796    2.0873   -7.5895 H   0  0  0  0  0  0  0  0  0  0  0  0
   -7.0763    2.1711   -9.0421 H   0  0  0  0  0  0  0  0  0  0  0  0
  1  2  1  0  0  0  0 
  1  3  1  0  0  0  0 
  2  4  1  0  0  0  0 
  3  5  1  0  0  0  0 
  3  6  2  0  0  0  0 
  4  7  1  0  0  0  0 
  5  8  1  0  0  0  0 
  5  9  1  0  0  0  0 
  6 10  1  0  0  0  0 
  7 11  1  0  0  0  0 
  8 10  2  0  0  0  0 
  9 12  1  0  0  0  0 
  9 13  1  0  0  0  0 
 11 14  1  0  0  0  0 
 12 15  1  0  0  0  0 
 13 16  1  0  0  0  0 
 14 17  2  0  0  0  0 
 14 18  1  0  0  0  0 
 15 19  1  0  0  0  0 
 16 19  1  0  0  0  0 
 17 20  1  0  0  0  0 
 18 21  2  0  0  0  0 
 20 22  2  0  0  0  0 
 20 23  1  0  0  0  0 
 21 22  1  0  0  0  0 
 22 24  1  0  0  0  0 
 23 25  1  0  0  0  0 
 24 26  1  0  0  0  0 
 25 26  1  0  0  0  0 
 26 27  2  0  0  0  0 
  1 28  1  0  0  0  0 
  1 29  1  0  0  0  0 
  2 30  1  0  0  0  0 
  2 31  1  0  0  0  0 
  4 32  1  0  0  0  0 
  4 33  1  0  0  0  0 
  7 34  1  0  0  0  0 
  7 35  1  0  0  0  0 
  9 36  1  0  0  0  0 
 12 37  1  0  0  0  0 
 12 38  1  0  0  0  0 
 13 39  1  0  0  0  0 
 13 40  1  0  0  0  0 
 15 41  1  0  0  0  0 
 15 42  1  0  0  0  0 
 16 43  1  0  0  0  0 
 16 44  1  0  0  0  0 
 17 45  1  0  0  0  0 
 18 46  1  0  0  0  0 
 19 47  1  0  0  0  0 
 19 48  1  0  0  0  0 
 21 49  1  0  0  0  0 
 23 50  1  0  0  0  0 
 23 51  1  0  0  0  0 
 24 52  1  0  0  0  0 
 25 53  1  0  0  0  0 
 25 54  1  0  0  0  0 
M  END
> <cdk:Title>
cilostazol

> <Conformer>
1

> <SuperDrugID>
SD000564

$$$$
