naepaine
  CDK     0628171801

 40 40  0  0  0  0  0  0  0  0999 V2000
   -0.0590    0.3650   -0.2137 C   0  0  0  0  0  0  0  0  0  0  0  0
   -0.1300   -0.9890   -0.0185 O   0  0  0  0  0  0  0  0  0  0  0  0
   -1.1300    1.0011   -0.3647 O   0  0  0  0  0  0  0  0  0  0  0  0
    1.1951    1.0364   -0.2746 C   0  0  0  0  0  0  0  0  0  0  0  0
   -1.3237   -1.7887   -0.0551 C   0  0  1  0  0  0  0  0  0  0  0  0
    1.2703    2.4323   -0.5115 C   0  0  0  0  0  0  0  0  0  0  0  0
    2.4111    0.3235   -0.1325 C   0  0  0  0  0  0  0  0  0  0  0  0
   -0.9770   -3.2680    0.2105 C   0  0  1  0  0  0  0  0  0  0  0  0
    2.5113    3.0834   -0.6388 C   0  0  0  0  0  0  0  0  0  0  0  0
    3.6551    0.9702   -0.2621 C   0  0  0  0  0  0  0  0  0  0  0  0
   -2.1243   -4.1420   -0.1210 N   0  0  2  0  0  0  0  0  0  0  0  0
    3.7087    2.3523   -0.5256 C   0  0  0  0  0  0  0  0  0  0  0  0
   -1.9415   -5.5684    0.2382 C   0  0  2  0  0  0  0  0  0  0  0  0
    4.8932    2.9765   -0.6754 N   0  0  0  0  0  0  0  0  0  0  0  0
   -3.1480   -6.3941   -0.2721 C   0  0  1  0  0  0  0  0  0  0  0  0
   -3.0783   -7.9000    0.1006 C   0  0  1  0  0  0  0  0  0  0  0  0
   -4.3049   -8.6879   -0.4360 C   0  0  2  0  0  0  0  0  0  0  0  0
   -4.2747  -10.1883   -0.0717 C   0  0  0  0  0  0  0  0  0  0  0  0
   -2.0333   -1.4367    0.6986 H   0  0  0  0  0  0  0  0  0  0  0  0
   -1.7817   -1.6927   -1.0437 H   0  0  0  0  0  0  0  0  0  0  0  0
    0.4174    2.9951   -0.6024 H   0  0  0  0  0  0  0  0  0  0  0  0
    2.4056   -0.6822    0.0580 H   0  0  0  0  0  0  0  0  0  0  0  0
   -0.1193   -3.5520   -0.4043 H   0  0  0  0  0  0  0  0  0  0  0  0
   -0.7092   -3.3820    1.2632 H   0  0  0  0  0  0  0  0  0  0  0  0
    2.5377    4.0907   -0.8231 H   0  0  0  0  0  0  0  0  0  0  0  0
    4.5196    0.4285   -0.1698 H   0  0  0  0  0  0  0  0  0  0  0  0
   -2.2392   -4.1014   -1.1367 H   0  0  0  0  0  0  0  0  0  0  0  0
   -1.8713   -5.6591    1.3257 H   0  0  0  0  0  0  0  0  0  0  0  0
   -1.0227   -5.9564   -0.2112 H   0  0  0  0  0  0  0  0  0  0  0  0
    5.7218    2.4750   -0.6181 H   0  0  0  0  0  0  0  0  0  0  0  0
    4.9191    3.9315   -0.8448 H   0  0  0  0  0  0  0  0  0  0  0  0
   -4.0651   -5.9690    0.1454 H   0  0  0  0  0  0  0  0  0  0  0  0
   -3.1956   -6.3021   -1.3606 H   0  0  0  0  0  0  0  0  0  0  0  0
   -2.1641   -8.3330   -0.3157 H   0  0  0  0  0  0  0  0  0  0  0  0
   -3.0370   -7.9999    1.1893 H   0  0  0  0  0  0  0  0  0  0  0  0
   -4.3443   -8.5974   -1.5247 H   0  0  0  0  0  0  0  0  0  0  0  0
   -5.2210   -8.2525   -0.0274 H   0  0  0  0  0  0  0  0  0  0  0  0
   -5.1608  -10.6798   -0.4775 H   0  0  0  0  0  0  0  0  0  0  0  0
   -3.3880  -10.6659   -0.4923 H   0  0  0  0  0  0  0  0  0  0  0  0
   -4.2703  -10.3181    1.0122 H   0  0  0  0  0  0  0  0  0  0  0  0
  1  2  1  0  0  0  0 
  1  3  2  0  0  0  0 
  1  4  1  0  0  0  0 
  2  5  1  0  0  0  0 
  4  6  2  0  0  0  0 
  4  7  1  0  0  0  0 
  5  8  1  0  0  0  0 
  6  9  1  0  0  0  0 
  7 10  2  0  0  0  0 
  8 11  1  0  0  0  0 
  9 12  2  0  0  0  0 
 10 12  1  0  0  0  0 
 11 13  1  0  0  0  0 
 12 14  1  0  0  0  0 
 13 15  1  0  0  0  0 
 15 16  1  0  0  0  0 
 16 17  1  0  0  0  0 
 17 18  1  0  0  0  0 
  5 19  1  0  0  0  0 
  5 20  1  0  0  0  0 
  6 21  1  0  0  0  0 
  7 22  1  0  0  0  0 
  8 23  1  0  0  0  0 
  8 24  1  0  0  0  0 
  9 25  1  0  0  0  0 
 10 26  1  0  0  0  0 
 11 27  1  0  0  0  0 
 13 28  1  0  0  0  0 
 13 29  1  0  0  0  0 
 14 30  1  0  0  0  0 
 14 31  1  0  0  0  0 
 15 32  1  0  0  0  0 
 15 33  1  0  0  0  0 
 16 34  1  0  0  0  0 
 16 35  1  0  0  0  0 
 17 36  1  0  0  0  0 
 17 37  1  0  0  0  0 
 18 38  1  0  0  0  0 
 18 39  1  0  0  0  0 
 18 40  1  0  0  0  0 
M  END
> <cdk:Title>
naepaine

> <Conformer>
1

> <SuperDrugID>
SD003231

$$$$
