tioconazole
  CDK     0628171801

 36 38  0  0  0  0  0  0  0  0999 V2000
   -1.9965   -1.2058   -0.1549 C   0  0  1  0  0  0  0  0  0  0  0  0
   -2.6766   -0.1517    0.7785 C   0  0  2  0  0  0  0  0  0  0  0  0
   -0.5789   -1.3886    0.1011 O   0  0  0  0  0  0  0  0  0  0  0  0
   -2.7424   -2.5045   -0.0654 C   0  0  0  0  0  0  0  0  0  0  0  0
   -2.5978   -0.4596    2.1795 N   0  0  0  0  0  0  0  0  0  0  0  0
    0.2934   -0.2770   -0.2003 C   0  0  2  0  0  0  0  0  0  0  0  0
   -3.9272   -2.7566   -0.8172 C   0  0  0  0  0  0  0  0  0  0  0  0
   -2.3171   -3.4953    0.8561 C   0  0  0  0  0  0  0  0  0  0  0  0
   -3.4568   -1.2198    2.8816 C   0  0  0  0  0  0  0  0  0  0  0  0
   -1.6689   -0.0269    3.0561 C   0  0  0  0  0  0  0  0  0  0  0  0
    1.7107   -0.6501    0.0122 C   0  0  0  0  0  0  0  0  0  0  0  0
   -4.5517   -1.6753   -1.9687 Cl  0  0  0  0  0  0  0  0  0  0  0  0
   -4.6614   -3.9432   -0.6154 C   0  0  0  0  0  0  0  0  0  0  0  0
   -3.0524   -4.6760    1.0517 C   0  0  0  0  0  0  0  0  0  0  0  0
   -3.0165   -1.2499    4.1950 C   0  0  0  0  0  0  0  0  0  0  0  0
   -1.9067   -0.5067    4.2878 N   0  0  0  0  0  0  0  0  0  0  0  0
    2.2022   -1.2302    1.1969 C   0  0  0  0  0  0  0  0  0  0  0  0
    2.7063   -0.4233   -0.9675 C   0  0  0  0  0  0  0  0  0  0  0  0
   -4.2329   -4.8987    0.3227 C   0  0  0  0  0  0  0  0  0  0  0  0
    1.3566   -1.6536    2.5981 Cl  0  0  0  0  0  0  0  0  0  0  0  0
    3.9286   -1.4656    0.9945 S   0  0  0  0  0  0  0  0  0  0  0  0
    4.0080   -0.7910   -0.6194 C   0  0  0  0  0  0  0  0  0  0  0  0
   -5.1383   -6.3062    0.5772 Cl  0  0  0  0  0  0  0  0  0  0  0  0
   -2.0749   -0.8428   -1.1838 H   0  0  0  0  0  0  0  0  0  0  0  0
   -3.7289   -0.0429    0.5017 H   0  0  0  0  0  0  0  0  0  0  0  0
   -2.2309    0.8281    0.5999 H   0  0  0  0  0  0  0  0  0  0  0  0
    0.0763    0.5678    0.4519 H   0  0  0  0  0  0  0  0  0  0  0  0
    0.1445    0.0444   -1.2352 H   0  0  0  0  0  0  0  0  0  0  0  0
   -1.4742   -3.3580    1.4179 H   0  0  0  0  0  0  0  0  0  0  0  0
   -4.2885   -1.6937    2.5234 H   0  0  0  0  0  0  0  0  0  0  0  0
   -0.8842    0.5858    2.8294 H   0  0  0  0  0  0  0  0  0  0  0  0
   -5.5188   -4.1129   -1.1475 H   0  0  0  0  0  0  0  0  0  0  0  0
   -2.7278   -5.3651    1.7342 H   0  0  0  0  0  0  0  0  0  0  0  0
   -3.4618   -1.7489    4.9660 H   0  0  0  0  0  0  0  0  0  0  0  0
    2.5026   -0.0013   -1.8762 H   0  0  0  0  0  0  0  0  0  0  0  0
    4.8472   -0.6841   -1.1887 H   0  0  0  0  0  0  0  0  0  0  0  0
  1  2  1  0  0  0  0 
  1  3  1  0  0  0  0 
  1  4  1  0  0  0  0 
  2  5  1  0  0  0  0 
  3  6  1  0  0  0  0 
  4  7  2  0  0  0  0 
  4  8  1  0  0  0  0 
  5  9  1  0  0  0  0 
  5 10  1  0  0  0  0 
  6 11  1  0  0  0  0 
  7 12  1  0  0  0  0 
  7 13  1  0  0  0  0 
  8 14  2  0  0  0  0 
  9 15  2  0  0  0  0 
 10 16  2  0  0  0  0 
 11 17  2  0  0  0  0 
 11 18  1  0  0  0  0 
 13 19  2  0  0  0  0 
 14 19  1  0  0  0  0 
 15 16  1  0  0  0  0 
 17 20  1  0  0  0  0 
 17 21  1  0  0  0  0 
 18 22  2  0  0  0  0 
 19 23  1  0  0  0  0 
 21 22  1  0  0  0  0 
  1 24  1  0  0  0  0 
  2 25  1  0  0  0  0 
  2 26  1  0  0  0  0 
  6 27  1  0  0  0  0 
  6 28  1  0  0  0  0 
  8 29  1  0  0  0  0 
  9 30  1  0  0  0  0 
 10 31  1  0  0  0  0 
 13 32  1  0  0  0  0 
 14 33  1  0  0  0  0 
 15 34  1  0  0  0  0 
 18 35  1  0  0  0  0 
 22 36  1  0  0  0  0 
M  END
> <cdk:Title>
tioconazole

> <Conformer>
1

> <SuperDrugID>
SD002407

$$$$
