dexetimide
  CDK     0628171802

 53 56  0  0  0  0  0  0  0  0999 V2000
    1.3742   -0.9850    2.3750 O   0  0  0  0  0  0  0  0  0  0  0  0
    2.3848   -1.2779    3.0557 C   0  0  0  0  0  0  0  0  0  0  0  0
    2.3301   -2.3630    4.1069 C   0  0  1  0  0  0  0  0  0  0  0  0
    3.4838   -0.5376    2.7713 N   0  0  0  0  0  0  0  0  0  0  0  0
    3.8150   -2.7203    4.5529 C   0  0  2  0  0  0  0  0  0  0  0  0
    1.4557   -1.8198    5.3405 C   0  0  2  0  0  0  0  0  0  0  0  0
    1.8003   -3.6762    3.5117 C   0  0  0  0  0  0  0  0  0  0  0  0
    4.6539   -0.6256    3.4397 C   0  0  0  0  0  0  0  0  0  0  0  0
    4.8827   -1.5874    4.5322 C   0  0  2  0  0  0  0  0  0  0  0  0
   -0.0934   -1.7421    5.0765 C   0  0  2  0  0  0  0  0  0  0  0  0
    1.9639   -0.4626    5.9443 C   0  0  1  0  0  0  0  0  0  0  0  0
    1.7977   -3.9520    2.1108 C   0  0  0  0  0  0  0  0  0  0  0  0
    1.3996   -4.7518    4.3533 C   0  0  0  0  0  0  0  0  0  0  0  0
    5.5648    0.1696    3.1208 O   0  0  0  0  0  0  0  0  0  0  0  0
   -0.8999   -1.0774    6.2319 C   0  0  1  0  0  0  0  0  0  0  0  0
    1.0752    0.0938    7.0830 C   0  0  1  0  0  0  0  0  0  0  0  0
    1.3721   -5.1862    1.5874 C   0  0  0  0  0  0  0  0  0  0  0  0
    0.9699   -5.9879    3.8375 C   0  0  0  0  0  0  0  0  0  0  0  0
   -0.3486    0.2487    6.6602 N   0  0  1  0  0  0  0  0  0  0  0  0
    0.9524   -6.2056    2.4517 C   0  0  0  0  0  0  0  0  0  0  0  0
   -0.6421    1.3820    5.7172 C   0  0  1  0  0  0  0  0  0  0  0  0
   -0.1346    2.7119    6.1648 C   0  0  0  0  0  0  0  0  0  0  0  0
   -0.7162    3.3651    7.2766 C   0  0  0  0  0  0  0  0  0  0  0  0
    0.9482    3.3408    5.5023 C   0  0  0  0  0  0  0  0  0  0  0  0
   -0.2290    4.6116    7.7146 C   0  0  0  0  0  0  0  0  0  0  0  0
    1.4407    4.5822    5.9455 C   0  0  0  0  0  0  0  0  0  0  0  0
    0.8537    5.2170    7.0535 C   0  0  0  0  0  0  0  0  0  0  0  0
    3.4191    0.1122    2.0523 H   0  0  0  0  0  0  0  0  0  0  0  0
    4.2278   -3.4831    3.8792 H   0  0  0  0  0  0  0  0  0  0  0  0
    3.8093   -3.1685    5.5518 H   0  0  0  0  0  0  0  0  0  0  0  0
    1.5669   -2.5333    6.1613 H   0  0  0  0  0  0  0  0  0  0  0  0
    5.8693   -2.0403    4.3933 H   0  0  0  0  0  0  0  0  0  0  0  0
    4.9252   -1.0528    5.4811 H   0  0  0  0  0  0  0  0  0  0  0  0
   -0.4968   -2.7469    4.9297 H   0  0  0  0  0  0  0  0  0  0  0  0
   -0.2993   -1.1828    4.1658 H   0  0  0  0  0  0  0  0  0  0  0  0
    2.9535   -0.5957    6.3711 H   0  0  0  0  0  0  0  0  0  0  0  0
    2.0324    0.3011    5.1685 H   0  0  0  0  0  0  0  0  0  0  0  0
    2.1296   -3.2638    1.4339 H   0  0  0  0  0  0  0  0  0  0  0  0
    1.4263   -4.6581    5.3686 H   0  0  0  0  0  0  0  0  0  0  0  0
   -1.9459   -0.9693    5.9304 H   0  0  0  0  0  0  0  0  0  0  0  0
   -0.8976   -1.7517    7.0939 H   0  0  0  0  0  0  0  0  0  0  0  0
    1.1217   -0.5805    7.9418 H   0  0  0  0  0  0  0  0  0  0  0  0
    1.4877    1.0435    7.4279 H   0  0  0  0  0  0  0  0  0  0  0  0
    1.3752   -5.3427    0.5763 H   0  0  0  0  0  0  0  0  0  0  0  0
    0.6767   -6.7349    4.4711 H   0  0  0  0  0  0  0  0  0  0  0  0
    0.6446   -7.1041    2.0733 H   0  0  0  0  0  0  0  0  0  0  0  0
   -0.2428    1.1477    4.7282 H   0  0  0  0  0  0  0  0  0  0  0  0
   -1.7257    1.4690    5.5960 H   0  0  0  0  0  0  0  0  0  0  0  0
   -1.5000    2.9364    7.7737 H   0  0  0  0  0  0  0  0  0  0  0  0
    1.3940    2.8953    4.6969 H   0  0  0  0  0  0  0  0  0  0  0  0
   -0.6601    5.0768    8.5164 H   0  0  0  0  0  0  0  0  0  0  0  0
    2.2287    5.0214    5.4642 H   0  0  0  0  0  0  0  0  0  0  0  0
    1.2157    6.1170    7.3783 H   0  0  0  0  0  0  0  0  0  0  0  0
  1  2  2  0  0  0  0 
  3  2  1  0  0  0  0 
  2  4  1  0  0  0  0 
  3  5  1  0  0  0  0 
  3  6  1  0  0  0  0 
  3  7  1  0  0  0  0 
  4  8  1  0  0  0  0 
  5  9  1  0  0  0  0 
  6 10  1  0  0  0  0 
  6 11  1  0  0  0  0 
  7 12  2  0  0  0  0 
  7 13  1  0  0  0  0 
  8  9  1  0  0  0  0 
  8 14  2  0  0  0  0 
 10 15  1  0  0  0  0 
 11 16  1  0  0  0  0 
 12 17  1  0  0  0  0 
 13 18  2  0  0  0  0 
 15 19  1  0  0  0  0 
 16 19  1  0  0  0  0 
 17 20  2  0  0  0  0 
 18 20  1  0  0  0  0 
 19 21  1  0  0  0  0 
 21 22  1  0  0  0  0 
 22 23  2  0  0  0  0 
 22 24  1  0  0  0  0 
 23 25  1  0  0  0  0 
 24 26  2  0  0  0  0 
 25 27  2  0  0  0  0 
 26 27  1  0  0  0  0 
  4 28  1  0  0  0  0 
  5 29  1  0  0  0  0 
  5 30  1  0  0  0  0 
  6 31  1  0  0  0  0 
  9 32  1  0  0  0  0 
  9 33  1  0  0  0  0 
 10 34  1  0  0  0  0 
 10 35  1  0  0  0  0 
 11 36  1  0  0  0  0 
 11 37  1  0  0  0  0 
 12 38  1  0  0  0  0 
 13 39  1  0  0  0  0 
 15 40  1  0  0  0  0 
 15 41  1  0  0  0  0 
 16 42  1  0  0  0  0 
 16 43  1  0  0  0  0 
 17 44  1  0  0  0  0 
 18 45  1  0  0  0  0 
 20 46  1  0  0  0  0 
 21 47  1  0  0  0  0 
 21 48  1  0  0  0  0 
 23 49  1  0  0  0  0 
 24 50  1  0  0  0  0 
 25 51  1  0  0  0  0 
 26 52  1  0  0  0  0 
 27 53  1  0  0  0  0 
M  END
> <cdk:Title>
dexetimide

> <Conformer>
1

> <SuperDrugID>
SD000735

$$$$
