chlorcyclizine
  CDK     0628171802

 42 44  0  0  0  0  0  0  0  0999 V2000
   -2.3834   -5.3063   -0.3428 C   0  0  0  0  0  0  0  0  0  0  0  0
   -1.5384   -4.1226   -0.6724 N   0  0  1  0  0  0  0  0  0  0  0  0
   -0.8964   -4.2049   -2.0148 C   0  0  1  0  0  0  0  0  0  0  0  0
    0.0949   -3.0300   -2.2113 C   0  0  1  0  0  0  0  0  0  0  0  0
   -0.5705   -1.6912   -2.0301 N   0  0  1  0  0  0  0  0  0  0  0  0
   -1.2730   -1.6358   -0.7007 C   0  0  2  0  0  0  0  0  0  0  0  0
   -2.2463   -2.8233   -0.4904 C   0  0  1  0  0  0  0  0  0  0  0  0
    0.3340   -0.5016   -2.3108 C   0  0  2  0  0  0  0  0  0  0  0  0
   -0.3482    0.8240   -2.0994 C   0  0  0  0  0  0  0  0  0  0  0  0
    0.0566    1.6990   -1.0569 C   0  0  0  0  0  0  0  0  0  0  0  0
   -0.6033    2.9223   -0.8327 C   0  0  0  0  0  0  0  0  0  0  0  0
   -1.6714    3.3070   -1.6601 C   0  0  0  0  0  0  0  0  0  0  0  0
   -2.0901    2.4583   -2.6977 C   0  0  0  0  0  0  0  0  0  0  0  0
   -1.4431    1.2265   -2.9052 C   0  0  0  0  0  0  0  0  0  0  0  0
    0.9675   -0.5075   -3.6777 C   0  0  0  0  0  0  0  0  0  0  0  0
    2.3039   -0.0727   -3.8649 C   0  0  0  0  0  0  0  0  0  0  0  0
    2.9118   -0.1072   -5.1351 C   0  0  0  0  0  0  0  0  0  0  0  0
    2.1952   -0.5805   -6.2490 C   0  0  0  0  0  0  0  0  0  0  0  0
    2.9349   -0.6520   -7.7708 Cl  0  0  0  0  0  0  0  0  0  0  0  0
    0.8614   -0.9977   -6.0892 C   0  0  0  0  0  0  0  0  0  0  0  0
    0.2572   -0.9543   -4.8196 C   0  0  0  0  0  0  0  0  0  0  0  0
    1.1515   -0.5786   -1.5847 H   0  0  0  0  0  0  0  0  0  0  0  0
   -3.2389   -5.3899   -1.0172 H   0  0  0  0  0  0  0  0  0  0  0  0
   -2.7535   -5.2356    0.6819 H   0  0  0  0  0  0  0  0  0  0  0  0
   -1.7949   -6.2231   -0.4109 H   0  0  0  0  0  0  0  0  0  0  0  0
   -0.3403   -5.1416   -2.1046 H   0  0  0  0  0  0  0  0  0  0  0  0
   -1.6537   -4.1797   -2.8053 H   0  0  0  0  0  0  0  0  0  0  0  0
    0.9224   -3.1340   -1.5030 H   0  0  0  0  0  0  0  0  0  0  0  0
    0.5125   -3.1295   -3.2144 H   0  0  0  0  0  0  0  0  0  0  0  0
   -1.8684   -0.7235   -0.6203 H   0  0  0  0  0  0  0  0  0  0  0  0
   -0.5361   -1.6273    0.1080 H   0  0  0  0  0  0  0  0  0  0  0  0
   -3.0813   -2.7386   -1.1931 H   0  0  0  0  0  0  0  0  0  0  0  0
   -2.6527   -2.7595    0.5220 H   0  0  0  0  0  0  0  0  0  0  0  0
    0.8304    1.4474   -0.4373 H   0  0  0  0  0  0  0  0  0  0  0  0
   -0.3066    3.5336   -0.0676 H   0  0  0  0  0  0  0  0  0  0  0  0
   -2.1454    4.1989   -1.5050 H   0  0  0  0  0  0  0  0  0  0  0  0
   -2.8676    2.7353   -3.3015 H   0  0  0  0  0  0  0  0  0  0  0  0
   -1.7882    0.6207   -3.6497 H   0  0  0  0  0  0  0  0  0  0  0  0
    2.8520    0.2737   -3.0749 H   0  0  0  0  0  0  0  0  0  0  0  0
    3.8798    0.2074   -5.2427 H   0  0  0  0  0  0  0  0  0  0  0  0
    0.3265   -1.3413   -6.8904 H   0  0  0  0  0  0  0  0  0  0  0  0
   -0.7104   -1.2707   -4.7337 H   0  0  0  0  0  0  0  0  0  0  0  0
  1  2  1  0  0  0  0 
  2  3  1  0  0  0  0 
  3  4  1  0  0  0  0 
  4  5  1  0  0  0  0 
  5  6  1  0  0  0  0 
  6  7  1  0  0  0  0 
  2  7  1  0  0  0  0 
  8  5  1  0  0  0  0 
  8  9  1  0  0  0  0 
  9 10  2  0  0  0  0 
 10 11  1  0  0  0  0 
 11 12  2  0  0  0  0 
 12 13  1  0  0  0  0 
 13 14  2  0  0  0  0 
  9 14  1  0  0  0  0 
  8 15  1  0  0  0  0 
 15 16  2  0  0  0  0 
 16 17  1  0  0  0  0 
 17 18  2  0  0  0  0 
 18 19  1  0  0  0  0 
 18 20  1  0  0  0  0 
 20 21  2  0  0  0  0 
 15 21  1  0  0  0  0 
  8 22  1  0  0  0  0 
  1 23  1  0  0  0  0 
  1 24  1  0  0  0  0 
  1 25  1  0  0  0  0 
  3 26  1  0  0  0  0 
  3 27  1  0  0  0  0 
  4 28  1  0  0  0  0 
  4 29  1  0  0  0  0 
  6 30  1  0  0  0  0 
  6 31  1  0  0  0  0 
  7 32  1  0  0  0  0 
  7 33  1  0  0  0  0 
 10 34  1  0  0  0  0 
 11 35  1  0  0  0  0 
 12 36  1  0  0  0  0 
 13 37  1  0  0  0  0 
 14 38  1  0  0  0  0 
 16 39  1  0  0  0  0 
 17 40  1  0  0  0  0 
 20 41  1  0  0  0  0 
 21 42  1  0  0  0  0 
M  END
> <cdk:Title>
chlorcyclizine

> <Conformer>
1

> <SuperDrugID>
SD000518

$$$$
