monoctanoin
  CDK     0628171801

 37 36  0  0  0  0  0  0  0  0999 V2000
    0.8015    1.1441    0.0147 C   0  0  0  0  0  0  0  0  0  0  0  0
   -0.1057    0.1535    0.2546 O   0  0  0  0  0  0  0  0  0  0  0  0
    0.4926    2.1879   -0.9792 C   0  0  1  0  0  0  0  0  0  0  0  0
    1.8977    1.1769    0.6242 O   0  0  0  0  0  0  0  0  0  0  0  0
    0.0230   -0.8985    1.2202 C   0  0  2  0  0  0  0  0  0  0  0  0
    0.3436    3.5864   -0.3175 C   0  0  2  0  0  0  0  0  0  0  0  0
   -1.2019   -1.8458    1.1702 C   0  0  1  0  0  0  0  0  0  0  0  0
    0.1297    4.7299   -1.3448 C   0  0  2  0  0  0  0  0  0  0  0  0
   -2.5513   -1.1485    1.4814 C   0  0  1  0  0  0  0  0  0  0  0  0
   -1.2903   -2.4418   -0.1232 O   0  0  0  0  0  0  0  0  0  0  0  0
    0.0396    6.1281   -0.6698 C   0  0  1  0  0  0  0  0  0  0  0  0
   -2.5395   -0.5198    2.7586 O   0  0  0  0  0  0  0  0  0  0  0  0
   -0.1502    7.2752   -1.6986 C   0  0  1  0  0  0  0  0  0  0  0  0
   -0.2394    8.6769   -1.0369 C   0  0  2  0  0  0  0  0  0  0  0  0
   -0.4310    9.8057   -2.0745 C   0  0  0  0  0  0  0  0  0  0  0  0
    1.2934    2.2041   -1.7224 H   0  0  0  0  0  0  0  0  0  0  0  0
   -0.4383    1.9384   -1.4961 H   0  0  0  0  0  0  0  0  0  0  0  0
    0.1182   -0.4656    2.2194 H   0  0  0  0  0  0  0  0  0  0  0  0
    0.9276   -1.4758    1.0120 H   0  0  0  0  0  0  0  0  0  0  0  0
    1.2433    3.8085    0.2650 H   0  0  0  0  0  0  0  0  0  0  0  0
   -0.5090    3.5639    0.3686 H   0  0  0  0  0  0  0  0  0  0  0  0
   -1.0479   -2.6457    1.8986 H   0  0  0  0  0  0  0  0  0  0  0  0
   -0.7930    4.5421   -1.9017 H   0  0  0  0  0  0  0  0  0  0  0  0
    0.9636    4.7329   -2.0528 H   0  0  0  0  0  0  0  0  0  0  0  0
   -2.7697   -0.3940    0.7223 H   0  0  0  0  0  0  0  0  0  0  0  0
   -3.3531   -1.8905    1.4757 H   0  0  0  0  0  0  0  0  0  0  0  0
   -0.4261   -2.8834   -0.2546 H   0  0  0  0  0  0  0  0  0  0  0  0
   -0.8012    6.1323    0.0296 H   0  0  0  0  0  0  0  0  0  0  0  0
    0.9571    6.3102   -0.1027 H   0  0  0  0  0  0  0  0  0  0  0  0
   -3.4204   -0.0928    2.8352 H   0  0  0  0  0  0  0  0  0  0  0  0
    0.6927    7.2668   -2.3963 H   0  0  0  0  0  0  0  0  0  0  0  0
   -1.0668    7.0921   -2.2676 H   0  0  0  0  0  0  0  0  0  0  0  0
    0.6769    8.8718   -0.4725 H   0  0  0  0  0  0  0  0  0  0  0  0
   -1.0802    8.6969   -0.3379 H   0  0  0  0  0  0  0  0  0  0  0  0
   -0.4903   10.7693   -1.5676 H   0  0  0  0  0  0  0  0  0  0  0  0
    0.4096    9.8284   -2.7697 H   0  0  0  0  0  0  0  0  0  0  0  0
   -1.3527    9.6505   -2.6374 H   0  0  0  0  0  0  0  0  0  0  0  0
  1  2  1  0  0  0  0 
  1  3  1  0  0  0  0 
  1  4  2  0  0  0  0 
  2  5  1  0  0  0  0 
  3  6  1  0  0  0  0 
  5  7  1  0  0  0  0 
  6  8  1  0  0  0  0 
  7  9  1  0  0  0  0 
  7 10  1  0  0  0  0 
  8 11  1  0  0  0  0 
  9 12  1  0  0  0  0 
 11 13  1  0  0  0  0 
 13 14  1  0  0  0  0 
 14 15  1  0  0  0  0 
  3 16  1  0  0  0  0 
  3 17  1  0  0  0  0 
  5 18  1  0  0  0  0 
  5 19  1  0  0  0  0 
  6 20  1  0  0  0  0 
  6 21  1  0  0  0  0 
  7 22  1  0  0  0  0 
  8 23  1  0  0  0  0 
  8 24  1  0  0  0  0 
  9 25  1  0  0  0  0 
  9 26  1  0  0  0  0 
 10 27  1  0  0  0  0 
 11 28  1  0  0  0  0 
 11 29  1  0  0  0  0 
 12 30  1  0  0  0  0 
 13 31  1  0  0  0  0 
 13 32  1  0  0  0  0 
 14 33  1  0  0  0  0 
 14 34  1  0  0  0  0 
 15 35  1  0  0  0  0 
 15 36  1  0  0  0  0 
 15 37  1  0  0  0  0 
M  END
> <cdk:Title>
monoctanoin

> <Conformer>
1

> <SuperDrugID>
SD002902

$$$$
