sorivudine
  CDK     0628171801

 33 34  0  0  0  0  0  0  0  0999 V2000
   -5.7861    1.3165    0.0031 O   0  0  0  0  0  0  0  0  0  0  0  0
   -4.5353    1.2339    0.0083 C   0  0  0  0  0  0  0  0  0  0  0  0
   -3.8668    0.0359    0.0200 N   0  0  0  0  0  0  0  0  0  0  0  0
   -3.8594    2.4068    0.0000 N   0  0  0  0  0  0  0  0  0  0  0  0
   -2.4946    0.0542   -0.0322 C   0  0  0  0  0  0  0  0  0  0  0  0
   -4.5988   -1.2238    0.0747 C   0  0  2  0  0  0  0  0  0  0  0  0
   -2.5070    2.4493    0.0005 C   0  0  0  0  0  0  0  0  0  0  0  0
   -1.7414    1.2561   -0.0247 C   0  0  0  0  0  0  0  0  0  0  0  0
   -3.8318   -2.2749    0.7003 O   0  0  0  0  0  0  0  0  0  0  0  0
   -5.0495   -1.7405   -1.3164 C   0  0  1  0  0  0  0  0  0  0  0  0
   -1.9874    3.5905    0.0267 O   0  0  0  0  0  0  0  0  0  0  0  0
   -0.3371    1.3074   -0.0426 C   0  0  0  0  0  0  0  0  0  0  0  0
   -3.8369   -3.4270   -0.1528 C   0  0  1  0  0  0  0  0  0  0  0  0
   -5.0246   -0.7542   -2.3488 O   0  0  0  0  0  0  0  0  0  0  0  0
   -4.0746   -2.8916   -1.5803 C   0  0  1  0  0  0  0  0  0  0  0  0
    0.5224    0.2810    0.0466 C   0  0  0  0  0  0  0  0  0  0  0  0
   -2.5354   -4.2482    0.0169 C   0  0  1  0  0  0  0  0  0  0  0  0
   -4.6202   -3.8790   -2.4518 O   0  0  0  0  0  0  0  0  0  0  0  0
    2.3318    0.5726    0.0232 Br  0  0  0  0  0  0  0  0  0  0  0  0
   -1.3858   -3.4940   -0.3602 O   0  0  0  0  0  0  0  0  0  0  0  0
   -4.3589    3.2400   -0.0015 H   0  0  0  0  0  0  0  0  0  0  0  0
   -1.9967   -0.8348   -0.0794 H   0  0  0  0  0  0  0  0  0  0  0  0
   -5.4822   -1.1019    0.7106 H   0  0  0  0  0  0  0  0  0  0  0  0
   -6.0694   -2.1318   -1.2457 H   0  0  0  0  0  0  0  0  0  0  0  0
    0.0865    2.2006   -0.1251 H   0  0  0  0  0  0  0  0  0  0  0  0
   -4.6806   -4.0588    0.1461 H   0  0  0  0  0  0  0  0  0  0  0  0
   -5.3758   -1.2079   -3.1427 H   0  0  0  0  0  0  0  0  0  0  0  0
   -3.1506   -2.4974   -2.0119 H   0  0  0  0  0  0  0  0  0  0  0  0
    0.2162   -0.6545    0.1370 H   0  0  0  0  0  0  0  0  0  0  0  0
   -2.4258   -4.5501    1.0626 H   0  0  0  0  0  0  0  0  0  0  0  0
   -2.5842   -5.1486   -0.5999 H   0  0  0  0  0  0  0  0  0  0  0  0
   -3.8983   -4.5302   -2.5745 H   0  0  0  0  0  0  0  0  0  0  0  0
   -0.6303   -4.1115   -0.2611 H   0  0  0  0  0  0  0  0  0  0  0  0
  1  2  2  0  0  0  0 
  2  3  1  0  0  0  0 
  2  4  1  0  0  0  0 
  3  5  1  0  0  0  0 
  4  7  1  0  0  0  0 
  5  8  2  0  0  0  0 
  6  3  1  0  0  0  0 
  6  9  1  0  0  0  0 
 10  6  1  0  0  0  0 
  7  8  1  0  0  0  0 
  7 11  2  0  0  0  0 
  8 12  1  0  0  0  0 
 13  9  1  0  0  0  0 
 10 14  1  0  0  0  0 
 10 15  1  0  0  0  0 
 12 16  2  0  0  0  0 
 15 13  1  0  0  0  0 
 13 17  1  0  0  0  0 
 15 18  1  0  0  0  0 
 16 19  1  0  0  0  0 
 17 20  1  0  0  0  0 
 21  4  1  0  0  0  0 
 22  5  1  0  0  0  0 
  6 23  1  0  0  0  0 
 10 24  1  0  0  0  0 
 25 12  1  0  0  0  0 
 13 26  1  0  0  0  0 
 27 14  1  0  0  0  0 
 15 28  1  0  0  0  0 
 29 16  1  0  0  0  0 
 30 17  1  0  0  0  0 
 31 17  1  0  0  0  0 
 32 18  1  0  0  0  0 
 33 20  1  0  0  0  0 
M  END
> <cdk:Title>
sorivudine

> <Conformer>
1

> <SuperDrugID>
SD002211

$$$$
