flomoxef
  CDK     0628171801

 50 52  0  0  0  0  0  0  0  0999 V2000
   -2.5191   -1.2718   -9.4982 N   0  0  0  0  0  0  0  0  0  0  0  0
   -2.9185   -1.4549  -10.7864 C   0  0  0  0  0  0  0  0  0  0  0  0
   -1.5115   -0.3429   -9.0814 C   0  0  1  0  0  0  0  0  0  0  0  0
   -3.8093   -2.5804  -11.1275 C   0  0  1  0  0  0  0  0  0  0  0  0
   -2.5079   -0.7066  -11.7060 O   0  0  0  0  0  0  0  0  0  0  0  0
   -0.2128   -0.5132   -9.6979 O   0  0  0  0  0  0  0  0  0  0  0  0
   -1.9469    1.1585   -9.0712 C   0  0  2  0  0  0  0  0  0  0  0  0
   -1.4471   -0.1695   -7.6254 C   0  0  0  0  0  0  0  0  0  0  0  0
   -2.8829   -3.7795  -12.1425 S   0  0  0  0  0  0  0  0  0  0  0  0
    0.4126   -1.7960   -9.5145 C   0  0  0  0  0  0  0  0  0  0  0  0
   -1.8058    1.1185   -7.6608 N   0  0  0  0  0  0  0  0  0  0  0  0
   -3.3233    1.5224   -9.2828 O   0  0  0  0  0  0  0  0  0  0  0  0
   -1.2288   -0.9800   -6.6972 O   0  0  0  0  0  0  0  0  0  0  0  0
   -4.0704   -5.1193  -12.4569 C   0  0  2  0  0  0  0  0  0  0  0  0
   -2.1336    2.1034   -6.8001 C   0  0  0  0  0  0  0  0  0  0  0  0
   -3.6450    2.7822   -8.6287 C   0  0  2  0  0  0  0  0  0  0  0  0
   -4.3110   -5.8195  -11.3016 F   0  0  0  0  0  0  0  0  0  0  0  0
   -3.5306   -5.9690  -13.3879 F   0  0  0  0  0  0  0  0  0  0  0  0
   -1.4582    2.1787   -5.5724 C   0  0  0  0  0  0  0  0  0  0  0  0
   -3.0884    2.9679   -7.2602 C   0  0  0  0  0  0  0  0  0  0  0  0
   -1.3598    3.3045   -4.8305 O   0  0  0  0  0  0  0  0  0  0  0  0
   -0.8339    1.2062   -5.0918 O   0  0  0  0  0  0  0  0  0  0  0  0
   -3.6107    4.1176   -6.5174 C   0  0  1  0  0  0  0  0  0  0  0  0
   -2.6037    5.6018   -6.8544 S   0  0  0  0  0  0  0  0  0  0  0  0
   -3.2985    6.8243   -5.8041 C   0  0  0  0  0  0  0  0  0  0  0  0
   -2.8876    7.2029   -4.5823 N   0  0  0  0  0  0  0  0  0  0  0  0
   -4.3868    7.5417   -6.1023 N   0  0  0  0  0  0  0  0  0  0  0  0
   -1.7603    6.7404   -3.8298 C   0  0  1  0  0  0  0  0  0  0  0  0
   -3.7150    8.1103   -4.1738 N   0  0  0  0  0  0  0  0  0  0  0  0
   -4.6100    8.3119   -5.0883 N   0  0  0  0  0  0  0  0  0  0  0  0
   -2.2001    5.8832   -2.6252 C   0  0  1  0  0  0  0  0  0  0  0  0
   -1.0722    5.4454   -1.8738 O   0  0  0  0  0  0  0  0  0  0  0  0
   -1.2293    1.8362   -9.5512 H   0  0  0  0  0  0  0  0  0  0  0  0
   -2.9082   -1.8465   -8.8205 H   0  0  0  0  0  0  0  0  0  0  0  0
   -4.1642   -3.0820  -10.2239 H   0  0  0  0  0  0  0  0  0  0  0  0
   -4.6751   -2.2152  -11.6849 H   0  0  0  0  0  0  0  0  0  0  0  0
    1.3794   -1.7769  -10.0173 H   0  0  0  0  0  0  0  0  0  0  0  0
   -0.1849   -2.5954   -9.9557 H   0  0  0  0  0  0  0  0  0  0  0  0
    0.5836   -2.0110   -8.4586 H   0  0  0  0  0  0  0  0  0  0  0  0
   -5.0053   -4.7110  -12.8438 H   0  0  0  0  0  0  0  0  0  0  0  0
   -4.7362    2.8350   -8.6050 H   0  0  0  0  0  0  0  0  0  0  0  0
   -3.2943    3.5989   -9.2649 H   0  0  0  0  0  0  0  0  0  0  0  0
   -0.8464    3.2978   -3.9950 H   0  0  0  0  0  0  0  0  0  0  0  0
   -4.6396    4.3436   -6.8066 H   0  0  0  0  0  0  0  0  0  0  0  0
   -3.6394    3.9249   -5.4471 H   0  0  0  0  0  0  0  0  0  0  0  0
   -1.0879    6.1518   -4.4581 H   0  0  0  0  0  0  0  0  0  0  0  0
   -1.1986    7.6055   -3.4705 H   0  0  0  0  0  0  0  0  0  0  0  0
   -2.8524    6.4666   -1.9722 H   0  0  0  0  0  0  0  0  0  0  0  0
   -2.7470    5.0082   -2.9801 H   0  0  0  0  0  0  0  0  0  0  0  0
   -1.4532    4.9341   -1.1280 H   0  0  0  0  0  0  0  0  0  0  0  0
  1  2  1  0  0  0  0 
  3  1  1  0  0  0  0 
  2  4  1  0  0  0  0 
  2  5  2  0  0  0  0 
  3  6  1  0  0  0  0 
  7  3  1  0  0  0  0 
  3  8  1  0  0  0  0 
  4  9  1  0  0  0  0 
  6 10  1  0  0  0  0 
  7 11  1  0  0  0  0 
  7 12  1  0  0  0  0 
  7 33  1  0  0  0  0 
  8 11  1  0  0  0  0 
  8 13  2  0  0  0  0 
  9 14  1  0  0  0  0 
 11 15  1  0  0  0  0 
 12 16  1  0  0  0  0 
 14 17  1  0  0  0  0 
 14 18  1  0  0  0  0 
 15 19  1  0  0  0  0 
 15 20  2  0  0  0  0 
 16 20  1  0  0  0  0 
 19 21  1  0  0  0  0 
 19 22  2  0  0  0  0 
 20 23  1  0  0  0  0 
 23 24  1  0  0  0  0 
 24 25  1  0  0  0  0 
 25 26  1  0  0  0  0 
 25 27  2  0  0  0  0 
 26 28  1  0  0  0  0 
 26 29  1  0  0  0  0 
 27 30  1  0  0  0  0 
 28 31  1  0  0  0  0 
 29 30  2  0  0  0  0 
 31 32  1  0  0  0  0 
  1 34  1  0  0  0  0 
  4 35  1  0  0  0  0 
  4 36  1  0  0  0  0 
 10 37  1  0  0  0  0 
 10 38  1  0  0  0  0 
 10 39  1  0  0  0  0 
 14 40  1  0  0  0  0 
 16 41  1  0  0  0  0 
 16 42  1  0  0  0  0 
 21 43  1  0  0  0  0 
 23 44  1  0  0  0  0 
 23 45  1  0  0  0  0 
 28 46  1  0  0  0  0 
 28 47  1  0  0  0  0 
 31 48  1  0  0  0  0 
 31 49  1  0  0  0  0 
 32 50  1  0  0  0  0 
M  END
> <cdk:Title>
flomoxef

> <Conformer>
1

> <SuperDrugID>
SD001055

$$$$
