metamfepramone
  CDK     0628171801

 28 28  0  0  0  0  0  0  0  0999 V2000
    0.1978   -0.7913    0.6703 C   0  0  0  0  0  0  0  0  0  0  0  0
    0.2802    0.6844    0.9337 C   0  0  2  0  0  0  0  0  0  0  0  0
   -0.3271   -1.4604    1.5942 O   0  0  0  0  0  0  0  0  0  0  0  0
    0.6459   -1.4739   -0.5138 C   0  0  0  0  0  0  0  0  0  0  0  0
   -0.4054    1.4950   -0.1437 N   0  0  2  0  0  0  0  0  0  0  0  0
    1.2464   -0.8003   -1.6106 C   0  0  0  0  0  0  0  0  0  0  0  0
    0.5013   -2.8837   -0.6296 C   0  0  0  0  0  0  0  0  0  0  0  0
    1.7067   -1.4984   -2.7444 C   0  0  0  0  0  0  0  0  0  0  0  0
    0.9542   -3.5845   -1.7629 C   0  0  0  0  0  0  0  0  0  0  0  0
    1.5629   -2.8915   -2.8205 C   0  0  0  0  0  0  0  0  0  0  0  0
    1.7605    1.0549    1.2551 C   0  0  0  0  0  0  0  0  0  0  0  0
   -0.1861    2.9712   -0.0599 C   0  0  0  0  0  0  0  0  0  0  0  0
   -1.8684    1.1940   -0.2731 C   0  0  0  0  0  0  0  0  0  0  0  0
   -0.2571    0.9045    1.8641 H   0  0  0  0  0  0  0  0  0  0  0  0
    1.3603    0.2132   -1.6113 H   0  0  0  0  0  0  0  0  0  0  0  0
    0.0629   -3.4276    0.1171 H   0  0  0  0  0  0  0  0  0  0  0  0
    2.1432   -0.9910   -3.5186 H   0  0  0  0  0  0  0  0  0  0  0  0
    0.8446   -4.5990   -1.8151 H   0  0  0  0  0  0  0  0  0  0  0  0
    1.8954   -3.3995   -3.6417 H   0  0  0  0  0  0  0  0  0  0  0  0
    2.3979    0.9877    0.3743 H   0  0  0  0  0  0  0  0  0  0  0  0
    1.8291    2.0705    1.6493 H   0  0  0  0  0  0  0  0  0  0  0  0
    2.1596    0.3888    2.0224 H   0  0  0  0  0  0  0  0  0  0  0  0
    0.8685    3.2076   -0.1919 H   0  0  0  0  0  0  0  0  0  0  0  0
   -0.7212    3.4960   -0.8535 H   0  0  0  0  0  0  0  0  0  0  0  0
   -0.5223    3.3617    0.9035 H   0  0  0  0  0  0  0  0  0  0  0  0
   -2.0334    0.1374   -0.4859 H   0  0  0  0  0  0  0  0  0  0  0  0
   -2.3101    1.7516   -1.1020 H   0  0  0  0  0  0  0  0  0  0  0  0
   -2.4061    1.4516    0.6443 H   0  0  0  0  0  0  0  0  0  0  0  0
  2  1  1  0  0  0  0 
  1  3  2  0  0  0  0 
  1  4  1  0  0  0  0 
  2  5  1  0  0  0  0 
  4  6  2  0  0  0  0 
  4  7  1  0  0  0  0 
  6  8  1  0  0  0  0 
  7  9  2  0  0  0  0 
  8 10  2  0  0  0  0 
  9 10  1  0  0  0  0 
  2 11  1  0  0  0  0 
  5 12  1  0  0  0  0 
  5 13  1  0  0  0  0 
 14  2  1  0  0  0  0 
 15  6  1  0  0  0  0 
 16  7  1  0  0  0  0 
 17  8  1  0  0  0  0 
 18  9  1  0  0  0  0 
 19 10  1  0  0  0  0 
 20 11  1  0  0  0  0 
 21 11  1  0  0  0  0 
 22 11  1  0  0  0  0 
 23 12  1  0  0  0  0 
 24 12  1  0  0  0  0 
 25 12  1  0  0  0  0 
 26 13  1  0  0  0  0 
 27 13  1  0  0  0  0 
 28 13  1  0  0  0  0 
M  END
> <cdk:Title>
metamfepramone

> <Conformer>
1

> <SuperDrugID>
SD003221

$$$$
