nifurzide
  CDK     0628171801

 31 32  0  0  0  0  0  0  0  0999 V2000
    0.8189    0.1452   -0.0306 C   0  0  0  0  0  0  0  0  0  0  0  0
   -0.4649   -0.0058    0.3833 N   0  0  0  0  0  0  0  0  0  0  0  0
    1.4187   -0.7972   -0.5988 O   0  0  0  0  0  0  0  0  0  0  0  0
    1.5075    1.3530    0.1675 C   0  0  0  0  0  0  0  0  0  0  0  0
   -1.1425   -1.0575    0.1572 N   0  0  0  0  0  0  0  0  0  0  0  0
    3.2464    1.5732    0.1064 S   0  0  0  0  0  0  0  0  0  0  0  0
    0.9654    2.6185    0.4203 C   0  0  0  0  0  0  0  0  0  0  0  0
   -2.0334   -1.1437   -0.7636 C   0  0  0  0  0  0  0  0  0  0  0  0
    3.2436    3.3045    0.4040 C   0  0  0  0  0  0  0  0  0  0  0  0
    1.8944    3.6667    0.5384 C   0  0  0  0  0  0  0  0  0  0  0  0
   -2.6649   -2.3129   -1.0121 C   0  0  0  0  0  0  0  0  0  0  0  0
    4.3119    4.0872    0.4758 N   0  0  0  0  0  0  0  0  0  0  0  0
   -3.9265   -2.3883   -1.4740 C   0  0  0  0  0  0  0  0  0  0  0  0
    4.2120    5.3432    0.6301 O   0  0  0  0  0  0  0  0  0  0  0  0
    5.3884    3.6425    0.3995 O   0  0  0  0  0  0  0  0  0  0  0  0
   -4.5233   -3.5843   -1.8357 C   0  0  0  0  0  0  0  0  0  0  0  0
   -3.8975   -4.7870   -1.9142 O   0  0  0  0  0  0  0  0  0  0  0  0
   -5.8456   -3.7629   -2.2377 C   0  0  0  0  0  0  0  0  0  0  0  0
   -4.7675   -5.7213   -2.3773 C   0  0  0  0  0  0  0  0  0  0  0  0
   -5.9966   -5.0970   -2.5831 C   0  0  0  0  0  0  0  0  0  0  0  0
   -4.4643   -6.9897   -2.6063 N   0  0  0  0  0  0  0  0  0  0  0  0
   -5.3088   -7.8093   -3.0846 O   0  0  0  0  0  0  0  0  0  0  0  0
   -3.3923   -7.3916   -2.3822 O   0  0  0  0  0  0  0  0  0  0  0  0
   -0.8776    0.7180    0.8780 H   0  0  0  0  0  0  0  0  0  0  0  0
   -0.0398    2.7802    0.4966 H   0  0  0  0  0  0  0  0  0  0  0  0
   -2.2474   -0.3472   -1.3235 H   0  0  0  0  0  0  0  0  0  0  0  0
    1.5951    4.6293    0.7072 H   0  0  0  0  0  0  0  0  0  0  0  0
   -2.1511   -3.1529   -0.8638 H   0  0  0  0  0  0  0  0  0  0  0  0
   -4.4578   -1.5517   -1.5840 H   0  0  0  0  0  0  0  0  0  0  0  0
   -6.5718   -3.0455   -2.2856 H   0  0  0  0  0  0  0  0  0  0  0  0
   -6.8518   -5.5352   -2.9317 H   0  0  0  0  0  0  0  0  0  0  0  0
  1  2  1  0  0  0  0 
  1  3  2  0  0  0  0 
  1  4  1  0  0  0  0 
  2  5  1  0  0  0  0 
  4  6  1  0  0  0  0 
  4  7  2  0  0  0  0 
  5  8  2  0  0  0  0 
  6  9  1  0  0  0  0 
  7 10  1  0  0  0  0 
  8 11  1  0  0  0  0 
  9 10  2  0  0  0  0 
  9 12  1  0  0  0  0 
 11 13  2  0  0  0  0 
 12 14  1  0  0  0  0 
 12 15  2  0  0  0  0 
 13 16  1  0  0  0  0 
 16 17  1  0  0  0  0 
 16 18  2  0  0  0  0 
 17 19  1  0  0  0  0 
 18 20  1  0  0  0  0 
 19 20  2  0  0  0  0 
 19 21  1  0  0  0  0 
 21 22  1  0  0  0  0 
 21 23  2  0  0  0  0 
  2 24  1  0  0  0  0 
  7 25  1  0  0  0  0 
  8 26  1  0  0  0  0 
 10 27  1  0  0  0  0 
 11 28  1  0  0  0  0 
 13 29  1  0  0  0  0 
 18 30  1  0  0  0  0 
 20 31  1  0  0  0  0 
M  CHG  1  12   1
M  CHG  1  14  -1
M  CHG  1  21   1
M  CHG  1  22  -1
M  END
> <cdk:Title>
nifurzide

> <Conformer>
1

> <SuperDrugID>
SD001726

$$$$
