metampicillin
  CDK     0628171801

 44 46  0  0  0  0  0  0  0  0999 V2000
   -2.3315    4.2472    4.1590 C   0  0  0  0  0  0  0  0  0  0  0  0
   -2.8085    4.3093    5.4243 O   0  0  0  0  0  0  0  0  0  0  0  0
   -1.2830    3.5918    3.9613 O   0  0  0  0  0  0  0  0  0  0  0  0
   -3.0535    4.9263    3.0531 C   0  0  2  0  0  0  0  0  0  0  0  0
   -3.3412    3.9842    2.0278 N   0  0  0  0  0  0  0  0  0  0  0  0
   -2.3035    6.0637    2.2561 C   0  0  2  0  0  0  0  0  0  0  0  0
   -2.4687    3.5930    0.9919 C   0  0  2  0  0  0  0  0  0  0  0  0
   -4.4477    3.4806    1.4915 C   0  0  0  0  0  0  0  0  0  0  0  0
   -1.7697    5.2484    0.6912 S   0  0  0  0  0  0  0  0  0  0  0  0
   -3.7466    3.0139    0.2984 C   0  0  1  0  0  0  0  0  0  0  0  0
   -5.6547    3.5068    1.8197 O   0  0  0  0  0  0  0  0  0  0  0  0
   -4.1550    3.6786   -0.8964 N   0  0  0  0  0  0  0  0  0  0  0  0
   -4.7874    3.0937   -1.9533 C   0  0  0  0  0  0  0  0  0  0  0  0
   -5.0654    3.9239   -3.1529 C   0  0  2  0  0  0  0  0  0  0  0  0
   -5.1099    1.8812   -1.9245 O   0  0  0  0  0  0  0  0  0  0  0  0
   -5.7803    3.2284   -4.1404 N   0  0  0  0  0  0  0  0  0  0  0  0
   -3.7705    4.4444   -3.6937 C   0  0  0  0  0  0  0  0  0  0  0  0
   -6.3107    3.7153   -5.2037 C   0  0  0  0  0  0  0  0  0  0  0  0
   -2.7861    3.5555   -4.1931 C   0  0  0  0  0  0  0  0  0  0  0  0
   -3.4918    5.8320   -3.7022 C   0  0  0  0  0  0  0  0  0  0  0  0
   -1.5587    4.0387   -4.6807 C   0  0  0  0  0  0  0  0  0  0  0  0
   -2.2649    6.3165   -4.1929 C   0  0  0  0  0  0  0  0  0  0  0  0
   -1.2970    5.4201   -4.6803 C   0  0  0  0  0  0  0  0  0  0  0  0
   -1.7326    2.8555    1.3219 H   0  0  0  0  0  0  0  0  0  0  0  0
   -1.0786    6.6859    2.9912 C   0  0  0  0  0  0  0  0  0  0  0  0
   -3.2872    7.2039    1.8476 C   0  0  0  0  0  0  0  0  0  0  0  0
   -2.3474    3.8428    6.1530 H   0  0  0  0  0  0  0  0  0  0  0  0
   -3.9905    5.3113    3.4693 H   0  0  0  0  0  0  0  0  0  0  0  0
   -3.7367    1.9213    0.2380 H   0  0  0  0  0  0  0  0  0  0  0  0
   -3.9584    4.6257   -0.9685 H   0  0  0  0  0  0  0  0  0  0  0  0
   -5.7033    4.7447   -2.8049 H   0  0  0  0  0  0  0  0  0  0  0  0
   -6.7868    3.1103   -5.8252 H   0  0  0  0  0  0  0  0  0  0  0  0
   -6.2604    4.6833   -5.4181 H   0  0  0  0  0  0  0  0  0  0  0  0
   -2.9595    2.5476   -4.1983 H   0  0  0  0  0  0  0  0  0  0  0  0
   -4.1815    6.4985   -3.3481 H   0  0  0  0  0  0  0  0  0  0  0  0
   -0.8559    3.3866   -5.0358 H   0  0  0  0  0  0  0  0  0  0  0  0
   -2.0740    7.3210   -4.1959 H   0  0  0  0  0  0  0  0  0  0  0  0
   -0.4041    5.7723   -5.0358 H   0  0  0  0  0  0  0  0  0  0  0  0
   -0.3079    5.9382    3.1838 H   0  0  0  0  0  0  0  0  0  0  0  0
   -1.3900    7.1156    3.9450 H   0  0  0  0  0  0  0  0  0  0  0  0
   -0.6276    7.4757    2.3889 H   0  0  0  0  0  0  0  0  0  0  0  0
   -4.1635    6.7993    1.3377 H   0  0  0  0  0  0  0  0  0  0  0  0
   -3.6292    7.7495    2.7297 H   0  0  0  0  0  0  0  0  0  0  0  0
   -2.8050    7.9166    1.1764 H   0  0  0  0  0  0  0  0  0  0  0  0
  1  2  1  0  0  0  0 
  1  3  2  0  0  0  0 
  4  1  1  0  0  0  0 
  4  5  1  0  0  0  0 
  4  6  1  0  0  0  0 
  7  5  1  0  0  0  0 
  5  8  1  0  0  0  0 
  6  9  1  0  0  0  0 
  7  9  1  0  0  0  0 
 10  7  1  0  0  0  0 
  7 24  1  0  0  0  0 
 10  8  1  0  0  0  0 
  8 11  2  0  0  0  0 
 10 12  1  0  0  0  0 
 12 13  1  0  0  0  0 
 14 13  1  0  0  0  0 
 13 15  2  0  0  0  0 
 14 16  1  0  0  0  0 
 14 17  1  0  0  0  0 
 16 18  2  0  0  0  0 
 17 19  2  0  0  0  0 
 17 20  1  0  0  0  0 
 19 21  1  0  0  0  0 
 20 22  2  0  0  0  0 
 21 23  2  0  0  0  0 
 22 23  1  0  0  0  0 
  6 25  1  0  0  0  0 
  6 26  1  0  0  0  0 
  2 27  1  0  0  0  0 
  4 28  1  0  0  0  0 
 10 29  1  0  0  0  0 
 12 30  1  0  0  0  0 
 14 31  1  0  0  0  0 
 18 32  1  0  0  0  0 
 18 33  1  0  0  0  0 
 19 34  1  0  0  0  0 
 20 35  1  0  0  0  0 
 21 36  1  0  0  0  0 
 22 37  1  0  0  0  0 
 23 38  1  0  0  0  0 
 25 39  1  0  0  0  0 
 25 40  1  0  0  0  0 
 25 41  1  0  0  0  0 
 26 42  1  0  0  0  0 
 26 43  1  0  0  0  0 
 26 44  1  0  0  0  0 
M  END
> <cdk:Title>
metampicillin

> <Conformer>
1

> <SuperDrugID>
SD001519

$$$$
