laquinimod
  CDK     0628171802

 42 44  0  0  0  0  0  0  0  0999 V2000
   -4.1050   -3.2481    2.1262 C   0  0  0  0  0  0  0  0  0  0  0  0
   -5.0182   -2.7388    3.0555 C   0  0  0  0  0  0  0  0  0  0  0  0
   -5.0879   -1.3627    3.2737 C   0  0  0  0  0  0  0  0  0  0  0  0
   -4.2403   -0.4847    2.5732 C   0  0  0  0  0  0  0  0  0  0  0  0
   -3.2761   -0.9969    1.6478 C   0  0  0  0  0  0  0  0  0  0  0  0
   -3.2226   -2.4081    1.3867 C   0  0  0  0  0  0  0  0  0  0  0  0
   -2.3444   -2.9229    0.4410 N   0  0  0  0  0  0  0  0  0  0  0  0
   -2.3552   -0.1684    0.9544 C   0  0  0  0  0  0  0  0  0  0  0  0
   -1.4779   -0.6970   -0.0145 C   0  0  0  0  0  0  0  0  0  0  0  0
   -1.5061   -2.0852   -0.2602 C   0  0  0  0  0  0  0  0  0  0  0  0
   -0.5945    0.1658   -0.7281 C   0  0  0  0  0  0  0  0  0  0  0  0
   -2.2555    1.1650    1.2029 O   0  0  0  0  0  0  0  0  0  0  0  0
   -4.5099    1.1607    2.9159 Cl  0  0  0  0  0  0  0  0  0  0  0  0
   -2.2958   -4.3560    0.1717 C   0  0  0  0  0  0  0  0  0  0  0  0
   -0.7375   -2.5258   -1.1515 O   0  0  0  0  0  0  0  0  0  0  0  0
    0.7870    0.1808   -0.5834 N   0  0  0  0  0  0  0  0  0  0  0  0
   -1.1616    0.9570   -1.5194 O   0  0  0  0  0  0  0  0  0  0  0  0
    1.4239   -0.7075    0.2494 C   0  0  0  0  0  0  0  0  0  0  0  0
    1.6086    1.1714   -1.2549 C   0  0  2  0  0  0  0  0  0  0  0  0
    1.4005    2.5892   -0.6670 C   0  0  0  0  0  0  0  0  0  0  0  0
    2.1945   -1.7656   -0.2841 C   0  0  0  0  0  0  0  0  0  0  0  0
    1.3315   -0.5578    1.6510 C   0  0  0  0  0  0  0  0  0  0  0  0
    1.9973   -1.4539    2.5059 C   0  0  0  0  0  0  0  0  0  0  0  0
    2.7561   -2.5090    1.9673 C   0  0  0  0  0  0  0  0  0  0  0  0
    2.8479   -2.6688    0.5730 C   0  0  0  0  0  0  0  0  0  0  0  0
   -4.1097   -4.2611    2.0076 H   0  0  0  0  0  0  0  0  0  0  0  0
   -5.6405   -3.3692    3.5683 H   0  0  0  0  0  0  0  0  0  0  0  0
   -5.7722   -1.0112    3.9482 H   0  0  0  0  0  0  0  0  0  0  0  0
   -2.1424    1.2352    2.1742 H   0  0  0  0  0  0  0  0  0  0  0  0
   -3.2777   -4.7094   -0.1530 H   0  0  0  0  0  0  0  0  0  0  0  0
   -1.5906   -4.6562   -0.6043 H   0  0  0  0  0  0  0  0  0  0  0  0
   -2.0023   -4.8877    1.0799 H   0  0  0  0  0  0  0  0  0  0  0  0
    1.3911    1.1767   -2.3261 H   0  0  0  0  0  0  0  0  0  0  0  0
    2.6749    0.9376   -1.1638 H   0  0  0  0  0  0  0  0  0  0  0  0
    2.1548    3.2698   -1.0659 H   0  0  0  0  0  0  0  0  0  0  0  0
    0.4151    2.9802   -0.9210 H   0  0  0  0  0  0  0  0  0  0  0  0
    1.4955    2.5658    0.4203 H   0  0  0  0  0  0  0  0  0  0  0  0
    2.2774   -1.8829   -1.2976 H   0  0  0  0  0  0  0  0  0  0  0  0
    0.7875    0.2089    2.0527 H   0  0  0  0  0  0  0  0  0  0  0  0
    1.9352   -1.3316    3.5193 H   0  0  0  0  0  0  0  0  0  0  0  0
    3.2465   -3.1557    2.5884 H   0  0  0  0  0  0  0  0  0  0  0  0
    3.3912   -3.4397    0.1807 H   0  0  0  0  0  0  0  0  0  0  0  0
  1  2  1  0  0  0  0 
  2  3  2  0  0  0  0 
  3  4  1  0  0  0  0 
  4  5  2  0  0  0  0 
  5  6  1  0  0  0  0 
  1  6  2  0  0  0  0 
  8  9  2  0  0  0  0 
  9 10  1  0  0  0  0 
  7 10  1  0  0  0  0 
  5  8  1  0  0  0  0 
  7  6  1  0  0  0  0 
  9 11  1  0  0  0  0 
  8 12  1  0  0  0  0 
  4 13  1  0  0  0  0 
  7 14  1  0  0  0  0 
 10 15  2  0  0  0  0 
 11 16  1  0  0  0  0 
 11 17  2  0  0  0  0 
 16 18  1  0  0  0  0 
 16 19  1  0  0  0  0 
 19 20  1  0  0  0  0 
 22 23  2  0  0  0  0 
 23 24  1  0  0  0  0 
 24 25  2  0  0  0  0 
 21 25  1  0  0  0  0 
 21 18  2  0  0  0  0 
 18 22  1  0  0  0  0 
  1 26  1  0  0  0  0 
  2 27  1  0  0  0  0 
  3 28  1  0  0  0  0 
 12 29  1  0  0  0  0 
 14 30  1  0  0  0  0 
 14 31  1  0  0  0  0 
 14 32  1  0  0  0  0 
 19 33  1  0  0  0  0 
 19 34  1  0  0  0  0 
 20 35  1  0  0  0  0 
 20 36  1  0  0  0  0 
 20 37  1  0  0  0  0 
 21 38  1  0  0  0  0 
 22 39  1  0  0  0  0 
 23 40  1  0  0  0  0 
 24 41  1  0  0  0  0 
 25 42  1  0  0  0  0 
M  END
> <cdk:Title>
laquinimod

> <Conformer>
1

> <SuperDrugID>
SD003787

$$$$
