ergometrine
  CDK     0628171801

 47 50  0  0  0  0  0  0  0  0999 V2000
    1.1256   -0.1264    0.0421 C   0  0  0  0  0  0  0  0  0  0  0  0
   -0.3697   -0.2241    0.1039 N   0  0  2  0  0  0  0  0  0  0  0  0
   -1.0474    0.2730    1.3605 C   0  0  1  0  0  0  0  0  0  0  0  0
   -0.8632   -1.5980   -0.2258 C   0  0  1  0  0  0  0  0  0  0  0  0
   -0.8303   -0.6359    2.5298 C   0  0  0  0  0  0  0  0  0  0  0  0
   -0.8882    1.8363    1.5656 C   0  0  1  0  0  0  0  0  0  0  0  0
   -0.6287   -2.5854    0.9630 C   0  0  1  0  0  0  0  0  0  0  0  0
   -0.7556   -0.1070    3.8444 C   0  0  0  0  0  0  0  0  0  0  0  0
   -0.6923   -1.9631    2.2875 C   0  0  0  0  0  0  0  0  0  0  0  0
   -0.6559    2.2184    2.9653 C   0  0  0  0  0  0  0  0  0  0  0  0
   -1.5059   -3.7816    0.8632 C   0  0  0  0  0  0  0  0  0  0  0  0
   -0.6257    1.2849    3.9755 C   0  0  0  0  0  0  0  0  0  0  0  0
   -0.7660   -0.8204    5.0797 C   0  0  0  0  0  0  0  0  0  0  0  0
   -0.4523    3.4573    3.5765 C   0  0  0  0  0  0  0  0  0  0  0  0
   -2.8631   -3.6488    0.8796 N   0  0  0  0  0  0  0  0  0  0  0  0
   -0.9735   -4.9126    0.7536 O   0  0  0  0  0  0  0  0  0  0  0  0
   -0.4396    1.9550    5.1775 C   0  0  0  0  0  0  0  0  0  0  0  0
   -0.5866   -0.1638    6.3235 C   0  0  0  0  0  0  0  0  0  0  0  0
   -0.3216    3.2676    4.9082 N   0  0  0  0  0  0  0  0  0  0  0  0
   -3.8085   -4.7090    0.6743 C   0  0  2  0  0  0  0  0  0  0  0  0
   -0.4087    1.2349    6.3809 C   0  0  0  0  0  0  0  0  0  0  0  0
   -5.0325   -4.1561   -0.0991 C   0  0  2  0  0  0  0  0  0  0  0  0
   -4.2116   -5.3368    2.0312 C   0  0  0  0  0  0  0  0  0  0  0  0
   -4.6608   -3.7469   -1.4142 O   0  0  0  0  0  0  0  0  0  0  0  0
   -2.1232    0.1731    1.1767 H   0  0  0  0  0  0  0  0  0  0  0  0
    1.6063   -0.7589    0.7902 H   0  0  0  0  0  0  0  0  0  0  0  0
    1.4762    0.8920    0.1885 H   0  0  0  0  0  0  0  0  0  0  0  0
    1.4752   -0.4339   -0.9456 H   0  0  0  0  0  0  0  0  0  0  0  0
   -1.9284   -1.5228   -0.4648 H   0  0  0  0  0  0  0  0  0  0  0  0
   -0.3851   -1.9861   -1.1318 H   0  0  0  0  0  0  0  0  0  0  0  0
   -0.0761    2.2433    0.9702 H   0  0  0  0  0  0  0  0  0  0  0  0
   -1.7968    2.3480    1.2339 H   0  0  0  0  0  0  0  0  0  0  0  0
    0.4080   -2.9298    0.8751 H   0  0  0  0  0  0  0  0  0  0  0  0
   -0.5613   -2.5871    3.0471 H   0  0  0  0  0  0  0  0  0  0  0  0
   -0.9072   -1.8297    5.1059 H   0  0  0  0  0  0  0  0  0  0  0  0
   -0.4145    4.3594    3.0962 H   0  0  0  0  0  0  0  0  0  0  0  0
   -3.2182   -2.7570    1.0223 H   0  0  0  0  0  0  0  0  0  0  0  0
   -0.5826   -0.7083    7.1890 H   0  0  0  0  0  0  0  0  0  0  0  0
   -0.1731    3.9675    5.5661 H   0  0  0  0  0  0  0  0  0  0  0  0
   -3.3674   -5.5007    0.0607 H   0  0  0  0  0  0  0  0  0  0  0  0
   -0.2659    1.7140    7.2706 H   0  0  0  0  0  0  0  0  0  0  0  0
   -5.4569   -3.2951    0.4221 H   0  0  0  0  0  0  0  0  0  0  0  0
   -5.8057   -4.9241   -0.1880 H   0  0  0  0  0  0  0  0  0  0  0  0
   -4.8914   -6.1755    1.8683 H   0  0  0  0  0  0  0  0  0  0  0  0
   -4.7054   -4.6018    2.6689 H   0  0  0  0  0  0  0  0  0  0  0  0
   -3.3282   -5.7137    2.5506 H   0  0  0  0  0  0  0  0  0  0  0  0
   -5.4826   -3.3783   -1.8047 H   0  0  0  0  0  0  0  0  0  0  0  0
  1  2  1  0  0  0  0 
  3  2  1  0  0  0  0 
  2  4  1  0  0  0  0 
  3  5  1  0  0  0  0 
  3  6  1  0  0  0  0 
  3 25  1  0  0  0  0 
  7  4  1  0  0  0  0 
  5  8  1  0  0  0  0 
  5  9  2  0  0  0  0 
  6 10  1  0  0  0  0 
  7  9  1  0  0  0  0 
  7 11  1  0  0  0  0 
  8 12  2  0  0  0  0 
  8 13  1  0  0  0  0 
 10 12  1  0  0  0  0 
 10 14  2  0  0  0  0 
 11 15  1  0  0  0  0 
 11 16  2  0  0  0  0 
 12 17  1  0  0  0  0 
 13 18  2  0  0  0  0 
 14 19  1  0  0  0  0 
 20 15  1  0  0  0  0 
 17 19  1  0  0  0  0 
 17 21  2  0  0  0  0 
 18 21  1  0  0  0  0 
 20 22  1  0  0  0  0 
 20 23  1  0  0  0  0 
 22 24  1  0  0  0  0 
  1 26  1  0  0  0  0 
  1 27  1  0  0  0  0 
  1 28  1  0  0  0  0 
  4 29  1  0  0  0  0 
  4 30  1  0  0  0  0 
  6 31  1  0  0  0  0 
  6 32  1  0  0  0  0 
  7 33  1  0  0  0  0 
  9 34  1  0  0  0  0 
 13 35  1  0  0  0  0 
 14 36  1  0  0  0  0 
 15 37  1  0  0  0  0 
 18 38  1  0  0  0  0 
 19 39  1  0  0  0  0 
 20 40  1  0  0  0  0 
 21 41  1  0  0  0  0 
 22 42  1  0  0  0  0 
 22 43  1  0  0  0  0 
 23 44  1  0  0  0  0 
 23 45  1  0  0  0  0 
 23 46  1  0  0  0  0 
 24 47  1  0  0  0  0 
M  END
> <cdk:Title>
ergometrine

> <Conformer>
1

> <SuperDrugID>
SD000928

$$$$
