leucine
  CDK     0628171801

 22 21  0  0  0  0  0  0  0  0999 V2000
    2.8183    0.3614   -2.2540 C   0  0  0  0  0  0  0  0  0  0  0  0
    1.5595   -0.4396   -2.6941 C   0  0  1  0  0  0  0  0  0  0  0  0
    1.9766   -1.6888   -3.5214 C   0  0  0  0  0  0  0  0  0  0  0  0
    0.6318   -0.8408   -1.4965 C   0  0  2  0  0  0  0  0  0  0  0  0
    0.0169    0.3358   -0.6794 C   0  0  2  0  0  0  0  0  0  0  0  0
   -0.8357   -0.1834    0.4013 N   0  0  1  0  0  0  0  0  0  0  0  0
   -0.7860    1.2565   -1.5111 C   0  0  0  0  0  0  0  0  0  0  0  0
   -0.3603    2.5225   -1.7347 O   0  0  0  0  0  0  0  0  0  0  0  0
   -1.8609    0.8851   -2.0362 O   0  0  0  0  0  0  0  0  0  0  0  0
    2.5343    1.3143   -1.8064 H   0  0  0  0  0  0  0  0  0  0  0  0
    3.4522    0.5802   -3.1153 H   0  0  0  0  0  0  0  0  0  0  0  0
    3.4059   -0.2043   -1.5287 H   0  0  0  0  0  0  0  0  0  0  0  0
    0.9860    0.2004   -3.3702 H   0  0  0  0  0  0  0  0  0  0  0  0
    1.0933   -2.2130   -3.8913 H   0  0  0  0  0  0  0  0  0  0  0  0
    2.5726   -1.3909   -4.3863 H   0  0  0  0  0  0  0  0  0  0  0  0
    2.5650   -2.3810   -2.9149 H   0  0  0  0  0  0  0  0  0  0  0  0
    1.1985   -1.4763   -0.8082 H   0  0  0  0  0  0  0  0  0  0  0  0
   -0.1950   -1.4457   -1.8830 H   0  0  0  0  0  0  0  0  0  0  0  0
    0.8233    0.8946   -0.1983 H   0  0  0  0  0  0  0  0  0  0  0  0
   -0.2449   -0.7642    0.9995 H   0  0  0  0  0  0  0  0  0  0  0  0
   -1.1296    0.6186    0.9638 H   0  0  0  0  0  0  0  0  0  0  0  0
   -0.8817    3.1309   -2.2988 H   0  0  0  0  0  0  0  0  0  0  0  0
  1  2  1  0  0  0  0 
  2  3  1  0  0  0  0 
  2  4  1  0  0  0  0 
  4  5  1  0  0  0  0 
  5  6  1  0  0  0  0 
  5  7  1  0  0  0  0 
  7  8  1  0  0  0  0 
  7  9  2  0  0  0  0 
  1 10  1  0  0  0  0 
  1 11  1  0  0  0  0 
  1 12  1  0  0  0  0 
  2 13  1  0  0  0  0 
  3 14  1  0  0  0  0 
  3 15  1  0  0  0  0 
  3 16  1  0  0  0  0 
  4 17  1  0  0  0  0 
  4 18  1  0  0  0  0 
  5 19  1  0  0  0  0 
  6 20  1  0  0  0  0 
  6 21  1  0  0  0  0 
  8 22  1  0  0  0  0 
M  END
> <cdk:Title>
leucine

> <Conformer>
1

> <SuperDrugID>
SD001375

$$$$
