oxazepam
  CDK     0628171801

 31 33  0  0  0  0  0  0  0  0999 V2000
    2.5103    4.6870    4.0468 Cl  0  0  0  0  0  0  0  0  0  0  0  0
    3.5162    4.0903    2.8224 C   0  0  0  0  0  0  0  0  0  0  0  0
    3.1656    2.9194    2.1287 C   0  0  0  0  0  0  0  0  0  0  0  0
    4.6970    4.7690    2.4826 C   0  0  0  0  0  0  0  0  0  0  0  0
    3.9606    2.4159    1.0627 C   0  0  0  0  0  0  0  0  0  0  0  0
    5.5143    4.2807    1.4515 C   0  0  0  0  0  0  0  0  0  0  0  0
    3.5204    1.2800    0.3522 C   0  0  0  0  0  0  0  0  0  0  0  0
    5.1654    3.1126    0.7387 C   0  0  0  0  0  0  0  0  0  0  0  0
    4.2949    0.3989   -0.1817 N   0  0  0  0  0  0  0  0  0  0  0  0
    2.1677    1.0288    0.1657 C   0  0  0  0  0  0  0  0  0  0  0  0
    6.0373    2.7706   -0.2564 N   0  0  0  0  0  0  0  0  0  0  0  0
    5.6807    0.3117   -0.1778 C   0  0  1  0  0  0  0  0  0  0  0  0
    1.5443   -0.0441    0.8465 C   0  0  0  0  0  0  0  0  0  0  0  0
    1.3873    1.8624   -0.6712 C   0  0  0  0  0  0  0  0  0  0  0  0
    6.2889    1.5314   -0.7436 C   0  0  0  0  0  0  0  0  0  0  0  0
    6.1545    0.0984    1.1501 O   0  0  0  0  0  0  0  0  0  0  0  0
    0.1638   -0.2723    0.7022 C   0  0  0  0  0  0  0  0  0  0  0  0
    0.0071    1.6269   -0.8209 C   0  0  0  0  0  0  0  0  0  0  0  0
    7.0917    1.4437   -1.7003 O   0  0  0  0  0  0  0  0  0  0  0  0
   -0.6032    0.5613   -0.1328 C   0  0  0  0  0  0  0  0  0  0  0  0
    2.3093    2.4333    2.4113 H   0  0  0  0  0  0  0  0  0  0  0  0
    4.9655    5.6230    2.9775 H   0  0  0  0  0  0  0  0  0  0  0  0
    6.3740    4.7898    1.2255 H   0  0  0  0  0  0  0  0  0  0  0  0
    6.5567    3.4931   -0.6411 H   0  0  0  0  0  0  0  0  0  0  0  0
    5.9640   -0.5613   -0.7726 H   0  0  0  0  0  0  0  0  0  0  0  0
    2.0881   -0.6554    1.4621 H   0  0  0  0  0  0  0  0  0  0  0  0
    1.8152    2.6446   -1.1744 H   0  0  0  0  0  0  0  0  0  0  0  0
    7.1259   -0.0051    1.0558 H   0  0  0  0  0  0  0  0  0  0  0  0
   -0.2812   -1.0414    1.2094 H   0  0  0  0  0  0  0  0  0  0  0  0
   -0.5553    2.2315   -1.4257 H   0  0  0  0  0  0  0  0  0  0  0  0
   -1.6068    0.3933   -0.2355 H   0  0  0  0  0  0  0  0  0  0  0  0
  1  2  1  0  0  0  0 
  2  3  2  0  0  0  0 
  2  4  1  0  0  0  0 
  3  5  1  0  0  0  0 
  4  6  2  0  0  0  0 
  5  7  1  0  0  0  0 
  5  8  2  0  0  0  0 
  6  8  1  0  0  0  0 
  7  9  2  0  0  0  0 
  7 10  1  0  0  0  0 
  8 11  1  0  0  0  0 
 12  9  1  0  0  0  0 
 10 13  2  0  0  0  0 
 10 14  1  0  0  0  0 
 11 15  1  0  0  0  0 
 12 15  1  0  0  0  0 
 12 16  1  0  0  0  0 
 13 17  1  0  0  0  0 
 14 18  2  0  0  0  0 
 15 19  2  0  0  0  0 
 17 20  2  0  0  0  0 
 18 20  1  0  0  0  0 
  3 21  1  0  0  0  0 
  4 22  1  0  0  0  0 
  6 23  1  0  0  0  0 
 11 24  1  0  0  0  0 
 12 25  1  0  0  0  0 
 13 26  1  0  0  0  0 
 14 27  1  0  0  0  0 
 16 28  1  0  0  0  0 
 17 29  1  0  0  0  0 
 18 30  1  0  0  0  0 
 20 31  1  0  0  0  0 
M  END
> <cdk:Title>
oxazepam

> <Conformer>
1

> <SuperDrugID>
SD001803

$$$$
