acetohydroxamic acid
  CDK     0628171802

 10  9  0  0  0  0  0  0  0  0999 V2000
    2.1561    0.9088    0.0973 C   0  0  0  0  0  0  0  0  0  0  0  0
    1.1309   -0.0575    0.5182 C   0  0  0  0  0  0  0  0  0  0  0  0
    1.1088   -0.4697    1.7019 O   0  0  0  0  0  0  0  0  0  0  0  0
    0.2106   -0.4831   -0.3779 N   0  0  0  0  0  0  0  0  0  0  0  0
   -0.7358   -1.3227   -0.0575 O   0  0  0  0  0  0  0  0  0  0  0  0
    1.6723    1.8279   -0.2367 H   0  0  0  0  0  0  0  0  0  0  0  0
    2.8316    1.1519    0.9209 H   0  0  0  0  0  0  0  0  0  0  0  0
    2.7442    0.4956   -0.7251 H   0  0  0  0  0  0  0  0  0  0  0  0
    0.2542   -0.1536   -1.2895 H   0  0  0  0  0  0  0  0  0  0  0  0
   -1.4779   -0.7584    0.2439 H   0  0  0  0  0  0  0  0  0  0  0  0
  1  2  1  0  0  0  0 
  2  3  2  0  0  0  0 
  2  4  1  0  0  0  0 
  4  5  1  0  0  0  0 
  1  6  1  0  0  0  0 
  1  7  1  0  0  0  0 
  1  8  1  0  0  0  0 
  4  9  1  0  0  0  0 
  5 10  1  0  0  0  0 
M  END
> <cdk:Title>
acetohydroxamic acid

> <Conformer>
1

> <SuperDrugID>
SD000035

$$$$
