prednisolone acetate
  CDK     0628171801

 59 62  0  0  0  0  0  0  0  0999 V2000
   -2.9068   -1.4125    2.5468 C   0  0  0  0  0  0  0  0  0  0  0  0
   -3.0416   -1.6282    0.9880 C   0  0  2  0  0  0  0  0  0  0  0  0
   -4.3527   -2.3590    0.5499 C   0  0  2  0  0  0  0  0  0  0  0  0
   -1.9538   -2.6804    0.5176 C   0  0  2  0  0  0  0  0  0  0  0  0
   -3.0697   -0.2345    0.2563 C   0  0  2  0  0  0  0  0  0  0  0  0
   -5.6663   -1.6152    0.9611 C   0  0  1  0  0  0  0  0  0  0  0  0
   -4.1568   -3.8182    0.9969 C   0  0  1  0  0  0  0  0  0  0  0  0
   -0.5892   -2.5388    1.1422 C   0  0  0  0  0  0  0  0  0  0  0  0
   -1.7686   -2.6130   -0.9037 O   0  0  0  0  0  0  0  0  0  0  0  0
   -2.6456   -4.0699    0.7926 C   0  0  2  0  0  0  0  0  0  0  0  0
   -4.3732    0.6034    0.5010 C   0  0  1  0  0  0  0  0  0  0  0  0
   -5.7157   -0.1971    0.2660 C   0  0  2  0  0  0  0  0  0  0  0  0
   -6.9266   -2.4587    0.6031 C   0  0  1  0  0  0  0  0  0  0  0  0
    0.4185   -1.5080    0.8034 C   0  0  2  0  0  0  0  0  0  0  0  0
   -0.2338   -3.3151    2.0610 O   0  0  0  0  0  0  0  0  0  0  0  0
   -4.3224    1.1927    1.7983 O   0  0  0  0  0  0  0  0  0  0  0  0
   -7.0933    0.5690    0.5304 C   0  0  2  0  0  0  0  0  0  0  0  0
   -8.2382   -1.6933    0.8819 C   0  0  2  0  0  0  0  0  0  0  0  0
    0.0525   -0.6778   -0.3005 O   0  0  0  0  0  0  0  0  0  0  0  0
   -7.2978    1.0723    2.0062 C   0  0  0  0  0  0  0  0  0  0  0  0
   -8.2122   -0.3847    0.2174 C   0  0  0  0  0  0  0  0  0  0  0  0
   -7.1583    1.7947   -0.3056 C   0  0  0  0  0  0  0  0  0  0  0  0
    0.8090    0.3185   -0.8402 C   0  0  0  0  0  0  0  0  0  0  0  0
   -9.1720   -0.0785   -0.6841 C   0  0  0  0  0  0  0  0  0  0  0  0
   -8.1458    2.0382   -1.1832 C   0  0  0  0  0  0  0  0  0  0  0  0
    0.2456    1.1351   -1.9181 C   0  0  0  0  0  0  0  0  0  0  0  0
    1.9745    0.5496   -0.4410 O   0  0  0  0  0  0  0  0  0  0  0  0
   -9.1621    1.1217   -1.3742 C   0  0  0  0  0  0  0  0  0  0  0  0
  -10.0763    1.3771   -2.1925 O   0  0  0  0  0  0  0  0  0  0  0  0
   -3.7475   -0.8870    2.9867 H   0  0  0  0  0  0  0  0  0  0  0  0
   -2.8176   -2.3595    3.0801 H   0  0  0  0  0  0  0  0  0  0  0  0
   -2.0153   -0.8263    2.7708 H   0  0  0  0  0  0  0  0  0  0  0  0
   -4.3784   -2.4069   -0.5486 H   0  0  0  0  0  0  0  0  0  0  0  0
   -2.9771   -0.3839   -0.8228 H   0  0  0  0  0  0  0  0  0  0  0  0
   -2.2084    0.3629    0.5612 H   0  0  0  0  0  0  0  0  0  0  0  0
   -5.6806   -1.4884    2.0443 H   0  0  0  0  0  0  0  0  0  0  0  0
   -4.4389   -3.9373    2.0475 H   0  0  0  0  0  0  0  0  0  0  0  0
   -4.7561   -4.5057    0.3925 H   0  0  0  0  0  0  0  0  0  0  0  0
   -1.0944   -3.2950   -1.1115 H   0  0  0  0  0  0  0  0  0  0  0  0
   -2.2740   -4.5665    1.6912 H   0  0  0  0  0  0  0  0  0  0  0  0
   -2.4902   -4.7629   -0.0413 H   0  0  0  0  0  0  0  0  0  0  0  0
   -4.3357    1.4361   -0.2066 H   0  0  0  0  0  0  0  0  0  0  0  0
   -5.7144   -0.4018   -0.8129 H   0  0  0  0  0  0  0  0  0  0  0  0
   -6.8965   -2.7465   -0.4529 H   0  0  0  0  0  0  0  0  0  0  0  0
   -6.9384   -3.3744    1.2007 H   0  0  0  0  0  0  0  0  0  0  0  0
    1.3629   -2.0084    0.5714 H   0  0  0  0  0  0  0  0  0  0  0  0
    0.5746   -0.8775    1.6819 H   0  0  0  0  0  0  0  0  0  0  0  0
   -3.4866    1.7070    1.8181 H   0  0  0  0  0  0  0  0  0  0  0  0
   -8.3638   -1.5627    1.9588 H   0  0  0  0  0  0  0  0  0  0  0  0
   -9.0691   -2.3258    0.5506 H   0  0  0  0  0  0  0  0  0  0  0  0
   -6.6571    1.9203    2.2524 H   0  0  0  0  0  0  0  0  0  0  0  0
   -7.0880    0.2896    2.7325 H   0  0  0  0  0  0  0  0  0  0  0  0
   -8.3288    1.4029    2.1633 H   0  0  0  0  0  0  0  0  0  0  0  0
   -6.4531    2.4907   -0.2081 H   0  0  0  0  0  0  0  0  0  0  0  0
   -9.9060   -0.7233   -0.8743 H   0  0  0  0  0  0  0  0  0  0  0  0
   -8.1473    2.8906   -1.6959 H   0  0  0  0  0  0  0  0  0  0  0  0
   -0.7854    0.8434   -2.1231 H   0  0  0  0  0  0  0  0  0  0  0  0
    0.2565    2.1878   -1.6352 H   0  0  0  0  0  0  0  0  0  0  0  0
    0.8370    0.9988   -2.8233 H   0  0  0  0  0  0  0  0  0  0  0  0
  2  1  1  0  0  0  0 
  3  2  1  0  0  0  0 
  2  4  1  0  0  0  0 
  2  5  1  0  0  0  0 
  6  3  1  0  0  0  0 
  3  7  1  0  0  0  0 
  4  8  1  0  0  0  0 
  4  9  1  0  0  0  0 
  4 10  1  0  0  0  0 
 11  5  1  0  0  0  0 
 12  6  1  0  0  0  0 
  6 13  1  0  0  0  0 
  7 10  1  0  0  0  0 
  8 14  1  0  0  0  0 
  8 15  2  0  0  0  0 
 12 11  1  0  0  0  0 
 11 16  1  0  0  0  0 
 12 17  1  0  0  0  0 
 13 18  1  0  0  0  0 
 14 19  1  0  0  0  0 
 17 20  1  0  0  0  0 
 17 21  1  0  0  0  0 
 17 22  1  0  0  0  0 
 18 21  1  0  0  0  0 
 19 23  1  0  0  0  0 
 21 24  2  0  0  0  0 
 22 25  2  0  0  0  0 
 23 26  1  0  0  0  0 
 23 27  2  0  0  0  0 
 24 28  1  0  0  0  0 
 25 28  1  0  0  0  0 
 28 29  2  0  0  0  0 
 30  1  1  0  0  0  0 
 31  1  1  0  0  0  0 
 32  1  1  0  0  0  0 
  3 33  1  0  0  0  0 
 34  5  1  0  0  0  0 
 35  5  1  0  0  0  0 
  6 36  1  0  0  0  0 
 37  7  1  0  0  0  0 
 38  7  1  0  0  0  0 
 39  9  1  0  0  0  0 
 40 10  1  0  0  0  0 
 41 10  1  0  0  0  0 
 11 42  1  0  0  0  0 
 12 43  1  0  0  0  0 
 44 13  1  0  0  0  0 
 45 13  1  0  0  0  0 
 46 14  1  0  0  0  0 
 47 14  1  0  0  0  0 
 48 16  1  0  0  0  0 
 49 18  1  0  0  0  0 
 50 18  1  0  0  0  0 
 51 20  1  0  0  0  0 
 52 20  1  0  0  0  0 
 53 20  1  0  0  0  0 
 54 22  1  0  0  0  0 
 55 24  1  0  0  0  0 
 56 25  1  0  0  0  0 
 57 26  1  0  0  0  0 
 58 26  1  0  0  0  0 
 59 26  1  0  0  0  0 
M  END
> <cdk:Title>
prednisolone acetate

> <Conformer>
1

> <SuperDrugID>
SD002015

$$$$
