tosufloxacin
  CDK     0628171801

 44 47  0  0  0  0  0  0  0  0999 V2000
    5.8345    2.2412    1.1007 O   0  0  0  0  0  0  0  0  0  0  0  0
    5.4562    1.2067    0.4973 C   0  0  0  0  0  0  0  0  0  0  0  0
    4.0722    0.9209    0.4209 C   0  0  0  0  0  0  0  0  0  0  0  0
    6.4043    0.3304   -0.0908 C   0  0  0  0  0  0  0  0  0  0  0  0
    3.6459   -0.2479   -0.2638 C   0  0  0  0  0  0  0  0  0  0  0  0
    3.0903    1.7500    1.0075 C   0  0  0  0  0  0  0  0  0  0  0  0
    7.8155    0.5374   -0.0224 C   0  0  0  0  0  0  0  0  0  0  0  0
    5.9005   -0.8000   -0.7751 C   0  0  0  0  0  0  0  0  0  0  0  0
    4.5602   -1.0686   -0.8776 N   0  0  0  0  0  0  0  0  0  0  0  0
    2.3110   -0.5201   -0.2946 N   0  0  0  0  0  0  0  0  0  0  0  0
    1.7265    1.4140    0.9395 C   0  0  0  0  0  0  0  0  0  0  0  0
    8.6911   -0.3057   -0.6233 O   0  0  0  0  0  0  0  0  0  0  0  0
    8.3275    1.4980    0.5958 O   0  0  0  0  0  0  0  0  0  0  0  0
    4.1748   -2.1708   -1.6186 C   0  0  0  0  0  0  0  0  0  0  0  0
    1.3237    0.2284    0.2715 C   0  0  0  0  0  0  0  0  0  0  0  0
    0.8880    2.2243    1.5234 F   0  0  0  0  0  0  0  0  0  0  0  0
    4.4907   -2.2654   -2.9992 C   0  0  0  0  0  0  0  0  0  0  0  0
    3.4742   -3.2430   -1.0156 C   0  0  0  0  0  0  0  0  0  0  0  0
    0.0139   -0.2112    0.1462 N   0  0  0  0  0  0  0  0  0  0  0  0
    5.1097   -1.2948   -3.6169 F   0  0  0  0  0  0  0  0  0  0  0  0
    4.1477   -3.4123   -3.7395 C   0  0  0  0  0  0  0  0  0  0  0  0
    3.1132   -4.3809   -1.7600 C   0  0  0  0  0  0  0  0  0  0  0  0
   -0.3490   -1.5873   -0.0506 C   0  0  1  0  0  0  0  0  0  0  0  0
   -1.1390    0.6379    0.1931 C   0  0  1  0  0  0  0  0  0  0  0  0
    3.4616   -4.4709   -3.1191 C   0  0  0  0  0  0  0  0  0  0  0  0
   -1.7406   -1.5297   -0.7057 C   0  0  2  0  0  0  0  0  0  0  0  0
   -2.3557   -0.2502   -0.1240 C   0  0  1  0  0  0  0  0  0  0  0  0
    3.1496   -5.5328   -3.8069 F   0  0  0  0  0  0  0  0  0  0  0  0
   -2.5486   -2.7235   -0.4353 N   0  0  1  0  0  0  0  0  0  0  0  0
    3.3635    2.6073    1.4966 H   0  0  0  0  0  0  0  0  0  0  0  0
    6.5696   -1.4425   -1.2145 H   0  0  0  0  0  0  0  0  0  0  0  0
    9.6540   -0.1494   -0.5517 H   0  0  0  0  0  0  0  0  0  0  0  0
    3.2309   -3.2055   -0.0235 H   0  0  0  0  0  0  0  0  0  0  0  0
    4.4010   -3.4746   -4.7284 H   0  0  0  0  0  0  0  0  0  0  0  0
    2.6050   -5.1443   -1.3079 H   0  0  0  0  0  0  0  0  0  0  0  0
    0.3406   -2.1367   -0.6996 H   0  0  0  0  0  0  0  0  0  0  0  0
   -0.4013   -2.0857    0.9255 H   0  0  0  0  0  0  0  0  0  0  0  0
   -1.2670    1.0784    1.1835 H   0  0  0  0  0  0  0  0  0  0  0  0
   -1.0453    1.4300   -0.5538 H   0  0  0  0  0  0  0  0  0  0  0  0
   -1.6319   -1.4219   -1.7882 H   0  0  0  0  0  0  0  0  0  0  0  0
   -2.9066   -0.4677    0.7947 H   0  0  0  0  0  0  0  0  0  0  0  0
   -3.0332    0.2254   -0.8361 H   0  0  0  0  0  0  0  0  0  0  0  0
   -3.4395   -2.5930   -0.9194 H   0  0  0  0  0  0  0  0  0  0  0  0
   -2.0756   -3.5088   -0.8855 H   0  0  0  0  0  0  0  0  0  0  0  0
  1  2  2  0  0  0  0 
  2  3  1  0  0  0  0 
  2  4  1  0  0  0  0 
  3  5  1  0  0  0  0 
  3  6  2  0  0  0  0 
  4  7  1  0  0  0  0 
  4  8  2  0  0  0  0 
  5  9  1  0  0  0  0 
  5 10  2  0  0  0  0 
  6 11  1  0  0  0  0 
  7 12  1  0  0  0  0 
  7 13  2  0  0  0  0 
  8  9  1  0  0  0  0 
  9 14  1  0  0  0  0 
 10 15  1  0  0  0  0 
 11 15  2  0  0  0  0 
 11 16  1  0  0  0  0 
 14 17  2  0  0  0  0 
 14 18  1  0  0  0  0 
 15 19  1  0  0  0  0 
 17 20  1  0  0  0  0 
 17 21  1  0  0  0  0 
 18 22  2  0  0  0  0 
 19 23  1  0  0  0  0 
 19 24  1  0  0  0  0 
 21 25  2  0  0  0  0 
 22 25  1  0  0  0  0 
 26 23  1  0  0  0  0 
 24 27  1  0  0  0  0 
 25 28  1  0  0  0  0 
 26 27  1  0  0  0  0 
 26 29  1  0  0  0  0 
  6 30  1  0  0  0  0 
  8 31  1  0  0  0  0 
 12 32  1  0  0  0  0 
 18 33  1  0  0  0  0 
 21 34  1  0  0  0  0 
 22 35  1  0  0  0  0 
 23 36  1  0  0  0  0 
 23 37  1  0  0  0  0 
 24 38  1  0  0  0  0 
 24 39  1  0  0  0  0 
 26 40  1  0  0  0  0 
 27 41  1  0  0  0  0 
 27 42  1  0  0  0  0 
 29 43  1  0  0  0  0 
 29 44  1  0  0  0  0 
M  END
> <cdk:Title>
tosufloxacin

> <Conformer>
1

> <SuperDrugID>
SD002441

$$$$
