ethinylestradiol sulfonate
  CDK     0628171801

 58 61  0  0  0  0  0  0  0  0999 V2000
   -0.4124   -6.4563   -5.5807 C   0  0  0  0  0  0  0  0  0  0  0  0
   -1.4514   -5.3885   -6.1105 C   0  0  1  0  0  0  0  0  0  0  0  0
   -2.5303   -4.9448   -5.0642 C   0  0  2  0  0  0  0  0  0  0  0  0
   -0.6400   -4.1092   -6.5376 C   0  0  2  0  0  0  0  0  0  0  0  0
   -2.3782   -6.0790   -7.1879 C   0  0  1  0  0  0  0  0  0  0  0  0
   -1.9081   -4.2541   -3.8055 C   0  0  1  0  0  0  0  0  0  0  0  0
   -3.4467   -6.1766   -4.9117 C   0  0  1  0  0  0  0  0  0  0  0  0
   -0.0913   -3.2805   -5.3297 C   0  0  2  0  0  0  0  0  0  0  0  0
   -1.6642   -6.9800   -8.0412 O   0  0  0  0  0  0  0  0  0  0  0  0
   -3.4272   -6.8487   -6.3138 C   0  0  2  0  0  0  0  0  0  0  0  0
   -1.1994   -2.9264   -4.2734 C   0  0  2  0  0  0  0  0  0  0  0  0
   -2.9315   -3.9397   -2.6842 C   0  0  1  0  0  0  0  0  0  0  0  0
   -0.7953   -2.0155   -3.1398 C   0  0  0  0  0  0  0  0  0  0  0  0
   -2.2118   -3.3190   -1.4618 C   0  0  2  0  0  0  0  0  0  0  0  0
   -1.2901   -2.2020   -1.8126 C   0  0  0  0  0  0  0  0  0  0  0  0
   -0.0054   -0.8645   -3.3921 C   0  0  0  0  0  0  0  0  0  0  0  0
   -0.9308   -1.2923   -0.7875 C   0  0  0  0  0  0  0  0  0  0  0  0
    0.3226    0.0431   -2.3730 C   0  0  0  0  0  0  0  0  0  0  0  0
   -0.1192   -0.1741   -1.0591 C   0  0  0  0  0  0  0  0  0  0  0  0
    0.1817    0.7475   -0.0982 O   0  0  0  0  0  0  0  0  0  0  0  0
   -1.1670   -4.9245   -3.3633 H   0  0  0  0  0  0  0  0  0  0  0  0
   -1.9418   -2.3275   -4.8130 H   0  0  0  0  0  0  0  0  0  0  0  0
   -3.1759   -4.1804   -5.5203 H   0  0  0  0  0  0  0  0  0  0  0  0
   -3.0080   -5.2045   -8.0589 C   0  0  0  0  0  0  0  0  0  0  0  0
   -3.5572   -4.4519   -8.8086 C   0  0  0  0  0  0  0  0  0  0  0  0
    1.3588    0.2249    1.0464 S   0  0  2  0  0  0  0  0  0  0  0  0
    2.9334    1.1330    0.7750 C   0  0  1  0  0  0  0  0  0  0  0  0
    1.6100   -1.3569    0.9734 O   0  0  0  0  0  0  0  0  0  0  0  0
    0.7711    0.5906    2.4927 O   0  0  0  0  0  0  0  0  0  0  0  0
    3.8879    0.9557    1.9832 C   0  0  0  0  0  0  0  0  0  0  0  0
    3.6046    0.6804   -0.5454 C   0  0  0  0  0  0  0  0  0  0  0  0
    0.2107   -6.0775   -4.7749 H   0  0  0  0  0  0  0  0  0  0  0  0
    0.2613   -6.7560   -6.3862 H   0  0  0  0  0  0  0  0  0  0  0  0
   -0.8953   -7.3602   -5.2110 H   0  0  0  0  0  0  0  0  0  0  0  0
   -1.2750   -3.4366   -7.1175 H   0  0  0  0  0  0  0  0  0  0  0  0
    0.1935   -4.3921   -7.1869 H   0  0  0  0  0  0  0  0  0  0  0  0
   -3.0553   -6.8492   -4.1450 H   0  0  0  0  0  0  0  0  0  0  0  0
   -4.4613   -5.8821   -4.6283 H   0  0  0  0  0  0  0  0  0  0  0  0
    0.3347   -2.3730   -5.7584 H   0  0  0  0  0  0  0  0  0  0  0  0
    0.7260   -3.8120   -4.8384 H   0  0  0  0  0  0  0  0  0  0  0  0
   -2.3423   -7.4198   -8.5973 H   0  0  0  0  0  0  0  0  0  0  0  0
   -3.1282   -7.8954   -6.2011 H   0  0  0  0  0  0  0  0  0  0  0  0
   -4.4301   -6.8511   -6.7554 H   0  0  0  0  0  0  0  0  0  0  0  0
   -3.6844   -3.2415   -3.0599 H   0  0  0  0  0  0  0  0  0  0  0  0
   -3.4407   -4.8513   -2.3619 H   0  0  0  0  0  0  0  0  0  0  0  0
   -1.6346   -4.0906   -0.9434 H   0  0  0  0  0  0  0  0  0  0  0  0
   -2.9879   -2.9673   -0.7761 H   0  0  0  0  0  0  0  0  0  0  0  0
    0.3285   -0.6501   -4.3305 H   0  0  0  0  0  0  0  0  0  0  0  0
   -1.2781   -1.4268    0.1668 H   0  0  0  0  0  0  0  0  0  0  0  0
    0.8737    0.8747   -2.5945 H   0  0  0  0  0  0  0  0  0  0  0  0
   -3.9796   -3.8680   -9.3842 H   0  0  0  0  0  0  0  0  0  0  0  0
    2.6896    2.1954    0.6885 H   0  0  0  0  0  0  0  0  0  0  0  0
    4.8168    1.5077    1.8188 H   0  0  0  0  0  0  0  0  0  0  0  0
    3.4229    1.3407    2.8934 H   0  0  0  0  0  0  0  0  0  0  0  0
    4.1299   -0.0986    2.1316 H   0  0  0  0  0  0  0  0  0  0  0  0
    4.5425    1.2147   -0.7040 H   0  0  0  0  0  0  0  0  0  0  0  0
    3.8147   -0.3902   -0.5269 H   0  0  0  0  0  0  0  0  0  0  0  0
    2.9552    0.8948   -1.3914 H   0  0  0  0  0  0  0  0  0  0  0  0
  2  1  1  0  0  0  0 
  3  2  1  0  0  0  0 
  2  4  1  0  0  0  0 
  2  5  1  0  0  0  0 
  6  3  1  0  0  0  0 
  3  7  1  0  0  0  0 
  3 23  1  0  0  0  0 
  4  8  1  0  0  0  0 
  5  9  1  0  0  0  0 
  5 10  1  0  0  0  0 
 11  6  1  0  0  0  0 
  6 12  1  0  0  0  0 
  6 21  1  0  0  0  0 
  7 10  1  0  0  0  0 
 11  8  1  0  0  0  0 
 11 13  1  0  0  0  0 
 11 22  1  0  0  0  0 
 12 14  1  0  0  0  0 
 13 15  2  0  0  0  0 
 13 16  1  0  0  0  0 
 14 15  1  0  0  0  0 
 15 17  1  0  0  0  0 
 16 18  2  0  0  0  0 
 17 19  2  0  0  0  0 
 18 19  1  0  0  0  0 
 19 20  1  0  0  0  0 
  5 24  1  0  0  0  0 
 24 25  3  0  0  0  0 
 20 26  1  0  0  0  0 
 26 27  1  0  0  0  0 
 26 28  2  0  0  0  0 
 26 29  2  0  0  0  0 
 27 30  1  0  0  0  0 
 27 31  1  0  0  0  0 
  1 32  1  0  0  0  0 
  1 33  1  0  0  0  0 
  1 34  1  0  0  0  0 
  4 35  1  0  0  0  0 
  4 36  1  0  0  0  0 
  7 37  1  0  0  0  0 
  7 38  1  0  0  0  0 
  8 39  1  0  0  0  0 
  8 40  1  0  0  0  0 
  9 41  1  0  0  0  0 
 10 42  1  0  0  0  0 
 10 43  1  0  0  0  0 
 12 44  1  0  0  0  0 
 12 45  1  0  0  0  0 
 14 46  1  0  0  0  0 
 14 47  1  0  0  0  0 
 16 48  1  0  0  0  0 
 17 49  1  0  0  0  0 
 18 50  1  0  0  0  0 
 25 51  1  0  0  0  0 
 27 52  1  0  0  0  0 
 30 53  1  0  0  0  0 
 30 54  1  0  0  0  0 
 30 55  1  0  0  0  0 
 31 56  1  0  0  0  0 
 31 57  1  0  0  0  0 
 31 58  1  0  0  0  0 
M  END
> <cdk:Title>
ethinylestradiol sulfonate

> <Conformer>
1

> <SuperDrugID>
SD003303

$$$$
