cariprazine
  CDK     0628171802

 60 62  0  0  0  0  0  0  0  0999 V2000
   -0.2567   -4.1930   -8.8882 C   0  0  0  0  0  0  0  0  0  0  0  0
   -0.2782   -5.2801   -9.7996 C   0  0  0  0  0  0  0  0  0  0  0  0
    0.1978   -5.0944  -11.1175 C   0  0  0  0  0  0  0  0  0  0  0  0
    0.6982   -3.8481  -11.5275 C   0  0  0  0  0  0  0  0  0  0  0  0
    0.7224   -2.7739  -10.6238 C   0  0  0  0  0  0  0  0  0  0  0  0
    0.2404   -2.9333   -9.3097 C   0  0  0  0  0  0  0  0  0  0  0  0
   -0.8071   -4.4172   -7.2949 Cl  0  0  0  0  0  0  0  0  0  0  0  0
    0.2871   -1.5800   -8.2852 Cl  0  0  0  0  0  0  0  0  0  0  0  0
   -0.7374   -6.5214   -9.4429 N   0  0  0  0  0  0  0  0  0  0  0  0
    0.1777   -7.6009   -9.1839 C   0  0  1  0  0  0  0  0  0  0  0  0
   -0.1089   -8.7582  -10.1706 C   0  0  1  0  0  0  0  0  0  0  0  0
   -1.5579   -9.1490  -10.1850 N   0  0  1  0  0  0  0  0  0  0  0  0
   -2.4746   -7.9714  -10.3562 C   0  0  2  0  0  0  0  0  0  0  0  0
   -2.1465   -6.8134   -9.3810 C   0  0  1  0  0  0  0  0  0  0  0  0
   -1.9005  -10.2490  -11.1510 C   0  0  2  0  0  0  0  0  0  0  0  0
   -1.0223  -11.5282  -11.0443 C   0  0  1  0  0  0  0  0  0  0  0  0
   -1.5874  -12.8079  -11.7414 C   0  0  1  0  0  0  0  0  0  0  0  0
   -1.9096  -12.6049  -13.2586 C   0  0  1  0  0  0  0  0  0  0  0  0
   -2.3698  -13.9159  -13.9541 C   0  0  2  0  0  0  0  0  0  0  0  0
   -1.3312  -15.0549  -13.7604 C   0  0  1  0  0  0  0  0  0  0  0  0
   -1.0619  -15.2979  -12.2491 C   0  0  1  0  0  0  0  0  0  0  0  0
   -0.5946  -13.9998  -11.5449 C   0  0  1  0  0  0  0  0  0  0  0  0
   -1.7983  -16.2713  -14.3568 N   0  0  0  0  0  0  0  0  0  0  0  0
   -1.4651  -16.7508  -15.5963 C   0  0  0  0  0  0  0  0  0  0  0  0
   -1.9435  -17.9683  -16.0567 N   0  0  0  0  0  0  0  0  0  0  0  0
   -0.7059  -16.0607  -16.3214 O   0  0  0  0  0  0  0  0  0  0  0  0
   -2.7746  -18.7921  -15.2065 C   0  0  0  0  0  0  0  0  0  0  0  0
   -1.6320  -18.3938  -17.4048 C   0  0  0  0  0  0  0  0  0  0  0  0
    0.1831   -5.8688  -11.7854 H   0  0  0  0  0  0  0  0  0  0  0  0
    1.0454   -3.7211  -12.4822 H   0  0  0  0  0  0  0  0  0  0  0  0
    1.0956   -1.8734  -10.9331 H   0  0  0  0  0  0  0  0  0  0  0  0
    1.2254   -7.2980   -9.2865 H   0  0  0  0  0  0  0  0  0  0  0  0
    0.0358   -7.9524   -8.1576 H   0  0  0  0  0  0  0  0  0  0  0  0
    0.2147   -8.4675  -11.1738 H   0  0  0  0  0  0  0  0  0  0  0  0
    0.5035   -9.6037   -9.8526 H   0  0  0  0  0  0  0  0  0  0  0  0
   -3.5074   -8.2817  -10.1762 H   0  0  0  0  0  0  0  0  0  0  0  0
   -2.4131   -7.5902  -11.3806 H   0  0  0  0  0  0  0  0  0  0  0  0
   -2.4082   -7.1128   -8.3623 H   0  0  0  0  0  0  0  0  0  0  0  0
   -2.7624   -5.9461   -9.6413 H   0  0  0  0  0  0  0  0  0  0  0  0
   -1.8349   -9.8700  -12.1758 H   0  0  0  0  0  0  0  0  0  0  0  0
   -2.9378  -10.5442  -10.9699 H   0  0  0  0  0  0  0  0  0  0  0  0
   -0.0393  -11.3081  -11.4689 H   0  0  0  0  0  0  0  0  0  0  0  0
   -0.8879  -11.7497   -9.9820 H   0  0  0  0  0  0  0  0  0  0  0  0
   -2.5218  -13.0703  -11.2342 H   0  0  0  0  0  0  0  0  0  0  0  0
   -2.7060  -11.8646  -13.3756 H   0  0  0  0  0  0  0  0  0  0  0  0
   -1.0225  -12.2233  -13.7733 H   0  0  0  0  0  0  0  0  0  0  0  0
   -2.5011  -13.7228  -15.0225 H   0  0  0  0  0  0  0  0  0  0  0  0
   -3.3389  -14.2236  -13.5495 H   0  0  0  0  0  0  0  0  0  0  0  0
   -0.3887  -14.7408  -14.2231 H   0  0  0  0  0  0  0  0  0  0  0  0
   -1.9703  -15.6676  -11.7624 H   0  0  0  0  0  0  0  0  0  0  0  0
   -0.2843  -16.0591  -12.1294 H   0  0  0  0  0  0  0  0  0  0  0  0
    0.3898  -13.7297  -11.9384 H   0  0  0  0  0  0  0  0  0  0  0  0
   -0.4751  -14.2127  -10.4794 H   0  0  0  0  0  0  0  0  0  0  0  0
   -2.4096  -16.8047  -13.8254 H   0  0  0  0  0  0  0  0  0  0  0  0
   -2.9809  -19.7687  -15.6499 H   0  0  0  0  0  0  0  0  0  0  0  0
   -3.7809  -18.2798  -15.1085 H   0  0  0  0  0  0  0  0  0  0  0  0
   -2.1935  -19.0126  -14.2573 H   0  0  0  0  0  0  0  0  0  0  0  0
   -1.9937  -19.3972  -17.6356 H   0  0  0  0  0  0  0  0  0  0  0  0
   -2.0878  -17.7044  -18.1193 H   0  0  0  0  0  0  0  0  0  0  0  0
   -0.5508  -18.3957  -17.5614 H   0  0  0  0  0  0  0  0  0  0  0  0
  1  2  2  0  0  0  0 
  1  6  1  0  0  0  0 
  2  3  1  0  0  0  0 
  3  4  2  0  0  0  0 
  4  5  1  0  0  0  0 
  5  6  2  0  0  0  0 
  1  7  1  0  0  0  0 
  6  8  1  0  0  0  0 
  2  9  1  0  0  0  0 
 10 11  1  0  0  0  0 
 11 12  1  0  0  0  0 
 12 13  1  0  0  0  0 
 13 14  1  0  0  0  0 
  9 10  1  0  0  0  0 
  9 14  1  0  0  0  0 
 12 15  1  0  0  0  0 
 15 16  1  0  0  0  0 
 17 16  1  0  0  0  0 
 18 19  1  0  0  0  0 
 20 19  1  0  0  0  0 
 20 21  1  0  0  0  0 
 21 22  1  0  0  0  0 
 17 18  1  0  0  0  0 
 17 22  1  0  0  0  0 
 20 23  1  0  0  0  0 
 23 24  1  0  0  0  0 
 24 25  1  0  0  0  0 
 24 26  2  0  0  0  0 
 25 27  1  0  0  0  0 
 25 28  1  0  0  0  0 
 29  3  1  0  0  0  0 
 30  4  1  0  0  0  0 
 31  5  1  0  0  0  0 
 32 10  1  0  0  0  0 
 33 10  1  0  0  0  0 
 34 11  1  0  0  0  0 
 35 11  1  0  0  0  0 
 36 13  1  0  0  0  0 
 37 13  1  0  0  0  0 
 38 14  1  0  0  0  0 
 39 14  1  0  0  0  0 
 40 15  1  0  0  0  0 
 41 15  1  0  0  0  0 
 42 16  1  0  0  0  0 
 43 16  1  0  0  0  0 
 17 44  1  0  0  0  0 
 45 18  1  0  0  0  0 
 46 18  1  0  0  0  0 
 47 19  1  0  0  0  0 
 48 19  1  0  0  0  0 
 20 49  1  0  0  0  0 
 50 21  1  0  0  0  0 
 51 21  1  0  0  0  0 
 52 22  1  0  0  0  0 
 53 22  1  0  0  0  0 
 54 23  1  0  0  0  0 
 55 27  1  0  0  0  0 
 56 27  1  0  0  0  0 
 57 27  1  0  0  0  0 
 58 28  1  0  0  0  0 
 59 28  1  0  0  0  0 
 60 28  1  0  0  0  0 
M  END
> <cdk:Title>
cariprazine

> <Conformer>
1

> <SuperDrugID>
SD003882

$$$$
