fluocortin butyl
  CDK     0628171801

 67 70  0  0  0  0  0  0  0  0999 V2000
   -6.8659    0.0527    2.6747 C   0  0  0  0  0  0  0  0  0  0  0  0
   -5.5975    0.9953    2.6745 C   0  0  2  0  0  0  0  0  0  0  0  0
   -4.2235    0.2492    2.6356 C   0  0  2  0  0  0  0  0  0  0  0  0
   -5.4380    1.7500    4.0460 C   0  0  1  0  0  0  0  0  0  0  0  0
   -5.6209    1.9377    1.4205 C   0  0  2  0  0  0  0  0  0  0  0  0
   -4.0505   -0.6687    1.3807 C   0  0  1  0  0  0  0  0  0  0  0  0
   -4.0599   -0.3412    4.0539 C   0  0  1  0  0  0  0  0  0  0  0  0
   -6.6756    2.3566    4.6347 C   0  0  0  0  0  0  0  0  0  0  0  0
   -4.7176    0.7201    4.9890 C   0  0  1  0  0  0  0  0  0  0  0  0
   -5.3831    1.1905    0.0655 C   0  0  1  0  0  0  0  0  0  0  0  0
   -4.1481    0.1988    0.0608 C   0  0  2  0  0  0  0  0  0  0  0  0
   -2.6982   -1.4456    1.4113 C   0  0  1  0  0  0  0  0  0  0  0  0
   -6.9360    3.7449    4.7069 C   0  0  0  0  0  0  0  0  0  0  0  0
   -7.5479    1.5949    5.1169 O   0  0  0  0  0  0  0  0  0  0  0  0
   -3.7141    1.3932    5.9666 C   0  0  0  0  0  0  0  0  0  0  0  0
   -6.5995    0.5785   -0.3474 O   0  0  0  0  0  0  0  0  0  0  0  0
   -3.9014   -0.6696   -1.2583 C   0  0  2  0  0  0  0  0  0  0  0  0
   -2.4895   -2.2914    0.1293 C   0  0  1  0  0  0  0  0  0  0  0  0
   -8.1348    4.1626    5.2124 O   0  0  0  0  0  0  0  0  0  0  0  0
   -6.1027    4.5895    4.3018 O   0  0  0  0  0  0  0  0  0  0  0  0
   -5.0491   -1.6943   -1.5880 C   0  0  0  0  0  0  0  0  0  0  0  0
   -2.6245   -1.4454   -1.0713 C   0  0  0  0  0  0  0  0  0  0  0  0
   -3.8478    0.2190   -2.4451 C   0  0  0  0  0  0  0  0  0  0  0  0
   -1.2888   -2.9622    0.2613 F   0  0  0  0  0  0  0  0  0  0  0  0
   -8.5689    5.5039    5.4622 C   0  0  2  0  0  0  0  0  0  0  0  0
   -1.6117   -1.3485   -1.9675 C   0  0  0  0  0  0  0  0  0  0  0  0
   -2.8084    0.2597   -3.2935 C   0  0  0  0  0  0  0  0  0  0  0  0
  -10.0671    5.5250    5.9599 C   0  0  1  0  0  0  0  0  0  0  0  0
   -1.6948   -0.5269   -3.0792 C   0  0  0  0  0  0  0  0  0  0  0  0
  -10.5125    6.8160    6.8747 C   0  0  2  0  0  0  0  0  0  0  0  0
   -0.7481   -0.4902   -3.8988 O   0  0  0  0  0  0  0  0  0  0  0  0
  -12.0331    6.8605    7.1249 C   0  0  0  0  0  0  0  0  0  0  0  0
   -6.9060   -0.6041    1.8094 H   0  0  0  0  0  0  0  0  0  0  0  0
   -6.8999   -0.5826    3.5610 H   0  0  0  0  0  0  0  0  0  0  0  0
   -7.7822    0.6461    2.6567 H   0  0  0  0  0  0  0  0  0  0  0  0
   -3.4174    0.9952    2.5569 H   0  0  0  0  0  0  0  0  0  0  0  0
   -4.7302    2.5674    3.8707 H   0  0  0  0  0  0  0  0  0  0  0  0
   -4.8378    2.6976    1.5173 H   0  0  0  0  0  0  0  0  0  0  0  0
   -6.5716    2.4784    1.3826 H   0  0  0  0  0  0  0  0  0  0  0  0
   -4.8413   -1.4191    1.3940 H   0  0  0  0  0  0  0  0  0  0  0  0
   -4.5793   -1.3022    4.1306 H   0  0  0  0  0  0  0  0  0  0  0  0
   -3.0025   -0.5066    4.2878 H   0  0  0  0  0  0  0  0  0  0  0  0
   -5.4528    0.1945    5.6069 H   0  0  0  0  0  0  0  0  0  0  0  0
   -5.1918    1.9714   -0.6745 H   0  0  0  0  0  0  0  0  0  0  0  0
   -3.2860    0.8780    0.1111 H   0  0  0  0  0  0  0  0  0  0  0  0
   -1.8653   -0.7422    1.5190 H   0  0  0  0  0  0  0  0  0  0  0  0
   -2.6810   -2.1161    2.2754 H   0  0  0  0  0  0  0  0  0  0  0  0
   -2.9231    1.9122    5.4188 H   0  0  0  0  0  0  0  0  0  0  0  0
   -4.2384    2.1160    6.5962 H   0  0  0  0  0  0  0  0  0  0  0  0
   -3.2546    0.6413    6.6130 H   0  0  0  0  0  0  0  0  0  0  0  0
   -7.2574    1.3067   -0.3549 H   0  0  0  0  0  0  0  0  0  0  0  0
   -3.2496   -3.0737    0.0933 H   0  0  0  0  0  0  0  0  0  0  0  0
   -5.9545   -1.2042   -1.9498 H   0  0  0  0  0  0  0  0  0  0  0  0
   -5.3358   -2.2824   -0.7191 H   0  0  0  0  0  0  0  0  0  0  0  0
   -4.7305   -2.3920   -2.3689 H   0  0  0  0  0  0  0  0  0  0  0  0
   -4.6252    0.8012   -2.6517 H   0  0  0  0  0  0  0  0  0  0  0  0
   -8.4827    6.0940    4.5480 H   0  0  0  0  0  0  0  0  0  0  0  0
   -7.9213    5.9441    6.2229 H   0  0  0  0  0  0  0  0  0  0  0  0
   -0.7720   -1.8649   -1.8418 H   0  0  0  0  0  0  0  0  0  0  0  0
   -2.8458    0.8598   -4.0858 H   0  0  0  0  0  0  0  0  0  0  0  0
  -10.6652    5.4052    5.0184 H   0  0  0  0  0  0  0  0  0  0  0  0
  -10.2211    4.5416    6.4793 H   0  0  0  0  0  0  0  0  0  0  0  0
  -10.2053    7.7355    6.3721 H   0  0  0  0  0  0  0  0  0  0  0  0
   -9.9952    6.7537    7.8356 H   0  0  0  0  0  0  0  0  0  0  0  0
  -12.2672    7.6813    7.8050 H   0  0  0  0  0  0  0  0  0  0  0  0
  -12.3770    5.9267    7.5721 H   0  0  0  0  0  0  0  0  0  0  0  0
  -12.5667    7.0210    6.1871 H   0  0  0  0  0  0  0  0  0  0  0  0
  2  1  1  0  0  0  0 
  3  2  1  0  0  0  0 
  2  4  1  0  0  0  0 
  2  5  1  0  0  0  0 
  6  3  1  0  0  0  0 
  3  7  1  0  0  0  0 
  4  8  1  0  0  0  0 
  4  9  1  0  0  0  0 
 10  5  1  0  0  0  0 
 11  6  1  0  0  0  0 
  6 12  1  0  0  0  0 
  9  7  1  0  0  0  0 
  8 13  1  0  0  0  0 
  8 14  2  0  0  0  0 
  9 15  1  0  0  0  0 
 11 10  1  0  0  0  0 
 10 16  1  0  0  0  0 
 11 17  1  0  0  0  0 
 18 12  1  0  0  0  0 
 13 19  1  0  0  0  0 
 13 20  2  0  0  0  0 
 17 21  1  0  0  0  0 
 17 22  1  0  0  0  0 
 17 23  1  0  0  0  0 
 18 22  1  0  0  0  0 
 18 24  1  0  0  0  0 
 19 25  1  0  0  0  0 
 22 26  2  0  0  0  0 
 23 27  2  0  0  0  0 
 25 28  1  0  0  0  0 
 26 29  1  0  0  0  0 
 27 29  1  0  0  0  0 
 28 30  1  0  0  0  0 
 29 31  2  0  0  0  0 
 30 32  1  0  0  0  0 
 33  1  1  0  0  0  0 
 34  1  1  0  0  0  0 
 35  1  1  0  0  0  0 
  3 36  1  0  0  0  0 
  4 37  1  0  0  0  0 
 38  5  1  0  0  0  0 
 39  5  1  0  0  0  0 
  6 40  1  0  0  0  0 
 41  7  1  0  0  0  0 
 42  7  1  0  0  0  0 
  9 43  1  0  0  0  0 
 10 44  1  0  0  0  0 
 11 45  1  0  0  0  0 
 46 12  1  0  0  0  0 
 47 12  1  0  0  0  0 
 48 15  1  0  0  0  0 
 49 15  1  0  0  0  0 
 50 15  1  0  0  0  0 
 51 16  1  0  0  0  0 
 18 52  1  0  0  0  0 
 53 21  1  0  0  0  0 
 54 21  1  0  0  0  0 
 55 21  1  0  0  0  0 
 56 23  1  0  0  0  0 
 57 25  1  0  0  0  0 
 58 25  1  0  0  0  0 
 59 26  1  0  0  0  0 
 60 27  1  0  0  0  0 
 61 28  1  0  0  0  0 
 62 28  1  0  0  0  0 
 63 30  1  0  0  0  0 
 64 30  1  0  0  0  0 
 65 32  1  0  0  0  0 
 66 32  1  0  0  0  0 
 67 32  1  0  0  0  0 
M  END
> <cdk:Title>
fluocortin butyl

> <Conformer>
1

> <SuperDrugID>
SD002798

$$$$
