tinoridine
  CDK     0628171801

 42 44  0  0  0  0  0  0  0  0999 V2000
   -2.2069    2.6203    0.8216 C   0  0  0  0  0  0  0  0  0  0  0  0
   -0.9483    2.9096    1.2651 O   0  0  0  0  0  0  0  0  0  0  0  0
   -3.0286    2.1793    1.6594 O   0  0  0  0  0  0  0  0  0  0  0  0
   -2.5541    2.8021   -0.5500 C   0  0  0  0  0  0  0  0  0  0  0  0
   -0.4156    2.7161    2.5823 C   0  0  1  0  0  0  0  0  0  0  0  0
   -3.8669    2.6201   -1.0867 C   0  0  0  0  0  0  0  0  0  0  0  0
   -1.5952    3.1665   -1.5257 C   0  0  0  0  0  0  0  0  0  0  0  0
    1.0478    3.1890    2.6008 C   0  0  0  0  0  0  0  0  0  0  0  0
   -3.9687    2.7704   -2.4811 C   0  0  0  0  0  0  0  0  0  0  0  0
   -5.0923    2.2627   -0.3080 C   0  0  2  0  0  0  0  0  0  0  0  0
   -0.2837    3.4371   -1.3965 N   0  0  0  0  0  0  0  0  0  0  0  0
   -2.3938    3.2338   -3.0823 S   0  0  0  0  0  0  0  0  0  0  0  0
   -5.1963    2.5440   -3.2643 C   0  0  2  0  0  0  0  0  0  0  0  0
   -6.3916    2.1224   -1.1610 C   0  0  2  0  0  0  0  0  0  0  0  0
   -6.1221    1.6066   -2.5437 N   0  0  2  0  0  0  0  0  0  0  0  0
   -5.7140    0.1606   -2.5605 C   0  0  2  0  0  0  0  0  0  0  0  0
   -5.7033   -0.4297   -3.9243 C   0  0  0  0  0  0  0  0  0  0  0  0
   -4.4844   -0.6766   -4.6019 C   0  0  0  0  0  0  0  0  0  0  0  0
   -6.9174   -0.7560   -4.5721 C   0  0  0  0  0  0  0  0  0  0  0  0
   -4.4799   -1.2669   -5.8790 C   0  0  0  0  0  0  0  0  0  0  0  0
   -6.9128   -1.3632   -5.8419 C   0  0  0  0  0  0  0  0  0  0  0  0
   -5.6932   -1.6252   -6.4924 C   0  0  0  0  0  0  0  0  0  0  0  0
   -0.9934    3.2870    3.3140 H   0  0  0  0  0  0  0  0  0  0  0  0
   -0.4560    1.6555    2.8463 H   0  0  0  0  0  0  0  0  0  0  0  0
    1.4856    3.0113    3.5833 H   0  0  0  0  0  0  0  0  0  0  0  0
    1.6259    2.6421    1.8537 H   0  0  0  0  0  0  0  0  0  0  0  0
    1.1020    4.2564    2.3798 H   0  0  0  0  0  0  0  0  0  0  0  0
   -5.2605    3.0232    0.4594 H   0  0  0  0  0  0  0  0  0  0  0  0
   -4.9185    1.3063    0.1889 H   0  0  0  0  0  0  0  0  0  0  0  0
    0.1414    3.4020   -0.5290 H   0  0  0  0  0  0  0  0  0  0  0  0
    0.2443    3.6667   -2.1791 H   0  0  0  0  0  0  0  0  0  0  0  0
   -4.9384    2.1670   -4.2533 H   0  0  0  0  0  0  0  0  0  0  0  0
   -5.6922    3.5064   -3.4142 H   0  0  0  0  0  0  0  0  0  0  0  0
   -6.8693    3.1029   -1.2415 H   0  0  0  0  0  0  0  0  0  0  0  0
   -7.1072    1.4783   -0.6414 H   0  0  0  0  0  0  0  0  0  0  0  0
   -6.4135   -0.4261   -1.9568 H   0  0  0  0  0  0  0  0  0  0  0  0
   -4.7326    0.0375   -2.0928 H   0  0  0  0  0  0  0  0  0  0  0  0
   -3.5901   -0.4272   -4.1722 H   0  0  0  0  0  0  0  0  0  0  0  0
   -7.8134   -0.5631   -4.1185 H   0  0  0  0  0  0  0  0  0  0  0  0
   -3.5937   -1.4389   -6.3602 H   0  0  0  0  0  0  0  0  0  0  0  0
   -7.7962   -1.6198   -6.2892 H   0  0  0  0  0  0  0  0  0  0  0  0
   -5.6905   -2.0700   -7.4134 H   0  0  0  0  0  0  0  0  0  0  0  0
  1  2  1  0  0  0  0 
  1  3  2  0  0  0  0 
  1  4  1  0  0  0  0 
  2  5  1  0  0  0  0 
  4  6  1  0  0  0  0 
  4  7  2  0  0  0  0 
  5  8  1  0  0  0  0 
  6  9  2  0  0  0  0 
  6 10  1  0  0  0  0 
  7 11  1  0  0  0  0 
  7 12  1  0  0  0  0 
  9 12  1  0  0  0  0 
  9 13  1  0  0  0  0 
 10 14  1  0  0  0  0 
 13 15  1  0  0  0  0 
 14 15  1  0  0  0  0 
 15 16  1  0  0  0  0 
 16 17  1  0  0  0  0 
 17 18  2  0  0  0  0 
 17 19  1  0  0  0  0 
 18 20  1  0  0  0  0 
 19 21  2  0  0  0  0 
 20 22  2  0  0  0  0 
 21 22  1  0  0  0  0 
  5 23  1  0  0  0  0 
  5 24  1  0  0  0  0 
  8 25  1  0  0  0  0 
  8 26  1  0  0  0  0 
  8 27  1  0  0  0  0 
 10 28  1  0  0  0  0 
 10 29  1  0  0  0  0 
 11 30  1  0  0  0  0 
 11 31  1  0  0  0  0 
 13 32  1  0  0  0  0 
 13 33  1  0  0  0  0 
 14 34  1  0  0  0  0 
 14 35  1  0  0  0  0 
 16 36  1  0  0  0  0 
 16 37  1  0  0  0  0 
 18 38  1  0  0  0  0 
 19 39  1  0  0  0  0 
 20 40  1  0  0  0  0 
 21 41  1  0  0  0  0 
 22 42  1  0  0  0  0 
M  END
> <cdk:Title>
tinoridine

> <Conformer>
1

> <SuperDrugID>
SD002404

$$$$
