fenpiprane
  CDK     0628171801

 46 48  0  0  0  0  0  0  0  0999 V2000
   -0.3095    2.9612    3.3900 C   0  0  1  0  0  0  0  0  0  0  0  0
   -1.3515    2.6027    2.2785 C   0  0  2  0  0  0  0  0  0  0  0  0
   -0.4715    4.3259    4.0058 C   0  0  0  0  0  0  0  0  0  0  0  0
   -0.2710    1.8999    4.4442 C   0  0  0  0  0  0  0  0  0  0  0  0
   -1.0281    1.3267    1.4454 C   0  0  2  0  0  0  0  0  0  0  0  0
   -1.7348    4.9541    4.1683 C   0  0  0  0  0  0  0  0  0  0  0  0
    0.6723    5.0270    4.4701 C   0  0  0  0  0  0  0  0  0  0  0  0
    0.8762    1.0860    4.6206 C   0  0  0  0  0  0  0  0  0  0  0  0
   -1.4011    1.6518    5.2628 C   0  0  0  0  0  0  0  0  0  0  0  0
    0.3161    1.3014    0.7725 N   0  0  2  0  0  0  0  0  0  0  0  0
   -1.8540    6.2158    4.7807 C   0  0  0  0  0  0  0  0  0  0  0  0
    0.5590    6.2898    5.0809 C   0  0  0  0  0  0  0  0  0  0  0  0
    0.8795    0.0411    5.5624 C   0  0  0  0  0  0  0  0  0  0  0  0
   -1.4041    0.6029    6.1966 C   0  0  0  0  0  0  0  0  0  0  0  0
    0.5142    2.4029   -0.2256 C   0  0  2  0  0  0  0  0  0  0  0  0
    0.6410   -0.0572    0.2188 C   0  0  1  0  0  0  0  0  0  0  0  0
   -0.7059    6.8818    5.2409 C   0  0  0  0  0  0  0  0  0  0  0  0
   -0.2650   -0.2065    6.3421 C   0  0  0  0  0  0  0  0  0  0  0  0
    1.9214    2.3715   -0.8699 C   0  0  2  0  0  0  0  0  0  0  0  0
    2.0475   -0.1212   -0.4341 C   0  0  1  0  0  0  0  0  0  0  0  0
    2.2218    0.9905   -1.4955 C   0  0  1  0  0  0  0  0  0  0  0  0
    0.6538    2.9772    2.8710 H   0  0  0  0  0  0  0  0  0  0  0  0
   -1.4604    3.4541    1.6044 H   0  0  0  0  0  0  0  0  0  0  0  0
   -2.3316    2.4444    2.7325 H   0  0  0  0  0  0  0  0  0  0  0  0
   -1.8211    1.2015    0.7004 H   0  0  0  0  0  0  0  0  0  0  0  0
   -1.1048    0.4767    2.1298 H   0  0  0  0  0  0  0  0  0  0  0  0
   -2.5912    4.5016    3.8471 H   0  0  0  0  0  0  0  0  0  0  0  0
    1.6043    4.6177    4.3660 H   0  0  0  0  0  0  0  0  0  0  0  0
    1.7182    1.2377    4.0600 H   0  0  0  0  0  0  0  0  0  0  0  0
   -2.2413    2.2255    5.1806 H   0  0  0  0  0  0  0  0  0  0  0  0
   -2.7742    6.6507    4.8924 H   0  0  0  0  0  0  0  0  0  0  0  0
    1.3979    6.7753    5.4089 H   0  0  0  0  0  0  0  0  0  0  0  0
    1.7133   -0.5397    5.6786 H   0  0  0  0  0  0  0  0  0  0  0  0
   -2.2366    0.4311    6.7651 H   0  0  0  0  0  0  0  0  0  0  0  0
    0.4243    3.3718    0.2695 H   0  0  0  0  0  0  0  0  0  0  0  0
   -0.2493    2.3501   -1.0088 H   0  0  0  0  0  0  0  0  0  0  0  0
    0.6215   -0.7964    1.0261 H   0  0  0  0  0  0  0  0  0  0  0  0
   -0.1084   -0.3561   -0.5228 H   0  0  0  0  0  0  0  0  0  0  0  0
   -0.7903    7.7958    5.6891 H   0  0  0  0  0  0  0  0  0  0  0  0
   -0.2688   -0.9746    7.0165 H   0  0  0  0  0  0  0  0  0  0  0  0
    2.6704    2.5867   -0.1042 H   0  0  0  0  0  0  0  0  0  0  0  0
    1.9890    3.1461   -1.6365 H   0  0  0  0  0  0  0  0  0  0  0  0
    2.8122   -0.0030    0.3387 H   0  0  0  0  0  0  0  0  0  0  0  0
    2.1932   -1.0995   -0.9019 H   0  0  0  0  0  0  0  0  0  0  0  0
    1.5419    0.8096   -2.3317 H   0  0  0  0  0  0  0  0  0  0  0  0
    3.2433    0.9719   -1.8851 H   0  0  0  0  0  0  0  0  0  0  0  0
  1  2  1  0  0  0  0 
  1  3  1  0  0  0  0 
  1  4  1  0  0  0  0 
  2  5  1  0  0  0  0 
  3  6  2  0  0  0  0 
  3  7  1  0  0  0  0 
  4  8  2  0  0  0  0 
  4  9  1  0  0  0  0 
  5 10  1  0  0  0  0 
  6 11  1  0  0  0  0 
  7 12  2  0  0  0  0 
  8 13  1  0  0  0  0 
  9 14  2  0  0  0  0 
 10 15  1  0  0  0  0 
 10 16  1  0  0  0  0 
 11 17  2  0  0  0  0 
 12 17  1  0  0  0  0 
 13 18  2  0  0  0  0 
 14 18  1  0  0  0  0 
 15 19  1  0  0  0  0 
 16 20  1  0  0  0  0 
 19 21  1  0  0  0  0 
 20 21  1  0  0  0  0 
  1 22  1  0  0  0  0 
  2 23  1  0  0  0  0 
  2 24  1  0  0  0  0 
  5 25  1  0  0  0  0 
  5 26  1  0  0  0  0 
  6 27  1  0  0  0  0 
  7 28  1  0  0  0  0 
  8 29  1  0  0  0  0 
  9 30  1  0  0  0  0 
 11 31  1  0  0  0  0 
 12 32  1  0  0  0  0 
 13 33  1  0  0  0  0 
 14 34  1  0  0  0  0 
 15 35  1  0  0  0  0 
 15 36  1  0  0  0  0 
 16 37  1  0  0  0  0 
 16 38  1  0  0  0  0 
 17 39  1  0  0  0  0 
 18 40  1  0  0  0  0 
 19 41  1  0  0  0  0 
 19 42  1  0  0  0  0 
 20 43  1  0  0  0  0 
 20 44  1  0  0  0  0 
 21 45  1  0  0  0  0 
 21 46  1  0  0  0  0 
M  END
> <cdk:Title>
fenpiprane

> <Conformer>
1

> <SuperDrugID>
SD001036

$$$$
