fenofibrate
  CDK     0628171801

 46 47  0  0  0  0  0  0  0  0999 V2000
   -7.0658   -3.8064   -6.2635 C   0  0  0  0  0  0  0  0  0  0  0  0
   -6.4750   -3.3160   -5.2699 O   0  0  0  0  0  0  0  0  0  0  0  0
   -7.2460   -5.2205   -6.3460 C   0  0  0  0  0  0  0  0  0  0  0  0
   -7.4802   -2.8994   -7.2726 C   0  0  0  0  0  0  0  0  0  0  0  0
   -7.3953   -5.8782   -7.5939 C   0  0  0  0  0  0  0  0  0  0  0  0
   -7.2405   -6.0211   -5.1762 C   0  0  0  0  0  0  0  0  0  0  0  0
   -6.5748   -1.9401   -7.7838 C   0  0  0  0  0  0  0  0  0  0  0  0
   -8.7946   -2.9412   -7.7951 C   0  0  0  0  0  0  0  0  0  0  0  0
   -7.5345   -7.2745   -7.6671 C   0  0  0  0  0  0  0  0  0  0  0  0
   -7.3803   -7.4190   -5.2516 C   0  0  0  0  0  0  0  0  0  0  0  0
   -6.9644   -1.0604   -8.8096 C   0  0  0  0  0  0  0  0  0  0  0  0
   -9.1846   -2.0616   -8.8209 C   0  0  0  0  0  0  0  0  0  0  0  0
   -7.5482   -8.0546   -6.4955 C   0  0  0  0  0  0  0  0  0  0  0  0
   -8.2696   -1.1224   -9.3340 C   0  0  0  0  0  0  0  0  0  0  0  0
   -7.6479   -9.4227   -6.5604 O   0  0  0  0  0  0  0  0  0  0  0  0
   -8.7361   -0.0712  -10.5756 Cl  0  0  0  0  0  0  0  0  0  0  0  0
   -8.9705  -10.0261   -6.6261 C   0  0  2  0  0  0  0  0  0  0  0  0
   -9.7747   -9.7463   -5.3971 C   0  0  0  0  0  0  0  0  0  0  0  0
   -9.2490  -10.0629   -4.1744 O   0  0  0  0  0  0  0  0  0  0  0  0
  -10.9212   -9.2435   -5.4726 O   0  0  0  0  0  0  0  0  0  0  0  0
   -9.8490   -9.9003   -2.8769 C   0  0  2  0  0  0  0  0  0  0  0  0
   -8.9229   -9.0150   -2.0127 C   0  0  0  0  0  0  0  0  0  0  0  0
  -10.0658  -11.2982   -2.2538 C   0  0  0  0  0  0  0  0  0  0  0  0
   -8.6853  -11.5564   -6.6737 C   0  0  0  0  0  0  0  0  0  0  0  0
   -9.7229   -9.6396   -7.9437 C   0  0  0  0  0  0  0  0  0  0  0  0
   -7.3856   -5.3507   -8.4700 H   0  0  0  0  0  0  0  0  0  0  0  0
   -7.1276   -5.5940   -4.2531 H   0  0  0  0  0  0  0  0  0  0  0  0
   -5.6192   -1.8808   -7.4217 H   0  0  0  0  0  0  0  0  0  0  0  0
   -9.4799   -3.6113   -7.4355 H   0  0  0  0  0  0  0  0  0  0  0  0
   -7.6171   -7.7204   -8.5816 H   0  0  0  0  0  0  0  0  0  0  0  0
   -7.3452   -7.9759   -4.3975 H   0  0  0  0  0  0  0  0  0  0  0  0
   -6.2894   -0.3821   -9.1718 H   0  0  0  0  0  0  0  0  0  0  0  0
  -10.1368   -2.1102   -9.1891 H   0  0  0  0  0  0  0  0  0  0  0  0
  -10.8225   -9.4076   -2.9544 H   0  0  0  0  0  0  0  0  0  0  0  0
   -9.3155   -8.9236   -0.9981 H   0  0  0  0  0  0  0  0  0  0  0  0
   -8.8549   -8.0158   -2.4464 H   0  0  0  0  0  0  0  0  0  0  0  0
   -7.9203   -9.4467   -1.9672 H   0  0  0  0  0  0  0  0  0  0  0  0
  -10.5624  -11.2184   -1.2842 H   0  0  0  0  0  0  0  0  0  0  0  0
  -10.6927  -11.9015   -2.9124 H   0  0  0  0  0  0  0  0  0  0  0  0
   -9.1089  -11.8053   -2.1202 H   0  0  0  0  0  0  0  0  0  0  0  0
   -8.1411  -11.8842   -5.7847 H   0  0  0  0  0  0  0  0  0  0  0  0
   -8.0742  -11.8055   -7.5445 H   0  0  0  0  0  0  0  0  0  0  0  0
   -9.6164  -12.1251   -6.7342 H   0  0  0  0  0  0  0  0  0  0  0  0
  -10.0275   -8.5913   -7.9274 H   0  0  0  0  0  0  0  0  0  0  0  0
   -9.0767   -9.7962   -8.8100 H   0  0  0  0  0  0  0  0  0  0  0  0
  -10.6241  -10.2445   -8.0722 H   0  0  0  0  0  0  0  0  0  0  0  0
  1  2  2  0  0  0  0 
  1  3  1  0  0  0  0 
  1  4  1  0  0  0  0 
  3  5  2  0  0  0  0 
  3  6  1  0  0  0  0 
  4  7  2  0  0  0  0 
  4  8  1  0  0  0  0 
  5  9  1  0  0  0  0 
  6 10  2  0  0  0  0 
  7 11  1  0  0  0  0 
  8 12  2  0  0  0  0 
  9 13  2  0  0  0  0 
 10 13  1  0  0  0  0 
 11 14  2  0  0  0  0 
 12 14  1  0  0  0  0 
 13 15  1  0  0  0  0 
 14 16  1  0  0  0  0 
 15 17  1  0  0  0  0 
 17 18  1  0  0  0  0 
 18 19  1  0  0  0  0 
 18 20  2  0  0  0  0 
 19 21  1  0  0  0  0 
 21 22  1  0  0  0  0 
 21 23  1  0  0  0  0 
 17 24  1  0  0  0  0 
 17 25  1  0  0  0  0 
  5 26  1  0  0  0  0 
  6 27  1  0  0  0  0 
  7 28  1  0  0  0  0 
  8 29  1  0  0  0  0 
  9 30  1  0  0  0  0 
 10 31  1  0  0  0  0 
 11 32  1  0  0  0  0 
 12 33  1  0  0  0  0 
 21 34  1  0  0  0  0 
 22 35  1  0  0  0  0 
 22 36  1  0  0  0  0 
 22 37  1  0  0  0  0 
 23 38  1  0  0  0  0 
 23 39  1  0  0  0  0 
 23 40  1  0  0  0  0 
 24 41  1  0  0  0  0 
 24 42  1  0  0  0  0 
 24 43  1  0  0  0  0 
 25 44  1  0  0  0  0 
 25 45  1  0  0  0  0 
 25 46  1  0  0  0  0 
M  END
> <cdk:Title>
fenofibrate

> <Conformer>
1

> <SuperDrugID>
SD001029

$$$$
