salbutamol
  CDK     0628171801

 38 38  0  0  0  0  0  0  0  0999 V2000
    0.7523    0.0392   -0.4279 C   0  0  1  0  0  0  0  0  0  0  0  0
   -0.1186    1.1728   -1.0317 C   0  0  2  0  0  0  0  0  0  0  0  0
    1.0499   -0.9255   -1.4375 O   0  0  0  0  0  0  0  0  0  0  0  0
    2.0113    0.5458    0.1990 C   0  0  0  0  0  0  0  0  0  0  0  0
   -0.5164    2.1636    0.0033 N   0  0  1  0  0  0  0  0  0  0  0  0
    2.0588    0.8178    1.5881 C   0  0  0  0  0  0  0  0  0  0  0  0
    3.1735    0.7886   -0.5724 C   0  0  0  0  0  0  0  0  0  0  0  0
   -1.3345    3.3567   -0.3841 C   0  0  2  0  0  0  0  0  0  0  0  0
    3.2154    1.3562    2.1998 C   0  0  0  0  0  0  0  0  0  0  0  0
    4.3372    1.3027    0.0246 C   0  0  0  0  0  0  0  0  0  0  0  0
   -2.7148    2.9444   -0.9915 C   0  0  0  0  0  0  0  0  0  0  0  0
   -0.5532    4.2848   -1.3690 C   0  0  0  0  0  0  0  0  0  0  0  0
   -1.5889    4.1419    0.9421 C   0  0  0  0  0  0  0  0  0  0  0  0
    3.2000    1.6904    3.6455 C   0  0  2  0  0  0  0  0  0  0  0  0
    4.3595    1.5956    1.3998 C   0  0  0  0  0  0  0  0  0  0  0  0
    2.8367    3.0576    3.7943 O   0  0  0  0  0  0  0  0  0  0  0  0
    5.5062    2.1023    1.9220 O   0  0  0  0  0  0  0  0  0  0  0  0
    0.1446   -0.4888    0.3133 H   0  0  0  0  0  0  0  0  0  0  0  0
   -1.0161    0.7158   -1.4534 H   0  0  0  0  0  0  0  0  0  0  0  0
    0.4333    1.6593   -1.8368 H   0  0  0  0  0  0  0  0  0  0  0  0
    0.1842   -1.1680   -1.8252 H   0  0  0  0  0  0  0  0  0  0  0  0
   -1.0557    1.6497    0.7051 H   0  0  0  0  0  0  0  0  0  0  0  0
    1.2296    0.6323    2.1604 H   0  0  0  0  0  0  0  0  0  0  0  0
    3.1858    0.5878   -1.5760 H   0  0  0  0  0  0  0  0  0  0  0  0
    5.1701    1.4644   -0.5459 H   0  0  0  0  0  0  0  0  0  0  0  0
   -3.2398    2.2512   -0.3286 H   0  0  0  0  0  0  0  0  0  0  0  0
   -2.5893    2.4619   -1.9619 H   0  0  0  0  0  0  0  0  0  0  0  0
   -3.3480    3.8213   -1.1416 H   0  0  0  0  0  0  0  0  0  0  0  0
   -0.4116    3.8037   -2.3383 H   0  0  0  0  0  0  0  0  0  0  0  0
   -1.1029    5.2129   -1.5412 H   0  0  0  0  0  0  0  0  0  0  0  0
    0.4307    4.5360   -0.9624 H   0  0  0  0  0  0  0  0  0  0  0  0
   -2.1829    5.0405    0.7551 H   0  0  0  0  0  0  0  0  0  0  0  0
   -2.1291    3.5244    1.6646 H   0  0  0  0  0  0  0  0  0  0  0  0
   -0.6450    4.4491    1.3994 H   0  0  0  0  0  0  0  0  0  0  0  0
    4.1809    1.5259    4.0961 H   0  0  0  0  0  0  0  0  0  0  0  0
    2.4759    1.0787    4.1896 H   0  0  0  0  0  0  0  0  0  0  0  0
    2.8002    3.2045    4.7630 H   0  0  0  0  0  0  0  0  0  0  0  0
    5.3768    3.0745    1.9133 H   0  0  0  0  0  0  0  0  0  0  0  0
  1  2  1  0  0  0  0 
  1  3  1  0  0  0  0 
  1  4  1  0  0  0  0 
  2  5  1  0  0  0  0 
  4  6  2  0  0  0  0 
  4  7  1  0  0  0  0 
  5  8  1  0  0  0  0 
  6  9  1  0  0  0  0 
  7 10  2  0  0  0  0 
  8 11  1  0  0  0  0 
  8 12  1  0  0  0  0 
  8 13  1  0  0  0  0 
  9 14  1  0  0  0  0 
  9 15  2  0  0  0  0 
 10 15  1  0  0  0  0 
 14 16  1  0  0  0  0 
 15 17  1  0  0  0  0 
  1 18  1  0  0  0  0 
  2 19  1  0  0  0  0 
  2 20  1  0  0  0  0 
  3 21  1  0  0  0  0 
  5 22  1  0  0  0  0 
  6 23  1  0  0  0  0 
  7 24  1  0  0  0  0 
 10 25  1  0  0  0  0 
 11 26  1  0  0  0  0 
 11 27  1  0  0  0  0 
 11 28  1  0  0  0  0 
 12 29  1  0  0  0  0 
 12 30  1  0  0  0  0 
 12 31  1  0  0  0  0 
 13 32  1  0  0  0  0 
 13 33  1  0  0  0  0 
 13 34  1  0  0  0  0 
 14 35  1  0  0  0  0 
 14 36  1  0  0  0  0 
 16 37  1  0  0  0  0 
 17 38  1  0  0  0  0 
M  END
> <cdk:Title>
salbutamol

> <Conformer>
1

> <SuperDrugID>
SD000079

$$$$
