methylhexaneamine
  CDK     0628171801

 25 24  0  0  0  0  0  0  0  0999 V2000
   -1.6229    1.4229   -3.1873 C   0  0  0  0  0  0  0  0  0  0  0  0
   -2.2695    1.8789   -1.8573 C   0  0  1  0  0  0  0  0  0  0  0  0
   -1.4799    1.5131   -0.5544 C   0  0  1  0  0  0  0  0  0  0  0  0
   -2.1669    2.1898    0.6692 C   0  0  0  0  0  0  0  0  0  0  0  0
   -1.3218   -0.0349   -0.3608 C   0  0  2  0  0  0  0  0  0  0  0  0
   -0.4546   -0.5052    0.8467 C   0  0  1  0  0  0  0  0  0  0  0  0
   -0.3452   -2.0497    0.9137 C   0  0  0  0  0  0  0  0  0  0  0  0
    0.8980    0.0707    0.7765 N   0  0  1  0  0  0  0  0  0  0  0  0
   -1.6552    0.3369   -3.2838 H   0  0  0  0  0  0  0  0  0  0  0  0
   -2.1740    1.8510   -4.0272 H   0  0  0  0  0  0  0  0  0  0  0  0
   -0.5865    1.7587   -3.2460 H   0  0  0  0  0  0  0  0  0  0  0  0
   -2.3643    2.9673   -1.9143 H   0  0  0  0  0  0  0  0  0  0  0  0
   -3.2812    1.4641   -1.8023 H   0  0  0  0  0  0  0  0  0  0  0  0
   -0.4804    1.9500   -0.6455 H   0  0  0  0  0  0  0  0  0  0  0  0
   -2.2989    3.2605    0.4926 H   0  0  0  0  0  0  0  0  0  0  0  0
   -1.5584    2.0824    1.5689 H   0  0  0  0  0  0  0  0  0  0  0  0
   -3.1488    1.7474    0.8525 H   0  0  0  0  0  0  0  0  0  0  0  0
   -0.8606   -0.4552   -1.2565 H   0  0  0  0  0  0  0  0  0  0  0  0
   -2.3177   -0.4790   -0.2710 H   0  0  0  0  0  0  0  0  0  0  0  0
   -0.9134   -0.1727    1.7805 H   0  0  0  0  0  0  0  0  0  0  0  0
    0.2449   -2.3462    1.7835 H   0  0  0  0  0  0  0  0  0  0  0  0
   -1.3382   -2.4957    1.0038 H   0  0  0  0  0  0  0  0  0  0  0  0
    0.1359   -2.4428    0.0162 H   0  0  0  0  0  0  0  0  0  0  0  0
    1.4279   -0.3016    1.5677 H   0  0  0  0  0  0  0  0  0  0  0  0
    1.3385   -0.2894   -0.0738 H   0  0  0  0  0  0  0  0  0  0  0  0
  1  2  1  0  0  0  0 
  2  3  1  0  0  0  0 
  3  4  1  0  0  0  0 
  3  5  1  0  0  0  0 
  5  6  1  0  0  0  0 
  6  7  1  0  0  0  0 
  6  8  1  0  0  0  0 
  1  9  1  0  0  0  0 
  1 10  1  0  0  0  0 
  1 11  1  0  0  0  0 
  2 12  1  0  0  0  0 
  2 13  1  0  0  0  0 
  3 14  1  0  0  0  0 
  4 15  1  0  0  0  0 
  4 16  1  0  0  0  0 
  4 17  1  0  0  0  0 
  5 18  1  0  0  0  0 
  5 19  1  0  0  0  0 
  6 20  1  0  0  0  0 
  7 21  1  0  0  0  0 
  7 22  1  0  0  0  0 
  7 23  1  0  0  0  0 
  8 24  1  0  0  0  0 
  8 25  1  0  0  0  0 
M  END
> <cdk:Title>
methylhexaneamine

> <Conformer>
1

> <SuperDrugID>
SD002892

$$$$
