topiramate
  CDK     0628171801

 43 45  0  0  0  0  0  0  0  0999 V2000
   -1.8286   -2.8625    3.9471 O   0  0  0  0  0  0  0  0  0  0  0  0
   -2.4790   -2.9348    5.2254 C   0  0  1  0  0  0  0  0  0  0  0  0
   -1.7170   -3.8701    6.1846 C   0  0  2  0  0  0  0  0  0  0  0  0
   -0.2194   -3.5445    6.2979 C   0  0  2  0  0  0  0  0  0  0  0  0
    0.4540   -2.9962    4.9930 C   0  0  1  0  0  0  0  0  0  0  0  0
   -0.4866   -2.3208    3.9573 C   0  0  2  0  0  0  0  0  0  0  0  0
    0.3716   -4.7931    6.6760 O   0  0  0  0  0  0  0  0  0  0  0  0
   -0.5844   -5.8292    6.3870 C   0  0  2  0  0  0  0  0  0  0  0  0
   -1.7189   -5.2252    5.7439 O   0  0  0  0  0  0  0  0  0  0  0  0
    1.3832   -1.9573    5.3164 O   0  0  0  0  0  0  0  0  0  0  0  0
    0.7395   -0.6961    5.0569 C   0  0  1  0  0  0  0  0  0  0  0  0
   -0.4755   -0.9354    4.3268 O   0  0  0  0  0  0  0  0  0  0  0  0
    0.3824    0.0203    6.3894 C   0  0  0  0  0  0  0  0  0  0  0  0
    1.7090    0.1903    4.2271 C   0  0  0  0  0  0  0  0  0  0  0  0
   -1.0085   -6.5116    7.7170 C   0  0  0  0  0  0  0  0  0  0  0  0
    0.0412   -6.8554    5.4073 C   0  0  0  0  0  0  0  0  0  0  0  0
   -2.1947   -3.8095    7.1688 H   0  0  0  0  0  0  0  0  0  0  0  0
    0.0221   -2.4533    2.4888 C   0  0  2  0  0  0  0  0  0  0  0  0
   -0.7199   -1.5554    1.6464 O   0  0  0  0  0  0  0  0  0  0  0  0
   -0.0348   -1.3374    0.0862 S   0  0  2  0  0  0  0  0  0  0  0  0
   -1.0589   -0.4789   -0.7982 O   0  0  0  0  0  0  0  0  0  0  0  0
    0.2440   -2.7486   -0.6154 O   0  0  0  0  0  0  0  0  0  0  0  0
    1.4648   -0.4485    0.2536 N   0  0  1  0  0  0  0  0  0  0  0  0
   -0.0713   -2.8482    7.1252 H   0  0  0  0  0  0  0  0  0  0  0  0
    1.0045   -3.8108    4.5135 H   0  0  0  0  0  0  0  0  0  0  0  0
   -2.5728   -1.9401    5.6696 H   0  0  0  0  0  0  0  0  0  0  0  0
   -3.4873   -3.3246    5.0720 H   0  0  0  0  0  0  0  0  0  0  0  0
    1.2494    0.0436    7.0547 H   0  0  0  0  0  0  0  0  0  0  0  0
    0.0610    1.0493    6.2055 H   0  0  0  0  0  0  0  0  0  0  0  0
   -0.4310   -0.4960    6.9023 H   0  0  0  0  0  0  0  0  0  0  0  0
    2.5905    0.4513    4.8176 H   0  0  0  0  0  0  0  0  0  0  0  0
    1.2113    1.1114    3.9152 H   0  0  0  0  0  0  0  0  0  0  0  0
    2.0511   -0.3295    3.3331 H   0  0  0  0  0  0  0  0  0  0  0  0
   -1.7522   -7.2865    7.5276 H   0  0  0  0  0  0  0  0  0  0  0  0
   -0.1454   -6.9632    8.2075 H   0  0  0  0  0  0  0  0  0  0  0  0
   -1.4416   -5.7816    8.4011 H   0  0  0  0  0  0  0  0  0  0  0  0
   -0.6559   -7.6732    5.2123 H   0  0  0  0  0  0  0  0  0  0  0  0
    0.9613   -7.2708    5.8231 H   0  0  0  0  0  0  0  0  0  0  0  0
    0.2779   -6.3738    4.4567 H   0  0  0  0  0  0  0  0  0  0  0  0
   -0.1273   -3.4786    2.1404 H   0  0  0  0  0  0  0  0  0  0  0  0
    1.0910   -2.2386    2.4421 H   0  0  0  0  0  0  0  0  0  0  0  0
    2.1398   -1.0952    0.6679 H   0  0  0  0  0  0  0  0  0  0  0  0
    1.7929   -0.2407   -0.6915 H   0  0  0  0  0  0  0  0  0  0  0  0
  1  2  1  0  0  0  0 
  1  6  1  0  0  0  0 
  2  3  1  0  0  0  0 
  3  4  1  0  0  0  0 
  4  5  1  0  0  0  0 
  5  6  1  0  0  0  0 
  7  8  1  0  0  0  0 
  8  9  1  0  0  0  0 
  3  9  1  0  0  0  0 
  4  7  1  0  0  0  0 
 10 11  1  0  0  0  0 
 11 12  1  0  0  0  0 
  5 10  1  0  0  0  0 
  6 12  1  0  0  0  0 
 11 13  1  0  0  0  0 
 11 14  1  0  0  0  0 
  8 15  1  0  0  0  0 
  8 16  1  0  0  0  0 
  3 17  1  0  0  0  0 
  6 18  1  0  0  0  0 
 18 19  1  0  0  0  0 
 19 20  1  0  0  0  0 
 20 21  2  0  0  0  0 
 20 22  2  0  0  0  0 
 20 23  1  0  0  0  0 
  4 24  1  0  0  0  0 
  5 25  1  0  0  0  0 
  2 26  1  0  0  0  0 
  2 27  1  0  0  0  0 
 13 28  1  0  0  0  0 
 13 29  1  0  0  0  0 
 13 30  1  0  0  0  0 
 14 31  1  0  0  0  0 
 14 32  1  0  0  0  0 
 14 33  1  0  0  0  0 
 15 34  1  0  0  0  0 
 15 35  1  0  0  0  0 
 15 36  1  0  0  0  0 
 16 37  1  0  0  0  0 
 16 38  1  0  0  0  0 
 16 39  1  0  0  0  0 
 18 40  1  0  0  0  0 
 18 41  1  0  0  0  0 
 23 42  1  0  0  0  0 
 23 43  1  0  0  0  0 
M  END
> <cdk:Title>
topiramate

> <Conformer>
1

> <SuperDrugID>
SD002437

$$$$
