calcitriol
  CDK     0628171802

 74 76  0  0  0  0  0  0  0  0999 V2000
    6.0201   -7.3279    2.0861 C   0  0  0  0  0  0  0  0  0  0  0  0
    7.5781   -7.2799    1.8414 C   0  0  2  0  0  0  0  0  0  0  0  0
    7.9902   -6.1209    0.8613 C   0  0  2  0  0  0  0  0  0  0  0  0
    8.0820   -8.5497    1.0480 C   0  0  1  0  0  0  0  0  0  0  0  0
    8.3371   -7.0078    3.1949 C   0  0  1  0  0  0  0  0  0  0  0  0
    7.5751   -4.8023    1.3963 C   0  0  0  0  0  0  0  0  0  0  0  0
    7.5603   -6.6456   -0.5271 C   0  0  1  0  0  0  0  0  0  0  0  0
    7.5245   -9.9821    1.4116 C   0  0  1  0  0  0  0  0  0  0  0  0
    7.8450   -8.1624   -0.4512 C   0  0  1  0  0  0  0  0  0  0  0  0
    8.0894   -5.5693    3.7424 C   0  0  1  0  0  0  0  0  0  0  0  0
    6.6129   -4.0557    0.8003 C   0  0  0  0  0  0  0  0  0  0  0  0
    8.2715   -4.4688    2.6581 C   0  0  2  0  0  0  0  0  0  0  0  0
    8.1204  -11.1182    0.5032 C   0  0  1  0  0  0  0  0  0  0  0  0
    7.6447  -10.3767    2.9178 C   0  0  0  0  0  0  0  0  0  0  0  0
    5.9862   -2.9398    1.2853 C   0  0  0  0  0  0  0  0  0  0  0  0
    9.6218  -11.4858    0.7209 C   0  0  1  0  0  0  0  0  0  0  0  0
    4.8584   -2.3719    0.7921 C   0  0  0  0  0  0  0  0  0  0  0  0
    9.9960  -12.7156   -0.2149 C   0  0  2  0  0  0  0  0  0  0  0  0
    4.1870   -2.7909   -0.3386 C   0  0  0  0  0  0  0  0  0  0  0  0
    4.2681   -1.1804    1.4233 C   0  0  2  0  0  0  0  0  0  0  0  0
   11.4555  -13.2551   -0.0670 C   0  0  2  0  0  0  0  0  0  0  0  0
    3.5695   -3.9855   -0.3885 C   0  0  0  0  0  0  0  0  0  0  0  0
    4.1372   -1.8089   -1.4357 C   0  0  1  0  0  0  0  0  0  0  0  0
    4.1622   -0.0043    0.4105 C   0  0  2  0  0  0  0  0  0  0  0  0
   11.7098  -14.3845   -1.1089 C   0  0  0  0  0  0  0  0  0  0  0  0
   11.7571  -13.7805    1.3672 C   0  0  0  0  0  0  0  0  0  0  0  0
   12.3709  -12.1956   -0.3543 O   0  0  0  0  0  0  0  0  0  0  0  0
    3.4060   -2.2226   -2.5920 O   0  0  0  0  0  0  0  0  0  0  0  0
    3.5185   -0.4732   -0.9277 C   0  0  1  0  0  0  0  0  0  0  0  0
    5.4623    0.5354    0.1749 O   0  0  0  0  0  0  0  0  0  0  0  0
    9.0873   -6.0810    0.7902 H   0  0  0  0  0  0  0  0  0  0  0  0
    9.1656   -8.6100    1.1902 H   0  0  0  0  0  0  0  0  0  0  0  0
    5.6238   -6.3643    2.3991 H   0  0  0  0  0  0  0  0  0  0  0  0
    5.7604   -8.0378    2.8658 H   0  0  0  0  0  0  0  0  0  0  0  0
    5.4796   -7.6202    1.1854 H   0  0  0  0  0  0  0  0  0  0  0  0
    8.0443   -7.7260    3.9631 H   0  0  0  0  0  0  0  0  0  0  0  0
    9.4157   -7.1215    3.0417 H   0  0  0  0  0  0  0  0  0  0  0  0
    6.4953   -6.4924   -0.7141 H   0  0  0  0  0  0  0  0  0  0  0  0
    8.1298   -6.1673   -1.3281 H   0  0  0  0  0  0  0  0  0  0  0  0
    6.4518   -9.9682    1.1933 H   0  0  0  0  0  0  0  0  0  0  0  0
    8.7265   -8.4126   -1.0488 H   0  0  0  0  0  0  0  0  0  0  0  0
    6.9931   -8.7001   -0.8768 H   0  0  0  0  0  0  0  0  0  0  0  0
    7.0778   -5.5006    4.1490 H   0  0  0  0  0  0  0  0  0  0  0  0
    8.7818   -5.3755    4.5671 H   0  0  0  0  0  0  0  0  0  0  0  0
    6.2916   -4.3717   -0.0782 H   0  0  0  0  0  0  0  0  0  0  0  0
    7.9721   -3.5224    3.0971 H   0  0  0  0  0  0  0  0  0  0  0  0
    9.3385   -4.3594    2.4416 H   0  0  0  0  0  0  0  0  0  0  0  0
    7.5178  -12.0154    0.6665 H   0  0  0  0  0  0  0  0  0  0  0  0
    7.9794  -10.8602   -0.5484 H   0  0  0  0  0  0  0  0  0  0  0  0
    6.9221   -9.8451    3.5328 H   0  0  0  0  0  0  0  0  0  0  0  0
    8.6454  -10.1654    3.2961 H   0  0  0  0  0  0  0  0  0  0  0  0
    7.4485  -11.4419    3.0599 H   0  0  0  0  0  0  0  0  0  0  0  0
    6.3755   -2.5048    2.0821 H   0  0  0  0  0  0  0  0  0  0  0  0
   10.2268  -10.6137    0.3212 H   0  0  0  0  0  0  0  0  0  0  0  0
    9.7352  -11.6948    1.8585 H   0  0  0  0  0  0  0  0  0  0  0  0
    9.8346  -12.4148   -1.2532 H   0  0  0  0  0  0  0  0  0  0  0  0
    9.3034  -13.5340   -0.0012 H   0  0  0  0  0  0  0  0  0  0  0  0
    4.8313   -0.8385    2.2967 H   0  0  0  0  0  0  0  0  0  0  0  0
    3.2660   -1.4337    1.7822 H   0  0  0  0  0  0  0  0  0  0  0  0
    3.5946   -4.6148    0.3784 H   0  0  0  0  0  0  0  0  0  0  0  0
    3.0660   -4.2765   -1.1917 H   0  0  0  0  0  0  0  0  0  0  0  0
    5.1593   -1.6141   -1.7721 H   0  0  0  0  0  0  0  0  0  0  0  0
    3.5502    0.7888    0.8478 H   0  0  0  0  0  0  0  0  0  0  0  0
   11.5196  -14.0241   -2.1217 H   0  0  0  0  0  0  0  0  0  0  0  0
   11.0591  -15.2405   -0.9199 H   0  0  0  0  0  0  0  0  0  0  0  0
   12.7463  -14.7242   -1.0649 H   0  0  0  0  0  0  0  0  0  0  0  0
   12.7480  -14.2370    1.4107 H   0  0  0  0  0  0  0  0  0  0  0  0
   11.0211  -14.5282    1.6670 H   0  0  0  0  0  0  0  0  0  0  0  0
   11.7400  -12.9671    2.0927 H   0  0  0  0  0  0  0  0  0  0  0  0
   13.2616  -12.6038   -0.3031 H   0  0  0  0  0  0  0  0  0  0  0  0
    3.8703   -3.0202   -2.9233 H   0  0  0  0  0  0  0  0  0  0  0  0
    3.6436    0.3035   -1.6857 H   0  0  0  0  0  0  0  0  0  0  0  0
    2.4459   -0.6138   -0.7696 H   0  0  0  0  0  0  0  0  0  0  0  0
    5.3166    1.3160   -0.4000 H   0  0  0  0  0  0  0  0  0  0  0  0
  2  1  1  0  0  0  0 
  2  3  1  0  0  0  0 
  4  2  1  0  0  0  0 
  2  5  1  0  0  0  0 
  3  6  1  0  0  0  0 
  3  7  1  0  0  0  0 
  3 31  1  0  0  0  0 
  8  4  1  0  0  0  0 
  4  9  1  0  0  0  0 
  4 32  1  0  0  0  0 
  5 10  1  0  0  0  0 
  6 11  2  0  0  0  0 
  6 12  1  0  0  0  0 
  7  9  1  0  0  0  0 
  8 13  1  0  0  0  0 
  8 14  1  0  0  0  0 
 10 12  1  0  0  0  0 
 11 15  1  0  0  0  0 
 13 16  1  0  0  0  0 
 15 17  2  0  0  0  0 
 16 18  1  0  0  0  0 
 17 19  1  0  0  0  0 
 17 20  1  0  0  0  0 
 18 21  1  0  0  0  0 
 19 22  2  0  0  0  0 
 23 19  1  0  0  0  0 
 24 20  1  0  0  0  0 
 21 25  1  0  0  0  0 
 21 26  1  0  0  0  0 
 21 27  1  0  0  0  0 
 23 28  1  0  0  0  0 
 23 29  1  0  0  0  0 
 24 29  1  0  0  0  0 
 24 30  1  0  0  0  0 
  1 33  1  0  0  0  0 
  1 34  1  0  0  0  0 
  1 35  1  0  0  0  0 
  5 36  1  0  0  0  0 
  5 37  1  0  0  0  0 
  7 38  1  0  0  0  0 
  7 39  1  0  0  0  0 
  8 40  1  0  0  0  0 
  9 41  1  0  0  0  0 
  9 42  1  0  0  0  0 
 10 43  1  0  0  0  0 
 10 44  1  0  0  0  0 
 11 45  1  0  0  0  0 
 12 46  1  0  0  0  0 
 12 47  1  0  0  0  0 
 13 48  1  0  0  0  0 
 13 49  1  0  0  0  0 
 14 50  1  0  0  0  0 
 14 51  1  0  0  0  0 
 14 52  1  0  0  0  0 
 15 53  1  0  0  0  0 
 16 54  1  0  0  0  0 
 16 55  1  0  0  0  0 
 18 56  1  0  0  0  0 
 18 57  1  0  0  0  0 
 20 58  1  0  0  0  0 
 20 59  1  0  0  0  0 
 22 60  1  0  0  0  0 
 22 61  1  0  0  0  0 
 23 62  1  0  0  0  0 
 24 63  1  0  0  0  0 
 25 64  1  0  0  0  0 
 25 65  1  0  0  0  0 
 25 66  1  0  0  0  0 
 26 67  1  0  0  0  0 
 26 68  1  0  0  0  0 
 26 69  1  0  0  0  0 
 27 70  1  0  0  0  0 
 28 71  1  0  0  0  0 
 29 72  1  0  0  0  0 
 29 73  1  0  0  0  0 
 30 74  1  0  0  0  0 
M  END
> <cdk:Title>
calcitriol

> <Conformer>
1

> <SuperDrugID>
SD000406

$$$$
