flosulide
  Mrv0541 09131710103D              84.48682

 37 39  0  0  0  0            999 V2000
   -3.9157    6.0029    2.2123 C   0  0  0  0  0  0  0  0  0  0  0  0
   -5.2037    5.6574    0.9620 S   0  0  2  0  0  0  0  0  0  0  0  0
   -5.9694    7.0095    0.5675 O   0  0  0  0  0  0  0  0  0  0  0  0
   -6.2579    4.6202    1.5855 O   0  0  0  0  0  0  0  0  0  0  0  0
   -4.5147    4.9418   -0.4361 N   0  0  0  0  0  0  0  0  0  0  0  0
   -3.3827    5.3349   -1.0806 C   0  0  0  0  0  0  0  0  0  0  0  0
   -2.8948    6.6662   -1.0390 C   0  0  0  0  0  0  0  0  0  0  0  0
   -1.7016    6.9917   -1.7088 C   0  0  0  0  0  0  0  0  0  0  0  0
   -1.0032    8.2829   -1.7258 C   0  0  1  0  0  0  0  0  0  0  0  0
    0.2473    8.0068   -2.6029 C   0  0  1  0  0  0  0  0  0  0  0  0
    0.1091    6.6026   -3.0136 C   0  0  0  0  0  0  0  0  0  0  0  0
    0.9343    6.0052   -3.7425 O   0  0  0  0  0  0  0  0  0  0  0  0
   -1.0323    6.0336   -2.4631 C   0  0  0  0  0  0  0  0  0  0  0  0
   -1.5221    4.7182   -2.5601 C   0  0  0  0  0  0  0  0  0  0  0  0
   -2.6810    4.3536   -1.8352 C   0  0  0  0  0  0  0  0  0  0  0  0
   -3.1218    3.0498   -1.9047 O   0  0  0  0  0  0  0  0  0  0  0  0
   -2.6687    2.2278   -0.8943 C   0  0  0  0  0  0  0  0  0  0  0  0
   -1.3285    1.7764   -0.8631 C   0  0  0  0  0  0  0  0  0  0  0  0
   -0.8924    0.8763    0.1270 C   0  0  0  0  0  0  0  0  0  0  0  0
   -1.7943    0.4095    1.0998 C   0  0  0  0  0  0  0  0  0  0  0  0
   -1.3922   -0.4307    2.0140 F   0  0  0  0  0  0  0  0  0  0  0  0
   -3.1314    0.8466    1.0809 C   0  0  0  0  0  0  0  0  0  0  0  0
   -3.5677    1.7440    0.0868 C   0  0  0  0  0  0  0  0  0  0  0  0
   -4.8249    2.0903    0.0799 F   0  0  0  0  0  0  0  0  0  0  0  0
   -4.3923    6.2480    3.1624 H   0  0  0  0  0  0  0  0  0  0  0  0
   -3.3058    6.8450    1.8860 H   0  0  0  0  0  0  0  0  0  0  0  0
   -3.2851    5.1208    2.3367 H   0  0  0  0  0  0  0  0  0  0  0  0
   -4.9554    4.1448   -0.7687 H   0  0  0  0  0  0  0  0  0  0  0  0
   -3.3964    7.3992   -0.5353 H   0  0  0  0  0  0  0  0  0  0  0  0
   -1.6335    9.0593   -2.1666 H   0  0  0  0  0  0  0  0  0  0  0  0
   -0.7189    8.5701   -0.7107 H   0  0  0  0  0  0  0  0  0  0  0  0
    0.2643    8.6578   -3.4800 H   0  0  0  0  0  0  0  0  0  0  0  0
    1.1711    8.1387   -2.0325 H   0  0  0  0  0  0  0  0  0  0  0  0
   -1.0358    4.0323   -3.1402 H   0  0  0  0  0  0  0  0  0  0  0  0
   -0.6662    2.0895   -1.5735 H   0  0  0  0  0  0  0  0  0  0  0  0
    0.0793    0.5554    0.1314 H   0  0  0  0  0  0  0  0  0  0  0  0
   -3.7875    0.5022    1.7873 H   0  0  0  0  0  0  0  0  0  0  0  0
  1  2  1  0  0  0  0
  2  3  2  0  0  0  0
  2  4  2  0  0  0  0
  2  5  1  0  0  0  0
  5  6  1  0  0  0  0
  6  7  2  0  0  0  0
  7  8  1  0  0  0  0
  8  9  1  0  0  0  0
  9 10  1  0  0  0  0
 10 11  1  0  0  0  0
 11 12  2  0  0  0  0
 11 13  1  0  0  0  0
 13 14  1  0  0  0  0
 14 15  2  0  0  0  0
 15 16  1  0  0  0  0
 16 17  1  0  0  0  0
 17 18  2  0  0  0  0
 18 19  1  0  0  0  0
 19 20  2  0  0  0  0
 20 21  1  0  0  0  0
 20 22  1  0  0  0  0
 22 23  2  0  0  0  0
 23 24  1  0  0  0  0
 15  6  1  0  0  0  0
 13  8  2  0  0  0  0
 23 17  1  0  0  0  0
  1 25  1  0  0  0  0
  1 26  1  0  0  0  0
  1 27  1  0  0  0  0
  5 28  1  0  0  0  0
  7 29  1  0  0  0  0
  9 30  1  0  0  0  0
  9 31  1  0  0  0  0
 10 32  1  0  0  0  0
 10 33  1  0  0  0  0
 14 34  1  0  0  0  0
 18 35  1  0  0  0  0
 19 36  1  0  0  0  0
 22 37  1  0  0  0  0
M  END
>  <SuperDrugID>
SD006027

>  <_MOLCOUNT>
1

$$$$
