cytisine
  CDK     0628171802

 28 30  0  0  0  0  0  0  0  0999 V2000
   -2.7599    0.0251   -0.1511 C   0  0  0  0  0  0  0  0  0  0  0  0
   -2.0464   -1.1912   -0.0437 C   0  0  0  0  0  0  0  0  0  0  0  0
   -0.6802   -1.1759    0.1882 N   0  0  0  0  0  0  0  0  0  0  0  0
   -0.0194    0.0249    0.3481 C   0  0  0  0  0  0  0  0  0  0  0  0
   -0.7082    1.2490    0.2627 C   0  0  0  0  0  0  0  0  0  0  0  0
   -2.0842    1.2422    0.0045 C   0  0  0  0  0  0  0  0  0  0  0  0
   -2.8047   -2.4694   -0.2267 C   0  0  1  0  0  0  0  0  0  0  0  0
   -2.8870   -2.8128   -1.7438 C   0  0  1  0  0  0  0  0  0  0  0  0
   -1.5334   -3.0252   -2.3132 N   0  0  1  0  0  0  0  0  0  0  0  0
   -0.7272   -4.0277   -1.5736 C   0  0  2  0  0  0  0  0  0  0  0  0
   -0.6650   -3.7384   -0.0405 C   0  0  1  0  0  0  0  0  0  0  0  0
    0.0870   -2.4122    0.3006 C   0  0  2  0  0  0  0  0  0  0  0  0
    1.2132    0.0898    0.5790 O   0  0  0  0  0  0  0  0  0  0  0  0
   -3.8183   -2.3732    0.1769 H   0  0  0  0  0  0  0  0  0  0  0  0
   -0.1492   -4.5740    0.4444 H   0  0  0  0  0  0  0  0  0  0  0  0
   -2.1051   -3.6361    0.5227 C   0  0  2  0  0  0  0  0  0  0  0  0
   -3.7673    0.0326   -0.3407 H   0  0  0  0  0  0  0  0  0  0  0  0
   -0.2177    2.1382    0.3940 H   0  0  0  0  0  0  0  0  0  0  0  0
   -2.5975    2.1236   -0.0658 H   0  0  0  0  0  0  0  0  0  0  0  0
   -3.4902   -3.7126   -1.8949 H   0  0  0  0  0  0  0  0  0  0  0  0
   -3.3698   -1.9986   -2.2896 H   0  0  0  0  0  0  0  0  0  0  0  0
   -1.6535   -3.3696   -3.2674 H   0  0  0  0  0  0  0  0  0  0  0  0
    0.2808   -4.0357   -1.9924 H   0  0  0  0  0  0  0  0  0  0  0  0
   -1.1568   -5.0184   -1.7428 H   0  0  0  0  0  0  0  0  0  0  0  0
    0.4292   -2.4873    1.3373 H   0  0  0  0  0  0  0  0  0  0  0  0
    0.9816   -2.3570   -0.3287 H   0  0  0  0  0  0  0  0  0  0  0  0
   -2.6462   -4.5751    0.3664 H   0  0  0  0  0  0  0  0  0  0  0  0
   -2.0867   -3.4429    1.6005 H   0  0  0  0  0  0  0  0  0  0  0  0
  1  2  2  0  0  0  0 
  1  6  1  0  0  0  0 
  2  3  1  0  0  0  0 
  3  4  1  0  0  0  0 
  4  5  1  0  0  0  0 
  5  6  2  0  0  0  0 
  7  8  1  0  0  0  0 
  8  9  1  0  0  0  0 
  9 10  1  0  0  0  0 
 10 11  1  0  0  0  0 
 11 12  1  0  0  0  0 
  2  7  1  0  0  0  0 
 12  3  1  0  0  0  0 
  4 13  2  0  0  0  0 
  7 14  1  0  0  0  0 
 11 15  1  0  0  0  0 
  7 16  1  0  0  0  0 
 11 16  1  0  0  0  0 
  1 17  1  0  0  0  0 
  5 18  1  0  0  0  0 
  6 19  1  0  0  0  0 
  8 20  1  0  0  0  0 
  8 21  1  0  0  0  0 
  9 22  1  0  0  0  0 
 10 23  1  0  0  0  0 
 10 24  1  0  0  0  0 
 12 25  1  0  0  0  0 
 12 26  1  0  0  0  0 
 16 27  1  0  0  0  0 
 16 28  1  0  0  0  0 
M  END
> <cdk:Title>
cytisine

> <Conformer>
1

> <SuperDrugID>
SD003944

$$$$
