flumecinol
  CDK     0628171801

 35 36  0  0  0  0  0  0  0  0999 V2000
    1.8458    1.4559    0.0935 C   0  0  1  0  0  0  0  0  0  0  0  0
    0.8339    0.2780    0.3582 C   0  0  1  0  0  0  0  0  0  0  0  0
    1.3403    2.0511   -1.1112 O   0  0  0  0  0  0  0  0  0  0  0  0
    1.8636    2.5437    1.1484 C   0  0  0  0  0  0  0  0  0  0  0  0
    3.2430    0.9205   -0.0897 C   0  0  0  0  0  0  0  0  0  0  0  0
    0.7516   -0.8130   -0.7403 C   0  0  0  0  0  0  0  0  0  0  0  0
    1.6289    2.2632    2.5187 C   0  0  0  0  0  0  0  0  0  0  0  0
    2.1660    3.8917    0.8167 C   0  0  0  0  0  0  0  0  0  0  0  0
    3.9070    0.2750    0.9866 C   0  0  0  0  0  0  0  0  0  0  0  0
    3.9336    1.0068   -1.3272 C   0  0  0  0  0  0  0  0  0  0  0  0
    1.6744    3.2571    3.5240 C   0  0  0  0  0  0  0  0  0  0  0  0
    2.2072    4.9005    1.7948 C   0  0  0  0  0  0  0  0  0  0  0  0
    5.1926   -0.2726    0.8340 C   0  0  0  0  0  0  0  0  0  0  0  0
    5.2184    0.4539   -1.4852 C   0  0  0  0  0  0  0  0  0  0  0  0
    1.4266    2.8636    4.9384 C   0  0  2  0  0  0  0  0  0  0  0  0
    1.9619    4.5866    3.1395 C   0  0  0  0  0  0  0  0  0  0  0  0
    5.8457   -0.1884   -0.4051 C   0  0  0  0  0  0  0  0  0  0  0  0
    2.3620    1.9373    5.3328 F   0  0  0  0  0  0  0  0  0  0  0  0
    0.1797    2.2979    5.0546 F   0  0  0  0  0  0  0  0  0  0  0  0
    1.4840    3.9013    5.8375 F   0  0  0  0  0  0  0  0  0  0  0  0
    1.0823   -0.2514    1.2782 H   0  0  0  0  0  0  0  0  0  0  0  0
   -0.1690    0.6944    0.4880 H   0  0  0  0  0  0  0  0  0  0  0  0
    0.4548    2.4018   -0.8755 H   0  0  0  0  0  0  0  0  0  0  0  0
    0.4323   -0.3871   -1.6909 H   0  0  0  0  0  0  0  0  0  0  0  0
    0.0292   -1.5770   -0.4462 H   0  0  0  0  0  0  0  0  0  0  0  0
    1.7165   -1.3026   -0.8775 H   0  0  0  0  0  0  0  0  0  0  0  0
    1.4299    1.3075    2.8118 H   0  0  0  0  0  0  0  0  0  0  0  0
    2.3635    4.1572   -0.1499 H   0  0  0  0  0  0  0  0  0  0  0  0
    3.4593    0.1894    1.8997 H   0  0  0  0  0  0  0  0  0  0  0  0
    3.5119    1.4662   -2.1364 H   0  0  0  0  0  0  0  0  0  0  0  0
    2.4186    5.8662    1.5309 H   0  0  0  0  0  0  0  0  0  0  0  0
    5.6479   -0.7327    1.6257 H   0  0  0  0  0  0  0  0  0  0  0  0
    5.6949    0.5188   -2.3875 H   0  0  0  0  0  0  0  0  0  0  0  0
    1.9983    5.3376    3.8312 H   0  0  0  0  0  0  0  0  0  0  0  0
    6.7767   -0.5931   -0.5198 H   0  0  0  0  0  0  0  0  0  0  0  0
  1  2  1  0  0  0  0 
  1  3  1  0  0  0  0 
  1  4  1  0  0  0  0 
  1  5  1  0  0  0  0 
  2  6  1  0  0  0  0 
  4  7  2  0  0  0  0 
  4  8  1  0  0  0  0 
  5  9  2  0  0  0  0 
  5 10  1  0  0  0  0 
  7 11  1  0  0  0  0 
  8 12  2  0  0  0  0 
  9 13  1  0  0  0  0 
 10 14  2  0  0  0  0 
 11 15  1  0  0  0  0 
 11 16  2  0  0  0  0 
 12 16  1  0  0  0  0 
 13 17  2  0  0  0  0 
 14 17  1  0  0  0  0 
 15 18  1  0  0  0  0 
 15 19  1  0  0  0  0 
 15 20  1  0  0  0  0 
  2 21  1  0  0  0  0 
  2 22  1  0  0  0  0 
  3 23  1  0  0  0  0 
  6 24  1  0  0  0  0 
  6 25  1  0  0  0  0 
  6 26  1  0  0  0  0 
  7 27  1  0  0  0  0 
  8 28  1  0  0  0  0 
  9 29  1  0  0  0  0 
 10 30  1  0  0  0  0 
 12 31  1  0  0  0  0 
 13 32  1  0  0  0  0 
 14 33  1  0  0  0  0 
 16 34  1  0  0  0  0 
 17 35  1  0  0  0  0 
M  END
> <cdk:Title>
flumecinol

> <Conformer>
1

> <SuperDrugID>
SD001070

$$$$
