mechlorethamine
  CDK     0628171801

 19 18  0  0  0  0  0  0  0  0999 V2000
    0.3731    0.1870    2.1807 C   0  0  0  0  0  0  0  0  0  0  0  0
   -0.8990    0.5328    1.4813 N   0  0  1  0  0  0  0  0  0  0  0  0
   -2.1371    0.1640    2.2452 C   0  0  2  0  0  0  0  0  0  0  0  0
   -2.3676    0.9342    3.5706 C   0  0  1  0  0  0  0  0  0  0  0  0
   -3.9241    0.5120    4.2791 Cl  0  0  0  0  0  0  0  0  0  0  0  0
   -0.9360    1.8841    0.8322 C   0  0  1  0  0  0  0  0  0  0  0  0
    0.1129    2.0703   -0.2930 C   0  0  1  0  0  0  0  0  0  0  0  0
   -0.1149    3.5958   -1.1448 Cl  0  0  0  0  0  0  0  0  0  0  0  0
    0.6125    0.9230    2.9517 H   0  0  0  0  0  0  0  0  0  0  0  0
    1.1973    0.1430    1.4688 H   0  0  0  0  0  0  0  0  0  0  0  0
    0.3087   -0.7984    2.6469 H   0  0  0  0  0  0  0  0  0  0  0  0
   -2.1000   -0.9053    2.4685 H   0  0  0  0  0  0  0  0  0  0  0  0
   -3.0040    0.3066    1.5948 H   0  0  0  0  0  0  0  0  0  0  0  0
   -1.5893    0.6849    4.2951 H   0  0  0  0  0  0  0  0  0  0  0  0
   -2.3542    2.0112    3.4022 H   0  0  0  0  0  0  0  0  0  0  0  0
   -1.9192    2.0308    0.3761 H   0  0  0  0  0  0  0  0  0  0  0  0
   -0.7994    2.6665    1.5842 H   0  0  0  0  0  0  0  0  0  0  0  0
    1.1215    2.0776    0.1200 H   0  0  0  0  0  0  0  0  0  0  0  0
    0.0320    1.2543   -1.0139 H   0  0  0  0  0  0  0  0  0  0  0  0
  1  2  1  0  0  0  0 
  2  3  1  0  0  0  0 
  3  4  1  0  0  0  0 
  4  5  1  0  0  0  0 
  2  6  1  0  0  0  0 
  6  7  1  0  0  0  0 
  7  8  1  0  0  0  0 
  1  9  1  0  0  0  0 
  1 10  1  0  0  0  0 
  1 11  1  0  0  0  0 
  3 12  1  0  0  0  0 
  3 13  1  0  0  0  0 
  4 14  1  0  0  0  0 
  4 15  1  0  0  0  0 
  6 16  1  0  0  0  0 
  6 17  1  0  0  0  0 
  7 18  1  0  0  0  0 
  7 19  1  0  0  0  0 
M  END
> <cdk:Title>
mechlorethamine

> <Conformer>
1

> <SuperDrugID>
SD001457

$$$$
