azintamide
  CDK     0628171801

 30 30  0  0  0  0  0  0  0  0999 V2000
    0.8810   -1.7634   -2.3811 S   0  0  0  0  0  0  0  0  0  0  0  0
    0.4411   -1.5548   -0.6170 C   0  0  2  0  0  0  0  0  0  0  0  0
    0.5853   -3.4642   -2.6913 C   0  0  0  0  0  0  0  0  0  0  0  0
    0.4433   -0.1604   -0.0991 C   0  0  0  0  0  0  0  0  0  0  0  0
    1.3014   -4.4773   -2.0269 C   0  0  0  0  0  0  0  0  0  0  0  0
   -0.3658   -3.8259   -3.5901 N   0  0  0  0  0  0  0  0  0  0  0  0
    0.0602    0.1793    1.2013 N   0  0  0  0  0  0  0  0  0  0  0  0
    0.8096    0.7448   -0.8891 O   0  0  0  0  0  0  0  0  0  0  0  0
    1.0006   -5.8211   -2.3076 C   0  0  0  0  0  0  0  0  0  0  0  0
   -0.6448   -5.0789   -3.8551 N   0  0  0  0  0  0  0  0  0  0  0  0
    0.1023    1.5675    1.6361 C   0  0  1  0  0  0  0  0  0  0  0  0
   -0.3981   -0.8127    2.1636 C   0  0  1  0  0  0  0  0  0  0  0  0
   -0.0029   -6.1116   -3.2500 C   0  0  0  0  0  0  0  0  0  0  0  0
    1.5218    1.9838    2.0849 C   0  0  0  0  0  0  0  0  0  0  0  0
   -1.9238   -1.0412    2.0688 C   0  0  0  0  0  0  0  0  0  0  0  0
   -0.4218   -7.7033   -3.6345 Cl  0  0  0  0  0  0  0  0  0  0  0  0
    1.1414   -2.1491   -0.0287 H   0  0  0  0  0  0  0  0  0  0  0  0
   -0.5571   -1.9713   -0.4961 H   0  0  0  0  0  0  0  0  0  0  0  0
    2.0312   -4.2479   -1.3503 H   0  0  0  0  0  0  0  0  0  0  0  0
    1.5067   -6.5719   -1.8329 H   0  0  0  0  0  0  0  0  0  0  0  0
   -0.2300    2.2354    0.8353 H   0  0  0  0  0  0  0  0  0  0  0  0
   -0.5860    1.7455    2.4696 H   0  0  0  0  0  0  0  0  0  0  0  0
    0.1133   -1.7693    2.0390 H   0  0  0  0  0  0  0  0  0  0  0  0
   -0.1649   -0.4998    3.1872 H   0  0  0  0  0  0  0  0  0  0  0  0
    1.5184    3.0315    2.3958 H   0  0  0  0  0  0  0  0  0  0  0  0
    1.8524    1.3660    2.9232 H   0  0  0  0  0  0  0  0  0  0  0  0
    2.2333    1.8670    1.2654 H   0  0  0  0  0  0  0  0  0  0  0  0
   -2.2346   -1.7920    2.7996 H   0  0  0  0  0  0  0  0  0  0  0  0
   -2.4568   -0.1102    2.2706 H   0  0  0  0  0  0  0  0  0  0  0  0
   -2.2073   -1.3900    1.0751 H   0  0  0  0  0  0  0  0  0  0  0  0
  1  2  1  0  0  0  0 
  1  3  1  0  0  0  0 
  2  4  1  0  0  0  0 
  3  5  2  0  0  0  0 
  3  6  1  0  0  0  0 
  4  7  1  0  0  0  0 
  4  8  2  0  0  0  0 
  5  9  1  0  0  0  0 
  6 10  2  0  0  0  0 
  7 11  1  0  0  0  0 
  7 12  1  0  0  0  0 
  9 13  2  0  0  0  0 
 10 13  1  0  0  0  0 
 11 14  1  0  0  0  0 
 12 15  1  0  0  0  0 
 13 16  1  0  0  0  0 
  2 17  1  0  0  0  0 
  2 18  1  0  0  0  0 
  5 19  1  0  0  0  0 
  9 20  1  0  0  0  0 
 11 21  1  0  0  0  0 
 11 22  1  0  0  0  0 
 12 23  1  0  0  0  0 
 12 24  1  0  0  0  0 
 14 25  1  0  0  0  0 
 14 26  1  0  0  0  0 
 14 27  1  0  0  0  0 
 15 28  1  0  0  0  0 
 15 29  1  0  0  0  0 
 15 30  1  0  0  0  0 
M  END
> <cdk:Title>
azintamide

> <Conformer>
1

> <SuperDrugID>
SD000229

$$$$
