chlorthenoxazine
  CDK     0628171801

 24 25  0  0  0  0  0  0  0  0999 V2000
    1.7387    0.1344    0.0714 Cl  0  0  0  0  0  0  0  0  0  0  0  0
    0.1983   -0.1333   -0.7379 C   0  0  1  0  0  0  0  0  0  0  0  0
   -0.6511    1.1630   -0.7445 C   0  0  1  0  0  0  0  0  0  0  0  0
   -2.0118    0.9960   -1.4657 C   0  0  1  0  0  0  0  0  0  0  0  0
   -2.8064    2.1853   -1.3178 N   0  0  0  0  0  0  0  0  0  0  0  0
   -3.7077    2.5613   -2.2617 C   0  0  0  0  0  0  0  0  0  0  0  0
   -4.4187    3.5653   -2.0265 O   0  0  0  0  0  0  0  0  0  0  0  0
   -3.8240    1.8133   -3.4597 C   0  0  0  0  0  0  0  0  0  0  0  0
   -4.8713    1.9886   -4.3924 C   0  0  0  0  0  0  0  0  0  0  0  0
   -4.9183    1.2054   -5.5612 C   0  0  0  0  0  0  0  0  0  0  0  0
   -3.9275    0.2373   -5.8050 C   0  0  0  0  0  0  0  0  0  0  0  0
   -2.8858    0.0512   -4.8787 C   0  0  0  0  0  0  0  0  0  0  0  0
   -2.8280    0.8343   -3.7095 C   0  0  0  0  0  0  0  0  0  0  0  0
   -1.7621    0.6636   -2.8556 O   0  0  0  0  0  0  0  0  0  0  0  0
    0.4027   -0.4692   -1.7569 H   0  0  0  0  0  0  0  0  0  0  0  0
   -0.3357   -0.9273   -0.2081 H   0  0  0  0  0  0  0  0  0  0  0  0
   -0.8309    1.4673    0.2921 H   0  0  0  0  0  0  0  0  0  0  0  0
   -0.0909    1.9579   -1.2435 H   0  0  0  0  0  0  0  0  0  0  0  0
   -2.5607    0.1722   -0.9969 H   0  0  0  0  0  0  0  0  0  0  0  0
   -2.7224    2.7191   -0.5102 H   0  0  0  0  0  0  0  0  0  0  0  0
   -5.6050    2.6821   -4.2293 H   0  0  0  0  0  0  0  0  0  0  0  0
   -5.6735    1.3384   -6.2375 H   0  0  0  0  0  0  0  0  0  0  0  0
   -3.9621   -0.3288   -6.6569 H   0  0  0  0  0  0  0  0  0  0  0  0
   -2.1672   -0.6524   -5.0595 H   0  0  0  0  0  0  0  0  0  0  0  0
  1  2  1  0  0  0  0 
  2  3  1  0  0  0  0 
  4  3  1  0  0  0  0 
  4  5  1  0  0  0  0 
  5  6  1  0  0  0  0 
  6  7  2  0  0  0  0 
  6  8  1  0  0  0  0 
  8  9  2  0  0  0  0 
  9 10  1  0  0  0  0 
 10 11  2  0  0  0  0 
 11 12  1  0  0  0  0 
 12 13  2  0  0  0  0 
  8 13  1  0  0  0  0 
 13 14  1  0  0  0  0 
  4 14  1  0  0  0  0 
  2 15  1  0  0  0  0 
  2 16  1  0  0  0  0 
  3 17  1  0  0  0  0 
  3 18  1  0  0  0  0 
  4 19  1  0  0  0  0 
  5 20  1  0  0  0  0 
  9 21  1  0  0  0  0 
 10 22  1  0  0  0  0 
 11 23  1  0  0  0  0 
 12 24  1  0  0  0  0 
M  END
> <cdk:Title>
chlorthenoxazine

> <Conformer>
1

> <SuperDrugID>
SD003168

$$$$
