natamycin
  CDK     0628171801

 94 97  0  0  0  0  0  0  0  0999 V2000
   -3.0067   -9.9304   -5.1306 C   0  0  0  0  0  0  0  0  0  0  0  0
   -4.3434  -10.0516   -5.3099 O   0  0  0  0  0  0  0  0  0  0  0  0
   -2.3628  -10.9428   -4.7701 O   0  0  0  0  0  0  0  0  0  0  0  0
   -2.3327   -8.6251   -5.3590 C   0  0  1  0  0  0  0  0  0  0  0  0
   -1.5510   -8.1085   -4.1003 C   0  0  1  0  0  0  0  0  0  0  0  0
   -1.3693   -8.7148   -6.5831 C   0  0  1  0  0  0  0  0  0  0  0  0
   -0.8852   -6.8564   -4.4054 O   0  0  0  0  0  0  0  0  0  0  0  0
   -2.4570   -7.9109   -2.8397 C   0  0  2  0  0  0  0  0  0  0  0  0
   -2.0841   -9.0143   -7.7832 O   0  0  0  0  0  0  0  0  0  0  0  0
   -0.6152   -7.3795   -6.7945 C   0  0  1  0  0  0  0  0  0  0  0  0
    0.0796   -6.8889   -5.4885 C   0  0  2  0  0  0  0  0  0  0  0  0
   -1.7047   -7.6183   -1.4939 C   0  0  1  0  0  0  0  0  0  0  0  0
    1.1494   -7.7876   -5.1785 O   0  0  0  0  0  0  0  0  0  0  0  0
    0.6398   -5.4490   -5.7145 C   0  0  2  0  0  0  0  0  0  0  0  0
   -0.5656   -8.4866   -1.2689 O   0  0  0  0  0  0  0  0  0  0  0  0
   -1.2424   -6.2366   -1.3772 C   0  0  0  0  0  0  0  0  0  0  0  0
    1.4752   -4.8167   -4.5623 C   0  0  1  0  0  0  0  0  0  0  0  0
   -0.8006   -9.9041   -1.0994 C   0  0  1  0  0  0  0  0  0  0  0  0
   -0.6474   -5.7455   -0.2733 C   0  0  0  0  0  0  0  0  0  0  0  0
    2.7353   -5.4766   -4.4301 O   0  0  0  0  0  0  0  0  0  0  0  0
    1.7747   -3.3103   -4.8207 C   0  0  2  0  0  0  0  0  0  0  0  0
    0.5752  -10.5918   -0.8869 C   0  0  1  0  0  0  0  0  0  0  0  0
   -1.6700  -10.1720    0.0258 O   0  0  0  0  0  0  0  0  0  0  0  0
   -0.2570   -4.4541   -0.1545 C   0  0  0  0  0  0  0  0  0  0  0  0
    0.5370   -2.3760   -4.7202 C   0  0  2  0  0  0  0  0  0  0  0  0
    1.2467   -9.9743    0.2126 O   0  0  0  0  0  0  0  0  0  0  0  0
    0.3844  -12.1152   -0.6350 C   0  0  1  0  0  0  0  0  0  0  0  0
   -1.9562  -11.5771    0.2342 C   0  0  1  0  0  0  0  0  0  0  0  0
   -1.1201   -3.4207   -0.2057 C   0  0  0  0  0  0  0  0  0  0  0  0
    0.3826   -1.5781   -3.4411 C   0  0  2  0  0  0  0  0  0  0  0  0
   -0.4629   -2.6966   -3.7387 O   0  0  0  0  0  0  0  0  0  0  0  0
    1.6698  -12.7616   -0.3286 N   0  0  1  0  0  0  0  0  0  0  0  0
   -0.6418  -12.3709    0.5051 C   0  0  1  0  0  0  0  0  0  0  0  0
   -2.9678  -11.6920    1.3982 C   0  0  0  0  0  0  0  0  0  0  0  0
   -0.7422   -2.1121   -0.1325 C   0  0  0  0  0  0  0  0  0  0  0  0
   -0.3010   -0.3057   -3.4186 C   0  0  0  0  0  0  0  0  0  0  0  0
   -0.9190  -13.7680    0.6089 O   0  0  0  0  0  0  0  0  0  0  0  0
   -1.6179   -1.0869   -0.1023 C   0  0  0  0  0  0  0  0  0  0  0  0
    0.3958    0.8431   -3.3925 C   0  0  0  0  0  0  0  0  0  0  0  0
   -1.2429    0.2253   -0.1408 C   0  0  0  0  0  0  0  0  0  0  0  0
   -0.1514    2.0836   -3.1144 C   0  0  0  0  0  0  0  0  0  0  0  0
   -2.1166    1.2485   -0.1870 C   0  0  0  0  0  0  0  0  0  0  0  0
    0.6099    3.0773   -3.0737 O   0  0  0  0  0  0  0  0  0  0  0  0
   -1.4799    2.2134   -2.8052 O   0  0  0  0  0  0  0  0  0  0  0  0
   -1.7267    2.6373   -0.4070 C   0  0  2  0  0  0  0  0  0  0  0  0
   -2.1155    3.0898   -1.8490 C   0  0  1  0  0  0  0  0  0  0  0  0
   -1.8689    4.5984   -2.0976 C   0  0  0  0  0  0  0  0  0  0  0  0
    0.1372   -1.9201   -5.6310 H   0  0  0  0  0  0  0  0  0  0  0  0
   -0.7889   -8.8498   -3.8478 H   0  0  0  0  0  0  0  0  0  0  0  0
   -1.2480  -10.3084   -2.0123 H   0  0  0  0  0  0  0  0  0  0  0  0
   -4.7876  -10.9125   -5.1589 H   0  0  0  0  0  0  0  0  0  0  0  0
   -3.1023   -7.8828   -5.5992 H   0  0  0  0  0  0  0  0  0  0  0  0
   -0.6347   -9.5118   -6.4256 H   0  0  0  0  0  0  0  0  0  0  0  0
   -3.0398   -8.8212   -2.6817 H   0  0  0  0  0  0  0  0  0  0  0  0
   -3.1835   -7.1158   -3.0367 H   0  0  0  0  0  0  0  0  0  0  0  0
   -2.4941   -9.8917   -7.6323 H   0  0  0  0  0  0  0  0  0  0  0  0
    0.1279   -7.5076   -7.5861 H   0  0  0  0  0  0  0  0  0  0  0  0
   -1.3341   -6.6259   -7.1277 H   0  0  0  0  0  0  0  0  0  0  0  0
   -2.4291   -7.7576   -0.6833 H   0  0  0  0  0  0  0  0  0  0  0  0
    1.4017   -7.5751   -4.2563 H   0  0  0  0  0  0  0  0  0  0  0  0
   -0.2162   -4.7994   -5.9136 H   0  0  0  0  0  0  0  0  0  0  0  0
    1.2631   -5.4437   -6.6128 H   0  0  0  0  0  0  0  0  0  0  0  0
   -1.3885   -5.6223   -2.1462 H   0  0  0  0  0  0  0  0  0  0  0  0
    0.9482   -4.9237   -3.6108 H   0  0  0  0  0  0  0  0  0  0  0  0
   -0.4782   -6.3454    0.5021 H   0  0  0  0  0  0  0  0  0  0  0  0
    2.5326   -6.3741   -4.1002 H   0  0  0  0  0  0  0  0  0  0  0  0
    2.2081   -3.1918   -5.8190 H   0  0  0  0  0  0  0  0  0  0  0  0
    2.5371   -2.9753   -4.1122 H   0  0  0  0  0  0  0  0  0  0  0  0
    1.1882  -10.4457   -1.7812 H   0  0  0  0  0  0  0  0  0  0  0  0
    0.7139   -4.2887   -0.0125 H   0  0  0  0  0  0  0  0  0  0  0  0
    2.1184  -10.4196    0.2615 H   0  0  0  0  0  0  0  0  0  0  0  0
    0.0082  -12.5737   -1.5548 H   0  0  0  0  0  0  0  0  0  0  0  0
   -2.4429  -11.9862   -0.6587 H   0  0  0  0  0  0  0  0  0  0  0  0
   -2.0891   -3.6229   -0.3248 H   0  0  0  0  0  0  0  0  0  0  0  0
    1.0570   -1.8068   -2.6139 H   0  0  0  0  0  0  0  0  0  0  0  0
    1.4939  -13.7676   -0.2778 H   0  0  0  0  0  0  0  0  0  0  0  0
    2.2841  -12.6113   -1.1317 H   0  0  0  0  0  0  0  0  0  0  0  0
   -0.2132  -12.0414    1.4561 H   0  0  0  0  0  0  0  0  0  0  0  0
   -3.2591  -12.7331    1.5512 H   0  0  0  0  0  0  0  0  0  0  0  0
   -2.5352  -11.3066    2.3229 H   0  0  0  0  0  0  0  0  0  0  0  0
   -3.8654  -11.1160    1.1662 H   0  0  0  0  0  0  0  0  0  0  0  0
    0.2325   -1.9032   -0.1294 H   0  0  0  0  0  0  0  0  0  0  0  0
   -1.2926   -0.3013   -3.3392 H   0  0  0  0  0  0  0  0  0  0  0  0
   -0.0668  -14.1811    0.8632 H   0  0  0  0  0  0  0  0  0  0  0  0
   -2.5939   -1.2952   -0.0840 H   0  0  0  0  0  0  0  0  0  0  0  0
    1.3831    0.7985   -3.5182 H   0  0  0  0  0  0  0  0  0  0  0  0
   -0.2719    0.4388   -0.1887 H   0  0  0  0  0  0  0  0  0  0  0  0
   -3.0927    1.0620   -0.1165 H   0  0  0  0  0  0  0  0  0  0  0  0
   -0.6493    2.7716   -0.2665 H   0  0  0  0  0  0  0  0  0  0  0  0
   -2.2332    3.2627    0.3329 H   0  0  0  0  0  0  0  0  0  0  0  0
   -3.1926    2.9343   -1.9708 H   0  0  0  0  0  0  0  0  0  0  0  0
   -0.8403    4.8715   -1.8672 H   0  0  0  0  0  0  0  0  0  0  0  0
   -2.0746    4.8378   -3.1411 H   0  0  0  0  0  0  0  0  0  0  0  0
   -2.5296    5.1997   -1.4688 H   0  0  0  0  0  0  0  0  0  0  0  0
  1  2  1  0  0  0  0 
  1  3  2  0  0  0  0 
  4  1  1  0  0  0  0 
  4  5  1  0  0  0  0 
  6  4  1  0  0  0  0 
  5  7  1  0  0  0  0 
  5  8  1  0  0  0  0 
  5 49  1  0  0  0  0 
  6  9  1  0  0  0  0 
  6 10  1  0  0  0  0 
 11  7  1  0  0  0  0 
 12  8  1  0  0  0  0 
 11 10  1  0  0  0  0 
 11 13  1  0  0  0  0 
 11 14  1  0  0  0  0 
 12 15  1  0  0  0  0 
 12 16  1  0  0  0  0 
 17 14  1  0  0  0  0 
 18 15  1  0  0  0  0 
 16 19  2  0  0  0  0 
 17 20  1  0  0  0  0 
 17 21  1  0  0  0  0 
 22 18  1  0  0  0  0 
 18 23  1  0  0  0  0 
 18 50  1  0  0  0  0 
 19 24  1  0  0  0  0 
 25 21  1  0  0  0  0 
 22 26  1  0  0  0  0 
 27 22  1  0  0  0  0 
 28 23  1  0  0  0  0 
 24 29  2  0  0  0  0 
 30 25  1  0  0  0  0 
 25 31  1  0  0  0  0 
 25 48  1  0  0  0  0 
 27 32  1  0  0  0  0 
 33 27  1  0  0  0  0 
 28 33  1  0  0  0  0 
 28 34  1  0  0  0  0 
 29 35  1  0  0  0  0 
 30 31  1  0  0  0  0 
 30 36  1  0  0  0  0 
 33 37  1  0  0  0  0 
 35 38  2  0  0  0  0 
 36 39  2  0  0  0  0 
 38 40  1  0  0  0  0 
 39 41  1  0  0  0  0 
 40 42  2  0  0  0  0 
 41 43  2  0  0  0  0 
 41 44  1  0  0  0  0 
 42 45  1  0  0  0  0 
 46 44  1  0  0  0  0 
 46 45  1  0  0  0  0 
 46 47  1  0  0  0  0 
  2 51  1  0  0  0  0 
  4 52  1  0  0  0  0 
  6 53  1  0  0  0  0 
  8 54  1  0  0  0  0 
  8 55  1  0  0  0  0 
  9 56  1  0  0  0  0 
 10 57  1  0  0  0  0 
 10 58  1  0  0  0  0 
 12 59  1  0  0  0  0 
 13 60  1  0  0  0  0 
 14 61  1  0  0  0  0 
 14 62  1  0  0  0  0 
 16 63  1  0  0  0  0 
 17 64  1  0  0  0  0 
 19 65  1  0  0  0  0 
 20 66  1  0  0  0  0 
 21 67  1  0  0  0  0 
 21 68  1  0  0  0  0 
 22 69  1  0  0  0  0 
 24 70  1  0  0  0  0 
 26 71  1  0  0  0  0 
 27 72  1  0  0  0  0 
 28 73  1  0  0  0  0 
 29 74  1  0  0  0  0 
 30 75  1  0  0  0  0 
 32 76  1  0  0  0  0 
 32 77  1  0  0  0  0 
 33 78  1  0  0  0  0 
 34 79  1  0  0  0  0 
 34 80  1  0  0  0  0 
 34 81  1  0  0  0  0 
 35 82  1  0  0  0  0 
 36 83  1  0  0  0  0 
 37 84  1  0  0  0  0 
 38 85  1  0  0  0  0 
 39 86  1  0  0  0  0 
 40 87  1  0  0  0  0 
 42 88  1  0  0  0  0 
 45 89  1  0  0  0  0 
 45 90  1  0  0  0  0 
 46 91  1  0  0  0  0 
 47 92  1  0  0  0  0 
 47 93  1  0  0  0  0 
 47 94  1  0  0  0  0 
M  END
> <cdk:Title>
natamycin

> <Conformer>
1

> <SuperDrugID>
SD001681

$$$$
