pipethanate
  CDK     0628171801

 50 52  0  0  0  0  0  0  0  0999 V2000
    0.1582    1.6697    2.6998 C   0  0  2  0  0  0  0  0  0  0  0  0
   -0.1634    0.2680    2.2868 C   0  0  0  0  0  0  0  0  0  0  0  0
    0.0026    2.4578    1.5050 O   0  0  0  0  0  0  0  0  0  0  0  0
    1.5952    1.9027    3.1194 C   0  0  0  0  0  0  0  0  0  0  0  0
   -0.8175    2.1215    3.7578 C   0  0  0  0  0  0  0  0  0  0  0  0
   -0.1304   -0.7496    3.2032 O   0  0  0  0  0  0  0  0  0  0  0  0
   -0.4614   -0.0003    1.0948 O   0  0  0  0  0  0  0  0  0  0  0  0
    2.0703    3.2360    3.2429 C   0  0  0  0  0  0  0  0  0  0  0  0
    2.5265    0.8618    3.3912 C   0  0  0  0  0  0  0  0  0  0  0  0
   -0.6445    1.7548    5.1199 C   0  0  0  0  0  0  0  0  0  0  0  0
   -1.9344    2.9420    3.4398 C   0  0  0  0  0  0  0  0  0  0  0  0
   -0.2763   -2.1438    2.9014 C   0  0  1  0  0  0  0  0  0  0  0  0
    3.4209    3.5189    3.5126 C   0  0  0  0  0  0  0  0  0  0  0  0
    3.8751    1.1405    3.6864 C   0  0  0  0  0  0  0  0  0  0  0  0
   -1.5166    2.2267    6.1211 C   0  0  0  0  0  0  0  0  0  0  0  0
   -2.8104    3.4080    4.4377 C   0  0  0  0  0  0  0  0  0  0  0  0
   -0.1406   -3.0246    4.1671 C   0  0  2  0  0  0  0  0  0  0  0  0
    4.3285    2.4688    3.7207 C   0  0  0  0  0  0  0  0  0  0  0  0
   -2.5961    3.0603    5.7812 C   0  0  0  0  0  0  0  0  0  0  0  0
   -1.4467   -3.3346    4.8343 N   0  0  2  0  0  0  0  0  0  0  0  0
   -2.0790   -2.1504    5.4968 C   0  0  2  0  0  0  0  0  0  0  0  0
   -1.3440   -4.5192    5.7503 C   0  0  1  0  0  0  0  0  0  0  0  0
   -3.4766   -2.4932    6.0680 C   0  0  2  0  0  0  0  0  0  0  0  0
   -2.7192   -4.9212    6.3369 C   0  0  1  0  0  0  0  0  0  0  0  0
   -3.4155   -3.7173    7.0136 C   0  0  1  0  0  0  0  0  0  0  0  0
    0.0940    3.3931    1.7836 H   0  0  0  0  0  0  0  0  0  0  0  0
    1.4340    4.0261    3.1207 H   0  0  0  0  0  0  0  0  0  0  0  0
    2.2467   -0.1195    3.3771 H   0  0  0  0  0  0  0  0  0  0  0  0
    0.1311    1.1480    5.3988 H   0  0  0  0  0  0  0  0  0  0  0  0
   -2.1282    3.2176    2.4735 H   0  0  0  0  0  0  0  0  0  0  0  0
   -1.2389   -2.3250    2.4207 H   0  0  0  0  0  0  0  0  0  0  0  0
    0.5155   -2.4113    2.1958 H   0  0  0  0  0  0  0  0  0  0  0  0
    3.7410    4.4894    3.5499 H   0  0  0  0  0  0  0  0  0  0  0  0
    4.5283    0.3748    3.8692 H   0  0  0  0  0  0  0  0  0  0  0  0
   -1.3626    1.9697    7.0999 H   0  0  0  0  0  0  0  0  0  0  0  0
   -3.6034    4.0026    4.1848 H   0  0  0  0  0  0  0  0  0  0  0  0
    0.5553   -2.5619    4.8752 H   0  0  0  0  0  0  0  0  0  0  0  0
    0.3177   -3.9599    3.8339 H   0  0  0  0  0  0  0  0  0  0  0  0
    5.3140    2.6702    3.8993 H   0  0  0  0  0  0  0  0  0  0  0  0
   -3.2251    3.4115    6.5087 H   0  0  0  0  0  0  0  0  0  0  0  0
   -2.2096   -1.3447    4.7716 H   0  0  0  0  0  0  0  0  0  0  0  0
   -1.4349   -1.7813    6.3014 H   0  0  0  0  0  0  0  0  0  0  0  0
   -0.9629   -5.3857    5.1997 H   0  0  0  0  0  0  0  0  0  0  0  0
   -0.6505   -4.3057    6.5712 H   0  0  0  0  0  0  0  0  0  0  0  0
   -4.1618   -2.7034    5.2421 H   0  0  0  0  0  0  0  0  0  0  0  0
   -3.8614   -1.6315    6.6169 H   0  0  0  0  0  0  0  0  0  0  0  0
   -3.3566   -5.3087    5.5366 H   0  0  0  0  0  0  0  0  0  0  0  0
   -2.5812   -5.7160    7.0753 H   0  0  0  0  0  0  0  0  0  0  0  0
   -2.8670   -3.4452    7.9203 H   0  0  0  0  0  0  0  0  0  0  0  0
   -4.4307   -4.0020    7.3023 H   0  0  0  0  0  0  0  0  0  0  0  0
  1  2  1  0  0  0  0 
  1  3  1  0  0  0  0 
  1  4  1  0  0  0  0 
  1  5  1  0  0  0  0 
  2  6  1  0  0  0  0 
  2  7  2  0  0  0  0 
  4  8  2  0  0  0  0 
  4  9  1  0  0  0  0 
  5 10  2  0  0  0  0 
  5 11  1  0  0  0  0 
  6 12  1  0  0  0  0 
  8 13  1  0  0  0  0 
  9 14  2  0  0  0  0 
 10 15  1  0  0  0  0 
 11 16  2  0  0  0  0 
 12 17  1  0  0  0  0 
 13 18  2  0  0  0  0 
 14 18  1  0  0  0  0 
 15 19  2  0  0  0  0 
 16 19  1  0  0  0  0 
 17 20  1  0  0  0  0 
 20 21  1  0  0  0  0 
 20 22  1  0  0  0  0 
 21 23  1  0  0  0  0 
 22 24  1  0  0  0  0 
 23 25  1  0  0  0  0 
 24 25  1  0  0  0  0 
  3 26  1  0  0  0  0 
  8 27  1  0  0  0  0 
  9 28  1  0  0  0  0 
 10 29  1  0  0  0  0 
 11 30  1  0  0  0  0 
 12 31  1  0  0  0  0 
 12 32  1  0  0  0  0 
 13 33  1  0  0  0  0 
 14 34  1  0  0  0  0 
 15 35  1  0  0  0  0 
 16 36  1  0  0  0  0 
 17 37  1  0  0  0  0 
 17 38  1  0  0  0  0 
 18 39  1  0  0  0  0 
 19 40  1  0  0  0  0 
 21 41  1  0  0  0  0 
 21 42  1  0  0  0  0 
 22 43  1  0  0  0  0 
 22 44  1  0  0  0  0 
 23 45  1  0  0  0  0 
 23 46  1  0  0  0  0 
 24 47  1  0  0  0  0 
 24 48  1  0  0  0  0 
 25 49  1  0  0  0  0 
 25 50  1  0  0  0  0 
M  END
> <cdk:Title>
pipethanate

> <Conformer>
1

> <SuperDrugID>
SD001966

$$$$
