adinazolam
  CDK     0628171802

 43 46  0  0  0  0  0  0  0  0999 V2000
    1.0940   -2.6563    0.3869 C   0  0  2  0  0  0  0  0  0  0  0  0
    1.6083   -1.4354    1.0847 N   0  0  1  0  0  0  0  0  0  0  0  0
    2.1577   -3.6407    0.0471 C   0  0  0  0  0  0  0  0  0  0  0  0
    0.6113   -0.3268    1.0982 C   0  0  0  0  0  0  0  0  0  0  0  0
    2.1737   -1.6973    2.4414 C   0  0  0  0  0  0  0  0  0  0  0  0
    3.4035   -3.5113   -0.5185 N   0  0  0  0  0  0  0  0  0  0  0  0
    1.9301   -4.9200    0.3738 N   0  0  0  0  0  0  0  0  0  0  0  0
    4.0478   -2.3690   -1.0138 C   0  0  0  0  0  0  0  0  0  0  0  0
    3.8969   -4.7676   -0.4159 C   0  0  0  0  0  0  0  0  0  0  0  0
    2.9765   -5.5994    0.0921 N   0  0  0  0  0  0  0  0  0  0  0  0
    5.4708   -2.1852   -1.1271 C   0  0  0  0  0  0  0  0  0  0  0  0
    3.2404   -1.2757   -1.4335 C   0  0  0  0  0  0  0  0  0  0  0  0
    5.2118   -5.3299   -0.7335 C   0  0  2  0  0  0  0  0  0  0  0  0
    6.4266   -3.2304   -1.2140 C   0  0  0  0  0  0  0  0  0  0  0  0
    5.9570   -0.8441   -1.2297 C   0  0  0  0  0  0  0  0  0  0  0  0
    3.7425    0.0176   -1.6192 C   0  0  0  0  0  0  0  0  0  0  0  0
    6.2459   -4.4889   -1.0556 N   0  0  0  0  0  0  0  0  0  0  0  0
    7.7413   -3.0305   -1.6535 C   0  0  0  0  0  0  0  0  0  0  0  0
    5.1093    0.2495   -1.4582 C   0  0  0  0  0  0  0  0  0  0  0  0
    8.8491   -3.1685   -0.7808 C   0  0  0  0  0  0  0  0  0  0  0  0
    7.9843   -2.6868   -3.0069 C   0  0  0  0  0  0  0  0  0  0  0  0
    5.7294    1.8208   -1.5957 Cl  0  0  0  0  0  0  0  0  0  0  0  0
   10.1603   -2.9488   -1.2463 C   0  0  0  0  0  0  0  0  0  0  0  0
    9.2946   -2.4688   -3.4695 C   0  0  0  0  0  0  0  0  0  0  0  0
   10.3829   -2.5907   -2.5876 C   0  0  0  0  0  0  0  0  0  0  0  0
    0.5836   -2.4002   -0.5449 H   0  0  0  0  0  0  0  0  0  0  0  0
    0.3319   -3.1227    1.0214 H   0  0  0  0  0  0  0  0  0  0  0  0
    1.0604    0.5869    1.4927 H   0  0  0  0  0  0  0  0  0  0  0  0
    0.2693   -0.1070    0.0847 H   0  0  0  0  0  0  0  0  0  0  0  0
   -0.2559   -0.5882    1.7104 H   0  0  0  0  0  0  0  0  0  0  0  0
    2.9590   -2.4532    2.3924 H   0  0  0  0  0  0  0  0  0  0  0  0
    2.6229   -0.7902    2.8512 H   0  0  0  0  0  0  0  0  0  0  0  0
    1.3980   -2.0403    3.1295 H   0  0  0  0  0  0  0  0  0  0  0  0
    2.2480   -1.3936   -1.6100 H   0  0  0  0  0  0  0  0  0  0  0  0
    5.0953   -6.0259   -1.5657 H   0  0  0  0  0  0  0  0  0  0  0  0
    5.5527   -5.9028    0.1322 H   0  0  0  0  0  0  0  0  0  0  0  0
    6.9574   -0.6375   -1.1653 H   0  0  0  0  0  0  0  0  0  0  0  0
    3.1062    0.7826   -1.8600 H   0  0  0  0  0  0  0  0  0  0  0  0
    8.7070   -3.4298    0.1980 H   0  0  0  0  0  0  0  0  0  0  0  0
    7.2093   -2.5940   -3.6683 H   0  0  0  0  0  0  0  0  0  0  0  0
   10.9537   -3.0511   -0.6112 H   0  0  0  0  0  0  0  0  0  0  0  0
    9.4559   -2.2221   -4.4485 H   0  0  0  0  0  0  0  0  0  0  0  0
   11.3365   -2.4248   -2.9220 H   0  0  0  0  0  0  0  0  0  0  0  0
  1  2  1  0  0  0  0 
  1  3  1  0  0  0  0 
  2  4  1  0  0  0  0 
  2  5  1  0  0  0  0 
  3  6  1  0  0  0  0 
  3  7  2  0  0  0  0 
  6  8  1  0  0  0  0 
  6  9  1  0  0  0  0 
  7 10  1  0  0  0  0 
  8 11  2  0  0  0  0 
  8 12  1  0  0  0  0 
  9 10  2  0  0  0  0 
  9 13  1  0  0  0  0 
 11 14  1  0  0  0  0 
 11 15  1  0  0  0  0 
 12 16  2  0  0  0  0 
 13 17  1  0  0  0  0 
 14 17  2  0  0  0  0 
 14 18  1  0  0  0  0 
 15 19  2  0  0  0  0 
 16 19  1  0  0  0  0 
 18 20  2  0  0  0  0 
 18 21  1  0  0  0  0 
 19 22  1  0  0  0  0 
 20 23  1  0  0  0  0 
 21 24  2  0  0  0  0 
 23 25  2  0  0  0  0 
 24 25  1  0  0  0  0 
  1 26  1  0  0  0  0 
  1 27  1  0  0  0  0 
  4 28  1  0  0  0  0 
  4 29  1  0  0  0  0 
  4 30  1  0  0  0  0 
  5 31  1  0  0  0  0 
  5 32  1  0  0  0  0 
  5 33  1  0  0  0  0 
 12 34  1  0  0  0  0 
 13 35  1  0  0  0  0 
 13 36  1  0  0  0  0 
 15 37  1  0  0  0  0 
 16 38  1  0  0  0  0 
 20 39  1  0  0  0  0 
 21 40  1  0  0  0  0 
 23 41  1  0  0  0  0 
 24 42  1  0  0  0  0 
 25 43  1  0  0  0  0 
M  END
> <cdk:Title>
adinazolam

> <Conformer>
1

> <SuperDrugID>
SD000068

$$$$
