benzbromarone
  CDK     0628171801

 34 36  0  0  0  0  0  0  0  0999 V2000
    0.1191    0.0907   -0.1723 C   0  0  0  0  0  0  0  0  0  0  0  0
   -0.2346    0.4178    0.9860 O   0  0  0  0  0  0  0  0  0  0  0  0
   -0.9355   -0.2209   -1.0585 C   0  0  0  0  0  0  0  0  0  0  0  0
    1.5050    0.0743   -0.5276 C   0  0  0  0  0  0  0  0  0  0  0  0
   -1.1207   -1.4137   -1.7542 C   0  0  0  0  0  0  0  0  0  0  0  0
   -2.0191    0.5994   -1.4108 C   0  0  0  0  0  0  0  0  0  0  0  0
    1.9437   -0.0307   -1.8729 C   0  0  0  0  0  0  0  0  0  0  0  0
    2.5008    0.1962    0.4732 C   0  0  0  0  0  0  0  0  0  0  0  0
   -2.2878   -1.2729   -2.5036 C   0  0  0  0  0  0  0  0  0  0  0  0
   -0.3748   -2.6086   -1.7983 C   0  0  0  0  0  0  0  0  0  0  0  0
   -2.2760    1.9882   -0.9718 C   0  0  2  0  0  0  0  0  0  0  0  0
   -2.8326   -0.0566   -2.2797 O   0  0  0  0  0  0  0  0  0  0  0  0
    3.3138   -0.0311   -2.2015 C   0  0  0  0  0  0  0  0  0  0  0  0
    3.8717    0.2076    0.1557 C   0  0  0  0  0  0  0  0  0  0  0  0
   -2.7401   -2.3019   -3.3476 C   0  0  0  0  0  0  0  0  0  0  0  0
   -0.8154   -3.6465   -2.6475 C   0  0  0  0  0  0  0  0  0  0  0  0
   -3.4444    2.0694    0.0325 C   0  0  0  0  0  0  0  0  0  0  0  0
    3.8061   -0.1757   -3.9931 Br  0  0  0  0  0  0  0  0  0  0  0  0
    4.2848    0.0862   -1.1852 C   0  0  0  0  0  0  0  0  0  0  0  0
    5.1146    0.3995    1.5326 Br  0  0  0  0  0  0  0  0  0  0  0  0
   -1.9867   -3.4924   -3.4226 C   0  0  0  0  0  0  0  0  0  0  0  0
    5.6132    0.0923   -1.4699 O   0  0  0  0  0  0  0  0  0  0  0  0
    1.2676   -0.1020   -2.6372 H   0  0  0  0  0  0  0  0  0  0  0  0
    2.2340    0.2818    1.4563 H   0  0  0  0  0  0  0  0  0  0  0  0
    0.4692   -2.7285   -1.2335 H   0  0  0  0  0  0  0  0  0  0  0  0
   -2.5043    2.5938   -1.8527 H   0  0  0  0  0  0  0  0  0  0  0  0
   -1.3848    2.4148   -0.5066 H   0  0  0  0  0  0  0  0  0  0  0  0
   -3.5917   -2.1853   -3.9011 H   0  0  0  0  0  0  0  0  0  0  0  0
   -0.2801   -4.5148   -2.7073 H   0  0  0  0  0  0  0  0  0  0  0  0
   -3.6065    3.1105    0.3233 H   0  0  0  0  0  0  0  0  0  0  0  0
   -3.2137    1.4921    0.9320 H   0  0  0  0  0  0  0  0  0  0  0  0
   -4.3602    1.6805   -0.4195 H   0  0  0  0  0  0  0  0  0  0  0  0
   -2.2896   -4.2475   -4.0419 H   0  0  0  0  0  0  0  0  0  0  0  0
    5.6915    0.1104   -2.4457 H   0  0  0  0  0  0  0  0  0  0  0  0
  1  2  2  0  0  0  0 
  1  3  1  0  0  0  0 
  1  4  1  0  0  0  0 
  3  5  1  0  0  0  0 
  3  6  2  0  0  0  0 
  4  7  2  0  0  0  0 
  4  8  1  0  0  0  0 
  5  9  1  0  0  0  0 
  5 10  2  0  0  0  0 
  6 11  1  0  0  0  0 
  6 12  1  0  0  0  0 
  7 13  1  0  0  0  0 
  8 14  2  0  0  0  0 
  9 12  1  0  0  0  0 
  9 15  2  0  0  0  0 
 10 16  1  0  0  0  0 
 11 17  1  0  0  0  0 
 13 18  1  0  0  0  0 
 13 19  2  0  0  0  0 
 14 19  1  0  0  0  0 
 14 20  1  0  0  0  0 
 15 21  1  0  0  0  0 
 16 21  2  0  0  0  0 
 19 22  1  0  0  0  0 
 23  7  1  0  0  0  0 
 24  8  1  0  0  0  0 
 25 10  1  0  0  0  0 
 26 11  1  0  0  0  0 
 27 11  1  0  0  0  0 
 28 15  1  0  0  0  0 
 29 16  1  0  0  0  0 
 30 17  1  0  0  0  0 
 31 17  1  0  0  0  0 
 32 17  1  0  0  0  0 
 33 21  1  0  0  0  0 
 34 22  1  0  0  0  0 
M  END
> <cdk:Title>
benzbromarone

> <Conformer>
1

> <SuperDrugID>
SD000267

$$$$
