traxanox
  CDK     0628171801

 27 30  0  0  0  0  0  0  0  0999 V2000
    3.8518    2.4237    1.6822 O   0  0  0  0  0  0  0  0  0  0  0  0
    4.0170    2.4544    0.4382 C   0  0  0  0  0  0  0  0  0  0  0  0
    3.1263    1.7488   -0.4112 C   0  0  0  0  0  0  0  0  0  0  0  0
    5.0926    3.2014   -0.0997 C   0  0  0  0  0  0  0  0  0  0  0  0
    3.3359    1.8150   -1.8142 C   0  0  0  0  0  0  0  0  0  0  0  0
    2.0384    0.9862    0.0776 C   0  0  0  0  0  0  0  0  0  0  0  0
    5.2575    3.2228   -1.5072 C   0  0  0  0  0  0  0  0  0  0  0  0
    6.0181    3.9346    0.6810 C   0  0  0  0  0  0  0  0  0  0  0  0
    4.3862    2.5405   -2.3008 O   0  0  0  0  0  0  0  0  0  0  0  0
    2.4716    1.1386   -2.7000 C   0  0  0  0  0  0  0  0  0  0  0  0
    1.1541    0.3107   -0.7975 C   0  0  0  0  0  0  0  0  0  0  0  0
    6.2744    3.9218   -2.0735 N   0  0  0  0  0  0  0  0  0  0  0  0
    7.0614    4.6499    0.0644 C   0  0  0  0  0  0  0  0  0  0  0  0
    2.7095    1.2118   -4.3774 Cl  0  0  0  0  0  0  0  0  0  0  0  0
    1.3910    0.3940   -2.1897 C   0  0  0  0  0  0  0  0  0  0  0  0
    0.0546   -0.4313   -0.2915 C   0  0  0  0  0  0  0  0  0  0  0  0
    7.1704    4.6259   -1.3372 C   0  0  0  0  0  0  0  0  0  0  0  0
   -0.2606   -0.6404    0.9926 N   0  0  0  0  0  0  0  0  0  0  0  0
   -0.8912   -1.0651   -1.0015 N   0  0  0  0  0  0  0  0  0  0  0  0
   -1.3316   -1.3542    1.0540 N   0  0  0  0  0  0  0  0  0  0  0  0
   -1.7082   -1.6092   -0.1579 N   0  0  0  0  0  0  0  0  0  0  0  0
    1.8891    0.9239    1.0881 H   0  0  0  0  0  0  0  0  0  0  0  0
    5.9423    3.9549    1.7008 H   0  0  0  0  0  0  0  0  0  0  0  0
    7.7304    5.1802    0.6271 H   0  0  0  0  0  0  0  0  0  0  0  0
    0.7716   -0.0923   -2.8446 H   0  0  0  0  0  0  0  0  0  0  0  0
    7.9196    5.1381   -1.8056 H   0  0  0  0  0  0  0  0  0  0  0  0
    0.2358   -0.3081    1.7581 H   0  0  0  0  0  0  0  0  0  0  0  0
  1  2  2  0  0  0  0 
  2  3  1  0  0  0  0 
  2  4  1  0  0  0  0 
  3  5  1  0  0  0  0 
  3  6  2  0  0  0  0 
  4  7  1  0  0  0  0 
  4  8  2  0  0  0  0 
  5  9  1  0  0  0  0 
  5 10  2  0  0  0  0 
  6 11  1  0  0  0  0 
  7  9  1  0  0  0  0 
  7 12  2  0  0  0  0 
  8 13  1  0  0  0  0 
 10 14  1  0  0  0  0 
 10 15  1  0  0  0  0 
 11 15  2  0  0  0  0 
 11 16  1  0  0  0  0 
 12 17  1  0  0  0  0 
 13 17  2  0  0  0  0 
 16 18  1  0  0  0  0 
 16 19  2  0  0  0  0 
 18 20  1  0  0  0  0 
 19 21  1  0  0  0  0 
 20 21  2  0  0  0  0 
 22  6  1  0  0  0  0 
 23  8  1  0  0  0  0 
 24 13  1  0  0  0  0 
 25 15  1  0  0  0  0 
 26 17  1  0  0  0  0 
 27 18  1  0  0  0  0 
M  END
> <cdk:Title>
traxanox

> <Conformer>
1

> <SuperDrugID>
SD003103

$$$$
