fructose
  CDK     0628171801

 24 24  0  0  0  0  0  0  0  0999 V2000
    0.7688   -4.0697   -0.2445 C   0  0  1  0  0  0  0  0  0  0  0  0
    2.0495   -4.6562    0.4000 C   0  0  2  0  0  0  0  0  0  0  0  0
    2.9277   -3.5088    0.9710 C   0  0  2  0  0  0  0  0  0  0  0  0
    3.1885   -2.4137   -0.1030 C   0  0  1  0  0  0  0  0  0  0  0  0
    1.8613   -1.9418   -0.7836 C   0  0  1  0  0  0  0  0  0  0  0  0
    1.0873   -3.0759   -1.2415 O   0  0  0  0  0  0  0  0  0  0  0  0
    4.1686   -4.0252    1.4515 O   0  0  0  0  0  0  0  0  0  0  0  0
    2.7607   -5.4021   -0.5871 O   0  0  0  0  0  0  0  0  0  0  0  0
    1.0069   -0.9749    0.0889 C   0  0  1  0  0  0  0  0  0  0  0  0
   -0.2813   -0.7746   -0.4815 O   0  0  0  0  0  0  0  0  0  0  0  0
    2.2136   -1.2394   -1.9746 O   0  0  0  0  0  0  0  0  0  0  0  0
    3.8992   -1.3186    0.4716 O   0  0  0  0  0  0  0  0  0  0  0  0
    0.2086   -4.8640   -0.7412 H   0  0  0  0  0  0  0  0  0  0  0  0
    0.1193   -3.6478    0.5287 H   0  0  0  0  0  0  0  0  0  0  0  0
    1.7661   -5.3394    1.2067 H   0  0  0  0  0  0  0  0  0  0  0  0
    2.4135   -3.0628    1.8275 H   0  0  0  0  0  0  0  0  0  0  0  0
    3.8389   -2.8467   -0.8684 H   0  0  0  0  0  0  0  0  0  0  0  0
    3.9257   -4.6600    2.1588 H   0  0  0  0  0  0  0  0  0  0  0  0
    3.5280   -5.7894   -0.1167 H   0  0  0  0  0  0  0  0  0  0  0  0
    0.8705   -1.3762    1.0936 H   0  0  0  0  0  0  0  0  0  0  0  0
    1.5011   -0.0033    0.1776 H   0  0  0  0  0  0  0  0  0  0  0  0
   -0.7609   -0.2257    0.1748 H   0  0  0  0  0  0  0  0  0  0  0  0
    1.3632   -1.0604   -2.4304 H   0  0  0  0  0  0  0  0  0  0  0  0
    4.0773   -0.7112   -0.2772 H   0  0  0  0  0  0  0  0  0  0  0  0
  2  1  1  0  0  0  0 
  3  2  1  0  0  0  0 
  4  3  1  0  0  0  0 
  5  4  1  0  0  0  0 
  5  6  1  0  0  0  0 
  1  6  1  0  0  0  0 
  3  7  1  0  0  0  0 
  2  8  1  0  0  0  0 
  5  9  1  0  0  0  0 
  9 10  1  0  0  0  0 
  5 11  1  0  0  0  0 
  4 12  1  0  0  0  0 
  1 13  1  0  0  0  0 
  1 14  1  0  0  0  0 
  2 15  1  0  0  0  0 
  3 16  1  0  0  0  0 
  4 17  1  0  0  0  0 
  7 18  1  0  0  0  0 
  8 19  1  0  0  0  0 
  9 20  1  0  0  0  0 
  9 21  1  0  0  0  0 
 10 22  1  0  0  0  0 
 11 23  1  0  0  0  0 
 12 24  1  0  0  0  0 
M  END
> <cdk:Title>
fructose

> <Conformer>
1

> <SuperDrugID>
SD001122

$$$$
