buformin
  CDK     0628171801

 26 25  0  0  0  0  0  0  0  0999 V2000
   -0.1074    5.0192   -1.3374 C   0  0  0  0  0  0  0  0  0  0  0  0
    0.4431    3.6195   -1.7009 C   0  0  2  0  0  0  0  0  0  0  0  0
    0.0064    2.5228   -0.6944 C   0  0  2  0  0  0  0  0  0  0  0  0
    0.5841    1.1211   -1.0200 C   0  0  2  0  0  0  0  0  0  0  0  0
    0.1920    0.2353   -0.0206 N   0  0  0  0  0  0  0  0  0  0  0  0
    0.4590   -1.0100    0.1618 C   0  0  0  0  0  0  0  0  0  0  0  0
    1.2432   -1.6871   -0.6554 N   0  0  0  0  0  0  0  0  0  0  0  0
   -0.0071   -1.6756    1.1778 N   0  0  0  0  0  0  0  0  0  0  0  0
   -0.8932   -1.4026    2.0712 C   0  0  0  0  0  0  0  0  0  0  0  0
   -1.1148   -2.3011    3.0050 N   0  0  0  0  0  0  0  0  0  0  0  0
   -1.5927   -0.2831    2.1272 N   0  0  0  0  0  0  0  0  0  0  0  0
   -1.1993    5.0109   -1.3277 H   0  0  0  0  0  0  0  0  0  0  0  0
    0.2535    5.3282   -0.3537 H   0  0  0  0  0  0  0  0  0  0  0  0
    0.2283    5.7515   -2.0750 H   0  0  0  0  0  0  0  0  0  0  0  0
    1.5348    3.6763   -1.7289 H   0  0  0  0  0  0  0  0  0  0  0  0
    0.0900    3.3534   -2.7007 H   0  0  0  0  0  0  0  0  0  0  0  0
   -1.0868    2.4635   -0.6854 H   0  0  0  0  0  0  0  0  0  0  0  0
    0.3343    2.8156    0.3069 H   0  0  0  0  0  0  0  0  0  0  0  0
    1.6749    1.1687   -1.0690 H   0  0  0  0  0  0  0  0  0  0  0  0
    0.1977    0.7799   -1.9824 H   0  0  0  0  0  0  0  0  0  0  0  0
    1.6376   -1.2576   -1.4303 H   0  0  0  0  0  0  0  0  0  0  0  0
    1.4284   -2.6237   -0.4800 H   0  0  0  0  0  0  0  0  0  0  0  0
   -0.6501   -3.1531    2.9910 H   0  0  0  0  0  0  0  0  0  0  0  0
   -1.7431   -2.1100    3.7185 H   0  0  0  0  0  0  0  0  0  0  0  0
   -1.5128    0.3897    1.4324 H   0  0  0  0  0  0  0  0  0  0  0  0
   -2.1924   -0.1249    2.8718 H   0  0  0  0  0  0  0  0  0  0  0  0
  1  2  1  0  0  0  0 
  2  3  1  0  0  0  0 
  3  4  1  0  0  0  0 
  5  4  1  0  0  0  0 
  5  6  2  0  0  0  0 
  6  7  1  0  0  0  0 
  6  8  1  0  0  0  0 
  8  9  2  0  0  0  0 
  9 10  1  0  0  0  0 
  9 11  1  0  0  0  0 
 12  1  1  0  0  0  0 
 13  1  1  0  0  0  0 
 14  1  1  0  0  0  0 
 15  2  1  0  0  0  0 
 16  2  1  0  0  0  0 
 17  3  1  0  0  0  0 
 18  3  1  0  0  0  0 
 19  4  1  0  0  0  0 
 20  4  1  0  0  0  0 
 21  7  1  0  0  0  0 
 22  7  1  0  0  0  0 
 23 10  1  0  0  0  0 
 24 10  1  0  0  0  0 
 25 11  1  0  0  0  0 
 26 11  1  0  0  0  0 
M  END
> <cdk:Title>
buformin

> <Conformer>
1

> <SuperDrugID>
SD000365

$$$$
