levdobutamine
  CDK     0628171801

 45 46  0  0  0  0  0  0  0  0999 V2000
    0.4794    0.0155   -3.1610 C   0  0  1  0  0  0  0  0  0  0  0  0
    0.3185    0.9597   -4.3781 C   0  0  2  0  0  0  0  0  0  0  0  0
    0.4290   -1.4247   -3.5383 C   0  0  0  0  0  0  0  0  0  0  0  0
    0.3102    2.3680   -3.9117 N   0  0  1  0  0  0  0  0  0  0  0  0
   -0.7816   -2.1524   -3.4381 C   0  0  0  0  0  0  0  0  0  0  0  0
    1.5892   -2.0979   -3.9941 C   0  0  0  0  0  0  0  0  0  0  0  0
    0.1344    3.4654   -4.9077 C   0  0  2  0  0  0  0  0  0  0  0  0
   -0.8310   -3.5151   -3.7852 C   0  0  0  0  0  0  0  0  0  0  0  0
    1.5474   -3.4707   -4.3195 C   0  0  0  0  0  0  0  0  0  0  0  0
   -1.2744    3.5160   -5.5831 C   0  0  2  0  0  0  0  0  0  0  0  0
    1.2694    3.4685   -5.9673 C   0  0  0  0  0  0  0  0  0  0  0  0
    0.3287   -4.1761   -4.2307 C   0  0  0  0  0  0  0  0  0  0  0  0
   -2.4860    3.6724   -4.6183 C   0  0  1  0  0  0  0  0  0  0  0  0
    0.2508   -5.4884   -4.5718 O   0  0  0  0  0  0  0  0  0  0  0  0
   -2.6019    5.0106   -3.9675 C   0  0  0  0  0  0  0  0  0  0  0  0
   -2.9814    6.1452   -4.7259 C   0  0  0  0  0  0  0  0  0  0  0  0
   -2.3637    5.1775   -2.5813 C   0  0  0  0  0  0  0  0  0  0  0  0
   -3.1122    7.4095   -4.1196 C   0  0  0  0  0  0  0  0  0  0  0  0
   -2.4893    6.4439   -1.9758 C   0  0  0  0  0  0  0  0  0  0  0  0
   -2.8621    7.5639   -2.7423 C   0  0  0  0  0  0  0  0  0  0  0  0
   -2.9753    8.7792   -2.1468 O   0  0  0  0  0  0  0  0  0  0  0  0
    2.6703   -4.1279   -4.7113 O   0  0  0  0  0  0  0  0  0  0  0  0
    1.4285    0.2275   -2.6584 H   0  0  0  0  0  0  0  0  0  0  0  0
   -0.3139    0.2382   -2.4402 H   0  0  0  0  0  0  0  0  0  0  0  0
   -0.6205    0.7314   -4.8853 H   0  0  0  0  0  0  0  0  0  0  0  0
    1.1466    0.7932   -5.0705 H   0  0  0  0  0  0  0  0  0  0  0  0
   -0.4430    2.4461   -3.2249 H   0  0  0  0  0  0  0  0  0  0  0  0
   -1.6386   -1.6959   -3.1136 H   0  0  0  0  0  0  0  0  0  0  0  0
    2.4738   -1.5882   -4.0831 H   0  0  0  0  0  0  0  0  0  0  0  0
    0.2546    4.3898   -4.3353 H   0  0  0  0  0  0  0  0  0  0  0  0
   -1.7144   -4.0267   -3.7150 H   0  0  0  0  0  0  0  0  0  0  0  0
   -1.4158    2.5965   -6.1574 H   0  0  0  0  0  0  0  0  0  0  0  0
   -1.2964    4.3414   -6.3015 H   0  0  0  0  0  0  0  0  0  0  0  0
    1.2486    4.3982   -6.5395 H   0  0  0  0  0  0  0  0  0  0  0  0
    2.2422    3.3879   -5.4776 H   0  0  0  0  0  0  0  0  0  0  0  0
    1.1546    2.6345   -6.6631 H   0  0  0  0  0  0  0  0  0  0  0  0
   -3.4036    3.4999   -5.1880 H   0  0  0  0  0  0  0  0  0  0  0  0
   -2.4426    2.8779   -3.8705 H   0  0  0  0  0  0  0  0  0  0  0  0
    1.0243   -5.6596   -5.1480 H   0  0  0  0  0  0  0  0  0  0  0  0
   -3.1771    6.0569   -5.7268 H   0  0  0  0  0  0  0  0  0  0  0  0
   -2.0911    4.3803   -2.0008 H   0  0  0  0  0  0  0  0  0  0  0  0
   -3.3941    8.2152   -4.6835 H   0  0  0  0  0  0  0  0  0  0  0  0
   -2.3026    6.5520   -0.9761 H   0  0  0  0  0  0  0  0  0  0  0  0
   -3.1576    9.4120   -2.8715 H   0  0  0  0  0  0  0  0  0  0  0  0
    3.4098   -3.4928   -4.6081 H   0  0  0  0  0  0  0  0  0  0  0  0
  1  2  1  0  0  0  0 
  1  3  1  0  0  0  0 
  2  4  1  0  0  0  0 
  3  5  2  0  0  0  0 
  3  6  1  0  0  0  0 
  7  4  1  0  0  0  0 
  5  8  1  0  0  0  0 
  6  9  2  0  0  0  0 
  7 10  1  0  0  0  0 
  7 11  1  0  0  0  0 
  8 12  2  0  0  0  0 
  9 12  1  0  0  0  0 
 10 13  1  0  0  0  0 
 12 14  1  0  0  0  0 
 13 15  1  0  0  0  0 
 15 16  2  0  0  0  0 
 15 17  1  0  0  0  0 
 16 18  1  0  0  0  0 
 17 19  2  0  0  0  0 
 18 20  2  0  0  0  0 
 19 20  1  0  0  0  0 
 20 21  1  0  0  0  0 
  9 22  1  0  0  0  0 
  1 23  1  0  0  0  0 
  1 24  1  0  0  0  0 
  2 25  1  0  0  0  0 
  2 26  1  0  0  0  0 
  4 27  1  0  0  0  0 
  5 28  1  0  0  0  0 
  6 29  1  0  0  0  0 
  7 30  1  0  0  0  0 
  8 31  1  0  0  0  0 
 10 32  1  0  0  0  0 
 10 33  1  0  0  0  0 
 11 34  1  0  0  0  0 
 11 35  1  0  0  0  0 
 11 36  1  0  0  0  0 
 13 37  1  0  0  0  0 
 13 38  1  0  0  0  0 
 14 39  1  0  0  0  0 
 16 40  1  0  0  0  0 
 17 41  1  0  0  0  0 
 18 42  1  0  0  0  0 
 19 43  1  0  0  0  0 
 21 44  1  0  0  0  0 
 22 45  1  0  0  0  0 
M  END
> <cdk:Title>
levdobutamine

> <Conformer>
1

> <SuperDrugID>
SD000004

$$$$
