mephentermine
  CDK     0628171801

 29 29  0  0  0  0  0  0  0  0999 V2000
    1.4803    0.1210   -0.0198 C   0  0  0  0  0  0  0  0  0  0  0  0
    0.0346   -0.0544    0.2322 N   0  0  1  0  0  0  0  0  0  0  0  0
   -0.4649   -1.3147    0.8645 C   0  0  1  0  0  0  0  0  0  0  0  0
    0.3093   -1.6399    2.1826 C   0  0  0  0  0  0  0  0  0  0  0  0
   -1.9537   -1.0085    1.2322 C   0  0  0  0  0  0  0  0  0  0  0  0
   -0.3761   -2.5498   -0.1036 C   0  0  2  0  0  0  0  0  0  0  0  0
   -1.1128   -2.3918   -1.3898 C   0  0  0  0  0  0  0  0  0  0  0  0
   -0.5190   -1.7327   -2.4926 C   0  0  0  0  0  0  0  0  0  0  0  0
   -1.2414   -1.5319   -3.6828 C   0  0  0  0  0  0  0  0  0  0  0  0
   -2.5624   -1.9975   -3.7919 C   0  0  0  0  0  0  0  0  0  0  0  0
   -3.1551   -2.6809   -2.7167 C   0  0  0  0  0  0  0  0  0  0  0  0
   -2.4327   -2.8846   -1.5282 C   0  0  0  0  0  0  0  0  0  0  0  0
    1.9042   -0.7173   -0.5727 H   0  0  0  0  0  0  0  0  0  0  0  0
    1.6059    1.0252   -0.6146 H   0  0  0  0  0  0  0  0  0  0  0  0
    2.0217    0.2525    0.9192 H   0  0  0  0  0  0  0  0  0  0  0  0
   -0.2442    0.7159    0.8455 H   0  0  0  0  0  0  0  0  0  0  0  0
   -0.1566   -2.4735    2.7140 H   0  0  0  0  0  0  0  0  0  0  0  0
    1.3431   -1.9151    1.9651 H   0  0  0  0  0  0  0  0  0  0  0  0
    0.3205   -0.7727    2.8444 H   0  0  0  0  0  0  0  0  0  0  0  0
   -2.4480   -1.8935    1.6401 H   0  0  0  0  0  0  0  0  0  0  0  0
   -2.5132   -0.6821    0.3522 H   0  0  0  0  0  0  0  0  0  0  0  0
   -2.0162   -0.2116    1.9763 H   0  0  0  0  0  0  0  0  0  0  0  0
   -0.7552   -3.4341    0.4189 H   0  0  0  0  0  0  0  0  0  0  0  0
    0.6717   -2.7721   -0.3208 H   0  0  0  0  0  0  0  0  0  0  0  0
    0.4447   -1.3944   -2.4421 H   0  0  0  0  0  0  0  0  0  0  0  0
   -0.8030   -1.0439   -4.4670 H   0  0  0  0  0  0  0  0  0  0  0  0
   -3.0909   -1.8380   -4.6534 H   0  0  0  0  0  0  0  0  0  0  0  0
   -4.1122   -3.0266   -2.7962 H   0  0  0  0  0  0  0  0  0  0  0  0
   -2.8820   -3.3865   -0.7584 H   0  0  0  0  0  0  0  0  0  0  0  0
  1  2  1  0  0  0  0 
  2  3  1  0  0  0  0 
  3  4  1  0  0  0  0 
  3  5  1  0  0  0  0 
  3  6  1  0  0  0  0 
  6  7  1  0  0  0  0 
  7  8  2  0  0  0  0 
  8  9  1  0  0  0  0 
  9 10  2  0  0  0  0 
 10 11  1  0  0  0  0 
 11 12  2  0  0  0  0 
  7 12  1  0  0  0  0 
  1 13  1  0  0  0  0 
  1 14  1  0  0  0  0 
  1 15  1  0  0  0  0 
  2 16  1  0  0  0  0 
  4 17  1  0  0  0  0 
  4 18  1  0  0  0  0 
  4 19  1  0  0  0  0 
  5 20  1  0  0  0  0 
  5 21  1  0  0  0  0 
  5 22  1  0  0  0  0 
  6 23  1  0  0  0  0 
  6 24  1  0  0  0  0 
  8 25  1  0  0  0  0 
  9 26  1  0  0  0  0 
 10 27  1  0  0  0  0 
 11 28  1  0  0  0  0 
 12 29  1  0  0  0  0 
M  END
> <cdk:Title>
mephentermine

> <Conformer>
1

> <SuperDrugID>
SD001498

$$$$
