mesoridazine
  CDK     0628171801

 52 55  0  0  0  0  0  0  0  0999 V2000
   -0.6153    4.5699   -2.9509 C   0  0  1  0  0  0  0  0  0  0  0  0
   -1.3174    5.7525   -3.6501 C   0  0  1  0  0  0  0  0  0  0  0  0
   -1.3237    6.9550   -2.6858 C   0  0  1  0  0  0  0  0  0  0  0  0
    0.1254    7.4333   -2.4522 C   0  0  1  0  0  0  0  0  0  0  0  0
    1.1585    6.3597   -2.2359 N   0  0  1  0  0  0  0  0  0  0  0  0
    0.8437    4.8937   -2.4638 C   0  0  1  0  0  0  0  0  0  0  0  0
    1.1397    4.0671   -1.1637 C   0  0  2  0  0  0  0  0  0  0  0  0
    2.5979    4.1242   -0.6004 C   0  0  1  0  0  0  0  0  0  0  0  0
    2.8377    3.3159    0.6024 N   0  0  0  0  0  0  0  0  0  0  0  0
    3.3425    1.9997    0.4434 C   0  0  0  0  0  0  0  0  0  0  0  0
    3.1196    1.2210   -0.7325 C   0  0  0  0  0  0  0  0  0  0  0  0
    3.6435   -0.0745   -0.9009 C   0  0  0  0  0  0  0  0  0  0  0  0
    4.4234   -0.6525    0.1086 C   0  0  0  0  0  0  0  0  0  0  0  0
    4.6752    0.0740    1.2794 C   0  0  0  0  0  0  0  0  0  0  0  0
    4.1397    1.3683    1.4384 C   0  0  0  0  0  0  0  0  0  0  0  0
    4.5177    2.1775    2.9400 S   0  0  0  0  0  0  0  0  0  0  0  0
    3.3460    3.4700    3.0341 C   0  0  0  0  0  0  0  0  0  0  0  0
    2.6522    3.9155    1.8761 C   0  0  0  0  0  0  0  0  0  0  0  0
    1.7965    5.0374    2.0857 C   0  0  0  0  0  0  0  0  0  0  0  0
    1.6395    5.6705    3.3350 C   0  0  0  0  0  0  0  0  0  0  0  0
    2.3202    5.1654    4.4508 C   0  0  0  0  0  0  0  0  0  0  0  0
    3.1672    4.0600    4.3020 C   0  0  0  0  0  0  0  0  0  0  0  0
    0.6261    7.1111    3.5141 S   0  0  1  0  0  0  0  0  0  0  0  0
    1.2581    8.3266    2.2966 C   0  0  0  0  0  0  0  0  0  0  0  0
   -0.8276    6.7036    2.9724 O   0  0  0  0  0  0  0  0  0  0  0  0
    2.5159    6.8008   -2.6868 C   0  0  0  0  0  0  0  0  0  0  0  0
   -1.2454    4.2705   -2.1064 H   0  0  0  0  0  0  0  0  0  0  0  0
   -0.5989    3.7211   -3.6403 H   0  0  0  0  0  0  0  0  0  0  0  0
   -0.7954    6.0075   -4.5775 H   0  0  0  0  0  0  0  0  0  0  0  0
   -2.3452    5.4755   -3.9046 H   0  0  0  0  0  0  0  0  0  0  0  0
   -1.9105    7.7687   -3.1214 H   0  0  0  0  0  0  0  0  0  0  0  0
   -1.7898    6.6775   -1.7344 H   0  0  0  0  0  0  0  0  0  0  0  0
    0.3844    8.0498   -3.3215 H   0  0  0  0  0  0  0  0  0  0  0  0
    0.1379    8.0871   -1.5760 H   0  0  0  0  0  0  0  0  0  0  0  0
    1.5036    4.5087   -3.2497 H   0  0  0  0  0  0  0  0  0  0  0  0
    0.8869    3.0259   -1.3592 H   0  0  0  0  0  0  0  0  0  0  0  0
    0.4415    4.3977   -0.3992 H   0  0  0  0  0  0  0  0  0  0  0  0
    3.2930    3.8353   -1.3955 H   0  0  0  0  0  0  0  0  0  0  0  0
    2.8525    5.1628   -0.3822 H   0  0  0  0  0  0  0  0  0  0  0  0
    2.5660    1.5780   -1.5059 H   0  0  0  0  0  0  0  0  0  0  0  0
    3.4545   -0.5981   -1.7584 H   0  0  0  0  0  0  0  0  0  0  0  0
    4.8000   -1.5978   -0.0075 H   0  0  0  0  0  0  0  0  0  0  0  0
    5.2460   -0.3500    2.0136 H   0  0  0  0  0  0  0  0  0  0  0  0
    1.2716    5.4387    1.3181 H   0  0  0  0  0  0  0  0  0  0  0  0
    2.2131    5.6048    5.3684 H   0  0  0  0  0  0  0  0  0  0  0  0
    3.6602    3.6990    5.1230 H   0  0  0  0  0  0  0  0  0  0  0  0
    0.7097    9.2620    2.3971 H   0  0  0  0  0  0  0  0  0  0  0  0
    2.3162    8.5103    2.4839 H   0  0  0  0  0  0  0  0  0  0  0  0
    1.1319    7.9454    1.2829 H   0  0  0  0  0  0  0  0  0  0  0  0
    2.7878    7.7391   -2.1979 H   0  0  0  0  0  0  0  0  0  0  0  0
    3.2894    6.0738   -2.4522 H   0  0  0  0  0  0  0  0  0  0  0  0
    2.5232    6.9452   -3.7682 H   0  0  0  0  0  0  0  0  0  0  0  0
  1  2  1  0  0  0  0 
  2  3  1  0  0  0  0 
  3  4  1  0  0  0  0 
  4  5  1  0  0  0  0 
  6  5  1  0  0  0  0 
  6  1  1  0  0  0  0 
  6  7  1  0  0  0  0 
  7  8  1  0  0  0  0 
  8  9  1  0  0  0  0 
  9 10  1  0  0  0  0 
 10 11  2  0  0  0  0 
 11 12  1  0  0  0  0 
 12 13  2  0  0  0  0 
 13 14  1  0  0  0  0 
 14 15  2  0  0  0  0 
 10 15  1  0  0  0  0 
 15 16  1  0  0  0  0 
 16 17  1  0  0  0  0 
 17 18  2  0  0  0  0 
  9 18  1  0  0  0  0 
 18 19  1  0  0  0  0 
 19 20  2  0  0  0  0 
 20 21  1  0  0  0  0 
 21 22  2  0  0  0  0 
 17 22  1  0  0  0  0 
 20 23  1  0  0  0  0 
 23 24  1  0  0  0  0 
 23 25  2  0  0  0  0 
  5 26  1  0  0  0  0 
 27  1  1  0  0  0  0 
 28  1  1  0  0  0  0 
 29  2  1  0  0  0  0 
 30  2  1  0  0  0  0 
 31  3  1  0  0  0  0 
 32  3  1  0  0  0  0 
 33  4  1  0  0  0  0 
 34  4  1  0  0  0  0 
 35  6  1  0  0  0  0 
 36  7  1  0  0  0  0 
 37  7  1  0  0  0  0 
 38  8  1  0  0  0  0 
 39  8  1  0  0  0  0 
 40 11  1  0  0  0  0 
 41 12  1  0  0  0  0 
 42 13  1  0  0  0  0 
 43 14  1  0  0  0  0 
 44 19  1  0  0  0  0 
 45 21  1  0  0  0  0 
 46 22  1  0  0  0  0 
 47 24  1  0  0  0  0 
 48 24  1  0  0  0  0 
 49 24  1  0  0  0  0 
 50 26  1  0  0  0  0 
 51 26  1  0  0  0  0 
 52 26  1  0  0  0  0 
M  END
> <cdk:Title>
mesoridazine

> <Conformer>
1

> <SuperDrugID>
SD001515

$$$$
