amrinone
  CDK     0628171801

 23 24  0  0  0  0  0  0  0  0999 V2000
    4.1200    2.5636    0.3234 N   0  0  0  0  0  0  0  0  0  0  0  0
    3.2780    1.7853   -0.3846 C   0  0  0  0  0  0  0  0  0  0  0  0
    2.2417    1.0954    0.2750 C   0  0  0  0  0  0  0  0  0  0  0  0
    3.4077    1.6293   -1.7800 C   0  0  0  0  0  0  0  0  0  0  0  0
    1.3725    0.2406   -0.4415 C   0  0  0  0  0  0  0  0  0  0  0  0
    4.2967    2.2242   -2.4284 O   0  0  0  0  0  0  0  0  0  0  0  0
    2.5570    0.8172   -2.4559 N   0  0  0  0  0  0  0  0  0  0  0  0
    1.5684    0.1249   -1.8363 C   0  0  0  0  0  0  0  0  0  0  0  0
    0.3474   -0.4837    0.2190 C   0  0  0  0  0  0  0  0  0  0  0  0
   -0.6000    0.1807    1.0348 C   0  0  0  0  0  0  0  0  0  0  0  0
    0.2519   -1.8893    0.0755 C   0  0  0  0  0  0  0  0  0  0  0  0
   -1.6199   -0.5603    1.6599 C   0  0  0  0  0  0  0  0  0  0  0  0
   -0.7830   -2.5847    0.7273 C   0  0  0  0  0  0  0  0  0  0  0  0
   -1.6793   -1.9055    1.4874 N   0  0  0  0  0  0  0  0  0  0  0  0
    4.8474    3.0255   -0.1202 H   0  0  0  0  0  0  0  0  0  0  0  0
    4.0010    2.6609    1.2818 H   0  0  0  0  0  0  0  0  0  0  0  0
    2.1315    1.2058    1.2856 H   0  0  0  0  0  0  0  0  0  0  0  0
    2.6605    0.7238   -3.4155 H   0  0  0  0  0  0  0  0  0  0  0  0
    0.9653   -0.4752   -2.4033 H   0  0  0  0  0  0  0  0  0  0  0  0
   -0.5619    1.1964    1.1672 H   0  0  0  0  0  0  0  0  0  0  0  0
    0.9282   -2.4101   -0.4917 H   0  0  0  0  0  0  0  0  0  0  0  0
   -2.3187   -0.0921    2.2409 H   0  0  0  0  0  0  0  0  0  0  0  0
   -0.8643   -3.5985    0.6317 H   0  0  0  0  0  0  0  0  0  0  0  0
  1  2  1  0  0  0  0 
  2  3  2  0  0  0  0 
  2  4  1  0  0  0  0 
  3  5  1  0  0  0  0 
  4  6  2  0  0  0  0 
  4  7  1  0  0  0  0 
  5  8  2  0  0  0  0 
  5  9  1  0  0  0  0 
  7  8  1  0  0  0  0 
  9 10  2  0  0  0  0 
  9 11  1  0  0  0  0 
 10 12  1  0  0  0  0 
 11 13  2  0  0  0  0 
 12 14  2  0  0  0  0 
 13 14  1  0  0  0  0 
  1 15  1  0  0  0  0 
  1 16  1  0  0  0  0 
  3 17  1  0  0  0  0 
  7 18  1  0  0  0  0 
  8 19  1  0  0  0  0 
 10 20  1  0  0  0  0 
 11 21  1  0  0  0  0 
 12 22  1  0  0  0  0 
 13 23  1  0  0  0  0 
M  END
> <cdk:Title>
amrinone

> <Conformer>
1

> <SuperDrugID>
SD000166

$$$$
