limaprost
  CDK     0628171801

 63 63  0  0  0  0  0  0  0  0999 V2000
   -8.3065    0.8542    4.8134 C   0  0  1  0  0  0  0  0  0  0  0  0
   -7.8564    1.9745    5.7961 C   0  0  2  0  0  0  0  0  0  0  0  0
   -7.5301   -0.4967    4.9552 C   0  0  2  0  0  0  0  0  0  0  0  0
   -8.4921    3.3616    5.4912 C   0  0  2  0  0  0  0  0  0  0  0  0
   -7.7704   -1.4749    3.7502 C   0  0  1  0  0  0  0  0  0  0  0  0
   -7.8967   -1.3153    6.1249 C   0  0  0  0  0  0  0  0  0  0  0  0
   -8.0650    4.4396    6.5778 C   0  0  2  0  0  0  0  0  0  0  0  0
   -6.6011   -1.5894    2.8722 C   0  0  0  0  0  0  0  0  0  0  0  0
   -8.2141   -2.8325    4.3846 C   0  0  1  0  0  0  0  0  0  0  0  0
   -8.2183   -0.8594    7.2463 O   0  0  0  0  0  0  0  0  0  0  0  0
   -7.8220   -2.7484    5.8690 C   0  0  1  0  0  0  0  0  0  0  0  0
   -8.6760    5.7413    6.3638 C   0  0  0  0  0  0  0  0  0  0  0  0
   -6.2313   -0.6281    2.0055 C   0  0  0  0  0  0  0  0  0  0  0  0
   -9.6268   -3.0168    4.2647 O   0  0  0  0  0  0  0  0  0  0  0  0
   -8.5317    6.7537    7.2376 C   0  0  0  0  0  0  0  0  0  0  0  0
   -5.0415   -0.7302    1.1676 C   0  0  2  0  0  0  0  0  0  0  0  0
   -9.0991    8.0052    7.0910 C   0  0  0  0  0  0  0  0  0  0  0  0
   -3.7298   -0.6139    2.0052 C   0  0  1  0  0  0  0  0  0  0  0  0
   -5.0814    0.2990    0.1766 O   0  0  0  0  0  0  0  0  0  0  0  0
   -8.8983    8.9467    8.0414 O   0  0  0  0  0  0  0  0  0  0  0  0
   -9.8099    8.3226    6.1105 O   0  0  0  0  0  0  0  0  0  0  0  0
   -2.3790   -0.7886    1.2291 C   0  0  2  0  0  0  0  0  0  0  0  0
   -2.1928   -2.2563    0.7119 C   0  0  2  0  0  0  0  0  0  0  0  0
   -1.2040   -0.3325    2.1436 C   0  0  0  0  0  0  0  0  0  0  0  0
   -0.9425   -2.5111   -0.1743 C   0  0  2  0  0  0  0  0  0  0  0  0
   -0.9370   -3.9349   -0.8000 C   0  0  1  0  0  0  0  0  0  0  0  0
    0.2741   -4.1843   -1.7264 C   0  0  0  0  0  0  0  0  0  0  0  0
   -9.3772    0.6669    4.9410 H   0  0  0  0  0  0  0  0  0  0  0  0
   -8.1599    1.2248    3.7944 H   0  0  0  0  0  0  0  0  0  0  0  0
   -6.7673    2.0693    5.7550 H   0  0  0  0  0  0  0  0  0  0  0  0
   -8.1327    1.6821    6.8107 H   0  0  0  0  0  0  0  0  0  0  0  0
   -6.4615   -0.2737    5.0606 H   0  0  0  0  0  0  0  0  0  0  0  0
   -9.5970    3.1984    5.3491 H   0  0  0  0  0  0  0  0  0  0  0  0
   -8.1036    3.7000    4.5249 H   0  0  0  0  0  0  0  0  0  0  0  0
   -8.6035   -1.1207    3.1311 H   0  0  0  0  0  0  0  0  0  0  0  0
   -6.9766    4.5550    6.5748 H   0  0  0  0  0  0  0  0  0  0  0  0
   -8.3706    4.0721    7.5608 H   0  0  0  0  0  0  0  0  0  0  0  0
   -6.0370   -2.4062    2.9343 H   0  0  0  0  0  0  0  0  0  0  0  0
   -7.7392   -3.6989    3.9151 H   0  0  0  0  0  0  0  0  0  0  0  0
   -6.7927   -3.0851    6.0131 H   0  0  0  0  0  0  0  0  0  0  0  0
   -8.4891   -3.3261    6.5128 H   0  0  0  0  0  0  0  0  0  0  0  0
   -9.2158    5.8837    5.5392 H   0  0  0  0  0  0  0  0  0  0  0  0
   -6.7816    0.1986    1.9386 H   0  0  0  0  0  0  0  0  0  0  0  0
   -9.8003   -3.8985    4.6592 H   0  0  0  0  0  0  0  0  0  0  0  0
   -7.9837    6.5999    8.0536 H   0  0  0  0  0  0  0  0  0  0  0  0
   -5.0809   -1.6862    0.6410 H   0  0  0  0  0  0  0  0  0  0  0  0
   -3.7450    0.3726    2.4790 H   0  0  0  0  0  0  0  0  0  0  0  0
   -3.7482   -1.3523    2.8112 H   0  0  0  0  0  0  0  0  0  0  0  0
   -4.3090    0.1388   -0.4043 H   0  0  0  0  0  0  0  0  0  0  0  0
   -9.3050    9.8329    7.9506 H   0  0  0  0  0  0  0  0  0  0  0  0
   -2.3912   -0.1189    0.3642 H   0  0  0  0  0  0  0  0  0  0  0  0
   -3.0594   -2.5226    0.1051 H   0  0  0  0  0  0  0  0  0  0  0  0
   -2.1686   -2.9385    1.5664 H   0  0  0  0  0  0  0  0  0  0  0  0
   -1.3683    0.6866    2.5020 H   0  0  0  0  0  0  0  0  0  0  0  0
   -1.1133   -0.9917    3.0092 H   0  0  0  0  0  0  0  0  0  0  0  0
   -0.2603   -0.3327    1.5996 H   0  0  0  0  0  0  0  0  0  0  0  0
   -0.0381   -2.3912    0.4265 H   0  0  0  0  0  0  0  0  0  0  0  0
   -0.9238   -1.7717   -0.9787 H   0  0  0  0  0  0  0  0  0  0  0  0
   -0.9262   -4.6841   -0.0037 H   0  0  0  0  0  0  0  0  0  0  0  0
   -1.8483   -4.0777   -1.3862 H   0  0  0  0  0  0  0  0  0  0  0  0
    1.2073   -4.0844   -1.1697 H   0  0  0  0  0  0  0  0  0  0  0  0
    0.2746   -3.4717   -2.5540 H   0  0  0  0  0  0  0  0  0  0  0  0
    0.2233   -5.1942   -2.1407 H   0  0  0  0  0  0  0  0  0  0  0  0
  1  2  1  0  0  0  0 
  2  4  1  0  0  0  0 
  3  1  1  0  0  0  0 
  5  3  1  0  0  0  0 
  3  6  1  0  0  0  0 
  4  7  1  0  0  0  0 
  5  8  1  0  0  0  0 
  9  5  1  0  0  0  0 
  6 10  2  0  0  0  0 
  6 11  1  0  0  0  0 
  7 12  1  0  0  0  0 
  8 13  2  0  0  0  0 
  9 11  1  0  0  0  0 
  9 14  1  0  0  0  0 
 12 15  2  0  0  0  0 
 16 13  1  0  0  0  0 
 15 17  1  0  0  0  0 
 16 18  1  0  0  0  0 
 16 19  1  0  0  0  0 
 17 20  1  0  0  0  0 
 17 21  2  0  0  0  0 
 22 18  1  0  0  0  0 
 22 23  1  0  0  0  0 
 22 24  1  0  0  0  0 
 23 25  1  0  0  0  0 
 25 26  1  0  0  0  0 
 26 27  1  0  0  0  0 
  1 28  1  0  0  0  0 
  1 29  1  0  0  0  0 
  2 30  1  0  0  0  0 
  2 31  1  0  0  0  0 
  3 32  1  0  0  0  0 
  4 33  1  0  0  0  0 
  4 34  1  0  0  0  0 
  5 35  1  0  0  0  0 
  7 36  1  0  0  0  0 
  7 37  1  0  0  0  0 
  8 38  1  0  0  0  0 
  9 39  1  0  0  0  0 
 11 40  1  0  0  0  0 
 11 41  1  0  0  0  0 
 12 42  1  0  0  0  0 
 13 43  1  0  0  0  0 
 14 44  1  0  0  0  0 
 15 45  1  0  0  0  0 
 16 46  1  0  0  0  0 
 18 47  1  0  0  0  0 
 18 48  1  0  0  0  0 
 19 49  1  0  0  0  0 
 20 50  1  0  0  0  0 
 22 51  1  0  0  0  0 
 23 52  1  0  0  0  0 
 23 53  1  0  0  0  0 
 24 54  1  0  0  0  0 
 24 55  1  0  0  0  0 
 24 56  1  0  0  0  0 
 25 57  1  0  0  0  0 
 25 58  1  0  0  0  0 
 26 59  1  0  0  0  0 
 26 60  1  0  0  0  0 
 27 61  1  0  0  0  0 
 27 62  1  0  0  0  0 
 27 63  1  0  0  0  0 
M  END
> <cdk:Title>
limaprost

> <Conformer>
1

> <SuperDrugID>
SD001396

$$$$
