mitoxantrone
  CDK     0628171801

 60 62  0  0  0  0  0  0  0  0999 V2000
    2.9417    0.5457    2.8916 N   0  0  0  0  0  0  0  0  0  0  0  0
    1.6695    0.4748    2.2511 C   0  0  2  0  0  0  0  0  0  0  0  0
    3.4106    1.6897    3.4629 C   0  0  0  0  0  0  0  0  0  0  0  0
    1.4865   -0.8735    1.5196 C   0  0  1  0  0  0  0  0  0  0  0  0
    4.6152    2.3213    3.0252 C   0  0  0  0  0  0  0  0  0  0  0  0
    2.6411    2.2611    4.4919 C   0  0  0  0  0  0  0  0  0  0  0  0
    0.1765   -0.9809    0.8318 N   0  0  1  0  0  0  0  0  0  0  0  0
    4.9769    3.5903    3.5793 C   0  0  0  0  0  0  0  0  0  0  0  0
    5.4682    1.7303    2.0283 C   0  0  0  0  0  0  0  0  0  0  0  0
    3.0152    3.4759    5.0601 C   0  0  0  0  0  0  0  0  0  0  0  0
    0.0323   -0.1578   -0.3931 C   0  0  1  0  0  0  0  0  0  0  0  0
    4.1671    4.1527    4.6156 C   0  0  0  0  0  0  0  0  0  0  0  0
    6.1521    4.2552    3.0781 C   0  0  0  0  0  0  0  0  0  0  0  0
    5.1694    0.6148    1.5402 O   0  0  0  0  0  0  0  0  0  0  0  0
    6.6582    2.3777    1.5636 C   0  0  0  0  0  0  0  0  0  0  0  0
   -1.3604   -0.3378   -1.0242 C   0  0  2  0  0  0  0  0  0  0  0  0
    4.4531    5.3500    5.2035 N   0  0  0  0  0  0  0  0  0  0  0  0
    6.4764    5.3734    3.5434 O   0  0  0  0  0  0  0  0  0  0  0  0
    6.9859    3.6724    2.0678 C   0  0  0  0  0  0  0  0  0  0  0  0
    7.5225    1.7684    0.6068 C   0  0  0  0  0  0  0  0  0  0  0  0
   -1.4954    0.5461   -2.1318 O   0  0  0  0  0  0  0  0  0  0  0  0
    4.6311    5.5133    6.6087 C   0  0  2  0  0  0  0  0  0  0  0  0
    8.1406    4.3376    1.5580 C   0  0  0  0  0  0  0  0  0  0  0  0
    7.3270    0.5275    0.0897 O   0  0  0  0  0  0  0  0  0  0  0  0
    8.6613    2.4378    0.1380 C   0  0  0  0  0  0  0  0  0  0  0  0
    4.9440    6.9749    6.9739 C   0  0  2  0  0  0  0  0  0  0  0  0
    8.5196    5.5891    1.9284 O   0  0  0  0  0  0  0  0  0  0  0  0
    8.9688    3.7166    0.6099 C   0  0  0  0  0  0  0  0  0  0  0  0
    5.2179    7.0126    8.4237 N   0  0  1  0  0  0  0  0  0  0  0  0
    5.3917    8.3579    8.9971 C   0  0  2  0  0  0  0  0  0  0  0  0
    5.6649    8.2054   10.5051 C   0  0  2  0  0  0  0  0  0  0  0  0
    5.8283    9.4797   11.1154 O   0  0  0  0  0  0  0  0  0  0  0  0
    3.5367   -0.2177    2.8215 H   0  0  0  0  0  0  0  0  0  0  0  0
    1.6201    1.2916    1.5280 H   0  0  0  0  0  0  0  0  0  0  0  0
    0.8620    0.6023    2.9759 H   0  0  0  0  0  0  0  0  0  0  0  0
    2.3046   -1.0306    0.8110 H   0  0  0  0  0  0  0  0  0  0  0  0
    1.5319   -1.6748    2.2605 H   0  0  0  0  0  0  0  0  0  0  0  0
    1.7947    1.7994    4.8349 H   0  0  0  0  0  0  0  0  0  0  0  0
    0.0852   -1.9566    0.5411 H   0  0  0  0  0  0  0  0  0  0  0  0
    2.4198    3.8699    5.7926 H   0  0  0  0  0  0  0  0  0  0  0  0
    0.1479    0.9001   -0.1517 H   0  0  0  0  0  0  0  0  0  0  0  0
    0.7961   -0.4396   -1.1230 H   0  0  0  0  0  0  0  0  0  0  0  0
   -2.1356   -0.1027   -0.2926 H   0  0  0  0  0  0  0  0  0  0  0  0
   -1.4924   -1.3647   -1.3689 H   0  0  0  0  0  0  0  0  0  0  0  0
    4.6396    6.1091    4.6268 H   0  0  0  0  0  0  0  0  0  0  0  0
   -2.4026    0.3966   -2.4683 H   0  0  0  0  0  0  0  0  0  0  0  0
    5.4621    4.8786    6.9281 H   0  0  0  0  0  0  0  0  0  0  0  0
    3.7349    5.2093    7.1527 H   0  0  0  0  0  0  0  0  0  0  0  0
    7.1683   -0.0507    0.8647 H   0  0  0  0  0  0  0  0  0  0  0  0
    9.2714    1.9943   -0.5514 H   0  0  0  0  0  0  0  0  0  0  0  0
    4.0911    7.6099    6.7148 H   0  0  0  0  0  0  0  0  0  0  0  0
    5.8216    7.3221    6.4243 H   0  0  0  0  0  0  0  0  0  0  0  0
    7.7082    6.1356    1.8664 H   0  0  0  0  0  0  0  0  0  0  0  0
    9.8006    4.1952    0.2561 H   0  0  0  0  0  0  0  0  0  0  0  0
    4.4160    6.5875    8.8926 H   0  0  0  0  0  0  0  0  0  0  0  0
    4.4907    8.9586    8.8402 H   0  0  0  0  0  0  0  0  0  0  0  0
    6.2414    8.8560    8.5246 H   0  0  0  0  0  0  0  0  0  0  0  0
    6.5780    7.6261   10.6569 H   0  0  0  0  0  0  0  0  0  0  0  0
    4.8364    7.6818   10.9878 H   0  0  0  0  0  0  0  0  0  0  0  0
    4.9699    9.9328   10.9807 H   0  0  0  0  0  0  0  0  0  0  0  0
  1  2  1  0  0  0  0 
  1  3  1  0  0  0  0 
  2  4  1  0  0  0  0 
  3  5  2  0  0  0  0 
  3  6  1  0  0  0  0 
  4  7  1  0  0  0  0 
  5  8  1  0  0  0  0 
  5  9  1  0  0  0  0 
  6 10  2  0  0  0  0 
  7 11  1  0  0  0  0 
  8 12  2  0  0  0  0 
  8 13  1  0  0  0  0 
  9 14  2  0  0  0  0 
  9 15  1  0  0  0  0 
 10 12  1  0  0  0  0 
 11 16  1  0  0  0  0 
 12 17  1  0  0  0  0 
 13 18  2  0  0  0  0 
 13 19  1  0  0  0  0 
 15 19  2  0  0  0  0 
 15 20  1  0  0  0  0 
 16 21  1  0  0  0  0 
 17 22  1  0  0  0  0 
 19 23  1  0  0  0  0 
 20 24  1  0  0  0  0 
 20 25  2  0  0  0  0 
 22 26  1  0  0  0  0 
 23 27  1  0  0  0  0 
 23 28  2  0  0  0  0 
 25 28  1  0  0  0  0 
 26 29  1  0  0  0  0 
 29 30  1  0  0  0  0 
 30 31  1  0  0  0  0 
 31 32  1  0  0  0  0 
  1 33  1  0  0  0  0 
  2 34  1  0  0  0  0 
  2 35  1  0  0  0  0 
  4 36  1  0  0  0  0 
  4 37  1  0  0  0  0 
  6 38  1  0  0  0  0 
  7 39  1  0  0  0  0 
 10 40  1  0  0  0  0 
 11 41  1  0  0  0  0 
 11 42  1  0  0  0  0 
 16 43  1  0  0  0  0 
 16 44  1  0  0  0  0 
 17 45  1  0  0  0  0 
 21 46  1  0  0  0  0 
 22 47  1  0  0  0  0 
 22 48  1  0  0  0  0 
 24 49  1  0  0  0  0 
 25 50  1  0  0  0  0 
 26 51  1  0  0  0  0 
 26 52  1  0  0  0  0 
 27 53  1  0  0  0  0 
 28 54  1  0  0  0  0 
 29 55  1  0  0  0  0 
 30 56  1  0  0  0  0 
 30 57  1  0  0  0  0 
 31 58  1  0  0  0  0 
 31 59  1  0  0  0  0 
 32 60  1  0  0  0  0 
M  END
> <cdk:Title>
mitoxantrone

> <Conformer>
1

> <SuperDrugID>
SD001620

$$$$
