cioteronel
  CDK     0628171801

 46 47  0  0  0  0  0  0  0  0999 V2000
    3.3463   -0.0694    4.0609 C   0  0  2  0  0  0  0  0  0  0  0  0
    3.8122   -0.3151    2.6013 C   0  0  2  0  0  0  0  0  0  0  0  0
    4.2062   -0.8063    5.1344 C   0  0  2  0  0  0  0  0  0  0  0  0
    3.0216    0.5357    1.5733 C   0  0  1  0  0  0  0  0  0  0  0  0
    3.6693   -0.6262    6.5903 C   0  0  2  0  0  0  0  0  0  0  0  0
    5.6771   -0.3341    5.2247 C   0  0  2  0  0  0  0  0  0  0  0  0
    3.4772    0.2772    0.1115 C   0  0  2  0  0  0  0  0  0  0  0  0
    4.9061   -0.5176    7.5176 C   0  0  2  0  0  0  0  0  0  0  0  0
    2.7970   -1.7844    7.1416 C   0  0  1  0  0  0  0  0  0  0  0  0
    6.1285   -0.8085    6.6159 C   0  0  2  0  0  0  0  0  0  0  0  0
    2.7985    1.2194   -0.9254 C   0  0  2  0  0  0  0  0  0  0  0  0
    4.6837   -1.4818    8.7083 C   0  0  2  0  0  0  0  0  0  0  0  0
    3.4065   -2.1345    8.4236 C   0  0  0  0  0  0  0  0  0  0  0  0
    3.2621    0.8851   -2.3723 C   0  0  2  0  0  0  0  0  0  0  0  0
    3.1806    2.5849   -0.6226 O   0  0  0  0  0  0  0  0  0  0  0  0
    2.8900   -2.9620    9.2060 O   0  0  0  0  0  0  0  0  0  0  0  0
    2.5556    1.7312   -3.4540 C   0  0  0  0  0  0  0  0  0  0  0  0
    2.1068    3.5056   -0.3637 C   0  0  0  0  0  0  0  0  0  0  0  0
    2.3125   -0.4156    4.1521 H   0  0  0  0  0  0  0  0  0  0  0  0
    3.3584    1.0048    4.2693 H   0  0  0  0  0  0  0  0  0  0  0  0
    3.6905   -1.3751    2.3631 H   0  0  0  0  0  0  0  0  0  0  0  0
    4.8714   -0.0645    2.5114 H   0  0  0  0  0  0  0  0  0  0  0  0
    4.2254   -1.8701    4.8736 H   0  0  0  0  0  0  0  0  0  0  0  0
    1.9547    0.3080    1.6562 H   0  0  0  0  0  0  0  0  0  0  0  0
    3.1669    1.5901    1.8174 H   0  0  0  0  0  0  0  0  0  0  0  0
    3.1020    0.3094    6.6695 H   0  0  0  0  0  0  0  0  0  0  0  0
    5.7460    0.7563    5.1599 H   0  0  0  0  0  0  0  0  0  0  0  0
    6.2976   -0.7760    4.4409 H   0  0  0  0  0  0  0  0  0  0  0  0
    3.2422   -0.7613   -0.1412 H   0  0  0  0  0  0  0  0  0  0  0  0
    4.5625    0.4015    0.0461 H   0  0  0  0  0  0  0  0  0  0  0  0
    4.9927    0.5088    7.8943 H   0  0  0  0  0  0  0  0  0  0  0  0
    1.7640   -1.4593    7.2880 H   0  0  0  0  0  0  0  0  0  0  0  0
    2.8033   -2.6640    6.4957 H   0  0  0  0  0  0  0  0  0  0  0  0
    7.0187   -0.2707    6.9534 H   0  0  0  0  0  0  0  0  0  0  0  0
    6.3509   -1.8791    6.5786 H   0  0  0  0  0  0  0  0  0  0  0  0
    1.7150    1.0528   -0.8663 H   0  0  0  0  0  0  0  0  0  0  0  0
    4.6126   -0.9305    9.6501 H   0  0  0  0  0  0  0  0  0  0  0  0
    5.4737   -2.2315    8.7934 H   0  0  0  0  0  0  0  0  0  0  0  0
    3.0609   -0.1684   -2.5826 H   0  0  0  0  0  0  0  0  0  0  0  0
    4.3406    1.0445   -2.4555 H   0  0  0  0  0  0  0  0  0  0  0  0
    2.8085    2.7870   -3.3413 H   0  0  0  0  0  0  0  0  0  0  0  0
    2.8746    1.4043   -4.4455 H   0  0  0  0  0  0  0  0  0  0  0  0
    1.4711    1.6147   -3.3830 H   0  0  0  0  0  0  0  0  0  0  0  0
    2.5422    4.4762   -0.1230 H   0  0  0  0  0  0  0  0  0  0  0  0
    1.4700    3.6219   -1.2422 H   0  0  0  0  0  0  0  0  0  0  0  0
    1.5052    3.1779    0.4851 H   0  0  0  0  0  0  0  0  0  0  0  0
  1  2  1  0  0  0  0 
  1  3  1  0  0  0  0 
  2  4  1  0  0  0  0 
  3  5  1  0  0  0  0 
  3  6  1  0  0  0  0 
  4  7  1  0  0  0  0 
  5  8  1  0  0  0  0 
  5  9  1  0  0  0  0 
  6 10  1  0  0  0  0 
  7 11  1  0  0  0  0 
  8 10  1  0  0  0  0 
  8 12  1  0  0  0  0 
  9 13  1  0  0  0  0 
 11 14  1  0  0  0  0 
 11 15  1  0  0  0  0 
 12 13  1  0  0  0  0 
 13 16  2  0  0  0  0 
 14 17  1  0  0  0  0 
 15 18  1  0  0  0  0 
  1 19  1  0  0  0  0 
  1 20  1  0  0  0  0 
  2 21  1  0  0  0  0 
  2 22  1  0  0  0  0 
  3 23  1  0  0  0  0 
  4 24  1  0  0  0  0 
  4 25  1  0  0  0  0 
  5 26  1  0  0  0  0 
  6 27  1  0  0  0  0 
  6 28  1  0  0  0  0 
  7 29  1  0  0  0  0 
  7 30  1  0  0  0  0 
  8 31  1  0  0  0  0 
  9 32  1  0  0  0  0 
  9 33  1  0  0  0  0 
 10 34  1  0  0  0  0 
 10 35  1  0  0  0  0 
 11 36  1  0  0  0  0 
 12 37  1  0  0  0  0 
 12 38  1  0  0  0  0 
 14 39  1  0  0  0  0 
 14 40  1  0  0  0  0 
 17 41  1  0  0  0  0 
 17 42  1  0  0  0  0 
 17 43  1  0  0  0  0 
 18 44  1  0  0  0  0 
 18 45  1  0  0  0  0 
 18 46  1  0  0  0  0 
M  END
> <cdk:Title>
cioteronel

> <Conformer>
1

> <SuperDrugID>
SD003172

$$$$
