dimethocaine
  CDK     0628171801

 46 46  0  0  0  0  0  0  0  0999 V2000
    0.0601   -0.9243   -0.0961 C   0  0  0  0  0  0  0  0  0  0  0  0
   -1.1235   -1.5999   -0.0015 O   0  0  0  0  0  0  0  0  0  0  0  0
    0.0541    0.2621   -0.5077 O   0  0  0  0  0  0  0  0  0  0  0  0
    1.2742   -1.5704    0.2555 C   0  0  0  0  0  0  0  0  0  0  0  0
   -2.4195   -1.1049   -0.3576 C   0  0  2  0  0  0  0  0  0  0  0  0
    1.2694   -2.9113    0.7143 C   0  0  0  0  0  0  0  0  0  0  0  0
    2.5230   -0.9086    0.1494 C   0  0  0  0  0  0  0  0  0  0  0  0
   -3.5441   -2.1726   -0.1138 C   0  0  2  0  0  0  0  0  0  0  0  0
    2.4640   -3.5674    1.0570 C   0  0  0  0  0  0  0  0  0  0  0  0
    3.7206   -1.5616    0.4934 C   0  0  0  0  0  0  0  0  0  0  0  0
   -3.2191   -3.4798   -0.9421 C   0  0  2  0  0  0  0  0  0  0  0  0
    3.6965   -2.8947    0.9454 C   0  0  0  0  0  0  0  0  0  0  0  0
   -4.4116   -4.3175   -1.3450 N   0  0  1  0  0  0  0  0  0  0  0  0
    4.8422   -3.5293    1.2592 N   0  0  0  0  0  0  0  0  0  0  0  0
   -4.4746   -4.6519   -2.8115 C   0  0  1  0  0  0  0  0  0  0  0  0
   -4.7128   -5.4760   -0.4361 C   0  0  1  0  0  0  0  0  0  0  0  0
   -4.8526   -3.4411   -3.6963 C   0  0  0  0  0  0  0  0  0  0  0  0
   -6.1982   -5.9177   -0.4826 C   0  0  0  0  0  0  0  0  0  0  0  0
   -4.9033   -1.5377   -0.5597 C   0  0  0  0  0  0  0  0  0  0  0  0
   -3.6206   -2.4700    1.4218 C   0  0  0  0  0  0  0  0  0  0  0  0
   -2.3990   -0.8234   -1.4152 H   0  0  0  0  0  0  0  0  0  0  0  0
   -2.6162   -0.2010    0.2251 H   0  0  0  0  0  0  0  0  0  0  0  0
    0.3937   -3.4324    0.7953 H   0  0  0  0  0  0  0  0  0  0  0  0
    2.5770    0.0557   -0.1907 H   0  0  0  0  0  0  0  0  0  0  0  0
    2.4275   -4.5374    1.3819 H   0  0  0  0  0  0  0  0  0  0  0  0
    4.6082   -1.0603    0.4057 H   0  0  0  0  0  0  0  0  0  0  0  0
   -2.4998   -4.0940   -0.3921 H   0  0  0  0  0  0  0  0  0  0  0  0
   -2.6743   -3.1758   -1.8405 H   0  0  0  0  0  0  0  0  0  0  0  0
    5.6918   -3.0658    1.1765 H   0  0  0  0  0  0  0  0  0  0  0  0
    4.8218   -4.4531    1.5608 H   0  0  0  0  0  0  0  0  0  0  0  0
   -3.5156   -5.0587   -3.1442 H   0  0  0  0  0  0  0  0  0  0  0  0
   -5.2258   -5.4161   -3.0136 H   0  0  0  0  0  0  0  0  0  0  0  0
   -4.0679   -6.3272   -0.6794 H   0  0  0  0  0  0  0  0  0  0  0  0
   -4.5070   -5.2046    0.6006 H   0  0  0  0  0  0  0  0  0  0  0  0
   -4.9350   -3.7550   -4.7395 H   0  0  0  0  0  0  0  0  0  0  0  0
   -4.0927   -2.6609   -3.6345 H   0  0  0  0  0  0  0  0  0  0  0  0
   -5.8141   -3.0293   -3.3799 H   0  0  0  0  0  0  0  0  0  0  0  0
   -6.4436   -6.5119    0.4005 H   0  0  0  0  0  0  0  0  0  0  0  0
   -6.3978   -6.5332   -1.3626 H   0  0  0  0  0  0  0  0  0  0  0  0
   -6.8533   -5.0433   -0.5049 H   0  0  0  0  0  0  0  0  0  0  0  0
   -5.7336   -2.2241   -0.3832 H   0  0  0  0  0  0  0  0  0  0  0  0
   -4.8860   -1.2877   -1.6212 H   0  0  0  0  0  0  0  0  0  0  0  0
   -5.1088   -0.6206   -0.0025 H   0  0  0  0  0  0  0  0  0  0  0  0
   -4.4500   -3.1385    1.6517 H   0  0  0  0  0  0  0  0  0  0  0  0
   -3.7766   -1.5501    1.9910 H   0  0  0  0  0  0  0  0  0  0  0  0
   -2.6977   -2.9312    1.7816 H   0  0  0  0  0  0  0  0  0  0  0  0
  1  2  1  0  0  0  0 
  1  3  2  0  0  0  0 
  1  4  1  0  0  0  0 
  2  5  1  0  0  0  0 
  4  6  2  0  0  0  0 
  4  7  1  0  0  0  0 
  5  8  1  0  0  0  0 
  6  9  1  0  0  0  0 
  7 10  2  0  0  0  0 
  8 11  1  0  0  0  0 
  9 12  2  0  0  0  0 
 10 12  1  0  0  0  0 
 11 13  1  0  0  0  0 
 12 14  1  0  0  0  0 
 13 15  1  0  0  0  0 
 13 16  1  0  0  0  0 
 15 17  1  0  0  0  0 
 16 18  1  0  0  0  0 
  8 19  1  0  0  0  0 
  8 20  1  0  0  0  0 
  5 21  1  0  0  0  0 
  5 22  1  0  0  0  0 
  6 23  1  0  0  0  0 
  7 24  1  0  0  0  0 
  9 25  1  0  0  0  0 
 10 26  1  0  0  0  0 
 11 27  1  0  0  0  0 
 11 28  1  0  0  0  0 
 14 29  1  0  0  0  0 
 14 30  1  0  0  0  0 
 15 31  1  0  0  0  0 
 15 32  1  0  0  0  0 
 16 33  1  0  0  0  0 
 16 34  1  0  0  0  0 
 17 35  1  0  0  0  0 
 17 36  1  0  0  0  0 
 17 37  1  0  0  0  0 
 18 38  1  0  0  0  0 
 18 39  1  0  0  0  0 
 18 40  1  0  0  0  0 
 19 41  1  0  0  0  0 
 19 42  1  0  0  0  0 
 19 43  1  0  0  0  0 
 20 44  1  0  0  0  0 
 20 45  1  0  0  0  0 
 20 46  1  0  0  0  0 
M  END
> <cdk:Title>
dimethocaine

> <Conformer>
1

> <SuperDrugID>
SD002731

$$$$
