tiaramide
  CDK     0628171801

 41 43  0  0  0  0  0  0  0  0999 V2000
   -5.1745    1.2140    5.7496 C   0  0  1  0  0  0  0  0  0  0  0  0
   -3.7028    1.4594    5.6746 C   0  0  0  0  0  0  0  0  0  0  0  0
   -5.4502   -0.0593    6.3865 N   0  0  0  0  0  0  0  0  0  0  0  0
   -3.2546    2.2136    6.5725 O   0  0  0  0  0  0  0  0  0  0  0  0
   -2.8217    0.8817    4.7594 N   0  0  0  0  0  0  0  0  0  0  0  0
   -5.3850   -0.2732    7.7548 C   0  0  0  0  0  0  0  0  0  0  0  0
   -5.7870   -1.1651    5.6574 C   0  0  0  0  0  0  0  0  0  0  0  0
   -1.3885    0.8499    5.0058 C   0  0  2  0  0  0  0  0  0  0  0  0
   -3.2401    0.2405    3.5270 C   0  0  1  0  0  0  0  0  0  0  0  0
   -5.6050   -1.5969    8.1875 C   0  0  0  0  0  0  0  0  0  0  0  0
   -5.1310    0.6874    8.7662 C   0  0  0  0  0  0  0  0  0  0  0  0
   -5.9594   -1.2633    4.4220 O   0  0  0  0  0  0  0  0  0  0  0  0
   -5.9550   -2.5273    6.7501 S   0  0  0  0  0  0  0  0  0  0  0  0
   -0.5636    1.3679    3.8013 C   0  0  2  0  0  0  0  0  0  0  0  0
   -2.4333    0.7598    2.3072 C   0  0  2  0  0  0  0  0  0  0  0  0
   -5.5370   -2.0080    9.5259 C   0  0  0  0  0  0  0  0  0  0  0  0
   -5.0678    0.3132   10.1275 C   0  0  0  0  0  0  0  0  0  0  0  0
   -0.9587    0.6695    2.5385 N   0  0  1  0  0  0  0  0  0  0  0  0
   -5.2514   -1.0357   10.5007 C   0  0  0  0  0  0  0  0  0  0  0  0
   -4.7770    1.4870   11.3134 Cl  0  0  0  0  0  0  0  0  0  0  0  0
   -0.1584    1.0825    1.3405 C   0  0  1  0  0  0  0  0  0  0  0  0
    1.3141    0.6108    1.3901 C   0  0  1  0  0  0  0  0  0  0  0  0
    1.9468    0.8252    0.1336 O   0  0  0  0  0  0  0  0  0  0  0  0
   -5.6723    2.0050    6.3161 H   0  0  0  0  0  0  0  0  0  0  0  0
   -5.6279    1.2946    4.7622 H   0  0  0  0  0  0  0  0  0  0  0  0
   -1.1090   -0.1920    5.1951 H   0  0  0  0  0  0  0  0  0  0  0  0
   -1.0790    1.4208    5.8860 H   0  0  0  0  0  0  0  0  0  0  0  0
   -3.0931   -0.8375    3.6255 H   0  0  0  0  0  0  0  0  0  0  0  0
   -4.2883    0.4033    3.2860 H   0  0  0  0  0  0  0  0  0  0  0  0
   -4.9980    1.6688    8.5234 H   0  0  0  0  0  0  0  0  0  0  0  0
    0.4890    1.1772    4.0244 H   0  0  0  0  0  0  0  0  0  0  0  0
   -0.6946    2.4498    3.7037 H   0  0  0  0  0  0  0  0  0  0  0  0
   -2.7193    1.7953    2.0954 H   0  0  0  0  0  0  0  0  0  0  0  0
   -2.7079    0.1501    1.4424 H   0  0  0  0  0  0  0  0  0  0  0  0
   -5.6913   -2.9841    9.7833 H   0  0  0  0  0  0  0  0  0  0  0  0
   -5.1850   -1.3144   11.4814 H   0  0  0  0  0  0  0  0  0  0  0  0
   -0.5970    0.6437    0.4399 H   0  0  0  0  0  0  0  0  0  0  0  0
   -0.1882    2.1702    1.2255 H   0  0  0  0  0  0  0  0  0  0  0  0
    1.8738    1.1646    2.1454 H   0  0  0  0  0  0  0  0  0  0  0  0
    1.3572   -0.4545    1.6263 H   0  0  0  0  0  0  0  0  0  0  0  0
    1.8934    1.7931   -0.0133 H   0  0  0  0  0  0  0  0  0  0  0  0
  1  2  1  0  0  0  0 
  1  3  1  0  0  0  0 
  2  4  2  0  0  0  0 
  2  5  1  0  0  0  0 
  3  6  1  0  0  0  0 
  3  7  1  0  0  0  0 
  5  8  1  0  0  0  0 
  5  9  1  0  0  0  0 
  6 10  1  0  0  0  0 
  6 11  2  0  0  0  0 
  7 12  2  0  0  0  0 
  7 13  1  0  0  0  0 
  8 14  1  0  0  0  0 
  9 15  1  0  0  0  0 
 10 13  1  0  0  0  0 
 10 16  2  0  0  0  0 
 11 17  1  0  0  0  0 
 14 18  1  0  0  0  0 
 15 18  1  0  0  0  0 
 16 19  1  0  0  0  0 
 17 19  2  0  0  0  0 
 17 20  1  0  0  0  0 
 18 21  1  0  0  0  0 
 21 22  1  0  0  0  0 
 22 23  1  0  0  0  0 
  1 24  1  0  0  0  0 
  1 25  1  0  0  0  0 
  8 26  1  0  0  0  0 
  8 27  1  0  0  0  0 
  9 28  1  0  0  0  0 
  9 29  1  0  0  0  0 
 11 30  1  0  0  0  0 
 14 31  1  0  0  0  0 
 14 32  1  0  0  0  0 
 15 33  1  0  0  0  0 
 15 34  1  0  0  0  0 
 16 35  1  0  0  0  0 
 19 36  1  0  0  0  0 
 21 37  1  0  0  0  0 
 21 38  1  0  0  0  0 
 22 39  1  0  0  0  0 
 22 40  1  0  0  0  0 
 23 41  1  0  0  0  0 
M  END
> <cdk:Title>
tiaramide

> <Conformer>
1

> <SuperDrugID>
SD002386

$$$$
