quinestrol
  CDK     0628171801

 59 63  0  0  0  0  0  0  0  0999 V2000
    4.8651   -6.7880   -7.3717 C   0  0  0  0  0  0  0  0  0  0  0  0
    5.9322   -5.6630   -7.6689 C   0  0  2  0  0  0  0  0  0  0  0  0
    5.3154   -4.2845   -8.0699 C   0  0  2  0  0  0  0  0  0  0  0  0
    6.7038   -6.0200   -9.0014 C   0  0  1  0  0  0  0  0  0  0  0  0
    6.7858   -5.4296   -6.3679 C   0  0  2  0  0  0  0  0  0  0  0  0
    4.3886   -3.6751   -6.9671 C   0  0  1  0  0  0  0  0  0  0  0  0
    4.7729   -4.4958   -9.5032 C   0  0  2  0  0  0  0  0  0  0  0  0
    7.9186   -5.3676   -9.1427 C   0  0  0  0  0  0  0  0  0  0  0  0
    7.0183   -7.4118   -9.1166 O   0  0  0  0  0  0  0  0  0  0  0  0
    5.6988   -5.5811  -10.1195 C   0  0  2  0  0  0  0  0  0  0  0  0
    5.9893   -4.7416   -5.2137 C   0  0  2  0  0  0  0  0  0  0  0  0
    5.2249   -3.4369   -5.6520 C   0  0  2  0  0  0  0  0  0  0  0  0
    3.7487   -2.3385   -7.4297 C   0  0  1  0  0  0  0  0  0  0  0  0
    8.9575   -4.7870   -9.2463 C   0  0  0  0  0  0  0  0  0  0  0  0
    4.4341   -2.7167   -4.5848 C   0  0  0  0  0  0  0  0  0  0  0  0
    2.8358   -1.7331   -6.3346 C   0  0  2  0  0  0  0  0  0  0  0  0
    3.3317   -1.8766   -4.9332 C   0  0  0  0  0  0  0  0  0  0  0  0
    4.8141   -2.7750   -3.2162 C   0  0  0  0  0  0  0  0  0  0  0  0
    2.6631   -1.1359   -3.9274 C   0  0  0  0  0  0  0  0  0  0  0  0
    4.1507   -2.0225   -2.2325 C   0  0  0  0  0  0  0  0  0  0  0  0
    3.0872   -1.1764   -2.5867 C   0  0  0  0  0  0  0  0  0  0  0  0
    2.5356   -0.3280   -1.6625 O   0  0  0  0  0  0  0  0  0  0  0  0
    1.5073   -0.8839   -0.8177 C   0  0  1  0  0  0  0  0  0  0  0  0
    1.1104    0.1511    0.2583 C   0  0  2  0  0  0  0  0  0  0  0  0
    0.1729   -1.1445   -1.5431 C   0  0  2  0  0  0  0  0  0  0  0  0
   -0.3352   -0.2030    0.6734 C   0  0  2  0  0  0  0  0  0  0  0  0
   -0.8814   -1.1453   -0.4220 C   0  0  2  0  0  0  0  0  0  0  0  0
    3.5647   -4.3635   -6.7578 H   0  0  0  0  0  0  0  0  0  0  0  0
    6.0144   -2.7241   -5.9083 H   0  0  0  0  0  0  0  0  0  0  0  0
    6.1378   -3.5637   -8.1829 H   0  0  0  0  0  0  0  0  0  0  0  0
    4.2193   -6.9835   -8.2284 H   0  0  0  0  0  0  0  0  0  0  0  0
    5.3688   -7.7228   -7.1234 H   0  0  0  0  0  0  0  0  0  0  0  0
    4.2171   -6.5423   -6.5331 H   0  0  0  0  0  0  0  0  0  0  0  0
    7.6366   -4.7810   -6.5893 H   0  0  0  0  0  0  0  0  0  0  0  0
    7.2002   -6.3778   -6.0132 H   0  0  0  0  0  0  0  0  0  0  0  0
    4.8224   -3.5686  -10.0836 H   0  0  0  0  0  0  0  0  0  0  0  0
    3.7314   -4.8294   -9.4736 H   0  0  0  0  0  0  0  0  0  0  0  0
    7.4407   -7.5162   -9.9968 H   0  0  0  0  0  0  0  0  0  0  0  0
    5.0886   -6.4373  -10.4245 H   0  0  0  0  0  0  0  0  0  0  0  0
    6.1921   -5.2018  -11.0218 H   0  0  0  0  0  0  0  0  0  0  0  0
    6.7318   -4.5002   -4.4471 H   0  0  0  0  0  0  0  0  0  0  0  0
    5.2856   -5.4472   -4.7685 H   0  0  0  0  0  0  0  0  0  0  0  0
    4.5329   -1.6187   -7.6863 H   0  0  0  0  0  0  0  0  0  0  0  0
    3.1488   -2.5062   -8.3284 H   0  0  0  0  0  0  0  0  0  0  0  0
    9.7569   -4.3334   -9.3178 H   0  0  0  0  0  0  0  0  0  0  0  0
    1.8518   -2.2085   -6.3907 H   0  0  0  0  0  0  0  0  0  0  0  0
    2.7034   -0.6721   -6.5720 H   0  0  0  0  0  0  0  0  0  0  0  0
    5.5979   -3.3492   -2.9062 H   0  0  0  0  0  0  0  0  0  0  0  0
    1.8693   -0.5367   -4.1705 H   0  0  0  0  0  0  0  0  0  0  0  0
    4.4561   -2.0746   -1.2574 H   0  0  0  0  0  0  0  0  0  0  0  0
    1.8515   -1.7988   -0.3168 H   0  0  0  0  0  0  0  0  0  0  0  0
    1.1313    1.1613   -0.1672 H   0  0  0  0  0  0  0  0  0  0  0  0
    1.7941    0.1230    1.1132 H   0  0  0  0  0  0  0  0  0  0  0  0
    0.1893   -2.0936   -2.0824 H   0  0  0  0  0  0  0  0  0  0  0  0
   -0.0307   -0.3333   -2.2479 H   0  0  0  0  0  0  0  0  0  0  0  0
   -0.9450    0.7028    0.7515 H   0  0  0  0  0  0  0  0  0  0  0  0
   -0.3390   -0.7063    1.6447 H   0  0  0  0  0  0  0  0  0  0  0  0
   -0.9901   -2.1572   -0.0227 H   0  0  0  0  0  0  0  0  0  0  0  0
   -1.8516   -0.8075   -0.7923 H   0  0  0  0  0  0  0  0  0  0  0  0
  2  1  1  0  0  0  0 
  3  2  1  0  0  0  0 
  2  4  1  0  0  0  0 
  2  5  1  0  0  0  0 
  6  3  1  0  0  0  0 
  3  7  1  0  0  0  0 
  3 30  1  0  0  0  0 
  4  8  1  0  0  0  0 
  4  9  1  0  0  0  0 
  4 10  1  0  0  0  0 
  5 11  1  0  0  0  0 
 12  6  1  0  0  0  0 
  6 13  1  0  0  0  0 
  6 28  1  0  0  0  0 
  7 10  1  0  0  0  0 
  8 14  3  0  0  0  0 
 12 11  1  0  0  0  0 
 12 15  1  0  0  0  0 
 12 29  1  0  0  0  0 
 13 16  1  0  0  0  0 
 15 17  2  0  0  0  0 
 15 18  1  0  0  0  0 
 16 17  1  0  0  0  0 
 17 19  1  0  0  0  0 
 18 20  2  0  0  0  0 
 19 21  2  0  0  0  0 
 20 21  1  0  0  0  0 
 21 22  1  0  0  0  0 
 22 23  1  0  0  0  0 
 23 24  1  0  0  0  0 
 23 25  1  0  0  0  0 
 24 26  1  0  0  0  0 
 25 27  1  0  0  0  0 
 26 27  1  0  0  0  0 
  1 31  1  0  0  0  0 
  1 32  1  0  0  0  0 
  1 33  1  0  0  0  0 
  5 34  1  0  0  0  0 
  5 35  1  0  0  0  0 
  7 36  1  0  0  0  0 
  7 37  1  0  0  0  0 
  9 38  1  0  0  0  0 
 10 39  1  0  0  0  0 
 10 40  1  0  0  0  0 
 11 41  1  0  0  0  0 
 11 42  1  0  0  0  0 
 13 43  1  0  0  0  0 
 13 44  1  0  0  0  0 
 14 45  1  0  0  0  0 
 16 46  1  0  0  0  0 
 16 47  1  0  0  0  0 
 18 48  1  0  0  0  0 
 19 49  1  0  0  0  0 
 20 50  1  0  0  0  0 
 23 51  1  0  0  0  0 
 24 52  1  0  0  0  0 
 24 53  1  0  0  0  0 
 25 54  1  0  0  0  0 
 25 55  1  0  0  0  0 
 26 56  1  0  0  0  0 
 26 57  1  0  0  0  0 
 27 58  1  0  0  0  0 
 27 59  1  0  0  0  0 
M  END
> <cdk:Title>
quinestrol

> <Conformer>
1

> <SuperDrugID>
SD002106

$$$$
