erythromycin
  CDK     0628171801

118120  0  0  0  0  0  0  0  0999 V2000
    2.0179    2.8330    9.1396 O   0  0  0  0  0  0  0  0  0  0  0  0
    2.8569    3.8150    9.8334 C   0  0  2  0  0  0  0  0  0  0  0  0
    0.6675    2.5996    9.6260 C   0  0  1  0  0  0  0  0  0  0  0  0
    3.0328    5.1559    9.0019 C   0  0  1  0  0  0  0  0  0  0  0  0
    4.2195    3.1194   10.2747 C   0  0  2  0  0  0  0  0  0  0  0  0
   -0.3579    2.3912    8.4703 C   0  0  2  0  0  0  0  0  0  0  0  0
    0.6285    1.5542   10.6273 O   0  0  0  0  0  0  0  0  0  0  0  0
    1.8275    5.4915    8.0782 C   0  0  0  0  0  0  0  0  0  0  0  0
    3.4197    6.4228    9.8903 C   0  0  2  0  0  0  0  0  0  0  0  0
    4.0355    2.4512   11.6813 C   0  0  0  0  0  0  0  0  0  0  0  0
    5.2358    4.1005   10.4421 O   0  0  0  0  0  0  0  0  0  0  0  0
    4.7997    2.1182    9.2058 C   0  0  1  0  0  0  0  0  0  0  0  0
   -1.6610    2.7576    8.9382 O   0  0  0  0  0  0  0  0  0  0  0  0
   -0.3952    0.9352    7.8918 C   0  0  1  0  0  0  0  0  0  0  0  0
    0.4596    0.1707   10.2244 C   0  0  1  0  0  0  0  0  0  0  0  0
    2.2950    7.2789   10.2382 O   0  0  0  0  0  0  0  0  0  0  0  0
    4.5760    7.3253    9.2792 C   0  0  1  0  0  0  0  0  0  0  0  0
    6.2153    1.4789    9.4994 C   0  0  1  0  0  0  0  0  0  0  0  0
    0.7650    0.5150    7.0047 N   0  0  2  0  0  0  0  0  0  0  0  0
   -0.6152   -0.0158    9.1135 C   0  0  1  0  0  0  0  0  0  0  0  0
    1.7929   -0.5609    9.9302 C   0  0  0  0  0  0  0  0  0  0  0  0
    1.4077    6.9299   11.3249 C   0  0  1  0  0  0  0  0  0  0  0  0
    4.1740    8.7696    8.8708 C   0  0  0  0  0  0  0  0  0  0  0  0
    5.7690    7.3740   10.1698 C   0  0  0  0  0  0  0  0  0  0  0  0
    6.2521   -0.0393    9.1440 C   0  0  0  0  0  0  0  0  0  0  0  0
    7.3547    2.2016    8.8398 C   0  0  0  0  0  0  0  0  0  0  0  0
    1.2731    1.5540    6.0531 C   0  0  0  0  0  0  0  0  0  0  0  0
    0.5321   -0.7762    6.2734 C   0  0  0  0  0  0  0  0  0  0  0  0
    2.0683    7.0785   12.7298 C   0  0  2  0  0  0  0  0  0  0  0  0
    0.3218    7.8671   11.1958 O   0  0  0  0  0  0  0  0  0  0  0  0
    5.6786    7.8139   11.3394 O   0  0  0  0  0  0  0  0  0  0  0  0
    6.9441    6.8985    9.6731 O   0  0  0  0  0  0  0  0  0  0  0  0
    7.5090    1.9785    7.6137 O   0  0  0  0  0  0  0  0  0  0  0  0
    8.3299    3.1804    9.4508 C   0  0  2  0  0  0  0  0  0  0  0  0
    1.0486    6.9004   13.9079 C   0  0  2  0  0  0  0  0  0  0  0  0
   -0.7537    7.7374   12.1497 C   0  0  2  0  0  0  0  0  0  0  0  0
    8.2279    6.6528   10.2659 C   0  0  2  0  0  0  0  0  0  0  0  0
    8.2974    3.2886   11.0048 C   0  0  0  0  0  0  0  0  0  0  0  0
    8.3477    4.5355    8.6248 C   0  0  2  0  0  0  0  0  0  0  0  0
    1.7866    7.4077   15.0599 O   0  0  0  0  0  0  0  0  0  0  0  0
    0.7266    5.3829   14.1307 C   0  0  0  0  0  0  0  0  0  0  0  0
   -0.2315    7.7727   13.6244 C   0  0  2  0  0  0  0  0  0  0  0  0
   -1.7134    6.5700   11.7942 C   0  0  0  0  0  0  0  0  0  0  0  0
    8.8425    7.9870   10.8127 C   0  0  2  0  0  0  0  0  0  0  0  0
    9.0542    5.8484    9.1797 C   0  0  1  0  0  0  0  0  0  0  0  0
    7.0588    4.8378    8.0846 O   0  0  0  0  0  0  0  0  0  0  0  0
    1.2106    7.3405   16.3802 C   0  0  0  0  0  0  0  0  0  0  0  0
    0.0560    9.1368   13.9477 O   0  0  0  0  0  0  0  0  0  0  0  0
   10.1720    7.8490   11.5910 C   0  0  0  0  0  0  0  0  0  0  0  0
    9.4102    6.8034    7.9864 C   0  0  0  0  0  0  0  0  0  0  0  0
   10.3060    5.4360    9.7316 O   0  0  0  0  0  0  0  0  0  0  0  0
    1.0250    5.9236   11.1679 H   0  0  0  0  0  0  0  0  0  0  0  0
    0.3238    3.4993   10.1460 H   0  0  0  0  0  0  0  0  0  0  0  0
    2.3547    4.1271   10.7510 H   0  0  0  0  0  0  0  0  0  0  0  0
    3.8495    4.9420    8.3076 H   0  0  0  0  0  0  0  0  0  0  0  0
   -0.1579    3.1090    7.6786 H   0  0  0  0  0  0  0  0  0  0  0  0
    1.9934    6.4372    7.5604 H   0  0  0  0  0  0  0  0  0  0  0  0
    0.9060    5.5680    8.6538 H   0  0  0  0  0  0  0  0  0  0  0  0
    1.6995    4.7222    7.3187 H   0  0  0  0  0  0  0  0  0  0  0  0
    3.7979    6.0382   10.8329 H   0  0  0  0  0  0  0  0  0  0  0  0
    4.9809    2.1190   12.1114 H   0  0  0  0  0  0  0  0  0  0  0  0
    3.6092    3.1597   12.3958 H   0  0  0  0  0  0  0  0  0  0  0  0
    3.3638    1.5970   11.6216 H   0  0  0  0  0  0  0  0  0  0  0  0
    5.0162    4.5866   11.2614 H   0  0  0  0  0  0  0  0  0  0  0  0
    4.0684    1.3183    9.0940 H   0  0  0  0  0  0  0  0  0  0  0  0
    4.8322    2.6231    8.2366 H   0  0  0  0  0  0  0  0  0  0  0  0
   -1.8285    2.2032    9.7290 H   0  0  0  0  0  0  0  0  0  0  0  0
   -1.2995    0.8820    7.2755 H   0  0  0  0  0  0  0  0  0  0  0  0
    0.0638   -0.3226   11.1183 H   0  0  0  0  0  0  0  0  0  0  0  0
    4.9126    6.8756    8.3413 H   0  0  0  0  0  0  0  0  0  0  0  0
    6.3895    1.4854   10.5672 H   0  0  0  0  0  0  0  0  0  0  0  0
   -1.5942    0.1950    9.5551 H   0  0  0  0  0  0  0  0  0  0  0  0
   -0.6657   -1.0620    8.8136 H   0  0  0  0  0  0  0  0  0  0  0  0
    2.2485   -0.2099    9.0102 H   0  0  0  0  0  0  0  0  0  0  0  0
    2.4941   -0.4060   10.7468 H   0  0  0  0  0  0  0  0  0  0  0  0
    1.6192   -1.6343    9.8417 H   0  0  0  0  0  0  0  0  0  0  0  0
    5.0144    9.2749    8.3855 H   0  0  0  0  0  0  0  0  0  0  0  0
    3.3436    8.7391    8.1627 H   0  0  0  0  0  0  0  0  0  0  0  0
    3.8724    9.3553    9.7418 H   0  0  0  0  0  0  0  0  0  0  0  0
    7.2322   -0.4606    9.3795 H   0  0  0  0  0  0  0  0  0  0  0  0
    5.5039   -0.5845    9.7239 H   0  0  0  0  0  0  0  0  0  0  0  0
    6.0468   -0.2001    8.0832 H   0  0  0  0  0  0  0  0  0  0  0  0
    1.7845    2.3426    6.6000 H   0  0  0  0  0  0  0  0  0  0  0  0
    2.0132    1.1520    5.3569 H   0  0  0  0  0  0  0  0  0  0  0  0
    0.4567    1.9908    5.4719 H   0  0  0  0  0  0  0  0  0  0  0  0
    0.4047   -1.6089    6.9613 H   0  0  0  0  0  0  0  0  0  0  0  0
    1.3875   -1.0413    5.6480 H   0  0  0  0  0  0  0  0  0  0  0  0
   -0.3518   -0.7121    5.6332 H   0  0  0  0  0  0  0  0  0  0  0  0
    2.4527    8.1501   12.7650 H   0  0  0  0  0  0  0  0  0  0  0  0
    2.8446    6.2564   12.8410 H   0  0  0  0  0  0  0  0  0  0  0  0
    9.3121    2.7233    9.2792 H   0  0  0  0  0  0  0  0  0  0  0  0
   -1.3635    8.6354   12.0066 H   0  0  0  0  0  0  0  0  0  0  0  0
    8.0557    6.0109   11.1265 H   0  0  0  0  0  0  0  0  0  0  0  0
    9.1488    3.8566   11.3756 H   0  0  0  0  0  0  0  0  0  0  0  0
    7.3952    3.7654   11.3675 H   0  0  0  0  0  0  0  0  0  0  0  0
    8.3674    2.2992   11.4600 H   0  0  0  0  0  0  0  0  0  0  0  0
    8.9118    4.2639    7.7259 H   0  0  0  0  0  0  0  0  0  0  0  0
    0.4608    4.8724   13.2082 H   0  0  0  0  0  0  0  0  0  0  0  0
    1.6007    4.8734   14.5419 H   0  0  0  0  0  0  0  0  0  0  0  0
   -0.0976    5.2603   14.8356 H   0  0  0  0  0  0  0  0  0  0  0  0
   -1.0414    7.4747   14.2943 H   0  0  0  0  0  0  0  0  0  0  0  0
   -1.2409    5.5989   11.9032 H   0  0  0  0  0  0  0  0  0  0  0  0
   -2.5963    6.5978   12.4348 H   0  0  0  0  0  0  0  0  0  0  0  0
   -2.0403    6.6675   10.7573 H   0  0  0  0  0  0  0  0  0  0  0  0
    8.1306    8.4344   11.5083 H   0  0  0  0  0  0  0  0  0  0  0  0
    8.9748    8.7056   10.0017 H   0  0  0  0  0  0  0  0  0  0  0  0
    6.4704    4.9352    8.8564 H   0  0  0  0  0  0  0  0  0  0  0  0
    1.8742    7.8747   17.0611 H   0  0  0  0  0  0  0  0  0  0  0  0
    1.1385    6.3085   16.7251 H   0  0  0  0  0  0  0  0  0  0  0  0
    0.2285    7.8120   16.4224 H   0  0  0  0  0  0  0  0  0  0  0  0
    0.8107    9.3893   13.3759 H   0  0  0  0  0  0  0  0  0  0  0  0
   10.4174    8.8022   12.0657 H   0  0  0  0  0  0  0  0  0  0  0  0
   10.9921    7.5857   10.9225 H   0  0  0  0  0  0  0  0  0  0  0  0
   10.0819    7.0890   12.3704 H   0  0  0  0  0  0  0  0  0  0  0  0
   10.1410    7.5567    8.2904 H   0  0  0  0  0  0  0  0  0  0  0  0
    8.5205    7.3202    7.6190 H   0  0  0  0  0  0  0  0  0  0  0  0
    9.8511    6.2597    7.1480 H   0  0  0  0  0  0  0  0  0  0  0  0
   10.7842    4.9931    8.9980 H   0  0  0  0  0  0  0  0  0  0  0  0
  3  1  1  0  0  0  0 
  2  1  1  0  0  0  0 
  4  2  1  0  0  0  0 
  2  5  1  0  0  0  0 
  6  3  1  0  0  0  0 
  3  7  1  0  0  0  0 
  3 53  1  0  0  0  0 
  4  8  1  0  0  0  0 
  9  4  1  0  0  0  0 
  5 10  1  0  0  0  0 
  5 11  1  0  0  0  0 
  5 12  1  0  0  0  0 
  6 13  1  0  0  0  0 
 14  6  1  0  0  0  0 
 15  7  1  0  0  0  0 
  9 16  1  0  0  0  0 
 17  9  1  0  0  0  0 
 18 12  1  0  0  0  0 
 14 19  1  0  0  0  0 
 14 20  1  0  0  0  0 
 15 20  1  0  0  0  0 
 15 21  1  0  0  0  0 
 22 16  1  0  0  0  0 
 17 23  1  0  0  0  0 
 17 24  1  0  0  0  0 
 18 25  1  0  0  0  0 
 18 26  1  0  0  0  0 
 19 27  1  0  0  0  0 
 19 28  1  0  0  0  0 
 22 29  1  0  0  0  0 
 22 30  1  0  0  0  0 
 22 52  1  0  0  0  0 
 24 31  2  0  0  0  0 
 24 32  1  0  0  0  0 
 26 33  2  0  0  0  0 
 34 26  1  0  0  0  0 
 35 29  1  0  0  0  0 
 36 30  1  0  0  0  0 
 37 32  1  0  0  0  0 
 34 38  1  0  0  0  0 
 39 34  1  0  0  0  0 
 35 40  1  0  0  0  0 
 35 41  1  0  0  0  0 
 42 35  1  0  0  0  0 
 42 36  1  0  0  0  0 
 36 43  1  0  0  0  0 
 37 44  1  0  0  0  0 
 45 37  1  0  0  0  0 
 45 39  1  0  0  0  0 
 39 46  1  0  0  0  0 
 40 47  1  0  0  0  0 
 42 48  1  0  0  0  0 
 44 49  1  0  0  0  0 
 45 50  1  0  0  0  0 
 45 51  1  0  0  0  0 
  2 54  1  0  0  0  0 
  4 55  1  0  0  0  0 
  6 56  1  0  0  0  0 
  8 57  1  0  0  0  0 
  8 58  1  0  0  0  0 
  8 59  1  0  0  0  0 
  9 60  1  0  0  0  0 
 10 61  1  0  0  0  0 
 10 62  1  0  0  0  0 
 10 63  1  0  0  0  0 
 11 64  1  0  0  0  0 
 12 65  1  0  0  0  0 
 12 66  1  0  0  0  0 
 13 67  1  0  0  0  0 
 14 68  1  0  0  0  0 
 15 69  1  0  0  0  0 
 17 70  1  0  0  0  0 
 18 71  1  0  0  0  0 
 20 72  1  0  0  0  0 
 20 73  1  0  0  0  0 
 21 74  1  0  0  0  0 
 21 75  1  0  0  0  0 
 21 76  1  0  0  0  0 
 23 77  1  0  0  0  0 
 23 78  1  0  0  0  0 
 23 79  1  0  0  0  0 
 25 80  1  0  0  0  0 
 25 81  1  0  0  0  0 
 25 82  1  0  0  0  0 
 27 83  1  0  0  0  0 
 27 84  1  0  0  0  0 
 27 85  1  0  0  0  0 
 28 86  1  0  0  0  0 
 28 87  1  0  0  0  0 
 28 88  1  0  0  0  0 
 29 89  1  0  0  0  0 
 29 90  1  0  0  0  0 
 34 91  1  0  0  0  0 
 36 92  1  0  0  0  0 
 37 93  1  0  0  0  0 
 38 94  1  0  0  0  0 
 38 95  1  0  0  0  0 
 38 96  1  0  0  0  0 
 39 97  1  0  0  0  0 
 41 98  1  0  0  0  0 
 41 99  1  0  0  0  0 
 41100  1  0  0  0  0 
 42101  1  0  0  0  0 
 43102  1  0  0  0  0 
 43103  1  0  0  0  0 
 43104  1  0  0  0  0 
 44105  1  0  0  0  0 
 44106  1  0  0  0  0 
 46107  1  0  0  0  0 
 47108  1  0  0  0  0 
 47109  1  0  0  0  0 
 47110  1  0  0  0  0 
 48111  1  0  0  0  0 
 49112  1  0  0  0  0 
 49113  1  0  0  0  0 
 49114  1  0  0  0  0 
 50115  1  0  0  0  0 
 50116  1  0  0  0  0 
 50117  1  0  0  0  0 
 51118  1  0  0  0  0 
M  END
> <cdk:Title>
erythromycin

> <Conformer>
1

> <SuperDrugID>
SD000934

$$$$
