lorazepam
  CDK     0628171801

 31 33  0  0  0  0  0  0  0  0999 V2000
    1.3408   -1.9042   -2.0835 Cl  0  0  0  0  0  0  0  0  0  0  0  0
    2.1311   -0.8596   -0.9999 C   0  0  0  0  0  0  0  0  0  0  0  0
    2.8509   -1.3302    0.1344 C   0  0  0  0  0  0  0  0  0  0  0  0
    2.0716    0.5232   -1.2722 C   0  0  0  0  0  0  0  0  0  0  0  0
    2.9631   -2.6892    0.4221 C   0  0  0  0  0  0  0  0  0  0  0  0
    3.4895   -0.3895    0.9792 C   0  0  0  0  0  0  0  0  0  0  0  0
    2.7090    1.4438   -0.4236 C   0  0  0  0  0  0  0  0  0  0  0  0
    4.1958   -3.3775    0.3253 C   0  0  0  0  0  0  0  0  0  0  0  0
    1.8408   -3.2213    0.7660 N   0  0  0  0  0  0  0  0  0  0  0  0
    3.4143    0.9878    0.7035 C   0  0  0  0  0  0  0  0  0  0  0  0
    4.5218   -4.5036    1.1449 C   0  0  0  0  0  0  0  0  0  0  0  0
    5.1810   -2.9334   -0.6024 C   0  0  0  0  0  0  0  0  0  0  0  0
    1.5101   -4.5361    1.0585 C   0  0  1  0  0  0  0  0  0  0  0  0
    3.7146   -5.0729    2.0878 N   0  0  0  0  0  0  0  0  0  0  0  0
    5.7912   -5.1158    1.0357 C   0  0  0  0  0  0  0  0  0  0  0  0
    6.4397   -3.5558   -0.7067 C   0  0  0  0  0  0  0  0  0  0  0  0
    1.5880   -5.3333   -0.1203 O   0  0  0  0  0  0  0  0  0  0  0  0
    2.3608   -5.0992    2.1238 C   0  0  0  0  0  0  0  0  0  0  0  0
    6.7425   -4.6508    0.1164 C   0  0  0  0  0  0  0  0  0  0  0  0
    7.5895   -2.9928   -1.8168 Cl  0  0  0  0  0  0  0  0  0  0  0  0
    1.8321   -5.6622    3.1099 O   0  0  0  0  0  0  0  0  0  0  0  0
    1.5653    0.8700   -2.0902 H   0  0  0  0  0  0  0  0  0  0  0  0
    4.0169   -0.6995    1.8016 H   0  0  0  0  0  0  0  0  0  0  0  0
    2.6585    2.4451   -0.6280 H   0  0  0  0  0  0  0  0  0  0  0  0
    3.8740    1.6585    1.3221 H   0  0  0  0  0  0  0  0  0  0  0  0
    4.9902   -2.1412   -1.2220 H   0  0  0  0  0  0  0  0  0  0  0  0
    0.4637   -4.5463    1.3733 H   0  0  0  0  0  0  0  0  0  0  0  0
    4.1659   -5.5472    2.8062 H   0  0  0  0  0  0  0  0  0  0  0  0
    6.0381   -5.9184    1.6234 H   0  0  0  0  0  0  0  0  0  0  0  0
    2.5071   -5.2321   -0.4464 H   0  0  0  0  0  0  0  0  0  0  0  0
    7.6527   -5.1148    0.0501 H   0  0  0  0  0  0  0  0  0  0  0  0
  1  2  1  0  0  0  0 
  2  3  2  0  0  0  0 
  2  4  1  0  0  0  0 
  3  5  1  0  0  0  0 
  3  6  1  0  0  0  0 
  4  7  2  0  0  0  0 
  5  8  1  0  0  0  0 
  5  9  2  0  0  0  0 
  6 10  2  0  0  0  0 
  7 10  1  0  0  0  0 
  8 11  2  0  0  0  0 
  8 12  1  0  0  0  0 
 13  9  1  0  0  0  0 
 11 14  1  0  0  0  0 
 11 15  1  0  0  0  0 
 12 16  2  0  0  0  0 
 13 17  1  0  0  0  0 
 13 18  1  0  0  0  0 
 14 18  1  0  0  0  0 
 15 19  2  0  0  0  0 
 16 19  1  0  0  0  0 
 16 20  1  0  0  0  0 
 18 21  2  0  0  0  0 
  4 22  1  0  0  0  0 
  6 23  1  0  0  0  0 
  7 24  1  0  0  0  0 
 10 25  1  0  0  0  0 
 12 26  1  0  0  0  0 
 13 27  1  0  0  0  0 
 14 28  1  0  0  0  0 
 15 29  1  0  0  0  0 
 17 30  1  0  0  0  0 
 19 31  1  0  0  0  0 
M  END
> <cdk:Title>
lorazepam

> <Conformer>
1

> <SuperDrugID>
SD001420

$$$$
