betamethasone phosphate
  CDK     0628171802

 62 65  0  0  0  0  0  0  0  0999 V2000
   -7.4555   -0.3975    0.9135 C   0  0  0  0  0  0  0  0  0  0  0  0
   -6.5677   -0.1788    2.2052 C   0  0  2  0  0  0  0  0  0  0  0  0
   -5.4601   -1.2643    2.4163 C   0  0  2  0  0  0  0  0  0  0  0  0
   -7.4531   -0.4071    3.5021 C   0  0  2  0  0  0  0  0  0  0  0  0
   -5.8072    1.1949    2.0964 C   0  0  2  0  0  0  0  0  0  0  0  0
   -4.4183   -1.3529    1.2466 C   0  0  1  0  0  0  0  0  0  0  0  0
   -6.2610   -2.5204    2.8138 C   0  0  1  0  0  0  0  0  0  0  0  0
   -8.7919    0.2934    3.4709 C   0  0  0  0  0  0  0  0  0  0  0  0
   -6.7777    0.1496    4.6436 O   0  0  0  0  0  0  0  0  0  0  0  0
   -7.3990   -1.9807    3.7339 C   0  0  2  0  0  0  0  0  0  0  0  0
   -4.7152    1.2372    0.9719 C   0  0  1  0  0  0  0  0  0  0  0  0
   -3.6852    0.0352    1.0180 C   0  0  1  0  0  0  0  0  0  0  0  0
   -3.3783   -2.4974    1.4658 C   0  0  1  0  0  0  0  0  0  0  0  0
   -8.9610    1.7557    3.6512 C   0  0  2  0  0  0  0  0  0  0  0  0
   -9.8468   -0.3163    3.1830 O   0  0  0  0  0  0  0  0  0  0  0  0
   -8.6908   -2.8377    3.5976 C   0  0  0  0  0  0  0  0  0  0  0  0
   -5.3566    1.3695   -0.2940 O   0  0  0  0  0  0  0  0  0  0  0  0
   -2.9481    0.2912    2.1693 F   0  0  0  0  0  0  0  0  0  0  0  0
   -2.6180   -0.0557   -0.1767 C   0  0  2  0  0  0  0  0  0  0  0  0
   -2.3094   -2.5442    0.3447 C   0  0  2  0  0  0  0  0  0  0  0  0
   -9.0714    2.3371    2.3413 O   0  0  0  0  0  0  0  0  0  0  0  0
   -3.2266   -0.2911   -1.6106 C   0  0  0  0  0  0  0  0  0  0  0  0
   -1.7123   -1.2222    0.1050 C   0  0  0  0  0  0  0  0  0  0  0  0
   -1.8664    1.2210   -0.3022 C   0  0  0  0  0  0  0  0  0  0  0  0
   -9.2282    3.9241    2.3029 P   0  0  2  0  0  0  0  0  0  0  0  0
   -0.3685   -1.0729    0.1583 C   0  0  0  0  0  0  0  0  0  0  0  0
   -0.5278    1.2979   -0.2326 C   0  0  0  0  0  0  0  0  0  0  0  0
  -10.5545    4.3307    2.7754 O   0  0  0  0  0  0  0  0  0  0  0  0
   -9.0213    4.3775    0.7992 O   0  0  0  0  0  0  0  0  0  0  0  0
   -8.0866    4.5918    3.1740 O   0  0  0  0  0  0  0  0  0  0  0  0
    0.2338    0.1623   -0.0218 C   0  0  0  0  0  0  0  0  0  0  0  0
    1.4829    0.2545    0.0192 O   0  0  0  0  0  0  0  0  0  0  0  0
   -6.8726   -0.5502    0.0103 H   0  0  0  0  0  0  0  0  0  0  0  0
   -8.1061   -1.2643    1.0081 H   0  0  0  0  0  0  0  0  0  0  0  0
   -8.0935    0.4686    0.7350 H   0  0  0  0  0  0  0  0  0  0  0  0
   -4.8719   -1.0063    3.3082 H   0  0  0  0  0  0  0  0  0  0  0  0
   -5.3171    1.4239    3.0477 H   0  0  0  0  0  0  0  0  0  0  0  0
   -6.5179    2.0034    1.9222 H   0  0  0  0  0  0  0  0  0  0  0  0
   -4.9599   -1.6215    0.3419 H   0  0  0  0  0  0  0  0  0  0  0  0
   -6.6523   -3.0091    1.9176 H   0  0  0  0  0  0  0  0  0  0  0  0
   -5.6336   -3.2390    3.3496 H   0  0  0  0  0  0  0  0  0  0  0  0
   -7.3330   -0.0901    5.4158 H   0  0  0  0  0  0  0  0  0  0  0  0
   -7.0763   -2.1675    4.7659 H   0  0  0  0  0  0  0  0  0  0  0  0
   -4.1662    2.1741    1.1113 H   0  0  0  0  0  0  0  0  0  0  0  0
   -2.8779   -2.3706    2.4305 H   0  0  0  0  0  0  0  0  0  0  0  0
   -3.8883   -3.4649    1.4858 H   0  0  0  0  0  0  0  0  0  0  0  0
   -8.1125    2.1726    4.1984 H   0  0  0  0  0  0  0  0  0  0  0  0
   -9.8667    1.9486    4.2363 H   0  0  0  0  0  0  0  0  0  0  0  0
   -8.4631   -3.8905    3.7822 H   0  0  0  0  0  0  0  0  0  0  0  0
   -9.1241   -2.7513    2.5996 H   0  0  0  0  0  0  0  0  0  0  0  0
   -9.4300   -2.5281    4.3404 H   0  0  0  0  0  0  0  0  0  0  0  0
   -5.9690    2.1297   -0.1948 H   0  0  0  0  0  0  0  0  0  0  0  0
   -2.7697   -2.9041   -0.5781 H   0  0  0  0  0  0  0  0  0  0  0  0
   -1.5642   -3.2954    0.6277 H   0  0  0  0  0  0  0  0  0  0  0  0
   -2.4324   -0.5044   -2.3332 H   0  0  0  0  0  0  0  0  0  0  0  0
   -3.7630    0.5812   -1.9862 H   0  0  0  0  0  0  0  0  0  0  0  0
   -3.9183   -1.1318   -1.6339 H   0  0  0  0  0  0  0  0  0  0  0  0
   -2.3680    2.0645   -0.4692 H   0  0  0  0  0  0  0  0  0  0  0  0
    0.2188   -1.8573    0.3337 H   0  0  0  0  0  0  0  0  0  0  0  0
   -0.0790    2.1802   -0.3418 H   0  0  0  0  0  0  0  0  0  0  0  0
   -8.1467    4.0088    0.5558 H   0  0  0  0  0  0  0  0  0  0  0  0
   -7.2561    4.2128    2.8154 H   0  0  0  0  0  0  0  0  0  0  0  0
  2  1  1  0  0  0  0 
  3  2  1  0  0  0  0 
  2  4  1  0  0  0  0 
  2  5  1  0  0  0  0 
  6  3  1  0  0  0  0 
  3  7  1  0  0  0  0 
  4  8  1  0  0  0  0 
  4  9  1  0  0  0  0 
  4 10  1  0  0  0  0 
 11  5  1  0  0  0  0 
 12  6  1  0  0  0  0 
  6 13  1  0  0  0  0 
 10  7  1  0  0  0  0 
  8 14  1  0  0  0  0 
  8 15  2  0  0  0  0 
 10 16  1  0  0  0  0 
 12 11  1  0  0  0  0 
 11 17  1  0  0  0  0 
 12 18  1  0  0  0  0 
 12 19  1  0  0  0  0 
 13 20  1  0  0  0  0 
 14 21  1  0  0  0  0 
 19 22  1  0  0  0  0 
 19 23  1  0  0  0  0 
 19 24  1  0  0  0  0 
 20 23  1  0  0  0  0 
 21 25  1  0  0  0  0 
 23 26  2  0  0  0  0 
 24 27  2  0  0  0  0 
 25 28  2  0  0  0  0 
 25 29  1  0  0  0  0 
 25 30  1  0  0  0  0 
 26 31  1  0  0  0  0 
 27 31  1  0  0  0  0 
 31 32  2  0  0  0  0 
 33  1  1  0  0  0  0 
 34  1  1  0  0  0  0 
 35  1  1  0  0  0  0 
  3 36  1  0  0  0  0 
 37  5  1  0  0  0  0 
 38  5  1  0  0  0  0 
  6 39  1  0  0  0  0 
 40  7  1  0  0  0  0 
 41  7  1  0  0  0  0 
 42  9  1  0  0  0  0 
 10 43  1  0  0  0  0 
 11 44  1  0  0  0  0 
 45 13  1  0  0  0  0 
 46 13  1  0  0  0  0 
 47 14  1  0  0  0  0 
 48 14  1  0  0  0  0 
 49 16  1  0  0  0  0 
 50 16  1  0  0  0  0 
 51 16  1  0  0  0  0 
 52 17  1  0  0  0  0 
 53 20  1  0  0  0  0 
 54 20  1  0  0  0  0 
 55 22  1  0  0  0  0 
 56 22  1  0  0  0  0 
 57 22  1  0  0  0  0 
 58 24  1  0  0  0  0 
 59 26  1  0  0  0  0 
 60 27  1  0  0  0  0 
 61 29  1  0  0  0  0 
 62 30  1  0  0  0  0 
M  END
> <cdk:Title>
betamethasone phosphate

> <Conformer>
1

> <SuperDrugID>
SD003699

$$$$
