lysine
  CDK     0628171801

 24 23  0  0  0  0  0  0  0  0999 V2000
    1.5121   -4.3340    1.0788 N   0  0  1  0  0  0  0  0  0  0  0  0
    1.6320   -2.9198    0.7067 C   0  0  1  0  0  0  0  0  0  0  0  0
    0.2776   -2.1862    0.8746 C   0  0  1  0  0  0  0  0  0  0  0  0
    0.3665   -0.6891    0.4761 C   0  0  1  0  0  0  0  0  0  0  0  0
   -0.9871    0.0710    0.5984 C   0  0  2  0  0  0  0  0  0  0  0  0
   -0.9043    1.5587    0.1460 C   0  0  2  0  0  0  0  0  0  0  0  0
   -2.2071    2.2172    0.3343 N   0  0  2  0  0  0  0  0  0  0  0  0
   -0.4816    1.7023   -1.2646 C   0  0  0  0  0  0  0  0  0  0  0  0
    0.7055    2.2873   -1.5562 O   0  0  0  0  0  0  0  0  0  0  0  0
   -1.1878    1.2664   -2.2025 O   0  0  0  0  0  0  0  0  0  0  0  0
    2.4477   -4.7402    1.0134 H   0  0  0  0  0  0  0  0  0  0  0  0
    1.2493   -4.3638    2.0662 H   0  0  0  0  0  0  0  0  0  0  0  0
    2.3913   -2.4528    1.3384 H   0  0  0  0  0  0  0  0  0  0  0  0
    1.9616   -2.8650   -0.3341 H   0  0  0  0  0  0  0  0  0  0  0  0
   -0.4723   -2.6833    0.2506 H   0  0  0  0  0  0  0  0  0  0  0  0
   -0.0399   -2.2627    1.9189 H   0  0  0  0  0  0  0  0  0  0  0  0
    1.1049   -0.1912    1.1118 H   0  0  0  0  0  0  0  0  0  0  0  0
    0.7169   -0.6333   -0.5593 H   0  0  0  0  0  0  0  0  0  0  0  0
   -1.3067    0.0442    1.6442 H   0  0  0  0  0  0  0  0  0  0  0  0
   -1.7491   -0.4455    0.0072 H   0  0  0  0  0  0  0  0  0  0  0  0
   -0.1873    2.0765    0.7889 H   0  0  0  0  0  0  0  0  0  0  0  0
   -2.0838    3.2097    0.1223 H   0  0  0  0  0  0  0  0  0  0  0  0
   -2.4375    2.1566    1.3285 H   0  0  0  0  0  0  0  0  0  0  0  0
    1.0074    2.3540   -2.4852 H   0  0  0  0  0  0  0  0  0  0  0  0
  1  2  1  0  0  0  0 
  2  3  1  0  0  0  0 
  3  4  1  0  0  0  0 
  4  5  1  0  0  0  0 
  5  6  1  0  0  0  0 
  6  7  1  0  0  0  0 
  6  8  1  0  0  0  0 
  8  9  1  0  0  0  0 
  8 10  2  0  0  0  0 
  1 11  1  0  0  0  0 
  1 12  1  0  0  0  0 
  2 13  1  0  0  0  0 
  2 14  1  0  0  0  0 
  3 15  1  0  0  0  0 
  3 16  1  0  0  0  0 
  4 17  1  0  0  0  0 
  4 18  1  0  0  0  0 
  5 19  1  0  0  0  0 
  5 20  1  0  0  0  0 
  6 21  1  0  0  0  0 
  7 22  1  0  0  0  0 
  7 23  1  0  0  0  0 
  9 24  1  0  0  0  0 
M  END
> <cdk:Title>
lysine

> <Conformer>
1

> <SuperDrugID>
SD001436

$$$$
