apixaban
  CDK     0628171801

 59 63  0  0  0  0  0  0  0  0999 V2000
   -0.4585   -0.9859    3.2480 O   0  0  0  0  0  0  0  0  0  0  0  0
   -1.1858   -0.0473    2.8451 C   0  0  0  0  0  0  0  0  0  0  0  0
   -2.5838   -0.2454    2.8759 C   0  0  0  0  0  0  0  0  0  0  0  0
   -0.6337    1.1564    2.4205 N   0  0  0  0  0  0  0  0  0  0  0  0
   -3.3300   -1.3424    3.1567 N   0  0  0  0  0  0  0  0  0  0  0  0
   -3.4630    0.7847    2.5782 C   0  0  0  0  0  0  0  0  0  0  0  0
   -1.4803    2.3370    2.2660 C   0  0  2  0  0  0  0  0  0  0  0  0
    0.7341    1.2653    2.1648 C   0  0  0  0  0  0  0  0  0  0  0  0
   -4.5866   -1.0303    3.0948 N   0  0  0  0  0  0  0  0  0  0  0  0
   -2.9435   -2.6248    3.4223 C   0  0  0  0  0  0  0  0  0  0  0  0
   -4.7440    0.2543    2.7405 C   0  0  0  0  0  0  0  0  0  0  0  0
   -3.0260    2.1293    2.1572 C   0  0  1  0  0  0  0  0  0  0  0  0
    1.4198    0.2704    1.4210 C   0  0  0  0  0  0  0  0  0  0  0  0
    1.4949    2.3764    2.6069 C   0  0  0  0  0  0  0  0  0  0  0  0
   -3.4418   -3.3025    4.5588 C   0  0  0  0  0  0  0  0  0  0  0  0
   -2.0901   -3.3199    2.5360 C   0  0  0  0  0  0  0  0  0  0  0  0
   -6.0065    0.8516    2.5796 C   0  0  0  0  0  0  0  0  0  0  0  0
    2.7957    0.3712    1.1442 C   0  0  0  0  0  0  0  0  0  0  0  0
    2.8706    2.4836    2.3307 C   0  0  0  0  0  0  0  0  0  0  0  0
   -3.0730   -4.6362    4.8167 C   0  0  0  0  0  0  0  0  0  0  0  0
   -1.7149   -4.6492    2.7971 C   0  0  0  0  0  0  0  0  0  0  0  0
   -7.1232    0.1335    2.8031 N   0  0  0  0  0  0  0  0  0  0  0  0
   -6.1331    2.0466    2.2331 O   0  0  0  0  0  0  0  0  0  0  0  0
    3.5362    1.4832    1.5931 C   0  0  0  0  0  0  0  0  0  0  0  0
   -2.1947   -5.3112    3.9453 C   0  0  0  0  0  0  0  0  0  0  0  0
    4.8775    1.5942    1.3161 N   0  0  0  0  0  0  0  0  0  0  0  0
   -1.8598   -6.6159    4.1899 O   0  0  0  0  0  0  0  0  0  0  0  0
    5.3246    1.8108    0.0255 C   0  0  0  0  0  0  0  0  0  0  0  0
    5.8437    1.4898    2.3889 C   0  0  2  0  0  0  0  0  0  0  0  0
   -0.5590   -6.7728    4.7834 C   0  0  0  0  0  0  0  0  0  0  0  0
    4.5333    1.9169   -0.9426 O   0  0  0  0  0  0  0  0  0  0  0  0
    6.7772    1.9162   -0.2496 C   0  0  1  0  0  0  0  0  0  0  0  0
    7.0792    0.6265    2.0058 C   0  0  2  0  0  0  0  0  0  0  0  0
    7.5580    0.8275    0.5332 C   0  0  1  0  0  0  0  0  0  0  0  0
   -1.1601    2.9086    1.3900 H   0  0  0  0  0  0  0  0  0  0  0  0
   -1.3037    2.9728    3.1367 H   0  0  0  0  0  0  0  0  0  0  0  0
   -3.3436    2.2755    1.1234 H   0  0  0  0  0  0  0  0  0  0  0  0
   -3.5350    2.8773    2.7702 H   0  0  0  0  0  0  0  0  0  0  0  0
    0.9163   -0.5445    1.0661 H   0  0  0  0  0  0  0  0  0  0  0  0
    1.0540    3.1266    3.1408 H   0  0  0  0  0  0  0  0  0  0  0  0
   -4.0774   -2.8255    5.2043 H   0  0  0  0  0  0  0  0  0  0  0  0
   -1.7447   -2.8630    1.6888 H   0  0  0  0  0  0  0  0  0  0  0  0
    3.2582   -0.3708    0.6131 H   0  0  0  0  0  0  0  0  0  0  0  0
    3.3864    3.2996    2.6679 H   0  0  0  0  0  0  0  0  0  0  0  0
   -3.4513   -5.1152    5.6368 H   0  0  0  0  0  0  0  0  0  0  0  0
   -1.0976   -5.1362    2.1452 H   0  0  0  0  0  0  0  0  0  0  0  0
   -7.9958    0.5399    2.6913 H   0  0  0  0  0  0  0  0  0  0  0  0
   -7.0561   -0.7968    3.0747 H   0  0  0  0  0  0  0  0  0  0  0  0
    5.4001    1.0657    3.2945 H   0  0  0  0  0  0  0  0  0  0  0  0
    6.1908    2.4966    2.6365 H   0  0  0  0  0  0  0  0  0  0  0  0
   -0.3874   -7.8367    4.9417 H   0  0  0  0  0  0  0  0  0  0  0  0
    0.2310   -6.3984    4.1279 H   0  0  0  0  0  0  0  0  0  0  0  0
   -0.4982   -6.2704    5.7515 H   0  0  0  0  0  0  0  0  0  0  0  0
    6.9876    1.8184   -1.3189 H   0  0  0  0  0  0  0  0  0  0  0  0
    7.1168    2.9036    0.0717 H   0  0  0  0  0  0  0  0  0  0  0  0
    6.8247   -0.4274    2.1540 H   0  0  0  0  0  0  0  0  0  0  0  0
    7.8991    0.8601    2.6923 H   0  0  0  0  0  0  0  0  0  0  0  0
    7.4578   -0.1220   -0.0035 H   0  0  0  0  0  0  0  0  0  0  0  0
    8.6197    1.0912    0.5271 H   0  0  0  0  0  0  0  0  0  0  0  0
  1  2  2  0  0  0  0 
  2  3  1  0  0  0  0 
  2  4  1  0  0  0  0 
  3  5  1  0  0  0  0 
  3  6  2  0  0  0  0 
  4  7  1  0  0  0  0 
  4  8  1  0  0  0  0 
  5  9  1  0  0  0  0 
  5 10  1  0  0  0  0 
  6 11  1  0  0  0  0 
  6 12  1  0  0  0  0 
  7 12  1  0  0  0  0 
  8 13  2  0  0  0  0 
  8 14  1  0  0  0  0 
  9 11  2  0  0  0  0 
 10 15  2  0  0  0  0 
 10 16  1  0  0  0  0 
 11 17  1  0  0  0  0 
 13 18  1  0  0  0  0 
 14 19  2  0  0  0  0 
 15 20  1  0  0  0  0 
 16 21  2  0  0  0  0 
 17 22  1  0  0  0  0 
 17 23  2  0  0  0  0 
 18 24  2  0  0  0  0 
 19 24  1  0  0  0  0 
 20 25  2  0  0  0  0 
 21 25  1  0  0  0  0 
 24 26  1  0  0  0  0 
 25 27  1  0  0  0  0 
 26 28  1  0  0  0  0 
 26 29  1  0  0  0  0 
 27 30  1  0  0  0  0 
 28 31  2  0  0  0  0 
 28 32  1  0  0  0  0 
 29 33  1  0  0  0  0 
 32 34  1  0  0  0  0 
 33 34  1  0  0  0  0 
  7 35  1  0  0  0  0 
  7 36  1  0  0  0  0 
 12 37  1  0  0  0  0 
 12 38  1  0  0  0  0 
 13 39  1  0  0  0  0 
 14 40  1  0  0  0  0 
 15 41  1  0  0  0  0 
 16 42  1  0  0  0  0 
 18 43  1  0  0  0  0 
 19 44  1  0  0  0  0 
 20 45  1  0  0  0  0 
 21 46  1  0  0  0  0 
 22 47  1  0  0  0  0 
 22 48  1  0  0  0  0 
 29 49  1  0  0  0  0 
 29 50  1  0  0  0  0 
 30 51  1  0  0  0  0 
 30 52  1  0  0  0  0 
 30 53  1  0  0  0  0 
 32 54  1  0  0  0  0 
 32 55  1  0  0  0  0 
 33 56  1  0  0  0  0 
 33 57  1  0  0  0  0 
 34 58  1  0  0  0  0 
 34 59  1  0  0  0  0 
M  END
> <cdk:Title>
apixaban

> <Conformer>
1

> <SuperDrugID>
SD003481

$$$$
