estrone
  CDK     0628171801

 42 45  0  0  0  0  0  0  0  0999 V2000
   -2.3615    0.9956    6.1122 C   0  0  0  0  0  0  0  0  0  0  0  0
   -3.5914    0.1899    6.6728 C   0  0  1  0  0  0  0  0  0  0  0  0
   -4.5586   -0.4488    5.6277 C   0  0  2  0  0  0  0  0  0  0  0  0
   -3.1065   -0.9648    7.6052 C   0  0  2  0  0  0  0  0  0  0  0  0
   -4.5275    1.1826    7.2448 C   0  0  0  0  0  0  0  0  0  0  0  0
   -3.8228   -1.4720    4.7104 C   0  0  1  0  0  0  0  0  0  0  0  0
   -5.3198    0.7579    5.0354 C   0  0  1  0  0  0  0  0  0  0  0  0
   -2.4224   -2.1183    6.7995 C   0  0  2  0  0  0  0  0  0  0  0  0
   -4.4474    1.6265    8.4131 O   0  0  0  0  0  0  0  0  0  0  0  0
   -5.5447    1.6470    6.2838 C   0  0  2  0  0  0  0  0  0  0  0  0
   -3.2662   -2.6612    5.5863 C   0  0  2  0  0  0  0  0  0  0  0  0
   -4.7354   -2.0470    3.5952 C   0  0  1  0  0  0  0  0  0  0  0  0
   -2.5996   -3.7155    4.7297 C   0  0  0  0  0  0  0  0  0  0  0  0
   -3.9242   -2.9767    2.6601 C   0  0  1  0  0  0  0  0  0  0  0  0
   -2.9284   -3.8500    3.3444 C   0  0  0  0  0  0  0  0  0  0  0  0
   -1.6626   -4.6332    5.2746 C   0  0  0  0  0  0  0  0  0  0  0  0
   -2.2795   -4.8264    2.5519 C   0  0  0  0  0  0  0  0  0  0  0  0
   -1.0360   -5.6092    4.4797 C   0  0  0  0  0  0  0  0  0  0  0  0
   -1.3345   -5.7013    3.1126 C   0  0  0  0  0  0  0  0  0  0  0  0
   -0.7083   -6.6334    2.3516 O   0  0  0  0  0  0  0  0  0  0  0  0
   -2.9898   -0.9648    4.2139 H   0  0  0  0  0  0  0  0  0  0  0  0
   -4.1240   -3.1731    6.0367 H   0  0  0  0  0  0  0  0  0  0  0  0
   -5.3349   -1.0322    6.1502 H   0  0  0  0  0  0  0  0  0  0  0  0
   -1.6326    0.3515    5.6210 H   0  0  0  0  0  0  0  0  0  0  0  0
   -1.8439    1.5066    6.9269 H   0  0  0  0  0  0  0  0  0  0  0  0
   -2.6638    1.7539    5.3879 H   0  0  0  0  0  0  0  0  0  0  0  0
   -3.9586   -1.3751    8.1564 H   0  0  0  0  0  0  0  0  0  0  0  0
   -2.4041   -0.5752    8.3475 H   0  0  0  0  0  0  0  0  0  0  0  0
   -4.7151    1.2749    4.2857 H   0  0  0  0  0  0  0  0  0  0  0  0
   -6.2685    0.4565    4.5819 H   0  0  0  0  0  0  0  0  0  0  0  0
   -2.2443   -2.9235    7.5145 H   0  0  0  0  0  0  0  0  0  0  0  0
   -1.4470   -1.7876    6.4355 H   0  0  0  0  0  0  0  0  0  0  0  0
   -5.4110    2.7051    6.0484 H   0  0  0  0  0  0  0  0  0  0  0  0
   -6.5431    1.4890    6.6961 H   0  0  0  0  0  0  0  0  0  0  0  0
   -5.5656   -2.6052    4.0404 H   0  0  0  0  0  0  0  0  0  0  0  0
   -5.1612   -1.2391    2.9953 H   0  0  0  0  0  0  0  0  0  0  0  0
   -4.6357   -3.5951    2.1031 H   0  0  0  0  0  0  0  0  0  0  0  0
   -3.3811   -2.3601    1.9373 H   0  0  0  0  0  0  0  0  0  0  0  0
   -1.4139   -4.6097    6.2635 H   0  0  0  0  0  0  0  0  0  0  0  0
   -2.4939   -4.9078    1.5535 H   0  0  0  0  0  0  0  0  0  0  0  0
   -0.3574   -6.2502    4.8979 H   0  0  0  0  0  0  0  0  0  0  0  0
   -0.7759   -6.3111    1.4280 H   0  0  0  0  0  0  0  0  0  0  0  0
  2  1  1  0  0  0  0 
  3  2  1  0  0  0  0 
  2  4  1  0  0  0  0 
  2  5  1  0  0  0  0 
  6  3  1  0  0  0  0 
  3  7  1  0  0  0  0 
  3 23  1  0  0  0  0 
  4  8  1  0  0  0  0 
  5  9  2  0  0  0  0 
  5 10  1  0  0  0  0 
 11  6  1  0  0  0  0 
  6 12  1  0  0  0  0 
  6 21  1  0  0  0  0 
  7 10  1  0  0  0  0 
 11  8  1  0  0  0  0 
 11 13  1  0  0  0  0 
 11 22  1  0  0  0  0 
 12 14  1  0  0  0  0 
 13 15  2  0  0  0  0 
 13 16  1  0  0  0  0 
 14 15  1  0  0  0  0 
 15 17  1  0  0  0  0 
 16 18  2  0  0  0  0 
 17 19  2  0  0  0  0 
 18 19  1  0  0  0  0 
 19 20  1  0  0  0  0 
  1 24  1  0  0  0  0 
  1 25  1  0  0  0  0 
  1 26  1  0  0  0  0 
  4 27  1  0  0  0  0 
  4 28  1  0  0  0  0 
  7 29  1  0  0  0  0 
  7 30  1  0  0  0  0 
  8 31  1  0  0  0  0 
  8 32  1  0  0  0  0 
 10 33  1  0  0  0  0 
 10 34  1  0  0  0  0 
 12 35  1  0  0  0  0 
 12 36  1  0  0  0  0 
 14 37  1  0  0  0  0 
 14 38  1  0  0  0  0 
 16 39  1  0  0  0  0 
 17 40  1  0  0  0  0 
 18 41  1  0  0  0  0 
 20 42  1  0  0  0  0 
M  END
> <cdk:Title>
estrone

> <Conformer>
1

> <SuperDrugID>
SD002760

$$$$
