icotinib
  CDK     0628171802

 50 53  0  0  0  0  0  0  0  0999 V2000
   -5.9329   12.6267    2.1579 C   0  0  0  0  0  0  0  0  0  0  0  0
   -6.0056   11.2442    2.4605 C   0  0  0  0  0  0  0  0  0  0  0  0
   -6.9691   10.8125    3.3994 C   0  0  0  0  0  0  0  0  0  0  0  0
   -7.8115   11.7307    4.0472 C   0  0  0  0  0  0  0  0  0  0  0  0
   -7.7081   13.1016    3.7596 C   0  0  0  0  0  0  0  0  0  0  0  0
   -6.7725   13.5577    2.8081 C   0  0  0  0  0  0  0  0  0  0  0  0
   -5.2361   10.2523    1.9181 N   0  0  0  0  0  0  0  0  0  0  0  0
   -4.0341   10.2887    1.2619 C   0  0  0  0  0  0  0  0  0  0  0  0
   -1.6306   10.3917   -0.0997 N   0  0  0  0  0  0  0  0  0  0  0  0
   -2.2035    9.1783    0.1026 C   0  0  0  0  0  0  0  0  0  0  0  0
   -3.4266    9.0806    0.8222 C   0  0  0  0  0  0  0  0  0  0  0  0
   -3.3804   11.4577    1.0249 N   0  0  0  0  0  0  0  0  0  0  0  0
   -2.2016   11.5279    0.3635 C   0  0  0  0  0  0  0  0  0  0  0  0
   -3.9543    7.7933    1.0776 C   0  0  0  0  0  0  0  0  0  0  0  0
   -3.2933    6.6305    0.6336 C   0  0  0  0  0  0  0  0  0  0  0  0
   -2.1342    6.7491   -0.1625 C   0  0  0  0  0  0  0  0  0  0  0  0
   -1.5786    8.0231   -0.4051 C   0  0  0  0  0  0  0  0  0  0  0  0
   -6.6867   14.8298    2.5327 C   0  0  0  0  0  0  0  0  0  0  0  0
   -6.6073   15.9947    2.2792 C   0  0  0  0  0  0  0  0  0  0  0  0
   -3.7952    5.3987    0.9810 O   0  0  0  0  0  0  0  0  0  0  0  0
   -3.4642    5.0324    2.3441 C   0  0  1  0  0  0  0  0  0  0  0  0
   -0.3511    5.1534   -0.2062 C   0  0  2  0  0  0  0  0  0  0  0  0
   -1.6050    5.6264   -0.7375 O   0  0  0  0  0  0  0  0  0  0  0  0
   -0.4280    3.6163   -0.1509 C   0  0  1  0  0  0  0  0  0  0  0  0
   -1.5038    3.2941    0.7420 O   0  0  0  0  0  0  0  0  0  0  0  0
   -1.9386    1.9309    0.7680 C   0  0  2  0  0  0  0  0  0  0  0  0
   -2.9067    1.7717    1.9564 C   0  0  1  0  0  0  0  0  0  0  0  0
   -4.0502    2.6458    1.8226 O   0  0  0  0  0  0  0  0  0  0  0  0
   -4.1844    3.7323    2.7642 C   0  0  1  0  0  0  0  0  0  0  0  0
   -5.2769   12.9634    1.4546 H   0  0  0  0  0  0  0  0  0  0  0  0
   -7.0627    9.8187    3.6269 H   0  0  0  0  0  0  0  0  0  0  0  0
   -8.4978   11.4015    4.7301 H   0  0  0  0  0  0  0  0  0  0  0  0
   -8.3225   13.7570    4.2497 H   0  0  0  0  0  0  0  0  0  0  0  0
   -5.6021    9.3661    2.0482 H   0  0  0  0  0  0  0  0  0  0  0  0
   -1.7493   12.4295    0.2134 H   0  0  0  0  0  0  0  0  0  0  0  0
   -4.8182    7.6768    1.6095 H   0  0  0  0  0  0  0  0  0  0  0  0
   -0.7215    8.1054   -0.9576 H   0  0  0  0  0  0  0  0  0  0  0  0
   -6.5470   16.8934    2.0830 H   0  0  0  0  0  0  0  0  0  0  0  0
   -2.3865    4.8927    2.4518 H   0  0  0  0  0  0  0  0  0  0  0  0
   -3.7723    5.8122    3.0505 H   0  0  0  0  0  0  0  0  0  0  0  0
   -0.1289    5.5299    0.7988 H   0  0  0  0  0  0  0  0  0  0  0  0
    0.4548    5.4565   -0.8782 H   0  0  0  0  0  0  0  0  0  0  0  0
   -0.5947    3.2171   -1.1564 H   0  0  0  0  0  0  0  0  0  0  0  0
    0.5060    3.2117    0.2447 H   0  0  0  0  0  0  0  0  0  0  0  0
   -1.0941    1.2507    0.8972 H   0  0  0  0  0  0  0  0  0  0  0  0
   -2.4582    1.6848   -0.1608 H   0  0  0  0  0  0  0  0  0  0  0  0
   -3.2865    0.7494    1.9514 H   0  0  0  0  0  0  0  0  0  0  0  0
   -2.3650    1.9055    2.8981 H   0  0  0  0  0  0  0  0  0  0  0  0
   -3.8664    3.4475    3.7729 H   0  0  0  0  0  0  0  0  0  0  0  0
   -5.2497    3.9510    2.8164 H   0  0  0  0  0  0  0  0  0  0  0  0
  1  2  2  0  0  0  0 
  1  6  1  0  0  0  0 
  2  3  1  0  0  0  0 
  3  4  2  0  0  0  0 
  4  5  1  0  0  0  0 
  5  6  2  0  0  0  0 
  2  7  1  0  0  0  0 
  7  8  1  0  0  0  0 
  9 10  2  0  0  0  0 
 10 11  1  0  0  0  0 
 12 13  2  0  0  0  0 
  9 13  1  0  0  0  0 
 11  8  2  0  0  0  0 
  8 12  1  0  0  0  0 
 14 15  2  0  0  0  0 
 15 16  1  0  0  0  0 
 16 17  2  0  0  0  0 
 10 17  1  0  0  0  0 
 11 14  1  0  0  0  0 
  6 18  1  0  0  0  0 
 18 19  3  0  0  0  0 
 20 21  1  0  0  0  0 
 22 23  1  0  0  0  0 
 15 20  1  0  0  0  0 
 16 23  1  0  0  0  0 
 24 25  1  0  0  0  0 
 25 26  1  0  0  0  0 
 26 27  1  0  0  0  0 
 27 28  1  0  0  0  0 
 28 29  1  0  0  0  0 
 22 24  1  0  0  0  0 
 29 21  1  0  0  0  0 
  1 30  1  0  0  0  0 
  3 31  1  0  0  0  0 
  4 32  1  0  0  0  0 
  5 33  1  0  0  0  0 
  7 34  1  0  0  0  0 
 13 35  1  0  0  0  0 
 14 36  1  0  0  0  0 
 17 37  1  0  0  0  0 
 19 38  1  0  0  0  0 
 21 39  1  0  0  0  0 
 21 40  1  0  0  0  0 
 22 41  1  0  0  0  0 
 22 42  1  0  0  0  0 
 24 43  1  0  0  0  0 
 24 44  1  0  0  0  0 
 26 45  1  0  0  0  0 
 26 46  1  0  0  0  0 
 27 47  1  0  0  0  0 
 27 48  1  0  0  0  0 
 29 49  1  0  0  0  0 
 29 50  1  0  0  0  0 
M  END
> <cdk:Title>
icotinib

> <Conformer>
1

> <SuperDrugID>
SD003939

$$$$
