homochlorcyclizine
  CDK     0628171801

 45 47  0  0  0  0  0  0  0  0999 V2000
    0.0372   -5.7598    0.7714 C   0  0  0  0  0  0  0  0  0  0  0  0
    1.0597   -6.5429    1.3413 C   0  0  0  0  0  0  0  0  0  0  0  0
    1.7433   -7.4885    0.5537 C   0  0  0  0  0  0  0  0  0  0  0  0
    1.3989   -7.6441   -0.8015 C   0  0  0  0  0  0  0  0  0  0  0  0
    0.3737   -6.8621   -1.3639 C   0  0  0  0  0  0  0  0  0  0  0  0
   -0.3240   -5.8995   -0.5935 C   0  0  0  0  0  0  0  0  0  0  0  0
   -1.3944   -5.0370   -1.2004 C   0  0  1  0  0  0  0  0  0  0  0  0
   -0.7269   -3.8962   -1.9165 C   0  0  0  0  0  0  0  0  0  0  0  0
   -2.3998   -5.7777   -2.0609 N   0  0  2  0  0  0  0  0  0  0  0  0
    0.4857   -1.7244   -3.2939 C   0  0  0  0  0  0  0  0  0  0  0  0
    0.5544   -3.0216   -3.8283 C   0  0  0  0  0  0  0  0  0  0  0  0
   -0.0466   -4.0954   -3.1451 C   0  0  0  0  0  0  0  0  0  0  0  0
   -0.7810   -2.5778   -1.3966 C   0  0  0  0  0  0  0  0  0  0  0  0
   -0.1826   -1.5021   -2.0779 C   0  0  0  0  0  0  0  0  0  0  0  0
    2.9679   -8.4382    1.2332 Cl  0  0  0  0  0  0  0  0  0  0  0  0
   -3.3985   -4.9371   -2.8147 C   0  0  2  0  0  0  0  0  0  0  0  0
   -4.4034   -4.1437   -1.9394 C   0  0  1  0  0  0  0  0  0  0  0  0
   -5.2622   -5.0367   -1.0126 C   0  0  1  0  0  0  0  0  0  0  0  0
   -4.4031   -5.5659    0.0903 N   0  0  2  0  0  0  0  0  0  0  0  0
   -3.7600   -6.8941   -0.1459 C   0  0  2  0  0  0  0  0  0  0  0  0
   -3.0052   -7.0368   -1.4996 C   0  0  1  0  0  0  0  0  0  0  0  0
   -4.9483   -5.3759    1.4629 C   0  0  0  0  0  0  0  0  0  0  0  0
   -1.9730   -4.6197   -0.3712 H   0  0  0  0  0  0  0  0  0  0  0  0
   -0.4410   -5.0783    1.3668 H   0  0  0  0  0  0  0  0  0  0  0  0
    1.3000   -6.4185    2.3296 H   0  0  0  0  0  0  0  0  0  0  0  0
    1.8912   -8.3264   -1.3839 H   0  0  0  0  0  0  0  0  0  0  0  0
    0.1340   -7.0116   -2.3457 H   0  0  0  0  0  0  0  0  0  0  0  0
    0.9218   -0.9446   -3.7900 H   0  0  0  0  0  0  0  0  0  0  0  0
    1.0356   -3.1854   -4.7166 H   0  0  0  0  0  0  0  0  0  0  0  0
    0.0082   -5.0248   -3.5640 H   0  0  0  0  0  0  0  0  0  0  0  0
   -1.2627   -2.3857   -0.5155 H   0  0  0  0  0  0  0  0  0  0  0  0
   -0.2345   -0.5575   -1.6868 H   0  0  0  0  0  0  0  0  0  0  0  0
   -3.9684   -5.5682   -3.5025 H   0  0  0  0  0  0  0  0  0  0  0  0
   -2.8748   -4.2266   -3.4586 H   0  0  0  0  0  0  0  0  0  0  0  0
   -3.8580   -3.4166   -1.3317 H   0  0  0  0  0  0  0  0  0  0  0  0
   -5.0713   -3.5830   -2.6001 H   0  0  0  0  0  0  0  0  0  0  0  0
   -6.0760   -4.4165   -0.6231 H   0  0  0  0  0  0  0  0  0  0  0  0
   -5.7301   -5.8475   -1.5792 H   0  0  0  0  0  0  0  0  0  0  0  0
   -4.5163   -7.6819   -0.0780 H   0  0  0  0  0  0  0  0  0  0  0  0
   -3.0331   -7.0746    0.6528 H   0  0  0  0  0  0  0  0  0  0  0  0
   -3.6942   -7.4710   -2.2300 H   0  0  0  0  0  0  0  0  0  0  0  0
   -2.2218   -7.7881   -1.3810 H   0  0  0  0  0  0  0  0  0  0  0  0
   -5.8477   -5.9770    1.6088 H   0  0  0  0  0  0  0  0  0  0  0  0
   -5.1947   -4.3241    1.6237 H   0  0  0  0  0  0  0  0  0  0  0  0
   -4.2092   -5.6516    2.2173 H   0  0  0  0  0  0  0  0  0  0  0  0
  1  2  2  0  0  0  0 
  2  3  1  0  0  0  0 
  3  4  2  0  0  0  0 
  4  5  1  0  0  0  0 
  5  6  2  0  0  0  0 
  1  6  1  0  0  0  0 
  7  6  1  0  0  0  0 
  7  8  1  0  0  0  0 
  7  9  1  0  0  0  0 
 10 11  2  0  0  0  0 
 11 12  1  0  0  0  0 
 13 14  2  0  0  0  0 
 10 14  1  0  0  0  0 
 12  8  2  0  0  0  0 
  8 13  1  0  0  0  0 
  3 15  1  0  0  0  0 
 16 17  1  0  0  0  0 
 17 18  1  0  0  0  0 
 18 19  1  0  0  0  0 
 19 20  1  0  0  0  0 
 20 21  1  0  0  0  0 
  9 16  1  0  0  0  0 
 21  9  1  0  0  0  0 
 19 22  1  0  0  0  0 
  7 23  1  0  0  0  0 
  1 24  1  0  0  0  0 
  2 25  1  0  0  0  0 
  4 26  1  0  0  0  0 
  5 27  1  0  0  0  0 
 10 28  1  0  0  0  0 
 11 29  1  0  0  0  0 
 12 30  1  0  0  0  0 
 13 31  1  0  0  0  0 
 14 32  1  0  0  0  0 
 16 33  1  0  0  0  0 
 16 34  1  0  0  0  0 
 17 35  1  0  0  0  0 
 17 36  1  0  0  0  0 
 18 37  1  0  0  0  0 
 18 38  1  0  0  0  0 
 20 39  1  0  0  0  0 
 20 40  1  0  0  0  0 
 21 41  1  0  0  0  0 
 21 42  1  0  0  0  0 
 22 43  1  0  0  0  0 
 22 44  1  0  0  0  0 
 22 45  1  0  0  0  0 
M  END
> <cdk:Title>
homochlorcyclizine

> <Conformer>
1

> <SuperDrugID>
SD001227

$$$$
