cefamandole nafate
  CDK     0628171802

 51 54  0  0  0  0  0  0  0  0999 V2000
   -1.4807   -4.1879    3.6236 C   0  0  0  0  0  0  0  0  0  0  0  0
   -2.2279   -3.6517    2.6275 O   0  0  0  0  0  0  0  0  0  0  0  0
   -2.0187   -4.3238    4.7464 O   0  0  0  0  0  0  0  0  0  0  0  0
   -0.1797   -4.6375    3.4100 C   0  0  0  0  0  0  0  0  0  0  0  0
    0.0533   -5.9392    3.7058 N   0  0  0  0  0  0  0  0  0  0  0  0
    0.7960   -3.8678    2.8411 C   0  0  0  0  0  0  0  0  0  0  0  0
    1.2461   -6.7130    3.7411 C   0  0  1  0  0  0  0  0  0  0  0  0
   -0.7421   -7.0200    3.7584 C   0  0  0  0  0  0  0  0  0  0  0  0
    0.5523   -2.5058    2.3443 C   0  0  2  0  0  0  0  0  0  0  0  0
    2.1839   -4.3488    2.6771 C   0  0  2  0  0  0  0  0  0  0  0  0
    0.3488   -7.9753    3.5743 C   0  0  1  0  0  0  0  0  0  0  0  0
    2.3173   -6.1477    2.3827 S   0  0  0  0  0  0  0  0  0  0  0  0
   -1.9853   -7.1734    3.7524 O   0  0  0  0  0  0  0  0  0  0  0  0
    0.2293   -2.6126    0.5504 S   0  0  0  0  0  0  0  0  0  0  0  0
    0.2448   -8.4586    2.2374 N   0  0  0  0  0  0  0  0  0  0  0  0
   -0.4495   -1.0527    0.1364 C   0  0  0  0  0  0  0  0  0  0  0  0
   -0.5820   -9.4467    1.8153 C   0  0  0  0  0  0  0  0  0  0  0  0
    0.1960    0.0621   -0.2393 N   0  0  0  0  0  0  0  0  0  0  0  0
   -1.7578   -0.7842    0.1313 N   0  0  0  0  0  0  0  0  0  0  0  0
   -0.9807   -9.4354    0.3909 C   0  0  2  0  0  0  0  0  0  0  0  0
   -1.0884  -10.2718    2.6125 O   0  0  0  0  0  0  0  0  0  0  0  0
    1.6037    0.2496   -0.3818 C   0  0  0  0  0  0  0  0  0  0  0  0
   -0.7063    0.9630   -0.4597 N   0  0  0  0  0  0  0  0  0  0  0  0
   -1.8753    0.4500   -0.2367 N   0  0  0  0  0  0  0  0  0  0  0  0
    0.2036   -9.4226   -0.4286 O   0  0  0  0  0  0  0  0  0  0  0  0
   -1.8821   -8.2503    0.2110 C   0  0  0  0  0  0  0  0  0  0  0  0
    0.2622   -9.4518   -1.7911 C   0  0  0  0  0  0  0  0  0  0  0  0
   -1.3777   -6.9689   -0.1288 C   0  0  0  0  0  0  0  0  0  0  0  0
   -3.2677   -8.3701    0.4807 C   0  0  0  0  0  0  0  0  0  0  0  0
   -0.7640   -9.4487   -2.5084 O   0  0  0  0  0  0  0  0  0  0  0  0
   -2.2240   -5.8437   -0.1750 C   0  0  0  0  0  0  0  0  0  0  0  0
   -4.1122   -7.2445    0.4384 C   0  0  0  0  0  0  0  0  0  0  0  0
   -3.5920   -5.9804    0.1141 C   0  0  0  0  0  0  0  0  0  0  0  0
    1.7479   -6.6506    4.7111 H   0  0  0  0  0  0  0  0  0  0  0  0
   -3.1492   -3.3678    2.8015 H   0  0  0  0  0  0  0  0  0  0  0  0
    1.4175   -1.8605    2.5110 H   0  0  0  0  0  0  0  0  0  0  0  0
   -0.2894   -2.0149    2.8330 H   0  0  0  0  0  0  0  0  0  0  0  0
    2.7384   -4.1106    3.5877 H   0  0  0  0  0  0  0  0  0  0  0  0
    2.6959   -3.8624    1.8440 H   0  0  0  0  0  0  0  0  0  0  0  0
    0.4407   -8.7220    4.3689 H   0  0  0  0  0  0  0  0  0  0  0  0
    0.6935   -7.9452    1.5474 H   0  0  0  0  0  0  0  0  0  0  0  0
   -1.5258  -10.3585    0.1626 H   0  0  0  0  0  0  0  0  0  0  0  0
    2.0880    0.1169    0.5891 H   0  0  0  0  0  0  0  0  0  0  0  0
    1.8265    1.2539   -0.7525 H   0  0  0  0  0  0  0  0  0  0  0  0
    2.0085   -0.4787   -1.0898 H   0  0  0  0  0  0  0  0  0  0  0  0
    1.1786   -9.4656   -2.2409 H   0  0  0  0  0  0  0  0  0  0  0  0
   -0.3836   -6.8398   -0.3263 H   0  0  0  0  0  0  0  0  0  0  0  0
   -3.6681   -9.2777    0.7334 H   0  0  0  0  0  0  0  0  0  0  0  0
   -1.8460   -4.9235   -0.4105 H   0  0  0  0  0  0  0  0  0  0  0  0
   -5.1054   -7.3424    0.6528 H   0  0  0  0  0  0  0  0  0  0  0  0
   -4.2079   -5.1633    0.0898 H   0  0  0  0  0  0  0  0  0  0  0  0
  1  2  1  0  0  0  0 
  1  3  2  0  0  0  0 
  1  4  1  0  0  0  0 
  4  5  1  0  0  0  0 
  4  6  2  0  0  0  0 
  7  5  1  0  0  0  0 
  5  8  1  0  0  0  0 
  6  9  1  0  0  0  0 
  6 10  1  0  0  0  0 
 11  7  1  0  0  0  0 
  7 12  1  0  0  0  0 
  7 34  1  0  0  0  0 
 11  8  1  0  0  0  0 
  8 13  2  0  0  0  0 
  9 14  1  0  0  0  0 
 10 12  1  0  0  0  0 
 11 15  1  0  0  0  0 
 14 16  1  0  0  0  0 
 15 17  1  0  0  0  0 
 16 18  1  0  0  0  0 
 16 19  2  0  0  0  0 
 20 17  1  0  0  0  0 
 17 21  2  0  0  0  0 
 18 22  1  0  0  0  0 
 18 23  1  0  0  0  0 
 19 24  1  0  0  0  0 
 20 25  1  0  0  0  0 
 20 26  1  0  0  0  0 
 23 24  2  0  0  0  0 
 25 27  1  0  0  0  0 
 26 28  2  0  0  0  0 
 26 29  1  0  0  0  0 
 27 30  2  0  0  0  0 
 28 31  1  0  0  0  0 
 29 32  2  0  0  0  0 
 31 33  2  0  0  0  0 
 32 33  1  0  0  0  0 
  2 35  1  0  0  0  0 
  9 36  1  0  0  0  0 
  9 37  1  0  0  0  0 
 10 38  1  0  0  0  0 
 10 39  1  0  0  0  0 
 11 40  1  0  0  0  0 
 15 41  1  0  0  0  0 
 20 42  1  0  0  0  0 
 22 43  1  0  0  0  0 
 22 44  1  0  0  0  0 
 22 45  1  0  0  0  0 
 27 46  1  0  0  0  0 
 28 47  1  0  0  0  0 
 29 48  1  0  0  0  0 
 31 49  1  0  0  0  0 
 32 50  1  0  0  0  0 
 33 51  1  0  0  0  0 
M  END
> <cdk:Title>
cefamandole nafate

> <Conformer>
1

> <SuperDrugID>
SD000457

$$$$
