thiethylperazine
  CDK     0628171801

 56 59  0  0  0  0  0  0  0  0999 V2000
   -3.2788   -5.9415    7.0236 C   0  0  0  0  0  0  0  0  0  0  0  0
   -2.2968   -4.8082    6.6886 C   0  0  1  0  0  0  0  0  0  0  0  0
   -2.8478   -3.1949    7.3552 S   0  0  0  0  0  0  0  0  0  0  0  0
   -1.5441   -2.1411    6.8355 C   0  0  0  0  0  0  0  0  0  0  0  0
   -1.5510   -1.6233    5.5299 C   0  0  0  0  0  0  0  0  0  0  0  0
   -0.4253   -0.9391    5.0508 C   0  0  0  0  0  0  0  0  0  0  0  0
    0.7097   -0.7921    5.8712 C   0  0  0  0  0  0  0  0  0  0  0  0
    2.1340   -0.0089    5.2057 S   0  0  0  0  0  0  0  0  0  0  0  0
    2.9375    0.6074    6.6388 C   0  0  0  0  0  0  0  0  0  0  0  0
    3.8223    1.6939    6.4959 C   0  0  0  0  0  0  0  0  0  0  0  0
    4.4360    2.2449    7.6313 C   0  0  0  0  0  0  0  0  0  0  0  0
    4.1472    1.7239    8.9030 C   0  0  0  0  0  0  0  0  0  0  0  0
    3.2714    0.6300    9.0359 C   0  0  0  0  0  0  0  0  0  0  0  0
    2.6678    0.0196    7.9046 C   0  0  0  0  0  0  0  0  0  0  0  0
    1.8678   -1.1248    8.0102 N   0  0  0  0  0  0  0  0  0  0  0  0
    2.2559   -2.2015    8.9227 C   0  0  1  0  0  0  0  0  0  0  0  0
    3.7193   -2.7134    8.7936 C   0  0  2  0  0  0  0  0  0  0  0  0
    4.1272   -3.1629    7.3641 C   0  0  1  0  0  0  0  0  0  0  0  0
    3.2404   -4.1961    6.7277 N   0  0  1  0  0  0  0  0  0  0  0  0
    3.5202   -4.3301    5.2621 C   0  0  2  0  0  0  0  0  0  0  0  0
    2.6268   -5.3955    4.5873 C   0  0  2  0  0  0  0  0  0  0  0  0
    2.7630   -6.7024    5.2930 N   0  0  2  0  0  0  0  0  0  0  0  0
    2.0445   -7.8081    4.6009 C   0  0  0  0  0  0  0  0  0  0  0  0
    2.3934   -6.5863    6.7327 C   0  0  1  0  0  0  0  0  0  0  0  0
    3.2620   -5.5176    7.4379 C   0  0  2  0  0  0  0  0  0  0  0  0
    0.7298   -1.2666    7.2096 C   0  0  0  0  0  0  0  0  0  0  0  0
   -0.4439   -1.9102    7.6827 C   0  0  0  0  0  0  0  0  0  0  0  0
   -4.2617   -5.7312    6.5978 H   0  0  0  0  0  0  0  0  0  0  0  0
   -2.9053   -6.8764    6.6024 H   0  0  0  0  0  0  0  0  0  0  0  0
   -3.3717   -6.0553    8.1051 H   0  0  0  0  0  0  0  0  0  0  0  0
   -1.3166   -5.0458    7.1078 H   0  0  0  0  0  0  0  0  0  0  0  0
   -2.1975   -4.7252    5.6040 H   0  0  0  0  0  0  0  0  0  0  0  0
   -2.3566   -1.7649    4.9147 H   0  0  0  0  0  0  0  0  0  0  0  0
   -0.4334   -0.5674    4.0991 H   0  0  0  0  0  0  0  0  0  0  0  0
    4.0208    2.0915    5.5739 H   0  0  0  0  0  0  0  0  0  0  0  0
    5.0886    3.0276    7.5276 H   0  0  0  0  0  0  0  0  0  0  0  0
    4.5806    2.1360    9.7287 H   0  0  0  0  0  0  0  0  0  0  0  0
    3.0800    0.2816    9.9763 H   0  0  0  0  0  0  0  0  0  0  0  0
    2.0947   -1.8702    9.9494 H   0  0  0  0  0  0  0  0  0  0  0  0
    1.6333   -3.0899    8.7946 H   0  0  0  0  0  0  0  0  0  0  0  0
    3.8625   -3.5497    9.4823 H   0  0  0  0  0  0  0  0  0  0  0  0
    4.4134   -1.9343    9.1159 H   0  0  0  0  0  0  0  0  0  0  0  0
    4.1445   -2.2607    6.7471 H   0  0  0  0  0  0  0  0  0  0  0  0
    5.1563   -3.5371    7.4027 H   0  0  0  0  0  0  0  0  0  0  0  0
    4.5686   -4.5991    5.1039 H   0  0  0  0  0  0  0  0  0  0  0  0
    3.3386   -3.3769    4.7583 H   0  0  0  0  0  0  0  0  0  0  0  0
    2.9412   -5.4992    3.5455 H   0  0  0  0  0  0  0  0  0  0  0  0
    1.5862   -5.0555    4.5974 H   0  0  0  0  0  0  0  0  0  0  0  0
    2.4153   -7.9154    3.5788 H   0  0  0  0  0  0  0  0  0  0  0  0
    2.2183   -8.7576    5.1127 H   0  0  0  0  0  0  0  0  0  0  0  0
    0.9685   -7.6177    4.5679 H   0  0  0  0  0  0  0  0  0  0  0  0
    1.3372   -6.3189    6.8356 H   0  0  0  0  0  0  0  0  0  0  0  0
    2.5545   -7.5426    7.2390 H   0  0  0  0  0  0  0  0  0  0  0  0
    2.8644   -5.4031    8.4493 H   0  0  0  0  0  0  0  0  0  0  0  0
    4.2886   -5.8919    7.5151 H   0  0  0  0  0  0  0  0  0  0  0  0
   -0.4968   -2.2394    8.6491 H   0  0  0  0  0  0  0  0  0  0  0  0
  1  2  1  0  0  0  0 
  2  3  1  0  0  0  0 
  3  4  1  0  0  0  0 
  4  5  2  0  0  0  0 
  5  6  1  0  0  0  0 
  6  7  2  0  0  0  0 
  7  8  1  0  0  0  0 
  8  9  1  0  0  0  0 
  9 10  2  0  0  0  0 
 10 11  1  0  0  0  0 
 11 12  2  0  0  0  0 
 12 13  1  0  0  0  0 
 13 14  2  0  0  0  0 
  9 14  1  0  0  0  0 
 14 15  1  0  0  0  0 
 15 16  1  0  0  0  0 
 16 17  1  0  0  0  0 
 17 18  1  0  0  0  0 
 18 19  1  0  0  0  0 
 19 20  1  0  0  0  0 
 20 21  1  0  0  0  0 
 21 22  1  0  0  0  0 
 22 23  1  0  0  0  0 
 22 24  1  0  0  0  0 
 24 25  1  0  0  0  0 
 19 25  1  0  0  0  0 
 15 26  1  0  0  0  0 
  7 26  1  0  0  0  0 
 26 27  2  0  0  0  0 
  4 27  1  0  0  0  0 
  1 28  1  0  0  0  0 
  1 29  1  0  0  0  0 
  1 30  1  0  0  0  0 
  2 31  1  0  0  0  0 
  2 32  1  0  0  0  0 
  5 33  1  0  0  0  0 
  6 34  1  0  0  0  0 
 10 35  1  0  0  0  0 
 11 36  1  0  0  0  0 
 12 37  1  0  0  0  0 
 13 38  1  0  0  0  0 
 16 39  1  0  0  0  0 
 16 40  1  0  0  0  0 
 17 41  1  0  0  0  0 
 17 42  1  0  0  0  0 
 18 43  1  0  0  0  0 
 18 44  1  0  0  0  0 
 20 45  1  0  0  0  0 
 20 46  1  0  0  0  0 
 21 47  1  0  0  0  0 
 21 48  1  0  0  0  0 
 23 49  1  0  0  0  0 
 23 50  1  0  0  0  0 
 23 51  1  0  0  0  0 
 24 52  1  0  0  0  0 
 24 53  1  0  0  0  0 
 25 54  1  0  0  0  0 
 25 55  1  0  0  0  0 
 27 56  1  0  0  0  0 
M  END
> <cdk:Title>
thiethylperazine

> <Conformer>
1

> <SuperDrugID>
SD002365

$$$$
