phenformin
  CDK     0628171801

 30 30  0  0  0  0  0  0  0  0999 V2000
    1.5076    3.3978   -0.5311 N   0  0  0  0  0  0  0  0  0  0  0  0
    0.5926    2.8195   -1.2881 C   0  0  0  0  0  0  0  0  0  0  0  0
   -0.1542    3.5578   -2.0148 N   0  0  0  0  0  0  0  0  0  0  0  0
    0.3773    1.5049   -1.3269 N   0  0  0  0  0  0  0  0  0  0  0  0
    1.2344    0.5237   -1.0130 C   0  0  0  0  0  0  0  0  0  0  0  0
    2.5047    0.6832   -1.0298 N   0  0  0  0  0  0  0  0  0  0  0  0
    0.8327   -0.7053   -0.7044 N   0  0  0  0  0  0  0  0  0  0  0  0
   -0.4997   -1.1213   -0.3871 C   0  0  1  0  0  0  0  0  0  0  0  0
   -0.6041   -2.6701   -0.3941 C   0  0  2  0  0  0  0  0  0  0  0  0
   -0.4481   -3.2583   -1.7584 C   0  0  0  0  0  0  0  0  0  0  0  0
    0.7121   -3.9870   -2.1162 C   0  0  0  0  0  0  0  0  0  0  0  0
    0.8524   -4.5385   -3.4042 C   0  0  0  0  0  0  0  0  0  0  0  0
   -0.1673   -4.3678   -4.3571 C   0  0  0  0  0  0  0  0  0  0  0  0
   -1.3272   -3.6496   -4.0210 C   0  0  0  0  0  0  0  0  0  0  0  0
   -1.4649   -3.0993   -2.7322 C   0  0  0  0  0  0  0  0  0  0  0  0
    1.6231    4.3609   -0.5535 H   0  0  0  0  0  0  0  0  0  0  0  0
    2.0623    2.8630    0.0604 H   0  0  0  0  0  0  0  0  0  0  0  0
   -0.0478    4.4858   -2.0172 H   0  0  0  0  0  0  0  0  0  0  0  0
   -0.4982    1.2255   -1.6400 H   0  0  0  0  0  0  0  0  0  0  0  0
    2.8800    1.5082   -1.2559 H   0  0  0  0  0  0  0  0  0  0  0  0
    1.5244   -1.3808   -0.6202 H   0  0  0  0  0  0  0  0  0  0  0  0
   -0.7382   -0.7596    0.6174 H   0  0  0  0  0  0  0  0  0  0  0  0
   -1.2285   -0.7012   -1.0867 H   0  0  0  0  0  0  0  0  0  0  0  0
   -1.5764   -2.9672    0.0083 H   0  0  0  0  0  0  0  0  0  0  0  0
    0.1522   -3.0701    0.2895 H   0  0  0  0  0  0  0  0  0  0  0  0
    1.4687   -4.1178   -1.4414 H   0  0  0  0  0  0  0  0  0  0  0  0
    1.6954   -5.0619   -3.6497 H   0  0  0  0  0  0  0  0  0  0  0  0
   -0.0641   -4.7637   -5.2944 H   0  0  0  0  0  0  0  0  0  0  0  0
   -2.0694   -3.5275   -4.7139 H   0  0  0  0  0  0  0  0  0  0  0  0
   -2.3164   -2.5803   -2.5082 H   0  0  0  0  0  0  0  0  0  0  0  0
  1  2  1  0  0  0  0 
  2  3  2  0  0  0  0 
  2  4  1  0  0  0  0 
  4  5  1  0  0  0  0 
  5  6  2  0  0  0  0 
  5  7  1  0  0  0  0 
  7  8  1  0  0  0  0 
  8  9  1  0  0  0  0 
  9 10  1  0  0  0  0 
 10 11  2  0  0  0  0 
 11 12  1  0  0  0  0 
 12 13  2  0  0  0  0 
 13 14  1  0  0  0  0 
 14 15  2  0  0  0  0 
 10 15  1  0  0  0  0 
 16  1  1  0  0  0  0 
 17  1  1  0  0  0  0 
 18  3  1  0  0  0  0 
 19  4  1  0  0  0  0 
 20  6  1  0  0  0  0 
 21  7  1  0  0  0  0 
 22  8  1  0  0  0  0 
 23  8  1  0  0  0  0 
 24  9  1  0  0  0  0 
 25  9  1  0  0  0  0 
 26 11  1  0  0  0  0 
 27 12  1  0  0  0  0 
 28 13  1  0  0  0  0 
 29 14  1  0  0  0  0 
 30 15  1  0  0  0  0 
M  END
> <cdk:Title>
phenformin

> <Conformer>
1

> <SuperDrugID>
SD001906

$$$$
