clinofibrate
  CDK     0628171802

 70 72  0  0  0  0  0  0  0  0999 V2000
   37.3500   64.7766   13.2790 C   0  0  2  0  0  0  0  0  0  0  0  0
   37.7751   63.2871   13.3209 C   0  0  1  0  0  0  0  0  0  0  0  0
   38.0325   62.7640   11.8790 C   0  0  2  0  0  0  0  0  0  0  0  0
   39.2077   63.5337   11.1340 C   0  0  1  0  0  0  0  0  0  0  0  0
   38.7216   65.0421   11.1058 C   0  0  1  0  0  0  0  0  0  0  0  0
   38.3722   65.6434   12.5019 C   0  0  1  0  0  0  0  0  0  0  0  0
   40.5150   63.3087   11.9156 C   0  0  0  0  0  0  0  0  0  0  0  0
   39.3590   63.1395    9.6608 C   0  0  0  0  0  0  0  0  0  0  0  0
   40.8989   62.0045   12.3404 C   0  0  0  0  0  0  0  0  0  0  0  0
   42.0400   61.7767   13.1317 C   0  0  0  0  0  0  0  0  0  0  0  0
   42.8771   62.8429   13.5034 C   0  0  0  0  0  0  0  0  0  0  0  0
   42.5859   64.1264   13.0106 C   0  0  0  0  0  0  0  0  0  0  0  0
   41.4315   64.3513   12.2379 C   0  0  0  0  0  0  0  0  0  0  0  0
   40.6226   63.1364    9.0038 C   0  0  0  0  0  0  0  0  0  0  0  0
   40.7521   62.9033    7.6219 C   0  0  0  0  0  0  0  0  0  0  0  0
   39.6161   62.6962    6.8187 C   0  0  0  0  0  0  0  0  0  0  0  0
   38.3597   62.6224    7.4464 C   0  0  0  0  0  0  0  0  0  0  0  0
   38.2348   62.8654    8.8274 C   0  0  0  0  0  0  0  0  0  0  0  0
   39.7353   62.5132    5.4584 O   0  0  0  0  0  0  0  0  0  0  0  0
   39.5854   63.6506    4.5486 C   0  0  1  0  0  0  0  0  0  0  0  0
   44.0009   62.6093   14.2609 O   0  0  0  0  0  0  0  0  0  0  0  0
   43.9455   62.7673   15.7113 C   0  0  1  0  0  0  0  0  0  0  0  0
   43.7782   64.2113   16.0746 C   0  0  0  0  0  0  0  0  0  0  0  0
   39.6618   63.0811    3.1692 C   0  0  0  0  0  0  0  0  0  0  0  0
   38.1815   64.3276    4.6827 C   0  0  0  0  0  0  0  0  0  0  0  0
   40.7216   64.7202    4.7375 C   0  0  1  0  0  0  0  0  0  0  0  0
   42.1630   64.2149    4.4709 C   0  0  0  0  0  0  0  0  0  0  0  0
   39.5654   63.8096    2.1535 O   0  0  0  0  0  0  0  0  0  0  0  0
   39.8500   61.7572    2.9522 O   0  0  0  0  0  0  0  0  0  0  0  0
   42.8230   61.8916   16.3701 C   0  0  0  0  0  0  0  0  0  0  0  0
   45.3732   62.3328   16.2154 C   0  0  2  0  0  0  0  0  0  0  0  0
   45.6970   60.8051   15.9337 C   0  0  0  0  0  0  0  0  0  0  0  0
   44.5533   65.1557   15.4914 O   0  0  0  0  0  0  0  0  0  0  0  0
   42.9555   64.6134   16.9316 O   0  0  0  0  0  0  0  0  0  0  0  0
   37.2562   65.1546   14.3010 H   0  0  0  0  0  0  0  0  0  0  0  0
   36.3712   64.8574   12.7956 H   0  0  0  0  0  0  0  0  0  0  0  0
   38.6700   63.1760   13.9386 H   0  0  0  0  0  0  0  0  0  0  0  0
   36.9816   62.6966   13.7855 H   0  0  0  0  0  0  0  0  0  0  0  0
   37.0822   62.8812   11.3559 H   0  0  0  0  0  0  0  0  0  0  0  0
   38.2045   61.6880   11.9064 H   0  0  0  0  0  0  0  0  0  0  0  0
   39.4641   65.6786   10.6176 H   0  0  0  0  0  0  0  0  0  0  0  0
   37.8162   65.1298   10.4936 H   0  0  0  0  0  0  0  0  0  0  0  0
   37.9592   66.6465   12.3648 H   0  0  0  0  0  0  0  0  0  0  0  0
   39.2695   65.7468   13.1128 H   0  0  0  0  0  0  0  0  0  0  0  0
   40.3460   61.1858   12.0886 H   0  0  0  0  0  0  0  0  0  0  0  0
   42.2608   60.8259   13.4359 H   0  0  0  0  0  0  0  0  0  0  0  0
   43.2214   64.9021   13.2071 H   0  0  0  0  0  0  0  0  0  0  0  0
   41.2848   65.3051   11.9116 H   0  0  0  0  0  0  0  0  0  0  0  0
   41.4836   63.3303    9.5161 H   0  0  0  0  0  0  0  0  0  0  0  0
   41.6844   62.8967    7.2054 H   0  0  0  0  0  0  0  0  0  0  0  0
   37.5248   62.4061    6.8961 H   0  0  0  0  0  0  0  0  0  0  0  0
   37.2864   62.8605    9.1976 H   0  0  0  0  0  0  0  0  0  0  0  0
   37.3858   63.5888    4.5582 H   0  0  0  0  0  0  0  0  0  0  0  0
   38.0445   65.1100    3.9310 H   0  0  0  0  0  0  0  0  0  0  0  0
   38.0657   64.7968    5.6600 H   0  0  0  0  0  0  0  0  0  0  0  0
   40.5454   65.5688    4.0686 H   0  0  0  0  0  0  0  0  0  0  0  0
   40.6764   65.1153    5.7552 H   0  0  0  0  0  0  0  0  0  0  0  0
   42.8853   64.9603    4.8101 H   0  0  0  0  0  0  0  0  0  0  0  0
   42.3193   64.0482    3.4039 H   0  0  0  0  0  0  0  0  0  0  0  0
   42.3552   63.2793    4.9946 H   0  0  0  0  0  0  0  0  0  0  0  0
   39.8921   61.4078    2.0373 H   0  0  0  0  0  0  0  0  0  0  0  0
   42.8460   60.8719   15.9855 H   0  0  0  0  0  0  0  0  0  0  0  0
   42.9436   61.8566   17.4561 H   0  0  0  0  0  0  0  0  0  0  0  0
   41.8334   62.3027   16.1583 H   0  0  0  0  0  0  0  0  0  0  0  0
   45.3563   62.4011   17.3501 H   0  0  0  0  0  0  0  0  0  0  0  0
   46.1227   63.0656   15.6944 H   0  0  0  0  0  0  0  0  0  0  0  0
   46.7417   60.6105   16.1770 H   0  0  0  0  0  0  0  0  0  0  0  0
   45.5467   60.5693   14.8803 H   0  0  0  0  0  0  0  0  0  0  0  0
   45.0766   60.1477   16.5437 H   0  0  0  0  0  0  0  0  0  0  0  0
   44.4476   66.1026   15.7235 H   0  0  0  0  0  0  0  0  0  0  0  0
  1  2  1  0  0  0  0 
  2  3  1  0  0  0  0 
  3  4  1  0  0  0  0 
  4  5  1  0  0  0  0 
  5  6  1  0  0  0  0 
  1  6  1  0  0  0  0 
  4  7  1  0  0  0  0 
  4  8  1  0  0  0  0 
  9 10  1  0  0  0  0 
 10 11  2  0  0  0  0 
 11 12  1  0  0  0  0 
 12 13  2  0  0  0  0 
  7  9  2  0  0  0  0 
  7 13  1  0  0  0  0 
 14 15  1  0  0  0  0 
 15 16  2  0  0  0  0 
 16 17  1  0  0  0  0 
 17 18  2  0  0  0  0 
  8 14  2  0  0  0  0 
  8 18  1  0  0  0  0 
 16 19  1  0  0  0  0 
 19 20  1  0  0  0  0 
 11 21  1  0  0  0  0 
 21 22  1  0  0  0  0 
 22 23  1  0  0  0  0 
 20 24  1  0  0  0  0 
 20 25  1  0  0  0  0 
 20 26  1  0  0  0  0 
 26 27  1  0  0  0  0 
 24 28  2  0  0  0  0 
 24 29  1  0  0  0  0 
 22 30  1  0  0  0  0 
 22 31  1  0  0  0  0 
 31 32  1  0  0  0  0 
 23 33  1  0  0  0  0 
 23 34  2  0  0  0  0 
  1 35  1  0  0  0  0 
  1 36  1  0  0  0  0 
  2 37  1  0  0  0  0 
  2 38  1  0  0  0  0 
  3 39  1  0  0  0  0 
  3 40  1  0  0  0  0 
  5 41  1  0  0  0  0 
  5 42  1  0  0  0  0 
  6 43  1  0  0  0  0 
  6 44  1  0  0  0  0 
  9 45  1  0  0  0  0 
 10 46  1  0  0  0  0 
 12 47  1  0  0  0  0 
 13 48  1  0  0  0  0 
 14 49  1  0  0  0  0 
 15 50  1  0  0  0  0 
 17 51  1  0  0  0  0 
 18 52  1  0  0  0  0 
 25 53  1  0  0  0  0 
 25 54  1  0  0  0  0 
 25 55  1  0  0  0  0 
 26 56  1  0  0  0  0 
 26 57  1  0  0  0  0 
 27 58  1  0  0  0  0 
 27 59  1  0  0  0  0 
 27 60  1  0  0  0  0 
 29 61  1  0  0  0  0 
 30 62  1  0  0  0  0 
 30 63  1  0  0  0  0 
 30 64  1  0  0  0  0 
 31 65  1  0  0  0  0 
 31 66  1  0  0  0  0 
 32 67  1  0  0  0  0 
 32 68  1  0  0  0  0 
 32 69  1  0  0  0  0 
 33 70  1  0  0  0  0 
M  END
> <cdk:Title>
clinofibrate

> <Conformer>
1

> <SuperDrugID>
SD000599

$$$$
