diatrizoate
  CDK     0628171802

 29 29  0  0  0  0  0  0  0  0999 V2000
   -0.3423    1.5105   -0.2874 C   0  0  0  0  0  0  0  0  0  0  0  0
   -0.1350    0.7331    0.9420 C   0  0  0  0  0  0  0  0  0  0  0  0
    0.0504    1.3319    2.0290 O   0  0  0  0  0  0  0  0  0  0  0  0
   -0.1295   -0.6243    0.8570 N   0  0  0  0  0  0  0  0  0  0  0  0
    0.1185   -1.4729    1.8888 C   0  0  0  0  0  0  0  0  0  0  0  0
    1.2863   -2.2622    1.8244 C   0  0  0  0  0  0  0  0  0  0  0  0
    2.5436   -2.1065    0.1960 I   0  0  0  0  0  0  0  0  0  0  0  0
    1.5990   -3.1578    2.8683 C   0  0  0  0  0  0  0  0  0  0  0  0
    2.7219   -3.9126    2.7296 N   0  0  0  0  0  0  0  0  0  0  0  0
    2.7655   -5.2737    2.7000 C   0  0  0  0  0  0  0  0  0  0  0  0
    4.0535   -5.9578    2.5141 C   0  0  0  0  0  0  0  0  0  0  0  0
    1.7345   -5.9792    2.8078 O   0  0  0  0  0  0  0  0  0  0  0  0
    0.7692   -3.2224    4.0140 C   0  0  0  0  0  0  0  0  0  0  0  0
    1.3417   -4.3764    5.6303 I   0  0  0  0  0  0  0  0  0  0  0  0
   -0.4217   -2.4537    4.0689 C   0  0  0  0  0  0  0  0  0  0  0  0
   -1.2710   -2.5489    5.1859 C   0  0  0  0  0  0  0  0  0  0  0  0
   -1.5030   -1.4712    5.9701 O   0  0  0  0  0  0  0  0  0  0  0  0
   -1.8182   -3.6361    5.4786 O   0  0  0  0  0  0  0  0  0  0  0  0
   -0.7577   -1.5973    2.9917 C   0  0  0  0  0  0  0  0  0  0  0  0
   -2.5621   -0.5922    2.9656 I   0  0  0  0  0  0  0  0  0  0  0  0
   -0.2883    2.5836   -0.0902 H   0  0  0  0  0  0  0  0  0  0  0  0
    0.4277    1.2503   -1.0149 H   0  0  0  0  0  0  0  0  0  0  0  0
   -1.3207    1.2792   -0.7114 H   0  0  0  0  0  0  0  0  0  0  0  0
   -0.2454   -1.0149   -0.0233 H   0  0  0  0  0  0  0  0  0  0  0  0
    3.5542   -3.4382    2.5724 H   0  0  0  0  0  0  0  0  0  0  0  0
    4.2581   -6.5938    3.3769 H   0  0  0  0  0  0  0  0  0  0  0  0
    4.8680   -5.2391    2.4043 H   0  0  0  0  0  0  0  0  0  0  0  0
    4.0136   -6.5775    1.6172 H   0  0  0  0  0  0  0  0  0  0  0  0
   -2.0778   -1.5513    6.7609 H   0  0  0  0  0  0  0  0  0  0  0  0
  1  2  1  0  0  0  0 
  2  3  2  0  0  0  0 
  2  4  1  0  0  0  0 
  4  5  1  0  0  0  0 
  5  6  2  0  0  0  0 
  6  7  1  0  0  0  0 
  6  8  1  0  0  0  0 
  8  9  1  0  0  0  0 
  9 10  1  0  0  0  0 
 10 11  1  0  0  0  0 
 10 12  2  0  0  0  0 
  8 13  2  0  0  0  0 
 13 14  1  0  0  0  0 
 13 15  1  0  0  0  0 
 15 16  1  0  0  0  0 
 16 17  1  0  0  0  0 
 16 18  2  0  0  0  0 
 15 19  2  0  0  0  0 
  5 19  1  0  0  0  0 
 19 20  1  0  0  0  0 
  1 21  1  0  0  0  0 
  1 22  1  0  0  0  0 
  1 23  1  0  0  0  0 
  4 24  1  0  0  0  0 
  9 25  1  0  0  0  0 
 11 26  1  0  0  0  0 
 11 27  1  0  0  0  0 
 11 28  1  0  0  0  0 
 17 29  1  0  0  0  0 
M  END
> <cdk:Title>
diatrizoate

> <Conformer>
1

> <SuperDrugID>
SD000754

$$$$
