pethidine
  CDK     0628171801

 39 40  0  0  0  0  0  0  0  0999 V2000
    0.1577    1.7335    1.4924 C   0  0  0  0  0  0  0  0  0  0  0  0
   -1.0343    1.0686    1.6127 O   0  0  0  0  0  0  0  0  0  0  0  0
    1.1214    1.1549    0.9347 O   0  0  0  0  0  0  0  0  0  0  0  0
    0.3391    3.1207    2.0502 C   0  0  1  0  0  0  0  0  0  0  0  0
   -1.4252   -0.2032    1.0695 C   0  0  1  0  0  0  0  0  0  0  0  0
    0.7189    4.0641    0.8423 C   0  0  2  0  0  0  0  0  0  0  0  0
   -0.9867    3.7156    2.6637 C   0  0  1  0  0  0  0  0  0  0  0  0
    1.3917    3.0363    3.1516 C   0  0  0  0  0  0  0  0  0  0  0  0
   -1.5557   -0.1659   -0.4693 C   0  0  0  0  0  0  0  0  0  0  0  0
   -0.4286    4.2526   -0.1880 C   0  0  1  0  0  0  0  0  0  0  0  0
   -2.1136    3.9941    1.6233 C   0  0  1  0  0  0  0  0  0  0  0  0
    1.2356    2.1005    4.2139 C   0  0  0  0  0  0  0  0  0  0  0  0
    2.5626    3.8434    3.1939 C   0  0  0  0  0  0  0  0  0  0  0  0
   -1.6627    4.7980    0.4481 N   0  0  1  0  0  0  0  0  0  0  0  0
    2.1988    1.9565    5.2310 C   0  0  0  0  0  0  0  0  0  0  0  0
    3.5253    3.7106    4.2119 C   0  0  0  0  0  0  0  0  0  0  0  0
   -1.6765    6.2770    0.6407 C   0  0  0  0  0  0  0  0  0  0  0  0
    3.3459    2.7629    5.2304 C   0  0  0  0  0  0  0  0  0  0  0  0
   -0.7209   -0.9813    1.3747 H   0  0  0  0  0  0  0  0  0  0  0  0
   -2.4033   -0.4507    1.4886 H   0  0  0  0  0  0  0  0  0  0  0  0
    1.6056    3.6923    0.3197 H   0  0  0  0  0  0  0  0  0  0  0  0
    0.9631    5.0602    1.2157 H   0  0  0  0  0  0  0  0  0  0  0  0
   -1.3896    3.0459    3.4292 H   0  0  0  0  0  0  0  0  0  0  0  0
   -0.7553    4.6615    3.1614 H   0  0  0  0  0  0  0  0  0  0  0  0
   -2.0289   -1.0831   -0.8259 H   0  0  0  0  0  0  0  0  0  0  0  0
   -2.1686    0.6852   -0.7761 H   0  0  0  0  0  0  0  0  0  0  0  0
   -0.5717   -0.0780   -0.9332 H   0  0  0  0  0  0  0  0  0  0  0  0
   -0.0903    4.9078   -0.9960 H   0  0  0  0  0  0  0  0  0  0  0  0
   -0.6677    3.2928   -0.6498 H   0  0  0  0  0  0  0  0  0  0  0  0
   -2.5019    3.0469    1.2491 H   0  0  0  0  0  0  0  0  0  0  0  0
   -2.9529    4.4825    2.1256 H   0  0  0  0  0  0  0  0  0  0  0  0
    0.4113    1.4991    4.2503 H   0  0  0  0  0  0  0  0  0  0  0  0
    2.7480    4.5486    2.4821 H   0  0  0  0  0  0  0  0  0  0  0  0
    2.0698    1.2587    5.9657 H   0  0  0  0  0  0  0  0  0  0  0  0
    4.3591    4.3019    4.2075 H   0  0  0  0  0  0  0  0  0  0  0  0
   -1.4930    6.7828   -0.3089 H   0  0  0  0  0  0  0  0  0  0  0  0
   -2.6573    6.5992    0.9947 H   0  0  0  0  0  0  0  0  0  0  0  0
   -0.9227    6.5995    1.3607 H   0  0  0  0  0  0  0  0  0  0  0  0
    4.0494    2.6601    5.9647 H   0  0  0  0  0  0  0  0  0  0  0  0
  1  2  1  0  0  0  0 
  1  3  2  0  0  0  0 
  1  4  1  0  0  0  0 
  2  5  1  0  0  0  0 
  4  6  1  0  0  0  0 
  4  7  1  0  0  0  0 
  4  8  1  0  0  0  0 
  5  9  1  0  0  0  0 
  6 10  1  0  0  0  0 
  7 11  1  0  0  0  0 
  8 12  2  0  0  0  0 
  8 13  1  0  0  0  0 
 10 14  1  0  0  0  0 
 11 14  1  0  0  0  0 
 12 15  1  0  0  0  0 
 13 16  2  0  0  0  0 
 14 17  1  0  0  0  0 
 15 18  2  0  0  0  0 
 16 18  1  0  0  0  0 
  5 19  1  0  0  0  0 
  5 20  1  0  0  0  0 
  6 21  1  0  0  0  0 
  6 22  1  0  0  0  0 
  7 23  1  0  0  0  0 
  7 24  1  0  0  0  0 
  9 25  1  0  0  0  0 
  9 26  1  0  0  0  0 
  9 27  1  0  0  0  0 
 10 28  1  0  0  0  0 
 10 29  1  0  0  0  0 
 11 30  1  0  0  0  0 
 11 31  1  0  0  0  0 
 12 32  1  0  0  0  0 
 13 33  1  0  0  0  0 
 15 34  1  0  0  0  0 
 16 35  1  0  0  0  0 
 17 36  1  0  0  0  0 
 17 37  1  0  0  0  0 
 17 38  1  0  0  0  0 
 18 39  1  0  0  0  0 
M  END
> <cdk:Title>
pethidine

> <Conformer>
1

> <SuperDrugID>
SD001494

$$$$
