etohexadiol
  CDK     0628171802

 28 27  0  0  0  0  0  0  0  0999 V2000
    0.1970    0.6755    0.1415 C   0  0  2  0  0  0  0  0  0  0  0  0
    1.1402   -0.5496   -0.0568 C   0  0  2  0  0  0  0  0  0  0  0  0
    0.9133    2.0484    0.2574 C   0  0  2  0  0  0  0  0  0  0  0  0
    2.0790   -0.5259   -1.3195 C   0  0  1  0  0  0  0  0  0  0  0  0
    0.3181   -1.7175   -0.0734 O   0  0  0  0  0  0  0  0  0  0  0  0
    3.0728   -1.7368   -1.3801 C   0  0  2  0  0  0  0  0  0  0  0  0
    1.2726   -0.4393   -2.6527 C   0  0  2  0  0  0  0  0  0  0  0  0
    4.0733   -1.8308   -0.2055 C   0  0  0  0  0  0  0  0  0  0  0  0
    2.1220   -0.3051   -3.7890 O   0  0  0  0  0  0  0  0  0  0  0  0
   -0.0752    3.2222    0.4399 C   0  0  0  0  0  0  0  0  0  0  0  0
   -0.3721    0.5178    1.0622 H   0  0  0  0  0  0  0  0  0  0  0  0
   -0.5320    0.7163   -0.6699 H   0  0  0  0  0  0  0  0  0  0  0  0
    1.7568   -0.6093    0.8411 H   0  0  0  0  0  0  0  0  0  0  0  0
    1.4929    2.2477   -0.6459 H   0  0  0  0  0  0  0  0  0  0  0  0
    1.6004    2.0265    1.1073 H   0  0  0  0  0  0  0  0  0  0  0  0
    2.7004    0.3719   -1.2620 H   0  0  0  0  0  0  0  0  0  0  0  0
    0.9403   -2.4730   -0.0489 H   0  0  0  0  0  0  0  0  0  0  0  0
    3.6734   -1.6555   -2.2902 H   0  0  0  0  0  0  0  0  0  0  0  0
    2.5161   -2.6754   -1.4436 H   0  0  0  0  0  0  0  0  0  0  0  0
    0.6239    0.4354   -2.6560 H   0  0  0  0  0  0  0  0  0  0  0  0
    0.6536   -1.3299   -2.7840 H   0  0  0  0  0  0  0  0  0  0  0  0
    4.8397   -2.5753   -0.4356 H   0  0  0  0  0  0  0  0  0  0  0  0
    3.5661   -2.1344    0.7119 H   0  0  0  0  0  0  0  0  0  0  0  0
    4.5639   -0.8693   -0.0429 H   0  0  0  0  0  0  0  0  0  0  0  0
    1.5119   -0.2277   -4.5526 H   0  0  0  0  0  0  0  0  0  0  0  0
   -0.7393    3.2939   -0.4257 H   0  0  0  0  0  0  0  0  0  0  0  0
   -0.6770    3.0785    1.3406 H   0  0  0  0  0  0  0  0  0  0  0  0
    0.4775    4.1596    0.5308 H   0  0  0  0  0  0  0  0  0  0  0  0
  1  2  1  0  0  0  0 
  1  3  1  0  0  0  0 
  2  4  1  0  0  0  0 
  2  5  1  0  0  0  0 
  4  6  1  0  0  0  0 
  4  7  1  0  0  0  0 
  6  8  1  0  0  0  0 
  7  9  1  0  0  0  0 
  3 10  1  0  0  0  0 
  1 11  1  0  0  0  0 
  1 12  1  0  0  0  0 
  2 13  1  0  0  0  0 
  3 14  1  0  0  0  0 
  3 15  1  0  0  0  0 
  4 16  1  0  0  0  0 
  5 17  1  0  0  0  0 
  6 18  1  0  0  0  0 
  6 19  1  0  0  0  0 
  7 20  1  0  0  0  0 
  7 21  1  0  0  0  0 
  8 22  1  0  0  0  0 
  8 23  1  0  0  0  0 
  8 24  1  0  0  0  0 
  9 25  1  0  0  0  0 
 10 26  1  0  0  0  0 
 10 27  1  0  0  0  0 
 10 28  1  0  0  0  0 
M  END
> <cdk:Title>
etohexadiol

> <Conformer>
1

> <SuperDrugID>
SD003756

$$$$
