tetrachloroethylene
  CDK     0628171801

  6  5  0  0  0  0  0  0  0  0999 V2000
   -0.9135    1.3982    0.0000 Cl  0  0  0  0  0  0  0  0  0  0  0  0
   -0.0078    0.0000    0.0000 C   0  0  0  0  0  0  0  0  0  0  0  0
   -0.9135   -1.3982    0.0000 Cl  0  0  0  0  0  0  0  0  0  0  0  0
    1.3378    0.0000    0.0000 C   0  0  0  0  0  0  0  0  0  0  0  0
    2.2435   -1.3982    0.0000 Cl  0  0  0  0  0  0  0  0  0  0  0  0
    2.2435    1.3982    0.0000 Cl  0  0  0  0  0  0  0  0  0  0  0  0
  1  2  1  0  0  0  0 
  2  3  1  0  0  0  0 
  2  4  2  0  0  0  0 
  4  5  1  0  0  0  0 
  4  6  1  0  0  0  0 
M  END
> <cdk:Title>
tetrachloroethylene

> <Conformer>
1

> <SuperDrugID>
SD003080

$$$$
