proscillaridin
  CDK     0628171801

 80 85  0  0  0  0  0  0  0  0999 V2000
   -6.6420    0.9796    3.6463 C   0  0  0  0  0  0  0  0  0  0  0  0
   -5.3916    1.2588    4.5233 C   0  0  2  0  0  0  0  0  0  0  0  0
   -4.1756    1.3122    3.7449 O   0  0  0  0  0  0  0  0  0  0  0  0
   -3.6730    0.0490    3.2585 C   0  0  1  0  0  0  0  0  0  0  0  0
   -2.4900    0.2769    2.4576 O   0  0  0  0  0  0  0  0  0  0  0  0
   -2.6988    0.7125    1.0887 C   0  0  1  0  0  0  0  0  0  0  0  0
   -3.2385    2.1614    0.9459 C   0  0  1  0  0  0  0  0  0  0  0  0
   -2.1232    3.1385    1.3733 C   0  0  2  0  0  0  0  0  0  0  0  0
   -0.8205    3.0023    0.4746 C   0  0  2  0  0  0  0  0  0  0  0  0
    0.3848    3.4554    1.3801 C   0  0  0  0  0  0  0  0  0  0  0  0
   -0.9576    3.8936   -0.8430 C   0  0  1  0  0  0  0  0  0  0  0  0
   -0.9276    5.4671   -0.5549 C   0  0  1  0  0  0  0  0  0  0  0  0
   -1.3037    6.2744   -1.9040 C   0  0  1  0  0  0  0  0  0  0  0  0
   -0.2493    5.9993   -3.0538 C   0  0  2  0  0  0  0  0  0  0  0  0
    1.0758    6.7705   -2.6906 C   0  0  0  0  0  0  0  0  0  0  0  0
   -0.8759    6.4567   -4.4342 C   0  0  2  0  0  0  0  0  0  0  0  0
   -1.7645    5.2552   -4.8749 C   0  0  1  0  0  0  0  0  0  0  0  0
   -1.1976    3.9976   -4.1749 C   0  0  2  0  0  0  0  0  0  0  0  0
   -0.0213    4.4506   -3.2556 C   0  0  1  0  0  0  0  0  0  0  0  0
    1.1726    4.2353   -4.0239 O   0  0  0  0  0  0  0  0  0  0  0  0
    0.1650    3.6252   -1.9172 C   0  0  2  0  0  0  0  0  0  0  0  0
    0.3564    2.0938   -2.1641 C   0  0  1  0  0  0  0  0  0  0  0  0
    0.5327    1.2994   -0.8470 C   0  0  1  0  0  0  0  0  0  0  0  0
   -0.5999    1.5808    0.0492 C   0  0  0  0  0  0  0  0  0  0  0  0
   -1.4360    0.5651    0.3771 C   0  0  0  0  0  0  0  0  0  0  0  0
    0.0847    6.9517   -5.4845 C   0  0  0  0  0  0  0  0  0  0  0  0
    0.3904    8.3322   -5.5673 C   0  0  0  0  0  0  0  0  0  0  0  0
    1.2728    8.7985   -6.4994 O   0  0  0  0  0  0  0  0  0  0  0  0
    1.8967    7.9866   -7.3978 C   0  0  0  0  0  0  0  0  0  0  0  0
    2.6927    8.4757   -8.2294 O   0  0  0  0  0  0  0  0  0  0  0  0
    1.6367    6.6079   -7.3709 C   0  0  0  0  0  0  0  0  0  0  0  0
    0.7396    6.1037   -6.4127 C   0  0  0  0  0  0  0  0  0  0  0  0
   -3.3133   -0.8383    4.4765 C   0  0  2  0  0  0  0  0  0  0  0  0
   -2.7940   -2.0965    4.0455 O   0  0  0  0  0  0  0  0  0  0  0  0
   -4.5541   -1.0384    5.3937 C   0  0  2  0  0  0  0  0  0  0  0  0
   -5.4982   -1.9042    4.7644 O   0  0  0  0  0  0  0  0  0  0  0  0
   -5.2360    0.3135    5.7568 C   0  0  1  0  0  0  0  0  0  0  0  0
   -4.4545    0.9695    6.7553 O   0  0  0  0  0  0  0  0  0  0  0  0
   -6.6779   -0.0549    3.3060 H   0  0  0  0  0  0  0  0  0  0  0  0
   -7.5509    1.1867    4.2139 H   0  0  0  0  0  0  0  0  0  0  0  0
   -6.6318    1.6323    2.7705 H   0  0  0  0  0  0  0  0  0  0  0  0
   -5.5302    2.2765    4.9007 H   0  0  0  0  0  0  0  0  0  0  0  0
   -4.4230   -0.4753    2.6586 H   0  0  0  0  0  0  0  0  0  0  0  0
   -3.4163    0.0451    0.6000 H   0  0  0  0  0  0  0  0  0  0  0  0
   -3.5271    2.3496   -0.0897 H   0  0  0  0  0  0  0  0  0  0  0  0
   -4.1353    2.3186    1.5426 H   0  0  0  0  0  0  0  0  0  0  0  0
   -1.8965    2.9226    2.4220 H   0  0  0  0  0  0  0  0  0  0  0  0
   -2.5355    4.1440    1.3684 H   0  0  0  0  0  0  0  0  0  0  0  0
    1.3164    3.5445    0.8219 H   0  0  0  0  0  0  0  0  0  0  0  0
    0.5499    2.7374    2.1873 H   0  0  0  0  0  0  0  0  0  0  0  0
    0.1898    4.4266    1.8392 H   0  0  0  0  0  0  0  0  0  0  0  0
   -1.9040    3.5205   -1.3258 H   0  0  0  0  0  0  0  0  0  0  0  0
   -1.6813    5.7499    0.1741 H   0  0  0  0  0  0  0  0  0  0  0  0
    0.0382    5.7923   -0.1684 H   0  0  0  0  0  0  0  0  0  0  0  0
   -2.3304    6.0250   -2.2977 H   0  0  0  0  0  0  0  0  0  0  0  0
   -1.3673    7.3919   -1.7776 H   0  0  0  0  0  0  0  0  0  0  0  0
    1.5447    6.3666   -1.7948 H   0  0  0  0  0  0  0  0  0  0  0  0
    1.8169    6.7040   -3.4864 H   0  0  0  0  0  0  0  0  0  0  0  0
    0.8741    7.8299   -2.5170 H   0  0  0  0  0  0  0  0  0  0  0  0
   -1.5701    7.2894   -4.2616 H   0  0  0  0  0  0  0  0  0  0  0  0
   -2.7977    5.4123   -4.5463 H   0  0  0  0  0  0  0  0  0  0  0  0
   -1.8027    5.1319   -5.9610 H   0  0  0  0  0  0  0  0  0  0  0  0
   -0.8636    3.2688   -4.9208 H   0  0  0  0  0  0  0  0  0  0  0  0
   -1.9972    3.5218   -3.6058 H   0  0  0  0  0  0  0  0  0  0  0  0
    1.9110    4.5496   -3.4647 H   0  0  0  0  0  0  0  0  0  0  0  0
    1.1114    3.9641   -1.4849 H   0  0  0  0  0  0  0  0  0  0  0  0
   -0.5035    1.6911   -2.7049 H   0  0  0  0  0  0  0  0  0  0  0  0
    1.2399    1.9253   -2.7845 H   0  0  0  0  0  0  0  0  0  0  0  0
    0.6212    0.2407   -1.1097 H   0  0  0  0  0  0  0  0  0  0  0  0
    1.4781    1.5725   -0.3782 H   0  0  0  0  0  0  0  0  0  0  0  0
   -1.2093   -0.3623    0.0962 H   0  0  0  0  0  0  0  0  0  0  0  0
   -0.0363    9.0060   -4.9276 H   0  0  0  0  0  0  0  0  0  0  0  0
    2.0910    5.9763   -8.0349 H   0  0  0  0  0  0  0  0  0  0  0  0
    0.5712    5.0970   -6.4044 H   0  0  0  0  0  0  0  0  0  0  0  0
   -2.5274   -0.3404    5.0521 H   0  0  0  0  0  0  0  0  0  0  0  0
   -3.5192   -2.5147    3.5371 H   0  0  0  0  0  0  0  0  0  0  0  0
   -4.2373   -1.5344    6.3144 H   0  0  0  0  0  0  0  0  0  0  0  0
   -6.2376   -1.9792    5.4045 H   0  0  0  0  0  0  0  0  0  0  0  0
   -6.2168    0.1205    6.2044 H   0  0  0  0  0  0  0  0  0  0  0  0
   -4.9862    1.7475    7.0252 H   0  0  0  0  0  0  0  0  0  0  0  0
  2  1  1  0  0  0  0 
  2  3  1  0  0  0  0 
  3  4  1  0  0  0  0 
  4  5  1  0  0  0  0 
  6  5  1  0  0  0  0 
  6  7  1  0  0  0  0 
  7  8  1  0  0  0  0 
  8  9  1  0  0  0  0 
  9 10  1  0  0  0  0 
  9 11  1  0  0  0  0 
 11 12  1  0  0  0  0 
 12 13  1  0  0  0  0 
 13 14  1  0  0  0  0 
 14 15  1  0  0  0  0 
 14 16  1  0  0  0  0 
 16 17  1  0  0  0  0 
 17 18  1  0  0  0  0 
 18 19  1  0  0  0  0 
 14 19  1  0  0  0  0 
 19 20  1  0  0  0  0 
 19 21  1  0  0  0  0 
 11 21  1  0  0  0  0 
 21 22  1  0  0  0  0 
 22 23  1  0  0  0  0 
 23 24  1  0  0  0  0 
  9 24  1  0  0  0  0 
 24 25  2  0  0  0  0 
  6 25  1  0  0  0  0 
 16 26  1  0  0  0  0 
 26 27  2  0  0  0  0 
 27 28  1  0  0  0  0 
 28 29  1  0  0  0  0 
 29 30  2  0  0  0  0 
 29 31  1  0  0  0  0 
 31 32  2  0  0  0  0 
 26 32  1  0  0  0  0 
  4 33  1  0  0  0  0 
 33 34  1  0  0  0  0 
 33 35  1  0  0  0  0 
 35 36  1  0  0  0  0 
 35 37  1  0  0  0  0 
  2 37  1  0  0  0  0 
 37 38  1  0  0  0  0 
  1 39  1  0  0  0  0 
  1 40  1  0  0  0  0 
  1 41  1  0  0  0  0 
  2 42  1  0  0  0  0 
  4 43  1  0  0  0  0 
  6 44  1  0  0  0  0 
  7 45  1  0  0  0  0 
  7 46  1  0  0  0  0 
  8 47  1  0  0  0  0 
  8 48  1  0  0  0  0 
 10 49  1  0  0  0  0 
 10 50  1  0  0  0  0 
 10 51  1  0  0  0  0 
 11 52  1  0  0  0  0 
 12 53  1  0  0  0  0 
 12 54  1  0  0  0  0 
 13 55  1  0  0  0  0 
 13 56  1  0  0  0  0 
 15 57  1  0  0  0  0 
 15 58  1  0  0  0  0 
 15 59  1  0  0  0  0 
 16 60  1  0  0  0  0 
 17 61  1  0  0  0  0 
 17 62  1  0  0  0  0 
 18 63  1  0  0  0  0 
 18 64  1  0  0  0  0 
 20 65  1  0  0  0  0 
 21 66  1  0  0  0  0 
 22 67  1  0  0  0  0 
 22 68  1  0  0  0  0 
 23 69  1  0  0  0  0 
 23 70  1  0  0  0  0 
 25 71  1  0  0  0  0 
 27 72  1  0  0  0  0 
 31 73  1  0  0  0  0 
 32 74  1  0  0  0  0 
 33 75  1  0  0  0  0 
 34 76  1  0  0  0  0 
 35 77  1  0  0  0  0 
 36 78  1  0  0  0  0 
 37 79  1  0  0  0  0 
 38 80  1  0  0  0  0 
M  END
> <cdk:Title>
proscillaridin

> <Conformer>
1

> <SuperDrugID>
SD002077

$$$$
