sorbinicate
  CDK     0628171801

 92 97  0  0  0  0  0  0  0  0999 V2000
   -6.1651    2.4643   -0.2008 C   0  0  1  0  0  0  0  0  0  0  0  0
   -5.9411    0.9578    0.1376 C   0  0  1  0  0  0  0  0  0  0  0  0
   -6.9558    2.7961   -1.5136 C   0  0  1  0  0  0  0  0  0  0  0  0
   -6.7994    3.1191    0.9193 O   0  0  0  0  0  0  0  0  0  0  0  0
   -5.0894    0.6904    1.4233 C   0  0  2  0  0  0  0  0  0  0  0  0
   -7.2150    0.3350    0.3788 O   0  0  0  0  0  0  0  0  0  0  0  0
   -6.2441    2.5932   -2.7478 O   0  0  0  0  0  0  0  0  0  0  0  0
   -8.3132    2.0815   -1.7352 C   0  0  2  0  0  0  0  0  0  0  0  0
   -6.3485    4.2046    1.6323 C   0  0  0  0  0  0  0  0  0  0  0  0
   -5.8041    1.0986    2.6056 O   0  0  0  0  0  0  0  0  0  0  0  0
   -3.7265    1.4195    1.5258 C   0  0  2  0  0  0  0  0  0  0  0  0
   -7.6058   -0.9698    0.2311 C   0  0  0  0  0  0  0  0  0  0  0  0
   -5.0875    3.1750   -3.1673 C   0  0  0  0  0  0  0  0  0  0  0  0
   -9.2748    2.4196   -0.7307 O   0  0  0  0  0  0  0  0  0  0  0  0
   -5.3155    4.8018    1.2438 O   0  0  0  0  0  0  0  0  0  0  0  0
   -7.0395    4.6650    2.7872 C   0  0  0  0  0  0  0  0  0  0  0  0
   -6.5015    0.3472    3.5092 C   0  0  0  0  0  0  0  0  0  0  0  0
   -2.8150    1.1010    0.4688 O   0  0  0  0  0  0  0  0  0  0  0  0
   -6.8249   -1.8000   -0.2920 O   0  0  0  0  0  0  0  0  0  0  0  0
   -8.9096   -1.3421    0.6607 C   0  0  0  0  0  0  0  0  0  0  0  0
   -4.0188    2.9424   -2.5587 O   0  0  0  0  0  0  0  0  0  0  0  0
   -5.0954    3.9886   -4.3184 C   0  0  0  0  0  0  0  0  0  0  0  0
  -10.5669    1.9712   -0.6920 C   0  0  0  0  0  0  0  0  0  0  0  0
   -8.2448    4.0570    3.2201 C   0  0  0  0  0  0  0  0  0  0  0  0
   -6.5444    5.7406    3.5704 C   0  0  0  0  0  0  0  0  0  0  0  0
   -6.7104   -0.8686    3.2833 O   0  0  0  0  0  0  0  0  0  0  0  0
   -7.0030    0.9597    4.6854 C   0  0  0  0  0  0  0  0  0  0  0  0
   -1.7684    1.9232    0.1638 C   0  0  0  0  0  0  0  0  0  0  0  0
   -9.6813   -0.4658    1.4648 C   0  0  0  0  0  0  0  0  0  0  0  0
   -9.4951   -2.5897    0.3277 C   0  0  0  0  0  0  0  0  0  0  0  0
   -6.3244    4.4532   -5.0052 C   0  0  0  0  0  0  0  0  0  0  0  0
   -3.8823    4.5277   -4.9621 C   0  0  0  0  0  0  0  0  0  0  0  0
  -10.9291    1.0702   -1.4882 O   0  0  0  0  0  0  0  0  0  0  0  0
  -11.4833    2.5205    0.2399 C   0  0  0  0  0  0  0  0  0  0  0  0
   -8.9173    4.5212    4.3660 C   0  0  0  0  0  0  0  0  0  0  0  0
   -7.2106    6.1628    4.6746 N   0  0  0  0  0  0  0  0  0  0  0  0
   -8.0720    0.3949    5.4231 C   0  0  0  0  0  0  0  0  0  0  0  0
   -6.4330    2.1569    5.1850 C   0  0  0  0  0  0  0  0  0  0  0  0
   -2.0378    3.0111   -0.3985 O   0  0  0  0  0  0  0  0  0  0  0  0
   -0.4337    1.5758    0.4991 C   0  0  0  0  0  0  0  0  0  0  0  0
  -10.9834   -0.8072    1.8678 C   0  0  0  0  0  0  0  0  0  0  0  0
  -10.7549   -2.8958    0.7390 N   0  0  0  0  0  0  0  0  0  0  0  0
   -6.3281    5.3415   -6.1491 C   0  0  0  0  0  0  0  0  0  0  0  0
   -3.9096    5.3797   -6.0637 N   0  0  0  0  0  0  0  0  0  0  0  0
  -11.1549    3.6624    1.0108 C   0  0  0  0  0  0  0  0  0  0  0  0
  -12.7803    1.9778    0.4074 C   0  0  0  0  0  0  0  0  0  0  0  0
   -8.3676    5.5929    5.0899 C   0  0  0  0  0  0  0  0  0  0  0  0
   -8.5398    1.0102    6.5983 C   0  0  0  0  0  0  0  0  0  0  0  0
   -6.8958    2.7201    6.3302 N   0  0  0  0  0  0  0  0  0  0  0  0
   -0.1468    0.4115    1.2540 C   0  0  0  0  0  0  0  0  0  0  0  0
    0.6622    2.3981    0.1373 C   0  0  0  0  0  0  0  0  0  0  0  0
  -11.5112   -2.0491    1.4822 C   0  0  0  0  0  0  0  0  0  0  0  0
   -5.0792    5.7781   -6.6321 C   0  0  0  0  0  0  0  0  0  0  0  0
  -12.0890    4.2200    1.9013 C   0  0  0  0  0  0  0  0  0  0  0  0
  -13.6554    2.5277    1.2855 N   0  0  0  0  0  0  0  0  0  0  0  0
   -7.9177    2.1879    7.0448 C   0  0  0  0  0  0  0  0  0  0  0  0
    1.1753    0.0924    1.6135 C   0  0  0  0  0  0  0  0  0  0  0  0
    1.9284    2.0626    0.4955 N   0  0  0  0  0  0  0  0  0  0  0  0
  -13.3528    3.6207    2.0274 C   0  0  0  0  0  0  0  0  0  0  0  0
    2.2149    0.9471    1.2116 C   0  0  0  0  0  0  0  0  0  0  0  0
   -5.1761    2.8997   -0.3398 H   0  0  0  0  0  0  0  0  0  0  0  0
   -5.4517    0.4918   -0.7247 H   0  0  0  0  0  0  0  0  0  0  0  0
   -7.1797    3.8673   -1.4725 H   0  0  0  0  0  0  0  0  0  0  0  0
   -4.8903   -0.3833    1.4672 H   0  0  0  0  0  0  0  0  0  0  0  0
   -8.1816    1.0025   -1.8159 H   0  0  0  0  0  0  0  0  0  0  0  0
   -8.7272    2.4232   -2.6880 H   0  0  0  0  0  0  0  0  0  0  0  0
   -3.2462    1.1158    2.4587 H   0  0  0  0  0  0  0  0  0  0  0  0
   -3.8830    2.4985    1.5901 H   0  0  0  0  0  0  0  0  0  0  0  0
   -8.6433    3.2623    2.7126 H   0  0  0  0  0  0  0  0  0  0  0  0
   -5.6740    6.2212    3.3259 H   0  0  0  0  0  0  0  0  0  0  0  0
   -9.3065    0.4370    1.7663 H   0  0  0  0  0  0  0  0  0  0  0  0
   -8.9911   -3.2817   -0.2307 H   0  0  0  0  0  0  0  0  0  0  0  0
   -7.3208    4.1890   -4.7140 H   0  0  0  0  0  0  0  0  0  0  0  0
   -2.8790    4.3273   -4.6502 H   0  0  0  0  0  0  0  0  0  0  0  0
   -9.7873    4.0799    4.6745 H   0  0  0  0  0  0  0  0  0  0  0  0
   -8.5220   -0.4702    5.1113 H   0  0  0  0  0  0  0  0  0  0  0  0
   -5.6622    2.6219    4.7004 H   0  0  0  0  0  0  0  0  0  0  0  0
  -11.5347   -0.1622    2.4370 H   0  0  0  0  0  0  0  0  0  0  0  0
   -7.2003    5.6460   -6.5891 H   0  0  0  0  0  0  0  0  0  0  0  0
  -10.2404    4.1123    0.9179 H   0  0  0  0  0  0  0  0  0  0  0  0
  -13.0817    1.1603   -0.1238 H   0  0  0  0  0  0  0  0  0  0  0  0
   -8.8310    5.9441    5.9286 H   0  0  0  0  0  0  0  0  0  0  0  0
   -9.3225    0.6065    7.1176 H   0  0  0  0  0  0  0  0  0  0  0  0
   -0.8971   -0.2132    1.5613 H   0  0  0  0  0  0  0  0  0  0  0  0
    0.5257    3.2607   -0.3943 H   0  0  0  0  0  0  0  0  0  0  0  0
  -12.4574   -2.3180    1.7592 H   0  0  0  0  0  0  0  0  0  0  0  0
   -5.0413    6.4126   -7.4327 H   0  0  0  0  0  0  0  0  0  0  0  0
  -11.8514    5.0466    2.4517 H   0  0  0  0  0  0  0  0  0  0  0  0
   -8.2316    2.6469    7.9013 H   0  0  0  0  0  0  0  0  0  0  0  0
    1.3766   -0.7466    2.1618 H   0  0  0  0  0  0  0  0  0  0  0  0
  -14.0444    3.9985    2.6763 H   0  0  0  0  0  0  0  0  0  0  0  0
    3.1838    0.7367    1.4569 H   0  0  0  0  0  0  0  0  0  0  0  0
  2  1  1  0  0  0  0 
  1  3  1  0  0  0  0 
  1  4  1  0  0  0  0 
  1 61  1  0  0  0  0 
  5  2  1  0  0  0  0 
  2  6  1  0  0  0  0 
  3  7  1  0  0  0  0 
  3  8  1  0  0  0  0 
  4  9  1  0  0  0  0 
  5 10  1  0  0  0  0 
  5 11  1  0  0  0  0 
  6 12  1  0  0  0  0 
  7 13  1  0  0  0  0 
  8 14  1  0  0  0  0 
  9 15  2  0  0  0  0 
  9 16  1  0  0  0  0 
 10 17  1  0  0  0  0 
 11 18  1  0  0  0  0 
 12 19  2  0  0  0  0 
 12 20  1  0  0  0  0 
 13 21  2  0  0  0  0 
 13 22  1  0  0  0  0 
 14 23  1  0  0  0  0 
 16 24  2  0  0  0  0 
 16 25  1  0  0  0  0 
 17 26  2  0  0  0  0 
 17 27  1  0  0  0  0 
 18 28  1  0  0  0  0 
 20 29  2  0  0  0  0 
 20 30  1  0  0  0  0 
 22 31  2  0  0  0  0 
 22 32  1  0  0  0  0 
 23 33  2  0  0  0  0 
 23 34  1  0  0  0  0 
 24 35  1  0  0  0  0 
 25 36  2  0  0  0  0 
 27 37  2  0  0  0  0 
 27 38  1  0  0  0  0 
 28 39  2  0  0  0  0 
 28 40  1  0  0  0  0 
 29 41  1  0  0  0  0 
 30 42  2  0  0  0  0 
 31 43  1  0  0  0  0 
 32 44  2  0  0  0  0 
 34 45  2  0  0  0  0 
 34 46  1  0  0  0  0 
 35 47  2  0  0  0  0 
 36 47  1  0  0  0  0 
 37 48  1  0  0  0  0 
 38 49  2  0  0  0  0 
 40 50  2  0  0  0  0 
 40 51  1  0  0  0  0 
 41 52  2  0  0  0  0 
 42 52  1  0  0  0  0 
 43 53  2  0  0  0  0 
 44 53  1  0  0  0  0 
 45 54  1  0  0  0  0 
 46 55  2  0  0  0  0 
 48 56  2  0  0  0  0 
 49 56  1  0  0  0  0 
 50 57  1  0  0  0  0 
 51 58  2  0  0  0  0 
 54 59  2  0  0  0  0 
 55 59  1  0  0  0  0 
 57 60  2  0  0  0  0 
 58 60  1  0  0  0  0 
  2 62  1  0  0  0  0 
  3 63  1  0  0  0  0 
  5 64  1  0  0  0  0 
  8 65  1  0  0  0  0 
  8 66  1  0  0  0  0 
 11 67  1  0  0  0  0 
 11 68  1  0  0  0  0 
 24 69  1  0  0  0  0 
 25 70  1  0  0  0  0 
 29 71  1  0  0  0  0 
 30 72  1  0  0  0  0 
 31 73  1  0  0  0  0 
 32 74  1  0  0  0  0 
 35 75  1  0  0  0  0 
 37 76  1  0  0  0  0 
 38 77  1  0  0  0  0 
 41 78  1  0  0  0  0 
 43 79  1  0  0  0  0 
 45 80  1  0  0  0  0 
 46 81  1  0  0  0  0 
 47 82  1  0  0  0  0 
 48 83  1  0  0  0  0 
 50 84  1  0  0  0  0 
 51 85  1  0  0  0  0 
 52 86  1  0  0  0  0 
 53 87  1  0  0  0  0 
 54 88  1  0  0  0  0 
 56 89  1  0  0  0  0 
 57 90  1  0  0  0  0 
 59 91  1  0  0  0  0 
 60 92  1  0  0  0  0 
M  END
> <cdk:Title>
sorbinicate

> <Conformer>
1

> <SuperDrugID>
SD002209

$$$$
