bolandiol dipropionate
  CDK     0628171801

 64 67  0  0  0  0  0  0  0  0999 V2000
   -1.3374   -9.0382    2.0985 C   0  0  0  0  0  0  0  0  0  0  0  0
    0.2262   -8.8211    2.1680 C   0  0  1  0  0  0  0  0  0  0  0  0
    0.8797   -8.1934    0.8971 C   0  0  2  0  0  0  0  0  0  0  0  0
    0.5818   -7.8810    3.3643 C   0  0  2  0  0  0  0  0  0  0  0  0
    0.9555  -10.2013    2.1819 C   0  0  1  0  0  0  0  0  0  0  0  0
    0.2819   -6.7913    0.5599 C   0  0  1  0  0  0  0  0  0  0  0  0
    0.8422   -9.3311   -0.1497 C   0  0  1  0  0  0  0  0  0  0  0  0
    0.0922   -6.4155    3.1408 C   0  0  2  0  0  0  0  0  0  0  0  0
    0.3372  -11.1339    3.0810 O   0  0  0  0  0  0  0  0  0  0  0  0
    0.9704  -10.6322    0.6883 C   0  0  2  0  0  0  0  0  0  0  0  0
    0.5076   -5.7854    1.7620 C   0  0  2  0  0  0  0  0  0  0  0  0
    0.8647   -6.1770   -0.7476 C   0  0  1  0  0  0  0  0  0  0  0  0
   -0.1817   -4.4021    1.4196 C   0  0  2  0  0  0  0  0  0  0  0  0
    0.2242   -4.7940   -1.0363 C   0  0  2  0  0  0  0  0  0  0  0  0
    0.3576   -3.9058    0.1255 C   0  0  0  0  0  0  0  0  0  0  0  0
   -0.1584   -3.3164    2.5539 C   0  0  1  0  0  0  0  0  0  0  0  0
    0.9802   -2.7124   -0.0068 C   0  0  0  0  0  0  0  0  0  0  0  0
    1.0992   -2.4219    2.4750 C   0  0  2  0  0  0  0  0  0  0  0  0
    1.1790   -1.7577    1.0763 C   0  0  2  0  0  0  0  0  0  0  0  0
    0.1683   -0.7381    0.9871 O   0  0  0  0  0  0  0  0  0  0  0  0
   -0.7925   -6.9139    0.3883 H   0  0  0  0  0  0  0  0  0  0  0  0
    1.5842   -5.5998    1.8391 H   0  0  0  0  0  0  0  0  0  0  0  0
    1.9474   -8.0190    1.0882 H   0  0  0  0  0  0  0  0  0  0  0  0
   -1.2454   -4.6149    1.2610 H   0  0  0  0  0  0  0  0  0  0  0  0
    0.0551    0.2550    0.0548 C   0  0  0  0  0  0  0  0  0  0  0  0
   -1.1298    1.1289    0.0930 C   0  0  1  0  0  0  0  0  0  0  0  0
    0.9327    0.4344   -0.8233 O   0  0  0  0  0  0  0  0  0  0  0  0
   -0.8021    2.5693    0.5362 C   0  0  0  0  0  0  0  0  0  0  0  0
    0.7177  -12.4148    3.3610 C   0  0  0  0  0  0  0  0  0  0  0  0
    1.6692  -12.9528    2.7477 O   0  0  0  0  0  0  0  0  0  0  0  0
   -0.0002  -13.2063    4.3839 C   0  0  2  0  0  0  0  0  0  0  0  0
   -0.8467  -12.2920    5.3596 C   0  0  0  0  0  0  0  0  0  0  0  0
   -1.8890   -8.1043    2.0248 H   0  0  0  0  0  0  0  0  0  0  0  0
   -1.6926   -9.5415    2.9990 H   0  0  0  0  0  0  0  0  0  0  0  0
   -1.6274   -9.6478    1.2439 H   0  0  0  0  0  0  0  0  0  0  0  0
    1.6664   -7.8593    3.5084 H   0  0  0  0  0  0  0  0  0  0  0  0
    0.1507   -8.2722    4.2882 H   0  0  0  0  0  0  0  0  0  0  0  0
    1.9910  -10.0689    2.5199 H   0  0  0  0  0  0  0  0  0  0  0  0
   -0.0992   -9.3234   -0.7060 H   0  0  0  0  0  0  0  0  0  0  0  0
    1.6672   -9.2378   -0.8624 H   0  0  0  0  0  0  0  0  0  0  0  0
    0.5221   -5.8246    3.9522 H   0  0  0  0  0  0  0  0  0  0  0  0
   -0.9937   -6.3686    3.2521 H   0  0  0  0  0  0  0  0  0  0  0  0
    0.1299  -11.2977    0.4760 H   0  0  0  0  0  0  0  0  0  0  0  0
    1.8964  -11.1627    0.4526 H   0  0  0  0  0  0  0  0  0  0  0  0
    1.9484   -6.0635   -0.6508 H   0  0  0  0  0  0  0  0  0  0  0  0
    0.6714   -6.8375   -1.5970 H   0  0  0  0  0  0  0  0  0  0  0  0
   -0.8387   -4.9224   -1.2610 H   0  0  0  0  0  0  0  0  0  0  0  0
    0.6933   -4.3886   -1.9386 H   0  0  0  0  0  0  0  0  0  0  0  0
   -1.0367   -2.6714    2.4453 H   0  0  0  0  0  0  0  0  0  0  0  0
   -0.2308   -3.7511    3.5486 H   0  0  0  0  0  0  0  0  0  0  0  0
    1.3213   -2.4364   -0.9005 H   0  0  0  0  0  0  0  0  0  0  0  0
    1.9931   -3.0279    2.6493 H   0  0  0  0  0  0  0  0  0  0  0  0
    1.0571   -1.6514    3.2506 H   0  0  0  0  0  0  0  0  0  0  0  0
    2.1685   -1.2951    0.9858 H   0  0  0  0  0  0  0  0  0  0  0  0
   -1.5835    1.1518   -0.8997 H   0  0  0  0  0  0  0  0  0  0  0  0
   -1.8622    0.7101    0.7887 H   0  0  0  0  0  0  0  0  0  0  0  0
   -1.7169    3.1628    0.5615 H   0  0  0  0  0  0  0  0  0  0  0  0
   -0.3635    2.5659    1.5349 H   0  0  0  0  0  0  0  0  0  0  0  0
   -0.1051    3.0396   -0.1594 H   0  0  0  0  0  0  0  0  0  0  0  0
    0.8082  -13.6381    5.0533 H   0  0  0  0  0  0  0  0  0  0  0  0
   -0.6174  -13.9826    3.7722 H   0  0  0  0  0  0  0  0  0  0  0  0
   -1.2714  -12.9064    6.1543 H   0  0  0  0  0  0  0  0  0  0  0  0
   -0.2205  -11.5187    5.8120 H   0  0  0  0  0  0  0  0  0  0  0  0
   -1.6665  -11.8158    4.8200 H   0  0  0  0  0  0  0  0  0  0  0  0
  2  1  1  0  0  0  0 
  3  2  1  0  0  0  0 
  2  4  1  0  0  0  0 
  2  5  1  0  0  0  0 
  6  3  1  0  0  0  0 
  3  7  1  0  0  0  0 
  3 23  1  0  0  0  0 
  4  8  1  0  0  0  0 
  5  9  1  0  0  0  0 
  5 10  1  0  0  0  0 
 11  6  1  0  0  0  0 
  6 12  1  0  0  0  0 
  6 21  1  0  0  0  0 
  7 10  1  0  0  0  0 
 11  8  1  0  0  0  0 
 13 11  1  0  0  0  0 
 11 22  1  0  0  0  0 
 12 14  1  0  0  0  0 
 13 15  1  0  0  0  0 
 13 16  1  0  0  0  0 
 13 24  1  0  0  0  0 
 14 15  1  0  0  0  0 
 15 17  2  0  0  0  0 
 16 18  1  0  0  0  0 
 19 17  1  0  0  0  0 
 19 18  1  0  0  0  0 
 19 20  1  0  0  0  0 
 20 25  1  0  0  0  0 
 25 26  1  0  0  0  0 
 25 27  2  0  0  0  0 
 26 28  1  0  0  0  0 
  9 29  1  0  0  0  0 
 29 30  2  0  0  0  0 
 29 31  1  0  0  0  0 
 31 32  1  0  0  0  0 
  1 33  1  0  0  0  0 
  1 34  1  0  0  0  0 
  1 35  1  0  0  0  0 
  4 36  1  0  0  0  0 
  4 37  1  0  0  0  0 
  5 38  1  0  0  0  0 
  7 39  1  0  0  0  0 
  7 40  1  0  0  0  0 
  8 41  1  0  0  0  0 
  8 42  1  0  0  0  0 
 10 43  1  0  0  0  0 
 10 44  1  0  0  0  0 
 12 45  1  0  0  0  0 
 12 46  1  0  0  0  0 
 14 47  1  0  0  0  0 
 14 48  1  0  0  0  0 
 16 49  1  0  0  0  0 
 16 50  1  0  0  0  0 
 17 51  1  0  0  0  0 
 18 52  1  0  0  0  0 
 18 53  1  0  0  0  0 
 19 54  1  0  0  0  0 
 26 55  1  0  0  0  0 
 26 56  1  0  0  0  0 
 28 57  1  0  0  0  0 
 28 58  1  0  0  0  0 
 28 59  1  0  0  0  0 
 31 60  1  0  0  0  0 
 31 61  1  0  0  0  0 
 32 62  1  0  0  0  0 
 32 63  1  0  0  0  0 
 32 64  1  0  0  0  0 
M  END
> <cdk:Title>
bolandiol dipropionate

> <Conformer>
1

> <SuperDrugID>
SD002636

$$$$
