trimebutine
  CDK     0628171801

 57 58  0  0  0  0  0  0  0  0999 V2000
    2.5672    1.8737    0.9950 C   0  0  2  0  0  0  0  0  0  0  0  0
    3.1195    3.0046    1.9511 C   0  0  1  0  0  0  0  0  0  0  0  0
    2.6994    0.4579    1.5368 N   0  0  0  0  0  0  0  0  0  0  0  0
    3.3272    1.9855   -0.3914 C   0  0  2  0  0  0  0  0  0  0  0  0
    1.0703    2.1609    0.8994 C   0  0  0  0  0  0  0  0  0  0  0  0
    3.0396    2.7287    3.3601 O   0  0  0  0  0  0  0  0  0  0  0  0
    3.9051    0.0159    2.3027 C   0  0  0  0  0  0  0  0  0  0  0  0
    2.0827   -0.6655    0.7542 C   0  0  0  0  0  0  0  0  0  0  0  0
    4.8181    1.5615   -0.4616 C   0  0  0  0  0  0  0  0  0  0  0  0
    0.4153    2.5949   -0.2872 C   0  0  0  0  0  0  0  0  0  0  0  0
    0.2528    1.9882    2.0512 C   0  0  0  0  0  0  0  0  0  0  0  0
    2.9554    3.6821    4.3351 C   0  0  0  0  0  0  0  0  0  0  0  0
   -0.9710    2.8346   -0.3229 C   0  0  0  0  0  0  0  0  0  0  0  0
   -1.1316    2.2415    2.0247 C   0  0  0  0  0  0  0  0  0  0  0  0
    2.1928    4.6622    4.1513 O   0  0  0  0  0  0  0  0  0  0  0  0
    3.7831    3.5957    5.4846 C   0  0  0  0  0  0  0  0  0  0  0  0
   -1.7478    2.6555    0.8326 C   0  0  0  0  0  0  0  0  0  0  0  0
    4.0722    4.7517    6.2493 C   0  0  0  0  0  0  0  0  0  0  0  0
    4.4117    2.3813    5.8481 C   0  0  0  0  0  0  0  0  0  0  0  0
    5.0212    4.7206    7.2897 C   0  0  0  0  0  0  0  0  0  0  0  0
    5.3375    2.3320    6.9100 C   0  0  0  0  0  0  0  0  0  0  0  0
    5.3260    5.8822    7.9471 O   0  0  0  0  0  0  0  0  0  0  0  0
    5.6873    3.5140    7.5981 C   0  0  0  0  0  0  0  0  0  0  0  0
    5.9262    1.1454    7.2534 O   0  0  0  0  0  0  0  0  0  0  0  0
    4.5694    6.0721    9.1540 C   0  0  0  0  0  0  0  0  0  0  0  0
    6.6474    3.4788    8.5777 O   0  0  0  0  0  0  0  0  0  0  0  0
    5.1888    0.4323    8.2623 C   0  0  0  0  0  0  0  0  0  0  0  0
    7.9650    3.8019    8.0942 C   0  0  0  0  0  0  0  0  0  0  0  0
    4.1813    3.1672    1.7821 H   0  0  0  0  0  0  0  0  0  0  0  0
    2.6453    3.9652    1.7211 H   0  0  0  0  0  0  0  0  0  0  0  0
    3.2694    3.0210   -0.7410 H   0  0  0  0  0  0  0  0  0  0  0  0
    2.8116    1.3662   -1.1295 H   0  0  0  0  0  0  0  0  0  0  0  0
    3.5670   -0.4634    3.2226 H   0  0  0  0  0  0  0  0  0  0  0  0
    4.5651    0.8359    2.5738 H   0  0  0  0  0  0  0  0  0  0  0  0
    4.5028   -0.7070    1.7432 H   0  0  0  0  0  0  0  0  0  0  0  0
    1.7833   -1.4649    1.4342 H   0  0  0  0  0  0  0  0  0  0  0  0
    2.7922   -1.0720    0.0305 H   0  0  0  0  0  0  0  0  0  0  0  0
    1.1922   -0.3628    0.2051 H   0  0  0  0  0  0  0  0  0  0  0  0
    5.4379    2.0956    0.2550 H   0  0  0  0  0  0  0  0  0  0  0  0
    5.2054    1.7754   -1.4578 H   0  0  0  0  0  0  0  0  0  0  0  0
    4.9241    0.4937   -0.2914 H   0  0  0  0  0  0  0  0  0  0  0  0
    0.9306    2.7467   -1.1542 H   0  0  0  0  0  0  0  0  0  0  0  0
    0.6616    1.6684    2.9324 H   0  0  0  0  0  0  0  0  0  0  0  0
   -1.4159    3.1429   -1.1903 H   0  0  0  0  0  0  0  0  0  0  0  0
   -1.6891    2.1239    2.8732 H   0  0  0  0  0  0  0  0  0  0  0  0
   -2.7574    2.8219    0.8044 H   0  0  0  0  0  0  0  0  0  0  0  0
    3.6160    5.6430    6.0376 H   0  0  0  0  0  0  0  0  0  0  0  0
    4.2088    1.5192    5.3374 H   0  0  0  0  0  0  0  0  0  0  0  0
    4.8260    7.0531    9.5552 H   0  0  0  0  0  0  0  0  0  0  0  0
    3.4918    6.0524    8.9670 H   0  0  0  0  0  0  0  0  0  0  0  0
    4.8253    5.3189    9.9034 H   0  0  0  0  0  0  0  0  0  0  0  0
    5.7549   -0.4619    8.5225 H   0  0  0  0  0  0  0  0  0  0  0  0
    5.0578    1.0255    9.1726 H   0  0  0  0  0  0  0  0  0  0  0  0
    4.2096    0.1200    7.8889 H   0  0  0  0  0  0  0  0  0  0  0  0
    8.6567    3.7445    8.9346 H   0  0  0  0  0  0  0  0  0  0  0  0
    8.3017    3.0959    7.3296 H   0  0  0  0  0  0  0  0  0  0  0  0
    8.0053    4.8178    7.6927 H   0  0  0  0  0  0  0  0  0  0  0  0
  1  2  1  0  0  0  0 
  1  3  1  0  0  0  0 
  1  4  1  0  0  0  0 
  1  5  1  0  0  0  0 
  2  6  1  0  0  0  0 
  3  7  1  0  0  0  0 
  3  8  1  0  0  0  0 
  4  9  1  0  0  0  0 
  5 10  2  0  0  0  0 
  5 11  1  0  0  0  0 
  6 12  1  0  0  0  0 
 10 13  1  0  0  0  0 
 11 14  2  0  0  0  0 
 12 15  2  0  0  0  0 
 12 16  1  0  0  0  0 
 13 17  2  0  0  0  0 
 14 17  1  0  0  0  0 
 16 18  2  0  0  0  0 
 16 19  1  0  0  0  0 
 18 20  1  0  0  0  0 
 19 21  2  0  0  0  0 
 20 22  1  0  0  0  0 
 20 23  2  0  0  0  0 
 21 23  1  0  0  0  0 
 21 24  1  0  0  0  0 
 22 25  1  0  0  0  0 
 23 26  1  0  0  0  0 
 24 27  1  0  0  0  0 
 26 28  1  0  0  0  0 
  2 29  1  0  0  0  0 
  2 30  1  0  0  0  0 
  4 31  1  0  0  0  0 
  4 32  1  0  0  0  0 
  7 33  1  0  0  0  0 
  7 34  1  0  0  0  0 
  7 35  1  0  0  0  0 
  8 36  1  0  0  0  0 
  8 37  1  0  0  0  0 
  8 38  1  0  0  0  0 
  9 39  1  0  0  0  0 
  9 40  1  0  0  0  0 
  9 41  1  0  0  0  0 
 10 42  1  0  0  0  0 
 11 43  1  0  0  0  0 
 13 44  1  0  0  0  0 
 14 45  1  0  0  0  0 
 17 46  1  0  0  0  0 
 18 47  1  0  0  0  0 
 19 48  1  0  0  0  0 
 25 49  1  0  0  0  0 
 25 50  1  0  0  0  0 
 25 51  1  0  0  0  0 
 27 52  1  0  0  0  0 
 27 53  1  0  0  0  0 
 27 54  1  0  0  0  0 
 28 55  1  0  0  0  0 
 28 56  1  0  0  0  0 
 28 57  1  0  0  0  0 
M  END
> <cdk:Title>
trimebutine

> <Conformer>
1

> <SuperDrugID>
SD002478

$$$$
