loracarbef
  CDK     0628171801

 40 42  0  0  0  0  0  0  0  0999 V2000
    1.2530   -2.5517    0.0104 O   0  0  0  0  0  0  0  0  0  0  0  0
    0.0525   -2.5661    0.3616 C   0  0  0  0  0  0  0  0  0  0  0  0
   -0.9650   -1.7136    0.2044 N   0  0  0  0  0  0  0  0  0  0  0  0
   -0.7076   -3.4817    1.2121 C   0  0  2  0  0  0  0  0  0  0  0  0
   -1.8848   -2.4830    0.9728 C   0  0  1  0  0  0  0  0  0  0  0  0
   -1.1288   -0.4749   -0.2949 C   0  0  0  0  0  0  0  0  0  0  0  0
   -0.1523   -3.5400    2.5274 N   0  0  0  0  0  0  0  0  0  0  0  0
   -2.4353   -1.5315    2.0649 C   0  0  1  0  0  0  0  0  0  0  0  0
   -0.2662   -0.0302   -1.2957 C   0  0  0  0  0  0  0  0  0  0  0  0
   -2.1292    0.2634    0.2570 C   0  0  0  0  0  0  0  0  0  0  0  0
    0.6545   -4.5317    2.9907 C   0  0  0  0  0  0  0  0  0  0  0  0
   -2.9698   -0.2454    1.3579 C   0  0  2  0  0  0  0  0  0  0  0  0
    0.1815    1.2471   -1.3420 O   0  0  0  0  0  0  0  0  0  0  0  0
    0.1636   -0.8105   -2.1769 O   0  0  0  0  0  0  0  0  0  0  0  0
   -2.5279    1.7954   -0.2801 Cl  0  0  0  0  0  0  0  0  0  0  0  0
    1.2598   -4.4253    4.3387 C   0  0  2  0  0  0  0  0  0  0  0  0
    0.9154   -5.5254    2.2713 O   0  0  0  0  0  0  0  0  0  0  0  0
    2.7244   -4.5060    4.2309 N   0  0  1  0  0  0  0  0  0  0  0  0
    0.7530   -5.4584    5.2898 C   0  0  0  0  0  0  0  0  0  0  0  0
    1.0252   -6.8365    5.0944 C   0  0  0  0  0  0  0  0  0  0  0  0
    0.0031   -5.0823    6.4325 C   0  0  0  0  0  0  0  0  0  0  0  0
    0.5842   -7.8011    6.0181 C   0  0  0  0  0  0  0  0  0  0  0  0
   -0.4301   -6.0435    7.3637 C   0  0  0  0  0  0  0  0  0  0  0  0
   -0.1333   -7.4026    7.1592 C   0  0  0  0  0  0  0  0  0  0  0  0
   -2.6842   -2.9042    0.3519 H   0  0  0  0  0  0  0  0  0  0  0  0
   -0.8637   -4.4484    0.7229 H   0  0  0  0  0  0  0  0  0  0  0  0
   -0.3311   -2.7983    3.1235 H   0  0  0  0  0  0  0  0  0  0  0  0
   -3.2326   -2.0262    2.6259 H   0  0  0  0  0  0  0  0  0  0  0  0
   -1.6466   -1.2481    2.7686 H   0  0  0  0  0  0  0  0  0  0  0  0
   -3.0836    0.5286    2.1216 H   0  0  0  0  0  0  0  0  0  0  0  0
   -3.9599   -0.4599    0.9491 H   0  0  0  0  0  0  0  0  0  0  0  0
    0.8171    1.5189   -2.0345 H   0  0  0  0  0  0  0  0  0  0  0  0
    1.0562   -3.4254    4.7334 H   0  0  0  0  0  0  0  0  0  0  0  0
    3.1101   -4.4177    5.1748 H   0  0  0  0  0  0  0  0  0  0  0  0
    2.9556   -5.4477    3.9071 H   0  0  0  0  0  0  0  0  0  0  0  0
    1.5562   -7.1495    4.2778 H   0  0  0  0  0  0  0  0  0  0  0  0
   -0.2311   -4.1002    6.5995 H   0  0  0  0  0  0  0  0  0  0  0  0
    0.7932   -8.7902    5.8633 H   0  0  0  0  0  0  0  0  0  0  0  0
   -0.9559   -5.7540    8.1923 H   0  0  0  0  0  0  0  0  0  0  0  0
   -0.4355   -8.1007    7.8420 H   0  0  0  0  0  0  0  0  0  0  0  0
  1  2  2  0  0  0  0 
  2  3  1  0  0  0  0 
  4  2  1  0  0  0  0 
  5  3  1  0  0  0  0 
  3  6  1  0  0  0  0 
  5  4  1  0  0  0  0 
  4  7  1  0  0  0  0 
  5  8  1  0  0  0  0 
  5 25  1  0  0  0  0 
  6  9  1  0  0  0  0 
  6 10  2  0  0  0  0 
  7 11  1  0  0  0  0 
  8 12  1  0  0  0  0 
  9 13  1  0  0  0  0 
  9 14  2  0  0  0  0 
 10 12  1  0  0  0  0 
 10 15  1  0  0  0  0 
 16 11  1  0  0  0  0 
 11 17  2  0  0  0  0 
 16 18  1  0  0  0  0 
 16 19  1  0  0  0  0 
 19 20  2  0  0  0  0 
 19 21  1  0  0  0  0 
 20 22  1  0  0  0  0 
 21 23  2  0  0  0  0 
 22 24  2  0  0  0  0 
 23 24  1  0  0  0  0 
  4 26  1  0  0  0  0 
  7 27  1  0  0  0  0 
  8 28  1  0  0  0  0 
  8 29  1  0  0  0  0 
 12 30  1  0  0  0  0 
 12 31  1  0  0  0  0 
 13 32  1  0  0  0  0 
 16 33  1  0  0  0  0 
 18 34  1  0  0  0  0 
 18 35  1  0  0  0  0 
 20 36  1  0  0  0  0 
 21 37  1  0  0  0  0 
 22 38  1  0  0  0  0 
 23 39  1  0  0  0  0 
 24 40  1  0  0  0  0 
M  END
> <cdk:Title>
loracarbef

> <Conformer>
1

> <SuperDrugID>
SD001417

$$$$
