vilanterol
  CDK     0628171802

 65 66  0  0  0  0  0  0  0  0999 V2000
   12.2047   -9.4302   -8.0117 C   0  0  2  0  0  0  0  0  0  0  0  0
   11.3850   -9.3723   -6.6936 C   0  0  2  0  0  0  0  0  0  0  0  0
   13.0783   -8.3048   -8.1115 O   0  0  0  0  0  0  0  0  0  0  0  0
   11.3188   -9.5563   -9.2065 C   0  0  0  0  0  0  0  0  0  0  0  0
   10.4760   -8.2002   -6.6452 N   0  0  1  0  0  0  0  0  0  0  0  0
   10.7862   -8.4167   -9.8565 C   0  0  0  0  0  0  0  0  0  0  0  0
   10.9547  -10.8347   -9.6889 C   0  0  0  0  0  0  0  0  0  0  0  0
    9.6032   -8.1400   -5.4481 C   0  0  1  0  0  0  0  0  0  0  0  0
    9.8788   -8.5348  -10.9363 C   0  0  0  0  0  0  0  0  0  0  0  0
   10.0459  -10.9696  -10.7522 C   0  0  0  0  0  0  0  0  0  0  0  0
    8.6430   -6.9269   -5.5361 C   0  0  1  0  0  0  0  0  0  0  0  0
    9.3521   -7.3188  -11.6068 C   0  0  1  0  0  0  0  0  0  0  0  0
    9.4864   -9.8292  -11.3545 C   0  0  0  0  0  0  0  0  0  0  0  0
    7.6994   -6.8012   -4.3054 C   0  0  1  0  0  0  0  0  0  0  0  0
    8.0157   -7.0707  -11.1888 O   0  0  0  0  0  0  0  0  0  0  0  0
    8.5706  -10.0168  -12.3397 O   0  0  0  0  0  0  0  0  0  0  0  0
    6.7358   -5.5855   -4.4119 C   0  0  2  0  0  0  0  0  0  0  0  0
    5.7901   -5.4319   -3.1878 C   0  0  2  0  0  0  0  0  0  0  0  0
    4.8131   -4.2366   -3.3268 C   0  0  2  0  0  0  0  0  0  0  0  0
    3.9458   -4.1888   -2.1760 O   0  0  0  0  0  0  0  0  0  0  0  0
    2.9261   -3.1686   -2.2222 C   0  0  2  0  0  0  0  0  0  0  0  0
    2.2199   -3.0987   -0.8525 C   0  0  1  0  0  0  0  0  0  0  0  0
    1.2535   -2.0283   -0.8623 O   0  0  0  0  0  0  0  0  0  0  0  0
    0.7999   -1.5989    0.4374 C   0  0  2  0  0  0  0  0  0  0  0  0
   -0.2112   -0.5128    0.2595 C   0  0  0  0  0  0  0  0  0  0  0  0
   -1.5801   -0.6745    0.6215 C   0  0  0  0  0  0  0  0  0  0  0  0
    0.1940    0.7349   -0.2968 C   0  0  0  0  0  0  0  0  0  0  0  0
   -2.2237   -2.1091    1.2668 Cl  0  0  0  0  0  0  0  0  0  0  0  0
   -2.4958    0.3829    0.4425 C   0  0  0  0  0  0  0  0  0  0  0  0
    1.7885    1.0599   -0.7867 Cl  0  0  0  0  0  0  0  0  0  0  0  0
   -0.7363    1.7803   -0.4683 C   0  0  0  0  0  0  0  0  0  0  0  0
   -2.0762    1.6065   -0.0971 C   0  0  0  0  0  0  0  0  0  0  0  0
   12.8632  -10.3029   -7.9579 H   0  0  0  0  0  0  0  0  0  0  0  0
   12.0779   -9.3287   -5.8492 H   0  0  0  0  0  0  0  0  0  0  0  0
   10.8027  -10.2944   -6.6034 H   0  0  0  0  0  0  0  0  0  0  0  0
   13.6877   -8.3864   -7.3476 H   0  0  0  0  0  0  0  0  0  0  0  0
   11.0637   -7.3632   -6.6340 H   0  0  0  0  0  0  0  0  0  0  0  0
   11.0526   -7.4851   -9.5295 H   0  0  0  0  0  0  0  0  0  0  0  0
   11.3372  -11.6793   -9.2577 H   0  0  0  0  0  0  0  0  0  0  0  0
    9.0106   -9.0564   -5.3812 H   0  0  0  0  0  0  0  0  0  0  0  0
   10.2202   -8.0519   -4.5499 H   0  0  0  0  0  0  0  0  0  0  0  0
    9.7876  -11.9048  -11.0769 H   0  0  0  0  0  0  0  0  0  0  0  0
    9.2380   -6.0136   -5.6249 H   0  0  0  0  0  0  0  0  0  0  0  0
    8.0373   -7.0257   -6.4416 H   0  0  0  0  0  0  0  0  0  0  0  0
    9.9509   -6.4373  -11.3700 H   0  0  0  0  0  0  0  0  0  0  0  0
    9.3711   -7.4468  -12.6911 H   0  0  0  0  0  0  0  0  0  0  0  0
    7.1079   -7.7170   -4.2149 H   0  0  0  0  0  0  0  0  0  0  0  0
    8.3063   -6.6982   -3.4015 H   0  0  0  0  0  0  0  0  0  0  0  0
    7.7758   -6.2176  -11.6095 H   0  0  0  0  0  0  0  0  0  0  0  0
    7.9263   -9.2860  -12.2343 H   0  0  0  0  0  0  0  0  0  0  0  0
    6.1270   -5.6995   -5.3133 H   0  0  0  0  0  0  0  0  0  0  0  0
    7.3284   -4.6720   -4.5139 H   0  0  0  0  0  0  0  0  0  0  0  0
    6.3889   -5.2915   -2.2832 H   0  0  0  0  0  0  0  0  0  0  0  0
    5.2048   -6.3476   -3.0676 H   0  0  0  0  0  0  0  0  0  0  0  0
    4.2243   -4.3563   -4.2410 H   0  0  0  0  0  0  0  0  0  0  0  0
    5.3885   -3.3082   -3.3946 H   0  0  0  0  0  0  0  0  0  0  0  0
    2.1908   -3.4022   -2.9975 H   0  0  0  0  0  0  0  0  0  0  0  0
    3.3642   -2.1886   -2.4367 H   0  0  0  0  0  0  0  0  0  0  0  0
    1.7136   -4.0468   -0.6530 H   0  0  0  0  0  0  0  0  0  0  0  0
    2.9838   -2.9393   -0.0856 H   0  0  0  0  0  0  0  0  0  0  0  0
    1.6368   -1.2054    1.0221 H   0  0  0  0  0  0  0  0  0  0  0  0
    0.4054   -2.4533    0.9873 H   0  0  0  0  0  0  0  0  0  0  0  0
   -3.4795    0.2720    0.7009 H   0  0  0  0  0  0  0  0  0  0  0  0
   -0.4455    2.6753   -0.8650 H   0  0  0  0  0  0  0  0  0  0  0  0
   -2.7458    2.3695   -0.2223 H   0  0  0  0  0  0  0  0  0  0  0  0
  1  2  1  0  0  0  0 
  1  3  1  0  0  0  0 
  1  4  1  0  0  0  0 
  2  5  1  0  0  0  0 
  4  6  2  0  0  0  0 
  4  7  1  0  0  0  0 
  5  8  1  0  0  0  0 
  6  9  1  0  0  0  0 
  7 10  2  0  0  0  0 
  8 11  1  0  0  0  0 
  9 12  1  0  0  0  0 
  9 13  2  0  0  0  0 
 10 13  1  0  0  0  0 
 11 14  1  0  0  0  0 
 12 15  1  0  0  0  0 
 13 16  1  0  0  0  0 
 14 17  1  0  0  0  0 
 17 18  1  0  0  0  0 
 18 19  1  0  0  0  0 
 19 20  1  0  0  0  0 
 20 21  1  0  0  0  0 
 21 22  1  0  0  0  0 
 22 23  1  0  0  0  0 
 23 24  1  0  0  0  0 
 24 25  1  0  0  0  0 
 25 26  2  0  0  0  0 
 25 27  1  0  0  0  0 
 26 28  1  0  0  0  0 
 26 29  1  0  0  0  0 
 27 30  1  0  0  0  0 
 27 31  2  0  0  0  0 
 29 32  2  0  0  0  0 
 31 32  1  0  0  0  0 
  1 33  1  0  0  0  0 
  2 34  1  0  0  0  0 
  2 35  1  0  0  0  0 
  3 36  1  0  0  0  0 
  5 37  1  0  0  0  0 
  6 38  1  0  0  0  0 
  7 39  1  0  0  0  0 
  8 40  1  0  0  0  0 
  8 41  1  0  0  0  0 
 10 42  1  0  0  0  0 
 11 43  1  0  0  0  0 
 11 44  1  0  0  0  0 
 12 45  1  0  0  0  0 
 12 46  1  0  0  0  0 
 14 47  1  0  0  0  0 
 14 48  1  0  0  0  0 
 15 49  1  0  0  0  0 
 16 50  1  0  0  0  0 
 17 51  1  0  0  0  0 
 17 52  1  0  0  0  0 
 18 53  1  0  0  0  0 
 18 54  1  0  0  0  0 
 19 55  1  0  0  0  0 
 19 56  1  0  0  0  0 
 21 57  1  0  0  0  0 
 21 58  1  0  0  0  0 
 22 59  1  0  0  0  0 
 22 60  1  0  0  0  0 
 24 61  1  0  0  0  0 
 24 62  1  0  0  0  0 
 29 63  1  0  0  0  0 
 31 64  1  0  0  0  0 
 32 65  1  0  0  0  0 
M  END
> <cdk:Title>
vilanterol

> <Conformer>
1

> <SuperDrugID>
SD003762

$$$$
