lodoxamide
  CDK     0628171801

 27 27  0  0  0  0  0  0  0  0999 V2000
   -4.9750    0.8831    0.3683 N   0  0  0  0  0  0  0  0  0  0  0  0
   -5.8222    1.7844    0.9483 C   0  0  0  0  0  0  0  0  0  0  0  0
   -3.8318    0.3529    0.9048 C   0  0  0  0  0  0  0  0  0  0  0  0
   -6.9606    2.2282    0.2529 C   0  0  0  0  0  0  0  0  0  0  0  0
   -5.5993    2.2624    2.0865 O   0  0  0  0  0  0  0  0  0  0  0  0
   -2.6853    0.1638    0.0876 C   0  0  0  0  0  0  0  0  0  0  0  0
   -3.7794   -0.0391    2.2629 C   0  0  0  0  0  0  0  0  0  0  0  0
   -7.7842    3.1590    0.7915 O   0  0  0  0  0  0  0  0  0  0  0  0
   -7.2516    1.7779   -0.8786 O   0  0  0  0  0  0  0  0  0  0  0  0
   -2.7411    0.5927   -1.5609 Cl  0  0  0  0  0  0  0  0  0  0  0  0
   -1.4926   -0.3803    0.6349 C   0  0  0  0  0  0  0  0  0  0  0  0
   -2.5927   -0.5481    2.8236 C   0  0  0  0  0  0  0  0  0  0  0  0
   -0.3946   -0.5633   -0.1631 N   0  0  0  0  0  0  0  0  0  0  0  0
   -1.4524   -0.7000    2.0122 C   0  0  0  0  0  0  0  0  0  0  0  0
   -2.5501   -0.8760    4.0840 C   0  0  0  0  0  0  0  0  0  0  0  0
    0.4726   -1.6189   -0.1502 C   0  0  0  0  0  0  0  0  0  0  0  0
    1.5573   -1.6491   -1.0442 C   0  0  0  0  0  0  0  0  0  0  0  0
    0.3145   -2.5941    0.6227 O   0  0  0  0  0  0  0  0  0  0  0  0
    2.3979   -2.7106   -1.0803 O   0  0  0  0  0  0  0  0  0  0  0  0
    1.7834   -0.7002   -1.8291 O   0  0  0  0  0  0  0  0  0  0  0  0
   -2.5125   -1.1650    5.1945 N   0  0  0  0  0  0  0  0  0  0  0  0
   -5.1887    0.6161   -0.5387 H   0  0  0  0  0  0  0  0  0  0  0  0
   -4.6196    0.0399    2.8444 H   0  0  0  0  0  0  0  0  0  0  0  0
   -8.5721    3.4616    0.2943 H   0  0  0  0  0  0  0  0  0  0  0  0
   -0.2344    0.1149   -0.8367 H   0  0  0  0  0  0  0  0  0  0  0  0
   -0.5785   -1.0383    2.4271 H   0  0  0  0  0  0  0  0  0  0  0  0
    3.1477   -2.7198   -1.7107 H   0  0  0  0  0  0  0  0  0  0  0  0
  1  2  1  0  0  0  0 
  1  3  1  0  0  0  0 
  2  4  1  0  0  0  0 
  2  5  2  0  0  0  0 
  3  6  2  0  0  0  0 
  3  7  1  0  0  0  0 
  4  8  1  0  0  0  0 
  4  9  2  0  0  0  0 
  6 10  1  0  0  0  0 
  6 11  1  0  0  0  0 
  7 12  2  0  0  0  0 
 11 13  1  0  0  0  0 
 11 14  2  0  0  0  0 
 12 14  1  0  0  0  0 
 12 15  1  0  0  0  0 
 13 16  1  0  0  0  0 
 16 17  1  0  0  0  0 
 16 18  2  0  0  0  0 
 17 19  1  0  0  0  0 
 17 20  2  0  0  0  0 
 15 21  3  0  0  0  0 
  1 22  1  0  0  0  0 
  7 23  1  0  0  0  0 
  8 24  1  0  0  0  0 
 13 25  1  0  0  0  0 
 14 26  1  0  0  0  0 
 19 27  1  0  0  0  0 
M  END
> <cdk:Title>
lodoxamide

> <Conformer>
1

> <SuperDrugID>
SD002870

$$$$
