cefcapene pivoxil
  CDK     0628171802

 67 69  0  0  0  0  0  0  0  0999 V2000
   -2.5750    6.5886    0.8309 N   0  0  0  0  0  0  0  0  0  0  0  0
   -2.6868    7.9148    1.0927 C   0  0  0  0  0  0  0  0  0  0  0  0
   -3.9356    8.3962    1.4724 C   0  0  0  0  0  0  0  0  0  0  0  0
   -1.7026    8.6820    0.9784 O   0  0  0  0  0  0  0  0  0  0  0  0
   -4.5722    9.3916    0.8132 C   0  0  0  0  0  0  0  0  0  0  0  0
   -4.5440    7.7743    2.5611 C   0  0  0  0  0  0  0  0  0  0  0  0
   -5.9171    7.5184    2.8017 N   0  0  0  0  0  0  0  0  0  0  0  0
   -6.4749    6.8480    3.9157 C   0  0  0  0  0  0  0  0  0  0  0  0
   -5.0736    6.4437    4.9059 S   0  0  0  0  0  0  0  0  0  0  0  0
   -3.9086    7.1862    3.7467 C   0  0  0  0  0  0  0  0  0  0  0  0
   -7.7604    6.5543    4.1641 N   0  0  0  0  0  0  0  0  0  0  0  0
   -4.0865   10.1086   -0.3647 C   0  0  2  0  0  0  0  0  0  0  0  0
   -4.1528    9.2726   -1.6637 C   0  0  0  0  0  0  0  0  0  0  0  0
   -1.4268    5.9049    0.3341 C   0  0  1  0  0  0  0  0  0  0  0  0
   -1.1041    4.5347    1.0020 C   0  0  2  0  0  0  0  0  0  0  0  0
   -1.7000    3.9189   -0.1315 N   0  0  0  0  0  0  0  0  0  0  0  0
   -1.8712    5.0829   -0.7801 C   0  0  0  0  0  0  0  0  0  0  0  0
   -2.3681    5.3937   -1.8863 O   0  0  0  0  0  0  0  0  0  0  0  0
   -2.1216    2.6565   -0.3578 C   0  0  0  0  0  0  0  0  0  0  0  0
   -2.3373    1.8056    0.6884 C   0  0  0  0  0  0  0  0  0  0  0  0
   -2.0493    3.9749    2.4501 S   0  0  0  0  0  0  0  0  0  0  0  0
   -2.0753    2.1805    2.0952 C   0  0  2  0  0  0  0  0  0  0  0  0
   -2.3616    2.3497   -1.6957 C   0  0  0  0  0  0  0  0  0  0  0  0
   -1.3955    2.6829   -2.6066 O   0  0  0  0  0  0  0  0  0  0  0  0
   -3.4406    1.8261   -2.0607 O   0  0  0  0  0  0  0  0  0  0  0  0
   -2.8706    0.4519    0.4949 C   0  0  2  0  0  0  0  0  0  0  0  0
   -4.2891    0.5644    0.3289 O   0  0  0  0  0  0  0  0  0  0  0  0
   -5.1705   -0.4542    0.1445 C   0  0  0  0  0  0  0  0  0  0  0  0
   -6.4584   -0.1549   -0.0714 N   0  0  0  0  0  0  0  0  0  0  0  0
   -4.8200   -1.6555    0.1684 O   0  0  0  0  0  0  0  0  0  0  0  0
   -1.4557    2.6065   -4.0338 C   0  0  1  0  0  0  0  0  0  0  0  0
   -0.9696    3.8361   -4.5913 O   0  0  0  0  0  0  0  0  0  0  0  0
   -1.6877    4.9061   -5.0590 C   0  0  0  0  0  0  0  0  0  0  0  0
   -0.9629    6.0315   -5.7376 C   0  0  2  0  0  0  0  0  0  0  0  0
   -2.9318    4.9320   -4.8942 O   0  0  0  0  0  0  0  0  0  0  0  0
   -1.9442    7.0979   -6.3320 C   0  0  0  0  0  0  0  0  0  0  0  0
   -0.1123    5.4434   -6.9116 C   0  0  0  0  0  0  0  0  0  0  0  0
   -0.0283    6.7384   -4.7051 C   0  0  0  0  0  0  0  0  0  0  0  0
   -3.3734    6.0511    0.9637 H   0  0  0  0  0  0  0  0  0  0  0  0
   -5.4745    9.6674    1.1365 H   0  0  0  0  0  0  0  0  0  0  0  0
   -2.8730    7.1502    3.9930 H   0  0  0  0  0  0  0  0  0  0  0  0
   -8.4454    6.7880    3.5186 H   0  0  0  0  0  0  0  0  0  0  0  0
   -8.0058    6.0987    4.9866 H   0  0  0  0  0  0  0  0  0  0  0  0
   -3.0641   10.4578   -0.2055 H   0  0  0  0  0  0  0  0  0  0  0  0
   -4.6999   11.0026   -0.5137 H   0  0  0  0  0  0  0  0  0  0  0  0
   -3.8282    9.8820   -2.5091 H   0  0  0  0  0  0  0  0  0  0  0  0
   -3.5010    8.3996   -1.6025 H   0  0  0  0  0  0  0  0  0  0  0  0
   -5.1767    8.9415   -1.8487 H   0  0  0  0  0  0  0  0  0  0  0  0
   -0.5520    6.5117    0.0869 H   0  0  0  0  0  0  0  0  0  0  0  0
   -0.0352    4.3076    1.0774 H   0  0  0  0  0  0  0  0  0  0  0  0
   -1.1056    1.7689    2.3859 H   0  0  0  0  0  0  0  0  0  0  0  0
   -2.8304    1.7560    2.7612 H   0  0  0  0  0  0  0  0  0  0  0  0
   -2.6641   -0.1976    1.3514 H   0  0  0  0  0  0  0  0  0  0  0  0
   -2.4244   -0.0286   -0.3793 H   0  0  0  0  0  0  0  0  0  0  0  0
   -7.1016   -0.8648   -0.2222 H   0  0  0  0  0  0  0  0  0  0  0  0
   -6.7462    0.7718   -0.0843 H   0  0  0  0  0  0  0  0  0  0  0  0
   -0.7909    1.8101   -4.3669 H   0  0  0  0  0  0  0  0  0  0  0  0
   -2.4614    2.3784   -4.3925 H   0  0  0  0  0  0  0  0  0  0  0  0
   -2.6315    6.6366   -7.0453 H   0  0  0  0  0  0  0  0  0  0  0  0
   -2.5347    7.5659   -5.5414 H   0  0  0  0  0  0  0  0  0  0  0  0
   -1.3968    7.8871   -6.8548 H   0  0  0  0  0  0  0  0  0  0  0  0
   -0.7497    4.9124   -7.6234 H   0  0  0  0  0  0  0  0  0  0  0  0
    0.6392    4.7412   -6.5428 H   0  0  0  0  0  0  0  0  0  0  0  0
    0.4124    6.2346   -7.4529 H   0  0  0  0  0  0  0  0  0  0  0  0
    0.7469    6.0589   -4.3434 H   0  0  0  0  0  0  0  0  0  0  0  0
   -0.6021    7.0903   -3.8441 H   0  0  0  0  0  0  0  0  0  0  0  0
    0.4671    7.6025   -5.1566 H   0  0  0  0  0  0  0  0  0  0  0  0
  1  2  1  0  0  0  0 
  2  3  1  0  0  0  0 
  2  4  2  0  0  0  0 
  3  5  2  0  0  0  0 
  3  6  1  0  0  0  0 
  6  7  1  0  0  0  0 
  7  8  2  0  0  0  0 
  8  9  1  0  0  0  0 
  9 10  1  0  0  0  0 
  6 10  2  0  0  0  0 
  8 11  1  0  0  0  0 
  5 12  1  0  0  0  0 
 12 13  1  0  0  0  0 
 14 15  1  0  0  0  0 
 15 16  1  0  0  0  0 
 16 17  1  0  0  0  0 
 14 17  1  0  0  0  0 
 17 18  2  0  0  0  0 
 16 19  1  0  0  0  0 
 19 20  2  0  0  0  0 
 15 21  1  0  0  0  0 
 21 22  1  0  0  0  0 
 20 22  1  0  0  0  0 
 19 23  1  0  0  0  0 
 23 24  1  0  0  0  0 
 23 25  2  0  0  0  0 
 26 27  1  0  0  0  0 
 27 28  1  0  0  0  0 
 28 29  1  0  0  0  0 
 28 30  2  0  0  0  0 
 24 31  1  0  0  0  0 
 31 32  1  0  0  0  0 
 32 33  1  0  0  0  0 
 33 34  1  0  0  0  0 
 33 35  2  0  0  0  0 
 34 36  1  0  0  0  0 
 34 37  1  0  0  0  0 
 34 38  1  0  0  0  0 
 20 26  1  0  0  0  0 
 14  1  1  0  0  0  0 
 39  1  1  0  0  0  0 
  5 40  1  0  0  0  0 
 41 10  1  0  0  0  0 
 42 11  1  0  0  0  0 
 43 11  1  0  0  0  0 
 44 12  1  0  0  0  0 
 45 12  1  0  0  0  0 
 46 13  1  0  0  0  0 
 47 13  1  0  0  0  0 
 48 13  1  0  0  0  0 
 14 49  1  0  0  0  0 
 15 50  1  0  0  0  0 
 51 22  1  0  0  0  0 
 52 22  1  0  0  0  0 
 53 26  1  0  0  0  0 
 54 26  1  0  0  0  0 
 55 29  1  0  0  0  0 
 56 29  1  0  0  0  0 
 57 31  1  0  0  0  0 
 58 31  1  0  0  0  0 
 59 36  1  0  0  0  0 
 60 36  1  0  0  0  0 
 61 36  1  0  0  0  0 
 62 37  1  0  0  0  0 
 63 37  1  0  0  0  0 
 64 37  1  0  0  0  0 
 65 38  1  0  0  0  0 
 66 38  1  0  0  0  0 
 67 38  1  0  0  0  0 
M  END
> <cdk:Title>
cefcapene pivoxil

> <Conformer>
1

> <SuperDrugID>
SD000460

$$$$
