cafaminol
  CDK     0628171801

 36 37  0  0  0  0  0  0  0  0999 V2000
   -1.7780   -2.3654    3.2651 C   0  0  0  0  0  0  0  0  0  0  0  0
   -1.7086   -1.1997    4.1174 N   0  0  0  0  0  0  0  0  0  0  0  0
   -1.3866    0.0243    3.6047 C   0  0  0  0  0  0  0  0  0  0  0  0
   -1.9786   -1.2833    5.4670 C   0  0  0  0  0  0  0  0  0  0  0  0
   -1.3038    1.1680    4.3883 C   0  0  0  0  0  0  0  0  0  0  0  0
   -1.1120    0.3781    2.3390 N   0  0  0  0  0  0  0  0  0  0  0  0
   -2.3058   -2.4010    5.9404 O   0  0  0  0  0  0  0  0  0  0  0  0
   -1.9130   -0.1761    6.2940 N   0  0  0  0  0  0  0  0  0  0  0  0
   -0.9462    2.1994    3.5883 N   0  0  0  0  0  0  0  0  0  0  0  0
   -1.5870    1.0522    5.7626 C   0  0  0  0  0  0  0  0  0  0  0  0
   -0.8681    1.7026    2.3263 C   0  0  0  0  0  0  0  0  0  0  0  0
   -2.1830   -0.2602    7.7183 C   0  0  0  0  0  0  0  0  0  0  0  0
   -0.6444    3.5536    3.9625 C   0  0  0  0  0  0  0  0  0  0  0  0
   -1.5543    2.0814    6.4775 O   0  0  0  0  0  0  0  0  0  0  0  0
   -0.5580    2.3890    1.1739 N   0  0  0  0  0  0  0  0  0  0  0  0
   -1.2966    3.5818    0.8023 C   0  0  2  0  0  0  0  0  0  0  0  0
    0.5395    1.9235    0.3637 C   0  0  0  0  0  0  0  0  0  0  0  0
   -1.8236    3.6156   -0.6523 C   0  0  1  0  0  0  0  0  0  0  0  0
   -2.6297    4.7750   -0.8537 O   0  0  0  0  0  0  0  0  0  0  0  0
   -1.1332   -3.1542    3.6586 H   0  0  0  0  0  0  0  0  0  0  0  0
   -1.4669   -2.1775    2.2363 H   0  0  0  0  0  0  0  0  0  0  0  0
   -2.8044   -2.7356    3.2351 H   0  0  0  0  0  0  0  0  0  0  0  0
   -3.0455    0.3604    7.9731 H   0  0  0  0  0  0  0  0  0  0  0  0
   -2.3930   -1.2700    8.0738 H   0  0  0  0  0  0  0  0  0  0  0  0
   -1.3192    0.1039    8.2794 H   0  0  0  0  0  0  0  0  0  0  0  0
    0.2612    3.8878    3.4524 H   0  0  0  0  0  0  0  0  0  0  0  0
   -0.4640    3.6739    5.0279 H   0  0  0  0  0  0  0  0  0  0  0  0
   -1.4694    4.2082    3.6845 H   0  0  0  0  0  0  0  0  0  0  0  0
   -0.6506    4.4489    0.9568 H   0  0  0  0  0  0  0  0  0  0  0  0
   -2.1694    3.7131    1.4495 H   0  0  0  0  0  0  0  0  0  0  0  0
    1.1489    2.7674    0.0333 H   0  0  0  0  0  0  0  0  0  0  0  0
    1.1972    1.2354    0.9056 H   0  0  0  0  0  0  0  0  0  0  0  0
    0.1570    1.4032   -0.5160 H   0  0  0  0  0  0  0  0  0  0  0  0
   -0.9949    3.6492   -1.3613 H   0  0  0  0  0  0  0  0  0  0  0  0
   -2.4269    2.7277   -0.8511 H   0  0  0  0  0  0  0  0  0  0  0  0
   -2.9076    4.7398   -1.7942 H   0  0  0  0  0  0  0  0  0  0  0  0
  1  2  1  0  0  0  0 
  2  3  1  0  0  0  0 
  2  4  1  0  0  0  0 
  3  5  2  0  0  0  0 
  3  6  1  0  0  0  0 
  4  7  2  0  0  0  0 
  4  8  1  0  0  0  0 
  5  9  1  0  0  0  0 
  5 10  1  0  0  0  0 
  6 11  2  0  0  0  0 
  8 10  1  0  0  0  0 
  8 12  1  0  0  0  0 
  9 11  1  0  0  0  0 
  9 13  1  0  0  0  0 
 10 14  2  0  0  0  0 
 11 15  1  0  0  0  0 
 15 16  1  0  0  0  0 
 15 17  1  0  0  0  0 
 16 18  1  0  0  0  0 
 18 19  1  0  0  0  0 
  1 20  1  0  0  0  0 
  1 21  1  0  0  0  0 
  1 22  1  0  0  0  0 
 12 23  1  0  0  0  0 
 12 24  1  0  0  0  0 
 12 25  1  0  0  0  0 
 13 26  1  0  0  0  0 
 13 27  1  0  0  0  0 
 13 28  1  0  0  0  0 
 16 29  1  0  0  0  0 
 16 30  1  0  0  0  0 
 17 31  1  0  0  0  0 
 17 32  1  0  0  0  0 
 17 33  1  0  0  0  0 
 18 34  1  0  0  0  0 
 18 35  1  0  0  0  0 
 19 36  1  0  0  0  0 
M  END
> <cdk:Title>
cafaminol

> <Conformer>
1

> <SuperDrugID>
SD002657

$$$$
