homosalate
  CDK     0628171801

 41 42  0  0  0  0  0  0  0  0999 V2000
    6.6408   -0.5734   -2.5503 C   0  0  0  0  0  0  0  0  0  0  0  0
    5.6139   -1.1981   -1.8993 O   0  0  0  0  0  0  0  0  0  0  0  0
    7.2997    0.3076   -1.9469 O   0  0  0  0  0  0  0  0  0  0  0  0
    6.9576   -0.9282   -3.8930 C   0  0  0  0  0  0  0  0  0  0  0  0
    5.0610   -0.9412   -0.5991 C   0  0  2  0  0  0  0  0  0  0  0  0
    6.0381   -1.6219   -4.7265 C   0  0  0  0  0  0  0  0  0  0  0  0
    8.2233   -0.5910   -4.4399 C   0  0  0  0  0  0  0  0  0  0  0  0
    6.0095   -1.3400    0.5720 C   0  0  1  0  0  0  0  0  0  0  0  0
    3.7231   -1.7248   -0.5234 C   0  0  2  0  0  0  0  0  0  0  0  0
    4.7759   -1.9326   -4.3358 O   0  0  0  0  0  0  0  0  0  0  0  0
    6.4001   -2.0040   -6.0341 C   0  0  0  0  0  0  0  0  0  0  0  0
    8.5748   -0.9621   -5.7503 C   0  0  0  0  0  0  0  0  0  0  0  0
    5.3504   -1.1832    1.9938 C   0  0  2  0  0  0  0  0  0  0  0  0
    3.0124   -1.5285    0.8468 C   0  0  2  0  0  0  0  0  0  0  0  0
    7.6674   -1.6794   -6.5458 C   0  0  0  0  0  0  0  0  0  0  0  0
    3.9673   -1.9314    2.0143 C   0  0  2  0  0  0  0  0  0  0  0  0
    1.6695   -2.3030    0.9076 C   0  0  0  0  0  0  0  0  0  0  0  0
    5.1784    0.3274    2.3754 C   0  0  0  0  0  0  0  0  0  0  0  0
    6.2853   -1.8261    3.0724 C   0  0  0  0  0  0  0  0  0  0  0  0
    4.8378    0.1279   -0.5440 H   0  0  0  0  0  0  0  0  0  0  0  0
    8.9142   -0.0765   -3.8865 H   0  0  0  0  0  0  0  0  0  0  0  0
    6.3153   -2.3793    0.4199 H   0  0  0  0  0  0  0  0  0  0  0  0
    6.9171   -0.7320    0.5235 H   0  0  0  0  0  0  0  0  0  0  0  0
    3.9120   -2.7908   -0.6921 H   0  0  0  0  0  0  0  0  0  0  0  0
    3.0656   -1.3734   -1.3250 H   0  0  0  0  0  0  0  0  0  0  0  0
    4.4587   -1.1389   -3.8575 H   0  0  0  0  0  0  0  0  0  0  0  0
    5.7394   -2.5160   -6.6210 H   0  0  0  0  0  0  0  0  0  0  0  0
    9.4942   -0.7141   -6.1238 H   0  0  0  0  0  0  0  0  0  0  0  0
    2.7609   -0.4687    0.9461 H   0  0  0  0  0  0  0  0  0  0  0  0
    7.9271   -1.9620   -7.4945 H   0  0  0  0  0  0  0  0  0  0  0  0
    3.4615   -1.7486    2.9675 H   0  0  0  0  0  0  0  0  0  0  0  0
    4.1424   -3.0114    1.9482 H   0  0  0  0  0  0  0  0  0  0  0  0
    1.8398   -3.3796    0.8484 H   0  0  0  0  0  0  0  0  0  0  0  0
    1.1505   -2.0786    1.8411 H   0  0  0  0  0  0  0  0  0  0  0  0
    1.0252   -2.0021    0.0788 H   0  0  0  0  0  0  0  0  0  0  0  0
    4.5421    0.8619    1.6713 H   0  0  0  0  0  0  0  0  0  0  0  0
    6.1480    0.8315    2.3924 H   0  0  0  0  0  0  0  0  0  0  0  0
    4.7262    0.4254    3.3664 H   0  0  0  0  0  0  0  0  0  0  0  0
    6.4437   -2.8891    2.8743 H   0  0  0  0  0  0  0  0  0  0  0  0
    7.2625   -1.3355    3.0813 H   0  0  0  0  0  0  0  0  0  0  0  0
    5.8463   -1.7314    4.0701 H   0  0  0  0  0  0  0  0  0  0  0  0
  1  2  1  0  0  0  0 
  1  3  2  0  0  0  0 
  1  4  1  0  0  0  0 
  2  5  1  0  0  0  0 
  4  6  2  0  0  0  0 
  4  7  1  0  0  0  0 
  5  8  1  0  0  0  0 
  5  9  1  0  0  0  0 
  6 10  1  0  0  0  0 
  6 11  1  0  0  0  0 
  7 12  2  0  0  0  0 
  8 13  1  0  0  0  0 
  9 14  1  0  0  0  0 
 11 15  2  0  0  0  0 
 12 15  1  0  0  0  0 
 13 16  1  0  0  0  0 
 14 16  1  0  0  0  0 
 14 17  1  0  0  0  0 
 13 18  1  0  0  0  0 
 13 19  1  0  0  0  0 
  5 20  1  0  0  0  0 
  7 21  1  0  0  0  0 
  8 22  1  0  0  0  0 
  8 23  1  0  0  0  0 
  9 24  1  0  0  0  0 
  9 25  1  0  0  0  0 
 10 26  1  0  0  0  0 
 11 27  1  0  0  0  0 
 12 28  1  0  0  0  0 
 14 29  1  0  0  0  0 
 15 30  1  0  0  0  0 
 16 31  1  0  0  0  0 
 16 32  1  0  0  0  0 
 17 33  1  0  0  0  0 
 17 34  1  0  0  0  0 
 17 35  1  0  0  0  0 
 18 36  1  0  0  0  0 
 18 37  1  0  0  0  0 
 18 38  1  0  0  0  0 
 19 39  1  0  0  0  0 
 19 40  1  0  0  0  0 
 19 41  1  0  0  0  0 
M  END
> <cdk:Title>
homosalate

> <Conformer>
1

> <SuperDrugID>
SD002834

$$$$
