trilostane
  CDK     0628171801

 51 55  0  0  0  0  0  0  0  0999 V2000
    1.5680    0.8060    1.6874 C   0  0  0  0  0  0  0  0  0  0  0  0
    0.1217    0.2462    1.9288 C   0  0  2  0  0  0  0  0  0  0  0  0
   -0.9083    1.4092    1.6752 C   0  0  1  0  0  0  0  0  0  0  0  0
   -0.0647   -0.2638    3.4260 C   0  0  2  0  0  0  0  0  0  0  0  0
   -0.1705   -0.9074    0.8881 C   0  0  2  0  0  0  0  0  0  0  0  0
   -1.3049    1.7275    0.2430 C   0  0  2  0  0  0  0  0  0  0  0  0
   -2.1973    1.0509    1.1409 O   0  0  0  0  0  0  0  0  0  0  0  0
   -1.0113    2.5447    2.7208 C   0  0  1  0  0  0  0  0  0  0  0  0
   -0.1540    0.9023    4.4979 C   0  0  1  0  0  0  0  0  0  0  0  0
    0.9618   -1.3697    3.8753 C   0  0  1  0  0  0  0  0  0  0  0  0
   -0.1695   -0.4553   -0.6126 C   0  0  2  0  0  0  0  0  0  0  0  0
   -0.8011    0.8734   -0.8501 C   0  0  0  0  0  0  0  0  0  0  0  0
   -1.2530    1.9379    4.1204 C   0  0  2  0  0  0  0  0  0  0  0  0
   -0.4142    0.2886    5.9137 C   0  0  1  0  0  0  0  0  0  0  0  0
    0.7548   -1.8687    5.3368 C   0  0  1  0  0  0  0  0  0  0  0  0
   -0.7518   -1.4110   -1.4182 C   0  0  0  0  0  0  0  0  0  0  0  0
   -0.8340    1.3548   -2.0082 O   0  0  0  0  0  0  0  0  0  0  0  0
    0.7172   -0.6901    6.3650 C   0  0  1  0  0  0  0  0  0  0  0  0
   -0.6413    1.1995    7.1440 C   0  0  2  0  0  0  0  0  0  0  0  0
    2.1498   -0.0422    6.5056 C   0  0  0  0  0  0  0  0  0  0  0  0
    0.1703   -1.0711    7.7759 C   0  0  2  0  0  0  0  0  0  0  0  0
   -0.4046    0.2542    8.3519 C   0  0  1  0  0  0  0  0  0  0  0  0
    1.1379   -1.6533    8.6489 O   0  0  0  0  0  0  0  0  0  0  0  0
   -1.2418   -2.2010   -2.0936 N   0  0  0  0  0  0  0  0  0  0  0  0
    2.2972   -0.0041    1.6307 H   0  0  0  0  0  0  0  0  0  0  0  0
    1.8788    1.4788    2.4849 H   0  0  0  0  0  0  0  0  0  0  0  0
    1.6286    1.3650    0.7517 H   0  0  0  0  0  0  0  0  0  0  0  0
   -1.0444   -0.7568    3.4508 H   0  0  0  0  0  0  0  0  0  0  0  0
   -1.1399   -1.3582    1.1317 H   0  0  0  0  0  0  0  0  0  0  0  0
    0.5699   -1.7024    0.9971 H   0  0  0  0  0  0  0  0  0  0  0  0
   -1.6164    2.7537    0.0263 H   0  0  0  0  0  0  0  0  0  0  0  0
   -0.0805    3.1196    2.7123 H   0  0  0  0  0  0  0  0  0  0  0  0
   -1.8303    3.2322    2.4873 H   0  0  0  0  0  0  0  0  0  0  0  0
    0.7887    1.4496    4.5304 H   0  0  0  0  0  0  0  0  0  0  0  0
    0.8792   -2.2380    3.2195 H   0  0  0  0  0  0  0  0  0  0  0  0
    1.9807   -0.9966    3.7792 H   0  0  0  0  0  0  0  0  0  0  0  0
    0.8725   -0.3744   -0.9331 H   0  0  0  0  0  0  0  0  0  0  0  0
   -2.2390    1.4637    4.1448 H   0  0  0  0  0  0  0  0  0  0  0  0
   -1.2550    2.7547    4.8450 H   0  0  0  0  0  0  0  0  0  0  0  0
   -1.3545   -0.2756    5.8104 H   0  0  0  0  0  0  0  0  0  0  0  0
   -0.1836   -2.4299    5.3725 H   0  0  0  0  0  0  0  0  0  0  0  0
    1.5559   -2.5632    5.5988 H   0  0  0  0  0  0  0  0  0  0  0  0
   -1.6565    1.6036    7.1564 H   0  0  0  0  0  0  0  0  0  0  0  0
    0.0690    2.0309    7.1524 H   0  0  0  0  0  0  0  0  0  0  0  0
    2.5056    0.3961    5.5754 H   0  0  0  0  0  0  0  0  0  0  0  0
    2.1717    0.7458    7.2603 H   0  0  0  0  0  0  0  0  0  0  0  0
    2.8779   -0.7985    6.8021 H   0  0  0  0  0  0  0  0  0  0  0  0
   -0.6485   -1.7918    7.6760 H   0  0  0  0  0  0  0  0  0  0  0  0
    0.3019    0.7146    9.0499 H   0  0  0  0  0  0  0  0  0  0  0  0
   -1.3387    0.0618    8.8902 H   0  0  0  0  0  0  0  0  0  0  0  0
    1.4294   -2.4725    8.1951 H   0  0  0  0  0  0  0  0  0  0  0  0
  2  1  1  0  0  0  0 
  2  3  1  0  0  0  0 
  2  4  1  0  0  0  0 
  2  5  1  0  0  0  0 
  3  6  1  0  0  0  0 
  3  7  1  0  0  0  0 
  3  8  1  0  0  0  0 
  4  9  1  0  0  0  0 
  4 10  1  0  0  0  0 
  5 11  1  0  0  0  0 
  6  7  1  0  0  0  0 
  6 12  1  0  0  0  0 
  8 13  1  0  0  0  0 
  9 13  1  0  0  0  0 
  9 14  1  0  0  0  0 
 10 15  1  0  0  0  0 
 11 12  1  0  0  0  0 
 11 16  1  0  0  0  0 
 12 17  2  0  0  0  0 
 14 18  1  0  0  0  0 
 14 19  1  0  0  0  0 
 18 15  1  0  0  0  0 
 18 20  1  0  0  0  0 
 18 21  1  0  0  0  0 
 19 22  1  0  0  0  0 
 21 22  1  0  0  0  0 
 21 23  1  0  0  0  0 
 16 24  3  0  0  0  0 
 25  1  1  0  0  0  0 
 26  1  1  0  0  0  0 
 27  1  1  0  0  0  0 
  4 28  1  0  0  0  0 
 29  5  1  0  0  0  0 
 30  5  1  0  0  0  0 
  6 31  1  0  0  0  0 
 32  8  1  0  0  0  0 
 33  8  1  0  0  0  0 
  9 34  1  0  0  0  0 
 35 10  1  0  0  0  0 
 36 10  1  0  0  0  0 
 37 11  1  0  0  0  0 
 38 13  1  0  0  0  0 
 39 13  1  0  0  0  0 
 14 40  1  0  0  0  0 
 41 15  1  0  0  0  0 
 42 15  1  0  0  0  0 
 43 19  1  0  0  0  0 
 44 19  1  0  0  0  0 
 45 20  1  0  0  0  0 
 46 20  1  0  0  0  0 
 47 20  1  0  0  0  0 
 21 48  1  0  0  0  0 
 49 22  1  0  0  0  0 
 50 22  1  0  0  0  0 
 51 23  1  0  0  0  0 
M  END
> <cdk:Title>
trilostane

> <Conformer>
1

> <SuperDrugID>
SD002476

$$$$
