isavuconazonium
  CDK     0628171802

 86 90  0  0  0  0  0  0  0  0999 V2000
   -2.1332   -2.1378   10.3863 C   0  0  0  0  0  0  0  0  0  0  0  0
   -2.3120   -3.4654    9.8399 C   0  0  0  0  0  0  0  0  0  0  0  0
   -2.9857   -3.7522    8.5561 C   0  0  0  0  0  0  0  0  0  0  0  0
   -3.4424   -2.5511    7.8605 C   0  0  0  0  0  0  0  0  0  0  0  0
   -3.2687   -1.2017    8.4049 C   0  0  0  0  0  0  0  0  0  0  0  0
   -2.6261   -1.0406    9.6512 C   0  0  0  0  0  0  0  0  0  0  0  0
   -2.4825    0.1620   10.1420 F   0  0  0  0  0  0  0  0  0  0  0  0
   -3.1173   -4.9865    8.1555 F   0  0  0  0  0  0  0  0  0  0  0  0
   -4.1469   -2.7035    6.5222 C   0  0  2  0  0  0  0  0  0  0  0  0
   -4.3452   -1.4248    5.8922 O   0  0  0  0  0  0  0  0  0  0  0  0
   -5.5784   -3.3515    6.7134 C   0  0  2  0  0  0  0  0  0  0  0  0
   -3.2710   -3.5077    5.4929 C   0  0  2  0  0  0  0  0  0  0  0  0
   -1.8881   -3.1404    5.4343 N   0  0  0  0  0  0  0  0  0  0  0  0
   -6.2475   -3.6349    5.4201 C   0  0  0  0  0  0  0  0  0  0  0  0
   -6.3030   -5.1762    4.5810 S   0  0  0  0  0  0  0  0  0  0  0  0
   -7.0763   -4.5403    3.1442 C   0  0  0  0  0  0  0  0  0  0  0  0
   -7.2905   -3.1707    3.3871 C   0  0  0  0  0  0  0  0  0  0  0  0
   -6.8358   -2.7371    4.5989 N   0  0  0  0  0  0  0  0  0  0  0  0
   -0.8423   -3.9382    5.7172 C   0  0  0  0  0  0  0  0  0  0  0  0
    0.2928   -3.2730    5.4565 N   0  0  0  0  0  0  0  0  0  0  0  0
   -0.0974   -2.0545    5.0466 C   0  0  0  0  0  0  0  0  0  0  0  0
   -1.4389   -1.9897    5.0394 N   0  0  0  0  0  0  0  0  0  0  0  0
   -7.9117   -2.2680    2.4789 C   0  0  0  0  0  0  0  0  0  0  0  0
   -8.5944   -1.1209    2.9573 C   0  0  0  0  0  0  0  0  0  0  0  0
   -9.2212   -0.2224    2.0732 C   0  0  0  0  0  0  0  0  0  0  0  0
   -9.1736   -0.4507    0.6817 C   0  0  0  0  0  0  0  0  0  0  0  0
   -8.4851   -1.5786    0.1876 C   0  0  0  0  0  0  0  0  0  0  0  0
   -7.8615   -2.4725    1.0781 C   0  0  0  0  0  0  0  0  0  0  0  0
   -9.7583    0.3741   -0.1407 C   0  0  0  0  0  0  0  0  0  0  0  0
  -10.2726    1.1016   -0.8653 N   0  0  0  0  0  0  0  0  0  0  0  0
   -6.5292   -2.5162    7.6180 C   0  0  0  0  0  0  0  0  0  0  0  0
    2.2776   -4.4252    9.2267 N   0  0  0  0  0  0  0  0  0  0  0  0
    2.2112   -3.7523    8.0243 C   0  0  0  0  0  0  0  0  0  0  0  0
    1.8041   -4.3795    6.8716 O   0  0  0  0  0  0  0  0  0  0  0  0
    2.5149   -2.5380    7.9546 O   0  0  0  0  0  0  0  0  0  0  0  0
    1.8066   -5.7083    9.3277 C   0  0  0  0  0  0  0  0  0  0  0  0
    2.7882   -3.8232   10.4359 C   0  0  0  0  0  0  0  0  0  0  0  0
    0.6618   -5.8854   10.0466 N   0  0  0  0  0  0  0  0  0  0  0  0
    0.0704   -7.0897   10.2404 C   0  0  0  0  0  0  0  0  0  0  0  0
    0.6463   -8.2374    9.6790 C   0  0  0  0  0  0  0  0  0  0  0  0
    1.8263   -8.1051    8.9304 C   0  0  0  0  0  0  0  0  0  0  0  0
    2.4338   -6.8404    8.7410 C   0  0  0  0  0  0  0  0  0  0  0  0
    3.6818   -6.7789    7.9430 C   0  0  2  0  0  0  0  0  0  0  0  0
    3.3640   -7.2277    6.6214 O   0  0  0  0  0  0  0  0  0  0  0  0
    1.6318   -3.7739    5.5765 C   0  0  1  0  0  0  0  0  0  0  0  0
    1.9454   -4.7958    4.4625 C   0  0  0  0  0  0  0  0  0  0  0  0
    4.2266   -7.6995    5.6806 C   0  0  0  0  0  0  0  0  0  0  0  0
    3.6832   -8.1769    4.4000 C   0  0  1  0  0  0  0  0  0  0  0  0
    5.4586   -7.7648    5.8994 O   0  0  0  0  0  0  0  0  0  0  0  0
    3.9220   -9.6301    4.2713 N   0  0  2  0  0  0  0  0  0  0  0  0
    3.3355  -10.2303    3.0560 C   0  0  0  0  0  0  0  0  0  0  0  0
   -1.6661   -2.0027   11.2855 H   0  0  0  0  0  0  0  0  0  0  0  0
   -1.9033   -4.2150   10.4869 H   0  0  0  0  0  0  0  0  0  0  0  0
   -3.6070   -0.3708    7.9163 H   0  0  0  0  0  0  0  0  0  0  0  0
   -4.7810   -1.6108    5.0330 H   0  0  0  0  0  0  0  0  0  0  0  0
   -5.4595   -4.3193    7.2061 H   0  0  0  0  0  0  0  0  0  0  0  0
   -3.6670   -3.3736    4.4813 H   0  0  0  0  0  0  0  0  0  0  0  0
   -3.3582   -4.5765    5.7010 H   0  0  0  0  0  0  0  0  0  0  0  0
   -7.3225   -5.0765    2.3102 H   0  0  0  0  0  0  0  0  0  0  0  0
   -0.9011   -4.8977    6.0630 H   0  0  0  0  0  0  0  0  0  0  0  0
    0.5206   -1.2933    4.7640 H   0  0  0  0  0  0  0  0  0  0  0  0
   -8.6508   -0.9284    3.9611 H   0  0  0  0  0  0  0  0  0  0  0  0
   -9.7104    0.5929    2.4578 H   0  0  0  0  0  0  0  0  0  0  0  0
   -8.4258   -1.7615   -0.8199 H   0  0  0  0  0  0  0  0  0  0  0  0
   -7.3567   -3.2699    0.6853 H   0  0  0  0  0  0  0  0  0  0  0  0
   -6.1067   -2.4048    8.6163 H   0  0  0  0  0  0  0  0  0  0  0  0
   -6.6949   -1.5208    7.2002 H   0  0  0  0  0  0  0  0  0  0  0  0
   -7.4955   -3.0149    7.7229 H   0  0  0  0  0  0  0  0  0  0  0  0
    1.9855   -3.7029   11.1653 H   0  0  0  0  0  0  0  0  0  0  0  0
    3.2370   -2.8420   10.2722 H   0  0  0  0  0  0  0  0  0  0  0  0
    3.5671   -4.4517   10.8751 H   0  0  0  0  0  0  0  0  0  0  0  0
   -0.7857   -7.1562   10.7919 H   0  0  0  0  0  0  0  0  0  0  0  0
    0.2154   -9.1548    9.8070 H   0  0  0  0  0  0  0  0  0  0  0  0
    2.2390   -8.9487    8.5218 H   0  0  0  0  0  0  0  0  0  0  0  0
    4.4195   -7.4416    8.4024 H   0  0  0  0  0  0  0  0  0  0  0  0
    4.1147   -5.7782    7.8958 H   0  0  0  0  0  0  0  0  0  0  0  0
    2.3499   -2.9555    5.4551 H   0  0  0  0  0  0  0  0  0  0  0  0
    1.2675   -5.6481    4.5128 H   0  0  0  0  0  0  0  0  0  0  0  0
    1.8409   -4.3177    3.4871 H   0  0  0  0  0  0  0  0  0  0  0  0
    2.9699   -5.1515    4.5640 H   0  0  0  0  0  0  0  0  0  0  0  0
    2.6089   -7.9796    4.3626 H   0  0  0  0  0  0  0  0  0  0  0  0
    4.1649   -7.6390    3.5802 H   0  0  0  0  0  0  0  0  0  0  0  0
    3.4706  -10.0756    5.0730 H   0  0  0  0  0  0  0  0  0  0  0  0
    3.5257  -11.3049    3.0616 H   0  0  0  0  0  0  0  0  0  0  0  0
    2.2551  -10.0699    3.0257 H   0  0  0  0  0  0  0  0  0  0  0  0
    3.7939   -9.7977    2.1648 H   0  0  0  0  0  0  0  0  0  0  0  0
  1  2  2  0  0  0  0 
  2  3  1  0  0  0  0 
  3  4  2  0  0  0  0 
  4  5  1  0  0  0  0 
  5  6  2  0  0  0  0 
  1  6  1  0  0  0  0 
  6  7  1  0  0  0  0 
  3  8  1  0  0  0  0 
  9  4  1  0  0  0  0 
  9 10  1  0  0  0  0 
  9 11  1  0  0  0  0 
  9 12  1  0  0  0  0 
 12 13  1  0  0  0  0 
 11 14  1  0  0  0  0 
 15 16  1  0  0  0  0 
 16 17  2  0  0  0  0 
 17 18  1  0  0  0  0 
 14 15  1  0  0  0  0 
 14 18  2  0  0  0  0 
 19 20  1  0  0  0  0 
 20 21  1  0  0  0  0 
 21 22  2  0  0  0  0 
 13 19  2  0  0  0  0 
 13 22  1  0  0  0  0 
 17 23  1  0  0  0  0 
 24 25  1  0  0  0  0 
 25 26  2  0  0  0  0 
 26 27  1  0  0  0  0 
 27 28  2  0  0  0  0 
 23 24  2  0  0  0  0 
 23 28  1  0  0  0  0 
 26 29  1  0  0  0  0 
 29 30  3  0  0  0  0 
 11 31  1  0  0  0  0 
 32 33  1  0  0  0  0 
 33 34  1  0  0  0  0 
 33 35  2  0  0  0  0 
 32 36  1  0  0  0  0 
 32 37  1  0  0  0  0 
 38 39  1  0  0  0  0 
 39 40  2  0  0  0  0 
 40 41  1  0  0  0  0 
 41 42  2  0  0  0  0 
 36 38  2  0  0  0  0 
 36 42  1  0  0  0  0 
 42 43  1  0  0  0  0 
 43 44  1  0  0  0  0 
 45 34  1  0  0  0  0 
 45 46  1  0  0  0  0 
 45 20  1  0  0  0  0 
 44 47  1  0  0  0  0 
 47 48  1  0  0  0  0 
 47 49  2  0  0  0  0 
 48 50  1  0  0  0  0 
 50 51  1  0  0  0  0 
  1 52  1  0  0  0  0 
  2 53  1  0  0  0  0 
  5 54  1  0  0  0  0 
 10 55  1  0  0  0  0 
 11 56  1  0  0  0  0 
 12 57  1  0  0  0  0 
 12 58  1  0  0  0  0 
 16 59  1  0  0  0  0 
 19 60  1  0  0  0  0 
 21 61  1  0  0  0  0 
 24 62  1  0  0  0  0 
 25 63  1  0  0  0  0 
 27 64  1  0  0  0  0 
 28 65  1  0  0  0  0 
 31 66  1  0  0  0  0 
 31 67  1  0  0  0  0 
 31 68  1  0  0  0  0 
 37 69  1  0  0  0  0 
 37 70  1  0  0  0  0 
 37 71  1  0  0  0  0 
 39 72  1  0  0  0  0 
 40 73  1  0  0  0  0 
 41 74  1  0  0  0  0 
 43 75  1  0  0  0  0 
 43 76  1  0  0  0  0 
 45 77  1  0  0  0  0 
 46 78  1  0  0  0  0 
 46 79  1  0  0  0  0 
 46 80  1  0  0  0  0 
 48 81  1  0  0  0  0 
 48 82  1  0  0  0  0 
 50 83  1  0  0  0  0 
 51 84  1  0  0  0  0 
 51 85  1  0  0  0  0 
 51 86  1  0  0  0  0 
M  CHG  1  13   1
M  END
> <cdk:Title>
isavuconazonium

> <Conformer>
1

> <SuperDrugID>
SD003862

$$$$
