magnesium oxide
  CDK     0628171801

  2  1  0  0  0  0  0  0  0  0999 V2000
    2.0500    0.0000    0.0000 Mg  0  0  0  0  0  0  0  0  0  0  0  0
    0.0000    0.0000    0.0000 O   0  0  0  0  0  0  0  0  0  0  0  0
  1  2  2  0  0  0  0 
M  END
> <cdk:Title>
magnesium oxide

> <Conformer>
1

> <SuperDrugID>
SD003480

$$$$
