phetharbital
  CDK     0628171801

 35 36  0  0  0  0  0  0  0  0999 V2000
    1.0220   -1.8103    1.6541 C   0  0  2  0  0  0  0  0  0  0  0  0
    1.2355   -1.1788    3.0551 C   0  0  0  0  0  0  0  0  0  0  0  0
   -0.3816   -2.4490    1.3149 C   0  0  2  0  0  0  0  0  0  0  0  0
   -0.7341   -3.6202    2.3084 C   0  0  2  0  0  0  0  0  0  0  0  0
   -0.2781   -2.9913   -0.0923 C   0  0  0  0  0  0  0  0  0  0  0  0
   -1.4501   -1.3941    1.3824 C   0  0  0  0  0  0  0  0  0  0  0  0
   -2.0371   -4.4059    2.0080 C   0  0  0  0  0  0  0  0  0  0  0  0
    0.5310   -3.9332   -0.2947 O   0  0  0  0  0  0  0  0  0  0  0  0
   -1.0123   -2.4869   -1.1529 N   0  0  0  0  0  0  0  0  0  0  0  0
   -1.7830   -0.8666    2.4684 O   0  0  0  0  0  0  0  0  0  0  0  0
   -2.1266   -0.9626    0.2936 N   0  0  0  0  0  0  0  0  0  0  0  0
   -1.9150   -1.4680   -0.9403 C   0  0  0  0  0  0  0  0  0  0  0  0
   -0.8495   -2.9989   -2.4184 C   0  0  0  0  0  0  0  0  0  0  0  0
   -2.5993   -0.9639   -1.8628 O   0  0  0  0  0  0  0  0  0  0  0  0
   -1.3865   -4.2628   -2.7534 C   0  0  0  0  0  0  0  0  0  0  0  0
   -0.1362   -2.2726   -3.3994 C   0  0  0  0  0  0  0  0  0  0  0  0
   -1.2277   -4.7820   -4.0525 C   0  0  0  0  0  0  0  0  0  0  0  0
    0.0062   -2.7831   -4.7030 C   0  0  0  0  0  0  0  0  0  0  0  0
   -0.5420   -4.0367   -5.0295 C   0  0  0  0  0  0  0  0  0  0  0  0
    1.7969   -2.5749    1.5457 H   0  0  0  0  0  0  0  0  0  0  0  0
    1.2427   -1.0318    0.9167 H   0  0  0  0  0  0  0  0  0  0  0  0
    2.2720   -0.8446    3.1440 H   0  0  0  0  0  0  0  0  0  0  0  0
    0.5921   -0.3094    3.1956 H   0  0  0  0  0  0  0  0  0  0  0  0
    1.0460   -1.9023    3.8492 H   0  0  0  0  0  0  0  0  0  0  0  0
   -0.8280   -3.2251    3.3233 H   0  0  0  0  0  0  0  0  0  0  0  0
    0.0884   -4.3412    2.3285 H   0  0  0  0  0  0  0  0  0  0  0  0
   -2.1702   -5.1902    2.7573 H   0  0  0  0  0  0  0  0  0  0  0  0
   -2.9052   -3.7443    2.0440 H   0  0  0  0  0  0  0  0  0  0  0  0
   -1.9890   -4.8776    1.0246 H   0  0  0  0  0  0  0  0  0  0  0  0
   -2.7942   -0.2662    0.4024 H   0  0  0  0  0  0  0  0  0  0  0  0
   -1.8958   -4.8092   -2.0528 H   0  0  0  0  0  0  0  0  0  0  0  0
    0.2829   -1.3697   -3.1668 H   0  0  0  0  0  0  0  0  0  0  0  0
   -1.6135   -5.7007   -4.2858 H   0  0  0  0  0  0  0  0  0  0  0  0
    0.5089   -2.2439   -5.4122 H   0  0  0  0  0  0  0  0  0  0  0  0
   -0.4419   -4.4075   -5.9761 H   0  0  0  0  0  0  0  0  0  0  0  0
  1  2  1  0  0  0  0 
  1  3  1  0  0  0  0 
  3  4  1  0  0  0  0 
  3  5  1  0  0  0  0 
  3  6  1  0  0  0  0 
  4  7  1  0  0  0  0 
  5  8  2  0  0  0  0 
  5  9  1  0  0  0  0 
  6 10  2  0  0  0  0 
  6 11  1  0  0  0  0 
  9 12  1  0  0  0  0 
  9 13  1  0  0  0  0 
 11 12  1  0  0  0  0 
 12 14  2  0  0  0  0 
 13 15  2  0  0  0  0 
 13 16  1  0  0  0  0 
 15 17  1  0  0  0  0 
 16 18  2  0  0  0  0 
 17 19  2  0  0  0  0 
 18 19  1  0  0  0  0 
 20  1  1  0  0  0  0 
 21  1  1  0  0  0  0 
 22  2  1  0  0  0  0 
 23  2  1  0  0  0  0 
 24  2  1  0  0  0  0 
 25  4  1  0  0  0  0 
 26  4  1  0  0  0  0 
 27  7  1  0  0  0  0 
 28  7  1  0  0  0  0 
 29  7  1  0  0  0  0 
 30 11  1  0  0  0  0 
 31 15  1  0  0  0  0 
 32 16  1  0  0  0  0 
 33 17  1  0  0  0  0 
 34 18  1  0  0  0  0 
 35 19  1  0  0  0  0 
M  END
> <cdk:Title>
phetharbital

> <Conformer>
1

> <SuperDrugID>
SD002960

$$$$
