histamine
  CDK     0628171801

 17 17  0  0  0  0  0  0  0  0999 V2000
   -1.2760    1.9300   -0.6421 N   0  0  1  0  0  0  0  0  0  0  0  0
   -0.8948    1.5277    0.7137 C   0  0  1  0  0  0  0  0  0  0  0  0
   -0.4061    0.0618    0.7219 C   0  0  1  0  0  0  0  0  0  0  0  0
    0.0056   -0.3469    2.0779 C   0  0  0  0  0  0  0  0  0  0  0  0
    1.2655   -0.2181    2.6537 C   0  0  0  0  0  0  0  0  0  0  0  0
    1.2172   -0.6847    3.9103 N   0  0  0  0  0  0  0  0  0  0  0  0
   -0.0457   -1.0945    4.1189 C   0  0  0  0  0  0  0  0  0  0  0  0
   -0.7800   -0.8938    3.0157 N   0  0  0  0  0  0  0  0  0  0  0  0
   -2.0560    1.3270   -0.9164 H   0  0  0  0  0  0  0  0  0  0  0  0
   -1.6395    2.8837   -0.5739 H   0  0  0  0  0  0  0  0  0  0  0  0
   -0.1025    2.1955    1.0637 H   0  0  0  0  0  0  0  0  0  0  0  0
   -1.7674    1.6414    1.3624 H   0  0  0  0  0  0  0  0  0  0  0  0
   -1.2080   -0.5964    0.3757 H   0  0  0  0  0  0  0  0  0  0  0  0
    0.4384   -0.0495    0.0357 H   0  0  0  0  0  0  0  0  0  0  0  0
    2.0937    0.1736    2.2020 H   0  0  0  0  0  0  0  0  0  0  0  0
   -0.3940   -1.4967    4.9919 H   0  0  0  0  0  0  0  0  0  0  0  0
   -1.7237   -1.1023    2.9180 H   0  0  0  0  0  0  0  0  0  0  0  0
  1  2  1  0  0  0  0 
  2  3  1  0  0  0  0 
  3  4  1  0  0  0  0 
  4  5  2  0  0  0  0 
  5  6  1  0  0  0  0 
  6  7  2  0  0  0  0 
  7  8  1  0  0  0  0 
  4  8  1  0  0  0  0 
  9  1  1  0  0  0  0 
 10  1  1  0  0  0  0 
 11  2  1  0  0  0  0 
 12  2  1  0  0  0  0 
 13  3  1  0  0  0  0 
 14  3  1  0  0  0  0 
 15  5  1  0  0  0  0 
 16  7  1  0  0  0  0 
 17  8  1  0  0  0  0 
M  END
> <cdk:Title>
histamine

> <Conformer>
1

> <SuperDrugID>
SD001221

$$$$
