cinitapride
  CDK     0628171802

 59 61  0  0  0  0  0  0  0  0999 V2000
    0.4458    3.3899    2.3607 C   0  0  0  0  0  0  0  0  0  0  0  0
   -0.0886    2.9893    1.1708 N   0  0  0  0  0  0  0  0  0  0  0  0
    1.4650    2.7983    2.7899 O   0  0  0  0  0  0  0  0  0  0  0  0
   -0.1129    4.4623    3.1198 C   0  0  0  0  0  0  0  0  0  0  0  0
    0.3871    1.8977    0.3652 C   0  0  2  0  0  0  0  0  0  0  0  0
    0.0157    4.5007    4.5308 C   0  0  0  0  0  0  0  0  0  0  0  0
   -0.7933    5.5329    2.4891 C   0  0  0  0  0  0  0  0  0  0  0  0
   -0.2752    1.9897   -1.0413 C   0  0  2  0  0  0  0  0  0  0  0  0
    0.1203    0.5324    1.0737 C   0  0  1  0  0  0  0  0  0  0  0  0
    0.5837    3.4665    5.2299 O   0  0  0  0  0  0  0  0  0  0  0  0
   -0.4336    5.6180    5.2559 C   0  0  0  0  0  0  0  0  0  0  0  0
   -1.2789    6.6668    3.1993 C   0  0  0  0  0  0  0  0  0  0  0  0
   -0.0562    0.7018   -1.8773 C   0  0  1  0  0  0  0  0  0  0  0  0
    0.3050   -0.6777    0.1203 C   0  0  1  0  0  0  0  0  0  0  0  0
   -0.3817    2.4892    5.6659 C   0  0  1  0  0  0  0  0  0  0  0  0
   -1.0607    6.7000    4.6099 C   0  0  0  0  0  0  0  0  0  0  0  0
   -1.9059    7.6545    2.5217 N   0  0  0  0  0  0  0  0  0  0  0  0
   -0.4790   -0.5374   -1.1491 N   0  0  1  0  0  0  0  0  0  0  0  0
    0.3683    1.2807    6.2527 C   0  0  0  0  0  0  0  0  0  0  0  0
   -1.4261    7.7334    5.4080 N   0  0  0  0  0  0  0  0  0  0  0  0
   -2.2882    7.5310    1.3140 O   0  0  0  0  0  0  0  0  0  0  0  0
   -2.1506    8.7029    2.9753 O   0  0  0  0  0  0  0  0  0  0  0  0
   -1.9597   -0.7428   -0.9747 C   0  0  1  0  0  0  0  0  0  0  0  0
   -2.7767   -0.9318   -2.2918 C   0  0  2  0  0  0  0  0  0  0  0  0
   -4.2962   -1.0933   -1.9922 C   0  0  1  0  0  0  0  0  0  0  0  0
   -2.2703   -2.1387   -3.1478 C   0  0  2  0  0  0  0  0  0  0  0  0
   -5.1024   -1.2856   -3.3057 C   0  0  1  0  0  0  0  0  0  0  0  0
   -3.1968   -2.5850   -4.1810 C   0  0  0  0  0  0  0  0  0  0  0  0
   -4.4813   -2.2004   -4.2507 C   0  0  0  0  0  0  0  0  0  0  0  0
   -0.8763    3.4594    0.8541 H   0  0  0  0  0  0  0  0  0  0  0  0
    1.4683    2.0019    0.2193 H   0  0  0  0  0  0  0  0  0  0  0  0
   -0.9203    5.4925    1.4748 H   0  0  0  0  0  0  0  0  0  0  0  0
    0.1528    2.8359   -1.5847 H   0  0  0  0  0  0  0  0  0  0  0  0
   -1.3476    2.1744   -0.9467 H   0  0  0  0  0  0  0  0  0  0  0  0
    0.8150    0.4112    1.9096 H   0  0  0  0  0  0  0  0  0  0  0  0
   -0.8923    0.5173    1.4847 H   0  0  0  0  0  0  0  0  0  0  0  0
   -0.2995    5.6355    6.2714 H   0  0  0  0  0  0  0  0  0  0  0  0
   -0.5720    0.7972   -2.8314 H   0  0  0  0  0  0  0  0  0  0  0  0
    1.0057    0.6183   -2.1246 H   0  0  0  0  0  0  0  0  0  0  0  0
    1.3671   -0.7734   -0.1261 H   0  0  0  0  0  0  0  0  0  0  0  0
    0.0291   -1.5959    0.6456 H   0  0  0  0  0  0  0  0  0  0  0  0
   -1.0283    2.9177    6.4367 H   0  0  0  0  0  0  0  0  0  0  0  0
   -1.0046    2.1374    4.8366 H   0  0  0  0  0  0  0  0  0  0  0  0
    1.0051    1.5985    7.0810 H   0  0  0  0  0  0  0  0  0  0  0  0
   -0.3447    0.5393    6.6186 H   0  0  0  0  0  0  0  0  0  0  0  0
    0.9908    0.8205    5.4821 H   0  0  0  0  0  0  0  0  0  0  0  0
   -1.2058    7.7152    6.3539 H   0  0  0  0  0  0  0  0  0  0  0  0
   -1.9002    8.4992    5.0531 H   0  0  0  0  0  0  0  0  0  0  0  0
   -2.1195   -1.6393   -0.3683 H   0  0  0  0  0  0  0  0  0  0  0  0
   -2.3903    0.0903   -0.4140 H   0  0  0  0  0  0  0  0  0  0  0  0
   -2.6822   -0.0231   -2.8926 H   0  0  0  0  0  0  0  0  0  0  0  0
   -4.4539   -1.9600   -1.3429 H   0  0  0  0  0  0  0  0  0  0  0  0
   -4.6727   -0.2083   -1.4703 H   0  0  0  0  0  0  0  0  0  0  0  0
   -2.0717   -2.9953   -2.4986 H   0  0  0  0  0  0  0  0  0  0  0  0
   -1.3272   -1.8598   -3.6260 H   0  0  0  0  0  0  0  0  0  0  0  0
   -6.0999   -1.6537   -3.0527 H   0  0  0  0  0  0  0  0  0  0  0  0
   -5.2191   -0.3184   -3.8016 H   0  0  0  0  0  0  0  0  0  0  0  0
   -2.8562   -3.2196   -4.8680 H   0  0  0  0  0  0  0  0  0  0  0  0
   -5.0427   -2.5525   -4.9923 H   0  0  0  0  0  0  0  0  0  0  0  0
  1  2  1  0  0  0  0 
  1  3  2  0  0  0  0 
  1  4  1  0  0  0  0 
  2  5  1  0  0  0  0 
  4  6  2  0  0  0  0 
  4  7  1  0  0  0  0 
  5  8  1  0  0  0  0 
  5  9  1  0  0  0  0 
  6 10  1  0  0  0  0 
  6 11  1  0  0  0  0 
  7 12  2  0  0  0  0 
  8 13  1  0  0  0  0 
  9 14  1  0  0  0  0 
 10 15  1  0  0  0  0 
 11 16  2  0  0  0  0 
 12 16  1  0  0  0  0 
 12 17  1  0  0  0  0 
 13 18  1  0  0  0  0 
 14 18  1  0  0  0  0 
 15 19  1  0  0  0  0 
 16 20  1  0  0  0  0 
 17 21  1  0  0  0  0 
 17 22  2  0  0  0  0 
 18 23  1  0  0  0  0 
 24 23  1  0  0  0  0 
 24 25  1  0  0  0  0 
 24 26  1  0  0  0  0 
 25 27  1  0  0  0  0 
 26 28  1  0  0  0  0 
 27 29  1  0  0  0  0 
 28 29  2  0  0  0  0 
  2 30  1  0  0  0  0 
  5 31  1  0  0  0  0 
  7 32  1  0  0  0  0 
  8 33  1  0  0  0  0 
  8 34  1  0  0  0  0 
  9 35  1  0  0  0  0 
  9 36  1  0  0  0  0 
 11 37  1  0  0  0  0 
 13 38  1  0  0  0  0 
 13 39  1  0  0  0  0 
 14 40  1  0  0  0  0 
 14 41  1  0  0  0  0 
 15 42  1  0  0  0  0 
 15 43  1  0  0  0  0 
 19 44  1  0  0  0  0 
 19 45  1  0  0  0  0 
 19 46  1  0  0  0  0 
 20 47  1  0  0  0  0 
 20 48  1  0  0  0  0 
 23 49  1  0  0  0  0 
 23 50  1  0  0  0  0 
 24 51  1  0  0  0  0 
 25 52  1  0  0  0  0 
 25 53  1  0  0  0  0 
 26 54  1  0  0  0  0 
 26 55  1  0  0  0  0 
 27 56  1  0  0  0  0 
 27 57  1  0  0  0  0 
 28 58  1  0  0  0  0 
 29 59  1  0  0  0  0 
M  CHG  1  17   1
M  CHG  1  21  -1
M  END
> <cdk:Title>
cinitapride

> <Conformer>
1

> <SuperDrugID>
SD000572

$$$$
