anazolene
  CDK     0628171801

 61 65  0  0  0  0  0  0  0  0999 V2000
    3.4077   -5.9233    9.5743 N   0  0  0  0  0  0  0  0  0  0  0  0
    3.7060   -5.5166    8.2981 C   0  0  0  0  0  0  0  0  0  0  0  0
    2.4132   -5.4865   10.4134 C   0  0  0  0  0  0  0  0  0  0  0  0
    5.0501   -5.3770    7.8270 C   0  0  0  0  0  0  0  0  0  0  0  0
    2.6353   -5.1851    7.4393 C   0  0  0  0  0  0  0  0  0  0  0  0
    1.7219   -4.2573   10.2659 C   0  0  0  0  0  0  0  0  0  0  0  0
    2.0842   -6.3145   11.5105 C   0  0  0  0  0  0  0  0  0  0  0  0
    5.2603   -4.5746    6.6506 C   0  0  0  0  0  0  0  0  0  0  0  0
    6.2009   -5.9627    8.4552 C   0  0  0  0  0  0  0  0  0  0  0  0
    2.8540   -4.5119    6.2363 C   0  0  0  0  0  0  0  0  0  0  0  0
    0.6819   -3.9071   11.1458 C   0  0  0  0  0  0  0  0  0  0  0  0
    1.0548   -5.9588   12.4017 C   0  0  0  0  0  0  0  0  0  0  0  0
    4.1578   -4.1330    5.8648 C   0  0  0  0  0  0  0  0  0  0  0  0
    6.5813   -4.2173    6.2770 C   0  0  0  0  0  0  0  0  0  0  0  0
    6.1771   -7.2755    9.6577 S   0  0  1  0  0  0  0  0  0  0  0  0
    7.4969   -5.5654    8.0570 C   0  0  0  0  0  0  0  0  0  0  0  0
    0.3459   -4.7595   12.2120 C   0  0  0  0  0  0  0  0  0  0  0  0
    4.3660   -3.3658    4.7989 N   0  0  0  0  0  0  0  0  0  0  0  0
    7.6869   -4.6851    6.9898 C   0  0  0  0  0  0  0  0  0  0  0  0
    5.9238   -6.7048   11.1335 O   0  0  0  0  0  0  0  0  0  0  0  0
    5.0718   -8.3795    9.2958 O   0  0  0  0  0  0  0  0  0  0  0  0
    7.6783   -8.0987    9.6909 O   0  0  0  0  0  0  0  0  0  0  0  0
    3.5437   -2.8052    4.0793 N   0  0  0  0  0  0  0  0  0  0  0  0
    3.8023   -2.0228    3.0347 C   0  0  0  0  0  0  0  0  0  0  0  0
    2.7515   -1.2976    2.3957 C   0  0  0  0  0  0  0  0  0  0  0  0
    5.1323   -1.8691    2.5718 C   0  0  0  0  0  0  0  0  0  0  0  0
    3.0827   -0.3974    1.3345 C   0  0  0  0  0  0  0  0  0  0  0  0
    1.3822   -1.3995    2.7763 C   0  0  0  0  0  0  0  0  0  0  0  0
    5.4470   -0.9990    1.5176 C   0  0  0  0  0  0  0  0  0  0  0  0
    4.4205   -0.2629    0.9056 C   0  0  0  0  0  0  0  0  0  0  0  0
    2.0803    0.3836    0.7165 C   0  0  0  0  0  0  0  0  0  0  0  0
    0.9308   -2.2419    3.7398 O   0  0  0  0  0  0  0  0  0  0  0  0
    0.3989   -0.6047    2.1584 C   0  0  0  0  0  0  0  0  0  0  0  0
    7.1310   -0.8288    1.0080 S   0  0  1  0  0  0  0  0  0  0  0  0
    0.7423    0.2971    1.1369 C   0  0  0  0  0  0  0  0  0  0  0  0
    7.9974   -0.1403    2.1684 O   0  0  0  0  0  0  0  0  0  0  0  0
    7.7691   -2.2603    0.6686 O   0  0  0  0  0  0  0  0  0  0  0  0
    7.2480    0.1448   -0.3930 O   0  0  0  0  0  0  0  0  0  0  0  0
   -0.5099    1.3188    0.4161 S   0  0  2  0  0  0  0  0  0  0  0  0
   -1.0566    2.3680    1.4980 O   0  0  0  0  0  0  0  0  0  0  0  0
   -1.7309    0.4224   -0.1094 O   0  0  0  0  0  0  0  0  0  0  0  0
    0.1116    2.2029   -0.9110 O   0  0  0  0  0  0  0  0  0  0  0  0
    3.9791   -6.5951    9.9530 H   0  0  0  0  0  0  0  0  0  0  0  0
    1.6704   -5.4045    7.7005 H   0  0  0  0  0  0  0  0  0  0  0  0
    1.9697   -3.6012    9.5232 H   0  0  0  0  0  0  0  0  0  0  0  0
    2.5908   -7.1879   11.6664 H   0  0  0  0  0  0  0  0  0  0  0  0
    2.0485   -4.2745    5.6502 H   0  0  0  0  0  0  0  0  0  0  0  0
    0.1718   -3.0320   11.0115 H   0  0  0  0  0  0  0  0  0  0  0  0
    0.8217   -6.5746   13.1850 H   0  0  0  0  0  0  0  0  0  0  0  0
    6.7657   -3.6080    5.4762 H   0  0  0  0  0  0  0  0  0  0  0  0
    8.3323   -5.9248    8.5246 H   0  0  0  0  0  0  0  0  0  0  0  0
   -0.4118   -4.5081   12.8486 H   0  0  0  0  0  0  0  0  0  0  0  0
    8.6330   -4.4014    6.7181 H   0  0  0  0  0  0  0  0  0  0  0  0
    7.8833   -8.1929   10.6439 H   0  0  0  0  0  0  0  0  0  0  0  0
    5.8926   -2.3914    3.0139 H   0  0  0  0  0  0  0  0  0  0  0  0
    4.6546    0.3826    0.1465 H   0  0  0  0  0  0  0  0  0  0  0  0
    2.3274    1.0313   -0.0371 H   0  0  0  0  0  0  0  0  0  0  0  0
    1.2793   -3.1231    3.4927 H   0  0  0  0  0  0  0  0  0  0  0  0
   -0.5750   -0.6823    2.4608 H   0  0  0  0  0  0  0  0  0  0  0  0
    7.2618    1.0629   -0.0533 H   0  0  0  0  0  0  0  0  0  0  0  0
   -0.5342    2.0510   -1.6327 H   0  0  0  0  0  0  0  0  0  0  0  0
  1  2  1  0  0  0  0 
  1  3  1  0  0  0  0 
  2  4  2  0  0  0  0 
  2  5  1  0  0  0  0 
  3  6  2  0  0  0  0 
  3  7  1  0  0  0  0 
  4  8  1  0  0  0  0 
  4  9  1  0  0  0  0 
  5 10  2  0  0  0  0 
  6 11  1  0  0  0  0 
  7 12  2  0  0  0  0 
  8 13  2  0  0  0  0 
  8 14  1  0  0  0  0 
  9 15  1  0  0  0  0 
  9 16  2  0  0  0  0 
 10 13  1  0  0  0  0 
 11 17  2  0  0  0  0 
 12 17  1  0  0  0  0 
 13 18  1  0  0  0  0 
 14 19  2  0  0  0  0 
 15 20  2  0  0  0  0 
 15 21  2  0  0  0  0 
 15 22  1  0  0  0  0 
 16 19  1  0  0  0  0 
 18 23  2  0  0  0  0 
 23 24  1  0  0  0  0 
 24 25  2  0  0  0  0 
 24 26  1  0  0  0  0 
 25 27  1  0  0  0  0 
 25 28  1  0  0  0  0 
 26 29  2  0  0  0  0 
 27 30  2  0  0  0  0 
 27 31  1  0  0  0  0 
 28 32  1  0  0  0  0 
 28 33  2  0  0  0  0 
 29 30  1  0  0  0  0 
 29 34  1  0  0  0  0 
 31 35  2  0  0  0  0 
 33 35  1  0  0  0  0 
 34 36  2  0  0  0  0 
 34 37  2  0  0  0  0 
 34 38  1  0  0  0  0 
 35 39  1  0  0  0  0 
 39 40  2  0  0  0  0 
 39 41  2  0  0  0  0 
 39 42  1  0  0  0  0 
  1 43  1  0  0  0  0 
  5 44  1  0  0  0  0 
  6 45  1  0  0  0  0 
  7 46  1  0  0  0  0 
 10 47  1  0  0  0  0 
 11 48  1  0  0  0  0 
 12 49  1  0  0  0  0 
 14 50  1  0  0  0  0 
 16 51  1  0  0  0  0 
 17 52  1  0  0  0  0 
 19 53  1  0  0  0  0 
 22 54  1  0  0  0  0 
 26 55  1  0  0  0  0 
 30 56  1  0  0  0  0 
 31 57  1  0  0  0  0 
 32 58  1  0  0  0  0 
 33 59  1  0  0  0  0 
 38 60  1  0  0  0  0 
 42 61  1  0  0  0  0 
M  END
> <cdk:Title>
anazolene

> <Conformer>
1

> <SuperDrugID>
SD000174

$$$$
