itramin tosilate
  CDK     0628171801

 13 12  0  0  0  0  0  0  0  0999 V2000
    0.7187   -0.6704    0.1203 O   0  0  0  0  0  0  0  0  0  0  0  0
    1.0408    0.5283    0.4405 N   0  0  0  0  0  0  0  0  0  0  0  0
   -0.6655   -0.7877   -0.2607 C   0  0  1  0  0  0  0  0  0  0  0  0
    1.4120    1.3561   -0.4452 O   0  0  0  0  0  0  0  0  0  0  0  0
    1.0380    0.8618    1.5585 O   0  0  0  0  0  0  0  0  0  0  0  0
   -0.9653   -2.2474   -0.6581 C   0  0  2  0  0  0  0  0  0  0  0  0
   -2.3747   -2.4115   -1.0398 N   0  0  1  0  0  0  0  0  0  0  0  0
   -1.3110   -0.5069    0.5759 H   0  0  0  0  0  0  0  0  0  0  0  0
   -0.8874   -0.1361   -1.1097 H   0  0  0  0  0  0  0  0  0  0  0  0
   -0.7439   -2.9117    0.1806 H   0  0  0  0  0  0  0  0  0  0  0  0
   -0.3409   -2.5345   -1.5064 H   0  0  0  0  0  0  0  0  0  0  0  0
   -2.5238   -3.4055   -1.2289 H   0  0  0  0  0  0  0  0  0  0  0  0
   -2.9413   -2.1807   -0.2194 H   0  0  0  0  0  0  0  0  0  0  0  0
  1  2  1  0  0  0  0 
  1  3  1  0  0  0  0 
  2  4  1  0  0  0  0 
  2  5  2  0  0  0  0 
  3  6  1  0  0  0  0 
  6  7  1  0  0  0  0 
  3  8  1  0  0  0  0 
  3  9  1  0  0  0  0 
  6 10  1  0  0  0  0 
  6 11  1  0  0  0  0 
  7 12  1  0  0  0  0 
  7 13  1  0  0  0  0 
M  CHG  1   2   1
M  CHG  1   4  -1
M  END
> <cdk:Title>
itramin tosilate

> <Conformer>
1

> <SuperDrugID>
SD003639

$$$$
