clevidipine
  CDK     0628171802

 53 54  0  0  0  0  0  0  0  0999 V2000
   -2.3050   -2.6613   -5.8287 C   0  0  0  0  0  0  0  0  0  0  0  0
   -2.0626   -3.2150   -7.0537 O   0  0  0  0  0  0  0  0  0  0  0  0
   -3.4922   -2.3272   -5.5937 O   0  0  0  0  0  0  0  0  0  0  0  0
   -1.2968   -2.4697   -4.8547 C   0  0  0  0  0  0  0  0  0  0  0  0
   -2.9895   -3.4235   -8.1279 C   0  0  1  0  0  0  0  0  0  0  0  0
   -1.7144   -2.1196   -3.4672 C   0  0  2  0  0  0  0  0  0  0  0  0
    0.0367   -2.5648   -5.1102 C   0  0  0  0  0  0  0  0  0  0  0  0
   -2.3123   -4.0582   -9.2189 O   0  0  0  0  0  0  0  0  0  0  0  0
   -0.6478   -1.7205   -2.5085 C   0  0  0  0  0  0  0  0  0  0  0  0
   -2.5846   -3.2087   -2.8694 C   0  0  0  0  0  0  0  0  0  0  0  0
    0.6417   -2.8946   -6.3980 C   0  0  0  0  0  0  0  0  0  0  0  0
    0.9203   -2.3345   -4.1278 N   0  0  0  0  0  0  0  0  0  0  0  0
   -1.2318   -3.5650   -9.8944 C   0  0  0  0  0  0  0  0  0  0  0  0
   -1.0315   -1.1760   -1.2620 C   0  0  0  0  0  0  0  0  0  0  0  0
    0.6460   -1.8776   -2.8975 C   0  0  0  0  0  0  0  0  0  0  0  0
   -2.1437   -4.5481   -2.6287 C   0  0  0  0  0  0  0  0  0  0  0  0
   -3.9243   -2.8808   -2.5311 C   0  0  0  0  0  0  0  0  0  0  0  0
   -0.6062   -4.3644  -10.9626 C   0  0  2  0  0  0  0  0  0  0  0  0
   -0.7565   -2.4379   -9.6210 O   0  0  0  0  0  0  0  0  0  0  0  0
   -0.1980   -1.1658   -0.1776 O   0  0  0  0  0  0  0  0  0  0  0  0
   -2.1769   -0.6840   -1.1076 O   0  0  0  0  0  0  0  0  0  0  0  0
    1.8216   -1.5761   -2.0837 C   0  0  0  0  0  0  0  0  0  0  0  0
   -0.5502   -5.0435   -2.9638 Cl  0  0  0  0  0  0  0  0  0  0  0  0
   -3.0397   -5.5124   -2.0954 C   0  0  0  0  0  0  0  0  0  0  0  0
   -4.7949   -3.8284   -1.9711 C   0  0  0  0  0  0  0  0  0  0  0  0
    0.8002   -4.8761  -10.5545 C   0  0  2  0  0  0  0  0  0  0  0  0
   -0.4400   -0.5882    1.1092 C   0  0  0  0  0  0  0  0  0  0  0  0
   -2.6101   -7.1369   -1.8363 Cl  0  0  0  0  0  0  0  0  0  0  0  0
   -4.3556   -5.1425   -1.7628 C   0  0  0  0  0  0  0  0  0  0  0  0
    1.4753   -5.7024  -11.6723 C   0  0  0  0  0  0  0  0  0  0  0  0
   -3.8006   -4.0752   -7.7961 H   0  0  0  0  0  0  0  0  0  0  0  0
   -3.4137   -2.4699   -8.4535 H   0  0  0  0  0  0  0  0  0  0  0  0
   -2.2921   -1.1977   -3.6064 H   0  0  0  0  0  0  0  0  0  0  0  0
    0.3501   -3.8987   -6.7070 H   0  0  0  0  0  0  0  0  0  0  0  0
    1.7342   -2.8741   -6.3740 H   0  0  0  0  0  0  0  0  0  0  0  0
    0.3247   -2.1710   -7.1482 H   0  0  0  0  0  0  0  0  0  0  0  0
    1.8553   -2.4929   -4.3349 H   0  0  0  0  0  0  0  0  0  0  0  0
   -4.2884   -1.9375   -2.6886 H   0  0  0  0  0  0  0  0  0  0  0  0
   -0.5333   -3.7525  -11.8655 H   0  0  0  0  0  0  0  0  0  0  0  0
   -1.2435   -5.2210  -11.1919 H   0  0  0  0  0  0  0  0  0  0  0  0
    1.8466   -2.2380   -1.2155 H   0  0  0  0  0  0  0  0  0  0  0  0
    1.7940   -0.5356   -1.7539 H   0  0  0  0  0  0  0  0  0  0  0  0
    2.7611   -1.7194   -2.6252 H   0  0  0  0  0  0  0  0  0  0  0  0
   -5.7514   -3.5634   -1.7201 H   0  0  0  0  0  0  0  0  0  0  0  0
    0.7141   -5.5019   -9.6613 H   0  0  0  0  0  0  0  0  0  0  0  0
    1.4476   -4.0281  -10.3118 H   0  0  0  0  0  0  0  0  0  0  0  0
   -0.5598    0.4926    1.0178 H   0  0  0  0  0  0  0  0  0  0  0  0
    0.4176   -0.7961    1.7485 H   0  0  0  0  0  0  0  0  0  0  0  0
   -1.3327   -1.0174    1.5674 H   0  0  0  0  0  0  0  0  0  0  0  0
   -5.0060   -5.8276   -1.3679 H   0  0  0  0  0  0  0  0  0  0  0  0
    2.4330   -6.0910  -11.3187 H   0  0  0  0  0  0  0  0  0  0  0  0
    1.6545   -5.0730  -12.5469 H   0  0  0  0  0  0  0  0  0  0  0  0
    0.8447   -6.5457  -11.9644 H   0  0  0  0  0  0  0  0  0  0  0  0
  1  2  1  0  0  0  0 
  1  3  2  0  0  0  0 
  1  4  1  0  0  0  0 
  2  5  1  0  0  0  0 
  6  4  1  0  0  0  0 
  4  7  2  0  0  0  0 
  5  8  1  0  0  0  0 
  6  9  1  0  0  0  0 
  6 10  1  0  0  0  0 
  7 11  1  0  0  0  0 
  7 12  1  0  0  0  0 
  8 13  1  0  0  0  0 
  9 14  1  0  0  0  0 
  9 15  2  0  0  0  0 
 10 16  2  0  0  0  0 
 10 17  1  0  0  0  0 
 12 15  1  0  0  0  0 
 13 18  1  0  0  0  0 
 13 19  2  0  0  0  0 
 14 20  1  0  0  0  0 
 14 21  2  0  0  0  0 
 15 22  1  0  0  0  0 
 16 23  1  0  0  0  0 
 16 24  1  0  0  0  0 
 17 25  2  0  0  0  0 
 18 26  1  0  0  0  0 
 20 27  1  0  0  0  0 
 24 28  1  0  0  0  0 
 24 29  2  0  0  0  0 
 25 29  1  0  0  0  0 
 26 30  1  0  0  0  0 
 31  5  1  0  0  0  0 
 32  5  1  0  0  0  0 
 33  6  1  0  0  0  0 
 34 11  1  0  0  0  0 
 35 11  1  0  0  0  0 
 36 11  1  0  0  0  0 
 37 12  1  0  0  0  0 
 38 17  1  0  0  0  0 
 39 18  1  0  0  0  0 
 40 18  1  0  0  0  0 
 41 22  1  0  0  0  0 
 42 22  1  0  0  0  0 
 43 22  1  0  0  0  0 
 44 25  1  0  0  0  0 
 45 26  1  0  0  0  0 
 46 26  1  0  0  0  0 
 47 27  1  0  0  0  0 
 48 27  1  0  0  0  0 
 49 27  1  0  0  0  0 
 50 29  1  0  0  0  0 
 51 30  1  0  0  0  0 
 52 30  1  0  0  0  0 
 53 30  1  0  0  0  0 
M  END
> <cdk:Title>
clevidipine

> <Conformer>
1

> <SuperDrugID>
SD000593

$$$$
