aminopropylone
  CDK     0628171801

 44 45  0  0  0  0  0  0  0  0999 V2000
   -3.4236   -5.0913   -0.1779 O   0  0  0  0  0  0  0  0  0  0  0  0
   -2.6226   -4.3278    0.4128 C   0  0  0  0  0  0  0  0  0  0  0  0
   -2.5238   -4.1536    1.7504 N   0  0  0  0  0  0  0  0  0  0  0  0
   -1.7101   -3.4822   -0.2055 C   0  0  0  0  0  0  0  0  0  0  0  0
   -1.5835   -3.2681    2.0029 N   0  0  0  0  0  0  0  0  0  0  0  0
   -3.3189   -4.8174    2.6529 C   0  0  0  0  0  0  0  0  0  0  0  0
   -1.5027   -3.2556   -1.5283 N   0  0  0  0  0  0  0  0  0  0  0  0
   -1.0628   -2.8179    0.8324 C   0  0  0  0  0  0  0  0  0  0  0  0
   -1.1442   -2.7980    3.2914 C   0  0  0  0  0  0  0  0  0  0  0  0
   -2.7527   -5.6731    3.6267 C   0  0  0  0  0  0  0  0  0  0  0  0
   -4.7255   -4.6656    2.6117 C   0  0  0  0  0  0  0  0  0  0  0  0
   -1.6010   -4.1401   -2.5559 C   0  0  0  0  0  0  0  0  0  0  0  0
    0.0079   -1.8064    0.6740 C   0  0  0  0  0  0  0  0  0  0  0  0
   -3.5750   -6.3568    4.5434 C   0  0  0  0  0  0  0  0  0  0  0  0
   -5.5455   -5.3461    3.5301 C   0  0  0  0  0  0  0  0  0  0  0  0
   -1.5043   -3.6150   -3.9429 C   0  0  2  0  0  0  0  0  0  0  0  0
   -1.7694   -5.3691   -2.3695 O   0  0  0  0  0  0  0  0  0  0  0  0
   -4.9716   -6.1956    4.4929 C   0  0  0  0  0  0  0  0  0  0  0  0
   -0.2567   -2.7797   -4.1201 N   0  0  1  0  0  0  0  0  0  0  0  0
   -2.8480   -2.8816   -4.2296 C   0  0  0  0  0  0  0  0  0  0  0  0
    1.0085   -3.5691   -4.0032 C   0  0  0  0  0  0  0  0  0  0  0  0
   -0.2283   -1.9055   -5.3339 C   0  0  0  0  0  0  0  0  0  0  0  0
   -1.2453   -2.3527   -1.7663 H   0  0  0  0  0  0  0  0  0  0  0  0
   -0.1072   -3.0976    3.4591 H   0  0  0  0  0  0  0  0  0  0  0  0
   -1.2109   -1.7095    3.3361 H   0  0  0  0  0  0  0  0  0  0  0  0
   -1.7453   -3.1879    4.1102 H   0  0  0  0  0  0  0  0  0  0  0  0
   -1.7397   -5.8042    3.6673 H   0  0  0  0  0  0  0  0  0  0  0  0
   -5.1597   -4.0583    1.9119 H   0  0  0  0  0  0  0  0  0  0  0  0
    0.9078   -2.1391    1.1938 H   0  0  0  0  0  0  0  0  0  0  0  0
    0.2622   -1.6423   -0.3736 H   0  0  0  0  0  0  0  0  0  0  0  0
   -0.3197   -0.8578    1.1005 H   0  0  0  0  0  0  0  0  0  0  0  0
   -3.1615   -6.9776    5.2431 H   0  0  0  0  0  0  0  0  0  0  0  0
   -6.5603   -5.2273    3.4948 H   0  0  0  0  0  0  0  0  0  0  0  0
   -1.4578   -4.4564   -4.6430 H   0  0  0  0  0  0  0  0  0  0  0  0
   -5.5702   -6.7005    5.1530 H   0  0  0  0  0  0  0  0  0  0  0  0
   -2.9264   -2.6254   -5.2871 H   0  0  0  0  0  0  0  0  0  0  0  0
   -3.7000   -3.5228   -3.9880 H   0  0  0  0  0  0  0  0  0  0  0  0
   -2.9210   -1.9643   -3.6426 H   0  0  0  0  0  0  0  0  0  0  0  0
    1.8797   -2.9108   -4.0218 H   0  0  0  0  0  0  0  0  0  0  0  0
    1.0480   -4.1132   -3.0597 H   0  0  0  0  0  0  0  0  0  0  0  0
    1.0943   -4.2881   -4.8209 H   0  0  0  0  0  0  0  0  0  0  0  0
   -1.0268   -1.1641   -5.2956 H   0  0  0  0  0  0  0  0  0  0  0  0
    0.7057   -1.3430   -5.3992 H   0  0  0  0  0  0  0  0  0  0  0  0
   -0.3417   -2.4972   -6.2443 H   0  0  0  0  0  0  0  0  0  0  0  0
  1  2  2  0  0  0  0 
  2  3  1  0  0  0  0 
  2  4  1  0  0  0  0 
  3  5  1  0  0  0  0 
  3  6  1  0  0  0  0 
  4  7  1  0  0  0  0 
  4  8  2  0  0  0  0 
  5  8  1  0  0  0  0 
  5  9  1  0  0  0  0 
  6 10  2  0  0  0  0 
  6 11  1  0  0  0  0 
  7 12  1  0  0  0  0 
  8 13  1  0  0  0  0 
 10 14  1  0  0  0  0 
 11 15  2  0  0  0  0 
 12 16  1  0  0  0  0 
 12 17  2  0  0  0  0 
 14 18  2  0  0  0  0 
 15 18  1  0  0  0  0 
 16 19  1  0  0  0  0 
 16 20  1  0  0  0  0 
 19 21  1  0  0  0  0 
 19 22  1  0  0  0  0 
  7 23  1  0  0  0  0 
  9 24  1  0  0  0  0 
  9 25  1  0  0  0  0 
  9 26  1  0  0  0  0 
 10 27  1  0  0  0  0 
 11 28  1  0  0  0  0 
 13 29  1  0  0  0  0 
 13 30  1  0  0  0  0 
 13 31  1  0  0  0  0 
 14 32  1  0  0  0  0 
 15 33  1  0  0  0  0 
 16 34  1  0  0  0  0 
 18 35  1  0  0  0  0 
 20 36  1  0  0  0  0 
 20 37  1  0  0  0  0 
 20 38  1  0  0  0  0 
 21 39  1  0  0  0  0 
 21 40  1  0  0  0  0 
 21 41  1  0  0  0  0 
 22 42  1  0  0  0  0 
 22 43  1  0  0  0  0 
 22 44  1  0  0  0  0 
M  END
> <cdk:Title>
aminopropylone

> <Conformer>
1

> <SuperDrugID>
SD003139

$$$$
