razoxane
  CDK     0628171801

 35 36  0  0  0  0  0  0  0  0999 V2000
   -1.1116    3.4642    2.2125 C   0  0  1  0  0  0  0  0  0  0  0  0
   -0.2534    4.6799    2.6964 C   0  0  1  0  0  0  0  0  0  0  0  0
   -0.3375    2.3376    1.6032 N   0  0  2  0  0  0  0  0  0  0  0  0
   -1.1516    5.6725    3.4968 C   0  0  0  0  0  0  0  0  0  0  0  0
    1.0165    4.3049    3.4234 N   0  0  1  0  0  0  0  0  0  0  0  0
    0.2519    2.6303    0.2572 C   0  0  2  0  0  0  0  0  0  0  0  0
   -1.0633    1.0271    1.6577 C   0  0  1  0  0  0  0  0  0  0  0  0
    1.9810    5.4356    3.6367 C   0  0  2  0  0  0  0  0  0  0  0  0
    0.9001    3.3483    4.5725 C   0  0  1  0  0  0  0  0  0  0  0  0
    0.9976    1.4603   -0.2597 C   0  0  0  0  0  0  0  0  0  0  0  0
   -0.2167   -0.0595    1.1168 C   0  0  0  0  0  0  0  0  0  0  0  0
    3.2320    4.9947    4.2908 C   0  0  0  0  0  0  0  0  0  0  0  0
    2.2174    3.0321    5.1723 C   0  0  0  0  0  0  0  0  0  0  0  0
    1.8601    1.6135   -1.1537 O   0  0  0  0  0  0  0  0  0  0  0  0
    0.7462    0.2067    0.1972 N   0  0  0  0  0  0  0  0  0  0  0  0
   -0.3937   -1.2438    1.4824 O   0  0  0  0  0  0  0  0  0  0  0  0
    4.2544    5.7127    4.2348 O   0  0  0  0  0  0  0  0  0  0  0  0
    3.2906    3.8429    4.9998 N   0  0  0  0  0  0  0  0  0  0  0  0
    2.3526    2.0112    5.8825 O   0  0  0  0  0  0  0  0  0  0  0  0
   -1.6605    3.0916    3.0822 H   0  0  0  0  0  0  0  0  0  0  0  0
   -1.8617    3.8096    1.4929 H   0  0  0  0  0  0  0  0  0  0  0  0
    0.0481    5.2062    1.7852 H   0  0  0  0  0  0  0  0  0  0  0  0
   -2.1105    5.8221    2.9953 H   0  0  0  0  0  0  0  0  0  0  0  0
   -0.6713    6.6483    3.5798 H   0  0  0  0  0  0  0  0  0  0  0  0
   -1.3507    5.2982    4.5019 H   0  0  0  0  0  0  0  0  0  0  0  0
    0.9381    3.4750    0.3367 H   0  0  0  0  0  0  0  0  0  0  0  0
   -0.5273    2.8905   -0.4637 H   0  0  0  0  0  0  0  0  0  0  0  0
   -1.3106    0.7918    2.6953 H   0  0  0  0  0  0  0  0  0  0  0  0
   -1.9943    1.0729    1.0849 H   0  0  0  0  0  0  0  0  0  0  0  0
    1.5425    6.2155    4.2623 H   0  0  0  0  0  0  0  0  0  0  0  0
    2.2327    5.8746    2.6681 H   0  0  0  0  0  0  0  0  0  0  0  0
    0.2521    3.7472    5.3555 H   0  0  0  0  0  0  0  0  0  0  0  0
    0.4723    2.4112    4.2135 H   0  0  0  0  0  0  0  0  0  0  0  0
    1.2695   -0.5277   -0.1572 H   0  0  0  0  0  0  0  0  0  0  0  0
    4.1322    3.5987    5.4181 H   0  0  0  0  0  0  0  0  0  0  0  0
  2  1  1  0  0  0  0 
  1  3  1  0  0  0  0 
  2  4  1  0  0  0  0 
  2  5  1  0  0  0  0 
  3  6  1  0  0  0  0 
  3  7  1  0  0  0  0 
  5  8  1  0  0  0  0 
  5  9  1  0  0  0  0 
  6 10  1  0  0  0  0 
  7 11  1  0  0  0  0 
  8 12  1  0  0  0  0 
  9 13  1  0  0  0  0 
 10 14  2  0  0  0  0 
 10 15  1  0  0  0  0 
 11 15  1  0  0  0  0 
 11 16  2  0  0  0  0 
 12 17  2  0  0  0  0 
 12 18  1  0  0  0  0 
 13 18  1  0  0  0  0 
 13 19  2  0  0  0  0 
 20  1  1  0  0  0  0 
 21  1  1  0  0  0  0 
 22  2  1  0  0  0  0 
 23  4  1  0  0  0  0 
 24  4  1  0  0  0  0 
 25  4  1  0  0  0  0 
 26  6  1  0  0  0  0 
 27  6  1  0  0  0  0 
 28  7  1  0  0  0  0 
 29  7  1  0  0  0  0 
 30  8  1  0  0  0  0 
 31  8  1  0  0  0  0 
 32  9  1  0  0  0  0 
 33  9  1  0  0  0  0 
 34 15  1  0  0  0  0 
 35 18  1  0  0  0  0 
M  END
> <cdk:Title>
razoxane

> <Conformer>
1

> <SuperDrugID>
SD003332

$$$$
