bevantolol
  CDK     0628171801

 52 53  0  0  0  0  0  0  0  0999 V2000
    2.8838   -1.7466   -2.7397 O   0  0  0  0  0  0  0  0  0  0  0  0
    3.0390   -0.8071   -3.8194 C   0  0  0  0  0  0  0  0  0  0  0  0
    2.3298   -1.1736   -1.6272 C   0  0  0  0  0  0  0  0  0  0  0  0
    0.9300   -1.1781   -1.4363 C   0  0  0  0  0  0  0  0  0  0  0  0
    3.1674   -0.5927   -0.6548 C   0  0  0  0  0  0  0  0  0  0  0  0
    0.1061   -1.7662   -2.3593 O   0  0  0  0  0  0  0  0  0  0  0  0
    0.3790   -0.5530   -0.2993 C   0  0  0  0  0  0  0  0  0  0  0  0
    2.6125    0.0135    0.4843 C   0  0  0  0  0  0  0  0  0  0  0  0
   -0.1662   -3.1480   -2.0612 C   0  0  0  0  0  0  0  0  0  0  0  0
    1.2108    0.0511    0.6722 C   0  0  0  0  0  0  0  0  0  0  0  0
    0.6345    0.6800    1.8919 C   0  0  2  0  0  0  0  0  0  0  0  0
    0.4216   -0.3502    3.0277 C   0  0  1  0  0  0  0  0  0  0  0  0
    1.7107   -0.9777    3.4066 N   0  0  2  0  0  0  0  0  0  0  0  0
    1.6115   -2.0476    4.4210 C   0  0  1  0  0  0  0  0  0  0  0  0
    3.0081   -2.6542    4.7235 C   0  0  1  0  0  0  0  0  0  0  0  0
    2.9274   -3.7273    5.8389 C   0  0  1  0  0  0  0  0  0  0  0  0
    3.5415   -3.2287    3.5299 O   0  0  0  0  0  0  0  0  0  0  0  0
    4.2310   -4.2592    6.1691 O   0  0  0  0  0  0  0  0  0  0  0  0
    4.1444   -5.2194    7.1460 C   0  0  0  0  0  0  0  0  0  0  0  0
    3.9316   -6.5706    6.7946 C   0  0  0  0  0  0  0  0  0  0  0  0
    4.2412   -4.8646    8.5065 C   0  0  0  0  0  0  0  0  0  0  0  0
    3.7338   -7.5577    7.7879 C   0  0  0  0  0  0  0  0  0  0  0  0
    4.0661   -5.8387    9.5049 C   0  0  0  0  0  0  0  0  0  0  0  0
    3.4627   -8.9664    7.4096 C   0  0  0  0  0  0  0  0  0  0  0  0
    3.8027   -7.1755    9.1476 C   0  0  0  0  0  0  0  0  0  0  0  0
    3.4722   -1.3331   -4.6692 H   0  0  0  0  0  0  0  0  0  0  0  0
    2.0761   -0.3938   -4.1318 H   0  0  0  0  0  0  0  0  0  0  0  0
    3.7137    0.0089   -3.5461 H   0  0  0  0  0  0  0  0  0  0  0  0
    4.1830   -0.6054   -0.7804 H   0  0  0  0  0  0  0  0  0  0  0  0
   -0.6369   -0.5509   -0.1780 H   0  0  0  0  0  0  0  0  0  0  0  0
    3.2387    0.4248    1.1815 H   0  0  0  0  0  0  0  0  0  0  0  0
   -0.8328   -3.5363   -2.8311 H   0  0  0  0  0  0  0  0  0  0  0  0
    0.7471   -3.7488   -2.0702 H   0  0  0  0  0  0  0  0  0  0  0  0
   -0.6653   -3.2588   -1.0948 H   0  0  0  0  0  0  0  0  0  0  0  0
   -0.3212    1.1539    1.6475 H   0  0  0  0  0  0  0  0  0  0  0  0
    1.2919    1.4761    2.2545 H   0  0  0  0  0  0  0  0  0  0  0  0
   -0.0060    0.1636    3.8935 H   0  0  0  0  0  0  0  0  0  0  0  0
   -0.2909   -1.1088    2.6905 H   0  0  0  0  0  0  0  0  0  0  0  0
    2.2983   -0.2381    3.7980 H   0  0  0  0  0  0  0  0  0  0  0  0
    1.1857   -1.6312    5.3379 H   0  0  0  0  0  0  0  0  0  0  0  0
    0.9493   -2.8366    4.0534 H   0  0  0  0  0  0  0  0  0  0  0  0
    3.6816   -1.8557    5.0485 H   0  0  0  0  0  0  0  0  0  0  0  0
    2.4826   -3.2647    6.7267 H   0  0  0  0  0  0  0  0  0  0  0  0
    2.2655   -4.5293    5.4943 H   0  0  0  0  0  0  0  0  0  0  0  0
    4.4405   -3.5358    3.7707 H   0  0  0  0  0  0  0  0  0  0  0  0
    3.9045   -6.8265    5.8049 H   0  0  0  0  0  0  0  0  0  0  0  0
    4.4289   -3.8945    8.7733 H   0  0  0  0  0  0  0  0  0  0  0  0
    4.1271   -5.5770   10.4922 H   0  0  0  0  0  0  0  0  0  0  0  0
    2.8959   -9.4836    8.1869 H   0  0  0  0  0  0  0  0  0  0  0  0
    2.8771   -9.0150    6.4893 H   0  0  0  0  0  0  0  0  0  0  0  0
    4.4062   -9.4932    7.2556 H   0  0  0  0  0  0  0  0  0  0  0  0
    3.6683   -7.8694    9.8879 H   0  0  0  0  0  0  0  0  0  0  0  0
  1  2  1  0  0  0  0 
  1  3  1  0  0  0  0 
  3  4  2  0  0  0  0 
  3  5  1  0  0  0  0 
  4  6  1  0  0  0  0 
  4  7  1  0  0  0  0 
  5  8  2  0  0  0  0 
  6  9  1  0  0  0  0 
  7 10  2  0  0  0  0 
  8 10  1  0  0  0  0 
 10 11  1  0  0  0  0 
 11 12  1  0  0  0  0 
 12 13  1  0  0  0  0 
 13 14  1  0  0  0  0 
 15 14  1  0  0  0  0 
 15 16  1  0  0  0  0 
 15 17  1  0  0  0  0 
 16 18  1  0  0  0  0 
 18 19  1  0  0  0  0 
 19 20  2  0  0  0  0 
 19 21  1  0  0  0  0 
 20 22  1  0  0  0  0 
 21 23  2  0  0  0  0 
 22 24  1  0  0  0  0 
 22 25  2  0  0  0  0 
 23 25  1  0  0  0  0 
  2 26  1  0  0  0  0 
  2 27  1  0  0  0  0 
  2 28  1  0  0  0  0 
  5 29  1  0  0  0  0 
  7 30  1  0  0  0  0 
  8 31  1  0  0  0  0 
  9 32  1  0  0  0  0 
  9 33  1  0  0  0  0 
  9 34  1  0  0  0  0 
 11 35  1  0  0  0  0 
 11 36  1  0  0  0  0 
 12 37  1  0  0  0  0 
 12 38  1  0  0  0  0 
 13 39  1  0  0  0  0 
 14 40  1  0  0  0  0 
 14 41  1  0  0  0  0 
 15 42  1  0  0  0  0 
 16 43  1  0  0  0  0 
 16 44  1  0  0  0  0 
 17 45  1  0  0  0  0 
 20 46  1  0  0  0  0 
 21 47  1  0  0  0  0 
 23 48  1  0  0  0  0 
 24 49  1  0  0  0  0 
 24 50  1  0  0  0  0 
 24 51  1  0  0  0  0 
 25 52  1  0  0  0  0 
M  END
> <cdk:Title>
bevantolol

> <Conformer>
1

> <SuperDrugID>
SD000305

$$$$
