desoximetasone
  CDK     0628171802

 56 59  0  0  0  0  0  0  0  0999 V2000
    3.7164    4.9993    0.8271 F   0  0  0  0  0  0  0  0  0  0  0  0
    4.1093    3.9681    1.6728 C   0  0  2  0  0  0  0  0  0  0  0  0
    3.0766    3.9426    2.8772 C   0  0  2  0  0  0  0  0  0  0  0  0
    5.5926    4.3480    2.1477 C   0  0  2  0  0  0  0  0  0  0  0  0
    3.9582    2.6632    0.7928 C   0  0  1  0  0  0  0  0  0  0  0  0
    1.6276    3.6441    2.3575 C   0  0  1  0  0  0  0  0  0  0  0  0
    3.1450    5.2699    3.6898 C   0  0  1  0  0  0  0  0  0  0  0  0
    6.3094    3.2407    3.0063 C   0  0  0  0  0  0  0  0  0  0  0  0
    5.5000    5.5891    2.9903 C   0  0  0  0  0  0  0  0  0  0  0  0
    6.4791    4.5414    0.9688 C   0  0  0  0  0  0  0  0  0  0  0  0
    4.5508    1.5227    1.4046 O   0  0  0  0  0  0  0  0  0  0  0  0
    2.4786    2.3127    0.4124 C   0  0  1  0  0  0  0  0  0  0  0  0
    1.4992    2.2602    1.6400 C   0  0  1  0  0  0  0  0  0  0  0  0
    0.4341    3.6661    3.3353 C   0  0  2  0  0  0  0  0  0  0  0  0
    4.5890    5.5952    4.1421 C   0  0  2  0  0  0  0  0  0  0  0  0
    6.2002    6.7063    2.6850 C   0  0  0  0  0  0  0  0  0  0  0  0
    7.1459    5.6818    0.7248 C   0  0  0  0  0  0  0  0  0  0  0  0
    1.8126    1.0044    2.5452 C   0  0  0  0  0  0  0  0  0  0  0  0
   -0.0353    2.2923    1.2941 C   0  0  2  0  0  0  0  0  0  0  0  0
   -0.7072    2.9281    2.5684 C   0  0  2  0  0  0  0  0  0  0  0  0
    7.0262    6.7641    1.5751 C   0  0  0  0  0  0  0  0  0  0  0  0
   -0.6528    1.0119    0.8209 C   0  0  0  0  0  0  0  0  0  0  0  0
   -1.9067    3.8492    2.2140 C   0  0  0  0  0  0  0  0  0  0  0  0
    7.6650    7.8147    1.3312 O   0  0  0  0  0  0  0  0  0  0  0  0
   -0.6460    0.6120   -0.6049 C   0  0  1  0  0  0  0  0  0  0  0  0
   -1.1905    0.2276    1.6391 O   0  0  0  0  0  0  0  0  0  0  0  0
   -1.3136    1.5769   -1.4107 O   0  0  0  0  0  0  0  0  0  0  0  0
    3.3539    3.1521    3.5752 H   0  0  0  0  0  0  0  0  0  0  0  0
    1.4034    4.4456    1.6373 H   0  0  0  0  0  0  0  0  0  0  0  0
    4.5013    2.8032   -0.1449 H   0  0  0  0  0  0  0  0  0  0  0  0
    2.7634    6.0980    3.0830 H   0  0  0  0  0  0  0  0  0  0  0  0
    2.5167    5.1964    4.5817 H   0  0  0  0  0  0  0  0  0  0  0  0
    7.2177    3.6347    3.4705 H   0  0  0  0  0  0  0  0  0  0  0  0
    6.6169    2.3824    2.4065 H   0  0  0  0  0  0  0  0  0  0  0  0
    5.6662    2.8648    3.8004 H   0  0  0  0  0  0  0  0  0  0  0  0
    6.6078    3.7921    0.3275 H   0  0  0  0  0  0  0  0  0  0  0  0
    4.3829    0.7811    0.7853 H   0  0  0  0  0  0  0  0  0  0  0  0
    2.1300    3.0643   -0.3015 H   0  0  0  0  0  0  0  0  0  0  0  0
    2.4652    1.3572   -0.1155 H   0  0  0  0  0  0  0  0  0  0  0  0
    0.1638    4.6911    3.6039 H   0  0  0  0  0  0  0  0  0  0  0  0
    0.6938    3.1334    4.2550 H   0  0  0  0  0  0  0  0  0  0  0  0
    4.9204    4.8584    4.8777 H   0  0  0  0  0  0  0  0  0  0  0  0
    4.5681    6.5593    4.6609 H   0  0  0  0  0  0  0  0  0  0  0  0
    6.1251    7.5205    3.2538 H   0  0  0  0  0  0  0  0  0  0  0  0
    7.7337    5.7488   -0.0759 H   0  0  0  0  0  0  0  0  0  0  0  0
    2.7852    1.0608    3.0217 H   0  0  0  0  0  0  0  0  0  0  0  0
    1.0838    0.8833    3.3467 H   0  0  0  0  0  0  0  0  0  0  0  0
    1.7935    0.0920    1.9462 H   0  0  0  0  0  0  0  0  0  0  0  0
   -0.1683    3.0061    0.4728 H   0  0  0  0  0  0  0  0  0  0  0  0
   -1.0898    2.1472    3.2354 H   0  0  0  0  0  0  0  0  0  0  0  0
   -1.5728    4.6934    1.6063 H   0  0  0  0  0  0  0  0  0  0  0  0
   -2.6552    3.2853    1.6545 H   0  0  0  0  0  0  0  0  0  0  0  0
   -2.3713    4.2338    3.1230 H   0  0  0  0  0  0  0  0  0  0  0  0
    0.3783    0.5040   -0.9574 H   0  0  0  0  0  0  0  0  0  0  0  0
   -1.1482   -0.3482   -0.7398 H   0  0  0  0  0  0  0  0  0  0  0  0
   -2.2362    1.5841   -1.0817 H   0  0  0  0  0  0  0  0  0  0  0  0
  2  1  1  0  0  0  0 
  3  2  1  0  0  0  0 
  2  4  1  0  0  0  0 
  2  5  1  0  0  0  0 
  6  3  1  0  0  0  0 
  3  7  1  0  0  0  0 
  3 28  1  0  0  0  0 
  4  8  1  0  0  0  0 
  4  9  1  0  0  0  0 
  4 10  1  0  0  0  0 
  5 11  1  0  0  0  0 
  5 12  1  0  0  0  0 
 13  6  1  0  0  0  0 
  6 14  1  0  0  0  0 
  6 29  1  0  0  0  0 
  7 15  1  0  0  0  0 
  9 15  1  0  0  0  0 
  9 16  2  0  0  0  0 
 10 17  2  0  0  0  0 
 13 12  1  0  0  0  0 
 13 18  1  0  0  0  0 
 13 19  1  0  0  0  0 
 20 14  1  0  0  0  0 
 16 21  1  0  0  0  0 
 17 21  1  0  0  0  0 
 19 20  1  0  0  0  0 
 19 22  1  0  0  0  0 
 20 23  1  0  0  0  0 
 21 24  2  0  0  0  0 
 22 25  1  0  0  0  0 
 22 26  2  0  0  0  0 
 25 27  1  0  0  0  0 
  5 30  1  0  0  0  0 
  7 31  1  0  0  0  0 
  7 32  1  0  0  0  0 
  8 33  1  0  0  0  0 
  8 34  1  0  0  0  0 
  8 35  1  0  0  0  0 
 10 36  1  0  0  0  0 
 11 37  1  0  0  0  0 
 12 38  1  0  0  0  0 
 12 39  1  0  0  0  0 
 14 40  1  0  0  0  0 
 14 41  1  0  0  0  0 
 15 42  1  0  0  0  0 
 15 43  1  0  0  0  0 
 16 44  1  0  0  0  0 
 17 45  1  0  0  0  0 
 18 46  1  0  0  0  0 
 18 47  1  0  0  0  0 
 18 48  1  0  0  0  0 
 19 49  1  0  0  0  0 
 20 50  1  0  0  0  0 
 23 51  1  0  0  0  0 
 23 52  1  0  0  0  0 
 23 53  1  0  0  0  0 
 25 54  1  0  0  0  0 
 25 55  1  0  0  0  0 
 27 56  1  0  0  0  0 
M  END
> <cdk:Title>
desoximetasone

> <Conformer>
1

> <SuperDrugID>
SD000723

$$$$
