setastine
  CDK     0628171801

 53 55  0  0  0  0  0  0  0  0999 V2000
   -1.0429   -1.0817   -0.0248 C   0  0  2  0  0  0  0  0  0  0  0  0
    0.1147   -1.7714    0.5482 O   0  0  0  0  0  0  0  0  0  0  0  0
   -2.2393   -1.3204    0.9662 C   0  0  0  0  0  0  0  0  0  0  0  0
   -1.2444   -1.5581   -1.4487 C   0  0  0  0  0  0  0  0  0  0  0  0
   -0.7707    0.4088   -0.0819 C   0  0  0  0  0  0  0  0  0  0  0  0
    0.1155   -3.2068    0.7370 C   0  0  2  0  0  0  0  0  0  0  0  0
   -2.5246   -1.7732   -2.0224 C   0  0  0  0  0  0  0  0  0  0  0  0
   -0.1138   -1.8016   -2.2730 C   0  0  0  0  0  0  0  0  0  0  0  0
    0.4484    0.9809    0.3718 C   0  0  0  0  0  0  0  0  0  0  0  0
   -1.7478    1.3079   -0.5938 C   0  0  0  0  0  0  0  0  0  0  0  0
    1.5281   -3.6797    1.1495 C   0  0  2  0  0  0  0  0  0  0  0  0
   -2.6669   -2.2449   -3.3414 C   0  0  0  0  0  0  0  0  0  0  0  0
   -0.2495   -2.2963   -3.5828 C   0  0  0  0  0  0  0  0  0  0  0  0
    0.6705    2.3707    0.3391 C   0  0  0  0  0  0  0  0  0  0  0  0
   -1.5359    2.6990   -0.6177 C   0  0  0  0  0  0  0  0  0  0  0  0
    2.5579   -3.2816    0.1375 N   0  0  0  0  0  0  0  0  0  0  0  0
   -1.5286   -2.5240   -4.1199 C   0  0  0  0  0  0  0  0  0  0  0  0
   -0.3249    3.2314   -0.1494 C   0  0  0  0  0  0  0  0  0  0  0  0
    3.0221   -4.2926   -0.8594 C   0  0  1  0  0  0  0  0  0  0  0  0
    3.5334   -2.2185    0.5135 C   0  0  2  0  0  0  0  0  0  0  0  0
   -1.6984   -3.1335   -5.6905 Cl  0  0  0  0  0  0  0  0  0  0  0  0
    4.0038   -5.3597   -0.3111 C   0  0  2  0  0  0  0  0  0  0  0  0
    4.5518   -2.5912    1.6282 C   0  0  2  0  0  0  0  0  0  0  0  0
    5.2666   -4.8028    0.4014 C   0  0  2  0  0  0  0  0  0  0  0  0
    4.9689   -4.0831    1.7449 C   0  0  2  0  0  0  0  0  0  0  0  0
   -3.0926   -0.6713    0.7666 H   0  0  0  0  0  0  0  0  0  0  0  0
   -2.5972   -2.3504    0.9053 H   0  0  0  0  0  0  0  0  0  0  0  0
   -1.9161   -1.1309    1.9940 H   0  0  0  0  0  0  0  0  0  0  0  0
   -0.1818   -3.7343   -0.1707 H   0  0  0  0  0  0  0  0  0  0  0  0
   -0.5832   -3.4707    1.5323 H   0  0  0  0  0  0  0  0  0  0  0  0
   -3.3753   -1.5861   -1.4897 H   0  0  0  0  0  0  0  0  0  0  0  0
    0.8299   -1.6342   -1.9164 H   0  0  0  0  0  0  0  0  0  0  0  0
    1.1974    0.3946    0.7385 H   0  0  0  0  0  0  0  0  0  0  0  0
   -2.6369    0.9556   -0.9545 H   0  0  0  0  0  0  0  0  0  0  0  0
    1.5074   -4.7649    1.2733 H   0  0  0  0  0  0  0  0  0  0  0  0
    1.7567   -3.2558    2.1312 H   0  0  0  0  0  0  0  0  0  0  0  0
   -3.6033   -2.3883   -3.7293 H   0  0  0  0  0  0  0  0  0  0  0  0
    0.5873   -2.4906   -4.1377 H   0  0  0  0  0  0  0  0  0  0  0  0
    1.5559    2.7571    0.6750 H   0  0  0  0  0  0  0  0  0  0  0  0
   -2.2637    3.3237   -0.9735 H   0  0  0  0  0  0  0  0  0  0  0  0
   -0.1691    4.2419   -0.1641 H   0  0  0  0  0  0  0  0  0  0  0  0
    2.1489   -4.8045   -1.2715 H   0  0  0  0  0  0  0  0  0  0  0  0
    3.4992   -3.7804   -1.6998 H   0  0  0  0  0  0  0  0  0  0  0  0
    2.9726   -1.3401    0.8391 H   0  0  0  0  0  0  0  0  0  0  0  0
    4.0833   -1.9033   -0.3778 H   0  0  0  0  0  0  0  0  0  0  0  0
    4.3335   -5.9780   -1.1513 H   0  0  0  0  0  0  0  0  0  0  0  0
    3.4651   -6.0193    0.3723 H   0  0  0  0  0  0  0  0  0  0  0  0
    4.1328   -2.2903    2.5923 H   0  0  0  0  0  0  0  0  0  0  0  0
    5.4543   -1.9908    1.4797 H   0  0  0  0  0  0  0  0  0  0  0  0
    5.8171   -4.1367   -0.2679 H   0  0  0  0  0  0  0  0  0  0  0  0
    5.9199   -5.6541    0.6143 H   0  0  0  0  0  0  0  0  0  0  0  0
    4.1985   -4.6345    2.2906 H   0  0  0  0  0  0  0  0  0  0  0  0
    5.8714   -4.1222    2.3621 H   0  0  0  0  0  0  0  0  0  0  0  0
  1  2  1  0  0  0  0 
  1  3  1  0  0  0  0 
  1  4  1  0  0  0  0 
  1  5  1  0  0  0  0 
  2  6  1  0  0  0  0 
  4  7  2  0  0  0  0 
  4  8  1  0  0  0  0 
  5  9  2  0  0  0  0 
  5 10  1  0  0  0  0 
  6 11  1  0  0  0  0 
  7 12  1  0  0  0  0 
  8 13  2  0  0  0  0 
  9 14  1  0  0  0  0 
 10 15  2  0  0  0  0 
 11 16  1  0  0  0  0 
 12 17  2  0  0  0  0 
 13 17  1  0  0  0  0 
 14 18  2  0  0  0  0 
 15 18  1  0  0  0  0 
 16 19  1  0  0  0  0 
 16 20  1  0  0  0  0 
 17 21  1  0  0  0  0 
 19 22  1  0  0  0  0 
 20 23  1  0  0  0  0 
 22 24  1  0  0  0  0 
 23 25  1  0  0  0  0 
 24 25  1  0  0  0  0 
  3 26  1  0  0  0  0 
  3 27  1  0  0  0  0 
  3 28  1  0  0  0  0 
  6 29  1  0  0  0  0 
  6 30  1  0  0  0  0 
  7 31  1  0  0  0  0 
  8 32  1  0  0  0  0 
  9 33  1  0  0  0  0 
 10 34  1  0  0  0  0 
 11 35  1  0  0  0  0 
 11 36  1  0  0  0  0 
 12 37  1  0  0  0  0 
 13 38  1  0  0  0  0 
 14 39  1  0  0  0  0 
 15 40  1  0  0  0  0 
 18 41  1  0  0  0  0 
 19 42  1  0  0  0  0 
 19 43  1  0  0  0  0 
 20 44  1  0  0  0  0 
 20 45  1  0  0  0  0 
 22 46  1  0  0  0  0 
 22 47  1  0  0  0  0 
 23 48  1  0  0  0  0 
 23 49  1  0  0  0  0 
 24 50  1  0  0  0  0 
 24 51  1  0  0  0  0 
 25 52  1  0  0  0  0 
 25 53  1  0  0  0  0 
M  END
> <cdk:Title>
setastine

> <Conformer>
1

> <SuperDrugID>
SD002191

$$$$
