ornoprostil
  CDK     0628171801

 67 67  0  0  0  0  0  0  0  0999 V2000
   -3.4402    5.2259    7.6089 C   0  0  0  0  0  0  0  0  0  0  0  0
   -3.7973    5.1900    8.9034 C   0  0  0  0  0  0  0  0  0  0  0  0
   -3.4273    6.4486    6.8097 C   0  0  2  0  0  0  0  0  0  0  0  0
   -3.7697    3.9617    9.6862 C   0  0  2  0  0  0  0  0  0  0  0  0
   -3.1102    6.1985    5.3010 C   0  0  1  0  0  0  0  0  0  0  0  0
   -2.3440    7.4708    7.2448 C   0  0  2  0  0  0  0  0  0  0  0  0
   -5.1829    3.3102    9.7507 C   0  0  1  0  0  0  0  0  0  0  0  0
   -3.2784    4.2798   10.9890 O   0  0  0  0  0  0  0  0  0  0  0  0
   -4.3852    5.8438    4.4750 C   0  0  2  0  0  0  0  0  0  0  0  0
   -2.4370    7.4409    4.8916 C   0  0  0  0  0  0  0  0  0  0  0  0
   -2.7548    8.2590    8.3590 O   0  0  0  0  0  0  0  0  0  0  0  0
   -2.0958    8.3347    5.9950 C   0  0  2  0  0  0  0  0  0  0  0  0
   -5.2487    1.8885   10.4051 C   0  0  2  0  0  0  0  0  0  0  0  0
   -4.1145    5.4038    3.0831 C   0  0  0  0  0  0  0  0  0  0  0  0
   -2.1256    7.6985    3.7064 O   0  0  0  0  0  0  0  0  0  0  0  0
   -4.4267    0.7727    9.6723 C   0  0  1  0  0  0  0  0  0  0  0  0
   -6.7306    1.4664   10.6116 C   0  0  0  0  0  0  0  0  0  0  0  0
   -3.5534    4.0687    2.7605 C   0  0  1  0  0  0  0  0  0  0  0  0
   -4.3941    6.1790    2.1376 O   0  0  0  0  0  0  0  0  0  0  0  0
   -4.7397    0.5632    8.1629 C   0  0  1  0  0  0  0  0  0  0  0  0
   -2.0914    4.1254    2.2318 C   0  0  2  0  0  0  0  0  0  0  0  0
   -3.8667   -0.5459    7.5180 C   0  0  1  0  0  0  0  0  0  0  0  0
   -1.6461    2.6581    1.7141 C   0  0  2  0  0  0  0  0  0  0  0  0
   -4.1700   -0.7364    6.0139 C   0  0  0  0  0  0  0  0  0  0  0  0
   -0.0345    2.5458    1.7026 C   0  0  2  0  0  0  0  0  0  0  0  0
    0.3599    1.1870    1.2820 C   0  0  0  0  0  0  0  0  0  0  0  0
    0.9710    0.3542    2.1781 O   0  0  0  0  0  0  0  0  0  0  0  0
    0.1303    0.8188    0.1056 O   0  0  0  0  0  0  0  0  0  0  0  0
    1.4702   -0.9565    1.8998 C   0  0  0  0  0  0  0  0  0  0  0  0
   -3.1696    4.3740    7.1721 H   0  0  0  0  0  0  0  0  0  0  0  0
   -4.0951    6.0307    9.3474 H   0  0  0  0  0  0  0  0  0  0  0  0
   -4.4131    6.9284    6.8965 H   0  0  0  0  0  0  0  0  0  0  0  0
   -3.0571    3.2585    9.2429 H   0  0  0  0  0  0  0  0  0  0  0  0
   -2.3678    5.3997    5.2061 H   0  0  0  0  0  0  0  0  0  0  0  0
   -1.4170    6.9530    7.5158 H   0  0  0  0  0  0  0  0  0  0  0  0
   -5.8274    3.9896   10.3153 H   0  0  0  0  0  0  0  0  0  0  0  0
   -5.6022    3.2546    8.7417 H   0  0  0  0  0  0  0  0  0  0  0  0
   -3.2214    3.4206   11.4551 H   0  0  0  0  0  0  0  0  0  0  0  0
   -5.0527    6.7104    4.4654 H   0  0  0  0  0  0  0  0  0  0  0  0
   -4.9227    5.0360    4.9763 H   0  0  0  0  0  0  0  0  0  0  0  0
   -1.9945    8.8450    8.5523 H   0  0  0  0  0  0  0  0  0  0  0  0
   -1.0514    8.6536    5.9376 H   0  0  0  0  0  0  0  0  0  0  0  0
   -2.7566    9.2045    5.9716 H   0  0  0  0  0  0  0  0  0  0  0  0
   -4.8205    1.9769   11.4085 H   0  0  0  0  0  0  0  0  0  0  0  0
   -3.3617    0.9912    9.7776 H   0  0  0  0  0  0  0  0  0  0  0  0
   -4.5927   -0.1769   10.1899 H   0  0  0  0  0  0  0  0  0  0  0  0
   -7.2323    2.1659   11.2827 H   0  0  0  0  0  0  0  0  0  0  0  0
   -7.2681    1.4541    9.6630 H   0  0  0  0  0  0  0  0  0  0  0  0
   -6.7906    0.4738   11.0584 H   0  0  0  0  0  0  0  0  0  0  0  0
   -3.5741    3.4358    3.6529 H   0  0  0  0  0  0  0  0  0  0  0  0
   -4.2012    3.5989    2.0163 H   0  0  0  0  0  0  0  0  0  0  0  0
   -5.7930    0.2984    8.0450 H   0  0  0  0  0  0  0  0  0  0  0  0
   -4.5562    1.4915    7.6178 H   0  0  0  0  0  0  0  0  0  0  0  0
   -1.4803    4.5373    3.0811 H   0  0  0  0  0  0  0  0  0  0  0  0
   -2.0478    4.9315    1.4481 H   0  0  0  0  0  0  0  0  0  0  0  0
   -2.8095   -0.2867    7.6295 H   0  0  0  0  0  0  0  0  0  0  0  0
   -4.0373   -1.4950    8.0330 H   0  0  0  0  0  0  0  0  0  0  0  0
   -2.0385    2.5077    0.7058 H   0  0  0  0  0  0  0  0  0  0  0  0
   -2.0508    1.8854    2.3717 H   0  0  0  0  0  0  0  0  0  0  0  0
   -3.5112   -1.5053    5.6047 H   0  0  0  0  0  0  0  0  0  0  0  0
   -5.2072   -1.0501    5.8692 H   0  0  0  0  0  0  0  0  0  0  0  0
   -4.0014    0.1961    5.4679 H   0  0  0  0  0  0  0  0  0  0  0  0
    0.4580    2.7273    2.6956 H   0  0  0  0  0  0  0  0  0  0  0  0
    0.4985    3.2474    1.0085 H   0  0  0  0  0  0  0  0  0  0  0  0
    0.6775   -1.5882    1.4943 H   0  0  0  0  0  0  0  0  0  0  0  0
    1.8378   -1.3972    2.8262 H   0  0  0  0  0  0  0  0  0  0  0  0
    2.2928   -0.8974    1.1851 H   0  0  0  0  0  0  0  0  0  0  0  0
  1  2  2  0  0  0  0 
  4  2  1  0  0  0  0 
  3  1  1  0  0  0  0 
  3  5  1  0  0  0  0 
  6  3  1  0  0  0  0 
  4  7  1  0  0  0  0 
  4  8  1  0  0  0  0 
  5  9  1  0  0  0  0 
  5 10  1  0  0  0  0 
  6 11  1  0  0  0  0 
  6 12  1  0  0  0  0 
 13  7  1  0  0  0  0 
  9 14  1  0  0  0  0 
 10 12  1  0  0  0  0 
 10 15  2  0  0  0  0 
 13 16  1  0  0  0  0 
 13 17  1  0  0  0  0 
 14 18  1  0  0  0  0 
 14 19  2  0  0  0  0 
 16 20  1  0  0  0  0 
 18 21  1  0  0  0  0 
 20 22  1  0  0  0  0 
 21 23  1  0  0  0  0 
 22 24  1  0  0  0  0 
 23 25  1  0  0  0  0 
 25 26  1  0  0  0  0 
 26 27  1  0  0  0  0 
 26 28  2  0  0  0  0 
 27 29  1  0  0  0  0 
  1 30  1  0  0  0  0 
  2 31  1  0  0  0  0 
  3 32  1  0  0  0  0 
  4 33  1  0  0  0  0 
  5 34  1  0  0  0  0 
  6 35  1  0  0  0  0 
  7 36  1  0  0  0  0 
  7 37  1  0  0  0  0 
  8 38  1  0  0  0  0 
  9 39  1  0  0  0  0 
  9 40  1  0  0  0  0 
 11 41  1  0  0  0  0 
 12 42  1  0  0  0  0 
 12 43  1  0  0  0  0 
 13 44  1  0  0  0  0 
 16 45  1  0  0  0  0 
 16 46  1  0  0  0  0 
 17 47  1  0  0  0  0 
 17 48  1  0  0  0  0 
 17 49  1  0  0  0  0 
 18 50  1  0  0  0  0 
 18 51  1  0  0  0  0 
 20 52  1  0  0  0  0 
 20 53  1  0  0  0  0 
 21 54  1  0  0  0  0 
 21 55  1  0  0  0  0 
 22 56  1  0  0  0  0 
 22 57  1  0  0  0  0 
 23 58  1  0  0  0  0 
 23 59  1  0  0  0  0 
 24 60  1  0  0  0  0 
 24 61  1  0  0  0  0 
 24 62  1  0  0  0  0 
 25 63  1  0  0  0  0 
 25 64  1  0  0  0  0 
 29 65  1  0  0  0  0 
 29 66  1  0  0  0  0 
 29 67  1  0  0  0  0 
M  END
> <cdk:Title>
ornoprostil

> <Conformer>
1

> <SuperDrugID>
SD001787

$$$$
