methaqualone
  CDK     0628171801

 33 35  0  0  0  0  0  0  0  0999 V2000
    0.9028   -2.4951    1.6114 O   0  0  0  0  0  0  0  0  0  0  0  0
    0.5491   -3.0061    0.5176 C   0  0  0  0  0  0  0  0  0  0  0  0
    0.2849   -2.2145   -0.5781 N   0  0  0  0  0  0  0  0  0  0  0  0
    0.4168   -4.4125    0.4379 C   0  0  0  0  0  0  0  0  0  0  0  0
   -0.1387   -2.7801   -1.7606 C   0  0  0  0  0  0  0  0  0  0  0  0
    0.4187   -0.8495   -0.4704 C   0  0  0  0  0  0  0  0  0  0  0  0
   -0.0011   -4.9577   -0.8022 C   0  0  0  0  0  0  0  0  0  0  0  0
    0.6647   -5.2844    1.5247 C   0  0  0  0  0  0  0  0  0  0  0  0
   -0.4947   -2.0024   -2.9732 C   0  0  0  0  0  0  0  0  0  0  0  0
   -0.2609   -4.1307   -1.8418 N   0  0  0  0  0  0  0  0  0  0  0  0
    1.6470   -0.1827   -0.7392 C   0  0  0  0  0  0  0  0  0  0  0  0
   -0.7164   -0.1041   -0.0810 C   0  0  0  0  0  0  0  0  0  0  0  0
   -0.1661   -6.3511   -0.9472 C   0  0  0  0  0  0  0  0  0  0  0  0
    0.4914   -6.6729    1.3783 C   0  0  0  0  0  0  0  0  0  0  0  0
    2.8583   -0.9387   -1.1472 C   0  0  0  0  0  0  0  0  0  0  0  0
    1.6982    1.2262   -0.6145 C   0  0  0  0  0  0  0  0  0  0  0  0
   -0.6455    1.2942    0.0354 C   0  0  0  0  0  0  0  0  0  0  0  0
    0.0775   -7.2052    0.1447 C   0  0  0  0  0  0  0  0  0  0  0  0
    0.5624    1.9596   -0.2306 C   0  0  0  0  0  0  0  0  0  0  0  0
    0.9669   -4.9177    2.4316 H   0  0  0  0  0  0  0  0  0  0  0  0
    0.3688   -1.4273   -3.3104 H   0  0  0  0  0  0  0  0  0  0  0  0
   -0.8159   -2.6527   -3.7902 H   0  0  0  0  0  0  0  0  0  0  0  0
   -1.3124   -1.3162   -2.7453 H   0  0  0  0  0  0  0  0  0  0  0  0
   -1.6025   -0.5778    0.1151 H   0  0  0  0  0  0  0  0  0  0  0  0
   -0.4721   -6.7451   -1.8410 H   0  0  0  0  0  0  0  0  0  0  0  0
    0.6662   -7.2945    2.1722 H   0  0  0  0  0  0  0  0  0  0  0  0
    2.6659   -1.4730   -2.0793 H   0  0  0  0  0  0  0  0  0  0  0  0
    3.7208   -0.2862   -1.3068 H   0  0  0  0  0  0  0  0  0  0  0  0
    3.1219   -1.6590   -0.3718 H   0  0  0  0  0  0  0  0  0  0  0  0
    2.5656    1.7329   -0.8062 H   0  0  0  0  0  0  0  0  0  0  0  0
   -1.4734    1.8270    0.3109 H   0  0  0  0  0  0  0  0  0  0  0  0
   -0.0494   -8.2153    0.0442 H   0  0  0  0  0  0  0  0  0  0  0  0
    0.6089    2.9777   -0.1477 H   0  0  0  0  0  0  0  0  0  0  0  0
  1  2  2  0  0  0  0 
  2  3  1  0  0  0  0 
  2  4  1  0  0  0  0 
  3  5  1  0  0  0  0 
  3  6  1  0  0  0  0 
  4  7  1  0  0  0  0 
  4  8  2  0  0  0  0 
  5  9  1  0  0  0  0 
  5 10  2  0  0  0  0 
  6 11  2  0  0  0  0 
  6 12  1  0  0  0  0 
  7 10  1  0  0  0  0 
  7 13  2  0  0  0  0 
  8 14  1  0  0  0  0 
 11 15  1  0  0  0  0 
 11 16  1  0  0  0  0 
 12 17  2  0  0  0  0 
 13 18  1  0  0  0  0 
 14 18  2  0  0  0  0 
 16 19  2  0  0  0  0 
 17 19  1  0  0  0  0 
  8 20  1  0  0  0  0 
  9 21  1  0  0  0  0 
  9 22  1  0  0  0  0 
  9 23  1  0  0  0  0 
 12 24  1  0  0  0  0 
 13 25  1  0  0  0  0 
 14 26  1  0  0  0  0 
 15 27  1  0  0  0  0 
 15 28  1  0  0  0  0 
 15 29  1  0  0  0  0 
 16 30  1  0  0  0  0 
 17 31  1  0  0  0  0 
 18 32  1  0  0  0  0 
 19 33  1  0  0  0  0 
M  END
> <cdk:Title>
methaqualone

> <Conformer>
1

> <SuperDrugID>
SD001539

$$$$
