phenbutamide
  CDK     0628171801

 33 33  0  0  0  0  0  0  0  0999 V2000
   -1.3658   -1.5498    0.0403 S   0  0  1  0  0  0  0  0  0  0  0  0
   -0.3592   -1.4604   -1.3539 N   0  0  0  0  0  0  0  0  0  0  0  0
   -2.7006   -2.3476   -0.3589 O   0  0  0  0  0  0  0  0  0  0  0  0
   -0.6293   -2.3552    1.2178 O   0  0  0  0  0  0  0  0  0  0  0  0
   -1.8005    0.0822    0.5905 C   0  0  0  0  0  0  0  0  0  0  0  0
    0.6485   -2.3199   -1.6544 C   0  0  0  0  0  0  0  0  0  0  0  0
   -1.1770    0.6510    1.7227 C   0  0  0  0  0  0  0  0  0  0  0  0
   -2.7770    0.8269   -0.1052 C   0  0  0  0  0  0  0  0  0  0  0  0
    1.3368   -2.1027   -2.8095 N   0  0  0  0  0  0  0  0  0  0  0  0
    0.9399   -3.2798   -0.9010 O   0  0  0  0  0  0  0  0  0  0  0  0
   -1.5245    1.9461    2.1522 C   0  0  0  0  0  0  0  0  0  0  0  0
   -3.1249    2.1223    0.3238 C   0  0  0  0  0  0  0  0  0  0  0  0
    2.4429   -2.8888   -3.2690 C   0  0  1  0  0  0  0  0  0  0  0  0
   -2.5001    2.6810    1.4540 C   0  0  0  0  0  0  0  0  0  0  0  0
    3.0356   -2.3225   -4.5861 C   0  0  2  0  0  0  0  0  0  0  0  0
    4.2892   -3.0980   -5.0816 C   0  0  2  0  0  0  0  0  0  0  0  0
    4.9351   -2.4701   -6.3386 C   0  0  0  0  0  0  0  0  0  0  0  0
   -0.5395   -0.7455   -1.9857 H   0  0  0  0  0  0  0  0  0  0  0  0
   -0.4694    0.1271    2.2420 H   0  0  0  0  0  0  0  0  0  0  0  0
   -3.2414    0.4300   -0.9254 H   0  0  0  0  0  0  0  0  0  0  0  0
    1.0540   -1.3582   -3.3641 H   0  0  0  0  0  0  0  0  0  0  0  0
   -1.0677    2.3539    2.9712 H   0  0  0  0  0  0  0  0  0  0  0  0
   -3.8312    2.6585   -0.1856 H   0  0  0  0  0  0  0  0  0  0  0  0
    3.2173   -2.8957   -2.4966 H   0  0  0  0  0  0  0  0  0  0  0  0
    2.1100   -3.9161   -3.4403 H   0  0  0  0  0  0  0  0  0  0  0  0
   -2.7544    3.6199    1.7674 H   0  0  0  0  0  0  0  0  0  0  0  0
    3.3029   -1.2737   -4.4320 H   0  0  0  0  0  0  0  0  0  0  0  0
    2.2638   -2.3650   -5.3598 H   0  0  0  0  0  0  0  0  0  0  0  0
    4.0143   -4.1313   -5.3078 H   0  0  0  0  0  0  0  0  0  0  0  0
    5.0418   -3.1146   -4.2911 H   0  0  0  0  0  0  0  0  0  0  0  0
    5.8148   -3.0443   -6.6354 H   0  0  0  0  0  0  0  0  0  0  0  0
    5.2502   -1.4460   -6.1310 H   0  0  0  0  0  0  0  0  0  0  0  0
    4.2297   -2.4622   -7.1703 H   0  0  0  0  0  0  0  0  0  0  0  0
  1  2  1  0  0  0  0 
  1  3  2  0  0  0  0 
  1  4  2  0  0  0  0 
  1  5  1  0  0  0  0 
  2  6  1  0  0  0  0 
  5  7  2  0  0  0  0 
  5  8  1  0  0  0  0 
  6  9  1  0  0  0  0 
  6 10  2  0  0  0  0 
  7 11  1  0  0  0  0 
  8 12  2  0  0  0  0 
  9 13  1  0  0  0  0 
 11 14  2  0  0  0  0 
 12 14  1  0  0  0  0 
 13 15  1  0  0  0  0 
 15 16  1  0  0  0  0 
 16 17  1  0  0  0  0 
  2 18  1  0  0  0  0 
  7 19  1  0  0  0  0 
  8 20  1  0  0  0  0 
  9 21  1  0  0  0  0 
 11 22  1  0  0  0  0 
 12 23  1  0  0  0  0 
 13 24  1  0  0  0  0 
 13 25  1  0  0  0  0 
 14 26  1  0  0  0  0 
 15 27  1  0  0  0  0 
 15 28  1  0  0  0  0 
 16 29  1  0  0  0  0 
 16 30  1  0  0  0  0 
 17 31  1  0  0  0  0 
 17 32  1  0  0  0  0 
 17 33  1  0  0  0  0 
M  END
> <cdk:Title>
phenbutamide

> <Conformer>
1

> <SuperDrugID>
SD003250

$$$$
