calcium pantothenate
  CDK     0628171801

 32 31  0  0  0  0  0  0  0  0999 V2000
   -3.0115   -0.8962    0.9301 C   0  0  2  0  0  0  0  0  0  0  0  0
   -3.3108   -0.1737    2.3014 C   0  0  1  0  0  0  0  0  0  0  0  0
   -3.9007   -0.5306   -0.1997 C   0  0  0  0  0  0  0  0  0  0  0  0
   -3.0296   -2.3191    1.0386 O   0  0  0  0  0  0  0  0  0  0  0  0
   -2.2343   -0.5700    3.3749 C   0  0  1  0  0  0  0  0  0  0  0  0
   -3.2170    1.3796    2.1235 C   0  0  0  0  0  0  0  0  0  0  0  0
   -4.7337   -0.5380    2.8399 C   0  0  0  0  0  0  0  0  0  0  0  0
   -3.4318    0.3311   -1.1382 N   0  0  0  0  0  0  0  0  0  0  0  0
   -5.0496   -1.0278   -0.2869 O   0  0  0  0  0  0  0  0  0  0  0  0
   -2.3106   -1.9386    3.7657 O   0  0  0  0  0  0  0  0  0  0  0  0
   -4.1017    0.6970   -2.3410 C   0  0  2  0  0  0  0  0  0  0  0  0
   -3.3154    1.8191   -3.0612 C   0  0  2  0  0  0  0  0  0  0  0  0
   -3.8791    2.1762   -4.3764 C   0  0  0  0  0  0  0  0  0  0  0  0
   -3.0905    2.2005   -5.4739 O   0  0  0  0  0  0  0  0  0  0  0  0
   -5.0819    2.4945   -4.5062 O   0  0  0  0  0  0  0  0  0  0  0  0
   -1.9879   -0.6477    0.6366 H   0  0  0  0  0  0  0  0  0  0  0  0
   -2.2643   -2.5419    1.6071 H   0  0  0  0  0  0  0  0  0  0  0  0
   -1.2258   -0.3769    2.9958 H   0  0  0  0  0  0  0  0  0  0  0  0
   -2.3626    0.0268    4.2832 H   0  0  0  0  0  0  0  0  0  0  0  0
   -3.3851    1.8914    3.0741 H   0  0  0  0  0  0  0  0  0  0  0  0
   -2.2292    1.6667    1.7547 H   0  0  0  0  0  0  0  0  0  0  0  0
   -3.9635    1.7438    1.4163 H   0  0  0  0  0  0  0  0  0  0  0  0
   -4.8676   -1.6204    2.8886 H   0  0  0  0  0  0  0  0  0  0  0  0
   -4.8858   -0.1329    3.8425 H   0  0  0  0  0  0  0  0  0  0  0  0
   -5.5140   -0.1296    2.1959 H   0  0  0  0  0  0  0  0  0  0  0  0
   -2.5499    0.7059   -0.9880 H   0  0  0  0  0  0  0  0  0  0  0  0
   -1.6188   -2.0398    4.4528 H   0  0  0  0  0  0  0  0  0  0  0  0
   -5.1114    1.0480   -2.1112 H   0  0  0  0  0  0  0  0  0  0  0  0
   -4.1691   -0.1820   -2.9865 H   0  0  0  0  0  0  0  0  0  0  0  0
   -2.2739    1.5116   -3.1931 H   0  0  0  0  0  0  0  0  0  0  0  0
   -3.3239    2.7149   -2.4379 H   0  0  0  0  0  0  0  0  0  0  0  0
   -3.4571    2.4610   -6.3441 H   0  0  0  0  0  0  0  0  0  0  0  0
  1  2  1  0  0  0  0 
  1  3  1  0  0  0  0 
  1  4  1  0  0  0  0 
  2  5  1  0  0  0  0 
  2  6  1  0  0  0  0 
  2  7  1  0  0  0  0 
  3  8  1  0  0  0  0 
  3  9  2  0  0  0  0 
  5 10  1  0  0  0  0 
  8 11  1  0  0  0  0 
 11 12  1  0  0  0  0 
 12 13  1  0  0  0  0 
 13 14  1  0  0  0  0 
 13 15  2  0  0  0  0 
  1 16  1  0  0  0  0 
  4 17  1  0  0  0  0 
  5 18  1  0  0  0  0 
  5 19  1  0  0  0  0 
  6 20  1  0  0  0  0 
  6 21  1  0  0  0  0 
  6 22  1  0  0  0  0 
  7 23  1  0  0  0  0 
  7 24  1  0  0  0  0 
  7 25  1  0  0  0  0 
  8 26  1  0  0  0  0 
 10 27  1  0  0  0  0 
 11 28  1  0  0  0  0 
 11 29  1  0  0  0  0 
 12 30  1  0  0  0  0 
 12 31  1  0  0  0  0 
 14 32  1  0  0  0  0 
M  END
> <cdk:Title>
calcium pantothenate

> <Conformer>
1

> <SuperDrugID>
SD001842

$$$$
