vinyl ether
  CDK     0628171801

 11 10  0  0  0  0  0  0  0  0999 V2000
    3.4523    1.5524    1.6090 C   0  0  0  0  0  0  0  0  0  0  0  0
    2.1809    1.7443    1.2478 C   0  0  0  0  0  0  0  0  0  0  0  0
    1.7714    1.4087    0.0175 O   0  0  0  0  0  0  0  0  0  0  0  0
    0.7728    0.5139    0.0226 C   0  0  0  0  0  0  0  0  0  0  0  0
   -0.3838    0.7908   -0.5854 C   0  0  0  0  0  0  0  0  0  0  0  0
    4.1025    1.1457    0.9804 H   0  0  0  0  0  0  0  0  0  0  0  0
    3.7618    1.8180    2.5134 H   0  0  0  0  0  0  0  0  0  0  0  0
    1.5489    2.1676    1.8917 H   0  0  0  0  0  0  0  0  0  0  0  0
    0.8965   -0.3772    0.4512 H   0  0  0  0  0  0  0  0  0  0  0  0
   -1.1164    0.1221   -0.5969 H   0  0  0  0  0  0  0  0  0  0  0  0
   -0.5245    1.6651   -1.0339 H   0  0  0  0  0  0  0  0  0  0  0  0
  1  2  2  0  0  0  0 
  2  3  1  0  0  0  0 
  3  4  1  0  0  0  0 
  4  5  2  0  0  0  0 
  1  6  1  0  0  0  0 
  1  7  1  0  0  0  0 
  2  8  1  0  0  0  0 
  4  9  1  0  0  0  0 
  5 10  1  0  0  0  0 
  5 11  1  0  0  0  0 
M  END
> <cdk:Title>
vinyl ether

> <Conformer>
1

> <SuperDrugID>
SD003124

$$$$
