triflusal
  CDK     0628171801

 24 24  0  0  0  0  0  0  0  0999 V2000
   -2.8637    0.5723    1.4632 O   0  0  0  0  0  0  0  0  0  0  0  0
   -2.5418    1.5760    2.3332 C   0  0  0  0  0  0  0  0  0  0  0  0
   -2.2887    0.0331    0.3353 C   0  0  0  0  0  0  0  0  0  0  0  0
   -3.4717    1.8092    3.4486 C   0  0  0  0  0  0  0  0  0  0  0  0
   -1.5274    2.3014    2.2180 O   0  0  0  0  0  0  0  0  0  0  0  0
   -3.0140   -0.9756   -0.3632 C   0  0  0  0  0  0  0  0  0  0  0  0
   -1.0168    0.4319   -0.1431 C   0  0  0  0  0  0  0  0  0  0  0  0
   -4.2953   -1.4467    0.0583 C   0  0  0  0  0  0  0  0  0  0  0  0
   -2.4366   -1.5330   -1.5304 C   0  0  0  0  0  0  0  0  0  0  0  0
   -0.4401   -0.1325   -1.3044 C   0  0  0  0  0  0  0  0  0  0  0  0
   -4.8654   -2.5519   -0.4826 O   0  0  0  0  0  0  0  0  0  0  0  0
   -4.9774   -0.8841    0.9458 O   0  0  0  0  0  0  0  0  0  0  0  0
   -1.1776   -1.1199   -1.9938 C   0  0  0  0  0  0  0  0  0  0  0  0
    0.9039    0.3295   -1.7618 C   0  0  2  0  0  0  0  0  0  0  0  0
    1.8331    0.1348   -0.7681 F   0  0  0  0  0  0  0  0  0  0  0  0
    0.8621    1.6708   -2.0616 F   0  0  0  0  0  0  0  0  0  0  0  0
    1.3799   -0.3186   -2.8783 F   0  0  0  0  0  0  0  0  0  0  0  0
   -3.5420    0.9047    4.0557 H   0  0  0  0  0  0  0  0  0  0  0  0
   -3.1427    2.6351    4.0828 H   0  0  0  0  0  0  0  0  0  0  0  0
   -4.4594    2.0495    3.0520 H   0  0  0  0  0  0  0  0  0  0  0  0
   -0.4847    1.1406    0.3600 H   0  0  0  0  0  0  0  0  0  0  0  0
   -2.9324   -2.2473   -2.0719 H   0  0  0  0  0  0  0  0  0  0  0  0
   -5.7493   -2.8508   -0.1816 H   0  0  0  0  0  0  0  0  0  0  0  0
   -0.8082   -1.5513   -2.8440 H   0  0  0  0  0  0  0  0  0  0  0  0
  1  2  1  0  0  0  0 
  1  3  1  0  0  0  0 
  2  4  1  0  0  0  0 
  2  5  2  0  0  0  0 
  3  6  2  0  0  0  0 
  3  7  1  0  0  0  0 
  6  8  1  0  0  0  0 
  6  9  1  0  0  0  0 
  7 10  2  0  0  0  0 
  8 11  1  0  0  0  0 
  8 12  2  0  0  0  0 
  9 13  2  0  0  0  0 
 10 13  1  0  0  0  0 
 10 14  1  0  0  0  0 
 14 15  1  0  0  0  0 
 14 16  1  0  0  0  0 
 14 17  1  0  0  0  0 
  4 18  1  0  0  0  0 
  4 19  1  0  0  0  0 
  4 20  1  0  0  0  0 
  7 21  1  0  0  0  0 
  9 22  1  0  0  0  0 
 11 23  1  0  0  0  0 
 13 24  1  0  0  0  0 
M  END
> <cdk:Title>
triflusal

> <Conformer>
1

> <SuperDrugID>
SD002474

$$$$
