ceftezole
  CDK     0628171802

 40 43  0  0  0  0  0  0  0  0999 V2000
    4.3438    4.8994   -0.5886 C   0  0  0  0  0  0  0  0  0  0  0  0
    3.0417    4.6867   -0.2794 O   0  0  0  0  0  0  0  0  0  0  0  0
    4.6056    5.9464   -1.2247 O   0  0  0  0  0  0  0  0  0  0  0  0
    5.3682    4.0296   -0.2031 C   0  0  0  0  0  0  0  0  0  0  0  0
    6.4671    4.6072    0.3292 N   0  0  0  0  0  0  0  0  0  0  0  0
    5.2931    2.6684   -0.3009 C   0  0  0  0  0  0  0  0  0  0  0  0
    7.8002    4.1420    0.4778 C   0  0  1  0  0  0  0  0  0  0  0  0
    6.6788    5.7220    1.0439 C   0  0  0  0  0  0  0  0  0  0  0  0
    4.1002    1.9716   -0.8045 C   0  0  1  0  0  0  0  0  0  0  0  0
    6.3947    1.7718    0.1154 C   0  0  2  0  0  0  0  0  0  0  0  0
    8.0676    5.3983    1.3648 C   0  0  1  0  0  0  0  0  0  0  0  0
    7.6553    2.4910    1.2268 S   0  0  0  0  0  0  0  0  0  0  0  0
    5.9389    6.6690    1.3944 O   0  0  0  0  0  0  0  0  0  0  0  0
    3.0000    1.6331    0.6162 S   0  0  0  0  0  0  0  0  0  0  0  0
    8.2802    5.1300    2.7505 N   0  0  0  0  0  0  0  0  0  0  0  0
    1.5047    1.0783   -0.0960 C   0  0  0  0  0  0  0  0  0  0  0  0
    8.2153    6.0470    3.7497 C   0  0  0  0  0  0  0  0  0  0  0  0
    1.0695   -0.1974   -0.1976 N   0  0  0  0  0  0  0  0  0  0  0  0
    0.2436    2.0667   -0.8096 S   0  0  0  0  0  0  0  0  0  0  0  0
    8.3218    5.5966    5.1513 C   0  0  2  0  0  0  0  0  0  0  0  0
    8.0402    7.2661    3.5136 O   0  0  0  0  0  0  0  0  0  0  0  0
   -0.0966   -0.3932   -0.7767 N   0  0  0  0  0  0  0  0  0  0  0  0
   -0.7712    0.6941   -1.2132 C   0  0  0  0  0  0  0  0  0  0  0  0
    7.1075    5.8343    5.8679 N   0  0  0  0  0  0  0  0  0  0  0  0
    5.9125    5.2639    5.6576 C   0  0  0  0  0  0  0  0  0  0  0  0
    6.9674    6.6469    6.8642 N   0  0  0  0  0  0  0  0  0  0  0  0
    5.0597    5.7652    6.5555 N   0  0  0  0  0  0  0  0  0  0  0  0
    5.7376    6.6026    7.2718 N   0  0  0  0  0  0  0  0  0  0  0  0
    8.3488    4.1289   -0.4685 H   0  0  0  0  0  0  0  0  0  0  0  0
    2.3521    5.3210   -0.5662 H   0  0  0  0  0  0  0  0  0  0  0  0
    3.5747    2.5515   -1.5630 H   0  0  0  0  0  0  0  0  0  0  0  0
    4.3559    1.0198   -1.2783 H   0  0  0  0  0  0  0  0  0  0  0  0
    6.9109    1.4198   -0.7809 H   0  0  0  0  0  0  0  0  0  0  0  0
    6.0046    0.8989    0.6437 H   0  0  0  0  0  0  0  0  0  0  0  0
    8.7780    6.1048    0.9254 H   0  0  0  0  0  0  0  0  0  0  0  0
    8.4577    4.2112    3.0033 H   0  0  0  0  0  0  0  0  0  0  0  0
    9.1521    6.1265    5.6246 H   0  0  0  0  0  0  0  0  0  0  0  0
    8.5522    4.5275    5.1969 H   0  0  0  0  0  0  0  0  0  0  0  0
   -1.6743    0.7089   -1.6875 H   0  0  0  0  0  0  0  0  0  0  0  0
    5.6824    4.5685    4.9450 H   0  0  0  0  0  0  0  0  0  0  0  0
  1  2  1  0  0  0  0 
  1  3  2  0  0  0  0 
  1  4  1  0  0  0  0 
  4  5  1  0  0  0  0 
  4  6  2  0  0  0  0 
  7  5  1  0  0  0  0 
  5  8  1  0  0  0  0 
  6  9  1  0  0  0  0 
  6 10  1  0  0  0  0 
 11  7  1  0  0  0  0 
  7 12  1  0  0  0  0 
  7 29  1  0  0  0  0 
 11  8  1  0  0  0  0 
  8 13  2  0  0  0  0 
  9 14  1  0  0  0  0 
 10 12  1  0  0  0  0 
 11 15  1  0  0  0  0 
 14 16  1  0  0  0  0 
 15 17  1  0  0  0  0 
 16 18  2  0  0  0  0 
 16 19  1  0  0  0  0 
 17 20  1  0  0  0  0 
 17 21  2  0  0  0  0 
 18 22  1  0  0  0  0 
 19 23  1  0  0  0  0 
 20 24  1  0  0  0  0 
 22 23  2  0  0  0  0 
 24 25  1  0  0  0  0 
 24 26  1  0  0  0  0 
 25 27  2  0  0  0  0 
 26 28  2  0  0  0  0 
 27 28  1  0  0  0  0 
  2 30  1  0  0  0  0 
  9 31  1  0  0  0  0 
  9 32  1  0  0  0  0 
 10 33  1  0  0  0  0 
 10 34  1  0  0  0  0 
 11 35  1  0  0  0  0 
 15 36  1  0  0  0  0 
 20 37  1  0  0  0  0 
 20 38  1  0  0  0  0 
 23 39  1  0  0  0  0 
 25 40  1  0  0  0  0 
M  END
> <cdk:Title>
ceftezole

> <Conformer>
1

> <SuperDrugID>
SD000488

$$$$
