hexetidine
  CDK     0628171801

 69 69  0  0  0  0  0  0  0  0999 V2000
   -2.5748    2.7976   -6.0160 C   0  0  1  0  0  0  0  0  0  0  0  0
   -2.9132    4.2180   -6.6043 C   0  0  1  0  0  0  0  0  0  0  0  0
   -1.2726    2.6718   -5.2725 N   0  0  1  0  0  0  0  0  0  0  0  0
   -3.6670    5.2266   -5.6640 C   0  0  2  0  0  0  0  0  0  0  0  0
   -1.6643    4.9383   -7.2227 C   0  0  2  0  0  0  0  0  0  0  0  0
   -1.2624    3.2278   -3.8881 C   0  0  2  0  0  0  0  0  0  0  0  0
   -0.6784    1.2962   -5.2818 C   0  0  1  0  0  0  0  0  0  0  0  0
   -4.9287    4.7182   -4.9079 C   0  0  1  0  0  0  0  0  0  0  0  0
   -0.8582    4.1410   -8.2766 C   0  0  0  0  0  0  0  0  0  0  0  0
    0.1350    3.3302   -3.3699 N   0  0  1  0  0  0  0  0  0  0  0  0
    0.7832    1.2951   -4.7354 C   0  0  2  0  0  0  0  0  0  0  0  0
   -5.6270    5.8653   -4.1232 C   0  0  1  0  0  0  0  0  0  0  0  0
    0.2703    4.1432   -2.1138 C   0  0  1  0  0  0  0  0  0  0  0  0
    0.8159    1.9972   -3.3421 C   0  0  2  0  0  0  0  0  0  0  0  0
   -6.9115    5.4117   -3.3971 C   0  0  0  0  0  0  0  0  0  0  0  0
    1.6142    4.9367   -1.9819 C   0  0  1  0  0  0  0  0  0  0  0  0
    1.8943    5.8770   -3.2089 C   0  0  1  0  0  0  0  0  0  0  0  0
    1.6546    5.7936   -0.6641 C   0  0  1  0  0  0  0  0  0  0  0  0
    2.2809    5.1851   -4.5514 C   0  0  1  0  0  0  0  0  0  0  0  0
    1.4968    5.0085    0.6596 C   0  0  0  0  0  0  0  0  0  0  0  0
    3.0508    6.1051   -5.5398 C   0  0  2  0  0  0  0  0  0  0  0  0
    2.2123    7.2763   -6.1001 C   0  0  0  0  0  0  0  0  0  0  0  0
    1.6418    2.0499   -5.6693 N   0  0  2  0  0  0  0  0  0  0  0  0
    1.3464   -0.1535   -4.6488 C   0  0  0  0  0  0  0  0  0  0  0  0
   -3.3946    2.4158   -5.4045 H   0  0  0  0  0  0  0  0  0  0  0  0
   -2.5354    2.1333   -6.8870 H   0  0  0  0  0  0  0  0  0  0  0  0
   -3.6079    4.0386   -7.4330 H   0  0  0  0  0  0  0  0  0  0  0  0
   -3.9875    6.0694   -6.2850 H   0  0  0  0  0  0  0  0  0  0  0  0
   -2.9774    5.6416   -4.9308 H   0  0  0  0  0  0  0  0  0  0  0  0
   -0.9827    5.2263   -6.4165 H   0  0  0  0  0  0  0  0  0  0  0  0
   -1.9990    5.8595   -7.7131 H   0  0  0  0  0  0  0  0  0  0  0  0
   -1.8810    2.6234   -3.2165 H   0  0  0  0  0  0  0  0  0  0  0  0
   -1.6792    4.2254   -3.9086 H   0  0  0  0  0  0  0  0  0  0  0  0
   -1.3019    0.6253   -4.6817 H   0  0  0  0  0  0  0  0  0  0  0  0
   -0.6601    0.8989   -6.3006 H   0  0  0  0  0  0  0  0  0  0  0  0
   -5.6331    4.2817   -5.6226 H   0  0  0  0  0  0  0  0  0  0  0  0
   -4.6433    3.9456   -4.1892 H   0  0  0  0  0  0  0  0  0  0  0  0
   -0.0147    4.7449   -8.6189 H   0  0  0  0  0  0  0  0  0  0  0  0
   -0.4596    3.2166   -7.8570 H   0  0  0  0  0  0  0  0  0  0  0  0
   -1.4878    3.9021   -9.1359 H   0  0  0  0  0  0  0  0  0  0  0  0
   -4.9327    6.2651   -3.3778 H   0  0  0  0  0  0  0  0  0  0  0  0
   -5.8893    6.6765   -4.8085 H   0  0  0  0  0  0  0  0  0  0  0  0
   -0.5312    4.8856   -2.0472 H   0  0  0  0  0  0  0  0  0  0  0  0
    0.1470    3.4745   -1.2583 H   0  0  0  0  0  0  0  0  0  0  0  0
    0.3273    1.3586   -2.5989 H   0  0  0  0  0  0  0  0  0  0  0  0
    1.8574    2.1176   -3.0336 H   0  0  0  0  0  0  0  0  0  0  0  0
   -7.3040    6.2320   -2.7937 H   0  0  0  0  0  0  0  0  0  0  0  0
   -7.6746    5.1180   -4.1199 H   0  0  0  0  0  0  0  0  0  0  0  0
   -6.7001    4.5675   -2.7396 H   0  0  0  0  0  0  0  0  0  0  0  0
    2.4354    4.2172   -1.9130 H   0  0  0  0  0  0  0  0  0  0  0  0
    1.0193    6.5103   -3.3793 H   0  0  0  0  0  0  0  0  0  0  0  0
    2.7215    6.5420   -2.9454 H   0  0  0  0  0  0  0  0  0  0  0  0
    2.6196    6.3071   -0.6043 H   0  0  0  0  0  0  0  0  0  0  0  0
    0.8800    6.5660   -0.7008 H   0  0  0  0  0  0  0  0  0  0  0  0
    2.9191    4.3222   -4.3413 H   0  0  0  0  0  0  0  0  0  0  0  0
    1.3811    4.8260   -5.0569 H   0  0  0  0  0  0  0  0  0  0  0  0
    1.7161    5.6622    1.5066 H   0  0  0  0  0  0  0  0  0  0  0  0
    0.4754    4.6431    0.7739 H   0  0  0  0  0  0  0  0  0  0  0  0
    2.1881    4.1649    0.6838 H   0  0  0  0  0  0  0  0  0  0  0  0
    3.3967    5.4994   -6.3824 H   0  0  0  0  0  0  0  0  0  0  0  0
    3.9360    6.5140   -5.0437 H   0  0  0  0  0  0  0  0  0  0  0  0
    2.8074    7.8397   -6.8208 H   0  0  0  0  0  0  0  0  0  0  0  0
    1.3191    6.9048   -6.6054 H   0  0  0  0  0  0  0  0  0  0  0  0
    1.9114    7.9505   -5.2968 H   0  0  0  0  0  0  0  0  0  0  0  0
    1.6128    1.5694   -6.5715 H   0  0  0  0  0  0  0  0  0  0  0  0
    2.6025    1.9690   -5.3270 H   0  0  0  0  0  0  0  0  0  0  0  0
    0.7508   -0.7603   -3.9640 H   0  0  0  0  0  0  0  0  0  0  0  0
    2.3784   -0.1452   -4.2912 H   0  0  0  0  0  0  0  0  0  0  0  0
    1.3308   -0.6312   -5.6309 H   0  0  0  0  0  0  0  0  0  0  0  0
  1  2  1  0  0  0  0 
  1  3  1  0  0  0  0 
  2  4  1  0  0  0  0 
  2  5  1  0  0  0  0 
  3  6  1  0  0  0  0 
  3  7  1  0  0  0  0 
  4  8  1  0  0  0  0 
  5  9  1  0  0  0  0 
  6 10  1  0  0  0  0 
  7 11  1  0  0  0  0 
  8 12  1  0  0  0  0 
 10 13  1  0  0  0  0 
 10 14  1  0  0  0  0 
 11 14  1  0  0  0  0 
 12 15  1  0  0  0  0 
 13 16  1  0  0  0  0 
 16 17  1  0  0  0  0 
 16 18  1  0  0  0  0 
 17 19  1  0  0  0  0 
 18 20  1  0  0  0  0 
 19 21  1  0  0  0  0 
 21 22  1  0  0  0  0 
 11 23  1  0  0  0  0 
 11 24  1  0  0  0  0 
  1 25  1  0  0  0  0 
  1 26  1  0  0  0  0 
  2 27  1  0  0  0  0 
  4 28  1  0  0  0  0 
  4 29  1  0  0  0  0 
  5 30  1  0  0  0  0 
  5 31  1  0  0  0  0 
  6 32  1  0  0  0  0 
  6 33  1  0  0  0  0 
  7 34  1  0  0  0  0 
  7 35  1  0  0  0  0 
  8 36  1  0  0  0  0 
  8 37  1  0  0  0  0 
  9 38  1  0  0  0  0 
  9 39  1  0  0  0  0 
  9 40  1  0  0  0  0 
 12 41  1  0  0  0  0 
 12 42  1  0  0  0  0 
 13 43  1  0  0  0  0 
 13 44  1  0  0  0  0 
 14 45  1  0  0  0  0 
 14 46  1  0  0  0  0 
 15 47  1  0  0  0  0 
 15 48  1  0  0  0  0 
 15 49  1  0  0  0  0 
 16 50  1  0  0  0  0 
 17 51  1  0  0  0  0 
 17 52  1  0  0  0  0 
 18 53  1  0  0  0  0 
 18 54  1  0  0  0  0 
 19 55  1  0  0  0  0 
 19 56  1  0  0  0  0 
 20 57  1  0  0  0  0 
 20 58  1  0  0  0  0 
 20 59  1  0  0  0  0 
 21 60  1  0  0  0  0 
 21 61  1  0  0  0  0 
 22 62  1  0  0  0  0 
 22 63  1  0  0  0  0 
 22 64  1  0  0  0  0 
 23 65  1  0  0  0  0 
 23 66  1  0  0  0  0 
 24 67  1  0  0  0  0 
 24 68  1  0  0  0  0 
 24 69  1  0  0  0  0 
M  END
> <cdk:Title>
hexetidine

> <Conformer>
1

> <SuperDrugID>
SD002832

$$$$
