dosulepin
  CDK     0628171802

 42 44  0  0  0  0  0  0  0  0999 V2000
   -2.4275    1.8618    1.6491 C   0  0  0  0  0  0  0  0  0  0  0  0
   -2.9275    1.3609    2.8615 C   0  0  0  0  0  0  0  0  0  0  0  0
   -2.0405    0.9830    3.8839 C   0  0  0  0  0  0  0  0  0  0  0  0
   -0.6404    1.1027    3.7137 C   0  0  0  0  0  0  0  0  0  0  0  0
   -0.1338    1.5808    2.4731 C   0  0  0  0  0  0  0  0  0  0  0  0
   -1.0395    1.9847    1.4599 C   0  0  0  0  0  0  0  0  0  0  0  0
    0.2742    0.7279    4.8210 C   0  0  2  0  0  0  0  0  0  0  0  0
    1.0793    2.2146    5.4760 S   0  0  0  0  0  0  0  0  0  0  0  0
    2.0344    2.9657    4.1979 C   0  0  0  0  0  0  0  0  0  0  0  0
    2.0067    2.6437    2.8044 C   0  0  0  0  0  0  0  0  0  0  0  0
    1.2409    1.6102    2.2321 C   0  0  0  0  0  0  0  0  0  0  0  0
    2.9023    3.9834    4.6612 C   0  0  0  0  0  0  0  0  0  0  0  0
    3.7250    4.6971    3.7755 C   0  0  0  0  0  0  0  0  0  0  0  0
    3.6741    4.4176    2.4042 C   0  0  0  0  0  0  0  0  0  0  0  0
    2.8161    3.4151    1.9263 C   0  0  0  0  0  0  0  0  0  0  0  0
    1.8410    0.6695    1.4592 C   0  0  0  0  0  0  0  0  0  0  0  0
    1.2006   -0.4204    0.7248 C   0  0  2  0  0  0  0  0  0  0  0  0
    0.7084   -1.6143    1.5893 C   0  0  2  0  0  0  0  0  0  0  0  0
    1.7546   -2.2050    2.4895 N   0  0  1  0  0  0  0  0  0  0  0  0
    1.1671   -3.0412    3.5785 C   0  0  0  0  0  0  0  0  0  0  0  0
    2.8423   -2.9324    1.7667 C   0  0  0  0  0  0  0  0  0  0  0  0
   -3.0743    2.1298    0.9030 H   0  0  0  0  0  0  0  0  0  0  0  0
   -3.9367    1.2728    2.9999 H   0  0  0  0  0  0  0  0  0  0  0  0
   -2.4305    0.6161    4.7559 H   0  0  0  0  0  0  0  0  0  0  0  0
   -0.6941    2.3538    0.5682 H   0  0  0  0  0  0  0  0  0  0  0  0
    1.0320    0.0215    4.4840 H   0  0  0  0  0  0  0  0  0  0  0  0
   -0.2589    0.2620    5.6513 H   0  0  0  0  0  0  0  0  0  0  0  0
    2.9520    4.2179    5.6567 H   0  0  0  0  0  0  0  0  0  0  0  0
    4.3589    5.4185    4.1271 H   0  0  0  0  0  0  0  0  0  0  0  0
    4.2631    4.9406    1.7520 H   0  0  0  0  0  0  0  0  0  0  0  0
    2.7956    3.2520    0.9149 H   0  0  0  0  0  0  0  0  0  0  0  0
    2.8325    0.7118    1.3622 H   0  0  0  0  0  0  0  0  0  0  0  0
    1.9048   -0.7972   -0.0217 H   0  0  0  0  0  0  0  0  0  0  0  0
    0.3560   -0.0255    0.1575 H   0  0  0  0  0  0  0  0  0  0  0  0
    0.3038   -2.3861    0.9233 H   0  0  0  0  0  0  0  0  0  0  0  0
   -0.1322   -1.2529    2.1878 H   0  0  0  0  0  0  0  0  0  0  0  0
    1.9466   -3.3628    4.2740 H   0  0  0  0  0  0  0  0  0  0  0  0
    0.4392   -2.4679    4.1562 H   0  0  0  0  0  0  0  0  0  0  0  0
    0.6693   -3.9255    3.1709 H   0  0  0  0  0  0  0  0  0  0  0  0
    3.3874   -2.2602    1.1049 H   0  0  0  0  0  0  0  0  0  0  0  0
    3.5726   -3.3372    2.4714 H   0  0  0  0  0  0  0  0  0  0  0  0
    2.4397   -3.7580    1.1735 H   0  0  0  0  0  0  0  0  0  0  0  0
  1  2  2  0  0  0  0 
  1  6  1  0  0  0  0 
  2  3  1  0  0  0  0 
  3  4  2  0  0  0  0 
  4  5  1  0  0  0  0 
  5  6  2  0  0  0  0 
  7  8  1  0  0  0  0 
  8  9  1  0  0  0  0 
 10 11  1  0  0  0  0 
  4  7  1  0  0  0  0 
 11  5  1  0  0  0  0 
 12 13  1  0  0  0  0 
 13 14  2  0  0  0  0 
 14 15  1  0  0  0  0 
  9 12  2  0  0  0  0 
 10 15  2  0  0  0  0 
 10  9  1  0  0  0  0 
 11 16  2  0  0  0  0 
 16 17  1  0  0  0  0 
 17 18  1  0  0  0  0 
 18 19  1  0  0  0  0 
 19 20  1  0  0  0  0 
 19 21  1  0  0  0  0 
  1 22  1  0  0  0  0 
  2 23  1  0  0  0  0 
  3 24  1  0  0  0  0 
  6 25  1  0  0  0  0 
  7 26  1  0  0  0  0 
  7 27  1  0  0  0  0 
 12 28  1  0  0  0  0 
 13 29  1  0  0  0  0 
 14 30  1  0  0  0  0 
 15 31  1  0  0  0  0 
 16 32  1  0  0  0  0 
 17 33  1  0  0  0  0 
 17 34  1  0  0  0  0 
 18 35  1  0  0  0  0 
 18 36  1  0  0  0  0 
 20 37  1  0  0  0  0 
 20 38  1  0  0  0  0 
 20 39  1  0  0  0  0 
 21 40  1  0  0  0  0 
 21 41  1  0  0  0  0 
 21 42  1  0  0  0  0 
M  END
> <cdk:Title>
dosulepin

> <Conformer>
1

> <SuperDrugID>
SD000844

$$$$
