fluspirilene
  CDK     0628171801

 66 70  0  0  0  0  0  0  0  0999 V2000
   -3.1293   -3.1738    0.8261 O   0  0  0  0  0  0  0  0  0  0  0  0
   -1.9996   -2.6367    0.7780 C   0  0  0  0  0  0  0  0  0  0  0  0
   -1.7116   -1.2376    0.3909 C   0  0  1  0  0  0  0  0  0  0  0  0
   -0.8929   -3.2972    1.1126 N   0  0  0  0  0  0  0  0  0  0  0  0
   -0.2618   -1.2877    0.4592 N   0  0  0  0  0  0  0  0  0  0  0  0
   -2.2187   -0.9433   -1.0649 C   0  0  2  0  0  0  0  0  0  0  0  0
   -2.3216   -0.2502    1.4493 C   0  0  1  0  0  0  0  0  0  0  0  0
    0.2551   -2.4931    1.0259 C   0  0  1  0  0  0  0  0  0  0  0  0
    0.5961   -0.3271   -0.0193 C   0  0  0  0  0  0  0  0  0  0  0  0
   -3.7418   -0.6580   -1.1263 C   0  0  1  0  0  0  0  0  0  0  0  0
   -3.8347    0.0385    1.2280 C   0  0  1  0  0  0  0  0  0  0  0  0
    0.9073    0.8321    0.7274 C   0  0  0  0  0  0  0  0  0  0  0  0
    1.1942   -0.5033   -1.2892 C   0  0  0  0  0  0  0  0  0  0  0  0
   -4.1393    0.4378   -0.1842 N   0  0  1  0  0  0  0  0  0  0  0  0
    1.7697    1.8119    0.1989 C   0  0  0  0  0  0  0  0  0  0  0  0
    2.0546    0.4770   -1.8182 C   0  0  0  0  0  0  0  0  0  0  0  0
   -3.6783    1.8351   -0.5115 C   0  0  1  0  0  0  0  0  0  0  0  0
    2.3420    1.6345   -1.0744 C   0  0  0  0  0  0  0  0  0  0  0  0
   -3.9348    2.3345   -1.9548 C   0  0  1  0  0  0  0  0  0  0  0  0
   -5.4343    2.3607   -2.3578 C   0  0  1  0  0  0  0  0  0  0  0  0
   -5.6604    2.6896   -3.8726 C   0  0  1  0  0  0  0  0  0  0  0  0
   -4.9944    1.7272   -4.8347 C   0  0  0  0  0  0  0  0  0  0  0  0
   -7.1192    2.9612   -4.1312 C   0  0  0  0  0  0  0  0  0  0  0  0
   -5.1529    0.3143   -4.6929 C   0  0  0  0  0  0  0  0  0  0  0  0
   -4.1636    2.2552   -5.8671 C   0  0  0  0  0  0  0  0  0  0  0  0
   -8.0478    1.9648   -4.5312 C   0  0  0  0  0  0  0  0  0  0  0  0
   -7.6240    4.2713   -3.9175 C   0  0  0  0  0  0  0  0  0  0  0  0
   -4.4573   -0.5857   -5.5845 C   0  0  0  0  0  0  0  0  0  0  0  0
   -3.4595    1.4500   -6.7787 C   0  0  0  0  0  0  0  0  0  0  0  0
   -9.4142    2.2589   -4.6955 C   0  0  0  0  0  0  0  0  0  0  0  0
   -8.9893    4.5693   -4.0767 C   0  0  0  0  0  0  0  0  0  0  0  0
   -3.6155    0.0219   -6.6301 C   0  0  0  0  0  0  0  0  0  0  0  0
   -9.8886    3.5606   -4.4610 C   0  0  0  0  0  0  0  0  0  0  0  0
   -2.9134   -0.6743   -7.5519 F   0  0  0  0  0  0  0  0  0  0  0  0
  -11.1575    3.8312   -4.5978 F   0  0  0  0  0  0  0  0  0  0  0  0
   -0.8828   -4.2284    1.3835 H   0  0  0  0  0  0  0  0  0  0  0  0
   -1.9827   -1.7767   -1.7321 H   0  0  0  0  0  0  0  0  0  0  0  0
   -1.7072   -0.0633   -1.4606 H   0  0  0  0  0  0  0  0  0  0  0  0
   -2.1755   -0.6311    2.4639 H   0  0  0  0  0  0  0  0  0  0  0  0
   -1.8007    0.7045    1.4100 H   0  0  0  0  0  0  0  0  0  0  0  0
    0.6675   -2.3173    2.0233 H   0  0  0  0  0  0  0  0  0  0  0  0
    0.9963   -2.9679    0.3758 H   0  0  0  0  0  0  0  0  0  0  0  0
   -4.0218   -0.4134   -2.1489 H   0  0  0  0  0  0  0  0  0  0  0  0
   -4.3022   -1.5668   -0.8843 H   0  0  0  0  0  0  0  0  0  0  0  0
   -4.4146   -0.8526    1.4830 H   0  0  0  0  0  0  0  0  0  0  0  0
   -4.1594    0.8191    1.9220 H   0  0  0  0  0  0  0  0  0  0  0  0
    0.5084    0.9690    1.6601 H   0  0  0  0  0  0  0  0  0  0  0  0
    0.9982   -1.3451   -1.8367 H   0  0  0  0  0  0  0  0  0  0  0  0
    1.9778    2.6544    0.7407 H   0  0  0  0  0  0  0  0  0  0  0  0
    2.4680    0.3525   -2.7449 H   0  0  0  0  0  0  0  0  0  0  0  0
   -4.1684    2.5346    0.1723 H   0  0  0  0  0  0  0  0  0  0  0  0
   -2.6039    1.9328   -0.3455 H   0  0  0  0  0  0  0  0  0  0  0  0
    2.9652    2.3468   -1.4629 H   0  0  0  0  0  0  0  0  0  0  0  0
   -3.5389    3.3512   -2.0334 H   0  0  0  0  0  0  0  0  0  0  0  0
   -3.3583    1.7204   -2.6491 H   0  0  0  0  0  0  0  0  0  0  0  0
   -5.9084    1.4113   -2.1016 H   0  0  0  0  0  0  0  0  0  0  0  0
   -5.9161    3.1295   -1.7447 H   0  0  0  0  0  0  0  0  0  0  0  0
   -5.1484    3.6513   -3.9966 H   0  0  0  0  0  0  0  0  0  0  0  0
   -5.8022    0.0058   -3.8914 H   0  0  0  0  0  0  0  0  0  0  0  0
   -4.0559    3.2673   -5.9680 H   0  0  0  0  0  0  0  0  0  0  0  0
   -7.7532    1.0068   -4.7067 H   0  0  0  0  0  0  0  0  0  0  0  0
   -6.9973    5.0273   -3.6285 H   0  0  0  0  0  0  0  0  0  0  0  0
   -4.5465   -1.5986   -5.4915 H   0  0  0  0  0  0  0  0  0  0  0  0
   -2.8695    1.8603   -7.5070 H   0  0  0  0  0  0  0  0  0  0  0  0
  -10.0618    1.5206   -4.9828 H   0  0  0  0  0  0  0  0  0  0  0  0
   -9.3249    5.5208   -3.9074 H   0  0  0  0  0  0  0  0  0  0  0  0
  1  2  2  0  0  0  0 
  2  3  1  0  0  0  0 
  2  4  1  0  0  0  0 
  3  5  1  0  0  0  0 
  3  6  1  0  0  0  0 
  3  7  1  0  0  0  0 
  4  8  1  0  0  0  0 
  5  8  1  0  0  0  0 
  5  9  1  0  0  0  0 
  6 10  1  0  0  0  0 
  7 11  1  0  0  0  0 
  9 12  2  0  0  0  0 
  9 13  1  0  0  0  0 
 10 14  1  0  0  0  0 
 11 14  1  0  0  0  0 
 12 15  1  0  0  0  0 
 13 16  2  0  0  0  0 
 14 17  1  0  0  0  0 
 15 18  2  0  0  0  0 
 16 18  1  0  0  0  0 
 17 19  1  0  0  0  0 
 19 20  1  0  0  0  0 
 20 21  1  0  0  0  0 
 21 22  1  0  0  0  0 
 21 23  1  0  0  0  0 
 22 24  2  0  0  0  0 
 22 25  1  0  0  0  0 
 23 26  2  0  0  0  0 
 23 27  1  0  0  0  0 
 24 28  1  0  0  0  0 
 25 29  2  0  0  0  0 
 26 30  1  0  0  0  0 
 27 31  2  0  0  0  0 
 28 32  2  0  0  0  0 
 29 32  1  0  0  0  0 
 30 33  2  0  0  0  0 
 31 33  1  0  0  0  0 
 32 34  1  0  0  0  0 
 33 35  1  0  0  0  0 
  4 36  1  0  0  0  0 
  6 37  1  0  0  0  0 
  6 38  1  0  0  0  0 
  7 39  1  0  0  0  0 
  7 40  1  0  0  0  0 
  8 41  1  0  0  0  0 
  8 42  1  0  0  0  0 
 10 43  1  0  0  0  0 
 10 44  1  0  0  0  0 
 11 45  1  0  0  0  0 
 11 46  1  0  0  0  0 
 12 47  1  0  0  0  0 
 13 48  1  0  0  0  0 
 15 49  1  0  0  0  0 
 16 50  1  0  0  0  0 
 17 51  1  0  0  0  0 
 17 52  1  0  0  0  0 
 18 53  1  0  0  0  0 
 19 54  1  0  0  0  0 
 19 55  1  0  0  0  0 
 20 56  1  0  0  0  0 
 20 57  1  0  0  0  0 
 21 58  1  0  0  0  0 
 24 59  1  0  0  0  0 
 25 60  1  0  0  0  0 
 26 61  1  0  0  0  0 
 27 62  1  0  0  0  0 
 28 63  1  0  0  0  0 
 29 64  1  0  0  0  0 
 30 65  1  0  0  0  0 
 31 66  1  0  0  0  0 
M  END
> <cdk:Title>
fluspirilene

> <Conformer>
1

> <SuperDrugID>
SD001095

$$$$
