proguanil
  CDK     0628171801

 33 33  0  0  0  0  0  0  0  0999 V2000
    0.4311   -2.6517   -3.4332 C   0  0  0  0  0  0  0  0  0  0  0  0
   -0.5707   -1.5021   -3.7173 C   0  0  2  0  0  0  0  0  0  0  0  0
   -0.2089   -0.7390   -5.0195 C   0  0  0  0  0  0  0  0  0  0  0  0
   -0.5397   -0.6613   -2.6065 N   0  0  0  0  0  0  0  0  0  0  0  0
   -1.3137    0.2837   -2.1988 C   0  0  0  0  0  0  0  0  0  0  0  0
   -2.3951    0.6409   -2.8628 N   0  0  0  0  0  0  0  0  0  0  0  0
   -1.0408    0.9561   -1.0743 N   0  0  0  0  0  0  0  0  0  0  0  0
   -0.2050    0.5981   -0.0934 C   0  0  0  0  0  0  0  0  0  0  0  0
    0.1259    1.5265    0.7216 N   0  0  0  0  0  0  0  0  0  0  0  0
    0.2047   -0.6700    0.0411 N   0  0  0  0  0  0  0  0  0  0  0  0
    1.3195   -1.1828    0.6356 C   0  0  0  0  0  0  0  0  0  0  0  0
    2.4769   -0.4424    0.9731 C   0  0  0  0  0  0  0  0  0  0  0  0
    3.5723   -1.0728    1.5904 C   0  0  0  0  0  0  0  0  0  0  0  0
    3.5326   -2.4533    1.8659 C   0  0  0  0  0  0  0  0  0  0  0  0
    4.8362   -3.2044    2.6414 Cl  0  0  0  0  0  0  0  0  0  0  0  0
    2.4047   -3.2070    1.4898 C   0  0  0  0  0  0  0  0  0  0  0  0
    1.3072   -2.5733    0.8815 C   0  0  0  0  0  0  0  0  0  0  0  0
    0.4381   -3.3661   -4.2586 H   0  0  0  0  0  0  0  0  0  0  0  0
    1.4446   -2.2641   -3.3013 H   0  0  0  0  0  0  0  0  0  0  0  0
    0.1444   -3.1852   -2.5233 H   0  0  0  0  0  0  0  0  0  0  0  0
   -1.5690   -1.9416   -3.8118 H   0  0  0  0  0  0  0  0  0  0  0  0
   -0.9588    0.0208   -5.2376 H   0  0  0  0  0  0  0  0  0  0  0  0
    0.7627   -0.2512   -4.9175 H   0  0  0  0  0  0  0  0  0  0  0  0
   -0.1689   -1.4253   -5.8681 H   0  0  0  0  0  0  0  0  0  0  0  0
   -2.6423    0.1828   -3.6817 H   0  0  0  0  0  0  0  0  0  0  0  0
   -2.9519    1.3592   -2.5259 H   0  0  0  0  0  0  0  0  0  0  0  0
   -1.4984    1.8063   -0.9610 H   0  0  0  0  0  0  0  0  0  0  0  0
    0.6925    1.3485    1.4449 H   0  0  0  0  0  0  0  0  0  0  0  0
   -0.3757   -1.3331   -0.3642 H   0  0  0  0  0  0  0  0  0  0  0  0
    2.5435    0.5556    0.7661 H   0  0  0  0  0  0  0  0  0  0  0  0
    4.3977   -0.5207    1.8333 H   0  0  0  0  0  0  0  0  0  0  0  0
    2.3737   -4.2160    1.6551 H   0  0  0  0  0  0  0  0  0  0  0  0
    0.4943   -3.1386    0.6215 H   0  0  0  0  0  0  0  0  0  0  0  0
  1  2  1  0  0  0  0 
  2  3  1  0  0  0  0 
  4  2  1  0  0  0  0 
  4  5  2  0  0  0  0 
  5  6  1  0  0  0  0 
  5  7  1  0  0  0  0 
  7  8  1  0  0  0  0 
  8  9  2  0  0  0  0 
  8 10  1  0  0  0  0 
 10 11  1  0  0  0  0 
 11 12  2  0  0  0  0 
 12 13  1  0  0  0  0 
 13 14  2  0  0  0  0 
 14 15  1  0  0  0  0 
 14 16  1  0  0  0  0 
 16 17  2  0  0  0  0 
 11 17  1  0  0  0  0 
 18  1  1  0  0  0  0 
 19  1  1  0  0  0  0 
 20  1  1  0  0  0  0 
 21  2  1  0  0  0  0 
 22  3  1  0  0  0  0 
 23  3  1  0  0  0  0 
 24  3  1  0  0  0  0 
 25  6  1  0  0  0  0 
 26  6  1  0  0  0  0 
 27  7  1  0  0  0  0 
 28  9  1  0  0  0  0 
 29 10  1  0  0  0  0 
 30 12  1  0  0  0  0 
 31 13  1  0  0  0  0 
 32 16  1  0  0  0  0 
 33 17  1  0  0  0  0 
M  END
> <cdk:Title>
proguanil

> <Conformer>
1

> <SuperDrugID>
SD002048

$$$$
