flumazenil
  CDK     0628171801

 36 38  0  0  0  0  0  0  0  0999 V2000
   -2.0289    1.1676   -0.1848 C   0  0  0  0  0  0  0  0  0  0  0  0
   -0.6788    0.9823   -0.2696 O   0  0  0  0  0  0  0  0  0  0  0  0
   -2.7461    0.3088    0.3795 O   0  0  0  0  0  0  0  0  0  0  0  0
   -2.5748    2.3266   -0.7756 C   0  0  0  0  0  0  0  0  0  0  0  0
    0.0857   -0.1389    0.1909 C   0  0  1  0  0  0  0  0  0  0  0  0
   -3.8705    2.8617   -0.7223 C   0  0  0  0  0  0  0  0  0  0  0  0
   -1.8518    3.1278   -1.5728 N   0  0  0  0  0  0  0  0  0  0  0  0
    1.5785    0.1293   -0.0717 C   0  0  0  0  0  0  0  0  0  0  0  0
   -3.9134    3.9437   -1.5277 N   0  0  0  0  0  0  0  0  0  0  0  0
   -5.0527    2.3970    0.0314 C   0  0  1  0  0  0  0  0  0  0  0  0
   -2.6642    4.0937   -2.0199 C   0  0  0  0  0  0  0  0  0  0  0  0
   -5.0173    4.7397   -1.7814 C   0  0  0  0  0  0  0  0  0  0  0  0
   -6.0236    1.9213   -0.9272 N   0  0  0  0  0  0  0  0  0  0  0  0
   -6.3410    4.2066   -1.9138 C   0  0  0  0  0  0  0  0  0  0  0  0
   -4.8288    6.1402   -1.8967 C   0  0  0  0  0  0  0  0  0  0  0  0
   -6.3203    0.5046   -0.9926 C   0  0  0  0  0  0  0  0  0  0  0  0
   -6.6370    2.8041   -1.8152 C   0  0  0  0  0  0  0  0  0  0  0  0
   -7.4118    5.1050   -2.1690 C   0  0  0  0  0  0  0  0  0  0  0  0
   -5.9072    7.0092   -2.1233 C   0  0  0  0  0  0  0  0  0  0  0  0
   -7.5129    2.3580   -2.5993 O   0  0  0  0  0  0  0  0  0  0  0  0
   -7.2025    6.4916   -2.2586 C   0  0  0  0  0  0  0  0  0  0  0  0
   -8.2085    7.2995   -2.4608 F   0  0  0  0  0  0  0  0  0  0  0  0
   -0.0744   -0.2956    1.2613 H   0  0  0  0  0  0  0  0  0  0  0  0
   -0.2148   -1.0399   -0.3508 H   0  0  0  0  0  0  0  0  0  0  0  0
    2.1708   -0.7448    0.2094 H   0  0  0  0  0  0  0  0  0  0  0  0
    1.7390    0.3387   -1.1322 H   0  0  0  0  0  0  0  0  0  0  0  0
    1.9152    0.9880    0.5145 H   0  0  0  0  0  0  0  0  0  0  0  0
   -4.7779    1.6517    0.7763 H   0  0  0  0  0  0  0  0  0  0  0  0
   -5.4701    3.2352    0.5987 H   0  0  0  0  0  0  0  0  0  0  0  0
   -2.3542    4.8303   -2.6574 H   0  0  0  0  0  0  0  0  0  0  0  0
   -3.8970    6.5488   -1.8008 H   0  0  0  0  0  0  0  0  0  0  0  0
   -6.0415    0.1157   -1.9744 H   0  0  0  0  0  0  0  0  0  0  0  0
   -7.3883    0.3331   -0.8388 H   0  0  0  0  0  0  0  0  0  0  0  0
   -5.7799   -0.0855   -0.2497 H   0  0  0  0  0  0  0  0  0  0  0  0
   -8.3675    4.7551   -2.2840 H   0  0  0  0  0  0  0  0  0  0  0  0
   -5.7459    8.0171   -2.1819 H   0  0  0  0  0  0  0  0  0  0  0  0
  1  2  1  0  0  0  0 
  1  3  2  0  0  0  0 
  1  4  1  0  0  0  0 
  2  5  1  0  0  0  0 
  4  6  2  0  0  0  0 
  4  7  1  0  0  0  0 
  5  8  1  0  0  0  0 
  6  9  1  0  0  0  0 
  6 10  1  0  0  0  0 
  7 11  2  0  0  0  0 
  9 11  1  0  0  0  0 
  9 12  1  0  0  0  0 
 10 13  1  0  0  0  0 
 12 14  2  0  0  0  0 
 12 15  1  0  0  0  0 
 13 16  1  0  0  0  0 
 13 17  1  0  0  0  0 
 14 17  1  0  0  0  0 
 14 18  1  0  0  0  0 
 15 19  2  0  0  0  0 
 17 20  2  0  0  0  0 
 18 21  2  0  0  0  0 
 19 21  1  0  0  0  0 
 21 22  1  0  0  0  0 
  5 23  1  0  0  0  0 
  5 24  1  0  0  0  0 
  8 25  1  0  0  0  0 
  8 26  1  0  0  0  0 
  8 27  1  0  0  0  0 
 10 28  1  0  0  0  0 
 10 29  1  0  0  0  0 
 11 30  1  0  0  0  0 
 15 31  1  0  0  0  0 
 16 32  1  0  0  0  0 
 16 33  1  0  0  0  0 
 16 34  1  0  0  0  0 
 18 35  1  0  0  0  0 
 19 36  1  0  0  0  0 
M  END
> <cdk:Title>
flumazenil

> <Conformer>
1

> <SuperDrugID>
SD001069

$$$$
