fencamfamin
  CDK     0628171801

 37 39  0  0  0  0  0  0  0  0999 V2000
    1.8653    1.2428    0.0452 N   0  0  2  0  0  0  0  0  0  0  0  0
    0.7034    0.3925    0.3890 C   0  0  2  0  0  0  0  0  0  0  0  0
    2.2613    2.2187    1.0979 C   0  0  1  0  0  0  0  0  0  0  0  0
    0.3547   -0.5420   -0.7846 C   0  0  0  0  0  0  0  0  0  0  0  0
    2.9011    1.5587    2.3743 C   0  0  1  0  0  0  0  0  0  0  0  0
    3.4472    3.0920    0.5856 C   0  0  2  0  0  0  0  0  0  0  0  0
    4.3467    2.1553    2.3790 C   0  0  1  0  0  0  0  0  0  0  0  0
    2.1607    1.6536    3.6794 C   0  0  0  0  0  0  0  0  0  0  0  0
    4.6650    2.1961    0.8712 C   0  0  2  0  0  0  0  0  0  0  0  0
    3.7079    4.3132    1.5168 C   0  0  1  0  0  0  0  0  0  0  0  0
    4.4029    3.6647    2.7393 C   0  0  2  0  0  0  0  0  0  0  0  0
    2.2371    0.5725    4.5959 C   0  0  0  0  0  0  0  0  0  0  0  0
    1.3874    2.7816    4.0598 C   0  0  0  0  0  0  0  0  0  0  0  0
    1.5456    0.6003    5.8212 C   0  0  0  0  0  0  0  0  0  0  0  0
    0.6901    2.8135    5.2809 C   0  0  0  0  0  0  0  0  0  0  0  0
    0.7662    1.7197    6.1595 C   0  0  0  0  0  0  0  0  0  0  0  0
    1.6038    1.7808   -0.7850 H   0  0  0  0  0  0  0  0  0  0  0  0
   -0.1617    1.0192    0.6180 H   0  0  0  0  0  0  0  0  0  0  0  0
    0.9297   -0.2245    1.2618 H   0  0  0  0  0  0  0  0  0  0  0  0
    1.3987    2.8568    1.3059 H   0  0  0  0  0  0  0  0  0  0  0  0
    0.0158    0.0375   -1.6448 H   0  0  0  0  0  0  0  0  0  0  0  0
   -0.4422   -1.2247   -0.4856 H   0  0  0  0  0  0  0  0  0  0  0  0
    1.2258   -1.1314   -1.0772 H   0  0  0  0  0  0  0  0  0  0  0  0
    3.0308    0.4914    2.1571 H   0  0  0  0  0  0  0  0  0  0  0  0
    3.3543    3.3812   -0.4657 H   0  0  0  0  0  0  0  0  0  0  0  0
    5.0590    1.5542    2.9563 H   0  0  0  0  0  0  0  0  0  0  0  0
    5.6249    2.6642    0.6263 H   0  0  0  0  0  0  0  0  0  0  0  0
    4.6168    1.2143    0.3865 H   0  0  0  0  0  0  0  0  0  0  0  0
    4.3736    5.0358    1.0365 H   0  0  0  0  0  0  0  0  0  0  0  0
    2.7829    4.8235    1.7955 H   0  0  0  0  0  0  0  0  0  0  0  0
    5.4450    3.9944    2.8120 H   0  0  0  0  0  0  0  0  0  0  0  0
    3.9048    3.8970    3.6810 H   0  0  0  0  0  0  0  0  0  0  0  0
    2.8047   -0.2513    4.3797 H   0  0  0  0  0  0  0  0  0  0  0  0
    1.3203    3.6034    3.4606 H   0  0  0  0  0  0  0  0  0  0  0  0
    1.6125   -0.1920    6.4673 H   0  0  0  0  0  0  0  0  0  0  0  0
    0.1300    3.6332    5.5310 H   0  0  0  0  0  0  0  0  0  0  0  0
    0.2539    1.7400    7.0437 H   0  0  0  0  0  0  0  0  0  0  0  0
  1  2  1  0  0  0  0 
  1  3  1  0  0  0  0 
  2  4  1  0  0  0  0 
  3  5  1  0  0  0  0 
  3  6  1  0  0  0  0 
  5  7  1  0  0  0  0 
  5  8  1  0  0  0  0 
  6  9  1  0  0  0  0 
  6 10  1  0  0  0  0 
  7  9  1  0  0  0  0 
  7 11  1  0  0  0  0 
  8 12  2  0  0  0  0 
  8 13  1  0  0  0  0 
 10 11  1  0  0  0  0 
 12 14  1  0  0  0  0 
 13 15  2  0  0  0  0 
 14 16  2  0  0  0  0 
 15 16  1  0  0  0  0 
  1 17  1  0  0  0  0 
  2 18  1  0  0  0  0 
  2 19  1  0  0  0  0 
  3 20  1  0  0  0  0 
  4 21  1  0  0  0  0 
  4 22  1  0  0  0  0 
  4 23  1  0  0  0  0 
  5 24  1  0  0  0  0 
  6 25  1  0  0  0  0 
  7 26  1  0  0  0  0 
  9 27  1  0  0  0  0 
  9 28  1  0  0  0  0 
 10 29  1  0  0  0  0 
 10 30  1  0  0  0  0 
 11 31  1  0  0  0  0 
 11 32  1  0  0  0  0 
 12 33  1  0  0  0  0 
 13 34  1  0  0  0  0 
 14 35  1  0  0  0  0 
 15 36  1  0  0  0  0 
 16 37  1  0  0  0  0 
M  END
> <cdk:Title>
fencamfamin

> <Conformer>
1

> <SuperDrugID>
SD001023

$$$$
