propylparaben
  CDK     0628171801

 25 25  0  0  0  0  0  0  0  0999 V2000
    0.0798   -0.0525   -0.3577 C   0  0  0  0  0  0  0  0  0  0  0  0
   -0.4116   -1.3152   -0.1823 O   0  0  0  0  0  0  0  0  0  0  0  0
   -0.7178    0.8790   -0.6209 O   0  0  0  0  0  0  0  0  0  0  0  0
    1.4739    0.1876   -0.2159 C   0  0  0  0  0  0  0  0  0  0  0  0
   -1.7736   -1.7446   -0.2434 C   0  0  2  0  0  0  0  0  0  0  0  0
    2.3636   -0.8766    0.0807 C   0  0  0  0  0  0  0  0  0  0  0  0
    2.0193    1.4892   -0.3562 C   0  0  0  0  0  0  0  0  0  0  0  0
   -1.8102   -3.2618    0.0505 C   0  0  1  0  0  0  0  0  0  0  0  0
    3.7410   -0.6475    0.2490 C   0  0  0  0  0  0  0  0  0  0  0  0
    3.3976    1.7188   -0.1885 C   0  0  0  0  0  0  0  0  0  0  0  0
   -3.2427   -3.8329    0.1077 C   0  0  0  0  0  0  0  0  0  0  0  0
    4.2626    0.6510    0.1136 C   0  0  0  0  0  0  0  0  0  0  0  0
    5.5922    0.8568    0.2796 O   0  0  0  0  0  0  0  0  0  0  0  0
   -2.1748   -1.5378   -1.2367 H   0  0  0  0  0  0  0  0  0  0  0  0
   -2.3584   -1.1987    0.4997 H   0  0  0  0  0  0  0  0  0  0  0  0
    2.0236   -1.8377    0.1787 H   0  0  0  0  0  0  0  0  0  0  0  0
    1.4180    2.2858   -0.5840 H   0  0  0  0  0  0  0  0  0  0  0  0
   -1.2510   -3.7876   -0.7280 H   0  0  0  0  0  0  0  0  0  0  0  0
   -1.3181   -3.4516    1.0088 H   0  0  0  0  0  0  0  0  0  0  0  0
    4.3614   -1.4301    0.4715 H   0  0  0  0  0  0  0  0  0  0  0  0
    3.7686    2.6660   -0.2882 H   0  0  0  0  0  0  0  0  0  0  0  0
   -3.2094   -4.8979    0.3483 H   0  0  0  0  0  0  0  0  0  0  0  0
   -3.8256   -3.3203    0.8765 H   0  0  0  0  0  0  0  0  0  0  0  0
   -3.7330   -3.7081   -0.8596 H   0  0  0  0  0  0  0  0  0  0  0  0
    5.7126    1.8273    0.3503 H   0  0  0  0  0  0  0  0  0  0  0  0
  1  2  1  0  0  0  0 
  1  3  2  0  0  0  0 
  1  4  1  0  0  0  0 
  2  5  1  0  0  0  0 
  4  6  2  0  0  0  0 
  4  7  1  0  0  0  0 
  5  8  1  0  0  0  0 
  6  9  1  0  0  0  0 
  7 10  2  0  0  0  0 
  8 11  1  0  0  0  0 
  9 12  2  0  0  0  0 
 10 12  1  0  0  0  0 
 12 13  1  0  0  0  0 
  5 14  1  0  0  0  0 
  5 15  1  0  0  0  0 
  6 16  1  0  0  0  0 
  7 17  1  0  0  0  0 
  8 18  1  0  0  0  0 
  8 19  1  0  0  0  0 
  9 20  1  0  0  0  0 
 10 21  1  0  0  0  0 
 11 22  1  0  0  0  0 
 11 23  1  0  0  0  0 
 11 24  1  0  0  0  0 
 13 25  1  0  0  0  0 
M  END
> <cdk:Title>
propylparaben

> <Conformer>
1

> <SuperDrugID>
SD002071

$$$$
