aminorex
  CDK     0628171801

 22 23  0  0  0  0  0  0  0  0999 V2000
   -3.6205   -2.9282    0.5810 N   0  0  0  0  0  0  0  0  0  0  0  0
   -2.7059   -2.1755    0.1075 C   0  0  0  0  0  0  0  0  0  0  0  0
   -2.5702   -1.9358   -1.1690 N   0  0  0  0  0  0  0  0  0  0  0  0
   -1.4690   -1.1073   -1.4300 C   0  0  2  0  0  0  0  0  0  0  0  0
   -0.8431   -1.0292   -0.0164 C   0  0  2  0  0  0  0  0  0  0  0  0
   -1.8215   -1.5660    0.8901 O   0  0  0  0  0  0  0  0  0  0  0  0
   -0.4349    0.3410    0.4068 C   0  0  0  0  0  0  0  0  0  0  0  0
    0.9225    0.6393    0.6755 C   0  0  0  0  0  0  0  0  0  0  0  0
    1.3043    1.9221    1.1099 C   0  0  0  0  0  0  0  0  0  0  0  0
    0.3344    2.9248    1.2879 C   0  0  0  0  0  0  0  0  0  0  0  0
   -1.0156    2.6496    1.0086 C   0  0  0  0  0  0  0  0  0  0  0  0
   -1.3974    1.3689    0.5661 C   0  0  0  0  0  0  0  0  0  0  0  0
   -4.2312   -3.3465    0.0100 H   0  0  0  0  0  0  0  0  0  0  0  0
   -3.1627   -2.2838   -1.8532 H   0  0  0  0  0  0  0  0  0  0  0  0
   -1.8115   -0.1410   -1.8122 H   0  0  0  0  0  0  0  0  0  0  0  0
   -0.7907   -1.5770   -2.1476 H   0  0  0  0  0  0  0  0  0  0  0  0
    0.0175   -1.7093    0.0114 H   0  0  0  0  0  0  0  0  0  0  0  0
    1.6464   -0.0731    0.5635 H   0  0  0  0  0  0  0  0  0  0  0  0
    2.2886    2.1251    1.3012 H   0  0  0  0  0  0  0  0  0  0  0  0
    0.6120    3.8525    1.6184 H   0  0  0  0  0  0  0  0  0  0  0  0
   -1.7167    3.3831    1.1297 H   0  0  0  0  0  0  0  0  0  0  0  0
   -2.3863    1.1880    0.3643 H   0  0  0  0  0  0  0  0  0  0  0  0
  1  2  2  0  0  0  0 
  2  3  1  0  0  0  0 
  3  4  1  0  0  0  0 
  5  4  1  0  0  0  0 
  5  6  1  0  0  0  0 
  2  6  1  0  0  0  0 
  5  7  1  0  0  0  0 
  7  8  2  0  0  0  0 
  8  9  1  0  0  0  0 
  9 10  2  0  0  0  0 
 10 11  1  0  0  0  0 
 11 12  2  0  0  0  0 
  7 12  1  0  0  0  0 
 13  1  1  0  0  0  0 
 14  3  1  0  0  0  0 
 15  4  1  0  0  0  0 
 16  4  1  0  0  0  0 
 17  5  1  0  0  0  0 
 18  8  1  0  0  0  0 
 19  9  1  0  0  0  0 
 20 10  1  0  0  0  0 
 21 11  1  0  0  0  0 
 22 12  1  0  0  0  0 
M  END
> <cdk:Title>
aminorex

> <Conformer>
1

> <SuperDrugID>
SD000141

$$$$
