minocycline
  CDK     0628171801

 60 63  0  0  0  0  0  0  0  0999 V2000
    3.5958    6.4063    3.4814 C   0  0  0  0  0  0  0  0  0  0  0  0
    2.5728    5.8810    2.5259 N   0  0  2  0  0  0  0  0  0  0  0  0
    1.2353    6.5087    2.7526 C   0  0  0  0  0  0  0  0  0  0  0  0
    2.5712    4.3945    2.2317 C   0  0  1  0  0  0  0  0  0  0  0  0
    3.8891    3.9086    1.5174 C   0  0  2  0  0  0  0  0  0  0  0  0
    3.6635    3.1291    0.1799 C   0  0  2  0  0  0  0  0  0  0  0  0
    3.4118    1.5962    0.3529 C   0  0  2  0  0  0  0  0  0  0  0  0
    1.9100    1.1955    0.4681 C   0  0  1  0  0  0  0  0  0  0  0  0
    1.7975   -0.3012    0.5057 C   0  0  0  0  0  0  0  0  0  0  0  0
    2.8207   -1.0337    1.1846 C   0  0  0  0  0  0  0  0  0  0  0  0
    2.7284   -2.4548    1.2290 C   0  0  0  0  0  0  0  0  0  0  0  0
    3.6569   -3.2450    1.8250 O   0  0  0  0  0  0  0  0  0  0  0  0
    1.6552   -3.1239    0.6189 C   0  0  0  0  0  0  0  0  0  0  0  0
    0.6512   -2.3999   -0.0352 C   0  0  0  0  0  0  0  0  0  0  0  0
    0.7153   -0.9934   -0.1045 C   0  0  0  0  0  0  0  0  0  0  0  0
   -0.2993   -0.3466   -0.7565 N   0  0  0  0  0  0  0  0  0  0  0  0
   -0.1433    0.0831   -2.1217 C   0  0  0  0  0  0  0  0  0  0  0  0
   -1.5372   -0.0997   -0.0718 C   0  0  0  0  0  0  0  0  0  0  0  0
    3.8900   -0.3251    1.7763 C   0  0  0  0  0  0  0  0  0  0  0  0
    4.5813   -0.9246    2.7436 O   0  0  0  0  0  0  0  0  0  0  0  0
    4.1759    0.9614    1.4407 C   0  0  0  0  0  0  0  0  0  0  0  0
    5.1477    1.7176    2.1021 C   0  0  0  0  0  0  0  0  0  0  0  0
    6.2258    1.1743    2.4539 O   0  0  0  0  0  0  0  0  0  0  0  0
    4.9224    3.1557    2.4609 C   0  0  1  0  0  0  0  0  0  0  0  0
    6.1877    3.8161    2.3035 O   0  0  0  0  0  0  0  0  0  0  0  0
    4.5584    3.1299    3.8928 C   0  0  0  0  0  0  0  0  0  0  0  0
    5.5553    2.9096    4.7569 O   0  0  0  0  0  0  0  0  0  0  0  0
    3.2863    3.2428    4.3478 C   0  0  0  0  0  0  0  0  0  0  0  0
    2.9594    3.0386    5.6980 C   0  0  0  0  0  0  0  0  0  0  0  0
    1.9596    3.6988    6.3142 N   0  0  0  0  0  0  0  0  0  0  0  0
    3.5751    2.2123    6.4117 O   0  0  0  0  0  0  0  0  0  0  0  0
    2.2790    3.5715    3.4367 C   0  0  0  0  0  0  0  0  0  0  0  0
    1.0982    3.1841    3.6170 O   0  0  0  0  0  0  0  0  0  0  0  0
    3.3669    6.1107    4.5066 H   0  0  0  0  0  0  0  0  0  0  0  0
    3.6289    7.4963    3.4358 H   0  0  0  0  0  0  0  0  0  0  0  0
    4.5955    6.0549    3.2339 H   0  0  0  0  0  0  0  0  0  0  0  0
    1.3469    7.6302    2.6185 H   0  0  0  0  0  0  0  0  0  0  0  0
    0.8120    6.1322    3.7355 H   0  0  0  0  0  0  0  0  0  0  0  0
    0.5422    6.1974    1.9692 H   0  0  0  0  0  0  0  0  0  0  0  0
    1.7508    4.2383    1.5236 H   0  0  0  0  0  0  0  0  0  0  0  0
    4.3653    4.8335    1.1725 H   0  0  0  0  0  0  0  0  0  0  0  0
    4.5785    3.2440   -0.4133 H   0  0  0  0  0  0  0  0  0  0  0  0
    2.8698    3.5923   -0.4132 H   0  0  0  0  0  0  0  0  0  0  0  0
    3.7692    1.1405   -0.5809 H   0  0  0  0  0  0  0  0  0  0  0  0
    1.4753    1.6050    1.3826 H   0  0  0  0  0  0  0  0  0  0  0  0
    1.3704    1.6235   -0.3773 H   0  0  0  0  0  0  0  0  0  0  0  0
    3.6988   -2.9345    2.7526 H   0  0  0  0  0  0  0  0  0  0  0  0
    1.5984   -4.1455    0.6503 H   0  0  0  0  0  0  0  0  0  0  0  0
   -0.1316   -2.9075   -0.4582 H   0  0  0  0  0  0  0  0  0  0  0  0
   -0.8260   -0.4735   -2.7674 H   0  0  0  0  0  0  0  0  0  0  0  0
    0.8747   -0.0666   -2.4948 H   0  0  0  0  0  0  0  0  0  0  0  0
   -0.3765    1.1475   -2.2019 H   0  0  0  0  0  0  0  0  0  0  0  0
   -1.6828    0.9767    0.0361 H   0  0  0  0  0  0  0  0  0  0  0  0
   -2.3689   -0.5170   -0.6429 H   0  0  0  0  0  0  0  0  0  0  0  0
   -1.5584   -0.5444    0.9276 H   0  0  0  0  0  0  0  0  0  0  0  0
    5.5076   -0.9326    2.4251 H   0  0  0  0  0  0  0  0  0  0  0  0
    6.0460    4.7300    2.6229 H   0  0  0  0  0  0  0  0  0  0  0  0
    6.1912    3.6415    4.6175 H   0  0  0  0  0  0  0  0  0  0  0  0
    1.7608    3.5152    7.2460 H   0  0  0  0  0  0  0  0  0  0  0  0
    1.4371    4.3566    5.8300 H   0  0  0  0  0  0  0  0  0  0  0  0
  1  2  1  0  0  0  0 
  2  3  1  0  0  0  0 
  4  2  1  0  0  0  0 
  5  4  1  0  0  0  0 
  5  6  1  0  0  0  0 
  7  6  1  0  0  0  0 
  7  8  1  0  0  0  0 
  8  9  1  0  0  0  0 
  9 10  2  0  0  0  0 
 10 11  1  0  0  0  0 
 11 12  1  0  0  0  0 
 11 13  2  0  0  0  0 
 13 14  1  0  0  0  0 
 14 15  2  0  0  0  0 
  9 15  1  0  0  0  0 
 15 16  1  0  0  0  0 
 16 17  1  0  0  0  0 
 16 18  1  0  0  0  0 
 10 19  1  0  0  0  0 
 19 20  1  0  0  0  0 
 19 21  2  0  0  0  0 
  7 21  1  0  0  0  0 
 21 22  1  0  0  0  0 
 22 23  2  0  0  0  0 
 24 22  1  0  0  0  0 
  5 24  1  0  0  0  0 
 24 25  1  0  0  0  0 
 24 26  1  0  0  0  0 
 26 27  1  0  0  0  0 
 26 28  2  0  0  0  0 
 28 29  1  0  0  0  0 
 29 30  1  0  0  0  0 
 29 31  2  0  0  0  0 
 28 32  1  0  0  0  0 
  4 32  1  0  0  0  0 
 32 33  2  0  0  0  0 
 34  1  1  0  0  0  0 
 35  1  1  0  0  0  0 
 36  1  1  0  0  0  0 
 37  3  1  0  0  0  0 
 38  3  1  0  0  0  0 
 39  3  1  0  0  0  0 
  4 40  1  0  0  0  0 
  5 41  1  0  0  0  0 
 42  6  1  0  0  0  0 
 43  6  1  0  0  0  0 
  7 44  1  0  0  0  0 
 45  8  1  0  0  0  0 
 46  8  1  0  0  0  0 
 47 12  1  0  0  0  0 
 48 13  1  0  0  0  0 
 49 14  1  0  0  0  0 
 50 17  1  0  0  0  0 
 51 17  1  0  0  0  0 
 52 17  1  0  0  0  0 
 53 18  1  0  0  0  0 
 54 18  1  0  0  0  0 
 55 18  1  0  0  0  0 
 56 20  1  0  0  0  0 
 57 25  1  0  0  0  0 
 58 27  1  0  0  0  0 
 59 30  1  0  0  0  0 
 60 30  1  0  0  0  0 
M  END
> <cdk:Title>
minocycline

> <Conformer>
1

> <SuperDrugID>
SD001612

$$$$
