echothiophate
  CDK     0628171802

 38 37  0  0  0  0  0  0  0  0999 V2000
   -2.6759    1.5828    0.0000 P   0  0  2  0  0  0  0  0  0  0  0  0
   -0.6888    1.7756    0.0000 S   0  0  0  0  0  0  0  0  0  0  0  0
   -2.9972    0.7579    1.3297 O   0  0  0  0  0  0  0  0  0  0  0  0
   -2.9972    0.7579   -1.3297 O   0  0  0  0  0  0  0  0  0  0  0  0
   -3.2917    2.9114    0.0000 O   0  0  0  0  0  0  0  0  0  0  0  0
   -0.1009    0.0450    0.0000 C   0  0  2  0  0  0  0  0  0  0  0  0
   -4.3602    0.6635    1.7710 C   0  0  1  0  0  0  0  0  0  0  0  0
   -4.3602    0.6635   -1.7710 C   0  0  2  0  0  0  0  0  0  0  0  0
    1.4503   -0.0563    0.0000 C   0  0  1  0  0  0  0  0  0  0  0  0
   -4.3564    0.0186    3.1691 C   0  0  0  0  0  0  0  0  0  0  0  0
   -4.3564    0.0186   -3.1691 C   0  0  0  0  0  0  0  0  0  0  0  0
    2.0565   -1.4542    0.0000 N   0  0  2  0  0  0  0  0  0  0  0  0
    1.6477   -2.2183    1.2382 C   0  0  0  0  0  0  0  0  0  0  0  0
    3.5645   -1.3357    0.0000 C   0  0  0  0  0  0  0  0  0  0  0  0
    1.6477   -2.2183   -1.2382 C   0  0  0  0  0  0  0  0  0  0  0  0
   -0.5119   -0.4392   -0.8861 H   0  0  0  0  0  0  0  0  0  0  0  0
   -0.5119   -0.4392    0.8861 H   0  0  0  0  0  0  0  0  0  0  0  0
   -4.8428    1.6438    1.8349 H   0  0  0  0  0  0  0  0  0  0  0  0
   -4.9364    0.0188    1.1103 H   0  0  0  0  0  0  0  0  0  0  0  0
   -4.8428    1.6438   -1.8349 H   0  0  0  0  0  0  0  0  0  0  0  0
   -4.9364    0.0188   -1.1103 H   0  0  0  0  0  0  0  0  0  0  0  0
    1.8009    0.4976   -0.8795 H   0  0  0  0  0  0  0  0  0  0  0  0
    1.8009    0.4976    0.8795 H   0  0  0  0  0  0  0  0  0  0  0  0
   -5.3816   -0.1302    3.5131 H   0  0  0  0  0  0  0  0  0  0  0  0
   -3.8525   -0.9499    3.1370 H   0  0  0  0  0  0  0  0  0  0  0  0
   -3.8346    0.6637    3.8781 H   0  0  0  0  0  0  0  0  0  0  0  0
   -5.3816   -0.1302   -3.5131 H   0  0  0  0  0  0  0  0  0  0  0  0
   -3.8346    0.6637   -3.8781 H   0  0  0  0  0  0  0  0  0  0  0  0
   -3.8525   -0.9499   -3.1370 H   0  0  0  0  0  0  0  0  0  0  0  0
    0.5754   -2.4218    1.2541 H   0  0  0  0  0  0  0  0  0  0  0  0
    2.1498   -3.1869    1.3041 H   0  0  0  0  0  0  0  0  0  0  0  0
    1.8914   -1.6578    2.1459 H   0  0  0  0  0  0  0  0  0  0  0  0
    3.9252   -0.7988   -0.8825 H   0  0  0  0  0  0  0  0  0  0  0  0
    4.0442   -2.3199    0.0000 H   0  0  0  0  0  0  0  0  0  0  0  0
    3.9252   -0.7988    0.8825 H   0  0  0  0  0  0  0  0  0  0  0  0
    1.8914   -1.6578   -2.1459 H   0  0  0  0  0  0  0  0  0  0  0  0
    2.1498   -3.1869   -1.3041 H   0  0  0  0  0  0  0  0  0  0  0  0
    0.5754   -2.4218   -1.2541 H   0  0  0  0  0  0  0  0  0  0  0  0
  1  2  1  0  0  0  0 
  1  3  1  0  0  0  0 
  1  4  1  0  0  0  0 
  1  5  2  0  0  0  0 
  2  6  1  0  0  0  0 
  3  7  1  0  0  0  0 
  4  8  1  0  0  0  0 
  6  9  1  0  0  0  0 
  7 10  1  0  0  0  0 
  8 11  1  0  0  0  0 
  9 12  1  0  0  0  0 
 12 13  1  0  0  0  0 
 12 14  1  0  0  0  0 
 12 15  1  0  0  0  0 
  6 16  1  0  0  0  0 
  6 17  1  0  0  0  0 
  7 18  1  0  0  0  0 
  7 19  1  0  0  0  0 
  8 20  1  0  0  0  0 
  8 21  1  0  0  0  0 
  9 22  1  0  0  0  0 
  9 23  1  0  0  0  0 
 10 24  1  0  0  0  0 
 10 25  1  0  0  0  0 
 10 26  1  0  0  0  0 
 11 27  1  0  0  0  0 
 11 28  1  0  0  0  0 
 11 29  1  0  0  0  0 
 13 30  1  0  0  0  0 
 13 31  1  0  0  0  0 
 13 32  1  0  0  0  0 
 14 33  1  0  0  0  0 
 14 34  1  0  0  0  0 
 14 35  1  0  0  0  0 
 15 36  1  0  0  0  0 
 15 37  1  0  0  0  0 
 15 38  1  0  0  0  0 
M  CHG  1  12   1
M  END
> <cdk:Title>
echothiophate

> <Conformer>
1

> <SuperDrugID>
SD000871

$$$$
