temozolomide
  CDK     0628171801

 20 21  0  0  0  0  0  0  0  0999 V2000
    0.0604    1.4784    0.2190 C   0  0  0  0  0  0  0  0  0  0  0  0
   -0.1368    2.7998    0.3793 N   0  0  0  0  0  0  0  0  0  0  0  0
    1.2412    1.0669    0.1648 O   0  0  0  0  0  0  0  0  0  0  0  0
   -1.0281    0.5925    0.1024 C   0  0  0  0  0  0  0  0  0  0  0  0
   -0.9998   -0.7809   -0.1373 C   0  0  0  0  0  0  0  0  0  0  0  0
   -2.3270    0.9410    0.1917 N   0  0  0  0  0  0  0  0  0  0  0  0
   -2.2638   -1.2299   -0.1845 N   0  0  0  0  0  0  0  0  0  0  0  0
    0.0329   -1.6358   -0.3183 N   0  0  0  0  0  0  0  0  0  0  0  0
   -3.0685   -0.1695    0.0168 C   0  0  0  0  0  0  0  0  0  0  0  0
   -2.5334   -2.5460   -0.4086 C   0  0  0  0  0  0  0  0  0  0  0  0
   -0.2451   -2.8990   -0.5331 N   0  0  0  0  0  0  0  0  0  0  0  0
   -3.7204   -2.9506   -0.4568 O   0  0  0  0  0  0  0  0  0  0  0  0
   -1.4668   -3.3950   -0.5781 N   0  0  0  0  0  0  0  0  0  0  0  0
   -1.6340   -4.8032   -0.8028 C   0  0  0  0  0  0  0  0  0  0  0  0
   -1.0375    3.1593    0.4151 H   0  0  0  0  0  0  0  0  0  0  0  0
    0.6240    3.3974    0.4573 H   0  0  0  0  0  0  0  0  0  0  0  0
   -4.0910   -0.1874    0.0305 H   0  0  0  0  0  0  0  0  0  0  0  0
   -2.1783   -5.2519    0.0315 H   0  0  0  0  0  0  0  0  0  0  0  0
   -0.6766   -5.3236   -0.8987 H   0  0  0  0  0  0  0  0  0  0  0  0
   -2.1999   -4.9644   -1.7228 H   0  0  0  0  0  0  0  0  0  0  0  0
  1  2  1  0  0  0  0 
  1  3  2  0  0  0  0 
  1  4  1  0  0  0  0 
  4  5  2  0  0  0  0 
  4  6  1  0  0  0  0 
  5  7  1  0  0  0  0 
  5  8  1  0  0  0  0 
  6  9  2  0  0  0  0 
  7  9  1  0  0  0  0 
  7 10  1  0  0  0  0 
  8 11  2  0  0  0  0 
 10 12  2  0  0  0  0 
 10 13  1  0  0  0  0 
 11 13  1  0  0  0  0 
 13 14  1  0  0  0  0 
  2 15  1  0  0  0  0 
  2 16  1  0  0  0  0 
  9 17  1  0  0  0  0 
 14 18  1  0  0  0  0 
 14 19  1  0  0  0  0 
 14 20  1  0  0  0  0 
M  END
> <cdk:Title>
temozolomide

> <Conformer>
1

> <SuperDrugID>
SD002328

$$$$
