carmofur
  CDK     0628171802

 34 34  0  0  0  0  0  0  0  0999 V2000
    1.1571   -0.3303   -0.0627 C   0  0  0  0  0  0  0  0  0  0  0  0
   -0.1973   -0.4502    0.1279 N   0  0  0  0  0  0  0  0  0  0  0  0
    1.8305   -1.3793    0.0983 O   0  0  0  0  0  0  0  0  0  0  0  0
    1.7858    0.8711   -0.4005 N   0  0  0  0  0  0  0  0  0  0  0  0
   -0.8720   -1.6362    0.5624 C   0  0  1  0  0  0  0  0  0  0  0  0
    3.1551    0.9640   -0.5645 C   0  0  0  0  0  0  0  0  0  0  0  0
    1.0519    2.0233   -0.5773 C   0  0  0  0  0  0  0  0  0  0  0  0
   -2.4041   -1.5431    0.3503 C   0  0  1  0  0  0  0  0  0  0  0  0
    3.9491    0.0011   -0.4464 O   0  0  0  0  0  0  0  0  0  0  0  0
    3.7570    2.1408   -0.8697 N   0  0  0  0  0  0  0  0  0  0  0  0
    1.6572    3.2537   -0.8946 C   0  0  0  0  0  0  0  0  0  0  0  0
   -3.1340   -2.8117    0.8714 C   0  0  2  0  0  0  0  0  0  0  0  0
    3.0518    3.2818   -1.0341 C   0  0  0  0  0  0  0  0  0  0  0  0
    0.9384    4.3333   -1.0491 F   0  0  0  0  0  0  0  0  0  0  0  0
   -4.6717   -2.7925    0.6633 C   0  0  1  0  0  0  0  0  0  0  0  0
    3.6612    4.3414   -1.3069 O   0  0  0  0  0  0  0  0  0  0  0  0
   -5.3378   -4.0786    1.2251 C   0  0  1  0  0  0  0  0  0  0  0  0
   -6.8698   -4.0869    1.0409 C   0  0  0  0  0  0  0  0  0  0  0  0
   -0.7462    0.3369    0.0057 H   0  0  0  0  0  0  0  0  0  0  0  0
   -0.4968   -2.5036    0.0134 H   0  0  0  0  0  0  0  0  0  0  0  0
   -0.6575   -1.7777    1.6253 H   0  0  0  0  0  0  0  0  0  0  0  0
    0.0343    2.0267   -0.4812 H   0  0  0  0  0  0  0  0  0  0  0  0
   -2.7847   -0.6626    0.8759 H   0  0  0  0  0  0  0  0  0  0  0  0
   -2.6093   -1.4213   -0.7174 H   0  0  0  0  0  0  0  0  0  0  0  0
    4.7218    2.1626   -0.9700 H   0  0  0  0  0  0  0  0  0  0  0  0
   -2.9269   -2.9174    1.9403 H   0  0  0  0  0  0  0  0  0  0  0  0
   -2.7266   -3.6880    0.3582 H   0  0  0  0  0  0  0  0  0  0  0  0
   -5.0964   -1.9187    1.1659 H   0  0  0  0  0  0  0  0  0  0  0  0
   -4.8915   -2.7114   -0.4054 H   0  0  0  0  0  0  0  0  0  0  0  0
   -4.9216   -4.9557    0.7207 H   0  0  0  0  0  0  0  0  0  0  0  0
   -5.1167   -4.1672    2.2928 H   0  0  0  0  0  0  0  0  0  0  0  0
   -7.2864   -5.0082    1.4538 H   0  0  0  0  0  0  0  0  0  0  0  0
   -7.3179   -3.2373    1.5603 H   0  0  0  0  0  0  0  0  0  0  0  0
   -7.1244   -4.0324   -0.0196 H   0  0  0  0  0  0  0  0  0  0  0  0
  1  2  1  0  0  0  0 
  1  3  2  0  0  0  0 
  1  4  1  0  0  0  0 
  2  5  1  0  0  0  0 
  4  6  1  0  0  0  0 
  4  7  1  0  0  0  0 
  5  8  1  0  0  0  0 
  6  9  2  0  0  0  0 
  6 10  1  0  0  0  0 
  7 11  2  0  0  0  0 
  8 12  1  0  0  0  0 
 10 13  1  0  0  0  0 
 11 13  1  0  0  0  0 
 11 14  1  0  0  0  0 
 12 15  1  0  0  0  0 
 13 16  2  0  0  0  0 
 15 17  1  0  0  0  0 
 17 18  1  0  0  0  0 
 19  2  1  0  0  0  0 
 20  5  1  0  0  0  0 
 21  5  1  0  0  0  0 
 22  7  1  0  0  0  0 
 23  8  1  0  0  0  0 
 24  8  1  0  0  0  0 
 25 10  1  0  0  0  0 
 26 12  1  0  0  0  0 
 27 12  1  0  0  0  0 
 28 15  1  0  0  0  0 
 29 15  1  0  0  0  0 
 30 17  1  0  0  0  0 
 31 17  1  0  0  0  0 
 32 18  1  0  0  0  0 
 33 18  1  0  0  0  0 
 34 18  1  0  0  0  0 
M  END
> <cdk:Title>
carmofur

> <Conformer>
1

> <SuperDrugID>
SD000441

$$$$
