viquidil
  CDK     0628171801

 48 50  0  0  0  0  0  0  0  0999 V2000
    0.1934    2.2133    1.6127 C   0  0  0  0  0  0  0  0  0  0  0  0
    0.8790    0.8878    1.4996 C   0  0  2  0  0  0  0  0  0  0  0  0
   -0.2384    2.4363    2.7660 O   0  0  0  0  0  0  0  0  0  0  0  0
    0.0698    3.2117    0.5709 C   0  0  0  0  0  0  0  0  0  0  0  0
    0.3324   -0.0930    0.4210 C   0  0  2  0  0  0  0  0  0  0  0  0
   -0.8273    4.3411    0.6024 C   0  0  0  0  0  0  0  0  0  0  0  0
    0.9172    3.0927   -0.5658 C   0  0  0  0  0  0  0  0  0  0  0  0
   -1.1942   -0.4464    0.4660 C   0  0  1  0  0  0  0  0  0  0  0  0
   -0.8267    5.2438   -0.5084 C   0  0  0  0  0  0  0  0  0  0  0  0
   -1.7285    4.6606    1.6571 C   0  0  0  0  0  0  0  0  0  0  0  0
    0.8371    3.9938   -1.6356 C   0  0  0  0  0  0  0  0  0  0  0  0
   -1.7033   -1.1902   -0.8276 C   0  0  1  0  0  0  0  0  0  0  0  0
   -1.5912   -1.2782    1.7288 C   0  0  1  0  0  0  0  0  0  0  0  0
   -1.6483    6.3872   -0.5462 C   0  0  0  0  0  0  0  0  0  0  0  0
   -0.0198    5.0303   -1.5726 N   0  0  0  0  0  0  0  0  0  0  0  0
   -2.5063    5.8375    1.6539 C   0  0  0  0  0  0  0  0  0  0  0  0
   -1.4221   -0.4849   -2.0825 C   0  0  0  0  0  0  0  0  0  0  0  0
   -1.1859   -2.6653   -0.8428 C   0  0  1  0  0  0  0  0  0  0  0  0
   -1.1301   -2.7572    1.6413 C   0  0  1  0  0  0  0  0  0  0  0  0
   -2.4837    6.6869    0.5366 C   0  0  0  0  0  0  0  0  0  0  0  0
   -3.2937    6.1557    2.7278 O   0  0  0  0  0  0  0  0  0  0  0  0
   -1.8975    0.7312   -2.3813 C   0  0  0  0  0  0  0  0  0  0  0  0
   -1.5822   -3.3956    0.3846 N   0  0  1  0  0  0  0  0  0  0  0  0
   -2.5574    6.8183    3.7751 C   0  0  0  0  0  0  0  0  0  0  0  0
    0.8533    0.3617    2.4613 H   0  0  0  0  0  0  0  0  0  0  0  0
    1.9373    1.0731    1.2951 H   0  0  0  0  0  0  0  0  0  0  0  0
    0.9155   -1.0131    0.4964 H   0  0  0  0  0  0  0  0  0  0  0  0
    0.5653    0.3220   -0.5556 H   0  0  0  0  0  0  0  0  0  0  0  0
    1.6237    2.3604   -0.6413 H   0  0  0  0  0  0  0  0  0  0  0  0
   -1.7441    0.4971    0.5338 H   0  0  0  0  0  0  0  0  0  0  0  0
   -1.8446    4.0612    2.4657 H   0  0  0  0  0  0  0  0  0  0  0  0
    1.4279    3.8811   -2.4609 H   0  0  0  0  0  0  0  0  0  0  0  0
   -2.7958   -1.2580   -0.7620 H   0  0  0  0  0  0  0  0  0  0  0  0
   -1.1874   -0.8251    2.6368 H   0  0  0  0  0  0  0  0  0  0  0  0
   -2.6828   -1.2729    1.8264 H   0  0  0  0  0  0  0  0  0  0  0  0
   -1.6345    7.0128   -1.3548 H   0  0  0  0  0  0  0  0  0  0  0  0
   -0.8383   -0.9206   -2.7588 H   0  0  0  0  0  0  0  0  0  0  0  0
   -1.6194   -3.2023   -1.6910 H   0  0  0  0  0  0  0  0  0  0  0  0
   -0.0991   -2.6959   -0.9568 H   0  0  0  0  0  0  0  0  0  0  0  0
   -0.0421   -2.8279    1.7218 H   0  0  0  0  0  0  0  0  0  0  0  0
   -1.5588   -3.3183    2.4756 H   0  0  0  0  0  0  0  0  0  0  0  0
   -3.0693    7.5246    0.5134 H   0  0  0  0  0  0  0  0  0  0  0  0
   -2.4864    1.2248   -1.7550 H   0  0  0  0  0  0  0  0  0  0  0  0
   -1.6577    1.1600   -3.2436 H   0  0  0  0  0  0  0  0  0  0  0  0
   -2.6053   -3.4008    0.4082 H   0  0  0  0  0  0  0  0  0  0  0  0
   -3.2475    7.0505    4.5869 H   0  0  0  0  0  0  0  0  0  0  0  0
   -1.7701    6.1747    4.1753 H   0  0  0  0  0  0  0  0  0  0  0  0
   -2.1166    7.7562    3.4268 H   0  0  0  0  0  0  0  0  0  0  0  0
  1  2  1  0  0  0  0 
  1  3  2  0  0  0  0 
  1  4  1  0  0  0  0 
  2  5  1  0  0  0  0 
  4  6  2  0  0  0  0 
  4  7  1  0  0  0  0 
  6  9  1  0  0  0  0 
  6 10  1  0  0  0  0 
  7 11  2  0  0  0  0 
  8  5  1  0  0  0  0 
  8 12  1  0  0  0  0 
  8 13  1  0  0  0  0 
  9 14  1  0  0  0  0 
  9 15  2  0  0  0  0 
 10 16  2  0  0  0  0 
 11 15  1  0  0  0  0 
 12 17  1  0  0  0  0 
 12 18  1  0  0  0  0 
 13 19  1  0  0  0  0 
 14 20  2  0  0  0  0 
 16 20  1  0  0  0  0 
 16 21  1  0  0  0  0 
 17 22  2  0  0  0  0 
 18 23  1  0  0  0  0 
 19 23  1  0  0  0  0 
 21 24  1  0  0  0  0 
 25  2  1  0  0  0  0 
 26  2  1  0  0  0  0 
 27  5  1  0  0  0  0 
 28  5  1  0  0  0  0 
 29  7  1  0  0  0  0 
  8 30  1  0  0  0  0 
 31 10  1  0  0  0  0 
 32 11  1  0  0  0  0 
 12 33  1  0  0  0  0 
 34 13  1  0  0  0  0 
 35 13  1  0  0  0  0 
 36 14  1  0  0  0  0 
 37 17  1  0  0  0  0 
 38 18  1  0  0  0  0 
 39 18  1  0  0  0  0 
 40 19  1  0  0  0  0 
 41 19  1  0  0  0  0 
 42 20  1  0  0  0  0 
 43 22  1  0  0  0  0 
 44 22  1  0  0  0  0 
 45 23  1  0  0  0  0 
 46 24  1  0  0  0  0 
 47 24  1  0  0  0  0 
 48 24  1  0  0  0  0 
M  END
> <cdk:Title>
viquidil

> <Conformer>
1

> <SuperDrugID>
SD003125

$$$$
