mesalazine
  CDK     0628171801

 18 18  0  0  0  0  0  0  0  0999 V2000
    2.0122   -4.5195   -1.1750 N   0  0  0  0  0  0  0  0  0  0  0  0
    1.2105   -3.4550   -0.9749 C   0  0  0  0  0  0  0  0  0  0  0  0
    1.7631   -2.2130   -0.6022 C   0  0  0  0  0  0  0  0  0  0  0  0
    0.9445   -1.0785   -0.3678 C   0  0  0  0  0  0  0  0  0  0  0  0
    1.5503    0.1667   -0.0277 C   0  0  0  0  0  0  0  0  0  0  0  0
    2.8875    0.2813    0.1644 O   0  0  0  0  0  0  0  0  0  0  0  0
    0.9011    1.2294    0.0949 O   0  0  0  0  0  0  0  0  0  0  0  0
   -0.4628   -1.2387   -0.4981 C   0  0  0  0  0  0  0  0  0  0  0  0
   -1.3470   -0.2364   -0.2557 O   0  0  0  0  0  0  0  0  0  0  0  0
   -1.0124   -2.4748   -0.8920 C   0  0  0  0  0  0  0  0  0  0  0  0
   -0.1814   -3.5803   -1.1340 C   0  0  0  0  0  0  0  0  0  0  0  0
    2.9730   -4.4260   -1.0841 H   0  0  0  0  0  0  0  0  0  0  0  0
    1.6324   -5.3832   -1.4018 H   0  0  0  0  0  0  0  0  0  0  0  0
    2.7793   -2.1487   -0.5069 H   0  0  0  0  0  0  0  0  0  0  0  0
    3.2826    1.1496    0.3891 H   0  0  0  0  0  0  0  0  0  0  0  0
   -1.0392    0.1856    0.5733 H   0  0  0  0  0  0  0  0  0  0  0  0
   -2.0255   -2.5751   -0.9993 H   0  0  0  0  0  0  0  0  0  0  0  0
   -0.5959   -4.4712   -1.4217 H   0  0  0  0  0  0  0  0  0  0  0  0
  1  2  1  0  0  0  0 
  2  3  2  0  0  0  0 
  3  4  1  0  0  0  0 
  4  5  1  0  0  0  0 
  5  6  1  0  0  0  0 
  5  7  2  0  0  0  0 
  4  8  2  0  0  0  0 
  8  9  1  0  0  0  0 
  8 10  1  0  0  0  0 
 10 11  2  0  0  0  0 
  2 11  1  0  0  0  0 
  1 12  1  0  0  0  0 
  1 13  1  0  0  0  0 
  3 14  1  0  0  0  0 
  6 15  1  0  0  0  0 
  9 16  1  0  0  0  0 
 10 17  1  0  0  0  0 
 11 18  1  0  0  0  0 
M  END
> <cdk:Title>
mesalazine

> <Conformer>
1

> <SuperDrugID>
SD001513

$$$$
