liranaftate
  CDK     0628171801

 43 45  0  0  0  0  0  0  0  0999 V2000
    0.3654    0.9137    0.7327 O   0  0  0  0  0  0  0  0  0  0  0  0
   -0.4200    0.8999   -0.3582 C   0  0  0  0  0  0  0  0  0  0  0  0
   -0.1231    0.0470    1.6754 C   0  0  0  0  0  0  0  0  0  0  0  0
   -0.1314    0.0830   -1.3826 N   0  0  0  0  0  0  0  0  0  0  0  0
   -1.7392    1.9746   -0.4682 S   0  0  0  0  0  0  0  0  0  0  0  0
   -0.9525    0.5265    2.7078 C   0  0  0  0  0  0  0  0  0  0  0  0
    0.1738   -1.3291    1.6087 C   0  0  0  0  0  0  0  0  0  0  0  0
   -1.0502   -0.9951   -1.6898 C   0  0  0  0  0  0  0  0  0  0  0  0
    1.0432    0.2377   -2.1023 C   0  0  0  0  0  0  0  0  0  0  0  0
   -1.5706   -0.3655    3.6133 C   0  0  0  0  0  0  0  0  0  0  0  0
   -0.4376   -2.2267    2.4971 C   0  0  0  0  0  0  0  0  0  0  0  0
    1.5175   -0.8132   -2.8294 N   0  0  0  0  0  0  0  0  0  0  0  0
    1.8045    1.4360   -2.1364 C   0  0  0  0  0  0  0  0  0  0  0  0
   -1.3251   -1.7631    3.4933 C   0  0  0  0  0  0  0  0  0  0  0  0
   -2.4624    0.1857    4.6718 C   0  0  1  0  0  0  0  0  0  0  0  0
    2.6540   -0.7930   -3.5685 C   0  0  0  0  0  0  0  0  0  0  0  0
    2.9916    1.5046   -2.8879 C   0  0  0  0  0  0  0  0  0  0  0  0
   -2.0095   -2.7606    4.3618 C   0  0  1  0  0  0  0  0  0  0  0  0
   -3.4159   -0.8572    5.3071 C   0  0  2  0  0  0  0  0  0  0  0  0
    3.0244   -1.9156   -4.2482 O   0  0  0  0  0  0  0  0  0  0  0  0
    3.4269    0.3812   -3.6094 C   0  0  0  0  0  0  0  0  0  0  0  0
   -2.6636   -2.1655    5.6330 C   0  0  1  0  0  0  0  0  0  0  0  0
    2.4910   -1.9470   -5.5835 C   0  0  0  0  0  0  0  0  0  0  0  0
   -1.1239    1.5335    2.7792 H   0  0  0  0  0  0  0  0  0  0  0  0
    0.8141   -1.6816    0.8934 H   0  0  0  0  0  0  0  0  0  0  0  0
   -1.3996   -0.9093   -2.7218 H   0  0  0  0  0  0  0  0  0  0  0  0
   -1.9307   -1.0188   -1.0400 H   0  0  0  0  0  0  0  0  0  0  0  0
   -0.5477   -1.9569   -1.5746 H   0  0  0  0  0  0  0  0  0  0  0  0
   -0.2351   -3.2240    2.4031 H   0  0  0  0  0  0  0  0  0  0  0  0
    1.5045    2.2650   -1.6211 H   0  0  0  0  0  0  0  0  0  0  0  0
   -1.8295    0.6191    5.4528 H   0  0  0  0  0  0  0  0  0  0  0  0
   -3.0807    0.9891    4.2595 H   0  0  0  0  0  0  0  0  0  0  0  0
    3.5382    2.3692   -2.9108 H   0  0  0  0  0  0  0  0  0  0  0  0
   -2.7844   -3.2450    3.7622 H   0  0  0  0  0  0  0  0  0  0  0  0
   -1.3018   -3.5304    4.6811 H   0  0  0  0  0  0  0  0  0  0  0  0
   -4.2334   -1.0726    4.6141 H   0  0  0  0  0  0  0  0  0  0  0  0
   -3.8474   -0.4449    6.2218 H   0  0  0  0  0  0  0  0  0  0  0  0
    4.2856    0.4217   -4.1610 H   0  0  0  0  0  0  0  0  0  0  0  0
   -3.3620   -2.8909    6.0595 H   0  0  0  0  0  0  0  0  0  0  0  0
   -1.8880   -1.9643    6.3788 H   0  0  0  0  0  0  0  0  0  0  0  0
    2.8262   -2.8668   -6.0612 H   0  0  0  0  0  0  0  0  0  0  0  0
    1.3981   -1.9448   -5.5847 H   0  0  0  0  0  0  0  0  0  0  0  0
    2.8585   -1.1056   -6.1748 H   0  0  0  0  0  0  0  0  0  0  0  0
  1  2  1  0  0  0  0 
  1  3  1  0  0  0  0 
  2  4  1  0  0  0  0 
  2  5  2  0  0  0  0 
  3  6  2  0  0  0  0 
  3  7  1  0  0  0  0 
  4  8  1  0  0  0  0 
  4  9  1  0  0  0  0 
  6 10  1  0  0  0  0 
  7 11  2  0  0  0  0 
  9 12  2  0  0  0  0 
  9 13  1  0  0  0  0 
 10 14  2  0  0  0  0 
 10 15  1  0  0  0  0 
 11 14  1  0  0  0  0 
 12 16  1  0  0  0  0 
 13 17  2  0  0  0  0 
 14 18  1  0  0  0  0 
 15 19  1  0  0  0  0 
 16 20  1  0  0  0  0 
 16 21  2  0  0  0  0 
 17 21  1  0  0  0  0 
 18 22  1  0  0  0  0 
 19 22  1  0  0  0  0 
 20 23  1  0  0  0  0 
  6 24  1  0  0  0  0 
  7 25  1  0  0  0  0 
  8 26  1  0  0  0  0 
  8 27  1  0  0  0  0 
  8 28  1  0  0  0  0 
 11 29  1  0  0  0  0 
 13 30  1  0  0  0  0 
 15 31  1  0  0  0  0 
 15 32  1  0  0  0  0 
 17 33  1  0  0  0  0 
 18 34  1  0  0  0  0 
 18 35  1  0  0  0  0 
 19 36  1  0  0  0  0 
 19 37  1  0  0  0  0 
 21 38  1  0  0  0  0 
 22 39  1  0  0  0  0 
 22 40  1  0  0  0  0 
 23 41  1  0  0  0  0 
 23 42  1  0  0  0  0 
 23 43  1  0  0  0  0 
M  END
> <cdk:Title>
liranaftate

> <Conformer>
1

> <SuperDrugID>
SD001401

$$$$
