umifenovir
  CDK     0628171802

 54 56  0  0  0  0  0  0  0  0999 V2000
   -4.3876   -2.3247   -2.0928 C   0  0  0  0  0  0  0  0  0  0  0  0
   -4.4973   -1.4740   -1.0326 O   0  0  0  0  0  0  0  0  0  0  0  0
   -5.3606   -0.3364   -0.8936 C   0  0  2  0  0  0  0  0  0  0  0  0
   -4.5186    0.9119   -0.5724 C   0  0  0  0  0  0  0  0  0  0  0  0
   -5.0922   -2.2041   -3.1208 O   0  0  0  0  0  0  0  0  0  0  0  0
   -3.4267   -3.3437   -2.0216 C   0  0  0  0  0  0  0  0  0  0  0  0
   -3.6364   -4.7268   -1.9617 C   0  0  0  0  0  0  0  0  0  0  0  0
   -2.3555   -5.2929   -1.9110 C   0  0  0  0  0  0  0  0  0  0  0  0
   -1.4094   -4.3247   -1.9048 N   0  0  0  0  0  0  0  0  0  0  0  0
   -2.0415   -3.1250   -1.9710 C   0  0  0  0  0  0  0  0  0  0  0  0
   -1.3754   -1.7966   -1.9809 C   0  0  2  0  0  0  0  0  0  0  0  0
   -0.9810   -1.3181   -0.2674 S   0  0  0  0  0  0  0  0  0  0  0  0
   -0.0484    0.1675   -0.3812 C   0  0  0  0  0  0  0  0  0  0  0  0
    1.1757    0.2692    0.3142 C   0  0  0  0  0  0  0  0  0  0  0  0
    1.9116    1.4696    0.2845 C   0  0  0  0  0  0  0  0  0  0  0  0
    1.4297    2.5771   -0.4374 C   0  0  0  0  0  0  0  0  0  0  0  0
    0.2155    2.4784   -1.1409 C   0  0  0  0  0  0  0  0  0  0  0  0
   -0.5175    1.2771   -1.1173 C   0  0  0  0  0  0  0  0  0  0  0  0
    0.0177   -4.5062   -1.8393 C   0  0  0  0  0  0  0  0  0  0  0  0
   -2.1942   -6.6893   -1.8574 C   0  0  0  0  0  0  0  0  0  0  0  0
   -3.3260   -7.5169   -1.8408 C   0  0  0  0  0  0  0  0  0  0  0  0
   -4.6196   -6.9535   -1.8726 C   0  0  0  0  0  0  0  0  0  0  0  0
   -4.8073   -5.5400   -1.9126 C   0  0  0  0  0  0  0  0  0  0  0  0
   -6.1950   -4.9776   -1.8662 C   0  0  2  0  0  0  0  0  0  0  0  0
   -6.7704   -4.4968   -3.1685 N   0  0  2  0  0  0  0  0  0  0  0  0
   -8.2337   -4.2147   -3.0596 C   0  0  0  0  0  0  0  0  0  0  0  0
   -6.4415   -5.2853   -4.3934 C   0  0  0  0  0  0  0  0  0  0  0  0
   -5.6641   -7.8259   -1.8509 O   0  0  0  0  0  0  0  0  0  0  0  0
   -3.0675   -9.3611   -1.7591 Br  0  0  0  0  0  0  0  0  0  0  0  0
   -6.0597   -0.5245   -0.0752 H   0  0  0  0  0  0  0  0  0  0  0  0
   -5.9388   -0.1539   -1.8019 H   0  0  0  0  0  0  0  0  0  0  0  0
   -5.1708    1.7663   -0.3808 H   0  0  0  0  0  0  0  0  0  0  0  0
   -3.9019    0.7319    0.3104 H   0  0  0  0  0  0  0  0  0  0  0  0
   -3.8700    1.1484   -1.4169 H   0  0  0  0  0  0  0  0  0  0  0  0
   -2.0173   -1.0355   -2.4270 H   0  0  0  0  0  0  0  0  0  0  0  0
   -0.4581   -1.8387   -2.5685 H   0  0  0  0  0  0  0  0  0  0  0  0
    1.5374   -0.5257    0.8484 H   0  0  0  0  0  0  0  0  0  0  0  0
    2.7968    1.5404    0.7911 H   0  0  0  0  0  0  0  0  0  0  0  0
    1.9610    3.4513   -0.4526 H   0  0  0  0  0  0  0  0  0  0  0  0
   -0.1370    3.2813   -1.6670 H   0  0  0  0  0  0  0  0  0  0  0  0
   -1.3958    1.2245   -1.6343 H   0  0  0  0  0  0  0  0  0  0  0  0
    0.3158   -5.5486   -1.7363 H   0  0  0  0  0  0  0  0  0  0  0  0
    0.4201   -3.9686   -0.9790 H   0  0  0  0  0  0  0  0  0  0  0  0
    0.4824   -4.1190   -2.7488 H   0  0  0  0  0  0  0  0  0  0  0  0
   -1.2685   -7.1123   -1.8319 H   0  0  0  0  0  0  0  0  0  0  0  0
   -6.1973   -4.1444   -1.1592 H   0  0  0  0  0  0  0  0  0  0  0  0
   -6.8755   -5.7063   -1.4154 H   0  0  0  0  0  0  0  0  0  0  0  0
   -8.7968   -5.1373   -2.8888 H   0  0  0  0  0  0  0  0  0  0  0  0
   -8.4292   -3.5309   -2.2318 H   0  0  0  0  0  0  0  0  0  0  0  0
   -8.6098   -3.7405   -3.9683 H   0  0  0  0  0  0  0  0  0  0  0  0
   -6.8609   -6.2919   -4.3408 H   0  0  0  0  0  0  0  0  0  0  0  0
   -6.8387   -4.7833   -5.2786 H   0  0  0  0  0  0  0  0  0  0  0  0
   -5.3616   -5.3584   -4.5353 H   0  0  0  0  0  0  0  0  0  0  0  0
   -6.3865   -7.3954   -2.3534 H   0  0  0  0  0  0  0  0  0  0  0  0
  1  2  1  0  0  0  0 
  1  5  2  0  0  0  0 
  1  6  1  0  0  0  0 
  2  3  1  0  0  0  0 
  3  4  1  0  0  0  0 
  6  7  1  0  0  0  0 
  6 10  2  0  0  0  0 
  7  8  1  0  0  0  0 
  7 23  2  0  0  0  0 
  8  9  1  0  0  0  0 
  8 20  2  0  0  0  0 
  9 19  1  0  0  0  0 
 10  9  1  0  0  0  0 
 10 11  1  0  0  0  0 
 11 12  1  0  0  0  0 
 12 13  1  0  0  0  0 
 13 14  2  0  0  0  0 
 13 18  1  0  0  0  0 
 14 15  1  0  0  0  0 
 15 16  2  0  0  0  0 
 17 16  1  0  0  0  0 
 18 17  2  0  0  0  0 
 20 21  1  0  0  0  0 
 21 29  1  0  0  0  0 
 22 21  2  0  0  0  0 
 22 28  1  0  0  0  0 
 23 22  1  0  0  0  0 
 23 24  1  0  0  0  0 
 24 25  1  0  0  0  0 
 25 26  1  0  0  0  0 
 25 27  1  0  0  0  0 
  3 30  1  0  0  0  0 
  3 31  1  0  0  0  0 
  4 32  1  0  0  0  0 
  4 33  1  0  0  0  0 
  4 34  1  0  0  0  0 
 11 35  1  0  0  0  0 
 11 36  1  0  0  0  0 
 14 37  1  0  0  0  0 
 15 38  1  0  0  0  0 
 16 39  1  0  0  0  0 
 17 40  1  0  0  0  0 
 18 41  1  0  0  0  0 
 19 42  1  0  0  0  0 
 19 43  1  0  0  0  0 
 19 44  1  0  0  0  0 
 20 45  1  0  0  0  0 
 24 46  1  0  0  0  0 
 24 47  1  0  0  0  0 
 26 48  1  0  0  0  0 
 26 49  1  0  0  0  0 
 26 50  1  0  0  0  0 
 27 51  1  0  0  0  0 
 27 52  1  0  0  0  0 
 27 53  1  0  0  0  0 
 28 54  1  0  0  0  0 
M  END
> <cdk:Title>
umifenovir

> <Conformer>
1

> <SuperDrugID>
SD003811

$$$$
