nefazodone
  CDK     0628171801

 65 68  0  0  0  0  0  0  0  0999 V2000
   -4.2205   -8.2838   -0.8965 C   0  0  1  0  0  0  0  0  0  0  0  0
   -4.3053   -6.9753   -1.7123 C   0  0  2  0  0  0  0  0  0  0  0  0
   -3.4011   -8.1550    0.2799 N   0  0  0  0  0  0  0  0  0  0  0  0
   -4.8985   -5.9389   -0.9028 O   0  0  0  0  0  0  0  0  0  0  0  0
   -2.0660   -8.3332    0.3883 C   0  0  0  0  0  0  0  0  0  0  0  0
   -3.8243   -7.8317    1.5181 C   0  0  0  0  0  0  0  0  0  0  0  0
   -5.0149   -4.7523   -1.5726 C   0  0  0  0  0  0  0  0  0  0  0  0
   -1.0879   -8.6707   -0.6638 C   0  0  2  0  0  0  0  0  0  0  0  0
   -1.7113   -8.1687    1.6710 N   0  0  0  0  0  0  0  0  0  0  0  0
   -5.0038   -7.5595    1.8445 O   0  0  0  0  0  0  0  0  0  0  0  0
   -2.7586   -7.8165    2.3420 N   0  0  0  0  0  0  0  0  0  0  0  0
   -6.1769   -4.4679   -2.3208 C   0  0  0  0  0  0  0  0  0  0  0  0
   -3.9735   -3.8033   -1.5135 C   0  0  0  0  0  0  0  0  0  0  0  0
   -0.8616  -10.1942   -0.7484 C   0  0  0  0  0  0  0  0  0  0  0  0
   -2.7134   -7.3912    3.7076 C   0  0  2  0  0  0  0  0  0  0  0  0
   -6.2783   -3.2605   -3.0372 C   0  0  0  0  0  0  0  0  0  0  0  0
   -4.0757   -2.5977   -2.2316 C   0  0  0  0  0  0  0  0  0  0  0  0
   -2.6230   -5.8432    3.8273 C   0  0  2  0  0  0  0  0  0  0  0  0
   -5.2234   -2.3292   -3.0011 C   0  0  0  0  0  0  0  0  0  0  0  0
   -1.3416   -5.2297    3.1817 C   0  0  1  0  0  0  0  0  0  0  0  0
   -1.1936   -3.7333    3.2425 N   0  0  1  0  0  0  0  0  0  0  0  0
    0.1502   -3.2912    2.7294 C   0  0  2  0  0  0  0  0  0  0  0  0
   -2.3152   -2.9706    2.6027 C   0  0  1  0  0  0  0  0  0  0  0  0
    0.3110   -1.7481    2.7098 C   0  0  2  0  0  0  0  0  0  0  0  0
   -2.0588   -1.4430    2.6458 C   0  0  2  0  0  0  0  0  0  0  0  0
   -0.7982   -1.1526    1.9680 N   0  0  0  0  0  0  0  0  0  0  0  0
   -0.6808   -0.4725    0.7279 C   0  0  0  0  0  0  0  0  0  0  0  0
   -1.8129   -0.0208   -0.0160 C   0  0  0  0  0  0  0  0  0  0  0  0
    0.5780   -0.2092    0.1085 C   0  0  0  0  0  0  0  0  0  0  0  0
   -1.7052    0.6363   -1.2581 C   0  0  0  0  0  0  0  0  0  0  0  0
    0.6994    0.4285   -1.1386 C   0  0  0  0  0  0  0  0  0  0  0  0
   -3.0950    1.1676   -2.0662 Cl  0  0  0  0  0  0  0  0  0  0  0  0
   -0.4424    0.8538   -1.8269 C   0  0  0  0  0  0  0  0  0  0  0  0
   -5.2344   -8.5838   -0.6161 H   0  0  0  0  0  0  0  0  0  0  0  0
   -3.8297   -9.0778   -1.5380 H   0  0  0  0  0  0  0  0  0  0  0  0
   -4.9198   -7.1697   -2.5981 H   0  0  0  0  0  0  0  0  0  0  0  0
   -3.3011   -6.6896   -2.0416 H   0  0  0  0  0  0  0  0  0  0  0  0
   -0.1397   -8.1745   -0.4409 H   0  0  0  0  0  0  0  0  0  0  0  0
   -1.4299   -8.2943   -1.6281 H   0  0  0  0  0  0  0  0  0  0  0  0
   -6.9446   -5.1431   -2.3524 H   0  0  0  0  0  0  0  0  0  0  0  0
   -3.1366   -3.9944   -0.9578 H   0  0  0  0  0  0  0  0  0  0  0  0
   -0.1696  -10.3861   -1.5707 H   0  0  0  0  0  0  0  0  0  0  0  0
   -1.8427  -10.6906   -1.0272 H   0  0  0  0  0  0  0  0  0  0  0  0
   -0.3416  -10.5355    0.2007 H   0  0  0  0  0  0  0  0  0  0  0  0
   -1.8542   -7.8461    4.2065 H   0  0  0  0  0  0  0  0  0  0  0  0
   -3.6048   -7.7503    4.2283 H   0  0  0  0  0  0  0  0  0  0  0  0
   -7.1166   -3.0627   -3.5884 H   0  0  0  0  0  0  0  0  0  0  0  0
   -3.3117   -1.9210   -2.1988 H   0  0  0  0  0  0  0  0  0  0  0  0
   -2.6469   -5.5781    4.8863 H   0  0  0  0  0  0  0  0  0  0  0  0
   -3.5143   -5.4249    3.3593 H   0  0  0  0  0  0  0  0  0  0  0  0
   -5.2898   -1.4595   -3.5354 H   0  0  0  0  0  0  0  0  0  0  0  0
   -0.4884   -5.6757    3.7025 H   0  0  0  0  0  0  0  0  0  0  0  0
   -1.2853   -5.5376    2.1337 H   0  0  0  0  0  0  0  0  0  0  0  0
    0.3059   -3.6573    1.7084 H   0  0  0  0  0  0  0  0  0  0  0  0
    0.9390   -3.7069    3.3641 H   0  0  0  0  0  0  0  0  0  0  0  0
   -2.4408   -3.2743    1.5584 H   0  0  0  0  0  0  0  0  0  0  0  0
   -3.2498   -3.1596    3.1347 H   0  0  0  0  0  0  0  0  0  0  0  0
    1.3033   -1.5332    2.3313 H   0  0  0  0  0  0  0  0  0  0  0  0
    0.3173   -1.3756    3.7388 H   0  0  0  0  0  0  0  0  0  0  0  0
   -2.0097   -1.1211    3.6905 H   0  0  0  0  0  0  0  0  0  0  0  0
   -2.9341   -0.9407    2.2529 H   0  0  0  0  0  0  0  0  0  0  0  0
   -2.7595   -0.1608    0.3202 H   0  0  0  0  0  0  0  0  0  0  0  0
    1.4587   -0.4727    0.5353 H   0  0  0  0  0  0  0  0  0  0  0  0
    1.6242    0.5841   -1.5443 H   0  0  0  0  0  0  0  0  0  0  0  0
   -0.3475    1.3168   -2.7350 H   0  0  0  0  0  0  0  0  0  0  0  0
  1  2  1  0  0  0  0 
  1  3  1  0  0  0  0 
  2  4  1  0  0  0  0 
  3  5  1  0  0  0  0 
  3  6  1  0  0  0  0 
  4  7  1  0  0  0  0 
  5  8  1  0  0  0  0 
  5  9  2  0  0  0  0 
  6 10  2  0  0  0  0 
  6 11  1  0  0  0  0 
  7 12  2  0  0  0  0 
  7 13  1  0  0  0  0 
  8 14  1  0  0  0  0 
  9 11  1  0  0  0  0 
 11 15  1  0  0  0  0 
 12 16  1  0  0  0  0 
 13 17  2  0  0  0  0 
 15 18  1  0  0  0  0 
 16 19  2  0  0  0  0 
 17 19  1  0  0  0  0 
 18 20  1  0  0  0  0 
 20 21  1  0  0  0  0 
 21 22  1  0  0  0  0 
 21 23  1  0  0  0  0 
 22 24  1  0  0  0  0 
 23 25  1  0  0  0  0 
 24 26  1  0  0  0  0 
 25 26  1  0  0  0  0 
 26 27  1  0  0  0  0 
 27 28  2  0  0  0  0 
 27 29  1  0  0  0  0 
 28 30  1  0  0  0  0 
 29 31  2  0  0  0  0 
 30 32  1  0  0  0  0 
 30 33  2  0  0  0  0 
 31 33  1  0  0  0  0 
  1 34  1  0  0  0  0 
  1 35  1  0  0  0  0 
  2 36  1  0  0  0  0 
  2 37  1  0  0  0  0 
  8 38  1  0  0  0  0 
  8 39  1  0  0  0  0 
 12 40  1  0  0  0  0 
 13 41  1  0  0  0  0 
 14 42  1  0  0  0  0 
 14 43  1  0  0  0  0 
 14 44  1  0  0  0  0 
 15 45  1  0  0  0  0 
 15 46  1  0  0  0  0 
 16 47  1  0  0  0  0 
 17 48  1  0  0  0  0 
 18 49  1  0  0  0  0 
 18 50  1  0  0  0  0 
 19 51  1  0  0  0  0 
 20 52  1  0  0  0  0 
 20 53  1  0  0  0  0 
 22 54  1  0  0  0  0 
 22 55  1  0  0  0  0 
 23 56  1  0  0  0  0 
 23 57  1  0  0  0  0 
 24 58  1  0  0  0  0 
 24 59  1  0  0  0  0 
 25 60  1  0  0  0  0 
 25 61  1  0  0  0  0 
 28 62  1  0  0  0  0 
 29 63  1  0  0  0  0 
 31 64  1  0  0  0  0 
 33 65  1  0  0  0  0 
M  END
> <cdk:Title>
nefazodone

> <Conformer>
1

> <SuperDrugID>
SD001685

$$$$
