glucametacin
  CDK     0628171801

 63 66  0  0  0  0  0  0  0  0999 V2000
    1.3863    0.3544    0.9955 C   0  0  0  0  0  0  0  0  0  0  0  0
    0.6848    0.2143    2.0249 O   0  0  0  0  0  0  0  0  0  0  0  0
    1.5010    1.5957    0.3797 N   0  0  0  0  0  0  0  0  0  0  0  0
    1.9883   -0.8503    0.5647 C   0  0  0  0  0  0  0  0  0  0  0  0
    0.6159    2.6214    0.5242 C   0  0  0  0  0  0  0  0  0  0  0  0
    2.5081    2.0413   -0.4381 C   0  0  0  0  0  0  0  0  0  0  0  0
    1.6638   -1.3912   -0.7009 C   0  0  0  0  0  0  0  0  0  0  0  0
    2.8747   -1.5597    1.4092 C   0  0  0  0  0  0  0  0  0  0  0  0
    1.0709    3.7326   -0.1872 C   0  0  0  0  0  0  0  0  0  0  0  0
   -0.6221    2.7046    1.2047 C   0  0  0  0  0  0  0  0  0  0  0  0
    3.6986    1.2629   -0.8694 C   0  0  0  0  0  0  0  0  0  0  0  0
    2.2813    3.3898   -0.7782 C   0  0  0  0  0  0  0  0  0  0  0  0
    2.2222   -2.6138   -1.1197 C   0  0  0  0  0  0  0  0  0  0  0  0
    3.4349   -2.7812    0.9885 C   0  0  0  0  0  0  0  0  0  0  0  0
    0.3344    4.9345   -0.2429 C   0  0  0  0  0  0  0  0  0  0  0  0
   -1.3678    3.8993    1.1638 C   0  0  0  0  0  0  0  0  0  0  0  0
    3.1348    4.3001   -1.5893 C   0  0  1  0  0  0  0  0  0  0  0  0
    3.1110   -3.3108   -0.2772 C   0  0  0  0  0  0  0  0  0  0  0  0
   -0.8924    5.0194    0.4481 C   0  0  0  0  0  0  0  0  0  0  0  0
    3.0005    4.0767   -3.0456 C   0  0  0  0  0  0  0  0  0  0  0  0
    3.7846   -4.7792   -0.7863 Cl  0  0  0  0  0  0  0  0  0  0  0  0
   -1.6480    6.1603    0.3927 O   0  0  0  0  0  0  0  0  0  0  0  0
    2.6325    5.1164   -3.8432 N   0  0  0  0  0  0  0  0  0  0  0  0
    3.2539    2.9481   -3.5291 O   0  0  0  0  0  0  0  0  0  0  0  0
   -1.2749    7.1392    1.3789 C   0  0  0  0  0  0  0  0  0  0  0  0
    2.5545    5.1188   -5.2738 C   0  0  2  0  0  0  0  0  0  0  0  0
    3.3379    6.3514   -5.8100 C   0  0  2  0  0  0  0  0  0  0  0  0
    1.0713    5.1898   -5.7313 C   0  0  2  0  0  0  0  0  0  0  0  0
    3.1306    6.5496   -7.3365 C   0  0  1  0  0  0  0  0  0  0  0  0
    4.7306    6.2312   -5.5106 O   0  0  0  0  0  0  0  0  0  0  0  0
    0.3975    3.9848   -5.3788 O   0  0  0  0  0  0  0  0  0  0  0  0
    1.6058    6.5511   -7.6736 C   0  0  1  0  0  0  0  0  0  0  0  0
    3.7543    7.7776   -7.7226 O   0  0  0  0  0  0  0  0  0  0  0  0
    1.3203    6.6327   -9.1928 C   0  0  1  0  0  0  0  0  0  0  0  0
    0.9804    5.3480   -7.1636 O   0  0  0  0  0  0  0  0  0  0  0  0
   -0.0830    6.6612   -9.4336 O   0  0  0  0  0  0  0  0  0  0  0  0
    1.0140   -0.9004   -1.3222 H   0  0  0  0  0  0  0  0  0  0  0  0
    3.1228   -1.1882    2.3318 H   0  0  0  0  0  0  0  0  0  0  0  0
   -1.0038    1.9110    1.7159 H   0  0  0  0  0  0  0  0  0  0  0  0
    3.3973    0.5038   -1.5892 H   0  0  0  0  0  0  0  0  0  0  0  0
    4.1657    0.7853   -0.0081 H   0  0  0  0  0  0  0  0  0  0  0  0
    4.4593    1.8767   -1.3483 H   0  0  0  0  0  0  0  0  0  0  0  0
    1.9777   -2.9901   -2.0400 H   0  0  0  0  0  0  0  0  0  0  0  0
    4.0742   -3.2830    1.6113 H   0  0  0  0  0  0  0  0  0  0  0  0
    0.6666    5.7370   -0.7800 H   0  0  0  0  0  0  0  0  0  0  0  0
   -2.2658    3.9462    1.6502 H   0  0  0  0  0  0  0  0  0  0  0  0
    2.8901    5.3380   -1.3527 H   0  0  0  0  0  0  0  0  0  0  0  0
    4.1796    4.1856   -1.2984 H   0  0  0  0  0  0  0  0  0  0  0  0
    2.4258    5.9539   -3.4002 H   0  0  0  0  0  0  0  0  0  0  0  0
   -1.9627    7.9814    1.2958 H   0  0  0  0  0  0  0  0  0  0  0  0
   -1.3509    6.7371    2.3933 H   0  0  0  0  0  0  0  0  0  0  0  0
   -0.2616    7.5113    1.2059 H   0  0  0  0  0  0  0  0  0  0  0  0
    3.0026    4.2137   -5.6983 H   0  0  0  0  0  0  0  0  0  0  0  0
    2.9783    7.2509   -5.2983 H   0  0  0  0  0  0  0  0  0  0  0  0
    0.5518    6.0133   -5.2332 H   0  0  0  0  0  0  0  0  0  0  0  0
    3.6226    5.7325   -7.8727 H   0  0  0  0  0  0  0  0  0  0  0  0
    5.0408    5.4540   -6.0206 H   0  0  0  0  0  0  0  0  0  0  0  0
   -0.5329    4.1192   -5.6576 H   0  0  0  0  0  0  0  0  0  0  0  0
    1.1412    7.4277   -7.2105 H   0  0  0  0  0  0  0  0  0  0  0  0
    3.7049    7.8013   -8.6994 H   0  0  0  0  0  0  0  0  0  0  0  0
    1.7553    7.5414   -9.6133 H   0  0  0  0  0  0  0  0  0  0  0  0
    1.7438    5.7681   -9.7059 H   0  0  0  0  0  0  0  0  0  0  0  0
   -0.1693    6.7108  -10.4091 H   0  0  0  0  0  0  0  0  0  0  0  0
  1  2  2  0  0  0  0 
  1  3  1  0  0  0  0 
  1  4  1  0  0  0  0 
  3  5  1  0  0  0  0 
  3  6  1  0  0  0  0 
  4  7  2  0  0  0  0 
  4  8  1  0  0  0  0 
  5  9  1  0  0  0  0 
  5 10  2  0  0  0  0 
  6 11  1  0  0  0  0 
  6 12  2  0  0  0  0 
  7 13  1  0  0  0  0 
  8 14  2  0  0  0  0 
  9 12  1  0  0  0  0 
  9 15  2  0  0  0  0 
 10 16  1  0  0  0  0 
 12 17  1  0  0  0  0 
 13 18  2  0  0  0  0 
 14 18  1  0  0  0  0 
 15 19  1  0  0  0  0 
 16 19  2  0  0  0  0 
 17 20  1  0  0  0  0 
 18 21  1  0  0  0  0 
 19 22  1  0  0  0  0 
 20 23  1  0  0  0  0 
 20 24  2  0  0  0  0 
 22 25  1  0  0  0  0 
 26 23  1  0  0  0  0 
 27 26  1  0  0  0  0 
 26 28  1  0  0  0  0 
 29 27  1  0  0  0  0 
 27 30  1  0  0  0  0 
 28 31  1  0  0  0  0 
 29 32  1  0  0  0  0 
 29 33  1  0  0  0  0 
 32 34  1  0  0  0  0 
 32 35  1  0  0  0  0 
 34 36  1  0  0  0  0 
 35 28  1  0  0  0  0 
  7 37  1  0  0  0  0 
  8 38  1  0  0  0  0 
 10 39  1  0  0  0  0 
 11 40  1  0  0  0  0 
 11 41  1  0  0  0  0 
 11 42  1  0  0  0  0 
 13 43  1  0  0  0  0 
 14 44  1  0  0  0  0 
 15 45  1  0  0  0  0 
 16 46  1  0  0  0  0 
 17 47  1  0  0  0  0 
 17 48  1  0  0  0  0 
 23 49  1  0  0  0  0 
 25 50  1  0  0  0  0 
 25 51  1  0  0  0  0 
 25 52  1  0  0  0  0 
 26 53  1  0  0  0  0 
 27 54  1  0  0  0  0 
 28 55  1  0  0  0  0 
 29 56  1  0  0  0  0 
 30 57  1  0  0  0  0 
 31 58  1  0  0  0  0 
 32 59  1  0  0  0  0 
 33 60  1  0  0  0  0 
 34 61  1  0  0  0  0 
 34 62  1  0  0  0  0 
 36 63  1  0  0  0  0 
M  END
> <cdk:Title>
glucametacin

> <Conformer>
1

> <SuperDrugID>
SD001162

$$$$
