fluclorolone
  CDK     0628171801

 54 57  0  0  0  0  0  0  0  0999 V2000
    5.7459   -1.4539   -4.2865 Cl  0  0  0  0  0  0  0  0  0  0  0  0
    4.7680    0.0061   -3.9172 C   0  0  2  0  0  0  0  0  0  0  0  0
    3.4465   -0.0524   -4.7978 C   0  0  2  0  0  0  0  0  0  0  0  0
    5.6761    1.2677   -4.3578 C   0  0  2  0  0  0  0  0  0  0  0  0
    4.4147   -0.1739   -2.3671 C   0  0  1  0  0  0  0  0  0  0  0  0
    2.5435   -1.2788   -4.4218 C   0  0  1  0  0  0  0  0  0  0  0  0
    3.7652   -0.0199   -6.3282 C   0  0  1  0  0  0  0  0  0  0  0  0
    5.0942    2.7112   -4.0828 C   0  0  0  0  0  0  0  0  0  0  0  0
    5.8889    1.2039   -5.8504 C   0  0  0  0  0  0  0  0  0  0  0  0
    6.9512    1.2493   -3.5987 C   0  0  0  0  0  0  0  0  0  0  0  0
    3.9308    1.2746   -1.4785 Cl  0  0  0  0  0  0  0  0  0  0  0  0
    3.3755   -1.3169   -2.0458 C   0  0  1  0  0  0  0  0  0  0  0  0
    2.0712   -1.3033   -2.9304 C   0  0  1  0  0  0  0  0  0  0  0  0
    1.2576   -1.5518   -5.2298 C   0  0  2  0  0  0  0  0  0  0  0  0
    4.6984    1.1522   -6.7228 C   0  0  1  0  0  0  0  0  0  0  0  0
    7.1387    1.1961   -6.3701 C   0  0  0  0  0  0  0  0  0  0  0  0
    8.1574    1.2360   -4.1882 C   0  0  0  0  0  0  0  0  0  0  0  0
    1.1501   -0.0832   -2.5186 C   0  0  0  0  0  0  0  0  0  0  0  0
    1.2101   -2.6335   -2.9529 C   0  0  2  0  0  0  0  0  0  0  0  0
    0.4482   -2.5273   -4.3302 C   0  0  2  0  0  0  0  0  0  0  0  0
    4.9550    1.0390   -8.0752 F   0  0  0  0  0  0  0  0  0  0  0  0
    8.2672    1.2334   -5.5649 C   0  0  0  0  0  0  0  0  0  0  0  0
    0.3208   -2.8543   -1.7614 C   0  0  0  0  0  0  0  0  0  0  0  0
    2.0753   -3.7797   -3.0418 O   0  0  0  0  0  0  0  0  0  0  0  0
    0.2732   -3.7952   -4.9668 O   0  0  0  0  0  0  0  0  0  0  0  0
    9.4044    1.2647   -6.0909 O   0  0  0  0  0  0  0  0  0  0  0  0
    0.7374   -3.5372   -0.5153 C   0  0  2  0  0  0  0  0  0  0  0  0
   -0.8583   -2.4238   -1.7647 O   0  0  0  0  0  0  0  0  0  0  0  0
    0.6976   -2.6311    0.5801 O   0  0  0  0  0  0  0  0  0  0  0  0
    2.8627    0.8453   -4.6029 H   0  0  0  0  0  0  0  0  0  0  0  0
    3.1644   -2.1634   -4.6100 H   0  0  0  0  0  0  0  0  0  0  0  0
    5.3357   -0.4519   -1.8455 H   0  0  0  0  0  0  0  0  0  0  0  0
    4.2230   -0.9652   -6.6364 H   0  0  0  0  0  0  0  0  0  0  0  0
    2.8337    0.0870   -6.8923 H   0  0  0  0  0  0  0  0  0  0  0  0
    5.6318    3.4694   -4.6634 H   0  0  0  0  0  0  0  0  0  0  0  0
    5.1901    3.0248   -3.0430 H   0  0  0  0  0  0  0  0  0  0  0  0
    4.0405    2.7864   -4.3471 H   0  0  0  0  0  0  0  0  0  0  0  0
    6.9250    1.2513   -2.6053 H   0  0  0  0  0  0  0  0  0  0  0  0
    3.8914   -2.2705   -2.1774 H   0  0  0  0  0  0  0  0  0  0  0  0
    3.1001   -1.2875   -0.9867 H   0  0  0  0  0  0  0  0  0  0  0  0
    1.4857   -1.9917   -6.2053 H   0  0  0  0  0  0  0  0  0  0  0  0
    0.7090   -0.6198   -5.3956 H   0  0  0  0  0  0  0  0  0  0  0  0
    4.1461    2.0888   -6.6187 H   0  0  0  0  0  0  0  0  0  0  0  0
    7.2786    1.1630   -7.3544 H   0  0  0  0  0  0  0  0  0  0  0  0
    8.9775    1.2302   -3.6260 H   0  0  0  0  0  0  0  0  0  0  0  0
    1.5720    0.8813   -2.7865 H   0  0  0  0  0  0  0  0  0  0  0  0
    0.1708   -0.1193   -2.9956 H   0  0  0  0  0  0  0  0  0  0  0  0
    0.9814   -0.0868   -1.4398 H   0  0  0  0  0  0  0  0  0  0  0  0
   -0.5521   -2.1051   -4.2048 H   0  0  0  0  0  0  0  0  0  0  0  0
    1.4824   -4.5605   -3.0570 H   0  0  0  0  0  0  0  0  0  0  0  0
   -0.1965   -3.6022   -5.8067 H   0  0  0  0  0  0  0  0  0  0  0  0
    1.7437   -3.9507   -0.5771 H   0  0  0  0  0  0  0  0  0  0  0  0
    0.0483   -4.3595   -0.3141 H   0  0  0  0  0  0  0  0  0  0  0  0
    1.3789   -1.9574    0.3745 H   0  0  0  0  0  0  0  0  0  0  0  0
  2  1  1  0  0  0  0 
  3  2  1  0  0  0  0 
  2  4  1  0  0  0  0 
  2  5  1  0  0  0  0 
  6  3  1  0  0  0  0 
  3  7  1  0  0  0  0 
  3 30  1  0  0  0  0 
  4  8  1  0  0  0  0 
  4  9  1  0  0  0  0 
  4 10  1  0  0  0  0 
  5 11  1  0  0  0  0 
  5 12  1  0  0  0  0 
 13  6  1  0  0  0  0 
  6 14  1  0  0  0  0 
  6 31  1  0  0  0  0 
 15  7  1  0  0  0  0 
 15  9  1  0  0  0  0 
  9 16  2  0  0  0  0 
 10 17  2  0  0  0  0 
 13 12  1  0  0  0  0 
 13 18  1  0  0  0  0 
 13 19  1  0  0  0  0 
 20 14  1  0  0  0  0 
 15 21  1  0  0  0  0 
 16 22  1  0  0  0  0 
 17 22  1  0  0  0  0 
 19 20  1  0  0  0  0 
 19 23  1  0  0  0  0 
 19 24  1  0  0  0  0 
 20 25  1  0  0  0  0 
 22 26  2  0  0  0  0 
 23 27  1  0  0  0  0 
 23 28  2  0  0  0  0 
 27 29  1  0  0  0  0 
  5 32  1  0  0  0  0 
  7 33  1  0  0  0  0 
  7 34  1  0  0  0  0 
  8 35  1  0  0  0  0 
  8 36  1  0  0  0  0 
  8 37  1  0  0  0  0 
 10 38  1  0  0  0  0 
 12 39  1  0  0  0  0 
 12 40  1  0  0  0  0 
 14 41  1  0  0  0  0 
 14 42  1  0  0  0  0 
 15 43  1  0  0  0  0 
 16 44  1  0  0  0  0 
 17 45  1  0  0  0  0 
 18 46  1  0  0  0  0 
 18 47  1  0  0  0  0 
 18 48  1  0  0  0  0 
 20 49  1  0  0  0  0 
 24 50  1  0  0  0  0 
 25 51  1  0  0  0  0 
 27 52  1  0  0  0  0 
 27 53  1  0  0  0  0 
 29 54  1  0  0  0  0 
M  END
> <cdk:Title>
fluclorolone

> <Conformer>
1

> <SuperDrugID>
SD003614

$$$$
