delafloxacin
  Mrv0541 09131710103D             127.99289

 42 45  0  0  0  0            999 V2000
    2.0082   -1.6729    1.2603 N   0  0  0  0  0  0  0  0  0  0  0  0
    1.1110   -0.7575    1.6742 C   0  0  0  0  0  0  0  0  0  0  0  0
    1.4669    0.5958    1.8523 C   0  0  0  0  0  0  0  0  0  0  0  0
    2.6830    1.0160    1.6226 F   0  0  0  0  0  0  0  0  0  0  0  0
    0.4850    1.5074    2.2834 C   0  0  0  0  0  0  0  0  0  0  0  0
   -0.8300    1.0678    2.5279 C   0  0  0  0  0  0  0  0  0  0  0  0
   -1.7380    1.9177    2.9253 F   0  0  0  0  0  0  0  0  0  0  0  0
   -1.1453   -0.2968    2.3312 C   0  0  0  0  0  0  0  0  0  0  0  0
   -0.1675   -1.1495    1.9135 N   0  0  0  0  0  0  0  0  0  0  0  0
   -2.4186   -0.7780    2.5067 N   0  0  0  0  0  0  0  0  0  0  0  0
   -3.1869   -0.6251    1.3777 C   0  0  0  0  0  0  0  0  0  0  0  0
   -4.5257   -1.0491    1.3026 C   0  0  0  0  0  0  0  0  0  0  0  0
   -5.2864   -0.7988    0.1164 C   0  0  0  0  0  0  0  0  0  0  0  0
   -4.7982   -0.0530   -0.9068 O   0  0  0  0  0  0  0  0  0  0  0  0
   -6.4498   -1.2313   -0.0497 O   0  0  0  0  0  0  0  0  0  0  0  0
   -5.0395   -1.7021    2.4423 C   0  0  0  0  0  0  0  0  0  0  0  0
   -6.2194   -2.1341    2.4152 O   0  0  0  0  0  0  0  0  0  0  0  0
   -4.2550   -1.8565    3.6162 C   0  0  0  0  0  0  0  0  0  0  0  0
   -2.9152   -1.3523    3.6779 C   0  0  0  0  0  0  0  0  0  0  0  0
   -2.2235   -1.4768    4.9425 C   0  0  0  0  0  0  0  0  0  0  0  0
   -0.5902   -1.0191    5.0843 Cl  0  0  0  0  0  0  0  0  0  0  0  0
   -2.8545   -2.0100    6.1188 C   0  0  0  0  0  0  0  0  0  0  0  0
   -2.3178   -1.9740    7.4188 N   0  0  0  0  0  0  0  0  0  0  0  0
   -1.1762   -1.3307    7.9959 C   0  0  2  0  0  0  0  0  0  0  0  0
   -1.6378   -1.8306    9.3729 C   0  0  2  0  0  0  0  0  0  0  0  0
   -0.7408   -2.7468    9.9948 O   0  0  0  0  0  0  0  0  0  0  0  0
   -2.8176   -2.4996    8.6546 C   0  0  1  0  0  0  0  0  0  0  0  0
   -4.1357   -2.5918    5.9454 C   0  0  0  0  0  0  0  0  0  0  0  0
   -4.7803   -3.2287    6.8885 F   0  0  0  0  0  0  0  0  0  0  0  0
   -4.8165   -2.5106    4.7302 C   0  0  0  0  0  0  0  0  0  0  0  0
    2.9061   -1.3976    1.0153 H   0  0  0  0  0  0  0  0  0  0  0  0
    1.7603   -2.6091    1.2021 H   0  0  0  0  0  0  0  0  0  0  0  0
    0.7279    2.4929    2.4130 H   0  0  0  0  0  0  0  0  0  0  0  0
   -2.7890   -0.1815    0.5389 H   0  0  0  0  0  0  0  0  0  0  0  0
   -5.3475    0.1255   -1.6994 H   0  0  0  0  0  0  0  0  0  0  0  0
   -1.2011   -0.2404    7.9079 H   0  0  0  0  0  0  0  0  0  0  0  0
   -0.2184   -1.7680    7.7029 H   0  0  0  0  0  0  0  0  0  0  0  0
   -1.9421   -1.0191   10.0402 H   0  0  0  0  0  0  0  0  0  0  0  0
   -1.2404   -3.1009   10.7602 H   0  0  0  0  0  0  0  0  0  0  0  0
   -3.7783   -2.0754    8.9595 H   0  0  0  0  0  0  0  0  0  0  0  0
   -2.7984   -3.5922    8.7006 H   0  0  0  0  0  0  0  0  0  0  0  0
   -5.7513   -2.9280    4.6765 H   0  0  0  0  0  0  0  0  0  0  0  0
  1  2  1  0  0  0  0
  2  3  2  0  0  0  0
  3  4  1  0  0  0  0
  3  5  1  0  0  0  0
  5  6  2  0  0  0  0
  6  7  1  0  0  0  0
  6  8  1  0  0  0  0
  8  9  2  0  0  0  0
  8 10  1  0  0  0  0
 10 11  1  0  0  0  0
 11 12  2  0  0  0  0
 12 13  1  0  0  0  0
 13 14  1  0  0  0  0
 13 15  2  0  0  0  0
 12 16  1  0  0  0  0
 16 17  2  0  0  0  0
 16 18  1  0  0  0  0
 18 19  2  0  0  0  0
 19 20  1  0  0  0  0
 20 21  1  0  0  0  0
 20 22  2  0  0  0  0
 22 23  1  0  0  0  0
 23 24  1  0  0  0  0
 24 25  1  0  0  0  0
 25 26  1  0  0  0  0
 25 27  1  0  0  0  0
 22 28  1  0  0  0  0
 28 29  1  0  0  0  0
 28 30  2  0  0  0  0
  9  2  1  0  0  0  0
 19 10  1  0  0  0  0
 27 23  1  0  0  0  0
 30 18  1  0  0  0  0
  1 31  1  0  0  0  0
  1 32  1  0  0  0  0
  5 33  1  0  0  0  0
 11 34  1  0  0  0  0
 14 35  1  0  0  0  0
 24 36  1  0  0  0  0
 24 37  1  0  0  0  0
 25 38  1  0  0  0  0
 26 39  1  0  0  0  0
 27 40  1  0  0  0  0
 27 41  1  0  0  0  0
 30 42  1  0  0  0  0
M  END
>  <SuperDrugID>
SD006004

>  <_MOLCOUNT>
1

$$$$
