drofenine
  CDK     0628171802

 54 55  0  0  0  0  0  0  0  0999 V2000
    0.2191    1.9750    1.0182 C   0  0  0  0  0  0  0  0  0  0  0  0
    1.2227    1.8844    1.9956 C   0  0  0  0  0  0  0  0  0  0  0  0
    2.3434    1.0640    1.7735 C   0  0  0  0  0  0  0  0  0  0  0  0
    2.4583    0.3372    0.5734 C   0  0  0  0  0  0  0  0  0  0  0  0
    1.4673    0.4312   -0.4380 C   0  0  0  0  0  0  0  0  0  0  0  0
    0.3439    1.2595   -0.1876 C   0  0  0  0  0  0  0  0  0  0  0  0
    1.5760   -0.3253   -1.7364 C   0  0  2  0  0  0  0  0  0  0  0  0
    1.8428   -1.7760   -1.5085 C   0  0  0  0  0  0  0  0  0  0  0  0
    2.4813    0.3901   -2.8156 C   0  0  2  0  0  0  0  0  0  0  0  0
    3.9544    0.6806   -2.3688 C   0  0  1  0  0  0  0  0  0  0  0  0
    4.7844    1.4053   -3.4640 C   0  0  2  0  0  0  0  0  0  0  0  0
    4.0926    2.7144   -3.9203 C   0  0  2  0  0  0  0  0  0  0  0  0
    2.6586    2.4292   -4.4318 C   0  0  1  0  0  0  0  0  0  0  0  0
    1.8089    1.6985   -3.3575 C   0  0  1  0  0  0  0  0  0  0  0  0
    2.8369   -2.4589   -2.1658 O   0  0  0  0  0  0  0  0  0  0  0  0
    1.0889   -2.3920   -0.7156 O   0  0  0  0  0  0  0  0  0  0  0  0
    3.1602   -3.8561   -2.0181 C   0  0  1  0  0  0  0  0  0  0  0  0
    4.6915   -4.1170   -1.9596 C   0  0  1  0  0  0  0  0  0  0  0  0
    5.3117   -4.4346   -3.2953 N   0  0  1  0  0  0  0  0  0  0  0  0
    6.7850   -4.1245   -3.3613 C   0  0  2  0  0  0  0  0  0  0  0  0
    5.0092   -5.8413   -3.7538 C   0  0  2  0  0  0  0  0  0  0  0  0
    4.9039   -5.9597   -5.2906 C   0  0  0  0  0  0  0  0  0  0  0  0
    7.1156   -2.6167   -3.4504 C   0  0  0  0  0  0  0  0  0  0  0  0
    0.5770   -0.3520   -2.1869 H   0  0  0  0  0  0  0  0  0  0  0  0
   -0.6031    2.5614    1.1826 H   0  0  0  0  0  0  0  0  0  0  0  0
    1.1377    2.4131    2.8671 H   0  0  0  0  0  0  0  0  0  0  0  0
    3.0739    0.9976    2.4861 H   0  0  0  0  0  0  0  0  0  0  0  0
    3.2763   -0.2639    0.4420 H   0  0  0  0  0  0  0  0  0  0  0  0
   -0.3949    1.3537   -0.8883 H   0  0  0  0  0  0  0  0  0  0  0  0
    2.5414   -0.2889   -3.6735 H   0  0  0  0  0  0  0  0  0  0  0  0
    3.9587    1.3199   -1.4841 H   0  0  0  0  0  0  0  0  0  0  0  0
    4.4566   -0.2550   -2.1095 H   0  0  0  0  0  0  0  0  0  0  0  0
    4.9129    0.7425   -4.3238 H   0  0  0  0  0  0  0  0  0  0  0  0
    5.7779    1.6433   -3.0728 H   0  0  0  0  0  0  0  0  0  0  0  0
    4.6780    3.1841   -4.7146 H   0  0  0  0  0  0  0  0  0  0  0  0
    4.0487    3.4173   -3.0823 H   0  0  0  0  0  0  0  0  0  0  0  0
    2.1768    3.3744   -4.6961 H   0  0  0  0  0  0  0  0  0  0  0  0
    2.7090    1.8198   -5.3382 H   0  0  0  0  0  0  0  0  0  0  0  0
    0.8392    1.4574   -3.8029 H   0  0  0  0  0  0  0  0  0  0  0  0
    1.6274    2.3937   -2.5341 H   0  0  0  0  0  0  0  0  0  0  0  0
    2.7120   -4.2614   -1.1064 H   0  0  0  0  0  0  0  0  0  0  0  0
    2.7112   -4.3806   -2.8603 H   0  0  0  0  0  0  0  0  0  0  0  0
    5.1422   -3.2344   -1.5052 H   0  0  0  0  0  0  0  0  0  0  0  0
    4.8901   -4.9442   -1.2699 H   0  0  0  0  0  0  0  0  0  0  0  0
    7.2318   -4.5786   -4.2496 H   0  0  0  0  0  0  0  0  0  0  0  0
    7.2996   -4.5536   -2.4967 H   0  0  0  0  0  0  0  0  0  0  0  0
    4.0547   -6.1996   -3.3591 H   0  0  0  0  0  0  0  0  0  0  0  0
    5.7687   -6.5409   -3.3891 H   0  0  0  0  0  0  0  0  0  0  0  0
    4.6140   -6.9761   -5.5632 H   0  0  0  0  0  0  0  0  0  0  0  0
    5.8576   -5.7391   -5.7682 H   0  0  0  0  0  0  0  0  0  0  0  0
    4.1489   -5.2715   -5.6746 H   0  0  0  0  0  0  0  0  0  0  0  0
    8.1856   -2.4883   -3.6269 H   0  0  0  0  0  0  0  0  0  0  0  0
    6.8665   -2.0972   -2.5260 H   0  0  0  0  0  0  0  0  0  0  0  0
    6.5683   -2.1581   -4.2752 H   0  0  0  0  0  0  0  0  0  0  0  0
  1  2  2  0  0  0  0 
  1  6  1  0  0  0  0 
  2  3  1  0  0  0  0 
  3  4  2  0  0  0  0 
  4  5  1  0  0  0  0 
  5  6  2  0  0  0  0 
  7  5  1  0  0  0  0 
  7  8  1  0  0  0  0 
  7  9  1  0  0  0  0 
 10 11  1  0  0  0  0 
 11 12  1  0  0  0  0 
 12 13  1  0  0  0  0 
 13 14  1  0  0  0  0 
  9 10  1  0  0  0  0 
  9 14  1  0  0  0  0 
  8 15  1  0  0  0  0 
  8 16  2  0  0  0  0 
 15 17  1  0  0  0  0 
 17 18  1  0  0  0  0 
 18 19  1  0  0  0  0 
 19 20  1  0  0  0  0 
 19 21  1  0  0  0  0 
 21 22  1  0  0  0  0 
 20 23  1  0  0  0  0 
  7 24  1  0  0  0  0 
  1 25  1  0  0  0  0 
  2 26  1  0  0  0  0 
  3 27  1  0  0  0  0 
  4 28  1  0  0  0  0 
  6 29  1  0  0  0  0 
  9 30  1  0  0  0  0 
 10 31  1  0  0  0  0 
 10 32  1  0  0  0  0 
 11 33  1  0  0  0  0 
 11 34  1  0  0  0  0 
 12 35  1  0  0  0  0 
 12 36  1  0  0  0  0 
 13 37  1  0  0  0  0 
 13 38  1  0  0  0  0 
 14 39  1  0  0  0  0 
 14 40  1  0  0  0  0 
 17 41  1  0  0  0  0 
 17 42  1  0  0  0  0 
 18 43  1  0  0  0  0 
 18 44  1  0  0  0  0 
 20 45  1  0  0  0  0 
 20 46  1  0  0  0  0 
 21 47  1  0  0  0  0 
 21 48  1  0  0  0  0 
 22 49  1  0  0  0  0 
 22 50  1  0  0  0  0 
 22 51  1  0  0  0  0 
 23 52  1  0  0  0  0 
 23 53  1  0  0  0  0 
 23 54  1  0  0  0  0 
M  END
> <cdk:Title>
drofenine

> <Conformer>
1

> <SuperDrugID>
SD003864

$$$$
