pizotifen
  CDK     0628171801

 42 45  0  0  0  0  0  0  0  0999 V2000
    5.9668    2.0647   -0.0945 C   0  0  0  0  0  0  0  0  0  0  0  0
    4.5879    1.5341    0.1062 N   0  0  1  0  0  0  0  0  0  0  0  0
    3.8186    1.3896   -1.1697 C   0  0  1  0  0  0  0  0  0  0  0  0
    4.5375    0.2922    0.9407 C   0  0  2  0  0  0  0  0  0  0  0  0
    2.3610    0.9328   -0.8917 C   0  0  1  0  0  0  0  0  0  0  0  0
    3.0763   -0.1858    1.1652 C   0  0  2  0  0  0  0  0  0  0  0  0
    2.3658   -0.3266   -0.1224 C   0  0  0  0  0  0  0  0  0  0  0  0
    1.7759   -1.4787   -0.5517 C   0  0  0  0  0  0  0  0  0  0  0  0
    1.7913   -2.6749    0.1655 C   0  0  0  0  0  0  0  0  0  0  0  0
    1.0635   -1.5908   -1.7515 C   0  0  0  0  0  0  0  0  0  0  0  0
    0.6223   -3.3046    0.6453 C   0  0  0  0  0  0  0  0  0  0  0  0
    2.9855   -3.3912    0.4133 C   0  0  0  0  0  0  0  0  0  0  0  0
   -0.3541   -1.7489   -1.7528 C   0  0  0  0  0  0  0  0  0  0  0  0
    1.7671   -1.6034   -2.9786 C   0  0  0  0  0  0  0  0  0  0  0  0
   -0.8020   -2.9332    0.4674 C   0  0  1  0  0  0  0  0  0  0  0  0
    1.1362   -4.7628    1.4772 S   0  0  0  0  0  0  0  0  0  0  0  0
    2.8424   -4.5803    1.1292 C   0  0  0  0  0  0  0  0  0  0  0  0
   -1.1158   -1.7270   -0.4655 C   0  0  2  0  0  0  0  0  0  0  0  0
   -1.0246   -1.9344   -2.9881 C   0  0  0  0  0  0  0  0  0  0  0  0
    1.0836   -1.7760   -4.1945 C   0  0  0  0  0  0  0  0  0  0  0  0
   -0.3089   -1.9481   -4.1992 C   0  0  0  0  0  0  0  0  0  0  0  0
    6.4628    2.2187    0.8660 H   0  0  0  0  0  0  0  0  0  0  0  0
    5.9283    3.0319   -0.6000 H   0  0  0  0  0  0  0  0  0  0  0  0
    6.5742    1.3819   -0.6949 H   0  0  0  0  0  0  0  0  0  0  0  0
    3.7871    2.3493   -1.6923 H   0  0  0  0  0  0  0  0  0  0  0  0
    4.3064    0.6642   -1.8279 H   0  0  0  0  0  0  0  0  0  0  0  0
    4.9869    0.4885    1.9182 H   0  0  0  0  0  0  0  0  0  0  0  0
    5.1061   -0.5105    0.4624 H   0  0  0  0  0  0  0  0  0  0  0  0
    1.8515    1.7082   -0.3103 H   0  0  0  0  0  0  0  0  0  0  0  0
    1.8347    0.8769   -1.8448 H   0  0  0  0  0  0  0  0  0  0  0  0
    2.5538    0.5552    1.7767 H   0  0  0  0  0  0  0  0  0  0  0  0
    3.1015   -1.0949    1.7643 H   0  0  0  0  0  0  0  0  0  0  0  0
    3.8997   -3.0717    0.0841 H   0  0  0  0  0  0  0  0  0  0  0  0
    2.7832   -1.4900   -2.9950 H   0  0  0  0  0  0  0  0  0  0  0  0
   -1.3191   -3.8086    0.0688 H   0  0  0  0  0  0  0  0  0  0  0  0
   -1.2158   -2.7273    1.4568 H   0  0  0  0  0  0  0  0  0  0  0  0
    3.5878   -5.2280    1.3917 H   0  0  0  0  0  0  0  0  0  0  0  0
   -2.1952   -1.7123   -0.6453 H   0  0  0  0  0  0  0  0  0  0  0  0
   -0.8804   -0.7958    0.0574 H   0  0  0  0  0  0  0  0  0  0  0  0
   -2.0395   -2.0659   -3.0165 H   0  0  0  0  0  0  0  0  0  0  0  0
    1.6034   -1.7826   -5.0758 H   0  0  0  0  0  0  0  0  0  0  0  0
   -0.8011   -2.0838   -5.0857 H   0  0  0  0  0  0  0  0  0  0  0  0
  1  2  1  0  0  0  0 
  2  3  1  0  0  0  0 
  2  4  1  0  0  0  0 
  3  5  1  0  0  0  0 
  4  6  1  0  0  0  0 
  5  7  1  0  0  0  0 
  6  7  1  0  0  0  0 
  7  8  2  0  0  0  0 
  8  9  1  0  0  0  0 
  8 10  1  0  0  0  0 
  9 11  2  0  0  0  0 
  9 12  1  0  0  0  0 
 10 13  2  0  0  0  0 
 10 14  1  0  0  0  0 
 11 15  1  0  0  0  0 
 11 16  1  0  0  0  0 
 12 17  2  0  0  0  0 
 13 18  1  0  0  0  0 
 13 19  1  0  0  0  0 
 14 20  2  0  0  0  0 
 15 18  1  0  0  0  0 
 16 17  1  0  0  0  0 
 19 21  2  0  0  0  0 
 20 21  1  0  0  0  0 
  1 22  1  0  0  0  0 
  1 23  1  0  0  0  0 
  1 24  1  0  0  0  0 
  3 25  1  0  0  0  0 
  3 26  1  0  0  0  0 
  4 27  1  0  0  0  0 
  4 28  1  0  0  0  0 
  5 29  1  0  0  0  0 
  5 30  1  0  0  0  0 
  6 31  1  0  0  0  0 
  6 32  1  0  0  0  0 
 12 33  1  0  0  0  0 
 14 34  1  0  0  0  0 
 15 35  1  0  0  0  0 
 15 36  1  0  0  0  0 
 17 37  1  0  0  0  0 
 18 38  1  0  0  0  0 
 18 39  1  0  0  0  0 
 19 40  1  0  0  0  0 
 20 41  1  0  0  0  0 
 21 42  1  0  0  0  0 
M  END
> <cdk:Title>
pizotifen

> <Conformer>
1

> <SuperDrugID>
SD001993

$$$$
