pyrithyldione
  CDK     0628171801

 25 25  0  0  0  0  0  0  0  0999 V2000
   -1.3108   -2.2068   -0.1076 C   0  0  2  0  0  0  0  0  0  0  0  0
   -1.0229   -2.3444    1.4097 C   0  0  0  0  0  0  0  0  0  0  0  0
   -1.6303   -0.7591   -0.6426 C   0  0  1  0  0  0  0  0  0  0  0  0
   -1.8708   -0.8286   -2.1992 C   0  0  2  0  0  0  0  0  0  0  0  0
   -2.8744   -0.2379    0.0344 C   0  0  0  0  0  0  0  0  0  0  0  0
   -0.4608    0.1477   -0.3677 C   0  0  0  0  0  0  0  0  0  0  0  0
   -2.2105    0.5044   -2.9163 C   0  0  0  0  0  0  0  0  0  0  0  0
   -3.9657   -0.8414   -0.1033 O   0  0  0  0  0  0  0  0  0  0  0  0
   -2.8666    0.9036    0.8234 C   0  0  0  0  0  0  0  0  0  0  0  0
    0.6755   -0.0959   -0.8352 O   0  0  0  0  0  0  0  0  0  0  0  0
   -0.5939    1.2713    0.3891 N   0  0  0  0  0  0  0  0  0  0  0  0
   -1.7407    1.6193    0.9706 C   0  0  0  0  0  0  0  0  0  0  0  0
   -2.1493   -2.8709   -0.3386 H   0  0  0  0  0  0  0  0  0  0  0  0
   -0.4430   -2.6040   -0.6425 H   0  0  0  0  0  0  0  0  0  0  0  0
   -0.8273   -3.3920    1.6510 H   0  0  0  0  0  0  0  0  0  0  0  0
   -0.1465   -1.7587    1.6905 H   0  0  0  0  0  0  0  0  0  0  0  0
   -1.8792   -2.0126    1.9987 H   0  0  0  0  0  0  0  0  0  0  0  0
   -2.6874   -1.5268   -2.4107 H   0  0  0  0  0  0  0  0  0  0  0  0
   -0.9794   -1.2406   -2.6821 H   0  0  0  0  0  0  0  0  0  0  0  0
   -2.3306    0.3221   -3.9870 H   0  0  0  0  0  0  0  0  0  0  0  0
   -3.1439    0.9211   -2.5348 H   0  0  0  0  0  0  0  0  0  0  0  0
   -1.4111    1.2349   -2.7819 H   0  0  0  0  0  0  0  0  0  0  0  0
   -3.6990    1.1967    1.2872 H   0  0  0  0  0  0  0  0  0  0  0  0
    0.1798    1.8436    0.5150 H   0  0  0  0  0  0  0  0  0  0  0  0
   -1.7495    2.4350    1.5351 H   0  0  0  0  0  0  0  0  0  0  0  0
  1  2  1  0  0  0  0 
  1  3  1  0  0  0  0 
  3  4  1  0  0  0  0 
  3  5  1  0  0  0  0 
  3  6  1  0  0  0  0 
  4  7  1  0  0  0  0 
  5  8  2  0  0  0  0 
  5  9  1  0  0  0  0 
  6 10  2  0  0  0  0 
  6 11  1  0  0  0  0 
  9 12  2  0  0  0  0 
 11 12  1  0  0  0  0 
  1 13  1  0  0  0  0 
  1 14  1  0  0  0  0 
  2 15  1  0  0  0  0 
  2 16  1  0  0  0  0 
  2 17  1  0  0  0  0 
  4 18  1  0  0  0  0 
  4 19  1  0  0  0  0 
  7 20  1  0  0  0  0 
  7 21  1  0  0  0  0 
  7 22  1  0  0  0  0 
  9 23  1  0  0  0  0 
 11 24  1  0  0  0  0 
 12 25  1  0  0  0  0 
M  END
> <cdk:Title>
pyrithyldione

> <Conformer>
1

> <SuperDrugID>
SD003022

$$$$
