tiazesim
  CDK     0628171801

 45 47  0  0  0  0  0  0  0  0999 V2000
    1.9215    0.8609   -1.3752 C   0  0  1  0  0  0  0  0  0  0  0  0
    1.8586   -0.1934   -0.2254 C   0  0  2  0  0  0  0  0  0  0  0  0
    1.4703    0.3628   -2.6707 N   0  0  0  0  0  0  0  0  0  0  0  0
    1.7903    0.3759    1.1616 N   0  0  1  0  0  0  0  0  0  0  0  0
    0.4585    1.0354   -3.3415 C   0  0  0  0  0  0  0  0  0  0  0  0
    2.0776   -0.7406   -3.2644 C   0  0  0  0  0  0  0  0  0  0  0  0
    1.5276   -0.6808    2.1849 C   0  0  0  0  0  0  0  0  0  0  0  0
    2.9583    1.2267    1.5396 C   0  0  0  0  0  0  0  0  0  0  0  0
   -0.7529    0.4007   -3.7245 C   0  0  0  0  0  0  0  0  0  0  0  0
    0.6552    2.3848   -3.7252 C   0  0  0  0  0  0  0  0  0  0  0  0
    3.1310   -1.2221   -2.7810 O   0  0  0  0  0  0  0  0  0  0  0  0
    1.5439   -1.4191   -4.4786 C   0  0  1  0  0  0  0  0  0  0  0  0
   -1.0647   -1.2732   -3.3094 S   0  0  0  0  0  0  0  0  0  0  0  0
   -1.7225    1.0910   -4.4803 C   0  0  0  0  0  0  0  0  0  0  0  0
   -0.3135    3.0740   -4.4781 C   0  0  0  0  0  0  0  0  0  0  0  0
    0.2356   -2.2263   -4.1844 C   0  0  1  0  0  0  0  0  0  0  0  0
   -1.5014    2.4263   -4.8579 C   0  0  0  0  0  0  0  0  0  0  0  0
   -0.3966   -2.9411   -5.3437 C   0  0  0  0  0  0  0  0  0  0  0  0
   -0.1728   -2.6081   -6.7066 C   0  0  0  0  0  0  0  0  0  0  0  0
   -1.2762   -4.0214   -5.0685 C   0  0  0  0  0  0  0  0  0  0  0  0
   -0.7834   -3.3395   -7.7447 C   0  0  0  0  0  0  0  0  0  0  0  0
   -1.8992   -4.7440   -6.1022 C   0  0  0  0  0  0  0  0  0  0  0  0
   -1.6537   -4.4016   -7.4422 C   0  0  0  0  0  0  0  0  0  0  0  0
    1.3210    1.7216   -1.0575 H   0  0  0  0  0  0  0  0  0  0  0  0
    2.9546    1.2098   -1.4790 H   0  0  0  0  0  0  0  0  0  0  0  0
    2.7267   -0.8559   -0.2920 H   0  0  0  0  0  0  0  0  0  0  0  0
    0.9701   -0.8087   -0.3946 H   0  0  0  0  0  0  0  0  0  0  0  0
    0.5872   -1.1942    1.9763 H   0  0  0  0  0  0  0  0  0  0  0  0
    1.4380   -0.2404    3.1792 H   0  0  0  0  0  0  0  0  0  0  0  0
    2.3326   -1.4198    2.2038 H   0  0  0  0  0  0  0  0  0  0  0  0
    3.0295    2.0972    0.8857 H   0  0  0  0  0  0  0  0  0  0  0  0
    2.8418    1.6057    2.5580 H   0  0  0  0  0  0  0  0  0  0  0  0
    3.8946    0.6651    1.4831 H   0  0  0  0  0  0  0  0  0  0  0  0
    1.5188    2.8709   -3.4731 H   0  0  0  0  0  0  0  0  0  0  0  0
    1.3824   -0.6615   -5.2469 H   0  0  0  0  0  0  0  0  0  0  0  0
    2.2899   -2.1158   -4.8723 H   0  0  0  0  0  0  0  0  0  0  0  0
   -2.5863    0.6242   -4.7736 H   0  0  0  0  0  0  0  0  0  0  0  0
   -0.1501    4.0445   -4.7575 H   0  0  0  0  0  0  0  0  0  0  0  0
    0.5374   -2.9998   -3.4714 H   0  0  0  0  0  0  0  0  0  0  0  0
   -2.2005    2.9234   -5.4154 H   0  0  0  0  0  0  0  0  0  0  0  0
    0.4331   -1.8300   -6.9699 H   0  0  0  0  0  0  0  0  0  0  0  0
   -1.4717   -4.2950   -4.1010 H   0  0  0  0  0  0  0  0  0  0  0  0
   -0.5960   -3.0969   -8.7218 H   0  0  0  0  0  0  0  0  0  0  0  0
   -2.5294   -5.5195   -5.8778 H   0  0  0  0  0  0  0  0  0  0  0  0
   -2.1090   -4.9252   -8.1938 H   0  0  0  0  0  0  0  0  0  0  0  0
  1  2  1  0  0  0  0 
  1  3  1  0  0  0  0 
  2  4  1  0  0  0  0 
  3  5  1  0  0  0  0 
  3  6  1  0  0  0  0 
  4  7  1  0  0  0  0 
  4  8  1  0  0  0  0 
  5  9  2  0  0  0  0 
  5 10  1  0  0  0  0 
  6 11  2  0  0  0  0 
  6 12  1  0  0  0  0 
  9 13  1  0  0  0  0 
  9 14  1  0  0  0  0 
 10 15  2  0  0  0  0 
 16 12  1  0  0  0  0 
 16 13  1  0  0  0  0 
 14 17  2  0  0  0  0 
 15 17  1  0  0  0  0 
 16 18  1  0  0  0  0 
 18 19  2  0  0  0  0 
 18 20  1  0  0  0  0 
 19 21  1  0  0  0  0 
 20 22  2  0  0  0  0 
 21 23  2  0  0  0  0 
 22 23  1  0  0  0  0 
  1 24  1  0  0  0  0 
  1 25  1  0  0  0  0 
  2 26  1  0  0  0  0 
  2 27  1  0  0  0  0 
  7 28  1  0  0  0  0 
  7 29  1  0  0  0  0 
  7 30  1  0  0  0  0 
  8 31  1  0  0  0  0 
  8 32  1  0  0  0  0 
  8 33  1  0  0  0  0 
 10 34  1  0  0  0  0 
 12 35  1  0  0  0  0 
 12 36  1  0  0  0  0 
 14 37  1  0  0  0  0 
 15 38  1  0  0  0  0 
 16 39  1  0  0  0  0 
 17 40  1  0  0  0  0 
 19 41  1  0  0  0  0 
 20 42  1  0  0  0  0 
 21 43  1  0  0  0  0 
 22 44  1  0  0  0  0 
 23 45  1  0  0  0  0 
M  END
> <cdk:Title>
tiazesim

> <Conformer>
1

> <SuperDrugID>
SD002363

$$$$
