poldine
  CDK     0628171801

 51 53  0  0  0  0  0  0  0  0999 V2000
   -2.5206   -4.6333   -4.1944 C   0  0  1  0  0  0  0  0  0  0  0  0
   -2.0461   -3.3020   -3.6882 C   0  0  0  0  0  0  0  0  0  0  0  0
   -3.9444   -4.5314   -4.3750 O   0  0  0  0  0  0  0  0  0  0  0  0
   -1.8250   -4.9549   -5.4945 C   0  0  0  0  0  0  0  0  0  0  0  0
   -2.3662   -5.7902   -3.2305 C   0  0  0  0  0  0  0  0  0  0  0  0
   -0.7080   -3.0527   -3.5085 O   0  0  0  0  0  0  0  0  0  0  0  0
   -2.8719   -2.3938   -3.4222 O   0  0  0  0  0  0  0  0  0  0  0  0
   -0.4628   -5.3568   -5.4944 C   0  0  0  0  0  0  0  0  0  0  0  0
   -2.4962   -4.9187   -6.7453 C   0  0  0  0  0  0  0  0  0  0  0  0
   -1.7389   -5.6816   -1.9599 C   0  0  0  0  0  0  0  0  0  0  0  0
   -2.8576   -7.0722   -3.6010 C   0  0  0  0  0  0  0  0  0  0  0  0
   -0.1357   -1.8827   -2.8988 C   0  0  1  0  0  0  0  0  0  0  0  0
    0.1926   -5.7286   -6.6805 C   0  0  0  0  0  0  0  0  0  0  0  0
   -1.8434   -5.2882   -7.9353 C   0  0  0  0  0  0  0  0  0  0  0  0
   -1.5974   -6.7971   -1.1127 C   0  0  0  0  0  0  0  0  0  0  0  0
   -2.7042   -8.1919   -2.7635 C   0  0  0  0  0  0  0  0  0  0  0  0
    1.4286   -1.8484   -2.9163 C   0  0  2  0  0  0  0  0  0  0  0  0
   -0.5001   -5.6976   -7.9018 C   0  0  0  0  0  0  0  0  0  0  0  0
   -2.0720   -8.0552   -1.5176 C   0  0  0  0  0  0  0  0  0  0  0  0
    2.1094   -1.2877   -4.1486 N   0  0  1  0  0  0  0  0  0  0  0  0
    2.1113   -3.2163   -2.6331 C   0  0  1  0  0  0  0  0  0  0  0  0
    1.5737   -1.8746   -5.4379 C   0  0  0  0  0  0  0  0  0  0  0  0
    2.0274    0.2211   -4.2219 C   0  0  0  0  0  0  0  0  0  0  0  0
    3.5381   -1.7167   -3.9265 C   0  0  2  0  0  0  0  0  0  0  0  0
    3.5008   -3.1226   -3.2933 C   0  0  1  0  0  0  0  0  0  0  0  0
    1.7016   -1.2122   -2.0619 H   0  0  0  0  0  0  0  0  0  0  0  0
   -4.0757   -3.7822   -4.9950 H   0  0  0  0  0  0  0  0  0  0  0  0
    0.0618   -5.4008   -4.6182 H   0  0  0  0  0  0  0  0  0  0  0  0
   -3.4741   -4.6306   -6.8096 H   0  0  0  0  0  0  0  0  0  0  0  0
   -1.3746   -4.7881   -1.6274 H   0  0  0  0  0  0  0  0  0  0  0  0
   -3.3336   -7.2013   -4.4983 H   0  0  0  0  0  0  0  0  0  0  0  0
   -0.5269   -0.9858   -3.3827 H   0  0  0  0  0  0  0  0  0  0  0  0
   -0.4775   -1.8669   -1.8601 H   0  0  0  0  0  0  0  0  0  0  0  0
    1.1707   -6.0238   -6.6517 H   0  0  0  0  0  0  0  0  0  0  0  0
   -2.3492   -5.2663   -8.8236 H   0  0  0  0  0  0  0  0  0  0  0  0
   -1.1482   -6.6941   -0.2006 H   0  0  0  0  0  0  0  0  0  0  0  0
   -3.0539   -9.1051   -3.0609 H   0  0  0  0  0  0  0  0  0  0  0  0
   -0.0274   -5.9740   -8.7634 H   0  0  0  0  0  0  0  0  0  0  0  0
   -1.9601   -8.8681   -0.9080 H   0  0  0  0  0  0  0  0  0  0  0  0
    2.1942   -3.4044   -1.5587 H   0  0  0  0  0  0  0  0  0  0  0  0
    1.5579   -4.0424   -3.0839 H   0  0  0  0  0  0  0  0  0  0  0  0
    0.5411   -1.5682   -5.6196 H   0  0  0  0  0  0  0  0  0  0  0  0
    2.1658   -1.5512   -6.2984 H   0  0  0  0  0  0  0  0  0  0  0  0
    1.5857   -2.9658   -5.4267 H   0  0  0  0  0  0  0  0  0  0  0  0
    1.0068    0.5624   -4.4130 H   0  0  0  0  0  0  0  0  0  0  0  0
    2.6606    0.6102   -5.0239 H   0  0  0  0  0  0  0  0  0  0  0  0
    2.3560    0.6930   -3.2914 H   0  0  0  0  0  0  0  0  0  0  0  0
    4.0488   -1.0509   -3.2186 H   0  0  0  0  0  0  0  0  0  0  0  0
    4.1345   -1.7198   -4.8445 H   0  0  0  0  0  0  0  0  0  0  0  0
    4.3049   -3.2502   -2.5618 H   0  0  0  0  0  0  0  0  0  0  0  0
    3.6065   -3.8906   -4.0661 H   0  0  0  0  0  0  0  0  0  0  0  0
  1  2  1  0  0  0  0 
  1  3  1  0  0  0  0 
  1  4  1  0  0  0  0 
  1  5  1  0  0  0  0 
  2  6  1  0  0  0  0 
  2  7  2  0  0  0  0 
  4  8  2  0  0  0  0 
  4  9  1  0  0  0  0 
  5 10  2  0  0  0  0 
  5 11  1  0  0  0  0 
  6 12  1  0  0  0  0 
  8 13  1  0  0  0  0 
  9 14  2  0  0  0  0 
 10 15  1  0  0  0  0 
 11 16  2  0  0  0  0 
 17 12  1  0  0  0  0 
 13 18  2  0  0  0  0 
 14 18  1  0  0  0  0 
 15 19  2  0  0  0  0 
 16 19  1  0  0  0  0 
 17 20  1  0  0  0  0 
 17 21  1  0  0  0  0 
 20 22  1  0  0  0  0 
 20 23  1  0  0  0  0 
 20 24  1  0  0  0  0 
 21 25  1  0  0  0  0 
 24 25  1  0  0  0  0 
 17 26  1  0  0  0  0 
  3 27  1  0  0  0  0 
  8 28  1  0  0  0  0 
  9 29  1  0  0  0  0 
 10 30  1  0  0  0  0 
 11 31  1  0  0  0  0 
 12 32  1  0  0  0  0 
 12 33  1  0  0  0  0 
 13 34  1  0  0  0  0 
 14 35  1  0  0  0  0 
 15 36  1  0  0  0  0 
 16 37  1  0  0  0  0 
 18 38  1  0  0  0  0 
 19 39  1  0  0  0  0 
 21 40  1  0  0  0  0 
 21 41  1  0  0  0  0 
 22 42  1  0  0  0  0 
 22 43  1  0  0  0  0 
 22 44  1  0  0  0  0 
 23 45  1  0  0  0  0 
 23 46  1  0  0  0  0 
 23 47  1  0  0  0  0 
 24 48  1  0  0  0  0 
 24 49  1  0  0  0  0 
 25 50  1  0  0  0  0 
 25 51  1  0  0  0  0 
M  CHG  1  20   1
M  END
> <cdk:Title>
poldine

> <Conformer>
1

> <SuperDrugID>
SD001997

$$$$
