alfacalcidol
  CDK     0628171801

 73 75  0  0  0  0  0  0  0  0999 V2000
   -0.7857   -2.1449   -2.7882 C   0  0  0  0  0  0  0  0  0  0  0  0
   -1.1547   -0.8240   -2.2568 C   0  0  2  0  0  0  0  0  0  0  0  0
   -1.5692   -0.9445   -0.7607 C   0  0  2  0  0  0  0  0  0  0  0  0
   -0.5027   -1.7417    0.0509 C   0  0  1  0  0  0  0  0  0  0  0  0
   -0.0626   -3.0469   -0.6799 C   0  0  1  0  0  0  0  0  0  0  0  0
    0.2379   -2.7435   -2.0885 C   0  0  0  0  0  0  0  0  0  0  0  0
   -2.8406   -1.5895   -0.6763 O   0  0  0  0  0  0  0  0  0  0  0  0
    1.0130   -3.6309    0.0591 O   0  0  0  0  0  0  0  0  0  0  0  0
    1.4486   -2.9325   -2.6454 C   0  0  0  0  0  0  0  0  0  0  0  0
   -1.4624   -2.7056   -3.8197 C   0  0  0  0  0  0  0  0  0  0  0  0
   -1.2323   -3.9325   -4.3751 C   0  0  0  0  0  0  0  0  0  0  0  0
   -2.0876   -4.6836   -5.1117 C   0  0  0  0  0  0  0  0  0  0  0  0
   -1.6498   -5.8975   -5.8403 C   0  0  1  0  0  0  0  0  0  0  0  0
   -1.6951   -5.6640   -7.3947 C   0  0  2  0  0  0  0  0  0  0  0  0
   -3.1996   -5.3497   -7.7464 C   0  0  1  0  0  0  0  0  0  0  0  0
   -3.7993   -4.1983   -6.8770 C   0  0  1  0  0  0  0  0  0  0  0  0
   -3.5107   -4.3658   -5.3549 C   0  0  2  0  0  0  0  0  0  0  0  0
   -0.2828   -6.5775   -5.6058 C   0  0  1  0  0  0  0  0  0  0  0  0
   -0.1173   -7.4872   -6.8431 C   0  0  2  0  0  0  0  0  0  0  0  0
   -1.1607   -7.0507   -7.9295 C   0  0  2  0  0  0  0  0  0  0  0  0
   -2.3735   -6.6832   -5.5669 H   0  0  0  0  0  0  0  0  0  0  0  0
   -0.7655   -4.4739   -7.8483 C   0  0  0  0  0  0  0  0  0  0  0  0
   -0.6047   -7.1712   -9.4051 C   0  0  2  0  0  0  0  0  0  0  0  0
   -1.5737   -6.6715  -10.5235 C   0  0  0  0  0  0  0  0  0  0  0  0
   -0.0850   -8.6145   -9.7463 C   0  0  1  0  0  0  0  0  0  0  0  0
   -1.1613   -9.7387   -9.8782 C   0  0  1  0  0  0  0  0  0  0  0  0
   -0.4583  -11.0862  -10.3445 C   0  0  2  0  0  0  0  0  0  0  0  0
   -1.4275  -12.2839  -10.5997 C   0  0  1  0  0  0  0  0  0  0  0  0
   -2.4654  -11.9988  -11.7231 C   0  0  0  0  0  0  0  0  0  0  0  0
   -0.6217  -13.5763  -10.9215 C   0  0  0  0  0  0  0  0  0  0  0  0
   -1.9934   -7.7577   -7.8630 H   0  0  0  0  0  0  0  0  0  0  0  0
   -1.9733   -0.3576   -2.8115 H   0  0  0  0  0  0  0  0  0  0  0  0
   -0.2961   -0.1492   -2.3411 H   0  0  0  0  0  0  0  0  0  0  0  0
   -1.6755    0.0561   -0.3325 H   0  0  0  0  0  0  0  0  0  0  0  0
    0.3746   -1.1042    0.2005 H   0  0  0  0  0  0  0  0  0  0  0  0
   -0.9048   -1.9894    1.0363 H   0  0  0  0  0  0  0  0  0  0  0  0
   -0.8873   -3.7665   -0.6458 H   0  0  0  0  0  0  0  0  0  0  0  0
   -3.0563   -1.6069    0.2790 H   0  0  0  0  0  0  0  0  0  0  0  0
    1.2068   -4.4785   -0.3941 H   0  0  0  0  0  0  0  0  0  0  0  0
    1.6270   -2.6740   -3.5869 H   0  0  0  0  0  0  0  0  0  0  0  0
    2.2011   -3.3236   -2.1311 H   0  0  0  0  0  0  0  0  0  0  0  0
   -2.1825   -2.1591   -4.2266 H   0  0  0  0  0  0  0  0  0  0  0  0
   -0.3189   -4.2843   -4.2598 H   0  0  0  0  0  0  0  0  0  0  0  0
   -3.3081   -5.0865   -8.8002 H   0  0  0  0  0  0  0  0  0  0  0  0
   -3.8142   -6.2394   -7.5758 H   0  0  0  0  0  0  0  0  0  0  0  0
   -3.3911   -3.2400   -7.2065 H   0  0  0  0  0  0  0  0  0  0  0  0
   -4.8822   -4.1582   -7.0333 H   0  0  0  0  0  0  0  0  0  0  0  0
   -3.8593   -3.4722   -4.8385 H   0  0  0  0  0  0  0  0  0  0  0  0
   -4.1285   -5.1830   -4.9657 H   0  0  0  0  0  0  0  0  0  0  0  0
    0.5436   -5.8642   -5.5752 H   0  0  0  0  0  0  0  0  0  0  0  0
   -0.2800   -7.1539   -4.6768 H   0  0  0  0  0  0  0  0  0  0  0  0
   -0.2896   -8.5292   -6.5610 H   0  0  0  0  0  0  0  0  0  0  0  0
    0.9127   -7.4027   -7.2025 H   0  0  0  0  0  0  0  0  0  0  0  0
    0.2884   -4.7126   -7.7027 H   0  0  0  0  0  0  0  0  0  0  0  0
   -0.9708   -3.5618   -7.2873 H   0  0  0  0  0  0  0  0  0  0  0  0
   -0.9095   -4.2371   -8.8990 H   0  0  0  0  0  0  0  0  0  0  0  0
    0.2775   -6.5258   -9.4686 H   0  0  0  0  0  0  0  0  0  0  0  0
   -1.6336   -5.5871  -10.5486 H   0  0  0  0  0  0  0  0  0  0  0  0
   -2.5808   -7.0623  -10.3757 H   0  0  0  0  0  0  0  0  0  0  0  0
   -1.2209   -6.9821  -11.5108 H   0  0  0  0  0  0  0  0  0  0  0  0
    0.4687   -8.5523  -10.6880 H   0  0  0  0  0  0  0  0  0  0  0  0
    0.6478   -8.9301   -9.0003 H   0  0  0  0  0  0  0  0  0  0  0  0
   -1.5374   -9.9542   -8.8291 H   0  0  0  0  0  0  0  0  0  0  0  0
   -1.9557   -9.3333  -10.6243 H   0  0  0  0  0  0  0  0  0  0  0  0
    0.2648  -11.3764   -9.5777 H   0  0  0  0  0  0  0  0  0  0  0  0
    0.0956  -10.8919  -11.2668 H   0  0  0  0  0  0  0  0  0  0  0  0
   -1.9862  -12.4739   -9.6790 H   0  0  0  0  0  0  0  0  0  0  0  0
   -3.1686  -11.2268  -11.4076 H   0  0  0  0  0  0  0  0  0  0  0  0
   -3.0480  -12.8949  -11.9461 H   0  0  0  0  0  0  0  0  0  0  0  0
   -1.9678  -11.6701  -12.6381 H   0  0  0  0  0  0  0  0  0  0  0  0
    0.0868  -13.7960  -10.1193 H   0  0  0  0  0  0  0  0  0  0  0  0
   -1.2938  -14.4325  -11.0171 H   0  0  0  0  0  0  0  0  0  0  0  0
   -0.0651  -13.4639  -11.8552 H   0  0  0  0  0  0  0  0  0  0  0  0
  1  2  1  0  0  0  0 
  1  6  1  0  0  0  0 
  2  3  1  0  0  0  0 
  3  4  1  0  0  0  0 
  4  5  1  0  0  0  0 
  5  6  1  0  0  0  0 
  3  7  1  0  0  0  0 
  5  8  1  0  0  0  0 
  6  9  2  0  0  0  0 
  1 10  2  0  0  0  0 
 10 11  1  0  0  0  0 
 11 12  2  0  0  0  0 
 13 14  1  0  0  0  0 
 14 15  1  0  0  0  0 
 15 16  1  0  0  0  0 
 16 17  1  0  0  0  0 
 12 13  1  0  0  0  0 
 12 17  1  0  0  0  0 
 18 19  1  0  0  0  0 
 19 20  1  0  0  0  0 
 13 18  1  0  0  0  0 
 14 20  1  0  0  0  0 
 13 21  1  0  0  0  0 
 14 22  1  0  0  0  0 
 20 23  1  0  0  0  0 
 23 24  1  0  0  0  0 
 23 25  1  0  0  0  0 
 25 26  1  0  0  0  0 
 26 27  1  0  0  0  0 
 27 28  1  0  0  0  0 
 28 29  1  0  0  0  0 
 28 30  1  0  0  0  0 
 20 31  1  0  0  0  0 
  2 32  1  0  0  0  0 
  2 33  1  0  0  0  0 
  3 34  1  0  0  0  0 
  4 35  1  0  0  0  0 
  4 36  1  0  0  0  0 
  5 37  1  0  0  0  0 
  7 38  1  0  0  0  0 
  8 39  1  0  0  0  0 
  9 40  1  0  0  0  0 
  9 41  1  0  0  0  0 
 10 42  1  0  0  0  0 
 11 43  1  0  0  0  0 
 15 44  1  0  0  0  0 
 15 45  1  0  0  0  0 
 16 46  1  0  0  0  0 
 16 47  1  0  0  0  0 
 17 48  1  0  0  0  0 
 17 49  1  0  0  0  0 
 18 50  1  0  0  0  0 
 18 51  1  0  0  0  0 
 19 52  1  0  0  0  0 
 19 53  1  0  0  0  0 
 22 54  1  0  0  0  0 
 22 55  1  0  0  0  0 
 22 56  1  0  0  0  0 
 23 57  1  0  0  0  0 
 24 58  1  0  0  0  0 
 24 59  1  0  0  0  0 
 24 60  1  0  0  0  0 
 25 61  1  0  0  0  0 
 25 62  1  0  0  0  0 
 26 63  1  0  0  0  0 
 26 64  1  0  0  0  0 
 27 65  1  0  0  0  0 
 27 66  1  0  0  0  0 
 28 67  1  0  0  0  0 
 29 68  1  0  0  0  0 
 29 69  1  0  0  0  0 
 29 70  1  0  0  0  0 
 30 71  1  0  0  0  0 
 30 72  1  0  0  0  0 
 30 73  1  0  0  0  0 
M  END
> <cdk:Title>
alfacalcidol

> <Conformer>
1

> <SuperDrugID>
SD000100

$$$$
