difluprednate
  CDK     0628171801

 70 73  0  0  0  0  0  0  0  0999 V2000
   -0.1940   -4.4858   -9.7183 C   0  0  0  0  0  0  0  0  0  0  0  0
    0.4262   -5.4874  -10.6124 C   0  0  1  0  0  0  0  0  0  0  0  0
   -1.0823   -3.7766  -10.2468 O   0  0  0  0  0  0  0  0  0  0  0  0
    0.1982   -4.2697   -8.2787 C   0  0  2  0  0  0  0  0  0  0  0  0
   -0.5532   -6.4919  -10.9126 O   0  0  0  0  0  0  0  0  0  0  0  0
    1.5749   -3.8018   -8.1831 O   0  0  0  0  0  0  0  0  0  0  0  0
   -0.0590   -5.5081   -7.3172 C   0  0  2  0  0  0  0  0  0  0  0  0
   -0.6293   -3.1485   -7.5437 C   0  0  2  0  0  0  0  0  0  0  0  0
   -0.9980   -6.8909  -12.1400 C   0  0  0  0  0  0  0  0  0  0  0  0
    2.2710   -2.9491   -9.0042 C   0  0  0  0  0  0  0  0  0  0  0  0
   -1.5166   -6.0904   -7.5451 C   0  0  0  0  0  0  0  0  0  0  0  0
    0.1458   -4.8291   -5.9207 C   0  0  1  0  0  0  0  0  0  0  0  0
    0.9767   -6.6887   -7.3885 C   0  0  2  0  0  0  0  0  0  0  0  0
   -0.6376   -3.4994   -6.0308 C   0  0  1  0  0  0  0  0  0  0  0  0
   -2.0880   -7.8715  -12.2335 C   0  0  0  0  0  0  0  0  0  0  0  0
   -0.4871   -6.4468  -13.1951 O   0  0  0  0  0  0  0  0  0  0  0  0
    2.9628   -1.7713   -8.4413 C   0  0  2  0  0  0  0  0  0  0  0  0
    2.3602   -3.1683  -10.2342 O   0  0  0  0  0  0  0  0  0  0  0  0
   -0.1126   -5.7873   -4.7066 C   0  0  1  0  0  0  0  0  0  0  0  0
    0.8781   -7.7094   -6.2052 C   0  0  1  0  0  0  0  0  0  0  0  0
    2.4123   -0.4543   -9.0568 C   0  0  1  0  0  0  0  0  0  0  0  0
    0.8358   -7.0564   -4.7644 C   0  0  1  0  0  0  0  0  0  0  0  0
    0.0337   -5.0718   -3.3293 C   0  0  1  0  0  0  0  0  0  0  0  0
   -0.2064   -8.5963   -6.4562 O   0  0  0  0  0  0  0  0  0  0  0  0
    3.0284    0.8223   -8.4472 C   0  0  0  0  0  0  0  0  0  0  0  0
    2.1345   -6.5869   -4.5950 F   0  0  0  0  0  0  0  0  0  0  0  0
    0.5629   -8.0489   -3.5352 C   0  0  2  0  0  0  0  0  0  0  0  0
   -0.2097   -6.0438   -2.1429 C   0  0  1  0  0  0  0  0  0  0  0  0
   -0.8413   -8.7640   -3.5507 C   0  0  0  0  0  0  0  0  0  0  0  0
    0.6349   -7.2509   -2.2609 C   0  0  0  0  0  0  0  0  0  0  0  0
    1.5422   -9.1668   -3.5631 C   0  0  0  0  0  0  0  0  0  0  0  0
   -0.0533   -5.3221   -0.9758 F   0  0  0  0  0  0  0  0  0  0  0  0
    1.4658   -7.6262   -1.2584 C   0  0  0  0  0  0  0  0  0  0  0  0
    2.3379   -9.4753   -2.5281 C   0  0  0  0  0  0  0  0  0  0  0  0
    2.2916   -8.7346   -1.3646 C   0  0  0  0  0  0  0  0  0  0  0  0
    3.0158   -9.0663   -0.3965 O   0  0  0  0  0  0  0  0  0  0  0  0
    0.7818   -4.9882  -11.5167 H   0  0  0  0  0  0  0  0  0  0  0  0
    1.2923   -5.9567  -10.1495 H   0  0  0  0  0  0  0  0  0  0  0  0
   -1.6655   -3.1020   -7.8959 H   0  0  0  0  0  0  0  0  0  0  0  0
   -0.2021   -2.1560   -7.7053 H   0  0  0  0  0  0  0  0  0  0  0  0
   -1.8203   -6.7909   -6.7729 H   0  0  0  0  0  0  0  0  0  0  0  0
   -2.2813   -5.3159   -7.5601 H   0  0  0  0  0  0  0  0  0  0  0  0
   -1.5764   -6.6234   -8.4939 H   0  0  0  0  0  0  0  0  0  0  0  0
    1.1996   -4.5300   -5.8246 H   0  0  0  0  0  0  0  0  0  0  0  0
    1.9918   -6.2830   -7.4043 H   0  0  0  0  0  0  0  0  0  0  0  0
    0.8488   -7.2452   -8.3188 H   0  0  0  0  0  0  0  0  0  0  0  0
   -0.1525   -2.7108   -5.4461 H   0  0  0  0  0  0  0  0  0  0  0  0
   -1.6623   -3.6190   -5.6693 H   0  0  0  0  0  0  0  0  0  0  0  0
   -2.9239   -7.3641  -12.7997 H   0  0  0  0  0  0  0  0  0  0  0  0
   -2.5049   -8.0248  -11.1938 H   0  0  0  0  0  0  0  0  0  0  0  0
   -1.6168   -8.8150  -12.7416 H   0  0  0  0  0  0  0  0  0  0  0  0
    4.0343   -1.8545   -8.6411 H   0  0  0  0  0  0  0  0  0  0  0  0
    2.8159   -1.7514   -7.3590 H   0  0  0  0  0  0  0  0  0  0  0  0
   -1.1508   -6.1035   -4.7627 H   0  0  0  0  0  0  0  0  0  0  0  0
    1.7671   -8.3433   -6.2743 H   0  0  0  0  0  0  0  0  0  0  0  0
    2.6121   -0.4483  -10.1323 H   0  0  0  0  0  0  0  0  0  0  0  0
    1.3291   -0.4061   -8.9167 H   0  0  0  0  0  0  0  0  0  0  0  0
    1.0346   -4.6394   -3.2377 H   0  0  0  0  0  0  0  0  0  0  0  0
   -0.6869   -4.2523   -3.2639 H   0  0  0  0  0  0  0  0  0  0  0  0
    0.0007   -9.0106   -7.3200 H   0  0  0  0  0  0  0  0  0  0  0  0
    2.6409    1.7007   -8.9692 H   0  0  0  0  0  0  0  0  0  0  0  0
    4.1146    0.8102   -8.5492 H   0  0  0  0  0  0  0  0  0  0  0  0
    2.7692    0.9028   -7.3898 H   0  0  0  0  0  0  0  0  0  0  0  0
   -1.2586   -6.3488   -2.1475 H   0  0  0  0  0  0  0  0  0  0  0  0
   -1.6575   -8.0680   -3.7360 H   0  0  0  0  0  0  0  0  0  0  0  0
   -1.0400   -9.2496   -2.5897 H   0  0  0  0  0  0  0  0  0  0  0  0
   -0.9087   -9.5451   -4.3101 H   0  0  0  0  0  0  0  0  0  0  0  0
    1.6116   -9.7357   -4.3763 H   0  0  0  0  0  0  0  0  0  0  0  0
    1.5044   -7.1067   -0.4121 H   0  0  0  0  0  0  0  0  0  0  0  0
    2.9629  -10.2469   -2.6016 H   0  0  0  0  0  0  0  0  0  0  0  0
  1  2  1  0  0  0  0 
  1  3  2  0  0  0  0 
  4  1  1  0  0  0  0 
  2  5  1  0  0  0  0 
  4  6  1  0  0  0  0 
  7  4  1  0  0  0  0 
  4  8  1  0  0  0  0 
  5  9  1  0  0  0  0 
  6 10  1  0  0  0  0 
  7 11  1  0  0  0  0 
 12  7  1  0  0  0  0 
  7 13  1  0  0  0  0 
  8 14  1  0  0  0  0 
  9 15  1  0  0  0  0 
  9 16  2  0  0  0  0 
 10 17  1  0  0  0  0 
 10 18  2  0  0  0  0 
 12 14  1  0  0  0  0 
 19 12  1  0  0  0  0 
 20 13  1  0  0  0  0 
 17 21  1  0  0  0  0 
 22 19  1  0  0  0  0 
 19 23  1  0  0  0  0 
 22 20  1  0  0  0  0 
 20 24  1  0  0  0  0 
 21 25  1  0  0  0  0 
 22 26  1  0  0  0  0 
 22 27  1  0  0  0  0 
 28 23  1  0  0  0  0 
 27 29  1  0  0  0  0 
 27 30  1  0  0  0  0 
 27 31  1  0  0  0  0 
 28 30  1  0  0  0  0 
 28 32  1  0  0  0  0 
 30 33  2  0  0  0  0 
 31 34  2  0  0  0  0 
 33 35  1  0  0  0  0 
 34 35  1  0  0  0  0 
 35 36  2  0  0  0  0 
 37  2  1  0  0  0  0 
 38  2  1  0  0  0  0 
 39  8  1  0  0  0  0 
 40  8  1  0  0  0  0 
 41 11  1  0  0  0  0 
 42 11  1  0  0  0  0 
 43 11  1  0  0  0  0 
 12 44  1  0  0  0  0 
 45 13  1  0  0  0  0 
 46 13  1  0  0  0  0 
 47 14  1  0  0  0  0 
 48 14  1  0  0  0  0 
 49 15  1  0  0  0  0 
 50 15  1  0  0  0  0 
 51 15  1  0  0  0  0 
 52 17  1  0  0  0  0 
 53 17  1  0  0  0  0 
 19 54  1  0  0  0  0 
 20 55  1  0  0  0  0 
 56 21  1  0  0  0  0 
 57 21  1  0  0  0  0 
 58 23  1  0  0  0  0 
 59 23  1  0  0  0  0 
 60 24  1  0  0  0  0 
 61 25  1  0  0  0  0 
 62 25  1  0  0  0  0 
 63 25  1  0  0  0  0 
 28 64  1  0  0  0  0 
 65 29  1  0  0  0  0 
 66 29  1  0  0  0  0 
 67 29  1  0  0  0  0 
 68 31  1  0  0  0  0 
 69 33  1  0  0  0  0 
 70 34  1  0  0  0  0 
M  END
> <cdk:Title>
difluprednate

> <Conformer>
1

> <SuperDrugID>
SD002724

$$$$
