sulfamethizole
  CDK     0628171801

 27 28  0  0  0  0  0  0  0  0999 V2000
   -4.4789   -2.1005   -0.7013 S   0  0  1  0  0  0  0  0  0  0  0  0
   -4.1918   -0.4097   -0.7502 N   0  0  0  0  0  0  0  0  0  0  0  0
   -5.2225   -2.5437   -2.0529 O   0  0  0  0  0  0  0  0  0  0  0  0
   -3.0515   -2.8334   -0.6475 O   0  0  0  0  0  0  0  0  0  0  0  0
   -5.4216   -2.5427    0.7343 C   0  0  0  0  0  0  0  0  0  0  0  0
   -5.1407    0.5180   -0.5348 C   0  0  0  0  0  0  0  0  0  0  0  0
   -6.5549   -3.3783    0.6398 C   0  0  0  0  0  0  0  0  0  0  0  0
   -5.0325   -2.0442    1.9943 C   0  0  0  0  0  0  0  0  0  0  0  0
   -4.8656    2.2479   -0.5645 S   0  0  0  0  0  0  0  0  0  0  0  0
   -6.4591    0.3664   -0.2651 N   0  0  0  0  0  0  0  0  0  0  0  0
   -7.2926   -3.7070    1.7932 C   0  0  0  0  0  0  0  0  0  0  0  0
   -5.7700   -2.3701    3.1468 C   0  0  0  0  0  0  0  0  0  0  0  0
   -6.5358    2.6479   -0.2115 C   0  0  0  0  0  0  0  0  0  0  0  0
   -7.1737    1.4588   -0.0994 N   0  0  0  0  0  0  0  0  0  0  0  0
   -6.9034   -3.2015    3.0495 C   0  0  0  0  0  0  0  0  0  0  0  0
   -7.1066    3.9909   -0.0975 C   0  0  0  0  0  0  0  0  0  0  0  0
   -7.6167   -3.5030    4.1501 N   0  0  0  0  0  0  0  0  0  0  0  0
   -3.2952   -0.0981   -0.9521 H   0  0  0  0  0  0  0  0  0  0  0  0
   -6.8543   -3.7447   -0.2648 H   0  0  0  0  0  0  0  0  0  0  0  0
   -4.2167   -1.4351    2.0761 H   0  0  0  0  0  0  0  0  0  0  0  0
   -8.1151   -4.3114    1.7132 H   0  0  0  0  0  0  0  0  0  0  0  0
   -5.4787   -1.9958    4.0535 H   0  0  0  0  0  0  0  0  0  0  0  0
   -6.9018    4.5442   -1.0151 H   0  0  0  0  0  0  0  0  0  0  0  0
   -8.1848    3.9309    0.0547 H   0  0  0  0  0  0  0  0  0  0  0  0
   -6.6552    4.5137    0.7460 H   0  0  0  0  0  0  0  0  0  0  0  0
   -7.3516   -3.1474    5.0133 H   0  0  0  0  0  0  0  0  0  0  0  0
   -8.3989   -4.0733    4.0819 H   0  0  0  0  0  0  0  0  0  0  0  0
  1  2  1  0  0  0  0 
  1  3  2  0  0  0  0 
  1  4  2  0  0  0  0 
  1  5  1  0  0  0  0 
  2  6  1  0  0  0  0 
  5  7  2  0  0  0  0 
  5  8  1  0  0  0  0 
  6  9  1  0  0  0  0 
  6 10  2  0  0  0  0 
  7 11  1  0  0  0  0 
  8 12  2  0  0  0  0 
  9 13  1  0  0  0  0 
 10 14  1  0  0  0  0 
 11 15  2  0  0  0  0 
 12 15  1  0  0  0  0 
 13 14  2  0  0  0  0 
 13 16  1  0  0  0  0 
 15 17  1  0  0  0  0 
  2 18  1  0  0  0  0 
  7 19  1  0  0  0  0 
  8 20  1  0  0  0  0 
 11 21  1  0  0  0  0 
 12 22  1  0  0  0  0 
 16 23  1  0  0  0  0 
 16 24  1  0  0  0  0 
 16 25  1  0  0  0  0 
 17 26  1  0  0  0  0 
 17 27  1  0  0  0  0 
M  END
> <cdk:Title>
sulfamethizole

> <Conformer>
1

> <SuperDrugID>
SD002258

$$$$
