loprodiol
  CDK     0628171801

 19 18  0  0  0  0  0  0  0  0999 V2000
   -2.7345    1.2909   -0.0360 O   0  0  0  0  0  0  0  0  0  0  0  0
   -1.5079    0.6363    0.2777 C   0  0  1  0  0  0  0  0  0  0  0  0
   -1.1637    0.6797    1.8108 C   0  0  1  0  0  0  0  0  0  0  0  0
   -2.3043   -0.0556    2.6040 C   0  0  2  0  0  0  0  0  0  0  0  0
   -2.4427   -1.4259    2.2375 O   0  0  0  0  0  0  0  0  0  0  0  0
    0.2068   -0.0598    2.0319 C   0  0  2  0  0  0  0  0  0  0  0  0
    0.7774   -0.1119    3.7033 Cl  0  0  0  0  0  0  0  0  0  0  0  0
   -1.0994    2.1716    2.3047 C   0  0  1  0  0  0  0  0  0  0  0  0
    0.1368    3.1713    1.5338 Cl  0  0  0  0  0  0  0  0  0  0  0  0
   -2.8398    1.1780   -1.0040 H   0  0  0  0  0  0  0  0  0  0  0  0
   -1.5884   -0.3962   -0.0684 H   0  0  0  0  0  0  0  0  0  0  0  0
   -0.7232    1.1170   -0.3095 H   0  0  0  0  0  0  0  0  0  0  0  0
   -3.2669    0.4300    2.4303 H   0  0  0  0  0  0  0  0  0  0  0  0
   -2.1120   -0.0239    3.6780 H   0  0  0  0  0  0  0  0  0  0  0  0
   -3.1867   -1.7584    2.7822 H   0  0  0  0  0  0  0  0  0  0  0  0
    0.9947    0.4144    1.4442 H   0  0  0  0  0  0  0  0  0  0  0  0
    0.1374   -1.0936    1.6854 H   0  0  0  0  0  0  0  0  0  0  0  0
   -2.0596    2.6655    2.1382 H   0  0  0  0  0  0  0  0  0  0  0  0
   -0.9108    2.2095    3.3791 H   0  0  0  0  0  0  0  0  0  0  0  0
  1  2  1  0  0  0  0 
  2  3  1  0  0  0  0 
  3  4  1  0  0  0  0 
  4  5  1  0  0  0  0 
  3  6  1  0  0  0  0 
  6  7  1  0  0  0  0 
  3  8  1  0  0  0  0 
  8  9  1  0  0  0  0 
  1 10  1  0  0  0  0 
  2 11  1  0  0  0  0 
  2 12  1  0  0  0  0 
  4 13  1  0  0  0  0 
  4 14  1  0  0  0  0 
  5 15  1  0  0  0  0 
  6 16  1  0  0  0  0 
  6 17  1  0  0  0  0 
  8 18  1  0  0  0  0 
  8 19  1  0  0  0  0 
M  END
> <cdk:Title>
loprodiol

> <Conformer>
1

> <SuperDrugID>
SD003246

$$$$
