gabexate
  CDK     0628171801

 46 46  0  0  0  0  0  0  0  0999 V2000
   -9.9954   -8.4503    3.9231 C   0  0  0  0  0  0  0  0  0  0  0  0
  -10.6289   -7.6596    4.8430 O   0  0  0  0  0  0  0  0  0  0  0  0
  -10.4026   -9.6198    3.7182 O   0  0  0  0  0  0  0  0  0  0  0  0
   -8.9260   -7.9144    3.1627 C   0  0  0  0  0  0  0  0  0  0  0  0
  -11.7614   -8.0238    5.6448 C   0  0  1  0  0  0  0  0  0  0  0  0
   -8.6157   -8.4315    1.8830 C   0  0  0  0  0  0  0  0  0  0  0  0
   -8.1690   -6.8187    3.6411 C   0  0  0  0  0  0  0  0  0  0  0  0
  -12.2801   -6.7946    6.4155 C   0  0  0  0  0  0  0  0  0  0  0  0
   -7.6076   -7.8503    1.0956 C   0  0  0  0  0  0  0  0  0  0  0  0
   -7.1471   -6.2496    2.8574 C   0  0  0  0  0  0  0  0  0  0  0  0
   -6.8591   -6.7521    1.5727 C   0  0  0  0  0  0  0  0  0  0  0  0
   -5.9042   -6.1005    0.8355 O   0  0  0  0  0  0  0  0  0  0  0  0
   -5.2032   -6.4760   -0.2809 C   0  0  0  0  0  0  0  0  0  0  0  0
   -4.3732   -5.4593   -0.9517 C   0  0  2  0  0  0  0  0  0  0  0  0
   -5.2382   -7.6385   -0.7459 O   0  0  0  0  0  0  0  0  0  0  0  0
   -3.2283   -4.8874   -0.0699 C   0  0  1  0  0  0  0  0  0  0  0  0
   -2.7730   -3.4855   -0.5592 C   0  0  2  0  0  0  0  0  0  0  0  0
   -1.4188   -3.0200    0.0385 C   0  0  2  0  0  0  0  0  0  0  0  0
   -1.2027   -1.4933   -0.1262 C   0  0  1  0  0  0  0  0  0  0  0  0
    0.1346   -1.1572    0.0751 N   0  0  0  0  0  0  0  0  0  0  0  0
    0.6564    0.0135    0.1645 C   0  0  0  0  0  0  0  0  0  0  0  0
   -0.0418    1.1318    0.1281 N   0  0  0  0  0  0  0  0  0  0  0  0
    1.9583    0.0911    0.2970 N   0  0  0  0  0  0  0  0  0  0  0  0
  -12.5638   -8.4001    5.0022 H   0  0  0  0  0  0  0  0  0  0  0  0
  -11.4793   -8.8076    6.3538 H   0  0  0  0  0  0  0  0  0  0  0  0
   -9.1371   -9.2219    1.4955 H   0  0  0  0  0  0  0  0  0  0  0  0
   -8.3514   -6.4213    4.5679 H   0  0  0  0  0  0  0  0  0  0  0  0
  -13.1537   -7.0731    7.0093 H   0  0  0  0  0  0  0  0  0  0  0  0
  -11.5045   -6.4069    7.0809 H   0  0  0  0  0  0  0  0  0  0  0  0
  -12.5710   -6.0076    5.7152 H   0  0  0  0  0  0  0  0  0  0  0  0
   -7.4488   -8.2254    0.1628 H   0  0  0  0  0  0  0  0  0  0  0  0
   -6.6161   -5.4572    3.2281 H   0  0  0  0  0  0  0  0  0  0  0  0
   -5.0506   -4.6561   -1.2495 H   0  0  0  0  0  0  0  0  0  0  0  0
   -3.9339   -5.8737   -1.8651 H   0  0  0  0  0  0  0  0  0  0  0  0
   -3.5599   -4.7905    0.9668 H   0  0  0  0  0  0  0  0  0  0  0  0
   -2.3851   -5.5828   -0.0865 H   0  0  0  0  0  0  0  0  0  0  0  0
   -3.5555   -2.7666   -0.2955 H   0  0  0  0  0  0  0  0  0  0  0  0
   -2.6782   -3.4893   -1.6496 H   0  0  0  0  0  0  0  0  0  0  0  0
   -0.6170   -3.5697   -0.4641 H   0  0  0  0  0  0  0  0  0  0  0  0
   -1.3803   -3.2643    1.1034 H   0  0  0  0  0  0  0  0  0  0  0  0
   -1.4895   -1.1820   -1.1353 H   0  0  0  0  0  0  0  0  0  0  0  0
   -1.8411   -0.9736    0.5955 H   0  0  0  0  0  0  0  0  0  0  0  0
    0.4026    1.9906    0.2249 H   0  0  0  0  0  0  0  0  0  0  0  0
   -1.0051    1.1003    0.0199 H   0  0  0  0  0  0  0  0  0  0  0  0
    2.4876   -0.7195    0.3697 H   0  0  0  0  0  0  0  0  0  0  0  0
    2.3962    0.9570    0.3105 H   0  0  0  0  0  0  0  0  0  0  0  0
  1  2  1  0  0  0  0 
  1  3  2  0  0  0  0 
  1  4  1  0  0  0  0 
  2  5  1  0  0  0  0 
  4  6  2  0  0  0  0 
  4  7  1  0  0  0  0 
  5  8  1  0  0  0  0 
  6  9  1  0  0  0  0 
  7 10  2  0  0  0  0 
  9 11  2  0  0  0  0 
 10 11  1  0  0  0  0 
 11 12  1  0  0  0  0 
 12 13  1  0  0  0  0 
 13 14  1  0  0  0  0 
 13 15  2  0  0  0  0 
 14 16  1  0  0  0  0 
 16 17  1  0  0  0  0 
 17 18  1  0  0  0  0 
 18 19  1  0  0  0  0 
 19 20  1  0  0  0  0 
 20 21  2  0  0  0  0 
 21 22  1  0  0  0  0 
 21 23  1  0  0  0  0 
 24  5  1  0  0  0  0 
 25  5  1  0  0  0  0 
 26  6  1  0  0  0  0 
 27  7  1  0  0  0  0 
 28  8  1  0  0  0  0 
 29  8  1  0  0  0  0 
 30  8  1  0  0  0  0 
 31  9  1  0  0  0  0 
 32 10  1  0  0  0  0 
 33 14  1  0  0  0  0 
 34 14  1  0  0  0  0 
 35 16  1  0  0  0  0 
 36 16  1  0  0  0  0 
 37 17  1  0  0  0  0 
 38 17  1  0  0  0  0 
 39 18  1  0  0  0  0 
 40 18  1  0  0  0  0 
 41 19  1  0  0  0  0 
 42 19  1  0  0  0  0 
 43 22  1  0  0  0  0 
 44 22  1  0  0  0  0 
 45 23  1  0  0  0  0 
 46 23  1  0  0  0  0 
M  END
> <cdk:Title>
gabexate

> <Conformer>
1

> <SuperDrugID>
SD002815

$$$$
