sulfaethidole
  CDK     0628171801

 30 31  0  0  0  0  0  0  0  0999 V2000
    6.3607   -1.1317   -0.0362 S   0  0  1  0  0  0  0  0  0  0  0  0
    5.6772    0.3422   -0.5898 N   0  0  0  0  0  0  0  0  0  0  0  0
    7.5441   -0.7882    0.9916 O   0  0  0  0  0  0  0  0  0  0  0  0
    5.2266   -1.9470    0.7553 O   0  0  0  0  0  0  0  0  0  0  0  0
    6.9571   -2.1133   -1.3866 C   0  0  0  0  0  0  0  0  0  0  0  0
    6.2811    1.1401   -1.4907 C   0  0  0  0  0  0  0  0  0  0  0  0
    8.2363   -2.7076   -1.3399 C   0  0  0  0  0  0  0  0  0  0  0  0
    6.1506   -2.3001   -2.5276 C   0  0  0  0  0  0  0  0  0  0  0  0
    5.7300    2.7311   -1.9770 S   0  0  0  0  0  0  0  0  0  0  0  0
    7.4180    0.9237   -2.1932 N   0  0  0  0  0  0  0  0  0  0  0  0
    8.7059   -3.4684   -2.4269 C   0  0  0  0  0  0  0  0  0  0  0  0
    6.6222   -3.0593   -3.6157 C   0  0  0  0  0  0  0  0  0  0  0  0
    7.0708    2.9973   -3.0773 C   0  0  0  0  0  0  0  0  0  0  0  0
    7.8201    1.8721   -3.0093 N   0  0  0  0  0  0  0  0  0  0  0  0
    7.9056   -3.6394   -3.5726 C   0  0  0  0  0  0  0  0  0  0  0  0
    7.3327    4.1964   -3.8860 C   0  0  1  0  0  0  0  0  0  0  0  0
    8.3685   -4.3511   -4.6195 N   0  0  0  0  0  0  0  0  0  0  0  0
    7.8389    5.3635   -3.0105 C   0  0  0  0  0  0  0  0  0  0  0  0
    4.8302    0.6327   -0.2169 H   0  0  0  0  0  0  0  0  0  0  0  0
    8.8365   -2.5884   -0.5215 H   0  0  0  0  0  0  0  0  0  0  0  0
    5.2201   -1.8784   -2.5773 H   0  0  0  0  0  0  0  0  0  0  0  0
    9.6347   -3.8938   -2.3801 H   0  0  0  0  0  0  0  0  0  0  0  0
    6.0280   -3.1823   -4.4376 H   0  0  0  0  0  0  0  0  0  0  0  0
    8.0881    3.9634   -4.6398 H   0  0  0  0  0  0  0  0  0  0  0  0
    6.4161    4.4878   -4.4047 H   0  0  0  0  0  0  0  0  0  0  0  0
    7.8213   -4.4655   -5.4124 H   0  0  0  0  0  0  0  0  0  0  0  0
    9.2530   -4.7489   -4.5828 H   0  0  0  0  0  0  0  0  0  0  0  0
    8.1094    6.2096   -3.6441 H   0  0  0  0  0  0  0  0  0  0  0  0
    7.0648    5.6866   -2.3109 H   0  0  0  0  0  0  0  0  0  0  0  0
    8.7220    5.0585   -2.4443 H   0  0  0  0  0  0  0  0  0  0  0  0
  1  2  1  0  0  0  0 
  1  3  2  0  0  0  0 
  1  4  2  0  0  0  0 
  1  5  1  0  0  0  0 
  2  6  1  0  0  0  0 
  5  7  2  0  0  0  0 
  5  8  1  0  0  0  0 
  6  9  1  0  0  0  0 
  6 10  2  0  0  0  0 
  7 11  1  0  0  0  0 
  8 12  2  0  0  0  0 
  9 13  1  0  0  0  0 
 10 14  1  0  0  0  0 
 11 15  2  0  0  0  0 
 12 15  1  0  0  0  0 
 13 14  2  0  0  0  0 
 13 16  1  0  0  0  0 
 15 17  1  0  0  0  0 
 16 18  1  0  0  0  0 
  2 19  1  0  0  0  0 
  7 20  1  0  0  0  0 
  8 21  1  0  0  0  0 
 11 22  1  0  0  0  0 
 12 23  1  0  0  0  0 
 16 24  1  0  0  0  0 
 16 25  1  0  0  0  0 
 17 26  1  0  0  0  0 
 17 27  1  0  0  0  0 
 18 28  1  0  0  0  0 
 18 29  1  0  0  0  0 
 18 30  1  0  0  0  0 
M  END
> <cdk:Title>
sulfaethidole

> <Conformer>
1

> <SuperDrugID>
SD002251

$$$$
