asparagine
  CDK     0628171801

 17 16  0  0  0  0  0  0  0  0999 V2000
   -1.5696    0.7916   -1.8725 C   0  0  0  0  0  0  0  0  0  0  0  0
   -0.5805    1.0839   -0.8098 C   0  0  2  0  0  0  0  0  0  0  0  0
   -0.4167   -0.0533    0.2424 C   0  0  2  0  0  0  0  0  0  0  0  0
   -1.7253    1.5985   -2.8177 O   0  0  0  0  0  0  0  0  0  0  0  0
   -0.9651    2.3375   -0.1411 N   0  0  1  0  0  0  0  0  0  0  0  0
    0.6772    0.2084    1.2027 C   0  0  0  0  0  0  0  0  0  0  0  0
    1.8630    0.2752    0.8048 O   0  0  0  0  0  0  0  0  0  0  0  0
    0.4384    0.3794    2.5161 N   0  0  0  0  0  0  0  0  0  0  0  0
   -2.3192   -0.3368   -1.8778 O   0  0  0  0  0  0  0  0  0  0  0  0
    0.3820    1.2471   -1.3032 H   0  0  0  0  0  0  0  0  0  0  0  0
   -0.1947   -0.9952   -0.2659 H   0  0  0  0  0  0  0  0  0  0  0  0
   -1.3600   -0.1814    0.7815 H   0  0  0  0  0  0  0  0  0  0  0  0
   -1.8030    2.1409    0.4131 H   0  0  0  0  0  0  0  0  0  0  0  0
   -0.2192    2.5680    0.5210 H   0  0  0  0  0  0  0  0  0  0  0  0
    1.1759    0.5512    3.1250 H   0  0  0  0  0  0  0  0  0  0  0  0
   -0.4704    0.3349    2.8585 H   0  0  0  0  0  0  0  0  0  0  0  0
   -2.9560   -0.4993   -2.6042 H   0  0  0  0  0  0  0  0  0  0  0  0
  4  1  2  0  0  0  0 
  1  2  1  0  0  0  0 
  2  5  1  0  0  0  0 
  2  3  1  0  0  0  0 
  3  6  1  0  0  0  0 
  6  8  1  0  0  0  0 
  6  7  2  0  0  0  0 
  1  9  1  0  0  0  0 
  2 10  1  0  0  0  0 
  3 11  1  0  0  0  0 
  3 12  1  0  0  0  0 
  5 13  1  0  0  0  0 
  5 14  1  0  0  0  0 
  8 15  1  0  0  0  0 
  8 16  1  0  0  0  0 
  9 17  1  0  0  0  0 
M  END
> <cdk:Title>
asparagine

> <Conformer>
1

> <SuperDrugID>
SD003369

$$$$
