ipidacrine
  CDK     0628171802

 30 32  0  0  0  0  0  0  0  0999 V2000
    0.4976   -2.0977   -0.1264 N   0  0  0  0  0  0  0  0  0  0  0  0
   -0.1077   -1.2207    0.7046 C   0  0  0  0  0  0  0  0  0  0  0  0
    0.3858   -1.0744    2.0166 C   0  0  0  0  0  0  0  0  0  0  0  0
   -1.2336   -0.4526    0.2958 C   0  0  0  0  0  0  0  0  0  0  0  0
   -0.2505   -0.2113    2.9021 C   0  0  0  0  0  0  0  0  0  0  0  0
    1.5323   -1.7422    2.6389 C   0  0  2  0  0  0  0  0  0  0  0  0
   -1.8657    0.3825    1.2635 C   0  0  0  0  0  0  0  0  0  0  0  0
   -1.7464   -0.5372   -1.1055 C   0  0  1  0  0  0  0  0  0  0  0  0
   -1.3495    0.4827    2.5200 N   0  0  0  0  0  0  0  0  0  0  0  0
    0.3841   -0.1797    4.2135 C   0  0  1  0  0  0  0  0  0  0  0  0
    1.6248   -1.0919    4.0423 C   0  0  2  0  0  0  0  0  0  0  0  0
   -3.0834    1.1774    0.9690 C   0  0  1  0  0  0  0  0  0  0  0  0
   -2.8048    0.5338   -1.4809 C   0  0  1  0  0  0  0  0  0  0  0  0
   -3.8129    0.7532   -0.3316 C   0  0  2  0  0  0  0  0  0  0  0  0
    1.2853   -2.5810    0.1694 H   0  0  0  0  0  0  0  0  0  0  0  0
    0.1404   -2.2548   -1.0144 H   0  0  0  0  0  0  0  0  0  0  0  0
    2.4408   -1.5619    2.0585 H   0  0  0  0  0  0  0  0  0  0  0  0
    1.3516   -2.8178    2.7101 H   0  0  0  0  0  0  0  0  0  0  0  0
   -0.9129   -0.4304   -1.8059 H   0  0  0  0  0  0  0  0  0  0  0  0
   -2.1781   -1.5318   -1.2471 H   0  0  0  0  0  0  0  0  0  0  0  0
    0.6715    0.8419    4.4719 H   0  0  0  0  0  0  0  0  0  0  0  0
   -0.2999   -0.5772    4.9676 H   0  0  0  0  0  0  0  0  0  0  0  0
    2.5385   -0.4956    4.1148 H   0  0  0  0  0  0  0  0  0  0  0  0
    1.6535   -1.8566    4.8232 H   0  0  0  0  0  0  0  0  0  0  0  0
   -3.7889    1.0795    1.8004 H   0  0  0  0  0  0  0  0  0  0  0  0
   -2.7899    2.2281    0.8980 H   0  0  0  0  0  0  0  0  0  0  0  0
   -2.3029    1.4803   -1.6994 H   0  0  0  0  0  0  0  0  0  0  0  0
   -3.3377    0.2193   -2.3840 H   0  0  0  0  0  0  0  0  0  0  0  0
   -4.5305    1.5264   -0.6134 H   0  0  0  0  0  0  0  0  0  0  0  0
   -4.3660   -0.1749   -0.1555 H   0  0  0  0  0  0  0  0  0  0  0  0
  1  2  1  0  0  0  0 
  2  3  2  0  0  0  0 
  2  4  1  0  0  0  0 
  3  5  1  0  0  0  0 
  3  6  1  0  0  0  0 
  4  7  2  0  0  0  0 
  4  8  1  0  0  0  0 
  5  9  2  0  0  0  0 
  5 10  1  0  0  0  0 
  6 11  1  0  0  0  0 
  7  9  1  0  0  0  0 
  7 12  1  0  0  0  0 
  8 13  1  0  0  0  0 
 10 11  1  0  0  0  0 
 12 14  1  0  0  0  0 
 13 14  1  0  0  0  0 
  1 15  1  0  0  0  0 
  1 16  1  0  0  0  0 
  6 17  1  0  0  0  0 
  6 18  1  0  0  0  0 
  8 19  1  0  0  0  0 
  8 20  1  0  0  0  0 
 10 21  1  0  0  0  0 
 10 22  1  0  0  0  0 
 11 23  1  0  0  0  0 
 11 24  1  0  0  0  0 
 12 25  1  0  0  0  0 
 12 26  1  0  0  0  0 
 13 27  1  0  0  0  0 
 13 28  1  0  0  0  0 
 14 29  1  0  0  0  0 
 14 30  1  0  0  0  0 
M  END
> <cdk:Title>
ipidacrine

> <Conformer>
1

> <SuperDrugID>
SD003770

$$$$
