hydromorphone
  CDK     0628171801

 40 44  0  0  0  0  0  0  0  0999 V2000
   -6.0006   -1.5191   -1.2295 O   0  0  0  0  0  0  0  0  0  0  0  0
   -4.9022   -1.2693   -0.6778 C   0  0  0  0  0  0  0  0  0  0  0  0
   -4.2303    0.0430   -0.9222 C   0  0  1  0  0  0  0  0  0  0  0  0
   -4.2627   -2.3043    0.1653 C   0  0  2  0  0  0  0  0  0  0  0  0
   -2.6676   -0.0593   -1.0047 C   0  0  2  0  0  0  0  0  0  0  0  0
   -4.6565    0.6002   -2.1956 O   0  0  0  0  0  0  0  0  0  0  0  0
   -2.8001   -2.5516   -0.2818 C   0  0  2  0  0  0  0  0  0  0  0  0
   -2.5812   -0.3041   -2.4403 C   0  0  0  0  0  0  0  0  0  0  0  0
   -1.9810   -1.2280   -0.2183 C   0  0  1  0  0  0  0  0  0  0  0  0
   -1.9373    1.2825   -0.6535 C   0  0  1  0  0  0  0  0  0  0  0  0
   -3.7252    0.1462   -3.0803 C   0  0  0  0  0  0  0  0  0  0  0  0
   -1.5380   -0.9733   -3.1072 C   0  0  0  0  0  0  0  0  0  0  0  0
   -0.5094   -1.3317   -0.7568 C   0  0  1  0  0  0  0  0  0  0  0  0
   -0.4001    1.2033   -0.8815 C   0  0  1  0  0  0  0  0  0  0  0  0
   -3.8230    0.0567   -4.4787 C   0  0  0  0  0  0  0  0  0  0  0  0
   -0.4562   -1.6187   -2.3083 C   0  0  2  0  0  0  0  0  0  0  0  0
   -1.6264   -1.0494   -4.5166 C   0  0  0  0  0  0  0  0  0  0  0  0
    0.1967   -0.0640   -0.3497 N   0  0  2  0  0  0  0  0  0  0  0  0
   -4.9272    0.4999   -5.1251 O   0  0  0  0  0  0  0  0  0  0  0  0
   -2.7484   -0.5192   -5.1968 C   0  0  0  0  0  0  0  0  0  0  0  0
    1.6866   -0.1031   -0.4209 C   0  0  0  0  0  0  0  0  0  0  0  0
   -1.9379   -0.9541    0.8438 H   0  0  0  0  0  0  0  0  0  0  0  0
   -4.5339    0.7192   -0.1185 H   0  0  0  0  0  0  0  0  0  0  0  0
   -0.0305   -2.1653   -0.2303 H   0  0  0  0  0  0  0  0  0  0  0  0
   -4.8174   -3.2444    0.1077 H   0  0  0  0  0  0  0  0  0  0  0  0
   -4.2762   -1.9698    1.2049 H   0  0  0  0  0  0  0  0  0  0  0  0
   -2.8006   -2.9652   -1.2936 H   0  0  0  0  0  0  0  0  0  0  0  0
   -2.3425   -3.2922    0.3777 H   0  0  0  0  0  0  0  0  0  0  0  0
   -2.3418    2.1120   -1.2418 H   0  0  0  0  0  0  0  0  0  0  0  0
   -2.1200    1.5178    0.3983 H   0  0  0  0  0  0  0  0  0  0  0  0
   -0.1901    1.2923   -1.9504 H   0  0  0  0  0  0  0  0  0  0  0  0
    0.0603    2.0629   -0.3877 H   0  0  0  0  0  0  0  0  0  0  0  0
    0.5128   -1.3234   -2.7127 H   0  0  0  0  0  0  0  0  0  0  0  0
   -0.5460   -2.6977   -2.4572 H   0  0  0  0  0  0  0  0  0  0  0  0
   -0.8781   -1.4998   -5.0491 H   0  0  0  0  0  0  0  0  0  0  0  0
   -5.5602    0.7574   -4.4205 H   0  0  0  0  0  0  0  0  0  0  0  0
   -2.7885   -0.5687   -6.2173 H   0  0  0  0  0  0  0  0  0  0  0  0
    2.0731   -1.0152    0.0369 H   0  0  0  0  0  0  0  0  0  0  0  0
    2.0433   -0.0552   -1.4510 H   0  0  0  0  0  0  0  0  0  0  0  0
    2.1083    0.7410    0.1278 H   0  0  0  0  0  0  0  0  0  0  0  0
  1  2  2  0  0  0  0 
  3  2  1  0  0  0  0 
  2  4  1  0  0  0  0 
  5  3  1  0  0  0  0 
  3  6  1  0  0  0  0 
  3 23  1  0  0  0  0 
  4  7  1  0  0  0  0 
  5  8  1  0  0  0  0 
  9  5  1  0  0  0  0 
  5 10  1  0  0  0  0 
  6 11  1  0  0  0  0 
  9  7  1  0  0  0  0 
  8 11  2  0  0  0  0 
  8 12  1  0  0  0  0 
 13  9  1  0  0  0  0 
  9 22  1  0  0  0  0 
 10 14  1  0  0  0  0 
 11 15  1  0  0  0  0 
 12 16  1  0  0  0  0 
 12 17  2  0  0  0  0 
 13 16  1  0  0  0  0 
 13 18  1  0  0  0  0 
 13 24  1  0  0  0  0 
 14 18  1  0  0  0  0 
 15 19  1  0  0  0  0 
 15 20  2  0  0  0  0 
 17 20  1  0  0  0  0 
 18 21  1  0  0  0  0 
  4 25  1  0  0  0  0 
  4 26  1  0  0  0  0 
  7 27  1  0  0  0  0 
  7 28  1  0  0  0  0 
 10 29  1  0  0  0  0 
 10 30  1  0  0  0  0 
 14 31  1  0  0  0  0 
 14 32  1  0  0  0  0 
 16 33  1  0  0  0  0 
 16 34  1  0  0  0  0 
 17 35  1  0  0  0  0 
 19 36  1  0  0  0  0 
 20 37  1  0  0  0  0 
 21 38  1  0  0  0  0 
 21 39  1  0  0  0  0 
 21 40  1  0  0  0  0 
M  END
> <cdk:Title>
hydromorphone

> <Conformer>
1

> <SuperDrugID>
SD001238

$$$$
