benzestrol
  CDK     0628171801

 48 49  0  0  0  0  0  0  0  0999 V2000
    4.5895    0.9048    4.3590 C   0  0  1  0  0  0  0  0  0  0  0  0
    3.3100    0.0324    3.9881 C   0  0  1  0  0  0  0  0  0  0  0  0
    5.4200    0.4358    5.6039 C   0  0  1  0  0  0  0  0  0  0  0  0
    5.4750    1.2522    3.1897 C   0  0  0  0  0  0  0  0  0  0  0  0
    2.3647    0.7779    2.9421 C   0  0  2  0  0  0  0  0  0  0  0  0
    3.5851   -1.4557    3.5438 C   0  0  1  0  0  0  0  0  0  0  0  0
    6.3481    1.5215    6.2063 C   0  0  0  0  0  0  0  0  0  0  0  0
    6.3188    0.2937    2.5747 C   0  0  0  0  0  0  0  0  0  0  0  0
    5.5053    2.5751    2.6784 C   0  0  0  0  0  0  0  0  0  0  0  0
    1.8163    2.1582    3.4269 C   0  0  0  0  0  0  0  0  0  0  0  0
    1.1899   -0.0375    2.4775 C   0  0  0  0  0  0  0  0  0  0  0  0
    4.2789   -2.4108    4.5460 C   0  0  0  0  0  0  0  0  0  0  0  0
    7.1478    0.6389    1.4911 C   0  0  0  0  0  0  0  0  0  0  0  0
    6.3265    2.9224    1.5908 C   0  0  0  0  0  0  0  0  0  0  0  0
    0.1720   -0.4337    3.3808 C   0  0  0  0  0  0  0  0  0  0  0  0
    1.0855   -0.4561    1.1271 C   0  0  0  0  0  0  0  0  0  0  0  0
    7.1585    1.9562    0.9995 C   0  0  0  0  0  0  0  0  0  0  0  0
   -0.8967   -1.2427    2.9560 C   0  0  0  0  0  0  0  0  0  0  0  0
    0.0185   -1.2673    0.7018 C   0  0  0  0  0  0  0  0  0  0  0  0
    7.9758    2.3117   -0.0246 O   0  0  0  0  0  0  0  0  0  0  0  0
   -0.9695   -1.6696    1.6178 C   0  0  0  0  0  0  0  0  0  0  0  0
   -1.9809   -2.4710    1.2077 O   0  0  0  0  0  0  0  0  0  0  0  0
    4.1568    1.8355    4.7342 H   0  0  0  0  0  0  0  0  0  0  0  0
    2.7252   -0.0557    4.9115 H   0  0  0  0  0  0  0  0  0  0  0  0
    4.7333    0.1165    6.3916 H   0  0  0  0  0  0  0  0  0  0  0  0
    6.0534   -0.4126    5.3531 H   0  0  0  0  0  0  0  0  0  0  0  0
    2.9843    0.9981    2.0676 H   0  0  0  0  0  0  0  0  0  0  0  0
    2.6269   -1.9391    3.3566 H   0  0  0  0  0  0  0  0  0  0  0  0
    4.1204   -1.4728    2.5938 H   0  0  0  0  0  0  0  0  0  0  0  0
    5.7848    2.4279    6.4356 H   0  0  0  0  0  0  0  0  0  0  0  0
    6.7981    1.1538    7.1308 H   0  0  0  0  0  0  0  0  0  0  0  0
    7.1489    1.7670    5.5071 H   0  0  0  0  0  0  0  0  0  0  0  0
    6.3558   -0.6661    2.9175 H   0  0  0  0  0  0  0  0  0  0  0  0
    4.9337    3.3098    3.0966 H   0  0  0  0  0  0  0  0  0  0  0  0
    1.0494    2.5382    2.7459 H   0  0  0  0  0  0  0  0  0  0  0  0
    2.6031    2.9088    3.4563 H   0  0  0  0  0  0  0  0  0  0  0  0
    1.3820    2.0738    4.4258 H   0  0  0  0  0  0  0  0  0  0  0  0
    3.9855   -3.4406    4.3317 H   0  0  0  0  0  0  0  0  0  0  0  0
    3.9928   -2.1872    5.5755 H   0  0  0  0  0  0  0  0  0  0  0  0
    5.3612   -2.3586    4.4464 H   0  0  0  0  0  0  0  0  0  0  0  0
    7.7442   -0.0709    1.0602 H   0  0  0  0  0  0  0  0  0  0  0  0
    6.3271    3.8839    1.2387 H   0  0  0  0  0  0  0  0  0  0  0  0
    0.2051   -0.1413    4.3601 H   0  0  0  0  0  0  0  0  0  0  0  0
    1.7917   -0.1830    0.4397 H   0  0  0  0  0  0  0  0  0  0  0  0
   -1.6171   -1.5225    3.6252 H   0  0  0  0  0  0  0  0  0  0  0  0
   -0.0328   -1.5697   -0.2747 H   0  0  0  0  0  0  0  0  0  0  0  0
    8.7012    1.6483   -0.0220 H   0  0  0  0  0  0  0  0  0  0  0  0
   -1.7270   -3.3651    1.5199 H   0  0  0  0  0  0  0  0  0  0  0  0
  1  2  1  0  0  0  0 
  1  3  1  0  0  0  0 
  1  4  1  0  0  0  0 
  2  5  1  0  0  0  0 
  2  6  1  0  0  0  0 
  3  7  1  0  0  0  0 
  4  8  2  0  0  0  0 
  4  9  1  0  0  0  0 
  5 10  1  0  0  0  0 
  5 11  1  0  0  0  0 
  6 12  1  0  0  0  0 
  8 13  1  0  0  0  0 
  9 14  2  0  0  0  0 
 11 15  2  0  0  0  0 
 11 16  1  0  0  0  0 
 13 17  2  0  0  0  0 
 14 17  1  0  0  0  0 
 15 18  1  0  0  0  0 
 16 19  2  0  0  0  0 
 17 20  1  0  0  0  0 
 18 21  2  0  0  0  0 
 19 21  1  0  0  0  0 
 21 22  1  0  0  0  0 
  1 23  1  0  0  0  0 
  2 24  1  0  0  0  0 
  3 25  1  0  0  0  0 
  3 26  1  0  0  0  0 
  5 27  1  0  0  0  0 
  6 28  1  0  0  0  0 
  6 29  1  0  0  0  0 
  7 30  1  0  0  0  0 
  7 31  1  0  0  0  0 
  7 32  1  0  0  0  0 
  8 33  1  0  0  0  0 
  9 34  1  0  0  0  0 
 10 35  1  0  0  0  0 
 10 36  1  0  0  0  0 
 10 37  1  0  0  0  0 
 12 38  1  0  0  0  0 
 12 39  1  0  0  0  0 
 12 40  1  0  0  0  0 
 13 41  1  0  0  0  0 
 14 42  1  0  0  0  0 
 15 43  1  0  0  0  0 
 16 44  1  0  0  0  0 
 18 45  1  0  0  0  0 
 19 46  1  0  0  0  0 
 20 47  1  0  0  0  0 
 22 48  1  0  0  0  0 
M  END
> <cdk:Title>
benzestrol

> <Conformer>
1

> <SuperDrugID>
SD000268

$$$$
