mivacurium
  CDK     0628171801

154159  0  0  0  0  0  0  0  0999 V2000
   -9.0768   -8.5194   -8.2275 C   0  0  2  0  0  0  0  0  0  0  0  0
  -10.6023   -8.2953   -8.6133 C   0  0  2  0  0  0  0  0  0  0  0  0
   -8.2831   -9.4076   -9.1210 C   0  0  0  0  0  0  0  0  0  0  0  0
  -11.1798   -7.0982   -7.8650 C   0  0  0  0  0  0  0  0  0  0  0  0
  -11.4886   -9.5795   -8.5942 N   0  0  2  0  0  0  0  0  0  0  0  0
   -7.6675  -10.5820   -8.6283 C   0  0  0  0  0  0  0  0  0  0  0  0
   -8.1139   -9.0826  -10.4878 C   0  0  0  0  0  0  0  0  0  0  0  0
  -12.4782   -7.1406   -7.2807 C   0  0  0  0  0  0  0  0  0  0  0  0
  -10.4866   -5.8582   -7.7858 C   0  0  0  0  0  0  0  0  0  0  0  0
  -11.2520  -10.4110   -7.3254 C   0  0  1  0  0  0  0  0  0  0  0  0
  -11.2412  -10.4533   -9.8214 C   0  0  0  0  0  0  0  0  0  0  0  0
  -12.9392   -9.1458   -8.6997 C   0  0  1  0  0  0  0  0  0  0  0  0
   -6.9484  -11.4402   -9.4853 C   0  0  0  0  0  0  0  0  0  0  0  0
   -7.3969   -9.9317  -11.3531 C   0  0  0  0  0  0  0  0  0  0  0  0
  -12.9520   -6.0662   -6.4947 C   0  0  0  0  0  0  0  0  0  0  0  0
  -13.4029   -8.2682   -7.5154 C   0  0  2  0  0  0  0  0  0  0  0  0
  -10.9623   -4.7770   -7.0212 C   0  0  0  0  0  0  0  0  0  0  0  0
  -12.2037  -11.6006   -6.9708 C   0  0  1  0  0  0  0  0  0  0  0  0
   -6.3963  -12.5908   -8.9886 O   0  0  0  0  0  0  0  0  0  0  0  0
   -6.8436  -11.1333  -10.8593 C   0  0  0  0  0  0  0  0  0  0  0  0
   -7.2845   -9.5971  -12.6760 O   0  0  0  0  0  0  0  0  0  0  0  0
  -12.1992   -4.8875   -6.3584 C   0  0  0  0  0  0  0  0  0  0  0  0
  -10.2380   -3.6144   -6.9687 O   0  0  0  0  0  0  0  0  0  0  0  0
  -11.7502  -12.3943   -5.7193 C   0  0  2  0  0  0  0  0  0  0  0  0
   -5.0575  -12.4124   -8.4946 C   0  0  0  0  0  0  0  0  0  0  0  0
   -6.1812  -11.9843  -11.7041 O   0  0  0  0  0  0  0  0  0  0  0  0
   -6.0633   -8.8993  -12.9774 C   0  0  0  0  0  0  0  0  0  0  0  0
  -12.6717   -3.8575   -5.5898 O   0  0  0  0  0  0  0  0  0  0  0  0
   -9.3410   -3.5460   -5.8459 C   0  0  0  0  0  0  0  0  0  0  0  0
  -11.7652  -11.5718   -4.5396 O   0  0  0  0  0  0  0  0  0  0  0  0
   -7.0588  -12.9423  -12.3230 C   0  0  0  0  0  0  0  0  0  0  0  0
  -13.5581   -2.9768   -6.3039 C   0  0  0  0  0  0  0  0  0  0  0  0
  -11.3532  -11.9447   -3.2873 C   0  0  0  0  0  0  0  0  0  0  0  0
  -11.3892  -10.9755   -2.1697 C   0  0  2  0  0  0  0  0  0  0  0  0
  -10.9099  -13.0991   -3.0778 O   0  0  0  0  0  0  0  0  0  0  0  0
  -12.3159  -11.4260   -1.0032 C   0  0  1  0  0  0  0  0  0  0  0  0
  -12.3261  -10.5220    0.1441 C   0  0  0  0  0  0  0  0  0  0  0  0
  -11.2788  -10.3691    0.9752 C   0  0  0  0  0  0  0  0  0  0  0  0
  -11.3099   -9.5181    2.1632 C   0  0  2  0  0  0  0  0  0  0  0  0
   -9.9261   -9.3859    2.8644 C   0  0  1  0  0  0  0  0  0  0  0  0
   -9.9621   -8.7089    4.1822 C   0  0  0  0  0  0  0  0  0  0  0  0
  -10.5067   -9.3327    5.2801 O   0  0  0  0  0  0  0  0  0  0  0  0
   -9.4454   -7.5703    4.2911 O   0  0  0  0  0  0  0  0  0  0  0  0
  -10.5067   -8.8129    6.6275 C   0  0  2  0  0  0  0  0  0  0  0  0
  -11.3139   -9.6903    7.6374 C   0  0  2  0  0  0  0  0  0  0  0  0
  -10.4752  -10.4210    8.7474 C   0  0  2  0  0  0  0  0  0  0  0  0
  -11.1888  -11.0578    9.9598 N   0  0  1  0  0  0  0  0  0  0  0  0
  -12.3984  -11.8390    9.4762 C   0  0  0  0  0  0  0  0  0  0  0  0
  -10.2113  -11.9510   10.7912 C   0  0  2  0  0  0  0  0  0  0  0  0
  -11.6913   -9.9229   10.8424 C   0  0  1  0  0  0  0  0  0  0  0  0
   -9.9776  -13.4200   10.2193 C   0  0  2  0  0  0  0  0  0  0  0  0
  -10.4839  -12.0392   12.2879 C   0  0  0  0  0  0  0  0  0  0  0  0
  -12.3860  -10.3804   12.1498 C   0  0  1  0  0  0  0  0  0  0  0  0
   -9.2150  -13.5154    8.9465 C   0  0  0  0  0  0  0  0  0  0  0  0
  -11.5786  -11.3672   12.8969 C   0  0  0  0  0  0  0  0  0  0  0  0
   -9.6126  -12.7578   13.1535 C   0  0  0  0  0  0  0  0  0  0  0  0
   -9.8049  -14.0218    7.7650 C   0  0  0  0  0  0  0  0  0  0  0  0
   -7.8649  -13.0950    8.9013 C   0  0  0  0  0  0  0  0  0  0  0  0
  -11.8891  -11.5904   14.2594 C   0  0  0  0  0  0  0  0  0  0  0  0
   -9.9065  -12.9698   14.5133 C   0  0  0  0  0  0  0  0  0  0  0  0
   -9.0866  -14.0526    6.5532 C   0  0  0  0  0  0  0  0  0  0  0  0
   -7.1366  -13.1222    7.6971 C   0  0  0  0  0  0  0  0  0  0  0  0
  -11.0622  -12.3898   15.0692 C   0  0  0  0  0  0  0  0  0  0  0  0
   -9.0481  -13.7074   15.2875 O   0  0  0  0  0  0  0  0  0  0  0  0
   -9.6949  -14.5269    5.4216 O   0  0  0  0  0  0  0  0  0  0  0  0
   -7.7631  -13.5607    6.5100 C   0  0  0  0  0  0  0  0  0  0  0  0
   -5.8366  -12.6917    7.6829 O   0  0  0  0  0  0  0  0  0  0  0  0
  -11.3932  -12.6174   16.3783 O   0  0  0  0  0  0  0  0  0  0  0  0
   -9.3718  -15.1094   15.3326 C   0  0  0  0  0  0  0  0  0  0  0  0
   -9.4485  -15.9276    5.2031 C   0  0  0  0  0  0  0  0  0  0  0  0
   -7.0764  -13.5381    5.3256 O   0  0  0  0  0  0  0  0  0  0  0  0
   -4.8979  -13.7593    7.9078 C   0  0  0  0  0  0  0  0  0  0  0  0
  -10.8568  -11.6444   17.2919 C   0  0  0  0  0  0  0  0  0  0  0  0
   -7.2364  -12.2954    4.6182 C   0  0  0  0  0  0  0  0  0  0  0  0
   -9.0140   -8.8489   -7.1881 H   0  0  0  0  0  0  0  0  0  0  0  0
   -8.5195   -7.5868   -8.2527 H   0  0  0  0  0  0  0  0  0  0  0  0
  -10.5880   -7.9157   -9.6403 H   0  0  0  0  0  0  0  0  0  0  0  0
   -7.7431  -10.8276   -7.6379 H   0  0  0  0  0  0  0  0  0  0  0  0
   -8.5184   -8.2233  -10.8691 H   0  0  0  0  0  0  0  0  0  0  0  0
   -9.6156   -5.7145   -8.2955 H   0  0  0  0  0  0  0  0  0  0  0  0
  -10.2550  -10.8517   -7.3708 H   0  0  0  0  0  0  0  0  0  0  0  0
  -11.2437   -9.7475   -6.4566 H   0  0  0  0  0  0  0  0  0  0  0  0
  -12.0171  -11.2842   -9.8799 H   0  0  0  0  0  0  0  0  0  0  0  0
  -11.1362   -9.7998  -10.7482 H   0  0  0  0  0  0  0  0  0  0  0  0
  -10.2984  -10.9920   -9.7413 H   0  0  0  0  0  0  0  0  0  0  0  0
  -13.0890   -8.5662   -9.6199 H   0  0  0  0  0  0  0  0  0  0  0  0
  -13.6253   -9.9942   -8.7670 H   0  0  0  0  0  0  0  0  0  0  0  0
  -13.8647   -6.1249   -6.0351 H   0  0  0  0  0  0  0  0  0  0  0  0
  -14.3991   -7.8904   -7.7588 H   0  0  0  0  0  0  0  0  0  0  0  0
  -13.4945   -8.8542   -6.5998 H   0  0  0  0  0  0  0  0  0  0  0  0
  -13.2175  -11.2415   -6.7852 H   0  0  0  0  0  0  0  0  0  0  0  0
  -12.2435  -12.3026   -7.8054 H   0  0  0  0  0  0  0  0  0  0  0  0
  -10.7421  -12.7825   -5.8864 H   0  0  0  0  0  0  0  0  0  0  0  0
  -12.4234  -13.2439   -5.5763 H   0  0  0  0  0  0  0  0  0  0  0  0
   -4.6983  -13.3777   -8.1379 H   0  0  0  0  0  0  0  0  0  0  0  0
   -4.3813  -12.0686   -9.2810 H   0  0  0  0  0  0  0  0  0  0  0  0
   -5.0326  -11.7106   -7.6575 H   0  0  0  0  0  0  0  0  0  0  0  0
   -6.0642   -8.6614  -14.0417 H   0  0  0  0  0  0  0  0  0  0  0  0
   -5.9885   -7.9618  -12.4191 H   0  0  0  0  0  0  0  0  0  0  0  0
   -5.1883   -9.5207  -12.7688 H   0  0  0  0  0  0  0  0  0  0  0  0
   -8.7958   -2.6038   -5.9079 H   0  0  0  0  0  0  0  0  0  0  0  0
   -9.8864   -3.5590   -4.8991 H   0  0  0  0  0  0  0  0  0  0  0  0
   -8.6121   -4.3609   -5.8588 H   0  0  0  0  0  0  0  0  0  0  0  0
   -6.4577  -13.5900  -12.9607 H   0  0  0  0  0  0  0  0  0  0  0  0
   -7.5585  -13.5681  -11.5789 H   0  0  0  0  0  0  0  0  0  0  0  0
   -7.8099  -12.4537  -12.9493 H   0  0  0  0  0  0  0  0  0  0  0  0
  -13.8752   -2.1881   -5.6201 H   0  0  0  0  0  0  0  0  0  0  0  0
  -13.0577   -2.5091   -7.1562 H   0  0  0  0  0  0  0  0  0  0  0  0
  -14.4498   -3.5060   -6.6504 H   0  0  0  0  0  0  0  0  0  0  0  0
  -11.7328  -10.0099   -2.5485 H   0  0  0  0  0  0  0  0  0  0  0  0
  -10.3672  -10.8470   -1.8052 H   0  0  0  0  0  0  0  0  0  0  0  0
  -13.3354  -11.5117   -1.3906 H   0  0  0  0  0  0  0  0  0  0  0  0
  -12.0233  -12.4218   -0.6568 H   0  0  0  0  0  0  0  0  0  0  0  0
  -13.1581  -10.0041    0.3219 H   0  0  0  0  0  0  0  0  0  0  0  0
  -10.4506  -10.8871    0.7845 H   0  0  0  0  0  0  0  0  0  0  0  0
  -12.0318   -9.9423    2.8659 H   0  0  0  0  0  0  0  0  0  0  0  0
  -11.6533   -8.5180    1.8798 H   0  0  0  0  0  0  0  0  0  0  0  0
   -9.4915  -10.3762    3.0163 H   0  0  0  0  0  0  0  0  0  0  0  0
   -9.2557   -8.8389    2.1916 H   0  0  0  0  0  0  0  0  0  0  0  0
  -10.9493   -7.8120    6.6017 H   0  0  0  0  0  0  0  0  0  0  0  0
   -9.4721   -8.7017    6.9586 H   0  0  0  0  0  0  0  0  0  0  0  0
  -11.8763  -10.4375    7.0734 H   0  0  0  0  0  0  0  0  0  0  0  0
  -12.0441   -9.0419    8.1188 H   0  0  0  0  0  0  0  0  0  0  0  0
   -9.7251   -9.7161    9.1185 H   0  0  0  0  0  0  0  0  0  0  0  0
   -9.9096  -11.1705    8.2023 H   0  0  0  0  0  0  0  0  0  0  0  0
  -13.1969  -11.1918    9.1020 H   0  0  0  0  0  0  0  0  0  0  0  0
  -12.1413  -12.5120    8.6578 H   0  0  0  0  0  0  0  0  0  0  0  0
  -12.8333  -12.4465   10.2734 H   0  0  0  0  0  0  0  0  0  0  0  0
   -9.2359  -11.4546   10.7688 H   0  0  0  0  0  0  0  0  0  0  0  0
  -10.8562   -9.2707   11.1288 H   0  0  0  0  0  0  0  0  0  0  0  0
  -12.4095   -9.2844   10.3223 H   0  0  0  0  0  0  0  0  0  0  0  0
  -10.9349  -13.9369   10.1428 H   0  0  0  0  0  0  0  0  0  0  0  0
   -9.4018  -14.0426   10.9012 H   0  0  0  0  0  0  0  0  0  0  0  0
  -12.5342   -9.4868   12.7647 H   0  0  0  0  0  0  0  0  0  0  0  0
  -13.3728  -10.7999   11.9457 H   0  0  0  0  0  0  0  0  0  0  0  0
   -8.7383  -13.1476   12.7982 H   0  0  0  0  0  0  0  0  0  0  0  0
  -10.7690  -14.3644    7.7731 H   0  0  0  0  0  0  0  0  0  0  0  0
   -7.4010  -12.7604    9.7499 H   0  0  0  0  0  0  0  0  0  0  0  0
  -12.7132  -11.1537   14.6795 H   0  0  0  0  0  0  0  0  0  0  0  0
   -8.6236  -15.6123   15.9464 H   0  0  0  0  0  0  0  0  0  0  0  0
  -10.3503  -15.2788   15.7883 H   0  0  0  0  0  0  0  0  0  0  0  0
   -9.3500  -15.5609   14.3375 H   0  0  0  0  0  0  0  0  0  0  0  0
   -9.9868  -16.2294    4.3050 H   0  0  0  0  0  0  0  0  0  0  0  0
   -8.3857  -16.1255    5.0435 H   0  0  0  0  0  0  0  0  0  0  0  0
   -9.8110  -16.5358    6.0363 H   0  0  0  0  0  0  0  0  0  0  0  0
   -3.8924  -13.3421    7.8561 H   0  0  0  0  0  0  0  0  0  0  0  0
   -5.0292  -14.2068    8.8968 H   0  0  0  0  0  0  0  0  0  0  0  0
   -4.9832  -14.5361    7.1431 H   0  0  0  0  0  0  0  0  0  0  0  0
  -11.1689  -11.9223   18.2991 H   0  0  0  0  0  0  0  0  0  0  0  0
   -9.7643  -11.6276   17.2675 H   0  0  0  0  0  0  0  0  0  0  0  0
  -11.2424  -10.6442   17.0802 H   0  0  0  0  0  0  0  0  0  0  0  0
   -6.6699  -12.3570    3.6893 H   0  0  0  0  0  0  0  0  0  0  0  0
   -8.2847  -12.1158    4.3681 H   0  0  0  0  0  0  0  0  0  0  0  0
   -6.8486  -11.4517    5.1950 H   0  0  0  0  0  0  0  0  0  0  0  0
  1  3  1  0  0  0  0 
  2  1  1  0  0  0  0 
  2  4  1  0  0  0  0 
  2  5  1  0  0  0  0 
  3  6  2  0  0  0  0 
  3  7  1  0  0  0  0 
  4  8  2  0  0  0  0 
  4  9  1  0  0  0  0 
  5 10  1  0  0  0  0 
  5 11  1  0  0  0  0 
  5 12  1  0  0  0  0 
  6 13  1  0  0  0  0 
  7 14  2  0  0  0  0 
  8 15  1  0  0  0  0 
  8 16  1  0  0  0  0 
  9 17  2  0  0  0  0 
 10 18  1  0  0  0  0 
 12 16  1  0  0  0  0 
 13 19  1  0  0  0  0 
 13 20  2  0  0  0  0 
 14 20  1  0  0  0  0 
 14 21  1  0  0  0  0 
 15 22  2  0  0  0  0 
 17 22  1  0  0  0  0 
 17 23  1  0  0  0  0 
 18 24  1  0  0  0  0 
 19 25  1  0  0  0  0 
 20 26  1  0  0  0  0 
 21 27  1  0  0  0  0 
 22 28  1  0  0  0  0 
 23 29  1  0  0  0  0 
 24 30  1  0  0  0  0 
 26 31  1  0  0  0  0 
 28 32  1  0  0  0  0 
 30 33  1  0  0  0  0 
 33 34  1  0  0  0  0 
 33 35  2  0  0  0  0 
 34 36  1  0  0  0  0 
 36 37  1  0  0  0  0 
 37 38  2  0  0  0  0 
 38 39  1  0  0  0  0 
 39 40  1  0  0  0  0 
 40 41  1  0  0  0  0 
 41 42  1  0  0  0  0 
 41 43  2  0  0  0  0 
 42 44  1  0  0  0  0 
 44 45  1  0  0  0  0 
 45 46  1  0  0  0  0 
 46 47  1  0  0  0  0 
 47 48  1  0  0  0  0 
 49 47  1  0  0  0  0 
 47 50  1  0  0  0  0 
 49 51  1  0  0  0  0 
 49 52  1  0  0  0  0 
 50 53  1  0  0  0  0 
 51 54  1  0  0  0  0 
 52 55  2  0  0  0  0 
 52 56  1  0  0  0  0 
 53 55  1  0  0  0  0 
 54 57  2  0  0  0  0 
 54 58  1  0  0  0  0 
 55 59  1  0  0  0  0 
 56 60  2  0  0  0  0 
 57 61  1  0  0  0  0 
 58 62  2  0  0  0  0 
 59 63  2  0  0  0  0 
 60 63  1  0  0  0  0 
 60 64  1  0  0  0  0 
 61 65  1  0  0  0  0 
 61 66  2  0  0  0  0 
 62 66  1  0  0  0  0 
 62 67  1  0  0  0  0 
 63 68  1  0  0  0  0 
 64 69  1  0  0  0  0 
 65 70  1  0  0  0  0 
 66 71  1  0  0  0  0 
 67 72  1  0  0  0  0 
 68 73  1  0  0  0  0 
 71 74  1  0  0  0  0 
  1 75  1  0  0  0  0 
  1 76  1  0  0  0  0 
  2 77  1  0  0  0  0 
  6 78  1  0  0  0  0 
  7 79  1  0  0  0  0 
  9 80  1  0  0  0  0 
 10 81  1  0  0  0  0 
 10 82  1  0  0  0  0 
 11 83  1  0  0  0  0 
 11 84  1  0  0  0  0 
 11 85  1  0  0  0  0 
 12 86  1  0  0  0  0 
 12 87  1  0  0  0  0 
 15 88  1  0  0  0  0 
 16 89  1  0  0  0  0 
 16 90  1  0  0  0  0 
 18 91  1  0  0  0  0 
 18 92  1  0  0  0  0 
 24 93  1  0  0  0  0 
 24 94  1  0  0  0  0 
 25 95  1  0  0  0  0 
 25 96  1  0  0  0  0 
 25 97  1  0  0  0  0 
 27 98  1  0  0  0  0 
 27 99  1  0  0  0  0 
 27100  1  0  0  0  0 
 29101  1  0  0  0  0 
 29102  1  0  0  0  0 
 29103  1  0  0  0  0 
 31104  1  0  0  0  0 
 31105  1  0  0  0  0 
 31106  1  0  0  0  0 
 32107  1  0  0  0  0 
 32108  1  0  0  0  0 
 32109  1  0  0  0  0 
 34110  1  0  0  0  0 
 34111  1  0  0  0  0 
 36112  1  0  0  0  0 
 36113  1  0  0  0  0 
 37114  1  0  0  0  0 
 38115  1  0  0  0  0 
 39116  1  0  0  0  0 
 39117  1  0  0  0  0 
 40118  1  0  0  0  0 
 40119  1  0  0  0  0 
 44120  1  0  0  0  0 
 44121  1  0  0  0  0 
 45122  1  0  0  0  0 
 45123  1  0  0  0  0 
 46124  1  0  0  0  0 
 46125  1  0  0  0  0 
 48126  1  0  0  0  0 
 48127  1  0  0  0  0 
 48128  1  0  0  0  0 
 49129  1  0  0  0  0 
 50130  1  0  0  0  0 
 50131  1  0  0  0  0 
 51132  1  0  0  0  0 
 51133  1  0  0  0  0 
 53134  1  0  0  0  0 
 53135  1  0  0  0  0 
 56136  1  0  0  0  0 
 57137  1  0  0  0  0 
 58138  1  0  0  0  0 
 59139  1  0  0  0  0 
 69140  1  0  0  0  0 
 69141  1  0  0  0  0 
 69142  1  0  0  0  0 
 70143  1  0  0  0  0 
 70144  1  0  0  0  0 
 70145  1  0  0  0  0 
 72146  1  0  0  0  0 
 72147  1  0  0  0  0 
 72148  1  0  0  0  0 
 73149  1  0  0  0  0 
 73150  1  0  0  0  0 
 73151  1  0  0  0  0 
 74152  1  0  0  0  0 
 74153  1  0  0  0  0 
 74154  1  0  0  0  0 
M  CHG  1   5   1
M  CHG  1  47   1
M  END
> <cdk:Title>
mivacurium

> <Conformer>
1

> <SuperDrugID>
SD001621

$$$$
