anisindione
  CDK     0628171801

 31 33  0  0  0  0  0  0  0  0999 V2000
    0.2745    4.7035    1.4264 O   0  0  0  0  0  0  0  0  0  0  0  0
    0.9867    4.7329    0.3970 C   0  0  0  0  0  0  0  0  0  0  0  0
    2.0116    3.7177    0.0572 C   0  0  2  0  0  0  0  0  0  0  0  0
    0.9475    5.7401   -0.5714 C   0  0  0  0  0  0  0  0  0  0  0  0
    2.5772    4.2900   -1.1809 C   0  0  0  0  0  0  0  0  0  0  0  0
    1.4798    2.3390   -0.1843 C   0  0  0  0  0  0  0  0  0  0  0  0
    1.9226    5.4675   -1.5298 C   0  0  0  0  0  0  0  0  0  0  0  0
    0.1282    6.8811   -0.6825 C   0  0  0  0  0  0  0  0  0  0  0  0
    3.5209    3.7818   -1.8288 O   0  0  0  0  0  0  0  0  0  0  0  0
    0.3691    2.1075   -1.0355 C   0  0  0  0  0  0  0  0  0  0  0  0
    2.1128    1.2161    0.4004 C   0  0  0  0  0  0  0  0  0  0  0  0
    2.1286    6.3237   -2.6270 C   0  0  0  0  0  0  0  0  0  0  0  0
    0.3267    7.7520   -1.7766 C   0  0  0  0  0  0  0  0  0  0  0  0
   -0.0955    0.8026   -1.2852 C   0  0  0  0  0  0  0  0  0  0  0  0
    1.6595   -0.0906    0.1387 C   0  0  0  0  0  0  0  0  0  0  0  0
    1.3240    7.4759   -2.7411 C   0  0  0  0  0  0  0  0  0  0  0  0
    0.5477   -0.3036   -0.6990 C   0  0  0  0  0  0  0  0  0  0  0  0
    0.1229   -1.5752   -0.9766 O   0  0  0  0  0  0  0  0  0  0  0  0
   -0.7870   -2.1048    0.0030 C   0  0  0  0  0  0  0  0  0  0  0  0
    2.7866    3.7276    0.8321 H   0  0  0  0  0  0  0  0  0  0  0  0
   -0.5995    7.0750    0.0105 H   0  0  0  0  0  0  0  0  0  0  0  0
   -0.1094    2.8910   -1.4863 H   0  0  0  0  0  0  0  0  0  0  0  0
    2.9204    1.3388    1.0150 H   0  0  0  0  0  0  0  0  0  0  0  0
    2.8505    6.1190   -3.3230 H   0  0  0  0  0  0  0  0  0  0  0  0
   -0.2565    8.5866   -1.8757 H   0  0  0  0  0  0  0  0  0  0  0  0
   -0.9000    0.6590   -1.8994 H   0  0  0  0  0  0  0  0  0  0  0  0
    2.1410   -0.8891    0.5577 H   0  0  0  0  0  0  0  0  0  0  0  0
    1.4648    8.1153   -3.5266 H   0  0  0  0  0  0  0  0  0  0  0  0
   -1.0048   -3.1402   -0.2632 H   0  0  0  0  0  0  0  0  0  0  0  0
   -0.3462   -2.0983    1.0033 H   0  0  0  0  0  0  0  0  0  0  0  0
   -1.7284   -1.5489    0.0124 H   0  0  0  0  0  0  0  0  0  0  0  0
  1  2  2  0  0  0  0 
  2  3  1  0  0  0  0 
  2  4  1  0  0  0  0 
  3  5  1  0  0  0  0 
  3  6  1  0  0  0  0 
  4  7  2  0  0  0  0 
  4  8  1  0  0  0  0 
  5  7  1  0  0  0  0 
  5  9  2  0  0  0  0 
  6 10  2  0  0  0  0 
  6 11  1  0  0  0  0 
  7 12  1  0  0  0  0 
  8 13  2  0  0  0  0 
 10 14  1  0  0  0  0 
 11 15  2  0  0  0  0 
 12 16  2  0  0  0  0 
 13 16  1  0  0  0  0 
 14 17  2  0  0  0  0 
 15 17  1  0  0  0  0 
 17 18  1  0  0  0  0 
 18 19  1  0  0  0  0 
  3 20  1  0  0  0  0 
  8 21  1  0  0  0  0 
 10 22  1  0  0  0  0 
 11 23  1  0  0  0  0 
 12 24  1  0  0  0  0 
 13 25  1  0  0  0  0 
 14 26  1  0  0  0  0 
 15 27  1  0  0  0  0 
 16 28  1  0  0  0  0 
 19 29  1  0  0  0  0 
 19 30  1  0  0  0  0 
 19 31  1  0  0  0  0 
M  END
> <cdk:Title>
anisindione

> <Conformer>
1

> <SuperDrugID>
SD000184

$$$$
