palmidrol
  CDK     0628171801

 58 57  0  0  0  0  0  0  0  0999 V2000
    0.5219   -0.7606    4.5040 C   0  0  2  0  0  0  0  0  0  0  0  0
    0.8755   -1.2423    5.9368 C   0  0  2  0  0  0  0  0  0  0  0  0
    1.7725   -0.5807    3.5989 C   0  0  1  0  0  0  0  0  0  0  0  0
   -0.3816   -1.4465    6.8229 C   0  0  1  0  0  0  0  0  0  0  0  0
    1.4486   -0.0583    2.2537 C   0  0  0  0  0  0  0  0  0  0  0  0
   -0.0143   -1.9225    8.2530 C   0  0  1  0  0  0  0  0  0  0  0  0
    0.6074   -0.7629    1.4522 N   0  0  0  0  0  0  0  0  0  0  0  0
    1.9689    1.0154    1.8654 O   0  0  0  0  0  0  0  0  0  0  0  0
   -1.2571   -2.1276    9.1540 C   0  0  2  0  0  0  0  0  0  0  0  0
    0.2496   -0.4175    0.1145 C   0  0  2  0  0  0  0  0  0  0  0  0
   -0.8689   -2.6014   10.5792 C   0  0  2  0  0  0  0  0  0  0  0  0
   -0.9120   -1.3240   -0.3469 C   0  0  2  0  0  0  0  0  0  0  0  0
   -2.1118   -2.8065   11.4816 C   0  0  1  0  0  0  0  0  0  0  0  0
   -1.2849   -1.0449   -1.6891 O   0  0  0  0  0  0  0  0  0  0  0  0
   -1.7334   -3.2803   12.9085 C   0  0  2  0  0  0  0  0  0  0  0  0
   -2.9812   -3.4845   13.8087 C   0  0  2  0  0  0  0  0  0  0  0  0
   -2.6083   -3.9588   15.2383 C   0  0  2  0  0  0  0  0  0  0  0  0
   -3.8473   -4.1674   16.1509 C   0  0  1  0  0  0  0  0  0  0  0  0
   -3.4588   -4.6420   17.5779 C   0  0  1  0  0  0  0  0  0  0  0  0
   -4.6907   -4.8538   18.4990 C   0  0  2  0  0  0  0  0  0  0  0  0
   -4.3070   -5.3261   19.9202 C   0  0  0  0  0  0  0  0  0  0  0  0
   -0.0109    0.1922    4.5736 H   0  0  0  0  0  0  0  0  0  0  0  0
   -0.1484   -1.4939    4.0475 H   0  0  0  0  0  0  0  0  0  0  0  0
    1.5305   -0.5051    6.4108 H   0  0  0  0  0  0  0  0  0  0  0  0
    1.4194   -2.1887    5.8679 H   0  0  0  0  0  0  0  0  0  0  0  0
    2.4771    0.0940    4.0930 H   0  0  0  0  0  0  0  0  0  0  0  0
    2.2770   -1.5413    3.4725 H   0  0  0  0  0  0  0  0  0  0  0  0
   -0.9322   -0.5038    6.8917 H   0  0  0  0  0  0  0  0  0  0  0  0
   -1.0355   -2.1904    6.3578 H   0  0  0  0  0  0  0  0  0  0  0  0
    0.5333   -2.8669    8.1840 H   0  0  0  0  0  0  0  0  0  0  0  0
    0.6405   -1.1790    8.7163 H   0  0  0  0  0  0  0  0  0  0  0  0
    0.2409   -1.5872    1.8091 H   0  0  0  0  0  0  0  0  0  0  0  0
   -1.9146   -2.8727    8.6965 H   0  0  0  0  0  0  0  0  0  0  0  0
   -1.8069   -1.1847    9.2283 H   0  0  0  0  0  0  0  0  0  0  0  0
    1.1088   -0.5746   -0.5416 H   0  0  0  0  0  0  0  0  0  0  0  0
   -0.0507    0.6324    0.0583 H   0  0  0  0  0  0  0  0  0  0  0  0
   -0.2119   -1.8567   11.0378 H   0  0  0  0  0  0  0  0  0  0  0  0
   -0.3195   -3.5444   10.5061 H   0  0  0  0  0  0  0  0  0  0  0  0
   -1.7866   -1.1651    0.2893 H   0  0  0  0  0  0  0  0  0  0  0  0
   -0.6132   -2.3728   -0.2812 H   0  0  0  0  0  0  0  0  0  0  0  0
   -2.6597   -1.8625   11.5518 H   0  0  0  0  0  0  0  0  0  0  0  0
   -2.7673   -3.5505   11.0199 H   0  0  0  0  0  0  0  0  0  0  0  0
   -2.0432   -1.6454   -1.8536 H   0  0  0  0  0  0  0  0  0  0  0  0
   -1.0766   -2.5360   13.3681 H   0  0  0  0  0  0  0  0  0  0  0  0
   -1.1841   -4.2235   12.8364 H   0  0  0  0  0  0  0  0  0  0  0  0
   -3.6360   -4.2271   13.3441 H   0  0  0  0  0  0  0  0  0  0  0  0
   -3.5285   -2.5399   13.8758 H   0  0  0  0  0  0  0  0  0  0  0  0
   -1.9512   -3.2145   15.6967 H   0  0  0  0  0  0  0  0  0  0  0  0
   -2.0587   -4.9013   15.1651 H   0  0  0  0  0  0  0  0  0  0  0  0
   -4.3977   -3.2253   16.2252 H   0  0  0  0  0  0  0  0  0  0  0  0
   -4.5051   -4.9119   15.6936 H   0  0  0  0  0  0  0  0  0  0  0  0
   -2.9070   -5.5831   17.5009 H   0  0  0  0  0  0  0  0  0  0  0  0
   -2.7996   -3.8969   18.0323 H   0  0  0  0  0  0  0  0  0  0  0  0
   -5.3528   -5.6007   18.0530 H   0  0  0  0  0  0  0  0  0  0  0  0
   -5.2454   -3.9156   18.5840 H   0  0  0  0  0  0  0  0  0  0  0  0
   -5.2089   -5.4583   20.5218 H   0  0  0  0  0  0  0  0  0  0  0  0
   -3.7768   -6.2795   19.8760 H   0  0  0  0  0  0  0  0  0  0  0  0
   -3.6690   -4.5874   20.4093 H   0  0  0  0  0  0  0  0  0  0  0  0
  1  2  1  0  0  0  0 
  1  3  1  0  0  0  0 
  2  4  1  0  0  0  0 
  3  5  1  0  0  0  0 
  4  6  1  0  0  0  0 
  5  7  1  0  0  0  0 
  5  8  2  0  0  0  0 
  6  9  1  0  0  0  0 
  7 10  1  0  0  0  0 
  9 11  1  0  0  0  0 
 10 12  1  0  0  0  0 
 11 13  1  0  0  0  0 
 12 14  1  0  0  0  0 
 13 15  1  0  0  0  0 
 15 16  1  0  0  0  0 
 16 17  1  0  0  0  0 
 17 18  1  0  0  0  0 
 18 19  1  0  0  0  0 
 19 20  1  0  0  0  0 
 20 21  1  0  0  0  0 
  1 22  1  0  0  0  0 
  1 23  1  0  0  0  0 
  2 24  1  0  0  0  0 
  2 25  1  0  0  0  0 
  3 26  1  0  0  0  0 
  3 27  1  0  0  0  0 
  4 28  1  0  0  0  0 
  4 29  1  0  0  0  0 
  6 30  1  0  0  0  0 
  6 31  1  0  0  0  0 
  7 32  1  0  0  0  0 
  9 33  1  0  0  0  0 
  9 34  1  0  0  0  0 
 10 35  1  0  0  0  0 
 10 36  1  0  0  0  0 
 11 37  1  0  0  0  0 
 11 38  1  0  0  0  0 
 12 39  1  0  0  0  0 
 12 40  1  0  0  0  0 
 13 41  1  0  0  0  0 
 13 42  1  0  0  0  0 
 14 43  1  0  0  0  0 
 15 44  1  0  0  0  0 
 15 45  1  0  0  0  0 
 16 46  1  0  0  0  0 
 16 47  1  0  0  0  0 
 17 48  1  0  0  0  0 
 17 49  1  0  0  0  0 
 18 50  1  0  0  0  0 
 18 51  1  0  0  0  0 
 19 52  1  0  0  0  0 
 19 53  1  0  0  0  0 
 20 54  1  0  0  0  0 
 20 55  1  0  0  0  0 
 21 56  1  0  0  0  0 
 21 57  1  0  0  0  0 
 21 58  1  0  0  0  0 
M  END
> <cdk:Title>
palmidrol

> <Conformer>
1

> <SuperDrugID>
SD001832

$$$$
