podophyllotoxin
  CDK     0628171801

 52 56  0  0  0  0  0  0  0  0999 V2000
    1.0022    3.8081    4.2830 O   0  0  0  0  0  0  0  0  0  0  0  0
    2.0388    3.2979    4.7616 C   0  0  0  0  0  0  0  0  0  0  0  0
    3.3360    3.2103    4.0822 C   0  0  2  0  0  0  0  0  0  0  0  0
    2.1366    2.8836    6.0501 O   0  0  0  0  0  0  0  0  0  0  0  0
    3.5007    2.8958    2.5584 C   0  0  1  0  0  0  0  0  0  0  0  0
    4.0137    2.1211    4.9361 C   0  0  2  0  0  0  0  0  0  0  0  0
    3.4345    2.3598    6.3474 C   0  0  2  0  0  0  0  0  0  0  0  0
    4.9295    2.5240    2.2362 C   0  0  0  0  0  0  0  0  0  0  0  0
    2.5059    1.9101    2.0071 C   0  0  0  0  0  0  0  0  0  0  0  0
    5.5470    2.1863    4.7143 C   0  0  2  0  0  0  0  0  0  0  0  0
    5.8900    2.1824    3.2513 C   0  0  0  0  0  0  0  0  0  0  0  0
    5.3262    2.5016    0.8737 C   0  0  0  0  0  0  0  0  0  0  0  0
    1.2825    2.3747    1.4682 C   0  0  0  0  0  0  0  0  0  0  0  0
    2.7473    0.5137    1.9807 C   0  0  0  0  0  0  0  0  0  0  0  0
    6.1342    1.0814    5.4017 O   0  0  0  0  0  0  0  0  0  0  0  0
    7.2151    1.8540    2.8665 C   0  0  0  0  0  0  0  0  0  0  0  0
    6.6422    2.1581    0.5339 C   0  0  0  0  0  0  0  0  0  0  0  0
    0.3361    1.4880    0.9191 C   0  0  0  0  0  0  0  0  0  0  0  0
    1.8245   -0.3827    1.4053 C   0  0  0  0  0  0  0  0  0  0  0  0
    7.5667    1.8365    1.5095 C   0  0  0  0  0  0  0  0  0  0  0  0
    7.1751    2.1037   -0.7003 O   0  0  0  0  0  0  0  0  0  0  0  0
   -0.8537    1.9750    0.4492 O   0  0  0  0  0  0  0  0  0  0  0  0
    0.6263    0.1087    0.8445 C   0  0  0  0  0  0  0  0  0  0  0  0
    2.1096   -1.7210    1.3640 O   0  0  0  0  0  0  0  0  0  0  0  0
    8.7686    1.5338    0.9846 O   0  0  0  0  0  0  0  0  0  0  0  0
    8.5041    1.6179   -0.4290 C   0  0  2  0  0  0  0  0  0  0  0  0
   -1.8619    2.0287    1.4757 C   0  0  0  0  0  0  0  0  0  0  0  0
   -0.2695   -0.7544    0.2683 O   0  0  0  0  0  0  0  0  0  0  0  0
    1.7341   -2.4101    2.5694 C   0  0  0  0  0  0  0  0  0  0  0  0
   -0.0818   -0.9030   -1.1512 C   0  0  0  0  0  0  0  0  0  0  0  0
    3.8184    4.1795    4.2723 H   0  0  0  0  0  0  0  0  0  0  0  0
    3.6657    1.1295    4.6181 H   0  0  0  0  0  0  0  0  0  0  0  0
    3.3291    3.8560    2.0558 H   0  0  0  0  0  0  0  0  0  0  0  0
    3.3598    1.4260    6.9102 H   0  0  0  0  0  0  0  0  0  0  0  0
    4.0160    3.0934    6.9117 H   0  0  0  0  0  0  0  0  0  0  0  0
    5.9491    3.1064    5.1506 H   0  0  0  0  0  0  0  0  0  0  0  0
    4.6652    2.7327    0.1297 H   0  0  0  0  0  0  0  0  0  0  0  0
    1.0637    3.3738    1.4807 H   0  0  0  0  0  0  0  0  0  0  0  0
    3.6109    0.1330    2.3711 H   0  0  0  0  0  0  0  0  0  0  0  0
    5.9292    1.2375    6.3481 H   0  0  0  0  0  0  0  0  0  0  0  0
    7.9261    1.6243    3.5633 H   0  0  0  0  0  0  0  0  0  0  0  0
    9.2353    2.2847   -0.8908 H   0  0  0  0  0  0  0  0  0  0  0  0
    8.6191    0.6278   -0.8769 H   0  0  0  0  0  0  0  0  0  0  0  0
   -2.7774    2.4192    1.0322 H   0  0  0  0  0  0  0  0  0  0  0  0
   -2.0759    1.0346    1.8782 H   0  0  0  0  0  0  0  0  0  0  0  0
   -1.5688    2.6961    2.2914 H   0  0  0  0  0  0  0  0  0  0  0  0
    1.9849   -3.4629    2.4460 H   0  0  0  0  0  0  0  0  0  0  0  0
    2.2817   -2.0312    3.4363 H   0  0  0  0  0  0  0  0  0  0  0  0
    0.6598   -2.3349    2.7557 H   0  0  0  0  0  0  0  0  0  0  0  0
   -0.8332   -1.6012   -1.5207 H   0  0  0  0  0  0  0  0  0  0  0  0
   -0.2152    0.0468   -1.6758 H   0  0  0  0  0  0  0  0  0  0  0  0
    0.9048   -1.3118   -1.3835 H   0  0  0  0  0  0  0  0  0  0  0  0
  1  2  2  0  0  0  0 
  3  2  1  0  0  0  0 
  2  4  1  0  0  0  0 
  3  5  1  0  0  0  0 
  6  3  1  0  0  0  0 
  3 31  1  0  0  0  0 
  4  7  1  0  0  0  0 
  5  8  1  0  0  0  0 
  5  9  1  0  0  0  0 
  6  7  1  0  0  0  0 
 10  6  1  0  0  0  0 
  6 32  1  0  0  0  0 
  8 11  2  0  0  0  0 
  8 12  1  0  0  0  0 
  9 13  2  0  0  0  0 
  9 14  1  0  0  0  0 
 10 11  1  0  0  0  0 
 10 15  1  0  0  0  0 
 11 16  1  0  0  0  0 
 12 17  2  0  0  0  0 
 13 18  1  0  0  0  0 
 14 19  2  0  0  0  0 
 16 20  2  0  0  0  0 
 17 20  1  0  0  0  0 
 17 21  1  0  0  0  0 
 18 22  1  0  0  0  0 
 18 23  2  0  0  0  0 
 19 23  1  0  0  0  0 
 19 24  1  0  0  0  0 
 20 25  1  0  0  0  0 
 21 26  1  0  0  0  0 
 22 27  1  0  0  0  0 
 23 28  1  0  0  0  0 
 24 29  1  0  0  0  0 
 25 26  1  0  0  0  0 
 28 30  1  0  0  0  0 
  5 33  1  0  0  0  0 
  7 34  1  0  0  0  0 
  7 35  1  0  0  0  0 
 10 36  1  0  0  0  0 
 12 37  1  0  0  0  0 
 13 38  1  0  0  0  0 
 14 39  1  0  0  0  0 
 15 40  1  0  0  0  0 
 16 41  1  0  0  0  0 
 26 42  1  0  0  0  0 
 26 43  1  0  0  0  0 
 27 44  1  0  0  0  0 
 27 45  1  0  0  0  0 
 27 46  1  0  0  0  0 
 29 47  1  0  0  0  0 
 29 48  1  0  0  0  0 
 29 49  1  0  0  0  0 
 30 50  1  0  0  0  0 
 30 51  1  0  0  0  0 
 30 52  1  0  0  0  0 
M  END
> <cdk:Title>
podophyllotoxin

> <Conformer>
1

> <SuperDrugID>
SD003002

$$$$
