taurine
  CDK     0628171801

 14 13  0  0  0  0  0  0  0  0999 V2000
   -0.4687   -1.2412    1.2501 C   0  0  1  0  0  0  0  0  0  0  0  0
   -2.0589   -2.0268    0.8005 S   0  0  1  0  0  0  0  0  0  0  0  0
    0.1625   -0.5149    0.0442 C   0  0  1  0  0  0  0  0  0  0  0  0
   -3.1146   -0.9242    0.3139 O   0  0  0  0  0  0  0  0  0  0  0  0
   -1.8352   -3.1166   -0.3524 O   0  0  0  0  0  0  0  0  0  0  0  0
   -2.6946   -2.8181    2.1747 O   0  0  0  0  0  0  0  0  0  0  0  0
    1.4288    0.1250    0.4129 N   0  0  1  0  0  0  0  0  0  0  0  0
   -0.6491   -0.5298    2.0585 H   0  0  0  0  0  0  0  0  0  0  0  0
    0.2123   -2.0149    1.6102 H   0  0  0  0  0  0  0  0  0  0  0  0
    0.3587   -1.2276   -0.7589 H   0  0  0  0  0  0  0  0  0  0  0  0
   -0.5166    0.2556   -0.3255 H   0  0  0  0  0  0  0  0  0  0  0  0
   -2.8174   -2.1068    2.8364 H   0  0  0  0  0  0  0  0  0  0  0  0
    2.0700   -0.6206    0.6905 H   0  0  0  0  0  0  0  0  0  0  0  0
    1.8097    0.5357   -0.4425 H   0  0  0  0  0  0  0  0  0  0  0  0
  1  2  1  0  0  0  0 
  1  3  1  0  0  0  0 
  2  4  2  0  0  0  0 
  2  5  2  0  0  0  0 
  2  6  1  0  0  0  0 
  3  7  1  0  0  0  0 
  1  8  1  0  0  0  0 
  1  9  1  0  0  0  0 
  3 10  1  0  0  0  0 
  3 11  1  0  0  0  0 
  6 12  1  0  0  0  0 
  7 13  1  0  0  0  0 
  7 14  1  0  0  0  0 
M  END
> <cdk:Title>
taurine

> <Conformer>
1

> <SuperDrugID>
SD003593

$$$$
