acetylleucine
  CDK     0628171802

 27 26  0  0  0  0  0  0  0  0999 V2000
   -1.6497   -1.5387    0.2916 C   0  0  1  0  0  0  0  0  0  0  0  0
   -1.8271   -3.0809    0.4426 C   0  0  2  0  0  0  0  0  0  0  0  0
   -0.2999   -1.2052   -0.0544 N   0  0  0  0  0  0  0  0  0  0  0  0
   -2.5776   -1.0148   -0.7409 C   0  0  0  0  0  0  0  0  0  0  0  0
   -0.8954   -3.7918    1.4800 C   0  0  1  0  0  0  0  0  0  0  0  0
    0.2360    0.0474   -0.0276 C   0  0  0  0  0  0  0  0  0  0  0  0
   -2.4275   -1.3620   -2.0416 O   0  0  0  0  0  0  0  0  0  0  0  0
   -3.5069   -0.2335   -0.4333 O   0  0  0  0  0  0  0  0  0  0  0  0
   -1.0555   -3.2457    2.9271 C   0  0  0  0  0  0  0  0  0  0  0  0
   -1.1282   -5.3299    1.4585 C   0  0  0  0  0  0  0  0  0  0  0  0
    1.6347    0.2310   -0.4432 C   0  0  0  0  0  0  0  0  0  0  0  0
   -0.4364    1.0420    0.3347 O   0  0  0  0  0  0  0  0  0  0  0  0
   -1.8914   -1.0710    1.2521 H   0  0  0  0  0  0  0  0  0  0  0  0
   -1.6536   -3.5396   -0.5353 H   0  0  0  0  0  0  0  0  0  0  0  0
   -2.8673   -3.2814    0.7151 H   0  0  0  0  0  0  0  0  0  0  0  0
    0.2762   -1.9274   -0.3499 H   0  0  0  0  0  0  0  0  0  0  0  0
    0.1437   -3.6258    1.1783 H   0  0  0  0  0  0  0  0  0  0  0  0
   -3.0334   -1.0034   -2.7224 H   0  0  0  0  0  0  0  0  0  0  0  0
   -0.7518   -2.1993    2.9821 H   0  0  0  0  0  0  0  0  0  0  0  0
   -0.4218   -3.8063    3.6185 H   0  0  0  0  0  0  0  0  0  0  0  0
   -2.0933   -3.3304    3.2574 H   0  0  0  0  0  0  0  0  0  0  0  0
   -0.9719   -5.7287    0.4531 H   0  0  0  0  0  0  0  0  0  0  0  0
   -0.4272   -5.8312    2.1302 H   0  0  0  0  0  0  0  0  0  0  0  0
   -2.1464   -5.5721    1.7742 H   0  0  0  0  0  0  0  0  0  0  0  0
    1.9088    1.2884   -0.4406 H   0  0  0  0  0  0  0  0  0  0  0  0
    2.2947   -0.3027    0.2421 H   0  0  0  0  0  0  0  0  0  0  0  0
    1.7756   -0.1617   -1.4516 H   0  0  0  0  0  0  0  0  0  0  0  0
  1  2  1  0  0  0  0 
  1  3  1  0  0  0  0 
  1  4  1  0  0  0  0 
  2  5  1  0  0  0  0 
  3  6  1  0  0  0  0 
  4  7  1  0  0  0  0 
  4  8  2  0  0  0  0 
  5  9  1  0  0  0  0 
  5 10  1  0  0  0  0 
  6 11  1  0  0  0  0 
  6 12  2  0  0  0  0 
  1 13  1  0  0  0  0 
  2 14  1  0  0  0  0 
  2 15  1  0  0  0  0 
  3 16  1  0  0  0  0 
  5 17  1  0  0  0  0 
  7 18  1  0  0  0  0 
  9 19  1  0  0  0  0 
  9 20  1  0  0  0  0 
  9 21  1  0  0  0  0 
 10 22  1  0  0  0  0 
 10 23  1  0  0  0  0 
 10 24  1  0  0  0  0 
 11 25  1  0  0  0  0 
 11 26  1  0  0  0  0 
 11 27  1  0  0  0  0 
M  END
> <cdk:Title>
acetylleucine

> <Conformer>
1

> <SuperDrugID>
SD000048

$$$$
