difemetorex
  CDK     0628171801

 47 49  0  0  0  0  0  0  0  0999 V2000
    1.4212    4.1920   -0.0677 C   0  0  0  0  0  0  0  0  0  0  0  0
    2.7950    4.0612    0.1926 C   0  0  0  0  0  0  0  0  0  0  0  0
    3.2289    3.6023    1.4473 C   0  0  0  0  0  0  0  0  0  0  0  0
    2.2861    3.2745    2.4379 C   0  0  0  0  0  0  0  0  0  0  0  0
    0.8916    3.3951    2.2008 C   0  0  0  0  0  0  0  0  0  0  0  0
    0.4809    3.8756    0.9307 C   0  0  0  0  0  0  0  0  0  0  0  0
   -0.0783    3.0701    3.3054 C   0  0  2  0  0  0  0  0  0  0  0  0
   -1.4210    2.3081    2.9323 C   0  0  1  0  0  0  0  0  0  0  0  0
   -0.2883    4.3538    4.0621 C   0  0  0  0  0  0  0  0  0  0  0  0
   -1.0078    5.4393    3.4977 C   0  0  0  0  0  0  0  0  0  0  0  0
   -1.2433    6.6138    4.2348 C   0  0  0  0  0  0  0  0  0  0  0  0
   -0.7636    6.7252    5.5507 C   0  0  0  0  0  0  0  0  0  0  0  0
   -0.0412    5.6662    6.1255 C   0  0  0  0  0  0  0  0  0  0  0  0
    0.1983    4.4946    5.3862 C   0  0  0  0  0  0  0  0  0  0  0  0
   -1.3077    0.8552    2.5010 N   0  0  0  0  0  0  0  0  0  0  0  0
   -2.6100    0.2335    2.0871 C   0  0  2  0  0  0  0  0  0  0  0  0
   -3.5983    0.2309    3.2743 C   0  0  2  0  0  0  0  0  0  0  0  0
   -3.7692    1.6450    3.8679 C   0  0  1  0  0  0  0  0  0  0  0  0
   -2.4029    2.3077    4.1623 C   0  0  1  0  0  0  0  0  0  0  0  0
   -0.1083    0.3123    1.7873 C   0  0  2  0  0  0  0  0  0  0  0  0
   -0.1179    0.4949    0.2492 C   0  0  1  0  0  0  0  0  0  0  0  0
    1.1769    0.2708   -0.2981 O   0  0  0  0  0  0  0  0  0  0  0  0
   -1.9154    2.8662    2.1338 H   0  0  0  0  0  0  0  0  0  0  0  0
    1.1047    4.5200   -0.9823 H   0  0  0  0  0  0  0  0  0  0  0  0
    3.4782    4.3035   -0.5279 H   0  0  0  0  0  0  0  0  0  0  0  0
    4.2293    3.5095    1.6419 H   0  0  0  0  0  0  0  0  0  0  0  0
    2.6311    2.9541    3.3455 H   0  0  0  0  0  0  0  0  0  0  0  0
   -0.5089    3.9976    0.7124 H   0  0  0  0  0  0  0  0  0  0  0  0
    0.4259    2.3623    3.9737 H   0  0  0  0  0  0  0  0  0  0  0  0
   -1.3792    5.3797    2.5479 H   0  0  0  0  0  0  0  0  0  0  0  0
   -1.7693    7.3838    3.8156 H   0  0  0  0  0  0  0  0  0  0  0  0
   -0.9432    7.5733    6.0909 H   0  0  0  0  0  0  0  0  0  0  0  0
    0.3060    5.7442    7.0834 H   0  0  0  0  0  0  0  0  0  0  0  0
    0.7257    3.7381    5.8287 H   0  0  0  0  0  0  0  0  0  0  0  0
   -2.4786   -0.8054    1.7735 H   0  0  0  0  0  0  0  0  0  0  0  0
   -3.0418    0.7789    1.2427 H   0  0  0  0  0  0  0  0  0  0  0  0
   -3.2138   -0.4379    4.0483 H   0  0  0  0  0  0  0  0  0  0  0  0
   -4.5716   -0.1486    2.9497 H   0  0  0  0  0  0  0  0  0  0  0  0
   -4.3322    2.2701    3.1701 H   0  0  0  0  0  0  0  0  0  0  0  0
   -4.3451    1.5765    4.7955 H   0  0  0  0  0  0  0  0  0  0  0  0
   -1.9314    1.7898    5.0037 H   0  0  0  0  0  0  0  0  0  0  0  0
   -2.6289    3.3249    4.4877 H   0  0  0  0  0  0  0  0  0  0  0  0
   -0.0539   -0.7610    1.9938 H   0  0  0  0  0  0  0  0  0  0  0  0
    0.8055    0.7284    2.2074 H   0  0  0  0  0  0  0  0  0  0  0  0
   -0.8031   -0.2215   -0.2095 H   0  0  0  0  0  0  0  0  0  0  0  0
   -0.4418    1.4978   -0.0198 H   0  0  0  0  0  0  0  0  0  0  0  0
    1.7496    0.9543    0.1096 H   0  0  0  0  0  0  0  0  0  0  0  0
  1  2  2  0  0  0  0 
  2  3  1  0  0  0  0 
  3  4  2  0  0  0  0 
  4  5  1  0  0  0  0 
  5  6  2  0  0  0  0 
  1  6  1  0  0  0  0 
  5  7  1  0  0  0  0 
  8  7  1  0  0  0  0 
  7  9  1  0  0  0  0 
 10 11  1  0  0  0  0 
 11 12  2  0  0  0  0 
 12 13  1  0  0  0  0 
 13 14  2  0  0  0  0 
  9 10  2  0  0  0  0 
  9 14  1  0  0  0  0 
 15 16  1  0  0  0  0 
 16 17  1  0  0  0  0 
 17 18  1  0  0  0  0 
 18 19  1  0  0  0  0 
  8 15  1  0  0  0  0 
  8 19  1  0  0  0  0 
 15 20  1  0  0  0  0 
 20 21  1  0  0  0  0 
 21 22  1  0  0  0  0 
  8 23  1  0  0  0  0 
  1 24  1  0  0  0  0 
  2 25  1  0  0  0  0 
  3 26  1  0  0  0  0 
  4 27  1  0  0  0  0 
  6 28  1  0  0  0  0 
  7 29  1  0  0  0  0 
 10 30  1  0  0  0  0 
 11 31  1  0  0  0  0 
 12 32  1  0  0  0  0 
 13 33  1  0  0  0  0 
 14 34  1  0  0  0  0 
 16 35  1  0  0  0  0 
 16 36  1  0  0  0  0 
 17 37  1  0  0  0  0 
 17 38  1  0  0  0  0 
 18 39  1  0  0  0  0 
 18 40  1  0  0  0  0 
 19 41  1  0  0  0  0 
 19 42  1  0  0  0  0 
 20 43  1  0  0  0  0 
 20 44  1  0  0  0  0 
 21 45  1  0  0  0  0 
 21 46  1  0  0  0  0 
 22 47  1  0  0  0  0 
M  END
> <cdk:Title>
difemetorex

> <Conformer>
1

> <SuperDrugID>
SD003192

$$$$
