levamfetamine
  CDK     0628171801

 23 23  0  0  0  0  0  0  0  0999 V2000
    0.7552    4.0420   -2.2072 C   0  0  0  0  0  0  0  0  0  0  0  0
    2.0157    3.7233   -1.3679 C   0  0  1  0  0  0  0  0  0  0  0  0
    3.1378    3.4153   -2.2711 N   0  0  2  0  0  0  0  0  0  0  0  0
    2.3971    4.8814   -0.3982 C   0  0  1  0  0  0  0  0  0  0  0  0
    3.6010    4.5826    0.4312 C   0  0  0  0  0  0  0  0  0  0  0  0
    4.7853    5.3501    0.3103 C   0  0  0  0  0  0  0  0  0  0  0  0
    5.9292    5.0323    1.0670 C   0  0  0  0  0  0  0  0  0  0  0  0
    5.9030    3.9403    1.9532 C   0  0  0  0  0  0  0  0  0  0  0  0
    4.7295    3.1804    2.1021 C   0  0  0  0  0  0  0  0  0  0  0  0
    3.5837    3.5078    1.3554 C   0  0  0  0  0  0  0  0  0  0  0  0
    0.5013    3.1868   -2.8380 H   0  0  0  0  0  0  0  0  0  0  0  0
   -0.0952    4.2487   -1.5531 H   0  0  0  0  0  0  0  0  0  0  0  0
    0.9271    4.9107   -2.8479 H   0  0  0  0  0  0  0  0  0  0  0  0
    1.7970    2.8236   -0.7863 H   0  0  0  0  0  0  0  0  0  0  0  0
    2.8802    2.5729   -2.7879 H   0  0  0  0  0  0  0  0  0  0  0  0
    3.9323    3.1592   -1.6795 H   0  0  0  0  0  0  0  0  0  0  0  0
    2.5488    5.7901   -0.9880 H   0  0  0  0  0  0  0  0  0  0  0  0
    1.5605    5.0743    0.2756 H   0  0  0  0  0  0  0  0  0  0  0  0
    4.8280    6.1460   -0.3316 H   0  0  0  0  0  0  0  0  0  0  0  0
    6.7788    5.5936    0.9688 H   0  0  0  0  0  0  0  0  0  0  0  0
    6.7359    3.7026    2.4945 H   0  0  0  0  0  0  0  0  0  0  0  0
    4.7065    2.3884    2.7499 H   0  0  0  0  0  0  0  0  0  0  0  0
    2.7362    2.9508    1.4896 H   0  0  0  0  0  0  0  0  0  0  0  0
  1  2  1  0  0  0  0 
  2  3  1  0  0  0  0 
  2  4  1  0  0  0  0 
  4  5  1  0  0  0  0 
  5  6  2  0  0  0  0 
  6  7  1  0  0  0  0 
  7  8  2  0  0  0  0 
  8  9  1  0  0  0  0 
  9 10  2  0  0  0  0 
  5 10  1  0  0  0  0 
  1 11  1  0  0  0  0 
  1 12  1  0  0  0  0 
  1 13  1  0  0  0  0 
  2 14  1  0  0  0  0 
  3 15  1  0  0  0  0 
  3 16  1  0  0  0  0 
  4 17  1  0  0  0  0 
  4 18  1  0  0  0  0 
  6 19  1  0  0  0  0 
  7 20  1  0  0  0  0 
  8 21  1  0  0  0  0 
  9 22  1  0  0  0  0 
 10 23  1  0  0  0  0 
M  END
> <cdk:Title>
levamfetamine

> <Conformer>
1

> <SuperDrugID>
SD001379

$$$$
