fimasartan
  CDK     0628171802

 67 70  0  0  0  0  0  0  0  0999 V2000
   -0.1952   -0.5947    3.1817 C   0  0  0  0  0  0  0  0  0  0  0  0
   -1.0951   -1.2805    4.0370 C   0  0  0  0  0  0  0  0  0  0  0  0
   -1.9857   -0.5880    4.8732 C   0  0  0  0  0  0  0  0  0  0  0  0
   -2.0082    0.8121    4.8616 C   0  0  0  0  0  0  0  0  0  0  0  0
   -1.1111    1.5168    4.0458 C   0  0  0  0  0  0  0  0  0  0  0  0
   -0.1731    0.8373    3.2263 C   0  0  0  0  0  0  0  0  0  0  0  0
    0.6165   -1.3850    2.3111 C   0  0  0  0  0  0  0  0  0  0  0  0
    1.2840   -0.9911    1.2156 N   0  0  0  0  0  0  0  0  0  0  0  0
    1.8772   -2.0265    0.7151 N   0  0  0  0  0  0  0  0  0  0  0  0
    1.6169   -3.0714    1.4335 N   0  0  0  0  0  0  0  0  0  0  0  0
    0.8523   -2.7007    2.4021 N   0  0  0  0  0  0  0  0  0  0  0  0
    0.7839    1.6376    2.5348 C   0  0  0  0  0  0  0  0  0  0  0  0
    0.3923    2.6711    1.6504 C   0  0  0  0  0  0  0  0  0  0  0  0
    1.3559    3.4370    0.9676 C   0  0  0  0  0  0  0  0  0  0  0  0
    2.7339    3.1543    1.1079 C   0  0  0  0  0  0  0  0  0  0  0  0
    3.1236    2.1659    2.0405 C   0  0  0  0  0  0  0  0  0  0  0  0
    2.1651    1.4310    2.7548 C   0  0  0  0  0  0  0  0  0  0  0  0
    3.7707    3.8386    0.2859 C   0  0  2  0  0  0  0  0  0  0  0  0
    4.3997    2.8829   -0.6266 N   0  0  0  0  0  0  0  0  0  0  0  0
    3.7569    2.4488   -1.7717 C   0  0  0  0  0  0  0  0  0  0  0  0
    4.3520    1.5102   -2.5456 N   0  0  0  0  0  0  0  0  0  0  0  0
    5.5406    0.9295   -2.2747 C   0  0  0  0  0  0  0  0  0  0  0  0
    6.2337    1.3135   -1.0992 C   0  0  0  0  0  0  0  0  0  0  0  0
    5.6377    2.3441   -0.3211 C   0  0  0  0  0  0  0  0  0  0  0  0
    6.2732    2.7508    0.6838 O   0  0  0  0  0  0  0  0  0  0  0  0
    6.0101   -0.0839   -3.2468 C   0  0  0  0  0  0  0  0  0  0  0  0
    2.4275    2.8791   -2.3005 C   0  0  2  0  0  0  0  0  0  0  0  0
    1.3448    1.7740   -2.1448 C   0  0  2  0  0  0  0  0  0  0  0  0
   -0.0682    2.2463   -2.5834 C   0  0  1  0  0  0  0  0  0  0  0  0
   -1.1501    1.1689   -2.3467 C   0  0  0  0  0  0  0  0  0  0  0  0
    7.5032    0.6324   -0.6790 C   0  0  1  0  0  0  0  0  0  0  0  0
    8.6686    0.9780   -1.4801 C   0  0  0  0  0  0  0  0  0  0  0  0
    9.1699    2.2182   -1.5007 N   0  0  0  0  0  0  0  0  0  0  0  0
    9.5337   -0.2265   -2.3224 S   0  0  0  0  0  0  0  0  0  0  0  0
    8.6789    3.1755   -2.4574 C   0  0  0  0  0  0  0  0  0  0  0  0
   10.1976    2.5859   -0.5647 C   0  0  0  0  0  0  0  0  0  0  0  0
   -1.1298   -2.3024    4.0616 H   0  0  0  0  0  0  0  0  0  0  0  0
   -2.6223   -1.1050    5.4835 H   0  0  0  0  0  0  0  0  0  0  0  0
   -2.6703    1.3169    5.4549 H   0  0  0  0  0  0  0  0  0  0  0  0
   -1.1401    2.5396    4.0720 H   0  0  0  0  0  0  0  0  0  0  0  0
    0.5035   -3.2875    3.0914 H   0  0  0  0  0  0  0  0  0  0  0  0
   -0.5992    2.8715    1.4899 H   0  0  0  0  0  0  0  0  0  0  0  0
    1.0388    4.1869    0.3499 H   0  0  0  0  0  0  0  0  0  0  0  0
    4.1119    1.9658    2.2053 H   0  0  0  0  0  0  0  0  0  0  0  0
    2.4877    0.7329    3.4309 H   0  0  0  0  0  0  0  0  0  0  0  0
    4.4765    4.3007    0.9818 H   0  0  0  0  0  0  0  0  0  0  0  0
    3.3678    4.6877   -0.2702 H   0  0  0  0  0  0  0  0  0  0  0  0
    6.1944   -1.0345   -2.7464 H   0  0  0  0  0  0  0  0  0  0  0  0
    5.2696   -0.2591   -4.0306 H   0  0  0  0  0  0  0  0  0  0  0  0
    6.9261    0.2589   -3.7270 H   0  0  0  0  0  0  0  0  0  0  0  0
    2.5346    3.1268   -3.3604 H   0  0  0  0  0  0  0  0  0  0  0  0
    2.0764    3.7876   -1.8217 H   0  0  0  0  0  0  0  0  0  0  0  0
    1.3034    1.4524   -1.1011 H   0  0  0  0  0  0  0  0  0  0  0  0
    1.6263    0.9051   -2.7471 H   0  0  0  0  0  0  0  0  0  0  0  0
   -0.3500    3.1437   -2.0252 H   0  0  0  0  0  0  0  0  0  0  0  0
   -0.0516    2.5027   -3.6470 H   0  0  0  0  0  0  0  0  0  0  0  0
   -2.1234    1.5430   -2.6678 H   0  0  0  0  0  0  0  0  0  0  0  0
   -1.2105    0.9143   -1.2869 H   0  0  0  0  0  0  0  0  0  0  0  0
   -0.9191    0.2667   -2.9156 H   0  0  0  0  0  0  0  0  0  0  0  0
    7.7547    0.8556    0.3604 H   0  0  0  0  0  0  0  0  0  0  0  0
    7.3255   -0.4462   -0.6902 H   0  0  0  0  0  0  0  0  0  0  0  0
    9.3024    4.0713   -2.4917 H   0  0  0  0  0  0  0  0  0  0  0  0
    7.6667    3.4899   -2.2007 H   0  0  0  0  0  0  0  0  0  0  0  0
    8.6672    2.7464   -3.4616 H   0  0  0  0  0  0  0  0  0  0  0  0
    9.8639    3.4289    0.0407 H   0  0  0  0  0  0  0  0  0  0  0  0
   10.4665    1.7731    0.1150 H   0  0  0  0  0  0  0  0  0  0  0  0
   11.0979    2.8746   -1.1078 H   0  0  0  0  0  0  0  0  0  0  0  0
  1  2  2  0  0  0  0 
  1  6  1  0  0  0  0 
  2  3  1  0  0  0  0 
  3  4  2  0  0  0  0 
  4  5  1  0  0  0  0 
  5  6  2  0  0  0  0 
  1  7  1  0  0  0  0 
  8  9  1  0  0  0  0 
  9 10  2  0  0  0  0 
 10 11  1  0  0  0  0 
  7  8  2  0  0  0  0 
  7 11  1  0  0  0  0 
  6 12  1  0  0  0  0 
 13 14  1  0  0  0  0 
 14 15  2  0  0  0  0 
 15 16  1  0  0  0  0 
 16 17  2  0  0  0  0 
 12 13  2  0  0  0  0 
 12 17  1  0  0  0  0 
 15 18  1  0  0  0  0 
 18 19  1  0  0  0  0 
 20 21  2  0  0  0  0 
 21 22  1  0  0  0  0 
 22 23  2  0  0  0  0 
 23 24  1  0  0  0  0 
 19 20  1  0  0  0  0 
 19 24  1  0  0  0  0 
 24 25  2  0  0  0  0 
 22 26  1  0  0  0  0 
 20 27  1  0  0  0  0 
 27 28  1  0  0  0  0 
 28 29  1  0  0  0  0 
 29 30  1  0  0  0  0 
 23 31  1  0  0  0  0 
 31 32  1  0  0  0  0 
 32 33  1  0  0  0  0 
 32 34  2  0  0  0  0 
 33 35  1  0  0  0  0 
 33 36  1  0  0  0  0 
 37  2  1  0  0  0  0 
 38  3  1  0  0  0  0 
 39  4  1  0  0  0  0 
 40  5  1  0  0  0  0 
 41 11  1  0  0  0  0 
 42 13  1  0  0  0  0 
 43 14  1  0  0  0  0 
 44 16  1  0  0  0  0 
 45 17  1  0  0  0  0 
 46 18  1  0  0  0  0 
 47 18  1  0  0  0  0 
 48 26  1  0  0  0  0 
 49 26  1  0  0  0  0 
 50 26  1  0  0  0  0 
 51 27  1  0  0  0  0 
 52 27  1  0  0  0  0 
 53 28  1  0  0  0  0 
 54 28  1  0  0  0  0 
 55 29  1  0  0  0  0 
 56 29  1  0  0  0  0 
 57 30  1  0  0  0  0 
 58 30  1  0  0  0  0 
 59 30  1  0  0  0  0 
 60 31  1  0  0  0  0 
 61 31  1  0  0  0  0 
 62 35  1  0  0  0  0 
 63 35  1  0  0  0  0 
 64 35  1  0  0  0  0 
 65 36  1  0  0  0  0 
 66 36  1  0  0  0  0 
 67 36  1  0  0  0  0 
M  END
> <cdk:Title>
fimasartan

> <Conformer>
1

> <SuperDrugID>
SD003841

$$$$
