metopimazine
  CDK     0628171801

 57 60  0  0  0  0  0  0  0  0999 V2000
    7.0334   -0.8209   -9.3629 C   0  0  0  0  0  0  0  0  0  0  0  0
    5.9755   -1.8240   -8.2525 S   0  0  2  0  0  0  0  0  0  0  0  0
    6.2986   -3.3755   -8.5067 O   0  0  0  0  0  0  0  0  0  0  0  0
    4.4376   -1.5685   -8.6358 O   0  0  0  0  0  0  0  0  0  0  0  0
    6.2788   -1.3953   -6.5568 C   0  0  0  0  0  0  0  0  0  0  0  0
    7.1297   -2.1826   -5.7577 C   0  0  0  0  0  0  0  0  0  0  0  0
    7.3768   -1.8287   -4.4216 C   0  0  0  0  0  0  0  0  0  0  0  0
    6.7579   -0.6922   -3.8705 C   0  0  0  0  0  0  0  0  0  0  0  0
    7.1221   -0.2384   -2.2117 S   0  0  0  0  0  0  0  0  0  0  0  0
    6.7962    1.4875   -2.1994 C   0  0  0  0  0  0  0  0  0  0  0  0
    7.4381    2.2983   -1.2428 C   0  0  0  0  0  0  0  0  0  0  0  0
    7.2353    3.6872   -1.2535 C   0  0  0  0  0  0  0  0  0  0  0  0
    6.3841    4.2579   -2.2128 C   0  0  0  0  0  0  0  0  0  0  0  0
    5.7321    3.4409   -3.1554 C   0  0  0  0  0  0  0  0  0  0  0  0
    5.9065    2.0331   -3.1635 C   0  0  0  0  0  0  0  0  0  0  0  0
    5.2299    1.2099   -4.0690 N   0  0  0  0  0  0  0  0  0  0  0  0
    3.8261    1.4623   -4.3896 C   0  0  1  0  0  0  0  0  0  0  0  0
    2.8676    1.5030   -3.1661 C   0  0  2  0  0  0  0  0  0  0  0  0
    2.8873    0.2276   -2.2770 C   0  0  1  0  0  0  0  0  0  0  0  0
    2.7763   -1.0694   -3.0268 N   0  0  2  0  0  0  0  0  0  0  0  0
    1.4320   -1.3008   -3.6514 C   0  0  2  0  0  0  0  0  0  0  0  0
    1.3960   -2.6124   -4.4822 C   0  0  1  0  0  0  0  0  0  0  0  0
    1.8223   -3.8349   -3.6176 C   0  0  2  0  0  0  0  0  0  0  0  0
    3.2238   -3.5677   -3.0009 C   0  0  2  0  0  0  0  0  0  0  0  0
    3.2405   -2.2367   -2.2068 C   0  0  2  0  0  0  0  0  0  0  0  0
    1.7649   -5.1168   -4.3737 C   0  0  0  0  0  0  0  0  0  0  0  0
    2.5316   -5.3581   -5.4560 N   0  0  0  0  0  0  0  0  0  0  0  0
    0.9814   -6.0264   -4.0146 O   0  0  0  0  0  0  0  0  0  0  0  0
    5.8735    0.1091   -4.6355 C   0  0  0  0  0  0  0  0  0  0  0  0
    5.6764   -0.2516   -5.9952 C   0  0  0  0  0  0  0  0  0  0  0  0
    6.8149    0.2397   -9.2322 H   0  0  0  0  0  0  0  0  0  0  0  0
    8.0813   -1.0055   -9.1270 H   0  0  0  0  0  0  0  0  0  0  0  0
    6.8415   -1.1031  -10.3982 H   0  0  0  0  0  0  0  0  0  0  0  0
    7.5862   -3.0102   -6.1425 H   0  0  0  0  0  0  0  0  0  0  0  0
    8.0133   -2.3965   -3.8563 H   0  0  0  0  0  0  0  0  0  0  0  0
    8.0553    1.8832   -0.5408 H   0  0  0  0  0  0  0  0  0  0  0  0
    7.7042    4.2801   -0.5645 H   0  0  0  0  0  0  0  0  0  0  0  0
    6.2362    5.2695   -2.2214 H   0  0  0  0  0  0  0  0  0  0  0  0
    5.1256    3.8922   -3.8407 H   0  0  0  0  0  0  0  0  0  0  0  0
    3.7443    2.4001   -4.9424 H   0  0  0  0  0  0  0  0  0  0  0  0
    3.4103    0.7021   -5.0539 H   0  0  0  0  0  0  0  0  0  0  0  0
    1.8511    1.6686   -3.5325 H   0  0  0  0  0  0  0  0  0  0  0  0
    3.1159    2.3622   -2.5400 H   0  0  0  0  0  0  0  0  0  0  0  0
    3.8271    0.2518   -1.7166 H   0  0  0  0  0  0  0  0  0  0  0  0
    2.0814    0.2987   -1.5392 H   0  0  0  0  0  0  0  0  0  0  0  0
    1.1851   -0.4801   -4.3308 H   0  0  0  0  0  0  0  0  0  0  0  0
    0.6608   -1.3447   -2.8744 H   0  0  0  0  0  0  0  0  0  0  0  0
    0.3807   -2.7634   -4.8648 H   0  0  0  0  0  0  0  0  0  0  0  0
    2.0670   -2.5055   -5.3417 H   0  0  0  0  0  0  0  0  0  0  0  0
    1.1078   -3.9123   -2.7883 H   0  0  0  0  0  0  0  0  0  0  0  0
    3.9787   -3.5191   -3.7915 H   0  0  0  0  0  0  0  0  0  0  0  0
    3.4883   -4.3854   -2.3250 H   0  0  0  0  0  0  0  0  0  0  0  0
    2.6129   -2.3416   -1.3161 H   0  0  0  0  0  0  0  0  0  0  0  0
    4.2691   -2.0744   -1.8736 H   0  0  0  0  0  0  0  0  0  0  0  0
    2.4696   -6.2142   -5.9109 H   0  0  0  0  0  0  0  0  0  0  0  0
    3.1480   -4.6849   -5.7846 H   0  0  0  0  0  0  0  0  0  0  0  0
    5.0934    0.3323   -6.5981 H   0  0  0  0  0  0  0  0  0  0  0  0
  1  2  1  0  0  0  0 
  2  3  2  0  0  0  0 
  2  4  2  0  0  0  0 
  2  5  1  0  0  0  0 
  5  6  2  0  0  0  0 
  6  7  1  0  0  0  0 
  7  8  2  0  0  0  0 
  8  9  1  0  0  0  0 
  9 10  1  0  0  0  0 
 10 11  2  0  0  0  0 
 11 12  1  0  0  0  0 
 12 13  2  0  0  0  0 
 13 14  1  0  0  0  0 
 14 15  2  0  0  0  0 
 10 15  1  0  0  0  0 
 15 16  1  0  0  0  0 
 16 17  1  0  0  0  0 
 17 18  1  0  0  0  0 
 18 19  1  0  0  0  0 
 19 20  1  0  0  0  0 
 20 21  1  0  0  0  0 
 21 22  1  0  0  0  0 
 22 23  1  0  0  0  0 
 23 24  1  0  0  0  0 
 24 25  1  0  0  0  0 
 20 25  1  0  0  0  0 
 23 26  1  0  0  0  0 
 26 27  1  0  0  0  0 
 26 28  2  0  0  0  0 
 16 29  1  0  0  0  0 
  8 29  1  0  0  0  0 
 29 30  2  0  0  0  0 
  5 30  1  0  0  0  0 
  1 31  1  0  0  0  0 
  1 32  1  0  0  0  0 
  1 33  1  0  0  0  0 
  6 34  1  0  0  0  0 
  7 35  1  0  0  0  0 
 11 36  1  0  0  0  0 
 12 37  1  0  0  0  0 
 13 38  1  0  0  0  0 
 14 39  1  0  0  0  0 
 17 40  1  0  0  0  0 
 17 41  1  0  0  0  0 
 18 42  1  0  0  0  0 
 18 43  1  0  0  0  0 
 19 44  1  0  0  0  0 
 19 45  1  0  0  0  0 
 21 46  1  0  0  0  0 
 21 47  1  0  0  0  0 
 22 48  1  0  0  0  0 
 22 49  1  0  0  0  0 
 23 50  1  0  0  0  0 
 24 51  1  0  0  0  0 
 24 52  1  0  0  0  0 
 25 53  1  0  0  0  0 
 25 54  1  0  0  0  0 
 27 55  1  0  0  0  0 
 27 56  1  0  0  0  0 
 30 57  1  0  0  0  0 
M  END
> <cdk:Title>
metopimazine

> <Conformer>
1

> <SuperDrugID>
SD001584

$$$$
