niclofolan
  CDK     0628171801

 28 29  0  0  0  0  0  0  0  0999 V2000
   -1.8998    3.3808   -0.4713 O   0  0  0  0  0  0  0  0  0  0  0  0
   -0.9466    2.4234   -0.3179 C   0  0  0  0  0  0  0  0  0  0  0  0
   -1.3338    1.1808    0.2476 C   0  0  0  0  0  0  0  0  0  0  0  0
    0.3930    2.6678   -0.7411 C   0  0  0  0  0  0  0  0  0  0  0  0
   -0.3626    0.1691    0.4053 C   0  0  0  0  0  0  0  0  0  0  0  0
   -2.6788    0.9278    0.6447 C   0  0  0  0  0  0  0  0  0  0  0  0
    0.7861    3.8400   -1.2898 N   0  0  0  0  0  0  0  0  0  0  0  0
    1.3294    1.6132   -0.5762 C   0  0  0  0  0  0  0  0  0  0  0  0
    0.9615    0.3782   -0.0111 C   0  0  0  0  0  0  0  0  0  0  0  0
   -3.4451   -0.1113    0.0557 C   0  0  0  0  0  0  0  0  0  0  0  0
   -3.2722    1.7366    1.6373 C   0  0  0  0  0  0  0  0  0  0  0  0
    1.9817    4.0586   -1.6665 O   0  0  0  0  0  0  0  0  0  0  0  0
    0.0726    4.7476   -1.4672 O   0  0  0  0  0  0  0  0  0  0  0  0
    2.1026   -0.8630    0.1601 Cl  0  0  0  0  0  0  0  0  0  0  0  0
   -2.8583   -0.8719   -0.9065 O   0  0  0  0  0  0  0  0  0  0  0  0
   -4.7999   -0.3475    0.4326 C   0  0  0  0  0  0  0  0  0  0  0  0
   -4.6070    1.5332    2.0213 C   0  0  0  0  0  0  0  0  0  0  0  0
   -5.5542   -1.3257   -0.1186 N   0  0  0  0  0  0  0  0  0  0  0  0
   -5.3566    0.5032    1.4238 C   0  0  0  0  0  0  0  0  0  0  0  0
   -5.3069    2.5376    3.1932 Cl  0  0  0  0  0  0  0  0  0  0  0  0
   -5.1705   -2.0563   -0.9451 O   0  0  0  0  0  0  0  0  0  0  0  0
   -6.7629   -1.5374    0.2184 O   0  0  0  0  0  0  0  0  0  0  0  0
   -2.2541    3.2294   -1.3728 H   0  0  0  0  0  0  0  0  0  0  0  0
   -0.6207   -0.7300    0.8248 H   0  0  0  0  0  0  0  0  0  0  0  0
    2.2999    1.7360   -0.8740 H   0  0  0  0  0  0  0  0  0  0  0  0
   -2.7297    2.4829    2.0840 H   0  0  0  0  0  0  0  0  0  0  0  0
   -3.0756   -0.4136   -1.7455 H   0  0  0  0  0  0  0  0  0  0  0  0
   -6.3275    0.3806    1.7203 H   0  0  0  0  0  0  0  0  0  0  0  0
  1  2  1  0  0  0  0 
  2  3  2  0  0  0  0 
  2  4  1  0  0  0  0 
  3  5  1  0  0  0  0 
  3  6  1  0  0  0  0 
  4  7  1  0  0  0  0 
  4  8  2  0  0  0  0 
  5  9  2  0  0  0  0 
  6 10  2  0  0  0  0 
  6 11  1  0  0  0  0 
  7 12  1  0  0  0  0 
  7 13  2  0  0  0  0 
  8  9  1  0  0  0  0 
  9 14  1  0  0  0  0 
 10 15  1  0  0  0  0 
 10 16  1  0  0  0  0 
 11 17  2  0  0  0  0 
 16 18  1  0  0  0  0 
 16 19  2  0  0  0  0 
 17 19  1  0  0  0  0 
 17 20  1  0  0  0  0 
 18 21  2  0  0  0  0 
 18 22  1  0  0  0  0 
  1 23  1  0  0  0  0 
  5 24  1  0  0  0  0 
  8 25  1  0  0  0  0 
 11 26  1  0  0  0  0 
 15 27  1  0  0  0  0 
 19 28  1  0  0  0  0 
M  CHG  1   7   1
M  CHG  1  12  -1
M  CHG  1  18   1
M  CHG  1  22  -1
M  END
> <cdk:Title>
niclofolan

> <Conformer>
1

> <SuperDrugID>
SD001490

$$$$
