epinastine
  CDK     0628171801

 34 37  0  0  0  0  0  0  0  0999 V2000
    3.0464   -1.5451   -0.2641 N   0  0  0  0  0  0  0  0  0  0  0  0
    1.9067   -1.0988    0.1058 C   0  0  0  0  0  0  0  0  0  0  0  0
    1.6428    0.1081    0.5888 N   0  0  0  0  0  0  0  0  0  0  0  0
    0.8232   -1.8243    0.0545 N   0  0  0  0  0  0  0  0  0  0  0  0
    0.2451    0.2694    0.8585 C   0  0  1  0  0  0  0  0  0  0  0  0
    2.5595    1.1018    0.7985 C   0  0  0  0  0  0  0  0  0  0  0  0
   -0.3115   -1.1474    0.5421 C   0  0  1  0  0  0  0  0  0  0  0  0
   -0.1906    0.7864    2.2008 C   0  0  0  0  0  0  0  0  0  0  0  0
    2.8301    1.5165    2.1272 C   0  0  0  0  0  0  0  0  0  0  0  0
    3.2281    1.7115   -0.2871 C   0  0  0  0  0  0  0  0  0  0  0  0
    0.6779    1.0773    3.2997 C   0  0  0  0  0  0  0  0  0  0  0  0
   -1.5821    1.0155    2.3545 C   0  0  0  0  0  0  0  0  0  0  0  0
    2.1519    0.8274    3.2613 C   0  0  2  0  0  0  0  0  0  0  0  0
    3.7627    2.5600    2.3413 C   0  0  0  0  0  0  0  0  0  0  0  0
    4.1679    2.7316   -0.0572 C   0  0  0  0  0  0  0  0  0  0  0  0
    0.1165    1.6015    4.4934 C   0  0  0  0  0  0  0  0  0  0  0  0
   -2.1168    1.5163    3.5507 C   0  0  0  0  0  0  0  0  0  0  0  0
    4.4307    3.1578    1.2564 C   0  0  0  0  0  0  0  0  0  0  0  0
   -1.2641    1.8235    4.6185 C   0  0  0  0  0  0  0  0  0  0  0  0
    3.1245   -2.4168   -0.5882 H   0  0  0  0  0  0  0  0  0  0  0  0
    0.7997   -2.7390   -0.2680 H   0  0  0  0  0  0  0  0  0  0  0  0
   -0.1205    0.9702    0.1010 H   0  0  0  0  0  0  0  0  0  0  0  0
   -1.0939   -1.1196   -0.2214 H   0  0  0  0  0  0  0  0  0  0  0  0
   -0.6834   -1.6698    1.4284 H   0  0  0  0  0  0  0  0  0  0  0  0
    3.0318    1.4170   -1.2464 H   0  0  0  0  0  0  0  0  0  0  0  0
   -2.2311    0.8164    1.5886 H   0  0  0  0  0  0  0  0  0  0  0  0
    2.6298    1.1158    4.2021 H   0  0  0  0  0  0  0  0  0  0  0  0
    2.3147   -0.2503    3.1709 H   0  0  0  0  0  0  0  0  0  0  0  0
    3.9668    2.8915    3.2872 H   0  0  0  0  0  0  0  0  0  0  0  0
    4.6601    3.1638   -0.8442 H   0  0  0  0  0  0  0  0  0  0  0  0
    0.7082    1.8208    5.2980 H   0  0  0  0  0  0  0  0  0  0  0  0
   -3.1262    1.6612    3.6411 H   0  0  0  0  0  0  0  0  0  0  0  0
    5.1148    3.9009    1.4219 H   0  0  0  0  0  0  0  0  0  0  0  0
   -1.6508    2.2007    5.4873 H   0  0  0  0  0  0  0  0  0  0  0  0
  1  2  2  0  0  0  0 
  2  3  1  0  0  0  0 
  2  4  1  0  0  0  0 
  5  3  1  0  0  0  0 
  3  6  1  0  0  0  0 
  4  7  1  0  0  0  0 
  5  7  1  0  0  0  0 
  5  8  1  0  0  0  0 
  6  9  2  0  0  0  0 
  6 10  1  0  0  0  0 
  8 11  2  0  0  0  0 
  8 12  1  0  0  0  0 
  9 13  1  0  0  0  0 
  9 14  1  0  0  0  0 
 10 15  2  0  0  0  0 
 11 13  1  0  0  0  0 
 11 16  1  0  0  0  0 
 12 17  2  0  0  0  0 
 14 18  2  0  0  0  0 
 15 18  1  0  0  0  0 
 16 19  2  0  0  0  0 
 17 19  1  0  0  0  0 
 20  1  1  0  0  0  0 
 21  4  1  0  0  0  0 
 22  5  1  0  0  0  0 
 23  7  1  0  0  0  0 
 24  7  1  0  0  0  0 
 25 10  1  0  0  0  0 
 26 12  1  0  0  0  0 
 27 13  1  0  0  0  0 
 28 13  1  0  0  0  0 
 29 14  1  0  0  0  0 
 30 15  1  0  0  0  0 
 31 16  1  0  0  0  0 
 32 17  1  0  0  0  0 
 33 18  1  0  0  0  0 
 34 19  1  0  0  0  0 
M  END
> <cdk:Title>
epinastine

> <Conformer>
1

> <SuperDrugID>
SD000914

$$$$
