cefapirin
  CDK     0628171802

 45 47  0  0  0  0  0  0  0  0999 V2000
   -6.5679    5.2520   -2.5167 C   0  0  0  0  0  0  0  0  0  0  0  0
   -5.8082    5.5524   -3.5952 O   0  0  0  0  0  0  0  0  0  0  0  0
   -7.7397    4.8568   -2.7103 O   0  0  0  0  0  0  0  0  0  0  0  0
   -6.0720    5.3487   -1.2243 C   0  0  0  0  0  0  0  0  0  0  0  0
   -6.1618    4.2312   -0.4737 N   0  0  0  0  0  0  0  0  0  0  0  0
   -5.4956    6.4762   -0.7167 C   0  0  0  0  0  0  0  0  0  0  0  0
   -6.1496    4.0416    0.9322 C   0  0  1  0  0  0  0  0  0  0  0  0
   -6.1320    2.9177   -0.7437 C   0  0  0  0  0  0  0  0  0  0  0  0
   -5.3307    7.7220   -1.4818 C   0  0  1  0  0  0  0  0  0  0  0  0
   -4.9933    6.5570    0.6720 C   0  0  2  0  0  0  0  0  0  0  0  0
   -6.0396    2.5109    0.6559 C   0  0  1  0  0  0  0  0  0  0  0  0
   -4.7049    4.9698    1.5322 S   0  0  0  0  0  0  0  0  0  0  0  0
   -6.1091    2.2619   -1.8095 O   0  0  0  0  0  0  0  0  0  0  0  0
   -3.9390    7.8664   -1.7899 O   0  0  0  0  0  0  0  0  0  0  0  0
   -4.7661    1.9422    0.9627 N   0  0  0  0  0  0  0  0  0  0  0  0
   -3.3325    8.9087   -2.4258 C   0  0  0  0  0  0  0  0  0  0  0  0
   -4.4752    0.6206    1.0517 C   0  0  0  0  0  0  0  0  0  0  0  0
   -1.8676    8.8998   -2.5369 C   0  0  0  0  0  0  0  0  0  0  0  0
   -3.9864    9.8688   -2.8978 O   0  0  0  0  0  0  0  0  0  0  0  0
   -3.0619    0.2300    1.2259 C   0  0  2  0  0  0  0  0  0  0  0  0
   -5.3670   -0.2566    0.9697 O   0  0  0  0  0  0  0  0  0  0  0  0
   -2.1111    0.7587   -0.2415 S   0  0  0  0  0  0  0  0  0  0  0  0
   -0.4474    0.9027    0.3007 C   0  0  0  0  0  0  0  0  0  0  0  0
    0.4897   -0.1091    0.0062 C   0  0  0  0  0  0  0  0  0  0  0  0
   -0.0294    2.0529    1.0020 C   0  0  0  0  0  0  0  0  0  0  0  0
    1.8212    0.0445    0.4380 C   0  0  0  0  0  0  0  0  0  0  0  0
    1.3139    2.1584    1.4071 C   0  0  0  0  0  0  0  0  0  0  0  0
    2.1883    1.1602    1.1198 N   0  0  0  0  0  0  0  0  0  0  0  0
   -7.0880    4.3509    1.4039 H   0  0  0  0  0  0  0  0  0  0  0  0
   -6.1803    5.4608   -4.4968 H   0  0  0  0  0  0  0  0  0  0  0  0
   -5.9155    7.7622   -2.4007 H   0  0  0  0  0  0  0  0  0  0  0  0
   -5.6539    8.5713   -0.8752 H   0  0  0  0  0  0  0  0  0  0  0  0
   -5.7254    7.1108    1.2625 H   0  0  0  0  0  0  0  0  0  0  0  0
   -4.0437    7.0973    0.7140 H   0  0  0  0  0  0  0  0  0  0  0  0
   -6.9122    1.9369    0.9776 H   0  0  0  0  0  0  0  0  0  0  0  0
   -4.0248    2.5567    1.0821 H   0  0  0  0  0  0  0  0  0  0  0  0
   -1.4538    8.0106   -2.0564 H   0  0  0  0  0  0  0  0  0  0  0  0
   -1.4582    9.7819   -2.0418 H   0  0  0  0  0  0  0  0  0  0  0  0
   -1.5690    8.9051   -3.5857 H   0  0  0  0  0  0  0  0  0  0  0  0
   -2.9590   -0.8530    1.3289 H   0  0  0  0  0  0  0  0  0  0  0  0
   -2.6654    0.7047    2.1261 H   0  0  0  0  0  0  0  0  0  0  0  0
    0.2160   -0.9466   -0.5147 H   0  0  0  0  0  0  0  0  0  0  0  0
   -0.6864    2.8073    1.2145 H   0  0  0  0  0  0  0  0  0  0  0  0
    2.5168   -0.6774    0.2434 H   0  0  0  0  0  0  0  0  0  0  0  0
    1.6364    2.9807    1.9180 H   0  0  0  0  0  0  0  0  0  0  0  0
  1  2  1  0  0  0  0 
  1  3  2  0  0  0  0 
  1  4  1  0  0  0  0 
  4  5  1  0  0  0  0 
  4  6  2  0  0  0  0 
  7  5  1  0  0  0  0 
  5  8  1  0  0  0  0 
  6  9  1  0  0  0  0 
  6 10  1  0  0  0  0 
 11  7  1  0  0  0  0 
  7 12  1  0  0  0  0 
  7 29  1  0  0  0  0 
 11  8  1  0  0  0  0 
  8 13  2  0  0  0  0 
  9 14  1  0  0  0  0 
 10 12  1  0  0  0  0 
 11 15  1  0  0  0  0 
 14 16  1  0  0  0  0 
 15 17  1  0  0  0  0 
 16 18  1  0  0  0  0 
 16 19  2  0  0  0  0 
 17 20  1  0  0  0  0 
 17 21  2  0  0  0  0 
 20 22  1  0  0  0  0 
 22 23  1  0  0  0  0 
 23 24  2  0  0  0  0 
 23 25  1  0  0  0  0 
 24 26  1  0  0  0  0 
 25 27  2  0  0  0  0 
 26 28  2  0  0  0  0 
 27 28  1  0  0  0  0 
  2 30  1  0  0  0  0 
  9 31  1  0  0  0  0 
  9 32  1  0  0  0  0 
 10 33  1  0  0  0  0 
 10 34  1  0  0  0  0 
 11 35  1  0  0  0  0 
 15 36  1  0  0  0  0 
 18 37  1  0  0  0  0 
 18 38  1  0  0  0  0 
 18 39  1  0  0  0  0 
 20 40  1  0  0  0  0 
 20 41  1  0  0  0  0 
 24 42  1  0  0  0  0 
 25 43  1  0  0  0  0 
 26 44  1  0  0  0  0 
 27 45  1  0  0  0  0 
M  END
> <cdk:Title>
cefapirin

> <Conformer>
1

> <SuperDrugID>
SD000502

$$$$
