aminomethylbenzoic acid
  CDK     0628171801

 20 20  0  0  0  0  0  0  0  0999 V2000
    1.5627    0.2533    0.6798 N   0  0  1  0  0  0  0  0  0  0  0  0
    0.1743    0.6895    0.5176 C   0  0  2  0  0  0  0  0  0  0  0  0
   -0.7156   -0.3315    1.1170 C   0  0  0  0  0  0  0  0  0  0  0  0
   -1.0614   -0.2725    2.4844 C   0  0  0  0  0  0  0  0  0  0  0  0
   -1.8916   -1.2511    3.0598 C   0  0  0  0  0  0  0  0  0  0  0  0
   -2.3984   -2.3254    2.2876 C   0  0  0  0  0  0  0  0  0  0  0  0
   -2.0380   -2.3817    0.9187 C   0  0  0  0  0  0  0  0  0  0  0  0
   -1.2088   -1.4036    0.3428 C   0  0  0  0  0  0  0  0  0  0  0  0
   -3.2405   -3.3198    2.8553 C   0  0  0  0  0  0  0  0  0  0  0  0
   -3.7238   -4.3468    2.1126 O   0  0  0  0  0  0  0  0  0  0  0  0
   -3.5783   -3.2988    4.0619 O   0  0  0  0  0  0  0  0  0  0  0  0
    1.6604   -0.6224    0.1597 H   0  0  0  0  0  0  0  0  0  0  0  0
    2.1485    0.9472    0.2130 H   0  0  0  0  0  0  0  0  0  0  0  0
   -0.0358    0.8230   -0.5468 H   0  0  0  0  0  0  0  0  0  0  0  0
    0.0452    1.6578    1.0074 H   0  0  0  0  0  0  0  0  0  0  0  0
   -0.7049    0.4854    3.0721 H   0  0  0  0  0  0  0  0  0  0  0  0
   -2.1202   -1.1663    4.0533 H   0  0  0  0  0  0  0  0  0  0  0  0
   -2.3749   -3.1378    0.3197 H   0  0  0  0  0  0  0  0  0  0  0  0
   -0.9630   -1.4834   -0.6472 H   0  0  0  0  0  0  0  0  0  0  0  0
   -4.3032   -5.0233    2.5197 H   0  0  0  0  0  0  0  0  0  0  0  0
  1  2  1  0  0  0  0 
  2  3  1  0  0  0  0 
  3  4  2  0  0  0  0 
  4  5  1  0  0  0  0 
  5  6  2  0  0  0  0 
  6  7  1  0  0  0  0 
  7  8  2  0  0  0  0 
  3  8  1  0  0  0  0 
  6  9  1  0  0  0  0 
  9 10  1  0  0  0  0 
  9 11  2  0  0  0  0 
  1 12  1  0  0  0  0 
  1 13  1  0  0  0  0 
  2 14  1  0  0  0  0 
  2 15  1  0  0  0  0 
  4 16  1  0  0  0  0 
  5 17  1  0  0  0  0 
  7 18  1  0  0  0  0 
  8 19  1  0  0  0  0 
 10 20  1  0  0  0  0 
M  END
> <cdk:Title>
aminomethylbenzoic acid

> <Conformer>
1

> <SuperDrugID>
SD000006

$$$$
