mirtazapine
  CDK     0628171801

 39 42  0  0  0  0  0  0  0  0999 V2000
    1.5946   -0.5627    0.2044 C   0  0  0  0  0  0  0  0  0  0  0  0
    0.1254   -0.3129    0.1735 N   0  0  1  0  0  0  0  0  0  0  0  0
   -0.6802   -1.5386   -0.1135 C   0  0  2  0  0  0  0  0  0  0  0  0
   -0.3800    0.4076    1.3776 C   0  0  1  0  0  0  0  0  0  0  0  0
   -2.2056   -1.2209   -0.2441 C   0  0  2  0  0  0  0  0  0  0  0  0
   -1.8630    0.7995    1.1675 C   0  0  2  0  0  0  0  0  0  0  0  0
   -2.6711   -0.3643    0.8491 N   0  0  0  0  0  0  0  0  0  0  0  0
   -2.9445   -2.5079   -0.5282 C   0  0  0  0  0  0  0  0  0  0  0  0
   -3.8319   -0.5807    1.5694 C   0  0  0  0  0  0  0  0  0  0  0  0
   -3.3754   -3.3968    0.5031 C   0  0  0  0  0  0  0  0  0  0  0  0
   -3.1951   -2.8749   -1.8760 C   0  0  0  0  0  0  0  0  0  0  0  0
   -4.1555   -1.8380    2.1463 C   0  0  0  0  0  0  0  0  0  0  0  0
   -4.6936    0.4622    1.7523 N   0  0  0  0  0  0  0  0  0  0  0  0
   -3.2788   -3.0170    1.9363 C   0  0  1  0  0  0  0  0  0  0  0  0
   -3.9770   -4.6326    0.1606 C   0  0  0  0  0  0  0  0  0  0  0  0
   -3.8277   -4.0876   -2.1984 C   0  0  0  0  0  0  0  0  0  0  0  0
   -5.3463   -1.9491    2.9033 C   0  0  0  0  0  0  0  0  0  0  0  0
   -5.8380    0.3784    2.4757 C   0  0  0  0  0  0  0  0  0  0  0  0
   -4.2055   -4.9729   -1.1803 C   0  0  0  0  0  0  0  0  0  0  0  0
   -6.1860   -0.8373    3.0833 C   0  0  0  0  0  0  0  0  0  0  0  0
   -2.3015   -0.5809   -1.1288 H   0  0  0  0  0  0  0  0  0  0  0  0
    2.1389    0.3579    0.4265 H   0  0  0  0  0  0  0  0  0  0  0  0
    1.8539   -1.3118    0.9576 H   0  0  0  0  0  0  0  0  0  0  0  0
    1.9357   -0.9138   -0.7726 H   0  0  0  0  0  0  0  0  0  0  0  0
   -0.5194   -2.2796    0.6721 H   0  0  0  0  0  0  0  0  0  0  0  0
   -0.3315   -1.9795   -1.0506 H   0  0  0  0  0  0  0  0  0  0  0  0
   -0.2847   -0.2187    2.2708 H   0  0  0  0  0  0  0  0  0  0  0  0
    0.1928    1.3252    1.5424 H   0  0  0  0  0  0  0  0  0  0  0  0
   -1.9216    1.5112    0.3391 H   0  0  0  0  0  0  0  0  0  0  0  0
   -2.2054    1.3242    2.0671 H   0  0  0  0  0  0  0  0  0  0  0  0
   -2.9114   -2.2619   -2.6443 H   0  0  0  0  0  0  0  0  0  0  0  0
   -3.5796   -3.8418    2.5908 H   0  0  0  0  0  0  0  0  0  0  0  0
   -2.2502   -2.7770    2.2087 H   0  0  0  0  0  0  0  0  0  0  0  0
   -4.2772   -5.2897    0.8853 H   0  0  0  0  0  0  0  0  0  0  0  0
   -4.0091   -4.3313   -3.1755 H   0  0  0  0  0  0  0  0  0  0  0  0
   -5.6168   -2.8433    3.3224 H   0  0  0  0  0  0  0  0  0  0  0  0
   -6.4355    1.1984    2.5820 H   0  0  0  0  0  0  0  0  0  0  0  0
   -4.6530   -5.8602   -1.4151 H   0  0  0  0  0  0  0  0  0  0  0  0
   -7.0366   -0.9127    3.6456 H   0  0  0  0  0  0  0  0  0  0  0  0
  1  2  1  0  0  0  0 
  2  3  1  0  0  0  0 
  2  4  1  0  0  0  0 
  5  3  1  0  0  0  0 
  4  6  1  0  0  0  0 
  5  7  1  0  0  0  0 
  5  8  1  0  0  0  0 
  6  7  1  0  0  0  0 
  7  9  1  0  0  0  0 
  8 10  2  0  0  0  0 
  8 11  1  0  0  0  0 
  9 12  2  0  0  0  0 
  9 13  1  0  0  0  0 
 10 14  1  0  0  0  0 
 10 15  1  0  0  0  0 
 11 16  2  0  0  0  0 
 12 14  1  0  0  0  0 
 12 17  1  0  0  0  0 
 13 18  2  0  0  0  0 
 15 19  2  0  0  0  0 
 16 19  1  0  0  0  0 
 17 20  2  0  0  0  0 
 18 20  1  0  0  0  0 
  5 21  1  0  0  0  0 
  1 22  1  0  0  0  0 
  1 23  1  0  0  0  0 
  1 24  1  0  0  0  0 
  3 25  1  0  0  0  0 
  3 26  1  0  0  0  0 
  4 27  1  0  0  0  0 
  4 28  1  0  0  0  0 
  6 29  1  0  0  0  0 
  6 30  1  0  0  0  0 
 11 31  1  0  0  0  0 
 14 32  1  0  0  0  0 
 14 33  1  0  0  0  0 
 15 34  1  0  0  0  0 
 16 35  1  0  0  0  0 
 17 36  1  0  0  0  0 
 18 37  1  0  0  0  0 
 19 38  1  0  0  0  0 
 20 39  1  0  0  0  0 
M  END
> <cdk:Title>
mirtazapine

> <Conformer>
1

> <SuperDrugID>
SD001615

$$$$
