epitiostanol
  CDK     0628171801

 51 55  0  0  0  0  0  0  0  0999 V2000
   -5.7303   -1.2075    4.1365 C   0  0  0  0  0  0  0  0  0  0  0  0
   -4.7006   -0.4638    5.0682 C   0  0  1  0  0  0  0  0  0  0  0  0
   -3.3681   -0.0661    4.2843 C   0  0  2  0  0  0  0  0  0  0  0  0
   -5.3186    0.8570    5.6890 C   0  0  2  0  0  0  0  0  0  0  0  0
   -4.3518   -1.4246    6.2709 C   0  0  1  0  0  0  0  0  0  0  0  0
   -3.5956    1.0764    3.2139 C   0  0  2  0  0  0  0  0  0  0  0  0
   -2.5380   -1.2777    3.7134 C   0  0  1  0  0  0  0  0  0  0  0  0
   -6.6336    0.6208    6.4999 C   0  0  1  0  0  0  0  0  0  0  0  0
   -5.5271    1.9984    4.6476 C   0  0  1  0  0  0  0  0  0  0  0  0
   -5.4745   -1.6264    7.3250 C   0  0  2  0  0  0  0  0  0  0  0  0
   -2.2402    1.4208    2.5091 C   0  0  1  0  0  0  0  0  0  0  0  0
   -4.2267    2.3341    3.8813 C   0  0  1  0  0  0  0  0  0  0  0  0
   -1.2709   -0.8657    2.9039 C   0  0  1  0  0  0  0  0  0  0  0  0
   -6.5978   -0.5911    7.4591 C   0  0  1  0  0  0  0  0  0  0  0  0
   -5.3655   -0.5473    8.7748 S   0  0  0  0  0  0  0  0  0  0  0  0
   -1.5992    0.1876    1.7959 C   0  0  1  0  0  0  0  0  0  0  0  0
   -2.1793    2.5402    1.4438 C   0  0  1  0  0  0  0  0  0  0  0  0
   -2.4793   -0.4707    0.6620 C   0  0  0  0  0  0  0  0  0  0  0  0
   -0.3518    0.8726    1.1536 C   0  0  2  0  0  0  0  0  0  0  0  0
   -0.8640    2.2569    0.6725 C   0  0  2  0  0  0  0  0  0  0  0  0
    0.2482    0.1194    0.0997 O   0  0  0  0  0  0  0  0  0  0  0  0
   -2.7006    0.3763    5.0348 H   0  0  0  0  0  0  0  0  0  0  0  0
   -4.5925    1.2489    6.4114 H   0  0  0  0  0  0  0  0  0  0  0  0
   -4.2988    0.7344    2.4540 H   0  0  0  0  0  0  0  0  0  0  0  0
   -1.5668    1.7549    3.3140 H   0  0  0  0  0  0  0  0  0  0  0  0
   -6.6337   -1.4882    4.6791 H   0  0  0  0  0  0  0  0  0  0  0  0
   -5.3145   -2.1333    3.7392 H   0  0  0  0  0  0  0  0  0  0  0  0
   -6.0356   -0.5902    3.2938 H   0  0  0  0  0  0  0  0  0  0  0  0
   -4.0986   -2.4166    5.8887 H   0  0  0  0  0  0  0  0  0  0  0  0
   -3.4592   -1.0634    6.7902 H   0  0  0  0  0  0  0  0  0  0  0  0
   -2.2001   -1.9134    4.5352 H   0  0  0  0  0  0  0  0  0  0  0  0
   -3.1627   -1.8977    3.0730 H   0  0  0  0  0  0  0  0  0  0  0  0
   -6.8665    1.5103    7.0911 H   0  0  0  0  0  0  0  0  0  0  0  0
   -7.4681    0.4677    5.8106 H   0  0  0  0  0  0  0  0  0  0  0  0
   -6.3071    1.7252    3.9336 H   0  0  0  0  0  0  0  0  0  0  0  0
   -5.8598    2.9044    5.1625 H   0  0  0  0  0  0  0  0  0  0  0  0
   -5.7456   -2.6508    7.5894 H   0  0  0  0  0  0  0  0  0  0  0  0
   -3.5110    2.7846    4.5763 H   0  0  0  0  0  0  0  0  0  0  0  0
   -4.4633    3.0808    3.1183 H   0  0  0  0  0  0  0  0  0  0  0  0
   -0.5349   -0.4596    3.6042 H   0  0  0  0  0  0  0  0  0  0  0  0
   -0.8194   -1.7525    2.4515 H   0  0  0  0  0  0  0  0  0  0  0  0
   -7.5569   -0.9893    7.7982 H   0  0  0  0  0  0  0  0  0  0  0  0
   -3.0405    2.4873    0.7721 H   0  0  0  0  0  0  0  0  0  0  0  0
   -2.1602    3.5308    1.9055 H   0  0  0  0  0  0  0  0  0  0  0  0
   -3.4311   -0.8446    1.0326 H   0  0  0  0  0  0  0  0  0  0  0  0
   -2.7001    0.2304   -0.1433 H   0  0  0  0  0  0  0  0  0  0  0  0
   -1.9519   -1.3185    0.2196 H   0  0  0  0  0  0  0  0  0  0  0  0
    0.4223    1.0281    1.9137 H   0  0  0  0  0  0  0  0  0  0  0  0
   -0.1201    3.0288    0.8815 H   0  0  0  0  0  0  0  0  0  0  0  0
   -1.0520    2.2521   -0.4048 H   0  0  0  0  0  0  0  0  0  0  0  0
    1.0061    0.6618   -0.2035 H   0  0  0  0  0  0  0  0  0  0  0  0
  2  1  1  0  0  0  0 
  3  2  1  0  0  0  0 
  2  4  1  0  0  0  0 
  2  5  1  0  0  0  0 
  6  3  1  0  0  0  0 
  3  7  1  0  0  0  0 
  3 22  1  0  0  0  0 
  4  8  1  0  0  0  0 
  4  9  1  0  0  0  0 
  4 23  1  0  0  0  0 
 10  5  1  0  0  0  0 
 11  6  1  0  0  0  0 
  6 12  1  0  0  0  0 
  6 24  1  0  0  0  0 
  7 13  1  0  0  0  0 
 14  8  1  0  0  0  0 
  9 12  1  0  0  0  0 
 14 10  1  0  0  0  0 
 10 15  1  0  0  0  0 
 11 16  1  0  0  0  0 
 11 17  1  0  0  0  0 
 11 25  1  0  0  0  0 
 16 13  1  0  0  0  0 
 14 15  1  0  0  0  0 
 16 18  1  0  0  0  0 
 16 19  1  0  0  0  0 
 17 20  1  0  0  0  0 
 19 20  1  0  0  0  0 
 19 21  1  0  0  0  0 
  1 26  1  0  0  0  0 
  1 27  1  0  0  0  0 
  1 28  1  0  0  0  0 
  5 29  1  0  0  0  0 
  5 30  1  0  0  0  0 
  7 31  1  0  0  0  0 
  7 32  1  0  0  0  0 
  8 33  1  0  0  0  0 
  8 34  1  0  0  0  0 
  9 35  1  0  0  0  0 
  9 36  1  0  0  0  0 
 10 37  1  0  0  0  0 
 12 38  1  0  0  0  0 
 12 39  1  0  0  0  0 
 13 40  1  0  0  0  0 
 13 41  1  0  0  0  0 
 14 42  1  0  0  0  0 
 17 43  1  0  0  0  0 
 17 44  1  0  0  0  0 
 18 45  1  0  0  0  0 
 18 46  1  0  0  0  0 
 18 47  1  0  0  0  0 
 19 48  1  0  0  0  0 
 20 49  1  0  0  0  0 
 20 50  1  0  0  0  0 
 21 51  1  0  0  0  0 
M  END
> <cdk:Title>
epitiostanol

> <Conformer>
1

> <SuperDrugID>
SD002755

$$$$
