istradefylline
  CDK     0628171802

 52 54  0  0  0  0  0  0  0  0999 V2000
    6.0342   -1.8155   -7.3604 C   0  0  0  0  0  0  0  0  0  0  0  0
    7.3390   -2.0873   -7.7118 N   0  0  0  0  0  0  0  0  0  0  0  0
    8.3086   -2.1549   -6.7278 C   0  0  0  0  0  0  0  0  0  0  0  0
    7.9987   -2.0114   -5.3926 N   0  0  0  0  0  0  0  0  0  0  0  0
    6.7003   -1.7452   -5.0612 C   0  0  0  0  0  0  0  0  0  0  0  0
    5.6973   -1.6174   -6.0090 C   0  0  0  0  0  0  0  0  0  0  0  0
    6.1426   -1.5538   -3.8559 N   0  0  0  0  0  0  0  0  0  0  0  0
    4.8286   -1.3083   -4.0366 C   0  0  0  0  0  0  0  0  0  0  0  0
    4.5464   -1.3129   -5.3678 N   0  0  0  0  0  0  0  0  0  0  0  0
    3.2710   -1.0280   -5.9700 C   0  0  0  0  0  0  0  0  0  0  0  0
    3.9249   -1.0835   -3.0001 C   0  0  0  0  0  0  0  0  0  0  0  0
    4.2524   -0.8465   -1.7143 C   0  0  0  0  0  0  0  0  0  0  0  0
    3.3653   -0.5730   -0.6552 C   0  0  0  0  0  0  0  0  0  0  0  0
    3.8696   -0.5128    0.6701 C   0  0  0  0  0  0  0  0  0  0  0  0
    3.0384   -0.2110    1.7647 C   0  0  0  0  0  0  0  0  0  0  0  0
    1.6672    0.0447    1.5668 C   0  0  0  0  0  0  0  0  0  0  0  0
    1.1307   -0.0421    0.2645 C   0  0  0  0  0  0  0  0  0  0  0  0
    1.9764   -0.3264   -0.8263 C   0  0  0  0  0  0  0  0  0  0  0  0
   -0.2041    0.1854    0.0548 O   0  0  0  0  0  0  0  0  0  0  0  0
   -0.9764   -1.0244   -0.0546 C   0  0  0  0  0  0  0  0  0  0  0  0
    0.8618    0.3359    2.6399 O   0  0  0  0  0  0  0  0  0  0  0  0
    0.7182    1.7480    2.8839 C   0  0  0  0  0  0  0  0  0  0  0  0
    5.1284   -1.7449   -8.2240 O   0  0  0  0  0  0  0  0  0  0  0  0
    9.5088   -2.3443   -7.0549 O   0  0  0  0  0  0  0  0  0  0  0  0
    7.6877   -2.2834   -9.1132 C   0  0  2  0  0  0  0  0  0  0  0  0
    8.0288   -0.9449   -9.8049 C   0  0  0  0  0  0  0  0  0  0  0  0
    9.0049   -2.1103   -4.3547 C   0  0  1  0  0  0  0  0  0  0  0  0
    9.6799   -0.7439   -4.1062 C   0  0  0  0  0  0  0  0  0  0  0  0
    2.6767   -1.9418   -6.0115 H   0  0  0  0  0  0  0  0  0  0  0  0
    2.7254   -0.2731   -5.4011 H   0  0  0  0  0  0  0  0  0  0  0  0
    3.3734   -0.6233   -6.9752 H   0  0  0  0  0  0  0  0  0  0  0  0
    2.9687   -1.1030   -3.2465 H   0  0  0  0  0  0  0  0  0  0  0  0
    5.2239   -0.8551   -1.4918 H   0  0  0  0  0  0  0  0  0  0  0  0
    4.8602   -0.6918    0.8553 H   0  0  0  0  0  0  0  0  0  0  0  0
    3.4336   -0.1773    2.7066 H   0  0  0  0  0  0  0  0  0  0  0  0
    1.5461   -0.3410   -1.7505 H   0  0  0  0  0  0  0  0  0  0  0  0
   -2.0185   -0.7431   -0.2066 H   0  0  0  0  0  0  0  0  0  0  0  0
   -0.6619   -1.6303   -0.9092 H   0  0  0  0  0  0  0  0  0  0  0  0
   -0.9115   -1.6222    0.8586 H   0  0  0  0  0  0  0  0  0  0  0  0
    0.0667    1.8754    3.7485 H   0  0  0  0  0  0  0  0  0  0  0  0
    1.6811    2.2130    3.1118 H   0  0  0  0  0  0  0  0  0  0  0  0
    0.2573    2.2622    2.0357 H   0  0  0  0  0  0  0  0  0  0  0  0
    6.8705   -2.7614   -9.6616 H   0  0  0  0  0  0  0  0  0  0  0  0
    8.5360   -2.9648   -9.2249 H   0  0  0  0  0  0  0  0  0  0  0  0
    8.2670   -1.1211  -10.8554 H   0  0  0  0  0  0  0  0  0  0  0  0
    7.1792   -0.2635   -9.7505 H   0  0  0  0  0  0  0  0  0  0  0  0
    8.8891   -0.4757   -9.3251 H   0  0  0  0  0  0  0  0  0  0  0  0
    8.5763   -2.4667   -3.4139 H   0  0  0  0  0  0  0  0  0  0  0  0
    9.7721   -2.8434   -4.6211 H   0  0  0  0  0  0  0  0  0  0  0  0
   10.4418   -0.8409   -3.3307 H   0  0  0  0  0  0  0  0  0  0  0  0
   10.1557   -0.3799   -5.0189 H   0  0  0  0  0  0  0  0  0  0  0  0
    8.9384   -0.0122   -3.7804 H   0  0  0  0  0  0  0  0  0  0  0  0
  1  2  1  0  0  0  0 
  1  6  1  0  0  0  0 
  2  3  1  0  0  0  0 
  3  4  1  0  0  0  0 
  4  5  1  0  0  0  0 
  5  6  2  0  0  0  0 
  7  8  2  0  0  0  0 
  8  9  1  0  0  0  0 
  5  7  1  0  0  0  0 
  6  9  1  0  0  0  0 
  9 10  1  0  0  0  0 
  8 11  1  0  0  0  0 
 11 12  2  0  0  0  0 
 12 13  1  0  0  0  0 
 14 15  1  0  0  0  0 
 15 16  2  0  0  0  0 
 16 17  1  0  0  0  0 
 17 18  2  0  0  0  0 
 13 14  2  0  0  0  0 
 13 18  1  0  0  0  0 
 17 19  1  0  0  0  0 
 19 20  1  0  0  0  0 
 16 21  1  0  0  0  0 
 21 22  1  0  0  0  0 
  1 23  2  0  0  0  0 
  3 24  2  0  0  0  0 
  2 25  1  0  0  0  0 
 25 26  1  0  0  0  0 
  4 27  1  0  0  0  0 
 27 28  1  0  0  0  0 
 10 29  1  0  0  0  0 
 10 30  1  0  0  0  0 
 10 31  1  0  0  0  0 
 11 32  1  0  0  0  0 
 12 33  1  0  0  0  0 
 14 34  1  0  0  0  0 
 15 35  1  0  0  0  0 
 18 36  1  0  0  0  0 
 20 37  1  0  0  0  0 
 20 38  1  0  0  0  0 
 20 39  1  0  0  0  0 
 22 40  1  0  0  0  0 
 22 41  1  0  0  0  0 
 22 42  1  0  0  0  0 
 25 43  1  0  0  0  0 
 25 44  1  0  0  0  0 
 26 45  1  0  0  0  0 
 26 46  1  0  0  0  0 
 26 47  1  0  0  0  0 
 27 48  1  0  0  0  0 
 27 49  1  0  0  0  0 
 28 50  1  0  0  0  0 
 28 51  1  0  0  0  0 
 28 52  1  0  0  0  0 
M  END
> <cdk:Title>
istradefylline

> <Conformer>
1

> <SuperDrugID>
SD003822

$$$$
