guanabenz
  CDK     0628171801

 22 22  0  0  0  0  0  0  0  0999 V2000
   -3.2558   -1.6206   -1.0540 N   0  0  0  0  0  0  0  0  0  0  0  0
   -2.3458   -2.3310   -0.4154 C   0  0  0  0  0  0  0  0  0  0  0  0
   -2.5986   -3.5569   -0.1619 N   0  0  0  0  0  0  0  0  0  0  0  0
   -1.1822   -1.8299   -0.0260 N   0  0  0  0  0  0  0  0  0  0  0  0
   -0.8828   -0.6007   -0.1383 N   0  0  0  0  0  0  0  0  0  0  0  0
    0.2524   -0.1046    0.1909 C   0  0  0  0  0  0  0  0  0  0  0  0
    0.5413    1.2507    0.0545 C   0  0  0  0  0  0  0  0  0  0  0  0
    1.8000    1.6458   -0.4866 C   0  0  0  0  0  0  0  0  0  0  0  0
    2.9859    0.5422   -1.0065 Cl  0  0  0  0  0  0  0  0  0  0  0  0
    2.1176    3.0118   -0.6327 C   0  0  0  0  0  0  0  0  0  0  0  0
    1.1991    3.9998   -0.2507 C   0  0  0  0  0  0  0  0  0  0  0  0
   -0.0394    3.6301    0.2937 C   0  0  0  0  0  0  0  0  0  0  0  0
   -0.3741    2.2704    0.4540 C   0  0  0  0  0  0  0  0  0  0  0  0
   -1.8775    1.9521    1.1822 Cl  0  0  0  0  0  0  0  0  0  0  0  0
   -3.0835   -0.6895   -1.2693 H   0  0  0  0  0  0  0  0  0  0  0  0
   -4.0971   -2.0288   -1.3119 H   0  0  0  0  0  0  0  0  0  0  0  0
   -3.4145   -3.9368   -0.4240 H   0  0  0  0  0  0  0  0  0  0  0  0
   -0.5329   -2.4302    0.3764 H   0  0  0  0  0  0  0  0  0  0  0  0
    0.9636   -0.7125    0.5309 H   0  0  0  0  0  0  0  0  0  0  0  0
    3.0185    3.3008   -1.0226 H   0  0  0  0  0  0  0  0  0  0  0  0
    1.4321    4.9891   -0.3691 H   0  0  0  0  0  0  0  0  0  0  0  0
   -0.6939    4.3650    0.5764 H   0  0  0  0  0  0  0  0  0  0  0  0
  1  2  1  0  0  0  0 
  2  3  2  0  0  0  0 
  2  4  1  0  0  0  0 
  5  4  1  0  0  0  0 
  5  6  2  0  0  0  0 
  6  7  1  0  0  0  0 
  7  8  2  0  0  0  0 
  8  9  1  0  0  0  0 
  8 10  1  0  0  0  0 
 10 11  2  0  0  0  0 
 11 12  1  0  0  0  0 
 12 13  2  0  0  0  0 
  7 13  1  0  0  0  0 
 13 14  1  0  0  0  0 
 15  1  1  0  0  0  0 
 16  1  1  0  0  0  0 
 17  3  1  0  0  0  0 
 18  4  1  0  0  0  0 
 19  6  1  0  0  0  0 
 20 10  1  0  0  0  0 
 21 11  1  0  0  0  0 
 22 12  1  0  0  0  0 
M  END
> <cdk:Title>
guanabenz

> <Conformer>
1

> <SuperDrugID>
SD003305

$$$$
