nilvadipine
  CDK     0628171801

 47 48  0  0  0  0  0  0  0  0999 V2000
   -1.7252   -2.9359   -6.4367 C   0  0  0  0  0  0  0  0  0  0  0  0
   -0.4429   -2.7195   -6.8695 O   0  0  0  0  0  0  0  0  0  0  0  0
   -2.4992   -3.5412   -7.2173 O   0  0  0  0  0  0  0  0  0  0  0  0
   -2.1276   -2.4801   -5.1606 C   0  0  0  0  0  0  0  0  0  0  0  0
    0.1153   -3.0564   -8.1431 C   0  0  0  0  0  0  0  0  0  0  0  0
   -1.1013   -1.8482   -4.2850 C   0  0  2  0  0  0  0  0  0  0  0  0
   -3.3969   -2.5567   -4.6775 C   0  0  0  0  0  0  0  0  0  0  0  0
   -1.5109   -1.5543   -2.8895 C   0  0  0  0  0  0  0  0  0  0  0  0
   -0.5538   -0.5839   -4.8977 C   0  0  0  0  0  0  0  0  0  0  0  0
   -4.4103   -3.0215   -5.2993 C   0  0  0  0  0  0  0  0  0  0  0  0
   -3.6975   -2.1231   -3.4502 N   0  0  0  0  0  0  0  0  0  0  0  0
   -0.5242   -1.1900   -1.9691 C   0  0  0  0  0  0  0  0  0  0  0  0
   -2.8166   -1.6846   -2.5418 C   0  0  0  0  0  0  0  0  0  0  0  0
    0.8431   -0.3554   -4.9424 C   0  0  0  0  0  0  0  0  0  0  0  0
   -1.4062    0.4056   -5.4420 C   0  0  0  0  0  0  0  0  0  0  0  0
   -5.3315   -3.4369   -5.8449 N   0  0  0  0  0  0  0  0  0  0  0  0
   -0.6807   -0.0901   -1.1754 O   0  0  0  0  0  0  0  0  0  0  0  0
    0.5263   -1.8711   -1.8933 O   0  0  0  0  0  0  0  0  0  0  0  0
   -3.3533   -1.4242   -1.2084 C   0  0  0  0  0  0  0  0  0  0  0  0
    1.4067    0.8184   -5.5058 C   0  0  0  0  0  0  0  0  0  0  0  0
   -0.8774    1.5624   -6.0353 C   0  0  0  0  0  0  0  0  0  0  0  0
    0.1818    0.3631   -0.1172 C   0  0  2  0  0  0  0  0  0  0  0  0
    2.7389    1.0152   -5.5059 N   0  0  0  0  0  0  0  0  0  0  0  0
    0.5120    1.7680   -6.0623 C   0  0  0  0  0  0  0  0  0  0  0  0
   -0.6563    0.3798    1.1802 C   0  0  0  0  0  0  0  0  0  0  0  0
    0.7760    1.7443   -0.4745 C   0  0  0  0  0  0  0  0  0  0  0  0
    3.2518    1.9025   -6.0679 O   0  0  0  0  0  0  0  0  0  0  0  0
    3.5466    0.2532   -4.8839 O   0  0  0  0  0  0  0  0  0  0  0  0
    0.1052   -4.1371   -8.2864 H   0  0  0  0  0  0  0  0  0  0  0  0
    1.1463   -2.7052   -8.1859 H   0  0  0  0  0  0  0  0  0  0  0  0
   -0.4523   -2.5763   -8.9421 H   0  0  0  0  0  0  0  0  0  0  0  0
   -0.3073   -2.6024   -4.2078 H   0  0  0  0  0  0  0  0  0  0  0  0
   -4.6307   -2.1515   -3.1823 H   0  0  0  0  0  0  0  0  0  0  0  0
    1.4652   -1.0641   -4.5471 H   0  0  0  0  0  0  0  0  0  0  0  0
   -2.4217    0.2855   -5.4213 H   0  0  0  0  0  0  0  0  0  0  0  0
   -4.4224   -1.6468   -1.1344 H   0  0  0  0  0  0  0  0  0  0  0  0
   -2.8358   -2.0439   -0.4729 H   0  0  0  0  0  0  0  0  0  0  0  0
   -3.2210   -0.3724   -0.9513 H   0  0  0  0  0  0  0  0  0  0  0  0
   -1.5059    2.2560   -6.4488 H   0  0  0  0  0  0  0  0  0  0  0  0
    1.0212   -0.3218    0.0386 H   0  0  0  0  0  0  0  0  0  0  0  0
    0.8645    2.6264   -6.4920 H   0  0  0  0  0  0  0  0  0  0  0  0
   -0.0475    0.6997    2.0275 H   0  0  0  0  0  0  0  0  0  0  0  0
   -1.0306   -0.6255    1.3836 H   0  0  0  0  0  0  0  0  0  0  0  0
   -1.5089    1.0532    1.0773 H   0  0  0  0  0  0  0  0  0  0  0  0
    1.4384    2.0862    0.3242 H   0  0  0  0  0  0  0  0  0  0  0  0
    1.3585    1.6691   -1.3947 H   0  0  0  0  0  0  0  0  0  0  0  0
   -0.0142    2.4815   -0.6209 H   0  0  0  0  0  0  0  0  0  0  0  0
  1  2  1  0  0  0  0 
  1  3  2  0  0  0  0 
  1  4  1  0  0  0  0 
  2  5  1  0  0  0  0 
  6  4  1  0  0  0  0 
  4  7  2  0  0  0  0 
  6  8  1  0  0  0  0 
  6  9  1  0  0  0  0 
  7 10  1  0  0  0  0 
  7 11  1  0  0  0  0 
  8 12  1  0  0  0  0 
  8 13  2  0  0  0  0 
  9 14  2  0  0  0  0 
  9 15  1  0  0  0  0 
 10 16  3  0  0  0  0 
 11 13  1  0  0  0  0 
 12 17  1  0  0  0  0 
 12 18  2  0  0  0  0 
 13 19  1  0  0  0  0 
 14 20  1  0  0  0  0 
 15 21  2  0  0  0  0 
 17 22  1  0  0  0  0 
 20 23  1  0  0  0  0 
 20 24  2  0  0  0  0 
 21 24  1  0  0  0  0 
 22 25  1  0  0  0  0 
 22 26  1  0  0  0  0 
 23 27  2  0  0  0  0 
 23 28  1  0  0  0  0 
 29  5  1  0  0  0  0 
 30  5  1  0  0  0  0 
 31  5  1  0  0  0  0 
 32  6  1  0  0  0  0 
 33 11  1  0  0  0  0 
 34 14  1  0  0  0  0 
 35 15  1  0  0  0  0 
 36 19  1  0  0  0  0 
 37 19  1  0  0  0  0 
 38 19  1  0  0  0  0 
 39 21  1  0  0  0  0 
 40 22  1  0  0  0  0 
 41 24  1  0  0  0  0 
 42 25  1  0  0  0  0 
 43 25  1  0  0  0  0 
 44 25  1  0  0  0  0 
 45 26  1  0  0  0  0 
 46 26  1  0  0  0  0 
 47 26  1  0  0  0  0 
M  CHG  1  23   1
M  CHG  1  28  -1
M  END
> <cdk:Title>
nilvadipine

> <Conformer>
1

> <SuperDrugID>
SD001729

$$$$
