bromopride
  CDK     0628171801

 42 42  0  0  0  0  0  0  0  0999 V2000
    2.2881   -1.4476    1.1461 C   0  0  0  0  0  0  0  0  0  0  0  0
    3.5196   -1.8778    1.5540 N   0  0  0  0  0  0  0  0  0  0  0  0
    1.4821   -2.2696    0.6476 O   0  0  0  0  0  0  0  0  0  0  0  0
    1.8942   -0.0883    1.3147 C   0  0  0  0  0  0  0  0  0  0  0  0
    3.9853   -3.2277    1.5218 C   0  0  2  0  0  0  0  0  0  0  0  0
    0.9179    0.5230    0.4800 C   0  0  0  0  0  0  0  0  0  0  0  0
    2.4561    0.6841    2.3617 C   0  0  0  0  0  0  0  0  0  0  0  0
    4.4006   -3.7074    0.1038 C   0  0  2  0  0  0  0  0  0  0  0  0
    0.3654   -0.1400   -0.5888 O   0  0  0  0  0  0  0  0  0  0  0  0
    0.4776    1.8371    0.7478 C   0  0  0  0  0  0  0  0  0  0  0  0
    2.0436    2.0073    2.6019 C   0  0  0  0  0  0  0  0  0  0  0  0
    5.3516   -2.7994   -0.6386 N   0  0  1  0  0  0  0  0  0  0  0  0
    1.0183    0.1522   -1.8392 C   0  0  0  0  0  0  0  0  0  0  0  0
    1.0379    2.5828    1.8009 C   0  0  0  0  0  0  0  0  0  0  0  0
    2.8440    2.9474    3.9983 Br  0  0  0  0  0  0  0  0  0  0  0  0
    6.7396   -2.8117   -0.0468 C   0  0  1  0  0  0  0  0  0  0  0  0
    5.3347   -3.0384   -2.1263 C   0  0  1  0  0  0  0  0  0  0  0  0
    0.5992    3.8354    2.0269 N   0  0  0  0  0  0  0  0  0  0  0  0
    7.7058   -1.7132   -0.5571 C   0  0  0  0  0  0  0  0  0  0  0  0
    4.0471   -2.5727   -2.8489 C   0  0  0  0  0  0  0  0  0  0  0  0
    4.1343   -1.2116    1.9022 H   0  0  0  0  0  0  0  0  0  0  0  0
    3.2104   -3.8897    1.9202 H   0  0  0  0  0  0  0  0  0  0  0  0
    4.8322   -3.3037    2.2037 H   0  0  0  0  0  0  0  0  0  0  0  0
    3.1673    0.2840    2.9788 H   0  0  0  0  0  0  0  0  0  0  0  0
    3.4677   -3.8255   -0.4483 H   0  0  0  0  0  0  0  0  0  0  0  0
    4.8335   -4.7079    0.1892 H   0  0  0  0  0  0  0  0  0  0  0  0
   -0.2524    2.2504    0.1626 H   0  0  0  0  0  0  0  0  0  0  0  0
    0.5991   -0.5045   -2.6015 H   0  0  0  0  0  0  0  0  0  0  0  0
    0.8462    1.1867   -2.1475 H   0  0  0  0  0  0  0  0  0  0  0  0
    2.0935   -0.0324   -1.7862 H   0  0  0  0  0  0  0  0  0  0  0  0
    6.6713   -2.6495    1.0294 H   0  0  0  0  0  0  0  0  0  0  0  0
    7.2072   -3.7896   -0.1995 H   0  0  0  0  0  0  0  0  0  0  0  0
    6.1356   -2.4754   -2.6041 H   0  0  0  0  0  0  0  0  0  0  0  0
    5.5076   -4.0958   -2.3464 H   0  0  0  0  0  0  0  0  0  0  0  0
    0.9666    4.3571    2.7572 H   0  0  0  0  0  0  0  0  0  0  0  0
   -0.0956    4.2140    1.4651 H   0  0  0  0  0  0  0  0  0  0  0  0
    8.1056   -1.9694   -1.5402 H   0  0  0  0  0  0  0  0  0  0  0  0
    7.1901   -0.7526   -0.6137 H   0  0  0  0  0  0  0  0  0  0  0  0
    8.5517   -1.6166    0.1287 H   0  0  0  0  0  0  0  0  0  0  0  0
    4.1922   -2.6238   -3.9307 H   0  0  0  0  0  0  0  0  0  0  0  0
    3.8214   -1.5409   -2.5798 H   0  0  0  0  0  0  0  0  0  0  0  0
    3.1940   -3.2034   -2.6012 H   0  0  0  0  0  0  0  0  0  0  0  0
  1  2  1  0  0  0  0 
  1  3  2  0  0  0  0 
  1  4  1  0  0  0  0 
  2  5  1  0  0  0  0 
  4  6  2  0  0  0  0 
  4  7  1  0  0  0  0 
  5  8  1  0  0  0  0 
  6  9  1  0  0  0  0 
  6 10  1  0  0  0  0 
  7 11  2  0  0  0  0 
  8 12  1  0  0  0  0 
  9 13  1  0  0  0  0 
 10 14  2  0  0  0  0 
 11 14  1  0  0  0  0 
 11 15  1  0  0  0  0 
 12 16  1  0  0  0  0 
 12 17  1  0  0  0  0 
 14 18  1  0  0  0  0 
 16 19  1  0  0  0  0 
 17 20  1  0  0  0  0 
  2 21  1  0  0  0  0 
  5 22  1  0  0  0  0 
  5 23  1  0  0  0  0 
  7 24  1  0  0  0  0 
  8 25  1  0  0  0  0 
  8 26  1  0  0  0  0 
 10 27  1  0  0  0  0 
 13 28  1  0  0  0  0 
 13 29  1  0  0  0  0 
 13 30  1  0  0  0  0 
 16 31  1  0  0  0  0 
 16 32  1  0  0  0  0 
 17 33  1  0  0  0  0 
 17 34  1  0  0  0  0 
 18 35  1  0  0  0  0 
 18 36  1  0  0  0  0 
 19 37  1  0  0  0  0 
 19 38  1  0  0  0  0 
 19 39  1  0  0  0  0 
 20 40  1  0  0  0  0 
 20 41  1  0  0  0  0 
 20 42  1  0  0  0  0 
M  END
> <cdk:Title>
bromopride

> <Conformer>
1

> <SuperDrugID>
SD000348

$$$$
