clofazimine
  CDK     0628171802

 55 59  0  0  0  0  0  0  0  0999 V2000
    5.2485    9.3680   -4.0108 N   0  0  0  0  0  0  0  0  0  0  0  0
    4.9411   10.5116   -4.7491 C   0  0  2  0  0  0  0  0  0  0  0  0
    4.4027    8.4964   -3.5058 C   0  0  0  0  0  0  0  0  0  0  0  0
    5.8136   10.4994   -6.0276 C   0  0  0  0  0  0  0  0  0  0  0  0
    5.1886   11.7774   -3.8888 C   0  0  0  0  0  0  0  0  0  0  0  0
    3.7230    7.6016   -4.3575 C   0  0  0  0  0  0  0  0  0  0  0  0
    4.2036    8.4424   -2.1082 C   0  0  0  0  0  0  0  0  0  0  0  0
    2.8161    6.6308   -3.8535 C   0  0  0  0  0  0  0  0  0  0  0  0
    4.8089    9.3940   -1.3381 N   0  0  0  0  0  0  0  0  0  0  0  0
    3.3229    7.4747   -1.5825 C   0  0  0  0  0  0  0  0  0  0  0  0
    2.1070    5.7379   -4.6431 N   0  0  0  0  0  0  0  0  0  0  0  0
    2.6313    6.5982   -2.4433 C   0  0  0  0  0  0  0  0  0  0  0  0
    5.4634    9.2976   -0.1444 C   0  0  0  0  0  0  0  0  0  0  0  0
    1.2299    4.8264   -4.0775 C   0  0  0  0  0  0  0  0  0  0  0  0
    2.2705    5.7681   -6.0138 C   0  0  0  0  0  0  0  0  0  0  0  0
    1.7511    5.7188   -1.9153 N   0  0  0  0  0  0  0  0  0  0  0  0
    5.9447    8.0947    0.4242 C   0  0  0  0  0  0  0  0  0  0  0  0
    5.7294   10.5175    0.5185 C   0  0  0  0  0  0  0  0  0  0  0  0
    1.0420    4.8471   -2.6661 C   0  0  0  0  0  0  0  0  0  0  0  0
    0.4934    3.8558   -4.8126 C   0  0  0  0  0  0  0  0  0  0  0  0
    3.3590    5.0970   -6.6148 C   0  0  0  0  0  0  0  0  0  0  0  0
    1.3668    6.4818   -6.8348 C   0  0  0  0  0  0  0  0  0  0  0  0
    6.7132    8.1234    1.6069 C   0  0  0  0  0  0  0  0  0  0  0  0
    6.4744   10.5459    1.7114 C   0  0  0  0  0  0  0  0  0  0  0  0
    0.1336    3.9790   -2.0291 C   0  0  0  0  0  0  0  0  0  0  0  0
   -0.4146    2.9880   -4.1797 C   0  0  0  0  0  0  0  0  0  0  0  0
    3.5502    5.1505   -8.0081 C   0  0  0  0  0  0  0  0  0  0  0  0
    1.5571    6.5345   -8.2293 C   0  0  0  0  0  0  0  0  0  0  0  0
    6.9815    9.3489    2.2521 C   0  0  0  0  0  0  0  0  0  0  0  0
   -0.6030    3.0571   -2.7900 C   0  0  0  0  0  0  0  0  0  0  0  0
    2.6529    5.8732   -8.8188 C   0  0  0  0  0  0  0  0  0  0  0  0
    7.9026    9.3908    3.6747 Cl  0  0  0  0  0  0  0  0  0  0  0  0
    2.8972    5.9500  -10.4936 Cl  0  0  0  0  0  0  0  0  0  0  0  0
    3.8888   10.5139   -5.0609 H   0  0  0  0  0  0  0  0  0  0  0  0
    5.5890    9.6120   -6.6242 H   0  0  0  0  0  0  0  0  0  0  0  0
    5.6120   11.3813   -6.6388 H   0  0  0  0  0  0  0  0  0  0  0  0
    6.8761   10.4903   -5.7751 H   0  0  0  0  0  0  0  0  0  0  0  0
    5.1177   12.6747   -4.5065 H   0  0  0  0  0  0  0  0  0  0  0  0
    4.4348   11.8478   -3.1027 H   0  0  0  0  0  0  0  0  0  0  0  0
    6.1785   11.7476   -3.4246 H   0  0  0  0  0  0  0  0  0  0  0  0
    3.8911    7.6748   -5.3632 H   0  0  0  0  0  0  0  0  0  0  0  0
    4.8011   10.2830   -1.7224 H   0  0  0  0  0  0  0  0  0  0  0  0
    3.1575    7.4277   -0.5730 H   0  0  0  0  0  0  0  0  0  0  0  0
    5.7584    7.1954   -0.0258 H   0  0  0  0  0  0  0  0  0  0  0  0
    5.3822   11.3996    0.1288 H   0  0  0  0  0  0  0  0  0  0  0  0
    0.6121    3.7617   -5.8235 H   0  0  0  0  0  0  0  0  0  0  0  0
    4.0200    4.5730   -6.0366 H   0  0  0  0  0  0  0  0  0  0  0  0
    0.5679    6.9679   -6.4187 H   0  0  0  0  0  0  0  0  0  0  0  0
    7.0782    7.2489    1.9946 H   0  0  0  0  0  0  0  0  0  0  0  0
    6.6442   11.4396    2.1800 H   0  0  0  0  0  0  0  0  0  0  0  0
    0.0038    4.0146   -1.0143 H   0  0  0  0  0  0  0  0  0  0  0  0
   -0.9365    2.3045   -4.7326 H   0  0  0  0  0  0  0  0  0  0  0  0
    4.3466    4.6626   -8.4262 H   0  0  0  0  0  0  0  0  0  0  0  0
    0.8970    7.0589   -8.8094 H   0  0  0  0  0  0  0  0  0  0  0  0
   -1.2729    2.4356   -2.3332 H   0  0  0  0  0  0  0  0  0  0  0  0
  1  2  1  0  0  0  0 
  1  3  2  0  0  0  0 
  2  4  1  0  0  0  0 
  2  5  1  0  0  0  0 
  3  6  1  0  0  0  0 
  3  7  1  0  0  0  0 
  6  8  2  0  0  0  0 
  7  9  1  0  0  0  0 
  7 10  2  0  0  0  0 
  8 11  1  0  0  0  0 
  8 12  1  0  0  0  0 
  9 13  1  0  0  0  0 
 10 12  1  0  0  0  0 
 11 14  1  0  0  0  0 
 11 15  1  0  0  0  0 
 12 16  2  0  0  0  0 
 13 17  2  0  0  0  0 
 13 18  1  0  0  0  0 
 14 19  1  0  0  0  0 
 14 20  2  0  0  0  0 
 15 21  2  0  0  0  0 
 15 22  1  0  0  0  0 
 16 19  1  0  0  0  0 
 17 23  1  0  0  0  0 
 18 24  2  0  0  0  0 
 19 25  2  0  0  0  0 
 20 26  1  0  0  0  0 
 21 27  1  0  0  0  0 
 22 28  2  0  0  0  0 
 23 29  2  0  0  0  0 
 24 29  1  0  0  0  0 
 25 30  1  0  0  0  0 
 26 30  2  0  0  0  0 
 27 31  2  0  0  0  0 
 28 31  1  0  0  0  0 
 29 32  1  0  0  0  0 
 31 33  1  0  0  0  0 
  2 34  1  0  0  0  0 
  4 35  1  0  0  0  0 
  4 36  1  0  0  0  0 
  4 37  1  0  0  0  0 
  5 38  1  0  0  0  0 
  5 39  1  0  0  0  0 
  5 40  1  0  0  0  0 
  6 41  1  0  0  0  0 
  9 42  1  0  0  0  0 
 10 43  1  0  0  0  0 
 17 44  1  0  0  0  0 
 18 45  1  0  0  0  0 
 20 46  1  0  0  0  0 
 21 47  1  0  0  0  0 
 22 48  1  0  0  0  0 
 23 49  1  0  0  0  0 
 24 50  1  0  0  0  0 
 25 51  1  0  0  0  0 
 26 52  1  0  0  0  0 
 27 53  1  0  0  0  0 
 28 54  1  0  0  0  0 
 30 55  1  0  0  0  0 
M  END
> <cdk:Title>
clofazimine

> <Conformer>
1

> <SuperDrugID>
SD000609

$$$$
