nizatidine
  CDK     0628171801

 42 42  0  0  0  0  0  0  0  0999 V2000
   -7.8692   -0.5729   -0.8999 C   0  0  2  0  0  0  0  0  0  0  0  0
   -8.1376   -1.3066   -2.1761 N   0  0  1  0  0  0  0  0  0  0  0  0
   -6.5593    0.0952   -0.9574 C   0  0  0  0  0  0  0  0  0  0  0  0
   -7.2983   -2.5308   -2.3504 C   0  0  0  0  0  0  0  0  0  0  0  0
   -9.5848   -1.5891   -2.3892 C   0  0  0  0  0  0  0  0  0  0  0  0
   -5.4289   -0.2782   -0.3162 N   0  0  0  0  0  0  0  0  0  0  0  0
   -6.1519    1.5016   -1.9261 S   0  0  0  0  0  0  0  0  0  0  0  0
   -4.3032    0.4532   -0.5619 C   0  0  0  0  0  0  0  0  0  0  0  0
   -4.4659    1.5273   -1.4505 C   0  0  0  0  0  0  0  0  0  0  0  0
   -3.0133    0.0938    0.0559 C   0  0  1  0  0  0  0  0  0  0  0  0
   -3.0441    0.4291    1.8476 S   0  0  0  0  0  0  0  0  0  0  0  0
   -1.5305   -0.3828    2.4669 C   0  0  1  0  0  0  0  0  0  0  0  0
   -1.1653    0.0167    3.9167 C   0  0  2  0  0  0  0  0  0  0  0  0
   -2.1863   -0.2818    4.8162 N   0  0  0  0  0  0  0  0  0  0  0  0
   -2.3068   -0.1466    6.0963 C   0  0  0  0  0  0  0  0  0  0  0  0
   -3.5746   -0.5219    6.7196 C   0  0  1  0  0  0  0  0  0  0  0  0
   -1.3969    0.3354    6.9614 N   0  0  0  0  0  0  0  0  0  0  0  0
    0.0045    0.5075    6.7872 C   0  0  0  0  0  0  0  0  0  0  0  0
   -4.4967   -1.1605    5.8799 N   0  0  0  0  0  0  0  0  0  0  0  0
   -5.4505   -0.6184    5.4809 O   0  0  0  0  0  0  0  0  0  0  0  0
   -4.3209   -2.3704    5.5358 O   0  0  0  0  0  0  0  0  0  0  0  0
   -7.9073   -1.2588   -0.0466 H   0  0  0  0  0  0  0  0  0  0  0  0
   -8.6148    0.2113   -0.7358 H   0  0  0  0  0  0  0  0  0  0  0  0
   -7.5396   -3.2795   -1.5941 H   0  0  0  0  0  0  0  0  0  0  0  0
   -6.2357   -2.2937   -2.2761 H   0  0  0  0  0  0  0  0  0  0  0  0
   -7.4628   -2.9679   -3.3379 H   0  0  0  0  0  0  0  0  0  0  0  0
   -9.9750   -2.2484   -1.6098 H   0  0  0  0  0  0  0  0  0  0  0  0
   -9.7433   -2.0600   -3.3614 H   0  0  0  0  0  0  0  0  0  0  0  0
  -10.1548   -0.6579   -2.3829 H   0  0  0  0  0  0  0  0  0  0  0  0
   -3.7547    2.1908   -1.7644 H   0  0  0  0  0  0  0  0  0  0  0  0
   -2.8208   -0.9667   -0.1162 H   0  0  0  0  0  0  0  0  0  0  0  0
   -2.1945    0.6641   -0.3886 H   0  0  0  0  0  0  0  0  0  0  0  0
   -1.6674   -1.4652    2.4057 H   0  0  0  0  0  0  0  0  0  0  0  0
   -0.6999   -0.1051    1.8137 H   0  0  0  0  0  0  0  0  0  0  0  0
   -0.9530    1.0877    3.9460 H   0  0  0  0  0  0  0  0  0  0  0  0
   -0.2628   -0.5314    4.1912 H   0  0  0  0  0  0  0  0  0  0  0  0
   -3.3784   -1.1907    7.5654 H   0  0  0  0  0  0  0  0  0  0  0  0
   -4.0208    0.3865    7.1406 H   0  0  0  0  0  0  0  0  0  0  0  0
   -1.7324    0.5667    7.8410 H   0  0  0  0  0  0  0  0  0  0  0  0
    0.4355    0.8040    7.7449 H   0  0  0  0  0  0  0  0  0  0  0  0
    0.4754   -0.4276    6.4812 H   0  0  0  0  0  0  0  0  0  0  0  0
    0.2165    1.2933    6.0640 H   0  0  0  0  0  0  0  0  0  0  0  0
  1  2  1  0  0  0  0 
  1  3  1  0  0  0  0 
  2  4  1  0  0  0  0 
  2  5  1  0  0  0  0 
  3  6  2  0  0  0  0 
  3  7  1  0  0  0  0 
  6  8  1  0  0  0  0 
  7  9  1  0  0  0  0 
  8  9  2  0  0  0  0 
  8 10  1  0  0  0  0 
 10 11  1  0  0  0  0 
 11 12  1  0  0  0  0 
 12 13  1  0  0  0  0 
 14 13  1  0  0  0  0 
 14 15  2  0  0  0  0 
 15 16  1  0  0  0  0 
 15 17  1  0  0  0  0 
 17 18  1  0  0  0  0 
 16 19  1  0  0  0  0 
 19 20  2  0  0  0  0 
 19 21  1  0  0  0  0 
 22  1  1  0  0  0  0 
 23  1  1  0  0  0  0 
 24  4  1  0  0  0  0 
 25  4  1  0  0  0  0 
 26  4  1  0  0  0  0 
 27  5  1  0  0  0  0 
 28  5  1  0  0  0  0 
 29  5  1  0  0  0  0 
 30  9  1  0  0  0  0 
 31 10  1  0  0  0  0 
 32 10  1  0  0  0  0 
 33 12  1  0  0  0  0 
 34 12  1  0  0  0  0 
 35 13  1  0  0  0  0 
 36 13  1  0  0  0  0 
 37 16  1  0  0  0  0 
 38 16  1  0  0  0  0 
 39 17  1  0  0  0  0 
 40 18  1  0  0  0  0 
 41 18  1  0  0  0  0 
 42 18  1  0  0  0  0 
M  CHG  1  19   1
M  CHG  1  21  -1
M  END
> <cdk:Title>
nizatidine

> <Conformer>
1

> <SuperDrugID>
SD001747

$$$$
