lefetamine
  CDK     0628171801

 36 37  0  0  0  0  0  0  0  0999 V2000
   -2.4086   -1.1700    0.5236 C   0  0  1  0  0  0  0  0  0  0  0  0
   -1.1388   -1.5598   -0.3044 C   0  0  1  0  0  0  0  0  0  0  0  0
   -2.9615    0.1826    0.1503 N   0  0  1  0  0  0  0  0  0  0  0  0
   -3.4444   -2.2611    0.5841 C   0  0  0  0  0  0  0  0  0  0  0  0
   -0.4680   -2.7870    0.2098 C   0  0  0  0  0  0  0  0  0  0  0  0
   -3.4022    0.4232   -1.2581 C   0  0  0  0  0  0  0  0  0  0  0  0
   -3.9178    0.7528    1.1475 C   0  0  0  0  0  0  0  0  0  0  0  0
   -4.0470   -2.7798   -0.5885 C   0  0  0  0  0  0  0  0  0  0  0  0
   -3.8299   -2.8206    1.8295 C   0  0  0  0  0  0  0  0  0  0  0  0
    0.5115   -2.7117    1.2286 C   0  0  0  0  0  0  0  0  0  0  0  0
   -0.8247   -4.0598   -0.2945 C   0  0  0  0  0  0  0  0  0  0  0  0
   -4.9937   -3.8177   -0.5229 C   0  0  0  0  0  0  0  0  0  0  0  0
   -4.7631   -3.8716    1.8970 C   0  0  0  0  0  0  0  0  0  0  0  0
    1.1151   -3.8787    1.7344 C   0  0  0  0  0  0  0  0  0  0  0  0
   -0.2306   -5.2265    0.2184 C   0  0  0  0  0  0  0  0  0  0  0  0
   -5.3476   -4.3681    0.7203 C   0  0  0  0  0  0  0  0  0  0  0  0
    0.7458   -5.1364    1.2257 C   0  0  0  0  0  0  0  0  0  0  0  0
   -2.0048   -1.0300    1.5339 H   0  0  0  0  0  0  0  0  0  0  0  0
   -1.3886   -1.7098   -1.3575 H   0  0  0  0  0  0  0  0  0  0  0  0
   -0.4313   -0.7245   -0.2795 H   0  0  0  0  0  0  0  0  0  0  0  0
   -3.5065    1.4953   -1.4311 H   0  0  0  0  0  0  0  0  0  0  0  0
   -2.6702    0.0636   -1.9796 H   0  0  0  0  0  0  0  0  0  0  0  0
   -4.3636   -0.0492   -1.4674 H   0  0  0  0  0  0  0  0  0  0  0  0
   -3.4922    0.7237    2.1538 H   0  0  0  0  0  0  0  0  0  0  0  0
   -4.1348    1.7988    0.9191 H   0  0  0  0  0  0  0  0  0  0  0  0
   -4.8571    0.1944    1.1484 H   0  0  0  0  0  0  0  0  0  0  0  0
   -3.7968   -2.4154   -1.5092 H   0  0  0  0  0  0  0  0  0  0  0  0
   -3.4348   -2.4641    2.7035 H   0  0  0  0  0  0  0  0  0  0  0  0
    0.7904   -1.8052    1.6109 H   0  0  0  0  0  0  0  0  0  0  0  0
   -1.5264   -4.1452   -1.0347 H   0  0  0  0  0  0  0  0  0  0  0  0
   -5.4175   -4.1768   -1.3809 H   0  0  0  0  0  0  0  0  0  0  0  0
   -5.0210   -4.2697    2.8032 H   0  0  0  0  0  0  0  0  0  0  0  0
    1.8217   -3.8131    2.4715 H   0  0  0  0  0  0  0  0  0  0  0  0
   -0.5090   -6.1408   -0.1422 H   0  0  0  0  0  0  0  0  0  0  0  0
   -6.0300   -5.1278    0.7700 H   0  0  0  0  0  0  0  0  0  0  0  0
    1.1902   -5.9848    1.5834 H   0  0  0  0  0  0  0  0  0  0  0  0
  1  2  1  0  0  0  0 
  1  3  1  0  0  0  0 
  1  4  1  0  0  0  0 
  2  5  1  0  0  0  0 
  3  6  1  0  0  0  0 
  3  7  1  0  0  0  0 
  4  8  2  0  0  0  0 
  4  9  1  0  0  0  0 
  5 10  2  0  0  0  0 
  5 11  1  0  0  0  0 
  8 12  1  0  0  0  0 
  9 13  2  0  0  0  0 
 10 14  1  0  0  0  0 
 11 15  2  0  0  0  0 
 12 16  2  0  0  0  0 
 13 16  1  0  0  0  0 
 14 17  2  0  0  0  0 
 15 17  1  0  0  0  0 
  1 18  1  0  0  0  0 
  2 19  1  0  0  0  0 
  2 20  1  0  0  0  0 
  6 21  1  0  0  0  0 
  6 22  1  0  0  0  0 
  6 23  1  0  0  0  0 
  7 24  1  0  0  0  0 
  7 25  1  0  0  0  0 
  7 26  1  0  0  0  0 
  8 27  1  0  0  0  0 
  9 28  1  0  0  0  0 
 10 29  1  0  0  0  0 
 11 30  1  0  0  0  0 
 12 31  1  0  0  0  0 
 13 32  1  0  0  0  0 
 14 33  1  0  0  0  0 
 15 34  1  0  0  0  0 
 16 35  1  0  0  0  0 
 17 36  1  0  0  0  0 
M  END
> <cdk:Title>
lefetamine

> <Conformer>
1

> <SuperDrugID>
SD002864

$$$$
