vorinostat
  CDK     0628171801

 39 39  0  0  0  0  0  0  0  0999 V2000
    1.3055    0.0409   -0.0054 O   0  0  0  0  0  0  0  0  0  0  0  0
    0.0077    0.1565   -0.0813 N   0  0  0  0  0  0  0  0  0  0  0  0
   -0.8196   -0.4672    0.7888 C   0  0  0  0  0  0  0  0  0  0  0  0
   -0.3503   -1.1756    1.7102 O   0  0  0  0  0  0  0  0  0  0  0  0
   -2.2850   -0.3147    0.6687 C   0  0  1  0  0  0  0  0  0  0  0  0
   -2.8272   -0.9345   -0.6469 C   0  0  1  0  0  0  0  0  0  0  0  0
   -4.3732   -0.8239   -0.7917 C   0  0  2  0  0  0  0  0  0  0  0  0
   -4.8878   -1.4315   -2.1270 C   0  0  2  0  0  0  0  0  0  0  0  0
   -6.4274   -1.3243   -2.3317 C   0  0  2  0  0  0  0  0  0  0  0  0
   -6.8585   -1.7870   -3.7536 C   0  0  2  0  0  0  0  0  0  0  0  0
   -8.3105   -1.6679   -4.0495 C   0  0  0  0  0  0  0  0  0  0  0  0
   -9.1271   -2.0135   -3.1656 O   0  0  0  0  0  0  0  0  0  0  0  0
   -8.8859   -1.2200   -5.2070 N   0  0  0  0  0  0  0  0  0  0  0  0
   -8.3332   -0.8898   -6.4145 C   0  0  0  0  0  0  0  0  0  0  0  0
   -9.0112    0.0943   -7.1702 C   0  0  0  0  0  0  0  0  0  0  0  0
   -8.5186    0.5136   -8.4205 C   0  0  0  0  0  0  0  0  0  0  0  0
   -7.3352   -0.0438   -8.9331 C   0  0  0  0  0  0  0  0  0  0  0  0
   -6.6706   -1.0519   -8.2129 C   0  0  0  0  0  0  0  0  0  0  0  0
   -7.1833   -1.4944   -6.9783 C   0  0  0  0  0  0  0  0  0  0  0  0
    1.5812    0.7618    0.5978 H   0  0  0  0  0  0  0  0  0  0  0  0
   -0.3760    0.7093   -0.7799 H   0  0  0  0  0  0  0  0  0  0  0  0
   -2.7737   -0.7982    1.5196 H   0  0  0  0  0  0  0  0  0  0  0  0
   -2.5290    0.7500    0.7066 H   0  0  0  0  0  0  0  0  0  0  0  0
   -2.3558   -0.4269   -1.4947 H   0  0  0  0  0  0  0  0  0  0  0  0
   -2.5391   -1.9902   -0.6792 H   0  0  0  0  0  0  0  0  0  0  0  0
   -4.6596    0.2309   -0.7483 H   0  0  0  0  0  0  0  0  0  0  0  0
   -4.8476   -1.3425    0.0461 H   0  0  0  0  0  0  0  0  0  0  0  0
   -4.6044   -2.4872   -2.1638 H   0  0  0  0  0  0  0  0  0  0  0  0
   -4.3833   -0.9191   -2.9513 H   0  0  0  0  0  0  0  0  0  0  0  0
   -6.7414   -0.2875   -2.1828 H   0  0  0  0  0  0  0  0  0  0  0  0
   -6.9256   -1.9444   -1.5813 H   0  0  0  0  0  0  0  0  0  0  0  0
   -6.5824   -2.8358   -3.8785 H   0  0  0  0  0  0  0  0  0  0  0  0
   -6.2931   -1.1901   -4.4681 H   0  0  0  0  0  0  0  0  0  0  0  0
   -9.8483   -1.1046   -5.1606 H   0  0  0  0  0  0  0  0  0  0  0  0
   -9.8717    0.5181   -6.8107 H   0  0  0  0  0  0  0  0  0  0  0  0
   -9.0191    1.2275   -8.9537 H   0  0  0  0  0  0  0  0  0  0  0  0
   -6.9631    0.2809   -9.8287 H   0  0  0  0  0  0  0  0  0  0  0  0
   -5.8176   -1.4679   -8.5895 H   0  0  0  0  0  0  0  0  0  0  0  0
   -6.7155   -2.2709   -6.5078 H   0  0  0  0  0  0  0  0  0  0  0  0
  1  2  1  0  0  0  0 
  2  3  1  0  0  0  0 
  3  4  2  0  0  0  0 
  3  5  1  0  0  0  0 
  5  6  1  0  0  0  0 
  6  7  1  0  0  0  0 
  7  8  1  0  0  0  0 
  8  9  1  0  0  0  0 
  9 10  1  0  0  0  0 
 10 11  1  0  0  0  0 
 11 12  2  0  0  0  0 
 11 13  1  0  0  0  0 
 13 14  1  0  0  0  0 
 14 15  2  0  0  0  0 
 15 16  1  0  0  0  0 
 16 17  2  0  0  0  0 
 17 18  1  0  0  0  0 
 18 19  2  0  0  0  0 
 14 19  1  0  0  0  0 
 20  1  1  0  0  0  0 
 21  2  1  0  0  0  0 
 22  5  1  0  0  0  0 
 23  5  1  0  0  0  0 
 24  6  1  0  0  0  0 
 25  6  1  0  0  0  0 
 26  7  1  0  0  0  0 
 27  7  1  0  0  0  0 
 28  8  1  0  0  0  0 
 29  8  1  0  0  0  0 
 30  9  1  0  0  0  0 
 31  9  1  0  0  0  0 
 32 10  1  0  0  0  0 
 33 10  1  0  0  0  0 
 34 13  1  0  0  0  0 
 35 15  1  0  0  0  0 
 36 16  1  0  0  0  0 
 37 17  1  0  0  0  0 
 38 18  1  0  0  0  0 
 39 19  1  0  0  0  0 
M  END
> <cdk:Title>
vorinostat

> <Conformer>
1

> <SuperDrugID>
SD003367

$$$$
