griseofulvin
  CDK     0628171801

 41 43  0  0  0  0  0  0  0  0999 V2000
    3.6362    2.1882    2.5559 C   0  0  0  0  0  0  0  0  0  0  0  0
    3.9158    3.5684    2.3988 C   0  0  0  0  0  0  0  0  0  0  0  0
    3.7226    4.1866    1.1410 C   0  0  0  0  0  0  0  0  0  0  0  0
    3.2315    3.4531    0.0386 C   0  0  0  0  0  0  0  0  0  0  0  0
    2.9301    2.0911    0.2339 C   0  0  0  0  0  0  0  0  0  0  0  0
    3.1459    1.4628    1.4545 C   0  0  0  0  0  0  0  0  0  0  0  0
    3.8795    1.3971    4.0344 Cl  0  0  0  0  0  0  0  0  0  0  0  0
    3.0451    4.0637   -1.1718 O   0  0  0  0  0  0  0  0  0  0  0  0
    4.4190    4.3049    3.4382 O   0  0  0  0  0  0  0  0  0  0  0  0
    2.4061    1.1371   -0.6155 C   0  0  0  0  0  0  0  0  0  0  0  0
    2.3063   -0.1479    0.1146 C   0  0  2  0  0  0  0  0  0  0  0  0
    2.8376    0.1352    1.4345 O   0  0  0  0  0  0  0  0  0  0  0  0
    3.1925   -1.2972   -0.5125 C   0  0  1  0  0  0  0  0  0  0  0  0
    2.4211   -2.0455   -1.6400 C   0  0  2  0  0  0  0  0  0  0  0  0
    1.0792   -2.4404   -1.1564 C   0  0  0  0  0  0  0  0  0  0  0  0
    0.3453   -1.5951   -0.3403 C   0  0  0  0  0  0  0  0  0  0  0  0
    0.8807   -0.5119    0.2580 C   0  0  0  0  0  0  0  0  0  0  0  0
    0.5968   -3.5435   -1.5023 O   0  0  0  0  0  0  0  0  0  0  0  0
    0.0680    0.3044    0.9608 O   0  0  0  0  0  0  0  0  0  0  0  0
    2.0628    1.3277   -1.8045 O   0  0  0  0  0  0  0  0  0  0  0  0
    4.6019   -0.8509   -1.0020 C   0  0  0  0  0  0  0  0  0  0  0  0
    3.4041    4.9319    4.2411 C   0  0  0  0  0  0  0  0  0  0  0  0
    4.2197    4.0034   -2.0010 C   0  0  0  0  0  0  0  0  0  0  0  0
   -0.2280   -0.1153    2.3070 C   0  0  0  0  0  0  0  0  0  0  0  0
    3.9467    5.1778    1.0255 H   0  0  0  0  0  0  0  0  0  0  0  0
    3.3685   -2.0345    0.2816 H   0  0  0  0  0  0  0  0  0  0  0  0
    2.9829   -2.9311   -1.9548 H   0  0  0  0  0  0  0  0  0  0  0  0
    2.2913   -1.3935   -2.5100 H   0  0  0  0  0  0  0  0  0  0  0  0
   -0.6172   -1.8003   -0.1923 H   0  0  0  0  0  0  0  0  0  0  0  0
    5.2046   -1.7230   -1.2628 H   0  0  0  0  0  0  0  0  0  0  0  0
    5.1209   -0.3000   -0.2160 H   0  0  0  0  0  0  0  0  0  0  0  0
    4.5257   -0.2109   -1.8835 H   0  0  0  0  0  0  0  0  0  0  0  0
    3.8990    5.4535    5.0604 H   0  0  0  0  0  0  0  0  0  0  0  0
    2.8374    5.6638    3.6615 H   0  0  0  0  0  0  0  0  0  0  0  0
    2.7192    4.1980    4.6728 H   0  0  0  0  0  0  0  0  0  0  0  0
    4.0091    4.5412   -2.9243 H   0  0  0  0  0  0  0  0  0  0  0  0
    5.0785    4.4798   -1.5203 H   0  0  0  0  0  0  0  0  0  0  0  0
    4.4732    2.9720   -2.2592 H   0  0  0  0  0  0  0  0  0  0  0  0
   -0.9594    0.5788    2.7216 H   0  0  0  0  0  0  0  0  0  0  0  0
    0.6596   -0.0903    2.9421 H   0  0  0  0  0  0  0  0  0  0  0  0
   -0.6674   -1.1152    2.3338 H   0  0  0  0  0  0  0  0  0  0  0  0
  1  2  2  0  0  0  0 
  2  3  1  0  0  0  0 
  3  4  2  0  0  0  0 
  4  5  1  0  0  0  0 
  6  5  2  0  0  0  0 
  1  6  1  0  0  0  0 
  1  7  1  0  0  0  0 
  4  8  1  0  0  0  0 
  2  9  1  0  0  0  0 
  5 10  1  0  0  0  0 
 11 10  1  0  0  0  0 
 11 12  1  0  0  0  0 
  6 12  1  0  0  0  0 
 11 13  1  0  0  0  0 
 13 14  1  0  0  0  0 
 14 15  1  0  0  0  0 
 15 16  1  0  0  0  0 
 16 17  2  0  0  0  0 
 11 17  1  0  0  0  0 
 15 18  2  0  0  0  0 
 17 19  1  0  0  0  0 
 10 20  2  0  0  0  0 
 13 21  1  0  0  0  0 
  9 22  1  0  0  0  0 
  8 23  1  0  0  0  0 
 19 24  1  0  0  0  0 
 25  3  1  0  0  0  0 
 13 26  1  0  0  0  0 
 27 14  1  0  0  0  0 
 28 14  1  0  0  0  0 
 29 16  1  0  0  0  0 
 30 21  1  0  0  0  0 
 31 21  1  0  0  0  0 
 32 21  1  0  0  0  0 
 33 22  1  0  0  0  0 
 34 22  1  0  0  0  0 
 35 22  1  0  0  0  0 
 36 23  1  0  0  0  0 
 37 23  1  0  0  0  0 
 38 23  1  0  0  0  0 
 39 24  1  0  0  0  0 
 40 24  1  0  0  0  0 
 41 24  1  0  0  0  0 
M  END
> <cdk:Title>
griseofulvin

> <Conformer>
1

> <SuperDrugID>
SD001182

$$$$
