sulfacarbamide
  CDK     0628171801

 23 23  0  0  0  0  0  0  0  0999 V2000
   -2.3750   -1.0682    0.2492 S   0  0  1  0  0  0  0  0  0  0  0  0
   -0.6636   -1.1704    0.1435 N   0  0  0  0  0  0  0  0  0  0  0  0
   -2.9444   -0.6486   -1.1919 O   0  0  0  0  0  0  0  0  0  0  0  0
   -2.9531   -2.5146    0.6321 O   0  0  0  0  0  0  0  0  0  0  0  0
   -2.8442    0.1250    1.4750 C   0  0  0  0  0  0  0  0  0  0  0  0
    0.1268   -0.1094   -0.1365 C   0  0  0  0  0  0  0  0  0  0  0  0
   -4.0175    0.8901    1.3142 C   0  0  0  0  0  0  0  0  0  0  0  0
   -2.0249    0.3461    2.6015 C   0  0  0  0  0  0  0  0  0  0  0  0
    1.4574   -0.2732   -0.1290 N   0  0  0  0  0  0  0  0  0  0  0  0
   -0.3336    1.0281   -0.3885 O   0  0  0  0  0  0  0  0  0  0  0  0
   -4.3452    1.8918    2.2465 C   0  0  0  0  0  0  0  0  0  0  0  0
   -2.3496    1.3497    3.5316 C   0  0  0  0  0  0  0  0  0  0  0  0
   -3.5056    2.1346    3.3516 C   0  0  0  0  0  0  0  0  0  0  0  0
   -3.8027    3.1185    4.2227 N   0  0  0  0  0  0  0  0  0  0  0  0
   -0.2433   -2.0300    0.3100 H   0  0  0  0  0  0  0  0  0  0  0  0
   -4.6342    0.7311    0.5151 H   0  0  0  0  0  0  0  0  0  0  0  0
   -1.1814   -0.2124    2.7461 H   0  0  0  0  0  0  0  0  0  0  0  0
    2.0389    0.4805   -0.3175 H   0  0  0  0  0  0  0  0  0  0  0  0
    1.8401   -1.1425    0.0725 H   0  0  0  0  0  0  0  0  0  0  0  0
   -5.1911    2.4488    2.1099 H   0  0  0  0  0  0  0  0  0  0  0  0
   -1.7352    1.5103    4.3327 H   0  0  0  0  0  0  0  0  0  0  0  0
   -3.2166    3.2976    4.9749 H   0  0  0  0  0  0  0  0  0  0  0  0
   -4.6005    3.6553    4.0953 H   0  0  0  0  0  0  0  0  0  0  0  0
  1  2  1  0  0  0  0 
  1  3  2  0  0  0  0 
  1  4  2  0  0  0  0 
  1  5  1  0  0  0  0 
  2  6  1  0  0  0  0 
  5  7  2  0  0  0  0 
  5  8  1  0  0  0  0 
  6  9  1  0  0  0  0 
  6 10  2  0  0  0  0 
  7 11  1  0  0  0  0 
  8 12  2  0  0  0  0 
 11 13  2  0  0  0  0 
 12 13  1  0  0  0  0 
 13 14  1  0  0  0  0 
  2 15  1  0  0  0  0 
  7 16  1  0  0  0  0 
  8 17  1  0  0  0  0 
  9 18  1  0  0  0  0 
  9 19  1  0  0  0  0 
 11 20  1  0  0  0  0 
 12 21  1  0  0  0  0 
 14 22  1  0  0  0  0 
 14 23  1  0  0  0  0 
M  END
> <cdk:Title>
sulfacarbamide

> <Conformer>
1

> <SuperDrugID>
SD002243

$$$$
