triptorelin
  CDK     0628171801

177184  0  0  0  0  0  0  0  0999 V2000
  -16.1264   -9.8312    8.6553 C   0  0  0  0  0  0  0  0  0  0  0  0
  -16.8945   -9.2377    7.6977 N   0  0  0  0  0  0  0  0  0  0  0  0
  -14.1087   -8.0873    6.4922 N   0  0  0  0  0  0  0  0  0  0  0  0
  -11.7159   -9.5174    7.1662 N   0  0  0  0  0  0  0  0  0  0  0  0
   -8.6673  -10.8960    6.5989 N   0  0  0  0  0  0  0  0  0  0  0  0
   -5.7201  -10.3012    5.7117 N   0  0  0  0  0  0  0  0  0  0  0  0
   -4.9358   -8.5341    3.4695 N   0  0  0  0  0  0  0  0  0  0  0  0
   -4.1103   -5.7855    1.3071 N   0  0  0  0  0  0  0  0  0  0  0  0
   -2.2066   -5.1584    3.8064 N   0  0  0  0  0  0  0  0  0  0  0  0
    0.7648   -6.4549    5.5759 N   0  0  0  0  0  0  0  0  0  0  0  0
    2.4340   -6.8024    7.9961 N   0  0  0  0  0  0  0  0  0  0  0  0
  -14.9430   -9.4725    8.8591 O   0  0  0  0  0  0  0  0  0  0  0  0
  -16.7052  -10.9104    9.4973 C   0  0  2  0  0  0  0  0  0  0  0  0
  -17.3297  -12.1041    8.7184 C   0  0  2  0  0  0  0  0  0  0  0  0
  -18.8366  -12.1027    9.0612 C   0  0  2  0  0  0  0  0  0  0  0  0
  -18.9496  -11.0232   10.0393 C   0  0  0  0  0  0  0  0  0  0  0  0
  -17.7867  -10.4020   10.2593 N   0  0  0  0  0  0  0  0  0  0  0  0
  -20.0179  -10.6978   10.6050 O   0  0  0  0  0  0  0  0  0  0  0  0
  -15.3544   -8.3625    6.0011 C   0  0  0  0  0  0  0  0  0  0  0  0
  -16.5337   -6.7582    7.5680 C   0  0  1  0  0  0  0  0  0  0  0  0
  -17.8402   -6.3486    8.1279 C   0  0  0  0  0  0  0  0  0  0  0  0
  -18.4599   -6.8157    9.2834 C   0  0  0  0  0  0  0  0  0  0  0  0
  -19.6371   -6.1895    9.4348 N   0  0  0  0  0  0  0  0  0  0  0  0
  -19.7502   -5.3397    8.3998 C   0  0  0  0  0  0  0  0  0  0  0  0
  -18.6669   -5.4261    7.6137 N   0  0  0  0  0  0  0  0  0  0  0  0
  -16.5636   -8.1396    6.8405 C   0  0  2  0  0  0  0  0  0  0  0  0
  -15.5071   -8.7103    4.8049 O   0  0  0  0  0  0  0  0  0  0  0  0
  -11.7361   -8.3042    6.5384 C   0  0  0  0  0  0  0  0  0  0  0  0
  -12.9381   -6.4781    5.1623 C   0  0  2  0  0  0  0  0  0  0  0  0
  -11.9104   -6.1345    4.1550 C   0  0  0  0  0  0  0  0  0  0  0  0
  -10.8677   -5.2185    4.3228 C   0  0  0  0  0  0  0  0  0  0  0  0
  -10.1802   -5.1073    3.1756 N   0  0  0  0  0  0  0  0  0  0  0  0
  -10.7188   -5.9242    2.2625 C   0  0  0  0  0  0  0  0  0  0  0  0
  -11.8112   -6.5774    2.8344 C   0  0  0  0  0  0  0  0  0  0  0  0
  -12.5929   -7.4657    2.0706 C   0  0  0  0  0  0  0  0  0  0  0  0
  -12.2324   -7.6959    0.7244 C   0  0  0  0  0  0  0  0  0  0  0  0
  -11.1122   -7.0440    0.1586 C   0  0  0  0  0  0  0  0  0  0  0  0
  -10.3437   -6.1455    0.9274 C   0  0  0  0  0  0  0  0  0  0  0  0
  -12.9172   -7.9444    5.7066 C   0  0  2  0  0  0  0  0  0  0  0  0
  -10.7550   -7.5278    6.6249 O   0  0  0  0  0  0  0  0  0  0  0  0
   -9.9701  -11.0635    6.9583 C   0  0  0  0  0  0  0  0  0  0  0  0
  -11.0757  -10.7462    9.1988 C   0  0  1  0  0  0  0  0  0  0  0  0
   -9.9681  -11.2916    9.9120 O   0  0  0  0  0  0  0  0  0  0  0  0
  -10.6069  -10.0904    7.8770 C   0  0  2  0  0  0  0  0  0  0  0  0
  -10.6547  -12.0040    6.4864 O   0  0  0  0  0  0  0  0  0  0  0  0
   -6.5128  -11.4174    5.6782 C   0  0  0  0  0  0  0  0  0  0  0  0
   -8.5154  -11.2946    4.1232 C   0  0  2  0  0  0  0  0  0  0  0  0
   -7.9994  -12.2431    3.0941 C   0  0  0  0  0  0  0  0  0  0  0  0
   -8.7192  -13.4125    2.7502 C   0  0  0  0  0  0  0  0  0  0  0  0
   -8.2171  -14.3099    1.7902 C   0  0  0  0  0  0  0  0  0  0  0  0
   -6.9849  -14.0555    1.1617 C   0  0  0  0  0  0  0  0  0  0  0  0
   -6.5069  -14.9351    0.2476 O   0  0  0  0  0  0  0  0  0  0  0  0
   -6.2605  -12.8946    1.4914 C   0  0  0  0  0  0  0  0  0  0  0  0
   -6.7635  -11.9987    2.4518 C   0  0  0  0  0  0  0  0  0  0  0  0
   -7.9866  -11.6061    5.5603 C   0  0  2  0  0  0  0  0  0  0  0  0
   -5.8329  -12.4674    5.7518 O   0  0  0  0  0  0  0  0  0  0  0  0
   -4.8191   -8.3704    4.8210 C   0  0  0  0  0  0  0  0  0  0  0  0
   -7.2536   -8.1540    5.4087 C   0  0  2  0  0  0  0  0  0  0  0  0
   -7.2993   -6.7597    5.9198 C   0  0  0  0  0  0  0  0  0  0  0  0
   -7.4265   -6.3787    7.2600 C   0  0  0  0  0  0  0  0  0  0  0  0
   -7.4359   -5.0378    7.3536 N   0  0  0  0  0  0  0  0  0  0  0  0
   -7.3180   -4.5196    6.1244 C   0  0  0  0  0  0  0  0  0  0  0  0
   -7.2327   -5.5648    5.2045 C   0  0  0  0  0  0  0  0  0  0  0  0
   -7.1009   -5.3007    3.8310 C   0  0  0  0  0  0  0  0  0  0  0  0
   -7.0386   -3.9589    3.3996 C   0  0  0  0  0  0  0  0  0  0  0  0
   -7.1277   -2.9033    4.3349 C   0  0  0  0  0  0  0  0  0  0  0  0
   -7.2729   -3.1770    5.7118 C   0  0  0  0  0  0  0  0  0  0  0  0
   -5.8956   -8.8704    5.7221 C   0  0  1  0  0  0  0  0  0  0  0  0
   -3.8082   -7.8305    5.3248 O   0  0  0  0  0  0  0  0  0  0  0  0
   -4.6907   -7.0317    1.6594 C   0  0  0  0  0  0  0  0  0  0  0  0
   -1.3654   -9.2468    0.7202 C   0  0  0  0  0  0  0  0  0  0  0  0
   -3.8350   -9.4172    1.5202 C   0  0  2  0  0  0  0  0  0  0  0  0
   -4.0095   -8.1604    2.4310 C   0  0  2  0  0  0  0  0  0  0  0  0
   -3.1092  -10.3937   -0.7405 C   0  0  0  0  0  0  0  0  0  0  0  0
   -2.8626   -9.2662    0.3031 C   0  0  2  0  0  0  0  0  0  0  0  0
   -5.8649   -7.1879    1.2541 O   0  0  0  0  0  0  0  0  0  0  0  0
   -1.8862   -5.4789    2.4950 C   0  0  0  0  0  0  0  0  0  0  0  0
   -2.7735   -3.7711    0.8249 C   0  0  1  0  0  0  0  0  0  0  0  0
   -1.3890   -3.1135    0.5643 C   0  0  2  0  0  0  0  0  0  0  0  0
   -1.4912   -1.5839    0.3458 C   0  0  1  0  0  0  0  0  0  0  0  0
   -0.2416   -1.0690    0.0265 N   0  0  0  0  0  0  0  0  0  0  0  0
    0.0729    0.1446   -0.2439 C   0  0  0  0  0  0  0  0  0  0  0  0
   -0.7849    1.1479   -0.2607 N   0  0  0  0  0  0  0  0  0  0  0  0
    1.3292    0.3894   -0.5235 N   0  0  0  0  0  0  0  0  0  0  0  0
   -2.7285   -5.2666    1.2763 C   0  0  2  0  0  0  0  0  0  0  0  0
   -0.7434   -5.9440    2.2587 O   0  0  0  0  0  0  0  0  0  0  0  0
   -0.4954   -6.4939    5.0605 C   0  0  0  0  0  0  0  0  0  0  0  0
   -1.2523   -5.2230    4.8926 C   0  0  2  0  0  0  0  0  0  0  0  0
   -2.0635   -4.9059    6.1693 C   0  0  2  0  0  0  0  0  0  0  0  0
   -3.2794   -4.1286    5.6560 C   0  0  2  0  0  0  0  0  0  0  0  0
   -3.4854   -4.6735    4.2336 C   0  0  1  0  0  0  0  0  0  0  0  0
   -1.0363   -7.5818    4.7540 O   0  0  0  0  0  0  0  0  0  0  0  0
    1.8199   -7.7533    7.2688 C   0  0  0  0  0  0  0  0  0  0  0  0
    1.6173   -7.5769    5.8195 C   0  0  2  0  0  0  0  0  0  0  0  0
    1.4292   -8.7900    7.8514 O   0  0  0  0  0  0  0  0  0  0  0  0
  -17.7915   -9.5899    7.5903 H   0  0  0  0  0  0  0  0  0  0  0  0
  -14.0377   -7.8855    7.4385 H   0  0  0  0  0  0  0  0  0  0  0  0
  -12.5148  -10.0641    7.0887 H   0  0  0  0  0  0  0  0  0  0  0  0
   -8.1712  -10.2032    7.0628 H   0  0  0  0  0  0  0  0  0  0  0  0
   -4.7806  -10.5387    5.7763 H   0  0  0  0  0  0  0  0  0  0  0  0
   -5.7480   -8.9695    3.1661 H   0  0  0  0  0  0  0  0  0  0  0  0
   -4.7362   -5.1279    0.9221 H   0  0  0  0  0  0  0  0  0  0  0  0
    1.1206   -5.5806    5.8003 H   0  0  0  0  0  0  0  0  0  0  0  0
    2.5690   -6.9286    8.9488 H   0  0  0  0  0  0  0  0  0  0  0  0
    2.7448   -5.9891    7.5680 H   0  0  0  0  0  0  0  0  0  0  0  0
  -15.9484  -11.2901   10.1920 H   0  0  0  0  0  0  0  0  0  0  0  0
  -16.8792  -13.0427    9.0520 H   0  0  0  0  0  0  0  0  0  0  0  0
  -17.1813  -12.0211    7.6388 H   0  0  0  0  0  0  0  0  0  0  0  0
  -19.1459  -13.0562    9.4963 H   0  0  0  0  0  0  0  0  0  0  0  0
  -19.4491  -11.8907    8.1814 H   0  0  0  0  0  0  0  0  0  0  0  0
  -17.6983   -9.6610   10.8818 H   0  0  0  0  0  0  0  0  0  0  0  0
  -16.2251   -5.9914    6.8506 H   0  0  0  0  0  0  0  0  0  0  0  0
  -15.7936   -6.7616    8.3717 H   0  0  0  0  0  0  0  0  0  0  0  0
  -18.0853   -7.5142    9.9240 H   0  0  0  0  0  0  0  0  0  0  0  0
  -20.5457   -4.7178    8.2374 H   0  0  0  0  0  0  0  0  0  0  0  0
  -18.5101   -4.9056    6.8074 H   0  0  0  0  0  0  0  0  0  0  0  0
  -17.4108   -8.0936    6.1485 H   0  0  0  0  0  0  0  0  0  0  0  0
  -13.9070   -6.2708    4.6975 H   0  0  0  0  0  0  0  0  0  0  0  0
  -12.8491   -5.7974    6.0141 H   0  0  0  0  0  0  0  0  0  0  0  0
  -10.6606   -4.6971    5.1766 H   0  0  0  0  0  0  0  0  0  0  0  0
   -9.4205   -4.5237    3.0280 H   0  0  0  0  0  0  0  0  0  0  0  0
  -13.4097   -7.9289    2.4728 H   0  0  0  0  0  0  0  0  0  0  0  0
  -12.7883   -8.3360    0.1518 H   0  0  0  0  0  0  0  0  0  0  0  0
  -10.8611   -7.2189   -0.8166 H   0  0  0  0  0  0  0  0  0  0  0  0
   -9.5387   -5.6623    0.5227 H   0  0  0  0  0  0  0  0  0  0  0  0
  -12.9375   -8.6481    4.8694 H   0  0  0  0  0  0  0  0  0  0  0  0
  -11.8002  -11.5398    9.0062 H   0  0  0  0  0  0  0  0  0  0  0  0
  -11.5472   -9.9923    9.8312 H   0  0  0  0  0  0  0  0  0  0  0  0
  -10.3431  -11.6282   10.7536 H   0  0  0  0  0  0  0  0  0  0  0  0
   -9.8825   -9.3160    8.1517 H   0  0  0  0  0  0  0  0  0  0  0  0
   -9.6070  -11.3405    4.1222 H   0  0  0  0  0  0  0  0  0  0  0  0
   -8.2633  -10.2759    3.8334 H   0  0  0  0  0  0  0  0  0  0  0  0
   -9.6101  -13.6229    3.2047 H   0  0  0  0  0  0  0  0  0  0  0  0
   -8.7470  -15.1508    1.5544 H   0  0  0  0  0  0  0  0  0  0  0  0
   -5.5532  -14.7283    0.1608 H   0  0  0  0  0  0  0  0  0  0  0  0
   -5.3672  -12.7038    1.0335 H   0  0  0  0  0  0  0  0  0  0  0  0
   -6.2186  -11.1686    2.6894 H   0  0  0  0  0  0  0  0  0  0  0  0
   -8.2035  -12.6667    5.7436 H   0  0  0  0  0  0  0  0  0  0  0  0
   -7.4494   -8.1613    4.3358 H   0  0  0  0  0  0  0  0  0  0  0  0
   -8.0873   -8.6536    5.8790 H   0  0  0  0  0  0  0  0  0  0  0  0
   -7.5059   -7.0170    8.0534 H   0  0  0  0  0  0  0  0  0  0  0  0
   -7.5142   -4.5287    8.1751 H   0  0  0  0  0  0  0  0  0  0  0  0
   -7.0595   -6.0618    3.1588 H   0  0  0  0  0  0  0  0  0  0  0  0
   -6.9356   -3.7513    2.4040 H   0  0  0  0  0  0  0  0  0  0  0  0
   -7.0875   -1.9341    4.0117 H   0  0  0  0  0  0  0  0  0  0  0  0
   -7.3396   -2.4184    6.3932 H   0  0  0  0  0  0  0  0  0  0  0  0
   -5.6322   -8.6055    6.7526 H   0  0  0  0  0  0  0  0  0  0  0  0
   -0.7369   -9.0238   -0.1453 H   0  0  0  0  0  0  0  0  0  0  0  0
   -1.1773   -8.4851    1.4747 H   0  0  0  0  0  0  0  0  0  0  0  0
   -1.0648  -10.2150    1.1253 H   0  0  0  0  0  0  0  0  0  0  0  0
   -4.8233   -9.6939    1.1412 H   0  0  0  0  0  0  0  0  0  0  0  0
   -3.4925  -10.2530    2.1383 H   0  0  0  0  0  0  0  0  0  0  0  0
   -3.0030   -7.9671    2.9006 H   0  0  0  0  0  0  0  0  0  0  0  0
   -2.4401  -10.2820   -1.5965 H   0  0  0  0  0  0  0  0  0  0  0  0
   -2.9475  -11.3781   -0.2938 H   0  0  0  0  0  0  0  0  0  0  0  0
   -4.1346  -10.3456   -1.1129 H   0  0  0  0  0  0  0  0  0  0  0  0
   -3.0798   -8.3212   -0.2021 H   0  0  0  0  0  0  0  0  0  0  0  0
   -3.3125   -3.1746    1.5605 H   0  0  0  0  0  0  0  0  0  0  0  0
   -3.3460   -3.7086   -0.1059 H   0  0  0  0  0  0  0  0  0  0  0  0
   -0.9355   -3.5812   -0.3154 H   0  0  0  0  0  0  0  0  0  0  0  0
   -0.7291   -3.2862    1.4174 H   0  0  0  0  0  0  0  0  0  0  0  0
   -2.1904   -1.3700   -0.4664 H   0  0  0  0  0  0  0  0  0  0  0  0
   -1.8529   -1.1073    1.2619 H   0  0  0  0  0  0  0  0  0  0  0  0
   -0.4811    2.0379   -0.5001 H   0  0  0  0  0  0  0  0  0  0  0  0
   -1.7184    1.0029   -0.0329 H   0  0  0  0  0  0  0  0  0  0  0  0
    1.6100    1.2861   -0.7609 H   0  0  0  0  0  0  0  0  0  0  0  0
    1.9792   -0.3301   -0.4980 H   0  0  0  0  0  0  0  0  0  0  0  0
   -2.2673   -5.8134    0.4468 H   0  0  0  0  0  0  0  0  0  0  0  0
   -0.5371   -4.4093    4.7246 H   0  0  0  0  0  0  0  0  0  0  0  0
   -1.4805   -4.3159    6.8810 H   0  0  0  0  0  0  0  0  0  0  0  0
   -2.4066   -5.8188    6.6657 H   0  0  0  0  0  0  0  0  0  0  0  0
   -3.0571   -3.0575    5.6246 H   0  0  0  0  0  0  0  0  0  0  0  0
   -4.1568   -4.2929    6.2851 H   0  0  0  0  0  0  0  0  0  0  0  0
   -3.8748   -3.8761    3.6040 H   0  0  0  0  0  0  0  0  0  0  0  0
   -4.2015   -5.4937    4.2416 H   0  0  0  0  0  0  0  0  0  0  0  0
    2.5835   -7.3833    5.3495 H   0  0  0  0  0  0  0  0  0  0  0  0
    1.2191   -8.4972    5.3837 H   0  0  0  0  0  0  0  0  0  0  0  0
  1  2  1  0  0  0  0 
 19  3  1  0  0  0  0 
 28  4  1  0  0  0  0 
 41  5  1  0  0  0  0 
 46  6  1  0  0  0  0 
 57  7  1  0  0  0  0 
 70  8  1  0  0  0  0 
 77  9  1  0  0  0  0 
 87 10  1  0  0  0  0 
 93 11  1  0  0  0  0 
  1 12  2  0  0  0  0 
 13  1  1  0  0  0  0 
 14 15  1  0  0  0  0 
 15 16  1  0  0  0  0 
 16 17  1  0  0  0  0 
 13 14  1  0  0  0  0 
 13 17  1  0  0  0  0 
 16 18  2  0  0  0  0 
 26  2  1  0  0  0  0 
 26 20  1  0  0  0  0 
 20 21  1  0  0  0  0 
 21 22  2  0  0  0  0 
 22 23  1  0  0  0  0 
 23 24  2  0  0  0  0 
 24 25  1  0  0  0  0 
 21 25  1  0  0  0  0 
 26 19  1  0  0  0  0 
 19 27  2  0  0  0  0 
 39  3  1  0  0  0  0 
 39 29  1  0  0  0  0 
 29 30  1  0  0  0  0 
 30 31  2  0  0  0  0 
 31 32  1  0  0  0  0 
 32 33  1  0  0  0  0 
 33 34  1  0  0  0  0 
 30 34  1  0  0  0  0 
 34 35  2  0  0  0  0 
 35 36  1  0  0  0  0 
 36 37  2  0  0  0  0 
 37 38  1  0  0  0  0 
 33 38  2  0  0  0  0 
 39 28  1  0  0  0  0 
 28 40  2  0  0  0  0 
 44  4  1  0  0  0  0 
 44 42  1  0  0  0  0 
 42 43  1  0  0  0  0 
 44 41  1  0  0  0  0 
 41 45  2  0  0  0  0 
 55  5  1  0  0  0  0 
 55 47  1  0  0  0  0 
 47 48  1  0  0  0  0 
 48 49  2  0  0  0  0 
 49 50  1  0  0  0  0 
 50 51  2  0  0  0  0 
 51 52  1  0  0  0  0 
 51 53  1  0  0  0  0 
 53 54  2  0  0  0  0 
 48 54  1  0  0  0  0 
 55 46  1  0  0  0  0 
 46 56  2  0  0  0  0 
 68  6  1  0  0  0  0 
 68 58  1  0  0  0  0 
 58 59  1  0  0  0  0 
 59 60  2  0  0  0  0 
 60 61  1  0  0  0  0 
 61 62  1  0  0  0  0 
 62 63  1  0  0  0  0 
 59 63  1  0  0  0  0 
 63 64  2  0  0  0  0 
 64 65  1  0  0  0  0 
 65 66  2  0  0  0  0 
 66 67  1  0  0  0  0 
 62 67  2  0  0  0  0 
 68 57  1  0  0  0  0 
 57 69  2  0  0  0  0 
 74 75  1  0  0  0  0 
 75 71  1  0  0  0  0 
 75 72  1  0  0  0  0 
 73 72  1  0  0  0  0 
 73  7  1  0  0  0  0 
 73 70  1  0  0  0  0 
 70 76  2  0  0  0  0 
 85  8  1  0  0  0  0 
 85 78  1  0  0  0  0 
 78 79  1  0  0  0  0 
 79 80  1  0  0  0  0 
 80 81  1  0  0  0  0 
 81 82  2  0  0  0  0 
 82 83  1  0  0  0  0 
 82 84  1  0  0  0  0 
 85 77  1  0  0  0  0 
 77 86  2  0  0  0  0 
 92 87  2  0  0  0  0 
 88 87  1  0  0  0  0 
 88 89  1  0  0  0  0 
 89 90  1  0  0  0  0 
 90 91  1  0  0  0  0 
 91  9  1  0  0  0  0 
 88  9  1  0  0  0  0 
 10 94  1  0  0  0  0 
 94 93  1  0  0  0  0 
 93 95  2  0  0  0  0 
 96  2  1  0  0  0  0 
 97  3  1  0  0  0  0 
 98  4  1  0  0  0  0 
 99  5  1  0  0  0  0 
100  6  1  0  0  0  0 
101  7  1  0  0  0  0 
102  8  1  0  0  0  0 
103 10  1  0  0  0  0 
104 11  1  0  0  0  0 
105 11  1  0  0  0  0 
 13106  1  0  0  0  0 
107 14  1  0  0  0  0 
108 14  1  0  0  0  0 
109 15  1  0  0  0  0 
110 15  1  0  0  0  0 
111 17  1  0  0  0  0 
112 20  1  0  0  0  0 
113 20  1  0  0  0  0 
114 22  1  0  0  0  0 
115 24  1  0  0  0  0 
116 25  1  0  0  0  0 
 26117  1  0  0  0  0 
118 29  1  0  0  0  0 
119 29  1  0  0  0  0 
120 31  1  0  0  0  0 
121 32  1  0  0  0  0 
122 35  1  0  0  0  0 
123 36  1  0  0  0  0 
124 37  1  0  0  0  0 
125 38  1  0  0  0  0 
 39126  1  0  0  0  0 
127 42  1  0  0  0  0 
128 42  1  0  0  0  0 
129 43  1  0  0  0  0 
 44130  1  0  0  0  0 
131 47  1  0  0  0  0 
132 47  1  0  0  0  0 
133 49  1  0  0  0  0 
134 50  1  0  0  0  0 
135 52  1  0  0  0  0 
136 53  1  0  0  0  0 
137 54  1  0  0  0  0 
 55138  1  0  0  0  0 
139 58  1  0  0  0  0 
140 58  1  0  0  0  0 
141 60  1  0  0  0  0 
142 61  1  0  0  0  0 
143 64  1  0  0  0  0 
144 65  1  0  0  0  0 
145 66  1  0  0  0  0 
146 67  1  0  0  0  0 
 68147  1  0  0  0  0 
148 71  1  0  0  0  0 
149 71  1  0  0  0  0 
150 71  1  0  0  0  0 
151 72  1  0  0  0  0 
152 72  1  0  0  0  0 
 73153  1  0  0  0  0 
154 74  1  0  0  0  0 
155 74  1  0  0  0  0 
156 74  1  0  0  0  0 
157 75  1  0  0  0  0 
158 78  1  0  0  0  0 
159 78  1  0  0  0  0 
160 79  1  0  0  0  0 
161 79  1  0  0  0  0 
162 80  1  0  0  0  0 
163 80  1  0  0  0  0 
164 83  1  0  0  0  0 
165 83  1  0  0  0  0 
166 84  1  0  0  0  0 
167 84  1  0  0  0  0 
 85168  1  0  0  0  0 
 88169  1  0  0  0  0 
170 89  1  0  0  0  0 
171 89  1  0  0  0  0 
172 90  1  0  0  0  0 
173 90  1  0  0  0  0 
174 91  1  0  0  0  0 
175 91  1  0  0  0  0 
176 94  1  0  0  0  0 
177 94  1  0  0  0  0 
M  END
> <cdk:Title>
triptorelin

> <Conformer>
1

> <SuperDrugID>
SD002604

$$$$
