caroverine
  CDK     0628171802

 54 56  0  0  0  0  0  0  0  0999 V2000
    9.0066    0.5075   -6.3801 C   0  0  2  0  0  0  0  0  0  0  0  0
    9.4033    1.9885   -6.6557 C   0  0  1  0  0  0  0  0  0  0  0  0
    7.5842    0.2702   -6.6303 N   0  0  0  0  0  0  0  0  0  0  0  0
   10.8554    2.3373   -6.4654 N   0  0  1  0  0  0  0  0  0  0  0  0
    7.1000   -0.0142   -7.9031 C   0  0  0  0  0  0  0  0  0  0  0  0
    6.7014    0.3498   -5.5665 C   0  0  0  0  0  0  0  0  0  0  0  0
   11.3879    2.2218   -5.0619 C   0  0  2  0  0  0  0  0  0  0  0  0
   11.8062    1.7770   -7.4899 C   0  0  1  0  0  0  0  0  0  0  0  0
    5.6995   -0.2208   -8.0736 C   0  0  0  0  0  0  0  0  0  0  0  0
    7.8932   -0.1175   -9.0807 C   0  0  0  0  0  0  0  0  0  0  0  0
    7.0899    0.6021   -4.3992 O   0  0  0  0  0  0  0  0  0  0  0  0
    5.3123    0.1602   -5.7615 C   0  0  0  0  0  0  0  0  0  0  0  0
   10.5796    2.9597   -3.9675 C   0  0  0  0  0  0  0  0  0  0  0  0
   11.5570    2.2336   -8.9473 C   0  0  0  0  0  0  0  0  0  0  0  0
    4.8796   -0.1191   -7.0090 N   0  0  0  0  0  0  0  0  0  0  0  0
    5.1275   -0.5247   -9.3239 C   0  0  0  0  0  0  0  0  0  0  0  0
    7.3298   -0.4199  -10.3353 C   0  0  0  0  0  0  0  0  0  0  0  0
    4.2790    0.2714   -4.7029 C   0  0  2  0  0  0  0  0  0  0  0  0
    5.9476   -0.6291  -10.4564 C   0  0  0  0  0  0  0  0  0  0  0  0
    3.8117    1.6781   -4.5823 C   0  0  0  0  0  0  0  0  0  0  0  0
    2.6684    2.1298   -5.2851 C   0  0  0  0  0  0  0  0  0  0  0  0
    4.5148    2.6005   -3.7719 C   0  0  0  0  0  0  0  0  0  0  0  0
    2.2510    3.4703   -5.1909 C   0  0  0  0  0  0  0  0  0  0  0  0
    4.0987    3.9405   -3.6790 C   0  0  0  0  0  0  0  0  0  0  0  0
    2.9739    4.3845   -4.4003 C   0  0  0  0  0  0  0  0  0  0  0  0
    2.5751    5.6896   -4.3178 O   0  0  0  0  0  0  0  0  0  0  0  0
    3.1481    6.5103   -5.3520 C   0  0  0  0  0  0  0  0  0  0  0  0
    9.2773    0.2677   -5.3500 H   0  0  0  0  0  0  0  0  0  0  0  0
    9.6215   -0.1726   -6.9684 H   0  0  0  0  0  0  0  0  0  0  0  0
    9.0967    2.2591   -7.6656 H   0  0  0  0  0  0  0  0  0  0  0  0
    8.7995    2.6328   -6.0132 H   0  0  0  0  0  0  0  0  0  0  0  0
   12.3926    2.6538   -5.0310 H   0  0  0  0  0  0  0  0  0  0  0  0
   11.4818    1.1696   -4.7810 H   0  0  0  0  0  0  0  0  0  0  0  0
   12.8251    2.0992   -7.2551 H   0  0  0  0  0  0  0  0  0  0  0  0
   11.8018    0.6852   -7.4529 H   0  0  0  0  0  0  0  0  0  0  0  0
    8.9002    0.0270   -9.0576 H   0  0  0  0  0  0  0  0  0  0  0  0
   10.4127    3.9979   -4.2584 H   0  0  0  0  0  0  0  0  0  0  0  0
    9.6182    2.4736   -3.8006 H   0  0  0  0  0  0  0  0  0  0  0  0
   11.1282    2.9461   -3.0239 H   0  0  0  0  0  0  0  0  0  0  0  0
   12.3627    1.8792   -9.5934 H   0  0  0  0  0  0  0  0  0  0  0  0
   11.5225    3.3226   -9.0003 H   0  0  0  0  0  0  0  0  0  0  0  0
   10.6238    1.8276   -9.3328 H   0  0  0  0  0  0  0  0  0  0  0  0
    4.1187   -0.6711   -9.4164 H   0  0  0  0  0  0  0  0  0  0  0  0
    7.9277   -0.4889  -11.1631 H   0  0  0  0  0  0  0  0  0  0  0  0
    4.6667   -0.0892   -3.7474 H   0  0  0  0  0  0  0  0  0  0  0  0
    3.4387   -0.3854   -4.9485 H   0  0  0  0  0  0  0  0  0  0  0  0
    5.5386   -0.8561  -11.3661 H   0  0  0  0  0  0  0  0  0  0  0  0
    2.1336    1.4872   -5.8754 H   0  0  0  0  0  0  0  0  0  0  0  0
    5.3374    2.3027   -3.2427 H   0  0  0  0  0  0  0  0  0  0  0  0
    1.4223    3.7820   -5.7027 H   0  0  0  0  0  0  0  0  0  0  0  0
    4.6186    4.5919   -3.0871 H   0  0  0  0  0  0  0  0  0  0  0  0
    2.7715    7.5256   -5.2273 H   0  0  0  0  0  0  0  0  0  0  0  0
    4.2384    6.5406   -5.2786 H   0  0  0  0  0  0  0  0  0  0  0  0
    2.8594    6.1624   -6.3476 H   0  0  0  0  0  0  0  0  0  0  0  0
  1  2  1  0  0  0  0 
  1  3  1  0  0  0  0 
  2  4  1  0  0  0  0 
  3  5  1  0  0  0  0 
  3  6  1  0  0  0  0 
  4  7  1  0  0  0  0 
  4  8  1  0  0  0  0 
  5  9  1  0  0  0  0 
  5 10  2  0  0  0  0 
  6 11  2  0  0  0  0 
  6 12  1  0  0  0  0 
  7 13  1  0  0  0  0 
  8 14  1  0  0  0  0 
  9 15  1  0  0  0  0 
  9 16  2  0  0  0  0 
 10 17  1  0  0  0  0 
 12 15  2  0  0  0  0 
 12 18  1  0  0  0  0 
 16 19  1  0  0  0  0 
 17 19  2  0  0  0  0 
 18 20  1  0  0  0  0 
 20 21  2  0  0  0  0 
 20 22  1  0  0  0  0 
 21 23  1  0  0  0  0 
 22 24  2  0  0  0  0 
 23 25  2  0  0  0  0 
 24 25  1  0  0  0  0 
 25 26  1  0  0  0  0 
 26 27  1  0  0  0  0 
  1 28  1  0  0  0  0 
  1 29  1  0  0  0  0 
  2 30  1  0  0  0  0 
  2 31  1  0  0  0  0 
  7 32  1  0  0  0  0 
  7 33  1  0  0  0  0 
  8 34  1  0  0  0  0 
  8 35  1  0  0  0  0 
 10 36  1  0  0  0  0 
 13 37  1  0  0  0  0 
 13 38  1  0  0  0  0 
 13 39  1  0  0  0  0 
 14 40  1  0  0  0  0 
 14 41  1  0  0  0  0 
 14 42  1  0  0  0  0 
 16 43  1  0  0  0  0 
 17 44  1  0  0  0  0 
 18 45  1  0  0  0  0 
 18 46  1  0  0  0  0 
 19 47  1  0  0  0  0 
 21 48  1  0  0  0  0 
 22 49  1  0  0  0  0 
 23 50  1  0  0  0  0 
 24 51  1  0  0  0  0 
 27 52  1  0  0  0  0 
 27 53  1  0  0  0  0 
 27 54  1  0  0  0  0 
M  END
> <cdk:Title>
caroverine

> <Conformer>
1

> <SuperDrugID>
SD000444

$$$$
