magnesium hydroxide
  CDK     0628171801

  5  4  0  0  0  0  0  0  0  0999 V2000
    0.2482    0.6243    0.0138 Mg  0  0  0  0  0  0  0  0  0  0  0  0
    2.1756   -0.2558   -0.3563 O   0  0  0  0  0  0  0  0  0  0  0  0
   -1.6763    1.5135    0.3775 O   0  0  0  0  0  0  0  0  0  0  0  0
    2.1540   -1.1088    0.1258 H   0  0  0  0  0  0  0  0  0  0  0  0
   -2.1448    0.8649    0.9434 H   0  0  0  0  0  0  0  0  0  0  0  0
  1  2  1  0  0  0  0 
  1  3  1  0  0  0  0 
  2  4  1  0  0  0  0 
  3  5  1  0  0  0  0 
M  END
> <cdk:Title>
magnesium hydroxide

> <Conformer>
1

> <SuperDrugID>
SD003450

$$$$
