ethylhydrocupreine
  CDK     0628171801

 53 56  0  0  0  0  0  0  0  0999 V2000
   -2.3330    3.3981   -0.8533 C   0  0  2  0  0  0  0  0  0  0  0  0
   -2.1703    2.1133   -0.2542 O   0  0  0  0  0  0  0  0  0  0  0  0
   -1.4563    3.5527   -2.0635 C   0  0  0  0  0  0  0  0  0  0  0  0
   -2.1071    4.5805    0.1482 C   0  0  1  0  0  0  0  0  0  0  0  0
   -0.0768    3.1700   -2.1206 C   0  0  0  0  0  0  0  0  0  0  0  0
   -2.0329    4.1560   -3.2088 C   0  0  0  0  0  0  0  0  0  0  0  0
   -2.4888    5.9203   -0.4576 N   0  0  2  0  0  0  0  0  0  0  0  0
   -2.7904    4.4255    1.5569 C   0  0  2  0  0  0  0  0  0  0  0  0
    0.6430    3.4151   -3.3306 C   0  0  0  0  0  0  0  0  0  0  0  0
    0.6333    2.5528   -1.0559 C   0  0  0  0  0  0  0  0  0  0  0  0
   -1.2647    4.3859   -4.3596 C   0  0  0  0  0  0  0  0  0  0  0  0
   -1.8707    7.0262    0.3583 C   0  0  1  0  0  0  0  0  0  0  0  0
   -3.9837    6.1275   -0.4675 C   0  0  1  0  0  0  0  0  0  0  0  0
   -3.3970    5.8018    1.9929 C   0  0  1  0  0  0  0  0  0  0  0  0
    1.9944    3.0402   -3.4604 C   0  0  0  0  0  0  0  0  0  0  0  0
    0.0327    4.0122   -4.3849 N   0  0  0  0  0  0  0  0  0  0  0  0
    1.9652    2.1170   -1.2096 C   0  0  0  0  0  0  0  0  0  0  0  0
   -2.3255    6.9531    1.8679 C   0  0  1  0  0  0  0  0  0  0  0  0
   -4.5574    6.1139    0.9883 C   0  0  2  0  0  0  0  0  0  0  0  0
    2.6500    2.3842   -2.4078 C   0  0  0  0  0  0  0  0  0  0  0  0
    2.5908    1.4441   -0.1933 O   0  0  0  0  0  0  0  0  0  0  0  0
   -1.1034    6.8578    2.8410 C   0  0  2  0  0  0  0  0  0  0  0  0
    2.3141    0.0269   -0.2151 C   0  0  1  0  0  0  0  0  0  0  0  0
   -1.4543    6.9220    4.3447 C   0  0  0  0  0  0  0  0  0  0  0  0
    2.9654   -0.6409    1.0089 C   0  0  0  0  0  0  0  0  0  0  0  0
   -1.0273    4.5901    0.3387 H   0  0  0  0  0  0  0  0  0  0  0  0
   -3.3801    3.3861   -1.1560 H   0  0  0  0  0  0  0  0  0  0  0  0
   -2.8156    2.0828    0.4819 H   0  0  0  0  0  0  0  0  0  0  0  0
   -3.0141    4.4474   -3.2199 H   0  0  0  0  0  0  0  0  0  0  0  0
   -2.0638    4.0791    2.2979 H   0  0  0  0  0  0  0  0  0  0  0  0
   -3.5872    3.6773    1.5260 H   0  0  0  0  0  0  0  0  0  0  0  0
    0.2001    2.3957   -0.1465 H   0  0  0  0  0  0  0  0  0  0  0  0
   -1.6750    4.8353   -5.1798 H   0  0  0  0  0  0  0  0  0  0  0  0
   -0.7842    6.9700    0.2609 H   0  0  0  0  0  0  0  0  0  0  0  0
   -2.1524    7.9938   -0.0695 H   0  0  0  0  0  0  0  0  0  0  0  0
   -4.2197    7.0796   -0.9514 H   0  0  0  0  0  0  0  0  0  0  0  0
   -4.4809    5.3628   -1.0661 H   0  0  0  0  0  0  0  0  0  0  0  0
   -3.8033    5.7391    3.0063 H   0  0  0  0  0  0  0  0  0  0  0  0
    2.5034    3.2356   -4.3261 H   0  0  0  0  0  0  0  0  0  0  0  0
   -2.8288    7.8953    2.1102 H   0  0  0  0  0  0  0  0  0  0  0  0
   -5.3468    5.3626    1.0799 H   0  0  0  0  0  0  0  0  0  0  0  0
   -5.0035    7.0834    1.2252 H   0  0  0  0  0  0  0  0  0  0  0  0
    3.6249    2.0944   -2.5155 H   0  0  0  0  0  0  0  0  0  0  0  0
   -0.4362    7.6987    2.6325 H   0  0  0  0  0  0  0  0  0  0  0  0
   -0.5364    5.9444    2.6499 H   0  0  0  0  0  0  0  0  0  0  0  0
    1.2371   -0.1684   -0.1733 H   0  0  0  0  0  0  0  0  0  0  0  0
    2.7207   -0.4333   -1.1215 H   0  0  0  0  0  0  0  0  0  0  0  0
   -0.5361    6.9819    4.9337 H   0  0  0  0  0  0  0  0  0  0  0  0
   -1.9999    6.0297    4.6532 H   0  0  0  0  0  0  0  0  0  0  0  0
   -2.0589    7.8058    4.5562 H   0  0  0  0  0  0  0  0  0  0  0  0
    4.0424   -0.4651    1.0058 H   0  0  0  0  0  0  0  0  0  0  0  0
    2.7831   -1.7172    0.9854 H   0  0  0  0  0  0  0  0  0  0  0  0
    2.5402   -0.2320    1.9275 H   0  0  0  0  0  0  0  0  0  0  0  0
  1  2  1  0  0  0  0 
  1  3  1  0  0  0  0 
  4  1  1  0  0  0  0 
  3  5  2  0  0  0  0 
  3  6  1  0  0  0  0 
  7  4  1  0  0  0  0 
  4  8  1  0  0  0  0 
  4 26  1  0  0  0  0 
  5  9  1  0  0  0  0 
  5 10  1  0  0  0  0 
  6 11  2  0  0  0  0 
  7 12  1  0  0  0  0 
  7 13  1  0  0  0  0 
 14  8  1  0  0  0  0 
  9 15  1  0  0  0  0 
  9 16  2  0  0  0  0 
 10 17  2  0  0  0  0 
 11 16  1  0  0  0  0 
 18 12  1  0  0  0  0 
 13 19  1  0  0  0  0 
 14 18  1  0  0  0  0 
 14 19  1  0  0  0  0 
 15 20  2  0  0  0  0 
 17 20  1  0  0  0  0 
 17 21  1  0  0  0  0 
 18 22  1  0  0  0  0 
 21 23  1  0  0  0  0 
 22 24  1  0  0  0  0 
 23 25  1  0  0  0  0 
  1 27  1  0  0  0  0 
  2 28  1  0  0  0  0 
  6 29  1  0  0  0  0 
  8 30  1  0  0  0  0 
  8 31  1  0  0  0  0 
 10 32  1  0  0  0  0 
 11 33  1  0  0  0  0 
 12 34  1  0  0  0  0 
 12 35  1  0  0  0  0 
 13 36  1  0  0  0  0 
 13 37  1  0  0  0  0 
 14 38  1  0  0  0  0 
 15 39  1  0  0  0  0 
 18 40  1  0  0  0  0 
 19 41  1  0  0  0  0 
 19 42  1  0  0  0  0 
 20 43  1  0  0  0  0 
 22 44  1  0  0  0  0 
 22 45  1  0  0  0  0 
 23 46  1  0  0  0  0 
 23 47  1  0  0  0  0 
 24 48  1  0  0  0  0 
 24 49  1  0  0  0  0 
 24 50  1  0  0  0  0 
 25 51  1  0  0  0  0 
 25 52  1  0  0  0  0 
 25 53  1  0  0  0  0 
M  END
> <cdk:Title>
ethylhydrocupreine

> <Conformer>
1

> <SuperDrugID>
SD003196

$$$$
