bexarotene
  CDK     0628171801

 54 56  0  0  0  0  0  0  0  0999 V2000
    4.1191  -12.3526   -5.4586 C   0  0  2  0  0  0  0  0  0  0  0  0
    3.1447  -11.3574   -4.8482 C   0  0  0  0  0  0  0  0  0  0  0  0
    3.8123  -12.5916   -6.9791 C   0  0  1  0  0  0  0  0  0  0  0  0
    2.2702  -10.5361   -5.6293 C   0  0  0  0  0  0  0  0  0  0  0  0
    3.1158  -11.2057   -3.4377 C   0  0  0  0  0  0  0  0  0  0  0  0
    3.5358  -11.2763   -7.7302 C   0  0  1  0  0  0  0  0  0  0  0  0
    2.2963  -10.5070   -7.1498 C   0  0  2  0  0  0  0  0  0  0  0  0
    1.3397   -9.7105   -4.9452 C   0  0  0  0  0  0  0  0  0  0  0  0
    2.2095  -10.3543   -2.7668 C   0  0  0  0  0  0  0  0  0  0  0  0
    1.2877   -9.5985   -3.5385 C   0  0  0  0  0  0  0  0  0  0  0  0
    2.2666  -10.2819   -1.3635 C   0  0  0  0  0  0  0  0  0  0  0  0
    0.2730   -8.6931   -2.9240 C   0  0  0  0  0  0  0  0  0  0  0  0
    2.0751  -11.3963   -0.6288 C   0  0  0  0  0  0  0  0  0  0  0  0
    2.5373   -9.0508   -0.7482 C   0  0  0  0  0  0  0  0  0  0  0  0
    1.7553   -8.5735    0.3335 C   0  0  0  0  0  0  0  0  0  0  0  0
    3.5776   -8.2180   -1.2283 C   0  0  0  0  0  0  0  0  0  0  0  0
    2.0098   -7.3172    0.9131 C   0  0  0  0  0  0  0  0  0  0  0  0
    3.8278   -6.9635   -0.6524 C   0  0  0  0  0  0  0  0  0  0  0  0
    3.0536   -6.4902    0.4331 C   0  0  0  0  0  0  0  0  0  0  0  0
    3.3246   -5.2212    1.0106 C   0  0  0  0  0  0  0  0  0  0  0  0
    4.3963   -4.4855    0.6290 O   0  0  0  0  0  0  0  0  0  0  0  0
    2.5954   -4.7199    1.8976 O   0  0  0  0  0  0  0  0  0  0  0  0
    4.0287  -13.7674   -4.7809 C   0  0  0  0  0  0  0  0  0  0  0  0
    2.4096   -9.0393   -7.6979 C   0  0  0  0  0  0  0  0  0  0  0  0
    0.9749  -11.1382   -7.7080 C   0  0  0  0  0  0  0  0  0  0  0  0
    5.5821  -11.8152   -5.2810 C   0  0  0  0  0  0  0  0  0  0  0  0
    4.6466  -13.1034   -7.4669 H   0  0  0  0  0  0  0  0  0  0  0  0
    2.9391  -13.2406   -7.0948 H   0  0  0  0  0  0  0  0  0  0  0  0
    3.7874  -11.7293   -2.8728 H   0  0  0  0  0  0  0  0  0  0  0  0
    4.4356  -10.6567   -7.6695 H   0  0  0  0  0  0  0  0  0  0  0  0
    3.3889  -11.5025   -8.7909 H   0  0  0  0  0  0  0  0  0  0  0  0
    0.6734   -9.1589   -5.4868 H   0  0  0  0  0  0  0  0  0  0  0  0
   -0.4466   -8.3117   -3.6492 H   0  0  0  0  0  0  0  0  0  0  0  0
   -0.2974   -9.2235   -2.1605 H   0  0  0  0  0  0  0  0  0  0  0  0
    0.7689   -7.8311   -2.4746 H   0  0  0  0  0  0  0  0  0  0  0  0
    2.1315  -11.3766    0.3617 H   0  0  0  0  0  0  0  0  0  0  0  0
    1.8748  -12.2711   -1.0556 H   0  0  0  0  0  0  0  0  0  0  0  0
    0.9759   -9.1309    0.6959 H   0  0  0  0  0  0  0  0  0  0  0  0
    4.1658   -8.5112   -2.0133 H   0  0  0  0  0  0  0  0  0  0  0  0
    1.4178   -7.0112    1.6902 H   0  0  0  0  0  0  0  0  0  0  0  0
    4.5830   -6.3970   -1.0466 H   0  0  0  0  0  0  0  0  0  0  0  0
    4.5630   -3.6121    1.0374 H   0  0  0  0  0  0  0  0  0  0  0  0
    2.9967  -14.1248   -4.7787 H   0  0  0  0  0  0  0  0  0  0  0  0
    4.3854  -13.7569   -3.7502 H   0  0  0  0  0  0  0  0  0  0  0  0
    4.6392  -14.4974   -5.3181 H   0  0  0  0  0  0  0  0  0  0  0  0
    3.2578   -8.5243   -7.2391 H   0  0  0  0  0  0  0  0  0  0  0  0
    1.5111   -8.4536   -7.4988 H   0  0  0  0  0  0  0  0  0  0  0  0
    2.5521   -9.0384   -8.7821 H   0  0  0  0  0  0  0  0  0  0  0  0
    0.8276  -12.1495   -7.3253 H   0  0  0  0  0  0  0  0  0  0  0  0
    0.1010  -10.5467   -7.4288 H   0  0  0  0  0  0  0  0  0  0  0  0
    0.9989  -11.1869   -8.7997 H   0  0  0  0  0  0  0  0  0  0  0  0
    5.6801  -10.7989   -5.6649 H   0  0  0  0  0  0  0  0  0  0  0  0
    5.8754  -11.7977   -4.2297 H   0  0  0  0  0  0  0  0  0  0  0  0
    6.2990  -12.4468   -5.8109 H   0  0  0  0  0  0  0  0  0  0  0  0
  1  2  1  0  0  0  0 
  1  3  1  0  0  0  0 
  2  4  2  0  0  0  0 
  2  5  1  0  0  0  0 
  3  6  1  0  0  0  0 
  4  7  1  0  0  0  0 
  4  8  1  0  0  0  0 
  5  9  2  0  0  0  0 
  6  7  1  0  0  0  0 
  8 10  2  0  0  0  0 
  9 10  1  0  0  0  0 
  9 11  1  0  0  0  0 
 10 12  1  0  0  0  0 
 11 13  2  0  0  0  0 
 11 14  1  0  0  0  0 
 14 15  2  0  0  0  0 
 14 16  1  0  0  0  0 
 15 17  1  0  0  0  0 
 16 18  2  0  0  0  0 
 17 19  2  0  0  0  0 
 18 19  1  0  0  0  0 
 19 20  1  0  0  0  0 
 20 21  1  0  0  0  0 
 20 22  2  0  0  0  0 
  1 23  1  0  0  0  0 
  7 24  1  0  0  0  0 
  7 25  1  0  0  0  0 
  1 26  1  0  0  0  0 
  3 27  1  0  0  0  0 
  3 28  1  0  0  0  0 
  5 29  1  0  0  0  0 
  6 30  1  0  0  0  0 
  6 31  1  0  0  0  0 
  8 32  1  0  0  0  0 
 12 33  1  0  0  0  0 
 12 34  1  0  0  0  0 
 12 35  1  0  0  0  0 
 13 36  1  0  0  0  0 
 13 37  1  0  0  0  0 
 15 38  1  0  0  0  0 
 16 39  1  0  0  0  0 
 17 40  1  0  0  0  0 
 18 41  1  0  0  0  0 
 21 42  1  0  0  0  0 
 23 43  1  0  0  0  0 
 23 44  1  0  0  0  0 
 23 45  1  0  0  0  0 
 24 46  1  0  0  0  0 
 24 47  1  0  0  0  0 
 24 48  1  0  0  0  0 
 25 49  1  0  0  0  0 
 25 50  1  0  0  0  0 
 25 51  1  0  0  0  0 
 26 52  1  0  0  0  0 
 26 53  1  0  0  0  0 
 26 54  1  0  0  0  0 
M  END
> <cdk:Title>
bexarotene

> <Conformer>
1

> <SuperDrugID>
SD000306

$$$$
