desloratadine
  CDK     0628171802

 41 44  0  0  0  0  0  0  0  0999 V2000
    3.2142   -6.8038    3.0681 Cl  0  0  0  0  0  0  0  0  0  0  0  0
    2.2114   -5.5253    2.5919 C   0  0  0  0  0  0  0  0  0  0  0  0
    1.5492   -4.7440    3.5602 C   0  0  0  0  0  0  0  0  0  0  0  0
    2.0408   -5.2387    1.2251 C   0  0  0  0  0  0  0  0  0  0  0  0
    0.6877   -3.6878    3.1772 C   0  0  0  0  0  0  0  0  0  0  0  0
    1.2051   -4.1804    0.8270 C   0  0  0  0  0  0  0  0  0  0  0  0
    0.4917   -3.4294    1.7928 C   0  0  0  0  0  0  0  0  0  0  0  0
   -0.0014   -2.8448    4.1981 C   0  0  2  0  0  0  0  0  0  0  0  0
   -0.4040   -2.4403    1.3850 C   0  0  0  0  0  0  0  0  0  0  0  0
    0.4903   -1.3713    4.1632 C   0  0  1  0  0  0  0  0  0  0  0  0
    0.0665   -1.1435    1.5992 C   0  0  0  0  0  0  0  0  0  0  0  0
   -1.6195   -2.7404    0.8403 C   0  0  0  0  0  0  0  0  0  0  0  0
    0.4853   -0.6245    2.8628 C   0  0  0  0  0  0  0  0  0  0  0  0
    0.1750   -0.3570    0.4931 N   0  0  0  0  0  0  0  0  0  0  0  0
   -2.6191   -1.7338    0.4328 C   0  0  2  0  0  0  0  0  0  0  0  0
   -2.0941   -4.1160    0.5753 C   0  0  2  0  0  0  0  0  0  0  0  0
    0.9705    0.7092    2.8919 C   0  0  0  0  0  0  0  0  0  0  0  0
    0.6428    0.9130    0.5088 C   0  0  0  0  0  0  0  0  0  0  0  0
   -2.9159   -1.8703   -1.0863 C   0  0  1  0  0  0  0  0  0  0  0  0
   -2.3742   -4.2864   -0.9429 C   0  0  2  0  0  0  0  0  0  0  0  0
    1.0582    1.4787    1.7204 C   0  0  0  0  0  0  0  0  0  0  0  0
   -3.3132   -3.2538   -1.4437 N   0  0  1  0  0  0  0  0  0  0  0  0
    1.6966   -4.9467    4.5528 H   0  0  0  0  0  0  0  0  0  0  0  0
    2.5172   -5.7997    0.5133 H   0  0  0  0  0  0  0  0  0  0  0  0
    1.1086   -3.9732   -0.1732 H   0  0  0  0  0  0  0  0  0  0  0  0
    0.1608   -3.2374    5.2059 H   0  0  0  0  0  0  0  0  0  0  0  0
   -1.0799   -2.8759    4.0257 H   0  0  0  0  0  0  0  0  0  0  0  0
   -0.1131   -0.8089    4.8811 H   0  0  0  0  0  0  0  0  0  0  0  0
    1.5181   -1.3729    4.5365 H   0  0  0  0  0  0  0  0  0  0  0  0
   -2.3368   -0.7048    0.6484 H   0  0  0  0  0  0  0  0  0  0  0  0
   -3.5451   -1.9069    0.9890 H   0  0  0  0  0  0  0  0  0  0  0  0
   -3.0165   -4.2966    1.1360 H   0  0  0  0  0  0  0  0  0  0  0  0
   -1.4037   -4.9002    0.8823 H   0  0  0  0  0  0  0  0  0  0  0  0
    1.2805    1.1280    3.7737 H   0  0  0  0  0  0  0  0  0  0  0  0
    0.6903    1.4466   -0.3599 H   0  0  0  0  0  0  0  0  0  0  0  0
   -3.7324   -1.2011   -1.3671 H   0  0  0  0  0  0  0  0  0  0  0  0
   -2.0365   -1.5840   -1.6670 H   0  0  0  0  0  0  0  0  0  0  0  0
   -2.8189   -5.2674   -1.1204 H   0  0  0  0  0  0  0  0  0  0  0  0
   -1.4398   -4.2366   -1.5105 H   0  0  0  0  0  0  0  0  0  0  0  0
    1.4232    2.4332    1.7469 H   0  0  0  0  0  0  0  0  0  0  0  0
   -4.2120   -3.4291   -0.9901 H   0  0  0  0  0  0  0  0  0  0  0  0
  1  2  1  0  0  0  0 
  2  3  2  0  0  0  0 
  2  4  1  0  0  0  0 
  3  5  1  0  0  0  0 
  4  6  2  0  0  0  0 
  5  7  2  0  0  0  0 
  5  8  1  0  0  0  0 
  6  7  1  0  0  0  0 
  7  9  1  0  0  0  0 
  8 10  1  0  0  0  0 
  9 11  1  0  0  0  0 
  9 12  2  0  0  0  0 
 10 13  1  0  0  0  0 
 11 13  2  0  0  0  0 
 11 14  1  0  0  0  0 
 12 15  1  0  0  0  0 
 12 16  1  0  0  0  0 
 13 17  1  0  0  0  0 
 14 18  2  0  0  0  0 
 15 19  1  0  0  0  0 
 16 20  1  0  0  0  0 
 17 21  2  0  0  0  0 
 18 21  1  0  0  0  0 
 19 22  1  0  0  0  0 
 20 22  1  0  0  0  0 
  3 23  1  0  0  0  0 
  4 24  1  0  0  0  0 
  6 25  1  0  0  0  0 
  8 26  1  0  0  0  0 
  8 27  1  0  0  0  0 
 10 28  1  0  0  0  0 
 10 29  1  0  0  0  0 
 15 30  1  0  0  0  0 
 15 31  1  0  0  0  0 
 16 32  1  0  0  0  0 
 16 33  1  0  0  0  0 
 17 34  1  0  0  0  0 
 18 35  1  0  0  0  0 
 19 36  1  0  0  0  0 
 19 37  1  0  0  0  0 
 20 38  1  0  0  0  0 
 20 39  1  0  0  0  0 
 21 40  1  0  0  0  0 
 22 41  1  0  0  0  0 
M  END
> <cdk:Title>
desloratadine

> <Conformer>
1

> <SuperDrugID>
SD000719

$$$$
