doxazosin
  CDK     0628171802

 58 62  0  0  0  0  0  0  0  0999 V2000
    1.8780    3.9100    3.9753 N   0  0  0  0  0  0  0  0  0  0  0  0
    2.3190    2.6891    3.6197 C   0  0  0  0  0  0  0  0  0  0  0  0
    1.7814    1.9626    2.5313 C   0  0  0  0  0  0  0  0  0  0  0  0
    3.3320    2.1521    4.3486 N   0  0  0  0  0  0  0  0  0  0  0  0
    2.3683    0.7019    2.2503 C   0  0  0  0  0  0  0  0  0  0  0  0
    0.7101    2.4118    1.7235 C   0  0  0  0  0  0  0  0  0  0  0  0
    3.8897    0.9359    4.0893 C   0  0  0  0  0  0  0  0  0  0  0  0
    3.3808    0.2480    3.0294 N   0  0  0  0  0  0  0  0  0  0  0  0
    1.9014   -0.0802    1.1763 C   0  0  0  0  0  0  0  0  0  0  0  0
    0.2423    1.6307    0.6456 C   0  0  0  0  0  0  0  0  0  0  0  0
    4.9174    0.4090    4.8599 N   0  0  0  0  0  0  0  0  0  0  0  0
    0.8310    0.3744    0.3798 C   0  0  0  0  0  0  0  0  0  0  0  0
   -0.7928    2.0852   -0.1272 O   0  0  0  0  0  0  0  0  0  0  0  0
    5.5500   -0.8574    4.5477 C   0  0  2  0  0  0  0  0  0  0  0  0
    5.4159    1.0460    6.0648 C   0  0  1  0  0  0  0  0  0  0  0  0
    0.3886   -0.3933   -0.6620 O   0  0  0  0  0  0  0  0  0  0  0  0
   -0.3507    2.9336   -1.2011 C   0  0  0  0  0  0  0  0  0  0  0  0
    5.3330   -1.8234    5.7358 C   0  0  2  0  0  0  0  0  0  0  0  0
    5.3188    0.0741    7.2761 C   0  0  2  0  0  0  0  0  0  0  0  0
   -0.6331   -1.3316   -0.2778 C   0  0  0  0  0  0  0  0  0  0  0  0
    5.8207   -1.2651    6.9845 N   0  0  0  0  0  0  0  0  0  0  0  0
    6.6420   -1.9573    7.8819 C   0  0  0  0  0  0  0  0  0  0  0  0
    6.9868   -1.3976    8.9524 O   0  0  0  0  0  0  0  0  0  0  0  0
    7.1514   -3.3567    7.7222 C   0  0  1  0  0  0  0  0  0  0  0  0
    6.0379   -4.2824    7.6199 O   0  0  0  0  0  0  0  0  0  0  0  0
    8.2564   -3.4828    6.6226 C   0  0  1  0  0  0  0  0  0  0  0  0
    5.9709   -5.1024    6.5182 C   0  0  0  0  0  0  0  0  0  0  0  0
    8.3215   -4.8120    6.0653 O   0  0  0  0  0  0  0  0  0  0  0  0
    7.1026   -5.3259    5.6987 C   0  0  0  0  0  0  0  0  0  0  0  0
    4.7325   -5.6806    6.1746 C   0  0  0  0  0  0  0  0  0  0  0  0
    6.9736   -6.0859    4.5180 C   0  0  0  0  0  0  0  0  0  0  0  0
    4.6103   -6.4461    4.9998 C   0  0  0  0  0  0  0  0  0  0  0  0
    5.7276   -6.6399    4.1660 C   0  0  0  0  0  0  0  0  0  0  0  0
    7.6369   -3.6637    8.6557 H   0  0  0  0  0  0  0  0  0  0  0  0
    2.2872    4.3729    4.7225 H   0  0  0  0  0  0  0  0  0  0  0  0
    1.1633    4.3380    3.4782 H   0  0  0  0  0  0  0  0  0  0  0  0
    0.2611    3.3122    1.9078 H   0  0  0  0  0  0  0  0  0  0  0  0
    2.3363   -0.9861    0.9717 H   0  0  0  0  0  0  0  0  0  0  0  0
    6.6223   -0.7039    4.3865 H   0  0  0  0  0  0  0  0  0  0  0  0
    5.1625   -1.3402    3.6465 H   0  0  0  0  0  0  0  0  0  0  0  0
    6.4625    1.3245    5.9126 H   0  0  0  0  0  0  0  0  0  0  0  0
    4.8747    1.9599    6.3215 H   0  0  0  0  0  0  0  0  0  0  0  0
   -1.2263    3.2664   -1.7572 H   0  0  0  0  0  0  0  0  0  0  0  0
    0.1638    3.8198   -0.8220 H   0  0  0  0  0  0  0  0  0  0  0  0
    0.3043    2.3953   -1.8904 H   0  0  0  0  0  0  0  0  0  0  0  0
    5.8057   -2.7548    5.4593 H   0  0  0  0  0  0  0  0  0  0  0  0
    4.2610   -2.0247    5.8384 H   0  0  0  0  0  0  0  0  0  0  0  0
    4.2637   -0.0194    7.5513 H   0  0  0  0  0  0  0  0  0  0  0  0
    5.8263    0.5479    8.1206 H   0  0  0  0  0  0  0  0  0  0  0  0
   -0.9322   -1.8776   -1.1716 H   0  0  0  0  0  0  0  0  0  0  0  0
   -0.2641   -2.0559    0.4534 H   0  0  0  0  0  0  0  0  0  0  0  0
   -1.5173   -0.8291    0.1237 H   0  0  0  0  0  0  0  0  0  0  0  0
    8.1109   -2.7679    5.8110 H   0  0  0  0  0  0  0  0  0  0  0  0
    9.2302   -3.2586    7.0650 H   0  0  0  0  0  0  0  0  0  0  0  0
    3.9151   -5.5361    6.7722 H   0  0  0  0  0  0  0  0  0  0  0  0
    7.7843   -6.2363    3.9125 H   0  0  0  0  0  0  0  0  0  0  0  0
    3.7083   -6.8600    4.7508 H   0  0  0  0  0  0  0  0  0  0  0  0
    5.6337   -7.1888    3.3074 H   0  0  0  0  0  0  0  0  0  0  0  0
  1  2  1  0  0  0  0 
  2  3  2  0  0  0  0 
  2  4  1  0  0  0  0 
  3  5  1  0  0  0  0 
  3  6  1  0  0  0  0 
  4  7  2  0  0  0  0 
  5  8  2  0  0  0  0 
  5  9  1  0  0  0  0 
  6 10  2  0  0  0  0 
  7  8  1  0  0  0  0 
  7 11  1  0  0  0  0 
  9 12  2  0  0  0  0 
 10 12  1  0  0  0  0 
 10 13  1  0  0  0  0 
 11 14  1  0  0  0  0 
 11 15  1  0  0  0  0 
 12 16  1  0  0  0  0 
 13 17  1  0  0  0  0 
 14 18  1  0  0  0  0 
 15 19  1  0  0  0  0 
 16 20  1  0  0  0  0 
 18 21  1  0  0  0  0 
 19 21  1  0  0  0  0 
 21 22  1  0  0  0  0 
 22 23  2  0  0  0  0 
 24 22  1  0  0  0  0 
 24 25  1  0  0  0  0 
 24 26  1  0  0  0  0 
 25 27  1  0  0  0  0 
 26 28  1  0  0  0  0 
 27 29  2  0  0  0  0 
 27 30  1  0  0  0  0 
 28 29  1  0  0  0  0 
 29 31  1  0  0  0  0 
 30 32  2  0  0  0  0 
 31 33  2  0  0  0  0 
 32 33  1  0  0  0  0 
 24 34  1  0  0  0  0 
  1 35  1  0  0  0  0 
  1 36  1  0  0  0  0 
  6 37  1  0  0  0  0 
  9 38  1  0  0  0  0 
 14 39  1  0  0  0  0 
 14 40  1  0  0  0  0 
 15 41  1  0  0  0  0 
 15 42  1  0  0  0  0 
 17 43  1  0  0  0  0 
 17 44  1  0  0  0  0 
 17 45  1  0  0  0  0 
 18 46  1  0  0  0  0 
 18 47  1  0  0  0  0 
 19 48  1  0  0  0  0 
 19 49  1  0  0  0  0 
 20 50  1  0  0  0  0 
 20 51  1  0  0  0  0 
 20 52  1  0  0  0  0 
 26 53  1  0  0  0  0 
 26 54  1  0  0  0  0 
 30 55  1  0  0  0  0 
 31 56  1  0  0  0  0 
 32 57  1  0  0  0  0 
 33 58  1  0  0  0  0 
M  END
> <cdk:Title>
doxazosin

> <Conformer>
1

> <SuperDrugID>
SD000846

$$$$
