fusidic acid
  CDK     0628171801

 85 88  0  0  0  0  0  0  0  0999 V2000
   -3.1404   -7.5680    2.2671 C   0  0  0  0  0  0  0  0  0  0  0  0
   -3.3748   -7.4798    0.6738 C   0  0  1  0  0  0  0  0  0  0  0  0
   -3.7476   -5.9464    0.1502 C   0  0  2  0  0  0  0  0  0  0  0  0
   -2.0658   -7.9375   -0.1295 C   0  0  2  0  0  0  0  0  0  0  0  0
   -4.4852   -8.5795    0.3248 C   0  0  2  0  0  0  0  0  0  0  0  0
   -4.3120   -5.9045   -1.3335 C   0  0  0  0  0  0  0  0  0  0  0  0
   -2.5414   -4.9355    0.4424 C   0  0  2  0  0  0  0  0  0  0  0  0
   -4.8458   -5.1973    1.0651 C   0  0  1  0  0  0  0  0  0  0  0  0
   -1.7407   -9.5235   -0.2890 C   0  0  2  0  0  0  0  0  0  0  0  0
   -0.8896   -6.9143    0.0649 C   0  0  1  0  0  0  0  0  0  0  0  0
   -4.1374  -10.0692    0.6161 C   0  0  1  0  0  0  0  0  0  0  0  0
   -3.1648   -3.6026    0.2883 C   0  0  0  0  0  0  0  0  0  0  0  0
   -1.2784   -5.4469   -0.3185 C   0  0  2  0  0  0  0  0  0  0  0  0
   -4.5603   -3.6963    0.7650 C   0  0  1  0  0  0  0  0  0  0  0  0
   -2.0307   -9.9493   -1.7919 C   0  0  0  0  0  0  0  0  0  0  0  0
   -2.6153  -10.4142    0.6914 C   0  0  1  0  0  0  0  0  0  0  0  0
   -0.2316   -9.8753    0.0148 C   0  0  2  0  0  0  0  0  0  0  0  0
   -0.3705   -6.9564    1.3924 O   0  0  0  0  0  0  0  0  0  0  0  0
   -2.6062   -2.4310   -0.1431 C   0  0  0  0  0  0  0  0  0  0  0  0
   -5.4809   -3.1787   -0.2159 O   0  0  0  0  0  0  0  0  0  0  0  0
   -2.3082  -11.9633    0.6304 C   0  0  2  0  0  0  0  0  0  0  0  0
    0.1294  -11.3877   -0.0240 C   0  0  2  0  0  0  0  0  0  0  0  0
   -1.1921   -2.2974   -0.5366 C   0  0  1  0  0  0  0  0  0  0  0  0
   -3.3845   -1.2806   -0.2158 C   0  0  0  0  0  0  0  0  0  0  0  0
   -6.8072   -2.8994   -0.0549 C   0  0  0  0  0  0  0  0  0  0  0  0
   -3.1668  -12.8183    1.6075 C   0  0  0  0  0  0  0  0  0  0  0  0
   -0.7887  -12.2408    0.8837 C   0  0  1  0  0  0  0  0  0  0  0  0
   -0.6260   -0.9007   -0.9495 C   0  0  1  0  0  0  0  0  0  0  0  0
   -3.8197   -0.8281   -1.4164 O   0  0  0  0  0  0  0  0  0  0  0  0
   -3.6981   -0.6496    0.8193 O   0  0  0  0  0  0  0  0  0  0  0  0
   -7.5790   -2.3985   -1.1983 C   0  0  0  0  0  0  0  0  0  0  0  0
   -7.3790   -3.0539    1.0498 O   0  0  0  0  0  0  0  0  0  0  0  0
   -0.4363  -12.0008    2.2481 O   0  0  0  0  0  0  0  0  0  0  0  0
    0.8145   -0.9324   -1.1958 C   0  0  0  0  0  0  0  0  0  0  0  0
    1.7959   -0.5603   -0.3401 C   0  0  0  0  0  0  0  0  0  0  0  0
    3.2020   -0.6583   -0.7338 C   0  0  0  0  0  0  0  0  0  0  0  0
    1.5147   -0.0434    0.9985 C   0  0  0  0  0  0  0  0  0  0  0  0
   -2.2951   -7.6731   -1.1482 H   0  0  0  0  0  0  0  0  0  0  0  0
   -2.1684   -4.8697    1.5005 H   0  0  0  0  0  0  0  0  0  0  0  0
   -2.3106  -10.1674    1.7037 H   0  0  0  0  0  0  0  0  0  0  0  0
   -2.3515   -8.2482    2.5631 H   0  0  0  0  0  0  0  0  0  0  0  0
   -4.0549   -7.8490    2.7934 H   0  0  0  0  0  0  0  0  0  0  0  0
   -2.8393   -6.6108    2.6808 H   0  0  0  0  0  0  0  0  0  0  0  0
   -4.7139   -8.5168   -0.7399 H   0  0  0  0  0  0  0  0  0  0  0  0
   -5.4167   -8.3227    0.8370 H   0  0  0  0  0  0  0  0  0  0  0  0
   -4.3699   -4.8915   -1.7288 H   0  0  0  0  0  0  0  0  0  0  0  0
   -3.7200   -6.4539   -2.0581 H   0  0  0  0  0  0  0  0  0  0  0  0
   -5.3207   -6.3211   -1.3585 H   0  0  0  0  0  0  0  0  0  0  0  0
   -5.9245   -5.4343    0.8727 H   0  0  0  0  0  0  0  0  0  0  0  0
   -4.7463   -5.3183    2.1746 H   0  0  0  0  0  0  0  0  0  0  0  0
   -0.0665   -7.1766   -0.6013 H   0  0  0  0  0  0  0  0  0  0  0  0
   -4.6045  -10.3461    1.5649 H   0  0  0  0  0  0  0  0  0  0  0  0
   -4.6075  -10.6877   -0.1539 H   0  0  0  0  0  0  0  0  0  0  0  0
   -0.4061   -4.8400   -0.0809 H   0  0  0  0  0  0  0  0  0  0  0  0
   -1.4462   -5.3775   -1.3957 H   0  0  0  0  0  0  0  0  0  0  0  0
   -4.6571   -3.1067    1.6828 H   0  0  0  0  0  0  0  0  0  0  0  0
   -1.8604  -11.0010   -2.0026 H   0  0  0  0  0  0  0  0  0  0  0  0
   -1.3876   -9.3885   -2.4740 H   0  0  0  0  0  0  0  0  0  0  0  0
   -3.0642   -9.7337   -2.0680 H   0  0  0  0  0  0  0  0  0  0  0  0
    0.0276   -9.5038    1.0098 H   0  0  0  0  0  0  0  0  0  0  0  0
    0.4274   -9.3795   -0.7016 H   0  0  0  0  0  0  0  0  0  0  0  0
    0.3845   -6.3314    1.3958 H   0  0  0  0  0  0  0  0  0  0  0  0
   -2.5540  -12.3396   -0.3651 H   0  0  0  0  0  0  0  0  0  0  0  0
    1.1671  -11.5125    0.2972 H   0  0  0  0  0  0  0  0  0  0  0  0
    0.0753  -11.7636   -1.0472 H   0  0  0  0  0  0  0  0  0  0  0  0
   -0.5917   -2.6265    0.3146 H   0  0  0  0  0  0  0  0  0  0  0  0
   -1.0166   -2.9612   -1.3853 H   0  0  0  0  0  0  0  0  0  0  0  0
   -4.2198  -12.7827    1.3282 H   0  0  0  0  0  0  0  0  0  0  0  0
   -3.0633  -12.4561    2.6311 H   0  0  0  0  0  0  0  0  0  0  0  0
   -2.8553  -13.8636    1.5718 H   0  0  0  0  0  0  0  0  0  0  0  0
   -0.5797  -13.2959    0.6824 H   0  0  0  0  0  0  0  0  0  0  0  0
   -1.1162   -0.5808   -1.8724 H   0  0  0  0  0  0  0  0  0  0  0  0
   -0.8777   -0.1609   -0.1884 H   0  0  0  0  0  0  0  0  0  0  0  0
   -4.3743   -0.0198   -1.4677 H   0  0  0  0  0  0  0  0  0  0  0  0
   -7.9986   -1.4212   -0.9633 H   0  0  0  0  0  0  0  0  0  0  0  0
   -6.9456   -2.3006   -2.0794 H   0  0  0  0  0  0  0  0  0  0  0  0
   -8.3902   -3.0888   -1.4246 H   0  0  0  0  0  0  0  0  0  0  0  0
    0.5065  -12.2627    2.3184 H   0  0  0  0  0  0  0  0  0  0  0  0
    1.0794   -1.2759   -2.0915 H   0  0  0  0  0  0  0  0  0  0  0  0
    3.6694    0.3261   -0.6779 H   0  0  0  0  0  0  0  0  0  0  0  0
    3.3490   -1.0384   -1.7475 H   0  0  0  0  0  0  0  0  0  0  0  0
    3.7272   -1.3269   -0.0501 H   0  0  0  0  0  0  0  0  0  0  0  0
    2.4249    0.1279    1.5792 H   0  0  0  0  0  0  0  0  0  0  0  0
    0.9007   -0.7506    1.5577 H   0  0  0  0  0  0  0  0  0  0  0  0
    0.9868    0.9088    0.9262 H   0  0  0  0  0  0  0  0  0  0  0  0
  2  1  1  0  0  0  0 
  2  3  1  0  0  0  0 
  4  2  1  0  0  0  0 
  2  5  1  0  0  0  0 
  3  6  1  0  0  0  0 
  3  7  1  0  0  0  0 
  3  8  1  0  0  0  0 
  4  9  1  0  0  0  0 
 10  4  1  0  0  0  0 
  4 38  1  0  0  0  0 
  5 11  1  0  0  0  0 
  7 12  1  0  0  0  0 
  7 13  1  0  0  0  0 
  7 39  1  0  0  0  0 
 14  8  1  0  0  0  0 
  9 15  1  0  0  0  0 
  9 16  1  0  0  0  0 
  9 17  1  0  0  0  0 
 10 13  1  0  0  0  0 
 10 18  1  0  0  0  0 
 16 11  1  0  0  0  0 
 14 12  1  0  0  0  0 
 12 19  2  0  0  0  0 
 14 20  1  0  0  0  0 
 16 21  1  0  0  0  0 
 16 40  1  0  0  0  0 
 17 22  1  0  0  0  0 
 19 23  1  0  0  0  0 
 19 24  1  0  0  0  0 
 20 25  1  0  0  0  0 
 21 26  1  0  0  0  0 
 21 27  1  0  0  0  0 
 27 22  1  0  0  0  0 
 23 28  1  0  0  0  0 
 24 29  1  0  0  0  0 
 24 30  2  0  0  0  0 
 25 31  1  0  0  0  0 
 25 32  2  0  0  0  0 
 27 33  1  0  0  0  0 
 28 34  1  0  0  0  0 
 34 35  2  0  0  0  0 
 35 36  1  0  0  0  0 
 35 37  1  0  0  0  0 
  1 41  1  0  0  0  0 
  1 42  1  0  0  0  0 
  1 43  1  0  0  0  0 
  5 44  1  0  0  0  0 
  5 45  1  0  0  0  0 
  6 46  1  0  0  0  0 
  6 47  1  0  0  0  0 
  6 48  1  0  0  0  0 
  8 49  1  0  0  0  0 
  8 50  1  0  0  0  0 
 10 51  1  0  0  0  0 
 11 52  1  0  0  0  0 
 11 53  1  0  0  0  0 
 13 54  1  0  0  0  0 
 13 55  1  0  0  0  0 
 14 56  1  0  0  0  0 
 15 57  1  0  0  0  0 
 15 58  1  0  0  0  0 
 15 59  1  0  0  0  0 
 17 60  1  0  0  0  0 
 17 61  1  0  0  0  0 
 18 62  1  0  0  0  0 
 21 63  1  0  0  0  0 
 22 64  1  0  0  0  0 
 22 65  1  0  0  0  0 
 23 66  1  0  0  0  0 
 23 67  1  0  0  0  0 
 26 68  1  0  0  0  0 
 26 69  1  0  0  0  0 
 26 70  1  0  0  0  0 
 27 71  1  0  0  0  0 
 28 72  1  0  0  0  0 
 28 73  1  0  0  0  0 
 29 74  1  0  0  0  0 
 31 75  1  0  0  0  0 
 31 76  1  0  0  0  0 
 31 77  1  0  0  0  0 
 33 78  1  0  0  0  0 
 34 79  1  0  0  0  0 
 36 80  1  0  0  0  0 
 36 81  1  0  0  0  0 
 36 82  1  0  0  0  0 
 37 83  1  0  0  0  0 
 37 84  1  0  0  0  0 
 37 85  1  0  0  0  0 
M  END
> <cdk:Title>
fusidic acid

> <Conformer>
1

> <SuperDrugID>
SD001130

$$$$
