metharbital
  CDK     0628171801

 28 28  0  0  0  0  0  0  0  0999 V2000
   -2.9260   -1.2076   -1.6031 C   0  0  2  0  0  0  0  0  0  0  0  0
   -2.4475   -0.1184   -2.5993 C   0  0  0  0  0  0  0  0  0  0  0  0
   -2.2708   -1.1861   -0.1717 C   0  0  1  0  0  0  0  0  0  0  0  0
   -2.8463   -2.3832    0.6784 C   0  0  2  0  0  0  0  0  0  0  0  0
   -0.7775   -1.3490   -0.2863 C   0  0  0  0  0  0  0  0  0  0  0  0
   -2.6205    0.1102    0.4934 C   0  0  0  0  0  0  0  0  0  0  0  0
   -2.3266   -2.5150    2.1331 C   0  0  0  0  0  0  0  0  0  0  0  0
   -0.3555   -2.3886   -0.8529 O   0  0  0  0  0  0  0  0  0  0  0  0
    0.1268   -0.4251    0.2180 N   0  0  0  0  0  0  0  0  0  0  0  0
   -3.8138    0.4432    0.6787 O   0  0  0  0  0  0  0  0  0  0  0  0
   -1.6774    0.9780    0.9195 N   0  0  0  0  0  0  0  0  0  0  0  0
    1.5485   -0.6942    0.1313 C   0  0  0  0  0  0  0  0  0  0  0  0
   -0.3521    0.7323    0.8039 C   0  0  0  0  0  0  0  0  0  0  0  0
    0.3987    1.6192    1.2741 O   0  0  0  0  0  0  0  0  0  0  0  0
   -2.7493   -2.1801   -2.0711 H   0  0  0  0  0  0  0  0  0  0  0  0
   -4.0114   -1.1046   -1.5077 H   0  0  0  0  0  0  0  0  0  0  0  0
   -2.9820   -0.2304   -3.5450 H   0  0  0  0  0  0  0  0  0  0  0  0
   -2.6471    0.8814   -2.2095 H   0  0  0  0  0  0  0  0  0  0  0  0
   -1.3793   -0.2155   -2.7963 H   0  0  0  0  0  0  0  0  0  0  0  0
   -2.6248   -3.3265    0.1698 H   0  0  0  0  0  0  0  0  0  0  0  0
   -3.9367   -2.3076    0.7264 H   0  0  0  0  0  0  0  0  0  0  0  0
   -2.7895   -3.3817    2.6091 H   0  0  0  0  0  0  0  0  0  0  0  0
   -1.2443   -2.6530    2.1553 H   0  0  0  0  0  0  0  0  0  0  0  0
   -2.5832   -1.6308    2.7178 H   0  0  0  0  0  0  0  0  0  0  0  0
   -1.9638    1.8085    1.3322 H   0  0  0  0  0  0  0  0  0  0  0  0
    1.8480   -0.8277   -0.9115 H   0  0  0  0  0  0  0  0  0  0  0  0
    2.1731    0.0962    0.5524 H   0  0  0  0  0  0  0  0  0  0  0  0
    1.7844   -1.6100    0.6754 H   0  0  0  0  0  0  0  0  0  0  0  0
  1  2  1  0  0  0  0 
  1  3  1  0  0  0  0 
  3  4  1  0  0  0  0 
  3  5  1  0  0  0  0 
  3  6  1  0  0  0  0 
  4  7  1  0  0  0  0 
  5  8  2  0  0  0  0 
  5  9  1  0  0  0  0 
  6 10  2  0  0  0  0 
  6 11  1  0  0  0  0 
  9 12  1  0  0  0  0 
  9 13  1  0  0  0  0 
 11 13  1  0  0  0  0 
 13 14  2  0  0  0  0 
 15  1  1  0  0  0  0 
 16  1  1  0  0  0  0 
 17  2  1  0  0  0  0 
 18  2  1  0  0  0  0 
 19  2  1  0  0  0  0 
 20  4  1  0  0  0  0 
 21  4  1  0  0  0  0 
 22  7  1  0  0  0  0 
 23  7  1  0  0  0  0 
 24  7  1  0  0  0  0 
 25 11  1  0  0  0  0 
 26 12  1  0  0  0  0 
 27 12  1  0  0  0  0 
 28 12  1  0  0  0  0 
M  END
> <cdk:Title>
metharbital

> <Conformer>
1

> <SuperDrugID>
SD001540

$$$$
