selegiline
  CDK     0628171801

 31 31  0  0  0  0  0  0  0  0999 V2000
    0.0551    2.2801    0.1316 C   0  0  0  0  0  0  0  0  0  0  0  0
   -0.7716    1.1424    0.1948 C   0  0  0  0  0  0  0  0  0  0  0  0
   -0.2155   -0.1408    0.0491 C   0  0  0  0  0  0  0  0  0  0  0  0
    1.1668   -0.2828   -0.1673 C   0  0  0  0  0  0  0  0  0  0  0  0
    1.9939    0.8548   -0.2258 C   0  0  0  0  0  0  0  0  0  0  0  0
    1.4523    2.1532   -0.0631 C   0  0  0  0  0  0  0  0  0  0  0  0
    2.3223    3.3632   -0.1059 C   0  0  2  0  0  0  0  0  0  0  0  0
    2.4748    4.1048    1.2636 C   0  0  2  0  0  0  0  0  0  0  0  0
    3.1135    5.4673    1.1386 N   0  0  1  0  0  0  0  0  0  0  0  0
    4.4467    5.5279    0.4518 C   0  0  1  0  0  0  0  0  0  0  0  0
    3.2153    3.2581    2.3384 C   0  0  0  0  0  0  0  0  0  0  0  0
    5.2081    6.5805    0.8887 C   0  0  0  0  0  0  0  0  0  0  0  0
    2.1759    6.5576    0.7179 C   0  0  0  0  0  0  0  0  0  0  0  0
    5.8789    7.4950    1.2629 C   0  0  0  0  0  0  0  0  0  0  0  0
   -0.3727    3.2048    0.2295 H   0  0  0  0  0  0  0  0  0  0  0  0
   -1.7780    1.2500    0.3441 H   0  0  0  0  0  0  0  0  0  0  0  0
   -0.8146   -0.9681    0.0982 H   0  0  0  0  0  0  0  0  0  0  0  0
    1.5716   -1.2152   -0.2795 H   0  0  0  0  0  0  0  0  0  0  0  0
    2.9978    0.7269   -0.3811 H   0  0  0  0  0  0  0  0  0  0  0  0
    1.8965    4.0487   -0.8399 H   0  0  0  0  0  0  0  0  0  0  0  0
    3.3174    3.1034   -0.4725 H   0  0  0  0  0  0  0  0  0  0  0  0
    1.4689    4.2453    1.6729 H   0  0  0  0  0  0  0  0  0  0  0  0
    5.0330    4.6315    0.6430 H   0  0  0  0  0  0  0  0  0  0  0  0
    4.3260    5.6069   -0.6301 H   0  0  0  0  0  0  0  0  0  0  0  0
    2.6106    2.3988    2.6329 H   0  0  0  0  0  0  0  0  0  0  0  0
    4.1715    2.8896    1.9667 H   0  0  0  0  0  0  0  0  0  0  0  0
    3.4004    3.8610    3.2293 H   0  0  0  0  0  0  0  0  0  0  0  0
    2.6181    7.5385    0.9016 H   0  0  0  0  0  0  0  0  0  0  0  0
    1.2475    6.5183    1.2905 H   0  0  0  0  0  0  0  0  0  0  0  0
    1.9356    6.4793   -0.3444 H   0  0  0  0  0  0  0  0  0  0  0  0
    6.3980    8.2004    1.5513 H   0  0  0  0  0  0  0  0  0  0  0  0
  1  2  2  0  0  0  0 
  2  3  1  0  0  0  0 
  3  4  2  0  0  0  0 
  4  5  1  0  0  0  0 
  5  6  2  0  0  0  0 
  1  6  1  0  0  0  0 
  6  7  1  0  0  0  0 
  7  8  1  0  0  0  0 
  8  9  1  0  0  0  0 
  9 10  1  0  0  0  0 
  8 11  1  0  0  0  0 
 10 12  1  0  0  0  0 
  9 13  1  0  0  0  0 
 12 14  3  0  0  0  0 
  1 15  1  0  0  0  0 
  2 16  1  0  0  0  0 
  3 17  1  0  0  0  0 
  4 18  1  0  0  0  0 
  5 19  1  0  0  0  0 
  7 20  1  0  0  0  0 
  7 21  1  0  0  0  0 
  8 22  1  0  0  0  0 
 10 23  1  0  0  0  0 
 10 24  1  0  0  0  0 
 11 25  1  0  0  0  0 
 11 26  1  0  0  0  0 
 11 27  1  0  0  0  0 
 13 28  1  0  0  0  0 
 13 29  1  0  0  0  0 
 13 30  1  0  0  0  0 
 14 31  1  0  0  0  0 
M  END
> <cdk:Title>
selegiline

> <Conformer>
1

> <SuperDrugID>
SD002185

$$$$
