procainamide
  CDK     0628171801

 38 38  0  0  0  0  0  0  0  0999 V2000
    1.0539    0.2459    0.3937 C   0  0  0  0  0  0  0  0  0  0  0  0
    1.3089   -1.0615    0.0823 N   0  0  0  0  0  0  0  0  0  0  0  0
   -0.0412    0.7529    0.0449 O   0  0  0  0  0  0  0  0  0  0  0  0
    1.9906    1.0306    1.1341 C   0  0  0  0  0  0  0  0  0  0  0  0
    0.4132   -1.9699   -0.5638 C   0  0  2  0  0  0  0  0  0  0  0  0
    3.0724    0.4361    1.8354 C   0  0  0  0  0  0  0  0  0  0  0  0
    1.8556    2.4410    1.2175 C   0  0  0  0  0  0  0  0  0  0  0  0
    0.1356   -1.6567   -2.0579 C   0  0  2  0  0  0  0  0  0  0  0  0
    3.9636    1.2114    2.6011 C   0  0  0  0  0  0  0  0  0  0  0  0
    2.7467    3.2190    1.9811 C   0  0  0  0  0  0  0  0  0  0  0  0
    1.3554   -1.3775   -2.9020 N   0  0  1  0  0  0  0  0  0  0  0  0
    3.7979    2.6056    2.6873 C   0  0  0  0  0  0  0  0  0  0  0  0
    2.1305   -2.6337   -3.2090 C   0  0  1  0  0  0  0  0  0  0  0  0
    1.0512   -0.5394   -4.1174 C   0  0  1  0  0  0  0  0  0  0  0  0
    4.6318    3.3455    3.4439 N   0  0  0  0  0  0  0  0  0  0  0  0
    3.5050   -2.4365   -3.9005 C   0  0  0  0  0  0  0  0  0  0  0  0
    0.6305    0.9184   -3.8028 C   0  0  0  0  0  0  0  0  0  0  0  0
    2.1693   -1.4222    0.3430 H   0  0  0  0  0  0  0  0  0  0  0  0
   -0.5350   -1.9800   -0.0182 H   0  0  0  0  0  0  0  0  0  0  0  0
    0.8313   -2.9719   -0.4746 H   0  0  0  0  0  0  0  0  0  0  0  0
    3.2234   -0.5749    1.8157 H   0  0  0  0  0  0  0  0  0  0  0  0
    1.0988    2.9198    0.7225 H   0  0  0  0  0  0  0  0  0  0  0  0
   -0.5297   -0.7973   -2.0424 H   0  0  0  0  0  0  0  0  0  0  0  0
   -0.4482   -2.4764   -2.4880 H   0  0  0  0  0  0  0  0  0  0  0  0
    4.7321    0.7539    3.0985 H   0  0  0  0  0  0  0  0  0  0  0  0
    2.6211    4.2335    2.0177 H   0  0  0  0  0  0  0  0  0  0  0  0
    2.3449   -3.1559   -2.2740 H   0  0  0  0  0  0  0  0  0  0  0  0
    1.5254   -3.3038   -3.8275 H   0  0  0  0  0  0  0  0  0  0  0  0
    1.9422   -0.4389   -4.7397 H   0  0  0  0  0  0  0  0  0  0  0  0
    0.2786   -1.0197   -4.7270 H   0  0  0  0  0  0  0  0  0  0  0  0
    4.5161    4.3054    3.5025 H   0  0  0  0  0  0  0  0  0  0  0  0
    5.3534    2.9222    3.9319 H   0  0  0  0  0  0  0  0  0  0  0  0
    3.3778   -2.2000   -4.9592 H   0  0  0  0  0  0  0  0  0  0  0  0
    4.0652   -1.6330   -3.4160 H   0  0  0  0  0  0  0  0  0  0  0  0
    4.0895   -3.3581   -3.8407 H   0  0  0  0  0  0  0  0  0  0  0  0
    0.6432    1.5111   -4.7196 H   0  0  0  0  0  0  0  0  0  0  0  0
    1.3237    1.3638   -3.0852 H   0  0  0  0  0  0  0  0  0  0  0  0
   -0.3816    0.9646   -3.4007 H   0  0  0  0  0  0  0  0  0  0  0  0
  1  2  1  0  0  0  0 
  1  3  2  0  0  0  0 
  1  4  1  0  0  0  0 
  2  5  1  0  0  0  0 
  4  6  2  0  0  0  0 
  4  7  1  0  0  0  0 
  5  8  1  0  0  0  0 
  6  9  1  0  0  0  0 
  7 10  2  0  0  0  0 
  8 11  1  0  0  0  0 
  9 12  2  0  0  0  0 
 10 12  1  0  0  0  0 
 11 13  1  0  0  0  0 
 11 14  1  0  0  0  0 
 12 15  1  0  0  0  0 
 13 16  1  0  0  0  0 
 14 17  1  0  0  0  0 
  2 18  1  0  0  0  0 
  5 19  1  0  0  0  0 
  5 20  1  0  0  0  0 
  6 21  1  0  0  0  0 
  7 22  1  0  0  0  0 
  8 23  1  0  0  0  0 
  8 24  1  0  0  0  0 
  9 25  1  0  0  0  0 
 10 26  1  0  0  0  0 
 13 27  1  0  0  0  0 
 13 28  1  0  0  0  0 
 14 29  1  0  0  0  0 
 14 30  1  0  0  0  0 
 15 31  1  0  0  0  0 
 15 32  1  0  0  0  0 
 16 33  1  0  0  0  0 
 16 34  1  0  0  0  0 
 16 35  1  0  0  0  0 
 17 36  1  0  0  0  0 
 17 37  1  0  0  0  0 
 17 38  1  0  0  0  0 
M  END
> <cdk:Title>
procainamide

> <Conformer>
1

> <SuperDrugID>
SD002036

$$$$
