mofezolac
  CDK     0628171801

 42 44  0  0  0  0  0  0  0  0999 V2000
    2.5450    6.6589   -1.3897 C   0  0  1  0  0  0  0  0  0  0  0  0
    1.1132    6.9843   -1.4863 C   0  0  0  0  0  0  0  0  0  0  0  0
    2.7462    5.4517   -0.5662 C   0  0  0  0  0  0  0  0  0  0  0  0
    0.4035    7.2533   -0.3662 O   0  0  0  0  0  0  0  0  0  0  0  0
    0.5344    7.0195   -2.5950 O   0  0  0  0  0  0  0  0  0  0  0  0
    3.0671    4.1603   -0.9829 C   0  0  0  0  0  0  0  0  0  0  0  0
    2.6730    5.4487    0.7845 O   0  0  0  0  0  0  0  0  0  0  0  0
    3.1802    3.4250    0.1980 C   0  0  0  0  0  0  0  0  0  0  0  0
    3.2775    3.7120   -2.3088 C   0  0  0  0  0  0  0  0  0  0  0  0
    2.9385    4.2517    1.2301 N   0  0  0  0  0  0  0  0  0  0  0  0
    3.5071    2.0579    0.3317 C   0  0  0  0  0  0  0  0  0  0  0  0
    4.5424    3.2213   -2.7062 C   0  0  0  0  0  0  0  0  0  0  0  0
    2.2287    3.7438   -3.2557 C   0  0  0  0  0  0  0  0  0  0  0  0
    4.5454    1.6603    1.2046 C   0  0  0  0  0  0  0  0  0  0  0  0
    2.8281    1.0701   -0.4191 C   0  0  0  0  0  0  0  0  0  0  0  0
    4.7591    2.7954   -4.0300 C   0  0  0  0  0  0  0  0  0  0  0  0
    2.4448    3.3059   -4.5766 C   0  0  0  0  0  0  0  0  0  0  0  0
    4.9348    0.3099    1.2807 C   0  0  0  0  0  0  0  0  0  0  0  0
    3.2088   -0.2811   -0.3299 C   0  0  0  0  0  0  0  0  0  0  0  0
    3.7149    2.8412   -4.9755 C   0  0  0  0  0  0  0  0  0  0  0  0
    4.2804   -0.6649    0.5018 C   0  0  0  0  0  0  0  0  0  0  0  0
    3.9229    2.3914   -6.2540 O   0  0  0  0  0  0  0  0  0  0  0  0
    4.6726   -1.9749    0.5764 O   0  0  0  0  0  0  0  0  0  0  0  0
    4.3659    3.4196   -7.1589 C   0  0  0  0  0  0  0  0  0  0  0  0
    5.5467   -2.3571   -0.5029 C   0  0  0  0  0  0  0  0  0  0  0  0
    2.9745    6.5120   -2.3858 H   0  0  0  0  0  0  0  0  0  0  0  0
    3.0713    7.4965   -0.9242 H   0  0  0  0  0  0  0  0  0  0  0  0
   -0.5569    7.4377   -0.4248 H   0  0  0  0  0  0  0  0  0  0  0  0
    5.3154    3.1761   -2.0381 H   0  0  0  0  0  0  0  0  0  0  0  0
    1.2985    4.0777   -2.9890 H   0  0  0  0  0  0  0  0  0  0  0  0
    5.0429    2.3521    1.7727 H   0  0  0  0  0  0  0  0  0  0  0  0
    2.0523    1.3253   -1.0369 H   0  0  0  0  0  0  0  0  0  0  0  0
    5.6804    2.4511   -4.3065 H   0  0  0  0  0  0  0  0  0  0  0  0
    1.6733    3.3167   -5.2477 H   0  0  0  0  0  0  0  0  0  0  0  0
    5.7026    0.0386    1.8975 H   0  0  0  0  0  0  0  0  0  0  0  0
    2.7094   -0.9848   -0.8783 H   0  0  0  0  0  0  0  0  0  0  0  0
    4.5346    2.9662   -8.1364 H   0  0  0  0  0  0  0  0  0  0  0  0
    3.6083    4.1990   -7.2735 H   0  0  0  0  0  0  0  0  0  0  0  0
    5.3067    3.8677   -6.8280 H   0  0  0  0  0  0  0  0  0  0  0  0
    5.8447   -3.3945   -0.3514 H   0  0  0  0  0  0  0  0  0  0  0  0
    5.0391   -2.2901   -1.4691 H   0  0  0  0  0  0  0  0  0  0  0  0
    6.4520   -1.7437   -0.5235 H   0  0  0  0  0  0  0  0  0  0  0  0
  1  2  1  0  0  0  0 
  1  3  1  0  0  0  0 
  2  4  1  0  0  0  0 
  2  5  2  0  0  0  0 
  3  6  2  0  0  0  0 
  3  7  1  0  0  0  0 
  6  8  1  0  0  0  0 
  6  9  1  0  0  0  0 
  7 10  1  0  0  0  0 
  8 10  2  0  0  0  0 
  8 11  1  0  0  0  0 
  9 12  2  0  0  0  0 
  9 13  1  0  0  0  0 
 11 14  2  0  0  0  0 
 11 15  1  0  0  0  0 
 12 16  1  0  0  0  0 
 13 17  2  0  0  0  0 
 14 18  1  0  0  0  0 
 15 19  2  0  0  0  0 
 16 20  2  0  0  0  0 
 17 20  1  0  0  0  0 
 18 21  2  0  0  0  0 
 19 21  1  0  0  0  0 
 20 22  1  0  0  0  0 
 21 23  1  0  0  0  0 
 22 24  1  0  0  0  0 
 23 25  1  0  0  0  0 
  1 26  1  0  0  0  0 
  1 27  1  0  0  0  0 
  4 28  1  0  0  0  0 
 12 29  1  0  0  0  0 
 13 30  1  0  0  0  0 
 14 31  1  0  0  0  0 
 15 32  1  0  0  0  0 
 16 33  1  0  0  0  0 
 17 34  1  0  0  0  0 
 18 35  1  0  0  0  0 
 19 36  1  0  0  0  0 
 24 37  1  0  0  0  0 
 24 38  1  0  0  0  0 
 24 39  1  0  0  0  0 
 25 40  1  0  0  0  0 
 25 41  1  0  0  0  0 
 25 42  1  0  0  0  0 
M  END
> <cdk:Title>
mofezolac

> <Conformer>
1

> <SuperDrugID>
SD001628

$$$$
