sodium hexacyclonate
  CDK     0628171801

 28 28  0  0  0  0  0  0  0  0999 V2000
    3.4972    1.0960   -1.0645 C   0  0  1  0  0  0  0  0  0  0  0  0
    3.6343    2.6643   -1.0893 C   0  0  1  0  0  0  0  0  0  0  0  0
    4.2806    3.2654    0.1877 C   0  0  2  0  0  0  0  0  0  0  0  0
    5.6429    2.6044    0.5203 C   0  0  2  0  0  0  0  0  0  0  0  0
    5.5665    1.0562    0.5489 C   0  0  1  0  0  0  0  0  0  0  0  0
    4.9136    0.4911   -0.7372 C   0  0  1  0  0  0  0  0  0  0  0  0
    2.3894    0.6902   -0.0147 C   0  0  2  0  0  0  0  0  0  0  0  0
    3.0909    0.6035   -2.5001 C   0  0  1  0  0  0  0  0  0  0  0  0
    1.8115    1.0802   -2.9103 O   0  0  0  0  0  0  0  0  0  0  0  0
    2.0901   -0.7520    0.0916 C   0  0  0  0  0  0  0  0  0  0  0  0
    2.8525   -1.5235    0.7147 O   0  0  0  0  0  0  0  0  0  0  0  0
    0.9693   -1.2635   -0.4663 O   0  0  0  0  0  0  0  0  0  0  0  0
    4.2519    2.9669   -1.9400 H   0  0  0  0  0  0  0  0  0  0  0  0
    2.6534    3.1268   -1.2332 H   0  0  0  0  0  0  0  0  0  0  0  0
    3.6039    3.1557    1.0365 H   0  0  0  0  0  0  0  0  0  0  0  0
    4.4361    4.3360    0.0368 H   0  0  0  0  0  0  0  0  0  0  0  0
    5.9909    2.9648    1.4926 H   0  0  0  0  0  0  0  0  0  0  0  0
    6.3804    2.9115   -0.2277 H   0  0  0  0  0  0  0  0  0  0  0  0
    6.5808    0.6558    0.6387 H   0  0  0  0  0  0  0  0  0  0  0  0
    5.0059    0.7266    1.4259 H   0  0  0  0  0  0  0  0  0  0  0  0
    4.8598   -0.5964   -0.6590 H   0  0  0  0  0  0  0  0  0  0  0  0
    5.5991    0.7074   -1.5618 H   0  0  0  0  0  0  0  0  0  0  0  0
    1.4561    1.1955   -0.2738 H   0  0  0  0  0  0  0  0  0  0  0  0
    2.6509    1.0385    0.9858 H   0  0  0  0  0  0  0  0  0  0  0  0
    3.8172    0.9448   -3.2443 H   0  0  0  0  0  0  0  0  0  0  0  0
    3.0738   -0.4890   -2.5431 H   0  0  0  0  0  0  0  0  0  0  0  0
    1.6902    0.7184   -3.8146 H   0  0  0  0  0  0  0  0  0  0  0  0
    0.7727   -2.2219   -0.3914 H   0  0  0  0  0  0  0  0  0  0  0  0
  1  2  1  0  0  0  0 
  2  3  1  0  0  0  0 
  3  4  1  0  0  0  0 
  4  5  1  0  0  0  0 
  5  6  1  0  0  0  0 
  1  6  1  0  0  0  0 
  1  7  1  0  0  0  0 
  1  8  1  0  0  0  0 
  8  9  1  0  0  0  0 
  7 10  1  0  0  0  0 
 10 11  2  0  0  0  0 
 10 12  1  0  0  0  0 
  2 13  1  0  0  0  0 
  2 14  1  0  0  0  0 
  3 15  1  0  0  0  0 
  3 16  1  0  0  0  0 
  4 17  1  0  0  0  0 
  4 18  1  0  0  0  0 
  5 19  1  0  0  0  0 
  5 20  1  0  0  0  0 
  6 21  1  0  0  0  0 
  6 22  1  0  0  0  0 
  7 23  1  0  0  0  0 
  7 24  1  0  0  0  0 
  8 25  1  0  0  0  0 
  8 26  1  0  0  0  0 
  9 27  1  0  0  0  0 
 12 28  1  0  0  0  0 
M  END
> <cdk:Title>
sodium hexacyclonate

> <Conformer>
1

> <SuperDrugID>
SD002981

$$$$
