butaperazine
  CDK     0628171801

 60 63  0  0  0  0  0  0  0  0999 V2000
   -2.6443    2.2464    4.4739 C   0  0  0  0  0  0  0  0  0  0  0  0
   -2.9454    2.7348    3.0410 C   0  0  2  0  0  0  0  0  0  0  0  0
   -4.3680    2.3239    2.5645 C   0  0  1  0  0  0  0  0  0  0  0  0
   -4.5693    2.6153    1.1159 C   0  0  0  0  0  0  0  0  0  0  0  0
   -5.5033    3.3963    0.8088 O   0  0  0  0  0  0  0  0  0  0  0  0
   -3.7497    2.0767    0.0743 C   0  0  0  0  0  0  0  0  0  0  0  0
   -3.4622    2.8538   -1.0721 C   0  0  0  0  0  0  0  0  0  0  0  0
   -2.6339    2.3610   -2.0940 C   0  0  0  0  0  0  0  0  0  0  0  0
   -2.0586    1.0834   -1.9758 C   0  0  0  0  0  0  0  0  0  0  0  0
   -1.0124    0.4721   -3.2549 S   0  0  0  0  0  0  0  0  0  0  0  0
   -1.1602   -1.2730   -3.0729 C   0  0  0  0  0  0  0  0  0  0  0  0
   -0.9242   -2.1174   -4.1762 C   0  0  0  0  0  0  0  0  0  0  0  0
   -1.1430   -3.5006   -4.0588 C   0  0  0  0  0  0  0  0  0  0  0  0
   -1.6004   -4.0360   -2.8425 C   0  0  0  0  0  0  0  0  0  0  0  0
   -1.8039   -3.1926   -1.7336 C   0  0  0  0  0  0  0  0  0  0  0  0
   -1.5541   -1.7987   -1.8152 C   0  0  0  0  0  0  0  0  0  0  0  0
   -1.6857   -0.9696   -0.7040 N   0  0  0  0  0  0  0  0  0  0  0  0
   -1.1089   -1.3748    0.5781 C   0  0  1  0  0  0  0  0  0  0  0  0
   -0.1155   -0.3367    1.1792 C   0  0  2  0  0  0  0  0  0  0  0  0
    0.5319   -0.7802    2.5221 C   0  0  2  0  0  0  0  0  0  0  0  0
    1.1306    0.3383    3.3268 N   0  0  1  0  0  0  0  0  0  0  0  0
    1.5497   -0.1047    4.6959 C   0  0  2  0  0  0  0  0  0  0  0  0
    2.0353    1.0832    5.5634 C   0  0  2  0  0  0  0  0  0  0  0  0
    3.1126    1.8445    4.8657 N   0  0  2  0  0  0  0  0  0  0  0  0
    3.6833    2.9373    5.7049 C   0  0  0  0  0  0  0  0  0  0  0  0
    2.6833    2.3042    3.5107 C   0  0  1  0  0  0  0  0  0  0  0  0
    2.2180    1.1063    2.6430 C   0  0  2  0  0  0  0  0  0  0  0  0
   -2.3070    0.2718   -0.8410 C   0  0  0  0  0  0  0  0  0  0  0  0
   -3.1806    0.7805    0.1529 C   0  0  0  0  0  0  0  0  0  0  0  0
   -3.3956    2.6189    5.1700 H   0  0  0  0  0  0  0  0  0  0  0  0
   -1.6658    2.6092    4.7898 H   0  0  0  0  0  0  0  0  0  0  0  0
   -2.6372    1.1553    4.5117 H   0  0  0  0  0  0  0  0  0  0  0  0
   -2.1836    2.3192    2.3796 H   0  0  0  0  0  0  0  0  0  0  0  0
   -2.8540    3.8257    3.0124 H   0  0  0  0  0  0  0  0  0  0  0  0
   -4.4771    1.2009    2.7011 H   0  0  0  0  0  0  0  0  0  0  0  0
   -5.0879    2.9768    3.1583 H   0  0  0  0  0  0  0  0  0  0  0  0
   -3.8440    3.7974   -1.1714 H   0  0  0  0  0  0  0  0  0  0  0  0
   -2.4515    2.9371   -2.9203 H   0  0  0  0  0  0  0  0  0  0  0  0
   -0.5992   -1.7300   -5.0651 H   0  0  0  0  0  0  0  0  0  0  0  0
   -0.9730   -4.1151   -4.8585 H   0  0  0  0  0  0  0  0  0  0  0  0
   -1.7840   -5.0389   -2.7643 H   0  0  0  0  0  0  0  0  0  0  0  0
   -2.1440   -3.6080   -0.8625 H   0  0  0  0  0  0  0  0  0  0  0  0
   -1.9130   -1.5558    1.2938 H   0  0  0  0  0  0  0  0  0  0  0  0
   -0.5549   -2.3149    0.4911 H   0  0  0  0  0  0  0  0  0  0  0  0
   -0.6411    0.6007    1.3548 H   0  0  0  0  0  0  0  0  0  0  0  0
    0.6697   -0.1478    0.4440 H   0  0  0  0  0  0  0  0  0  0  0  0
    1.2824   -1.5505    2.3220 H   0  0  0  0  0  0  0  0  0  0  0  0
   -0.2585   -1.2389    3.1219 H   0  0  0  0  0  0  0  0  0  0  0  0
    2.3532   -0.8449    4.6237 H   0  0  0  0  0  0  0  0  0  0  0  0
    0.7072   -0.5714    5.2135 H   0  0  0  0  0  0  0  0  0  0  0  0
    2.4170    0.6824    6.5069 H   0  0  0  0  0  0  0  0  0  0  0  0
    1.1885    1.7389    5.7900 H   0  0  0  0  0  0  0  0  0  0  0  0
    2.9286    3.6918    5.9431 H   0  0  0  0  0  0  0  0  0  0  0  0
    4.5127    3.4231    5.1866 H   0  0  0  0  0  0  0  0  0  0  0  0
    4.0778    2.5311    6.6392 H   0  0  0  0  0  0  0  0  0  0  0  0
    1.8676    3.0300    3.5935 H   0  0  0  0  0  0  0  0  0  0  0  0
    3.5178    2.7927    3.0005 H   0  0  0  0  0  0  0  0  0  0  0  0
    1.8606    1.5105    1.6940 H   0  0  0  0  0  0  0  0  0  0  0  0
    3.0696    0.4518    2.4343 H   0  0  0  0  0  0  0  0  0  0  0  0
   -3.4055    0.1859    0.9486 H   0  0  0  0  0  0  0  0  0  0  0  0
  1  2  1  0  0  0  0 
  2  3  1  0  0  0  0 
  3  4  1  0  0  0  0 
  4  5  2  0  0  0  0 
  4  6  1  0  0  0  0 
  6  7  2  0  0  0  0 
  7  8  1  0  0  0  0 
  8  9  2  0  0  0  0 
  9 10  1  0  0  0  0 
 10 11  1  0  0  0  0 
 11 12  2  0  0  0  0 
 12 13  1  0  0  0  0 
 13 14  2  0  0  0  0 
 14 15  1  0  0  0  0 
 15 16  2  0  0  0  0 
 11 16  1  0  0  0  0 
 16 17  1  0  0  0  0 
 17 18  1  0  0  0  0 
 18 19  1  0  0  0  0 
 19 20  1  0  0  0  0 
 20 21  1  0  0  0  0 
 21 22  1  0  0  0  0 
 22 23  1  0  0  0  0 
 23 24  1  0  0  0  0 
 24 25  1  0  0  0  0 
 24 26  1  0  0  0  0 
 26 27  1  0  0  0  0 
 21 27  1  0  0  0  0 
 17 28  1  0  0  0  0 
  9 28  1  0  0  0  0 
 28 29  2  0  0  0  0 
  6 29  1  0  0  0  0 
 30  1  1  0  0  0  0 
 31  1  1  0  0  0  0 
 32  1  1  0  0  0  0 
 33  2  1  0  0  0  0 
 34  2  1  0  0  0  0 
 35  3  1  0  0  0  0 
 36  3  1  0  0  0  0 
 37  7  1  0  0  0  0 
 38  8  1  0  0  0  0 
 39 12  1  0  0  0  0 
 40 13  1  0  0  0  0 
 41 14  1  0  0  0  0 
 42 15  1  0  0  0  0 
 43 18  1  0  0  0  0 
 44 18  1  0  0  0  0 
 45 19  1  0  0  0  0 
 46 19  1  0  0  0  0 
 47 20  1  0  0  0  0 
 48 20  1  0  0  0  0 
 49 22  1  0  0  0  0 
 50 22  1  0  0  0  0 
 51 23  1  0  0  0  0 
 52 23  1  0  0  0  0 
 53 25  1  0  0  0  0 
 54 25  1  0  0  0  0 
 55 25  1  0  0  0  0 
 56 26  1  0  0  0  0 
 57 26  1  0  0  0  0 
 58 27  1  0  0  0  0 
 59 27  1  0  0  0  0 
 60 29  1  0  0  0  0 
M  END
> <cdk:Title>
butaperazine

> <Conformer>
1

> <SuperDrugID>
SD000385

$$$$
