midodrine
  CDK     0628171801

 36 36  0  0  0  0  0  0  0  0999 V2000
   -1.6186   -1.2227   -0.7621 C   0  0  1  0  0  0  0  0  0  0  0  0
   -1.2941    0.2457   -0.3542 C   0  0  2  0  0  0  0  0  0  0  0  0
   -1.6853   -1.2888   -2.1871 O   0  0  0  0  0  0  0  0  0  0  0  0
   -0.6661   -2.2241   -0.1746 C   0  0  0  0  0  0  0  0  0  0  0  0
    0.0971    0.5566   -0.4862 N   0  0  0  0  0  0  0  0  0  0  0  0
   -0.6476   -2.4738    1.2251 C   0  0  0  0  0  0  0  0  0  0  0  0
    0.2711   -2.9116   -0.9885 C   0  0  0  0  0  0  0  0  0  0  0  0
    0.6313    1.7086   -0.9684 C   0  0  0  0  0  0  0  0  0  0  0  0
   -1.5234   -1.8383    2.0689 O   0  0  0  0  0  0  0  0  0  0  0  0
    0.3186   -3.3407    1.7820 C   0  0  0  0  0  0  0  0  0  0  0  0
    1.2287   -3.7866   -0.4343 C   0  0  0  0  0  0  0  0  0  0  0  0
    2.0967    1.8523   -0.9856 C   0  0  2  0  0  0  0  0  0  0  0  0
   -0.0865    2.6506   -1.3810 O   0  0  0  0  0  0  0  0  0  0  0  0
   -2.6553   -2.6406    2.4497 C   0  0  0  0  0  0  0  0  0  0  0  0
    1.2552   -3.9858    0.9581 C   0  0  0  0  0  0  0  0  0  0  0  0
    2.1531   -4.4065   -1.2353 O   0  0  0  0  0  0  0  0  0  0  0  0
    2.6276    1.8215    0.3798 N   0  0  2  0  0  0  0  0  0  0  0  0
    1.6635   -5.6230   -1.8291 C   0  0  0  0  0  0  0  0  0  0  0  0
   -2.6267   -1.4672   -0.4167 H   0  0  0  0  0  0  0  0  0  0  0  0
   -1.5570    0.3943    0.6938 H   0  0  0  0  0  0  0  0  0  0  0  0
   -1.9165    0.9275   -0.9414 H   0  0  0  0  0  0  0  0  0  0  0  0
   -2.4303   -0.7007   -2.4301 H   0  0  0  0  0  0  0  0  0  0  0  0
    0.7265   -0.1133   -0.1769 H   0  0  0  0  0  0  0  0  0  0  0  0
    0.2842   -2.7714   -2.0005 H   0  0  0  0  0  0  0  0  0  0  0  0
    0.3454   -3.4967    2.7931 H   0  0  0  0  0  0  0  0  0  0  0  0
    2.3910    2.7981   -1.4431 H   0  0  0  0  0  0  0  0  0  0  0  0
    2.5379    1.0370   -1.5614 H   0  0  0  0  0  0  0  0  0  0  0  0
   -3.3200   -2.0187    3.0490 H   0  0  0  0  0  0  0  0  0  0  0  0
   -3.2189   -2.9963    1.5834 H   0  0  0  0  0  0  0  0  0  0  0  0
   -2.3468   -3.4937    3.0580 H   0  0  0  0  0  0  0  0  0  0  0  0
    1.9591   -4.6009    1.3739 H   0  0  0  0  0  0  0  0  0  0  0  0
    3.6371    1.9463    0.3116 H   0  0  0  0  0  0  0  0  0  0  0  0
    2.4714    0.8781    0.7424 H   0  0  0  0  0  0  0  0  0  0  0  0
    2.4554   -6.0522   -2.4443 H   0  0  0  0  0  0  0  0  0  0  0  0
    1.3940   -6.3568   -1.0653 H   0  0  0  0  0  0  0  0  0  0  0  0
    0.8019   -5.4327   -2.4743 H   0  0  0  0  0  0  0  0  0  0  0  0
  1  2  1  0  0  0  0 
  1  3  1  0  0  0  0 
  1  4  1  0  0  0  0 
  2  5  1  0  0  0  0 
  4  6  2  0  0  0  0 
  4  7  1  0  0  0  0 
  5  8  1  0  0  0  0 
  6  9  1  0  0  0  0 
  6 10  1  0  0  0  0 
  7 11  2  0  0  0  0 
  8 12  1  0  0  0  0 
  8 13  2  0  0  0  0 
  9 14  1  0  0  0  0 
 10 15  2  0  0  0  0 
 11 15  1  0  0  0  0 
 11 16  1  0  0  0  0 
 12 17  1  0  0  0  0 
 16 18  1  0  0  0  0 
  1 19  1  0  0  0  0 
  2 20  1  0  0  0  0 
  2 21  1  0  0  0  0 
  3 22  1  0  0  0  0 
  5 23  1  0  0  0  0 
  7 24  1  0  0  0  0 
 10 25  1  0  0  0  0 
 12 26  1  0  0  0  0 
 12 27  1  0  0  0  0 
 14 28  1  0  0  0  0 
 14 29  1  0  0  0  0 
 14 30  1  0  0  0  0 
 15 31  1  0  0  0  0 
 17 32  1  0  0  0  0 
 17 33  1  0  0  0  0 
 18 34  1  0  0  0  0 
 18 35  1  0  0  0  0 
 18 36  1  0  0  0  0 
M  END
> <cdk:Title>
midodrine

> <Conformer>
1

> <SuperDrugID>
SD001603

$$$$
