alvimopan
  CDK     0628171801

 63 65  0  0  0  0  0  0  0  0999 V2000
    0.3736   -1.6564   -3.7847 C   0  0  0  0  0  0  0  0  0  0  0  0
   -0.5366   -0.4074   -4.1045 C   0  0  2  0  0  0  0  0  0  0  0  0
   -1.9668   -0.8490   -4.6319 C   0  0  1  0  0  0  0  0  0  0  0  0
    0.1301    0.3988   -5.2826 C   0  0  2  0  0  0  0  0  0  0  0  0
   -0.6361    0.3671   -2.7868 C   0  0  0  0  0  0  0  0  0  0  0  0
   -2.9999    0.3157   -4.7718 C   0  0  0  0  0  0  0  0  0  0  0  0
   -1.8877   -1.6512   -5.9722 C   0  0  1  0  0  0  0  0  0  0  0  0
    0.1454   -0.3402   -6.6507 C   0  0  2  0  0  0  0  0  0  0  0  0
   -0.1036    1.6740   -2.5848 C   0  0  0  0  0  0  0  0  0  0  0  0
   -1.2648   -0.2324   -1.6574 C   0  0  0  0  0  0  0  0  0  0  0  0
   -1.1596   -0.9531   -7.0843 N   0  0  1  0  0  0  0  0  0  0  0  0
   -0.1781    2.3291   -1.3368 C   0  0  0  0  0  0  0  0  0  0  0  0
   -1.3411    0.4113   -0.4103 C   0  0  0  0  0  0  0  0  0  0  0  0
   -0.9474   -1.8277   -8.2990 C   0  0  2  0  0  0  0  0  0  0  0  0
    0.3337    3.5748   -1.1617 O   0  0  0  0  0  0  0  0  0  0  0  0
   -0.7911    1.6904   -0.2474 C   0  0  0  0  0  0  0  0  0  0  0  0
   -2.2096   -2.3415   -9.0819 C   0  0  2  0  0  0  0  0  0  0  0  0
   -1.8173   -3.5264  -10.0378 C   0  0  1  0  0  0  0  0  0  0  0  0
   -2.9426   -1.2867   -9.8444 C   0  0  0  0  0  0  0  0  0  0  0  0
   -1.3702   -4.7699   -9.3395 C   0  0  0  0  0  0  0  0  0  0  0  0
   -4.1302   -1.6099  -10.4402 N   0  0  0  0  0  0  0  0  0  0  0  0
   -2.4742   -0.1283   -9.9583 O   0  0  0  0  0  0  0  0  0  0  0  0
   -2.2527   -5.4604   -8.4728 C   0  0  0  0  0  0  0  0  0  0  0  0
   -0.0662   -5.2918   -9.5252 C   0  0  0  0  0  0  0  0  0  0  0  0
   -4.8907   -0.7598  -11.3007 C   0  0  2  0  0  0  0  0  0  0  0  0
   -1.8369   -6.6154   -7.7848 C   0  0  0  0  0  0  0  0  0  0  0  0
    0.3467   -6.4553   -8.8467 C   0  0  0  0  0  0  0  0  0  0  0  0
   -6.2106   -1.4443  -11.6068 C   0  0  0  0  0  0  0  0  0  0  0  0
   -0.5361   -7.1132   -7.9718 C   0  0  0  0  0  0  0  0  0  0  0  0
   -7.3882   -0.9129  -11.1988 O   0  0  0  0  0  0  0  0  0  0  0  0
   -6.2273   -2.5101  -12.2633 O   0  0  0  0  0  0  0  0  0  0  0  0
    1.3308   -1.3406   -3.3621 H   0  0  0  0  0  0  0  0  0  0  0  0
    0.5995   -2.2485   -4.6693 H   0  0  0  0  0  0  0  0  0  0  0  0
   -0.1018   -2.3322   -3.0704 H   0  0  0  0  0  0  0  0  0  0  0  0
   -2.4049   -1.5366   -3.9023 H   0  0  0  0  0  0  0  0  0  0  0  0
    1.1658    0.6484   -5.0238 H   0  0  0  0  0  0  0  0  0  0  0  0
   -0.3998    1.3437   -5.4297 H   0  0  0  0  0  0  0  0  0  0  0  0
   -3.9970   -0.0854   -4.9752 H   0  0  0  0  0  0  0  0  0  0  0  0
   -2.7319    0.9869   -5.5884 H   0  0  0  0  0  0  0  0  0  0  0  0
   -3.0625    0.9044   -3.8563 H   0  0  0  0  0  0  0  0  0  0  0  0
   -1.4376   -2.6280   -5.7749 H   0  0  0  0  0  0  0  0  0  0  0  0
   -2.9122   -1.8486   -6.2912 H   0  0  0  0  0  0  0  0  0  0  0  0
    0.9387   -1.0935   -6.6231 H   0  0  0  0  0  0  0  0  0  0  0  0
    0.4396    0.3920   -7.4070 H   0  0  0  0  0  0  0  0  0  0  0  0
    0.3581    2.1770   -3.3422 H   0  0  0  0  0  0  0  0  0  0  0  0
   -1.6728   -1.1667   -1.7205 H   0  0  0  0  0  0  0  0  0  0  0  0
   -1.7926   -0.0580    0.3788 H   0  0  0  0  0  0  0  0  0  0  0  0
   -0.3637   -2.6935   -7.9707 H   0  0  0  0  0  0  0  0  0  0  0  0
   -0.3188   -1.2999   -9.0250 H   0  0  0  0  0  0  0  0  0  0  0  0
    0.7393    3.8288   -2.0190 H   0  0  0  0  0  0  0  0  0  0  0  0
   -0.8393    2.1530    0.6645 H   0  0  0  0  0  0  0  0  0  0  0  0
   -2.9261   -2.7295   -8.3583 H   0  0  0  0  0  0  0  0  0  0  0  0
   -2.6698   -3.8150  -10.6569 H   0  0  0  0  0  0  0  0  0  0  0  0
   -1.0428   -3.1686  -10.7249 H   0  0  0  0  0  0  0  0  0  0  0  0
   -4.4722   -2.5058  -10.2950 H   0  0  0  0  0  0  0  0  0  0  0  0
   -3.2082   -5.1252   -8.3328 H   0  0  0  0  0  0  0  0  0  0  0  0
    0.5928   -4.8285  -10.1549 H   0  0  0  0  0  0  0  0  0  0  0  0
   -4.2147   -0.4741  -12.1655 H   0  0  0  0  0  0  0  0  0  0  0  0
   -5.1240    0.1618  -10.7614 H   0  0  0  0  0  0  0  0  0  0  0  0
   -2.4827   -7.0915   -7.1483 H   0  0  0  0  0  0  0  0  0  0  0  0
    1.2910   -6.8228   -8.9874 H   0  0  0  0  0  0  0  0  0  0  0  0
   -0.2338   -7.9542   -7.4725 H   0  0  0  0  0  0  0  0  0  0  0  0
   -8.2359   -1.3598  -11.4147 H   0  0  0  0  0  0  0  0  0  0  0  0
  2  1  1  0  0  0  0 
  3  2  1  0  0  0  0 
  2  4  1  0  0  0  0 
  2  5  1  0  0  0  0 
  3  6  1  0  0  0  0 
  3  7  1  0  0  0  0 
  4  8  1  0  0  0  0 
  5  9  2  0  0  0  0 
  5 10  1  0  0  0  0 
  7 11  1  0  0  0  0 
  8 11  1  0  0  0  0 
  9 12  1  0  0  0  0 
 10 13  2  0  0  0  0 
 11 14  1  0  0  0  0 
 12 15  1  0  0  0  0 
 12 16  2  0  0  0  0 
 13 16  1  0  0  0  0 
 17 14  1  0  0  0  0 
 17 18  1  0  0  0  0 
 17 19  1  0  0  0  0 
 18 20  1  0  0  0  0 
 19 21  1  0  0  0  0 
 19 22  2  0  0  0  0 
 20 23  2  0  0  0  0 
 20 24  1  0  0  0  0 
 21 25  1  0  0  0  0 
 23 26  1  0  0  0  0 
 24 27  2  0  0  0  0 
 25 28  1  0  0  0  0 
 26 29  2  0  0  0  0 
 27 29  1  0  0  0  0 
 28 30  1  0  0  0  0 
 28 31  2  0  0  0  0 
  1 32  1  0  0  0  0 
  1 33  1  0  0  0  0 
  1 34  1  0  0  0  0 
  3 35  1  0  0  0  0 
  4 36  1  0  0  0  0 
  4 37  1  0  0  0  0 
  6 38  1  0  0  0  0 
  6 39  1  0  0  0  0 
  6 40  1  0  0  0  0 
  7 41  1  0  0  0  0 
  7 42  1  0  0  0  0 
  8 43  1  0  0  0  0 
  8 44  1  0  0  0  0 
  9 45  1  0  0  0  0 
 10 46  1  0  0  0  0 
 13 47  1  0  0  0  0 
 14 48  1  0  0  0  0 
 14 49  1  0  0  0  0 
 15 50  1  0  0  0  0 
 16 51  1  0  0  0  0 
 17 52  1  0  0  0  0 
 18 53  1  0  0  0  0 
 18 54  1  0  0  0  0 
 21 55  1  0  0  0  0 
 23 56  1  0  0  0  0 
 24 57  1  0  0  0  0 
 25 58  1  0  0  0  0 
 25 59  1  0  0  0  0 
 26 60  1  0  0  0  0 
 27 61  1  0  0  0  0 
 29 62  1  0  0  0  0 
 30 63  1  0  0  0  0 
M  END
> <cdk:Title>
alvimopan

> <Conformer>
1

> <SuperDrugID>
SD000112

$$$$
