dirithromycin
  CDK     0628171802

136139  0  0  0  0  0  0  0  0999 V2000
   -2.3279    2.4919    0.0853 C   0  0  0  0  0  0  0  0  0  0  0  0
   -2.7726    1.6452    1.3158 C   0  0  2  0  0  0  0  0  0  0  0  0
   -1.6521    0.6760    1.8385 C   0  0  1  0  0  0  0  0  0  0  0  0
   -1.3694   -0.2835    0.7864 O   0  0  0  0  0  0  0  0  0  0  0  0
   -2.4968   -1.1075    0.4064 C   0  0  1  0  0  0  0  0  0  0  0  0
   -3.6614   -0.2608    0.0205 N   0  0  2  0  0  0  0  0  0  0  0  0
   -4.0585    0.7820    1.0121 C   0  0  1  0  0  0  0  0  0  0  0  0
   -4.8667    0.1480    2.2302 C   0  0  2  0  0  0  0  0  0  0  0  0
   -6.2847   -0.3016    1.7628 C   0  0  0  0  0  0  0  0  0  0  0  0
   -4.9151    1.0759    3.4959 C   0  0  2  0  0  0  0  0  0  0  0  0
   -5.6468    0.6400    4.8188 C   0  0  1  0  0  0  0  0  0  0  0  0
   -5.5132    1.8036    5.8595 C   0  0  0  0  0  0  0  0  0  0  0  0
   -7.0468    0.5812    4.5325 O   0  0  0  0  0  0  0  0  0  0  0  0
   -5.2272   -0.7564    5.4421 C   0  0  2  0  0  0  0  0  0  0  0  0
   -6.0777   -0.8866    6.6169 O   0  0  0  0  0  0  0  0  0  0  0  0
   -7.0738   -1.9224    6.7395 C   0  0  1  0  0  0  0  0  0  0  0  0
   -7.8944   -1.6526    8.0487 C   0  0  2  0  0  0  0  0  0  0  0  0
   -7.8139   -2.7776    8.9296 O   0  0  0  0  0  0  0  0  0  0  0  0
   -9.3938   -1.3073    7.7332 C   0  0  1  0  0  0  0  0  0  0  0  0
   -9.5475    0.0478    7.0568 N   0  0  1  0  0  0  0  0  0  0  0  0
  -10.8780    0.3068    6.4156 C   0  0  0  0  0  0  0  0  0  0  0  0
   -9.1846    1.2155    7.9266 C   0  0  0  0  0  0  0  0  0  0  0  0
   -9.9496   -2.5297    6.9169 C   0  0  1  0  0  0  0  0  0  0  0  0
   -9.0212   -2.9332    5.7182 C   0  0  2  0  0  0  0  0  0  0  0  0
   -7.9209   -2.0052    5.5677 O   0  0  0  0  0  0  0  0  0  0  0  0
   -9.7617   -3.0324    4.3647 C   0  0  0  0  0  0  0  0  0  0  0  0
   -6.5536   -2.8703    6.8424 H   0  0  0  0  0  0  0  0  0  0  0  0
   -3.6872   -0.9453    5.8342 C   0  0  2  0  0  0  0  0  0  0  0  0
   -2.9187   -2.0487    4.9921 C   0  0  1  0  0  0  0  0  0  0  0  0
   -1.3723   -2.2662    5.2370 C   0  0  2  0  0  0  0  0  0  0  0  0
   -0.5880   -1.0380    4.9111 C   0  0  0  0  0  0  0  0  0  0  0  0
   -0.0965   -0.9250    3.6408 O   0  0  0  0  0  0  0  0  0  0  0  0
    0.6225    0.0858    2.9160 C   0  0  1  0  0  0  0  0  0  0  0  0
   -0.3121    1.2680    2.4336 C   0  0  2  0  0  0  0  0  0  0  0  0
   -0.6251    2.3149    3.5474 C   0  0  0  0  0  0  0  0  0  0  0  0
    0.3961    1.9696    1.4110 O   0  0  0  0  0  0  0  0  0  0  0  0
    2.0117    0.4013    3.5732 C   0  0  1  0  0  0  0  0  0  0  0  0
    3.2078    0.3560    2.5861 C   0  0  0  0  0  0  0  0  0  0  0  0
   -0.3729   -0.1593    5.7781 O   0  0  0  0  0  0  0  0  0  0  0  0
   -0.7822   -3.4601    4.4104 C   0  0  0  0  0  0  0  0  0  0  0  0
   -3.6552   -3.2650    4.7618 O   0  0  0  0  0  0  0  0  0  0  0  0
   -3.9385   -4.2528    5.7707 C   0  0  1  0  0  0  0  0  0  0  0  0
   -4.6007   -5.3867    4.9413 C   0  0  2  0  0  0  0  0  0  0  0  0
   -4.8555   -6.7112    5.7234 C   0  0  2  0  0  0  0  0  0  0  0  0
   -5.1104   -7.6700    4.6555 O   0  0  0  0  0  0  0  0  0  0  0  0
   -5.3579   -9.0530    4.9663 C   0  0  0  0  0  0  0  0  0  0  0  0
   -6.1396   -6.5782    6.6062 C   0  0  0  0  0  0  0  0  0  0  0  0
   -3.5540   -7.0682    6.5301 C   0  0  2  0  0  0  0  0  0  0  0  0
   -2.9077   -5.8751    7.3076 C   0  0  1  0  0  0  0  0  0  0  0  0
   -2.7665   -4.7052    6.4763 O   0  0  0  0  0  0  0  0  0  0  0  0
   -3.5297   -5.5444    8.6900 C   0  0  0  0  0  0  0  0  0  0  0  0
   -2.5671   -7.5719    5.6225 O   0  0  0  0  0  0  0  0  0  0  0  0
   -4.6417   -3.8494    6.4863 H   0  0  0  0  0  0  0  0  0  0  0  0
   -2.9461   -1.6531    3.9817 H   0  0  0  0  0  0  0  0  0  0  0  0
   -3.4433   -1.0794    7.3683 C   0  0  0  0  0  0  0  0  0  0  0  0
   -4.3664   -0.7642    2.5323 H   0  0  0  0  0  0  0  0  0  0  0  0
   -4.7602    1.4478    0.5016 H   0  0  0  0  0  0  0  0  0  0  0  0
   -2.1147   -2.0254   -0.7826 C   0  0  2  0  0  0  0  0  0  0  0  0
   -1.3308   -3.1720   -0.3896 O   0  0  0  0  0  0  0  0  0  0  0  0
    0.0963   -2.9812   -0.3284 C   0  0  1  0  0  0  0  0  0  0  0  0
    0.7764   -4.3011    0.0864 C   0  0  1  0  0  0  0  0  0  0  0  0
    0.3508   -4.6672    1.4126 O   0  0  0  0  0  0  0  0  0  0  0  0
    0.8864   -5.9157    1.8866 C   0  0  0  0  0  0  0  0  0  0  0  0
   -2.0944    0.1326    2.6749 H   0  0  0  0  0  0  0  0  0  0  0  0
   -1.5549    3.2052    0.3689 H   0  0  0  0  0  0  0  0  0  0  0  0
   -3.1660    3.0708   -0.3064 H   0  0  0  0  0  0  0  0  0  0  0  0
   -1.9428    1.8563   -0.7136 H   0  0  0  0  0  0  0  0  0  0  0  0
   -3.0273    2.3809    2.0776 H   0  0  0  0  0  0  0  0  0  0  0  0
   -2.7660   -1.7593    1.2428 H   0  0  0  0  0  0  0  0  0  0  0  0
   -4.4602   -0.8765   -0.1441 H   0  0  0  0  0  0  0  0  0  0  0  0
   -6.7585   -0.9413    2.5095 H   0  0  0  0  0  0  0  0  0  0  0  0
   -6.2222   -0.8805    0.8408 H   0  0  0  0  0  0  0  0  0  0  0  0
   -6.9203    0.5681    1.5834 H   0  0  0  0  0  0  0  0  0  0  0  0
   -5.3451    2.0274    3.1642 H   0  0  0  0  0  0  0  0  0  0  0  0
   -3.8886    1.2833    3.7946 H   0  0  0  0  0  0  0  0  0  0  0  0
   -5.8600    2.7478    5.4337 H   0  0  0  0  0  0  0  0  0  0  0  0
   -6.1158    1.6108    6.7474 H   0  0  0  0  0  0  0  0  0  0  0  0
   -4.4768    1.9375    6.1749 H   0  0  0  0  0  0  0  0  0  0  0  0
   -7.2833    1.4739    4.1982 H   0  0  0  0  0  0  0  0  0  0  0  0
   -5.4963   -1.5178    4.7052 H   0  0  0  0  0  0  0  0  0  0  0  0
   -7.4298   -0.8570    8.6288 H   0  0  0  0  0  0  0  0  0  0  0  0
   -8.1409   -3.5432    8.4121 H   0  0  0  0  0  0  0  0  0  0  0  0
   -9.9454   -1.2726    8.6796 H   0  0  0  0  0  0  0  0  0  0  0  0
  -11.0216   -0.3422    5.5546 H   0  0  0  0  0  0  0  0  0  0  0  0
  -10.9559    1.3245    6.0266 H   0  0  0  0  0  0  0  0  0  0  0  0
  -11.6929    0.1457    7.1260 H   0  0  0  0  0  0  0  0  0  0  0  0
   -8.1478    1.1755    8.2483 H   0  0  0  0  0  0  0  0  0  0  0  0
   -9.2843    2.1585    7.3840 H   0  0  0  0  0  0  0  0  0  0  0  0
   -9.8237    1.2571    8.8120 H   0  0  0  0  0  0  0  0  0  0  0  0
  -10.0290   -3.3883    7.5914 H   0  0  0  0  0  0  0  0  0  0  0  0
  -10.9745   -2.3499    6.5938 H   0  0  0  0  0  0  0  0  0  0  0  0
   -8.6070   -3.9299    5.9139 H   0  0  0  0  0  0  0  0  0  0  0  0
  -10.5942   -3.7359    4.4376 H   0  0  0  0  0  0  0  0  0  0  0  0
   -9.0771   -3.3879    3.5919 H   0  0  0  0  0  0  0  0  0  0  0  0
  -10.1458   -2.0576    4.0633 H   0  0  0  0  0  0  0  0  0  0  0  0
   -3.1849   -0.0078    5.5880 H   0  0  0  0  0  0  0  0  0  0  0  0
   -1.2054   -2.5189    6.2846 H   0  0  0  0  0  0  0  0  0  0  0  0
    0.8614   -0.4640    2.0017 H   0  0  0  0  0  0  0  0  0  0  0  0
    0.2803    2.7324    3.9806 H   0  0  0  0  0  0  0  0  0  0  0  0
   -1.2216    1.8710    4.3439 H   0  0  0  0  0  0  0  0  0  0  0  0
   -1.1776    3.1601    3.1383 H   0  0  0  0  0  0  0  0  0  0  0  0
    0.5439    1.3141    0.6960 H   0  0  0  0  0  0  0  0  0  0  0  0
    2.0102    1.3707    4.0632 H   0  0  0  0  0  0  0  0  0  0  0  0
    2.2141   -0.3392    4.3517 H   0  0  0  0  0  0  0  0  0  0  0  0
    4.1167    0.6052    3.1369 H   0  0  0  0  0  0  0  0  0  0  0  0
    3.0663    1.1644    1.8050 H   0  0  0  0  0  0  0  0  0  0  0  0
    3.3359   -0.7137    2.2294 H   0  0  0  0  0  0  0  0  0  0  0  0
    0.3066   -3.5004    4.5168 H   0  0  0  0  0  0  0  0  0  0  0  0
   -1.1612   -4.4262    4.7307 H   0  0  0  0  0  0  0  0  0  0  0  0
   -1.0253   -3.3472    3.3513 H   0  0  0  0  0  0  0  0  0  0  0  0
   -3.9358   -5.6062    4.0978 H   0  0  0  0  0  0  0  0  0  0  0  0
   -5.5395   -5.0173    4.5157 H   0  0  0  0  0  0  0  0  0  0  0  0
   -5.4910   -9.5823    4.0227 H   0  0  0  0  0  0  0  0  0  0  0  0
   -6.2680   -9.1736    5.5534 H   0  0  0  0  0  0  0  0  0  0  0  0
   -4.5174   -9.5063    5.4915 H   0  0  0  0  0  0  0  0  0  0  0  0
   -6.2105   -7.4035    7.3164 H   0  0  0  0  0  0  0  0  0  0  0  0
   -7.0298   -6.5954    5.9735 H   0  0  0  0  0  0  0  0  0  0  0  0
   -6.1620   -5.6450    7.1639 H   0  0  0  0  0  0  0  0  0  0  0  0
   -3.7623   -7.8817    7.2289 H   0  0  0  0  0  0  0  0  0  0  0  0
   -1.8803   -6.1742    7.5373 H   0  0  0  0  0  0  0  0  0  0  0  0
   -2.8865   -4.8395    9.2202 H   0  0  0  0  0  0  0  0  0  0  0  0
   -3.6152   -6.4500    9.2937 H   0  0  0  0  0  0  0  0  0  0  0  0
   -4.5120   -5.0896    8.6002 H   0  0  0  0  0  0  0  0  0  0  0  0
   -2.3585   -6.8264    5.0208 H   0  0  0  0  0  0  0  0  0  0  0  0
   -2.3826   -1.0058    7.6049 H   0  0  0  0  0  0  0  0  0  0  0  0
   -3.8182   -2.0291    7.7449 H   0  0  0  0  0  0  0  0  0  0  0  0
   -3.9425   -0.2711    7.9071 H   0  0  0  0  0  0  0  0  0  0  0  0
   -1.6322   -1.4423   -1.5717 H   0  0  0  0  0  0  0  0  0  0  0  0
   -3.0323   -2.4396   -1.2056 H   0  0  0  0  0  0  0  0  0  0  0  0
    0.4765   -2.6826   -1.3091 H   0  0  0  0  0  0  0  0  0  0  0  0
    0.3530   -2.2105    0.3990 H   0  0  0  0  0  0  0  0  0  0  0  0
    0.5054   -5.0787   -0.6320 H   0  0  0  0  0  0  0  0  0  0  0  0
    1.8607   -4.1596    0.0649 H   0  0  0  0  0  0  0  0  0  0  0  0
    0.5284   -6.0726    2.9039 H   0  0  0  0  0  0  0  0  0  0  0  0
    1.9781   -5.9002    1.9108 H   0  0  0  0  0  0  0  0  0  0  0  0
    0.5483   -6.7492    1.2676 H   0  0  0  0  0  0  0  0  0  0  0  0
  2  1  1  0  0  0  0 
  3  2  1  0  0  0  0 
  7  2  1  0  0  0  0 
  3  4  1  0  0  0  0 
 34  3  1  0  0  0  0 
  3 64  1  0  0  0  0 
  5  4  1  0  0  0  0 
  5 58  1  0  0  0  0 
  5  6  1  0  0  0  0 
  7  6  1  0  0  0  0 
  8  7  1  0  0  0  0 
  7 57  1  0  0  0  0 
  8  9  1  0  0  0  0 
  8 10  1  0  0  0  0 
  8 56  1  0  0  0  0 
 11 10  1  0  0  0  0 
 11 12  1  0  0  0  0 
 11 13  1  0  0  0  0 
 14 11  1  0  0  0  0 
 14 15  1  0  0  0  0 
 28 14  1  0  0  0  0 
 16 15  1  0  0  0  0 
 17 16  1  0  0  0  0 
 16 25  1  0  0  0  0 
 16 27  1  0  0  0  0 
 17 18  1  0  0  0  0 
 19 17  1  0  0  0  0 
 19 20  1  0  0  0  0 
 19 23  1  0  0  0  0 
 20 21  1  0  0  0  0 
 20 22  1  0  0  0  0 
 24 23  1  0  0  0  0 
 24 26  1  0  0  0  0 
 24 25  1  0  0  0  0 
 29 28  1  0  0  0  0 
 28 55  1  0  0  0  0 
 29 41  1  0  0  0  0 
 29 54  1  0  0  0  0 
 30 29  1  0  0  0  0 
 30 40  1  0  0  0  0 
 30 31  1  0  0  0  0 
 31 39  2  0  0  0  0 
 32 31  1  0  0  0  0 
 33 32  1  0  0  0  0 
 33 37  1  0  0  0  0 
 34 33  1  0  0  0  0 
 34 35  1  0  0  0  0 
 34 36  1  0  0  0  0 
 37 38  1  0  0  0  0 
 42 41  1  0  0  0  0 
 42 43  1  0  0  0  0 
 42 50  1  0  0  0  0 
 42 53  1  0  0  0  0 
 44 43  1  0  0  0  0 
 44 45  1  0  0  0  0 
 44 47  1  0  0  0  0 
 48 44  1  0  0  0  0 
 45 46  1  0  0  0  0 
 48 52  1  0  0  0  0 
 49 48  1  0  0  0  0 
 49 51  1  0  0  0  0 
 49 50  1  0  0  0  0 
 58 59  1  0  0  0  0 
 59 60  1  0  0  0  0 
 60 61  1  0  0  0  0 
 61 62  1  0  0  0  0 
 62 63  1  0  0  0  0 
  1 65  1  0  0  0  0 
  1 66  1  0  0  0  0 
  1 67  1  0  0  0  0 
  2 68  1  0  0  0  0 
  5 69  1  0  0  0  0 
  6 70  1  0  0  0  0 
  9 71  1  0  0  0  0 
  9 72  1  0  0  0  0 
  9 73  1  0  0  0  0 
 10 74  1  0  0  0  0 
 10 75  1  0  0  0  0 
 12 76  1  0  0  0  0 
 12 77  1  0  0  0  0 
 12 78  1  0  0  0  0 
 13 79  1  0  0  0  0 
 14 80  1  0  0  0  0 
 17 81  1  0  0  0  0 
 18 82  1  0  0  0  0 
 19 83  1  0  0  0  0 
 21 84  1  0  0  0  0 
 21 85  1  0  0  0  0 
 21 86  1  0  0  0  0 
 22 87  1  0  0  0  0 
 22 88  1  0  0  0  0 
 22 89  1  0  0  0  0 
 23 90  1  0  0  0  0 
 23 91  1  0  0  0  0 
 24 92  1  0  0  0  0 
 26 93  1  0  0  0  0 
 26 94  1  0  0  0  0 
 26 95  1  0  0  0  0 
 28 96  1  0  0  0  0 
 30 97  1  0  0  0  0 
 33 98  1  0  0  0  0 
 35 99  1  0  0  0  0 
 35100  1  0  0  0  0 
 35101  1  0  0  0  0 
 36102  1  0  0  0  0 
 37103  1  0  0  0  0 
 37104  1  0  0  0  0 
 38105  1  0  0  0  0 
 38106  1  0  0  0  0 
 38107  1  0  0  0  0 
 40108  1  0  0  0  0 
 40109  1  0  0  0  0 
 40110  1  0  0  0  0 
 43111  1  0  0  0  0 
 43112  1  0  0  0  0 
 46113  1  0  0  0  0 
 46114  1  0  0  0  0 
 46115  1  0  0  0  0 
 47116  1  0  0  0  0 
 47117  1  0  0  0  0 
 47118  1  0  0  0  0 
 48119  1  0  0  0  0 
 49120  1  0  0  0  0 
 51121  1  0  0  0  0 
 51122  1  0  0  0  0 
 51123  1  0  0  0  0 
 52124  1  0  0  0  0 
 55125  1  0  0  0  0 
 55126  1  0  0  0  0 
 55127  1  0  0  0  0 
 58128  1  0  0  0  0 
 58129  1  0  0  0  0 
 60130  1  0  0  0  0 
 60131  1  0  0  0  0 
 61132  1  0  0  0  0 
 61133  1  0  0  0  0 
 63134  1  0  0  0  0 
 63135  1  0  0  0  0 
 63136  1  0  0  0  0 
M  END
> <cdk:Title>
dirithromycin

> <Conformer>
1

> <SuperDrugID>
SD000822

$$$$
