nitazoxanide
  CDK     0628171801

 30 31  0  0  0  0  0  0  0  0999 V2000
   -3.8397    3.1563   -0.4781 C   0  0  0  0  0  0  0  0  0  0  0  0
   -2.9245    2.1843   -0.2115 N   0  0  0  0  0  0  0  0  0  0  0  0
   -3.5520    4.2111   -1.0926 O   0  0  0  0  0  0  0  0  0  0  0  0
   -5.1837    2.9639   -0.0968 C   0  0  0  0  0  0  0  0  0  0  0  0
   -1.6118    2.2055   -0.5519 C   0  0  0  0  0  0  0  0  0  0  0  0
   -6.2039    2.8695   -1.0794 C   0  0  0  0  0  0  0  0  0  0  0  0
   -5.5144    2.8688    1.2736 C   0  0  0  0  0  0  0  0  0  0  0  0
   -0.4885    0.8941   -0.2480 S   0  0  0  0  0  0  0  0  0  0  0  0
   -0.9086    3.1820   -1.1688 N   0  0  0  0  0  0  0  0  0  0  0  0
   -5.8030    2.9284   -2.3910 O   0  0  0  0  0  0  0  0  0  0  0  0
   -7.5477    2.7158   -0.6643 C   0  0  0  0  0  0  0  0  0  0  0  0
   -6.8518    2.6875    1.6692 C   0  0  0  0  0  0  0  0  0  0  0  0
    0.9044    1.6928   -0.9595 C   0  0  0  0  0  0  0  0  0  0  0  0
    0.4091    2.9342   -1.3908 C   0  0  0  0  0  0  0  0  0  0  0  0
   -6.4223    2.7283   -3.5886 C   0  0  0  0  0  0  0  0  0  0  0  0
   -7.8676    2.6160    0.7006 C   0  0  0  0  0  0  0  0  0  0  0  0
    2.1366    1.2176   -1.0591 N   0  0  0  0  0  0  0  0  0  0  0  0
   -5.6112    2.9155   -4.7990 C   0  0  0  0  0  0  0  0  0  0  0  0
   -7.6165    2.3652   -3.6895 O   0  0  0  0  0  0  0  0  0  0  0  0
    2.4106    0.1634   -0.6375 O   0  0  0  0  0  0  0  0  0  0  0  0
    3.0662    1.8794   -1.6144 O   0  0  0  0  0  0  0  0  0  0  0  0
   -3.2422    1.3921    0.2520 H   0  0  0  0  0  0  0  0  0  0  0  0
   -4.7887    2.9415    1.9931 H   0  0  0  0  0  0  0  0  0  0  0  0
   -8.3079    2.6817   -1.3427 H   0  0  0  0  0  0  0  0  0  0  0  0
   -7.0881    2.6132    2.6609 H   0  0  0  0  0  0  0  0  0  0  0  0
    1.0010    3.6278   -1.8505 H   0  0  0  0  0  0  0  0  0  0  0  0
   -8.8415    2.4953    0.9901 H   0  0  0  0  0  0  0  0  0  0  0  0
   -4.7601    2.2331   -4.7703 H   0  0  0  0  0  0  0  0  0  0  0  0
   -5.2391    3.9409   -4.8448 H   0  0  0  0  0  0  0  0  0  0  0  0
   -6.1959    2.7127   -5.6981 H   0  0  0  0  0  0  0  0  0  0  0  0
  1  2  1  0  0  0  0 
  1  3  2  0  0  0  0 
  1  4  1  0  0  0  0 
  2  5  1  0  0  0  0 
  4  6  2  0  0  0  0 
  4  7  1  0  0  0  0 
  5  8  1  0  0  0  0 
  5  9  2  0  0  0  0 
  6 10  1  0  0  0  0 
  6 11  1  0  0  0  0 
  7 12  2  0  0  0  0 
  8 13  1  0  0  0  0 
  9 14  1  0  0  0  0 
 10 15  1  0  0  0  0 
 11 16  2  0  0  0  0 
 12 16  1  0  0  0  0 
 13 14  2  0  0  0  0 
 13 17  1  0  0  0  0 
 15 18  1  0  0  0  0 
 15 19  2  0  0  0  0 
 17 20  2  0  0  0  0 
 17 21  1  0  0  0  0 
  2 22  1  0  0  0  0 
  7 23  1  0  0  0  0 
 11 24  1  0  0  0  0 
 12 25  1  0  0  0  0 
 14 26  1  0  0  0  0 
 16 27  1  0  0  0  0 
 18 28  1  0  0  0  0 
 18 29  1  0  0  0  0 
 18 30  1  0  0  0  0 
M  CHG  1  17   1
M  CHG  1  21  -1
M  END
> <cdk:Title>
nitazoxanide

> <Conformer>
1

> <SuperDrugID>
SD001737

$$$$
