tranexamic acid
  CDK     0628171801

 26 26  0  0  0  0  0  0  0  0999 V2000
    1.5084   -0.0580    0.2875 N   0  0  1  0  0  0  0  0  0  0  0  0
    0.4087    0.5113    1.0768 C   0  0  1  0  0  0  0  0  0  0  0  0
   -0.9591    0.4086    0.3373 C   0  0  1  0  0  0  0  0  0  0  0  0
   -1.3448   -1.0657    0.0022 C   0  0  1  0  0  0  0  0  0  0  0  0
   -2.7145   -1.1620   -0.7232 C   0  0  2  0  0  0  0  0  0  0  0  0
   -3.8519   -0.4781    0.0907 C   0  0  1  0  0  0  0  0  0  0  0  0
   -3.4792    0.9939    0.4379 C   0  0  1  0  0  0  0  0  0  0  0  0
   -2.1024    1.0897    1.1535 C   0  0  1  0  0  0  0  0  0  0  0  0
   -5.1511   -0.5671   -0.6184 C   0  0  0  0  0  0  0  0  0  0  0  0
   -6.1823   -1.2493   -0.0667 O   0  0  0  0  0  0  0  0  0  0  0  0
   -5.3237   -0.0274   -1.7354 O   0  0  0  0  0  0  0  0  0  0  0  0
    1.5675    0.4728   -0.5848 H   0  0  0  0  0  0  0  0  0  0  0  0
    2.3768    0.1121    0.8024 H   0  0  0  0  0  0  0  0  0  0  0  0
    0.3661   -0.0141    2.0325 H   0  0  0  0  0  0  0  0  0  0  0  0
    0.6461    1.5599    1.2698 H   0  0  0  0  0  0  0  0  0  0  0  0
   -0.8538    0.9539   -0.6074 H   0  0  0  0  0  0  0  0  0  0  0  0
   -0.5832   -1.5116   -0.6424 H   0  0  0  0  0  0  0  0  0  0  0  0
   -1.3865   -1.6519    0.9242 H   0  0  0  0  0  0  0  0  0  0  0  0
   -2.9563   -2.2161   -0.8830 H   0  0  0  0  0  0  0  0  0  0  0  0
   -2.6260   -0.6873   -1.7044 H   0  0  0  0  0  0  0  0  0  0  0  0
   -3.9588   -1.0235    1.0334 H   0  0  0  0  0  0  0  0  0  0  0  0
   -3.4411    1.5909   -0.4776 H   0  0  0  0  0  0  0  0  0  0  0  0
   -4.2476    1.4247    1.0852 H   0  0  0  0  0  0  0  0  0  0  0  0
   -2.1823    0.6177    2.1369 H   0  0  0  0  0  0  0  0  0  0  0  0
   -1.8635    2.1450    1.3106 H   0  0  0  0  0  0  0  0  0  0  0  0
   -7.0387   -1.3215   -0.5354 H   0  0  0  0  0  0  0  0  0  0  0  0
  1  2  1  0  0  0  0 
  3  2  1  0  0  0  0 
  3  4  1  0  0  0  0 
  4  5  1  0  0  0  0 
  5  6  1  0  0  0  0 
  6  7  1  0  0  0  0 
  7  8  1  0  0  0  0 
  3  8  1  0  0  0  0 
  6  9  1  0  0  0  0 
  9 10  1  0  0  0  0 
  9 11  2  0  0  0  0 
  1 12  1  0  0  0  0 
  1 13  1  0  0  0  0 
  2 14  1  0  0  0  0 
  2 15  1  0  0  0  0 
  3 16  1  0  0  0  0 
  4 17  1  0  0  0  0 
  4 18  1  0  0  0  0 
  5 19  1  0  0  0  0 
  5 20  1  0  0  0  0 
  6 21  1  0  0  0  0 
  7 22  1  0  0  0  0 
  7 23  1  0  0  0  0 
  8 24  1  0  0  0  0 
  8 25  1  0  0  0  0 
 10 26  1  0  0  0  0 
M  END
> <cdk:Title>
tranexamic acid

> <Conformer>
1

> <SuperDrugID>
SD002444

$$$$
