clorexolone
  CDK     0628171802

 38 40  0  0  0  0  0  0  0  0999 V2000
   -1.3894   -2.3214    1.8317 O   0  0  0  0  0  0  0  0  0  0  0  0
   -1.6710   -1.9646    0.6647 C   0  0  0  0  0  0  0  0  0  0  0  0
   -2.8036   -2.3759   -0.0240 C   0  0  0  0  0  0  0  0  0  0  0  0
   -0.9475   -1.1157   -0.1227 N   0  0  0  0  0  0  0  0  0  0  0  0
   -2.7667   -1.7884   -1.2794 C   0  0  0  0  0  0  0  0  0  0  0  0
   -3.8686   -3.2113    0.3524 C   0  0  0  0  0  0  0  0  0  0  0  0
   -1.5751   -0.9485   -1.4043 C   0  0  2  0  0  0  0  0  0  0  0  0
    0.2751   -0.4281    0.2351 C   0  0  2  0  0  0  0  0  0  0  0  0
   -3.7827   -2.0320   -2.2183 C   0  0  0  0  0  0  0  0  0  0  0  0
   -4.9146   -3.4646   -0.5682 C   0  0  0  0  0  0  0  0  0  0  0  0
    1.4700   -1.3966    0.4818 C   0  0  1  0  0  0  0  0  0  0  0  0
    0.0698    0.5307    1.4463 C   0  0  2  0  0  0  0  0  0  0  0  0
   -4.8561   -2.8848   -1.8695 C   0  0  0  0  0  0  0  0  0  0  0  0
   -6.2271   -4.5235   -0.0075 S   0  0  1  0  0  0  0  0  0  0  0  0
    2.7716   -0.6231    0.8296 C   0  0  2  0  0  0  0  0  0  0  0  0
    1.3594    1.3262    1.7713 C   0  0  2  0  0  0  0  0  0  0  0  0
   -6.0215   -3.1680   -3.0695 Cl  0  0  0  0  0  0  0  0  0  0  0  0
   -5.7173   -6.1985   -0.1554 N   0  0  2  0  0  0  0  0  0  0  0  0
   -6.5460   -4.2545    1.5420 O   0  0  0  0  0  0  0  0  0  0  0  0
   -7.5887   -4.3464   -0.8334 O   0  0  0  0  0  0  0  0  0  0  0  0
    2.5717    0.3838    1.9957 C   0  0  2  0  0  0  0  0  0  0  0  0
   -3.8784   -3.6278    1.2867 H   0  0  0  0  0  0  0  0  0  0  0  0
   -0.9255   -1.3059   -2.2080 H   0  0  0  0  0  0  0  0  0  0  0  0
   -1.8600    0.0944   -1.5713 H   0  0  0  0  0  0  0  0  0  0  0  0
    0.5663    0.2048   -0.6118 H   0  0  0  0  0  0  0  0  0  0  0  0
   -3.7351   -1.5942   -3.1416 H   0  0  0  0  0  0  0  0  0  0  0  0
    1.2386   -2.0886    1.2951 H   0  0  0  0  0  0  0  0  0  0  0  0
    1.6433   -1.9917   -0.4177 H   0  0  0  0  0  0  0  0  0  0  0  0
   -0.2208   -0.0368    2.3346 H   0  0  0  0  0  0  0  0  0  0  0  0
   -0.7375    1.2336    1.2226 H   0  0  0  0  0  0  0  0  0  0  0  0
    3.1176   -0.0838   -0.0568 H   0  0  0  0  0  0  0  0  0  0  0  0
    3.5499   -1.3393    1.1059 H   0  0  0  0  0  0  0  0  0  0  0  0
    1.1925    1.9240    2.6708 H   0  0  0  0  0  0  0  0  0  0  0  0
    1.5761    2.0131    0.9492 H   0  0  0  0  0  0  0  0  0  0  0  0
   -6.4963   -6.7739    0.1684 H   0  0  0  0  0  0  0  0  0  0  0  0
   -4.9596   -6.3333    0.5161 H   0  0  0  0  0  0  0  0  0  0  0  0
    3.4767    0.9879    2.1036 H   0  0  0  0  0  0  0  0  0  0  0  0
    2.4282   -0.1690    2.9285 H   0  0  0  0  0  0  0  0  0  0  0  0
  1  2  2  0  0  0  0 
  2  3  1  0  0  0  0 
  2  4  1  0  0  0  0 
  3  5  2  0  0  0  0 
  3  6  1  0  0  0  0 
  4  7  1  0  0  0  0 
  4  8  1  0  0  0  0 
  5  7  1  0  0  0  0 
  5  9  1  0  0  0  0 
  6 10  2  0  0  0  0 
  8 11  1  0  0  0  0 
  8 12  1  0  0  0  0 
  9 13  2  0  0  0  0 
 10 13  1  0  0  0  0 
 10 14  1  0  0  0  0 
 11 15  1  0  0  0  0 
 12 16  1  0  0  0  0 
 13 17  1  0  0  0  0 
 14 18  1  0  0  0  0 
 14 19  2  0  0  0  0 
 14 20  2  0  0  0  0 
 15 21  1  0  0  0  0 
 16 21  1  0  0  0  0 
  6 22  1  0  0  0  0 
  7 23  1  0  0  0  0 
  7 24  1  0  0  0  0 
  8 25  1  0  0  0  0 
  9 26  1  0  0  0  0 
 11 27  1  0  0  0  0 
 11 28  1  0  0  0  0 
 12 29  1  0  0  0  0 
 12 30  1  0  0  0  0 
 15 31  1  0  0  0  0 
 15 32  1  0  0  0  0 
 16 33  1  0  0  0  0 
 16 34  1  0  0  0  0 
 18 35  1  0  0  0  0 
 18 36  1  0  0  0  0 
 21 37  1  0  0  0  0 
 21 38  1  0  0  0  0 
M  END
> <cdk:Title>
clorexolone

> <Conformer>
1

> <SuperDrugID>
SD000629

$$$$
