benzquercin
  CDK     0628171801

 97104  0  0  0  0  0  0  0  0999 V2000
   -2.1214   -0.2305   10.4464 O   0  0  0  0  0  0  0  0  0  0  0  0
   -2.7494   -1.4784   10.8202 C   0  0  1  0  0  0  0  0  0  0  0  0
   -2.6978    0.3173    9.3282 C   0  0  0  0  0  0  0  0  0  0  0  0
   -1.9881   -2.0787   11.9410 C   0  0  0  0  0  0  0  0  0  0  0  0
   -2.2990   -0.0469    8.0138 C   0  0  0  0  0  0  0  0  0  0  0  0
   -3.7484    1.2367    9.5159 C   0  0  0  0  0  0  0  0  0  0  0  0
   -0.9427   -3.0004   11.6930 C   0  0  0  0  0  0  0  0  0  0  0  0
   -2.2852   -1.7348   13.2809 C   0  0  0  0  0  0  0  0  0  0  0  0
   -3.0153    0.4799    6.9050 C   0  0  0  0  0  0  0  0  0  0  0  0
   -1.2329   -0.9359    7.7380 C   0  0  0  0  0  0  0  0  0  0  0  0
   -4.4533    1.7552    8.4139 C   0  0  0  0  0  0  0  0  0  0  0  0
   -0.2024   -3.5503   12.7556 C   0  0  0  0  0  0  0  0  0  0  0  0
   -1.5465   -2.2861   14.3446 C   0  0  0  0  0  0  0  0  0  0  0  0
   -2.6827    0.0936    5.6366 O   0  0  0  0  0  0  0  0  0  0  0  0
   -4.0734    1.3876    7.1073 C   0  0  0  0  0  0  0  0  0  0  0  0
   -0.5035   -1.3879    8.6521 O   0  0  0  0  0  0  0  0  0  0  0  0
   -0.9473   -1.3509    6.4225 C   0  0  0  0  0  0  0  0  0  0  0  0
   -5.5200    2.5884    8.6249 O   0  0  0  0  0  0  0  0  0  0  0  0
   -0.4987   -3.1863   14.0811 C   0  0  0  0  0  0  0  0  0  0  0  0
   -1.6780   -0.7901    5.3516 C   0  0  0  0  0  0  0  0  0  0  0  0
    0.0259   -2.2941    6.2000 O   0  0  0  0  0  0  0  0  0  0  0  0
   -6.7486    1.8475    8.7736 C   0  0  1  0  0  0  0  0  0  0  0  0
   -1.3887   -1.1035    4.0017 C   0  0  0  0  0  0  0  0  0  0  0  0
   -0.5097   -3.6323    6.1302 C   0  0  1  0  0  0  0  0  0  0  0  0
   -7.8287    2.8352    9.0216 C   0  0  0  0  0  0  0  0  0  0  0  0
   -0.0751   -0.9441    3.5089 C   0  0  0  0  0  0  0  0  0  0  0  0
   -2.3861   -1.5911    3.1265 C   0  0  0  0  0  0  0  0  0  0  0  0
    0.6091   -4.5646    5.8584 C   0  0  0  0  0  0  0  0  0  0  0  0
   -8.1752    3.2124   10.3415 C   0  0  0  0  0  0  0  0  0  0  0  0
   -8.5290    3.4297    7.9444 C   0  0  0  0  0  0  0  0  0  0  0  0
    0.2396   -1.2646    2.1772 C   0  0  0  0  0  0  0  0  0  0  0  0
   -2.0766   -1.9000    1.7866 C   0  0  0  0  0  0  0  0  0  0  0  0
    0.9714   -4.8928    4.5300 C   0  0  0  0  0  0  0  0  0  0  0  0
    1.3484   -5.1304    6.9238 C   0  0  0  0  0  0  0  0  0  0  0  0
   -9.1929    4.1543   10.5785 C   0  0  0  0  0  0  0  0  0  0  0  0
   -9.5477    4.3715    8.1801 C   0  0  0  0  0  0  0  0  0  0  0  0
    1.5235   -1.0901    1.7471 O   0  0  0  0  0  0  0  0  0  0  0  0
   -0.7682   -1.7154    1.2953 C   0  0  0  0  0  0  0  0  0  0  0  0
    2.0440   -5.7676    4.2739 C   0  0  0  0  0  0  0  0  0  0  0  0
    2.4190   -6.0079    6.6687 C   0  0  0  0  0  0  0  0  0  0  0  0
   -9.8775    4.7363    9.4973 C   0  0  0  0  0  0  0  0  0  0  0  0
    2.3506   -2.2544    1.9099 C   0  0  1  0  0  0  0  0  0  0  0  0
   -0.4675   -1.9632   -0.0253 O   0  0  0  0  0  0  0  0  0  0  0  0
    2.7672   -6.3255    5.3436 C   0  0  0  0  0  0  0  0  0  0  0  0
    3.6834   -1.9194    1.3578 C   0  0  0  0  0  0  0  0  0  0  0  0
   -0.7844   -0.8663   -0.9172 C   0  0  1  0  0  0  0  0  0  0  0  0
    4.0179   -2.2326    0.0189 C   0  0  0  0  0  0  0  0  0  0  0  0
    4.6336   -1.2406    2.1565 C   0  0  0  0  0  0  0  0  0  0  0  0
    0.0048    0.3604   -0.6099 C   0  0  0  0  0  0  0  0  0  0  0  0
    5.2674   -1.8612   -0.5123 C   0  0  0  0  0  0  0  0  0  0  0  0
    5.8806   -0.8647    1.6243 C   0  0  0  0  0  0  0  0  0  0  0  0
   -0.6187    1.4942   -0.0385 C   0  0  0  0  0  0  0  0  0  0  0  0
    1.4089    0.3747   -0.7862 C   0  0  0  0  0  0  0  0  0  0  0  0
    6.1941   -1.1679    0.2875 C   0  0  0  0  0  0  0  0  0  0  0  0
    0.1498    2.5834    0.4118 C   0  0  0  0  0  0  0  0  0  0  0  0
    2.1774    1.4709   -0.3510 C   0  0  0  0  0  0  0  0  0  0  0  0
    1.5480    2.5670    0.2656 C   0  0  0  0  0  0  0  0  0  0  0  0
   -3.7876   -1.3101   11.1226 H   0  0  0  0  0  0  0  0  0  0  0  0
   -2.7703   -2.1816    9.9801 H   0  0  0  0  0  0  0  0  0  0  0  0
   -4.0220    1.5043   10.4642 H   0  0  0  0  0  0  0  0  0  0  0  0
   -0.7116   -3.2778   10.7363 H   0  0  0  0  0  0  0  0  0  0  0  0
   -3.0427   -1.0807   13.4909 H   0  0  0  0  0  0  0  0  0  0  0  0
    0.5519   -4.2137   12.5644 H   0  0  0  0  0  0  0  0  0  0  0  0
   -1.7697   -2.0319   15.3095 H   0  0  0  0  0  0  0  0  0  0  0  0
   -4.5812    1.7683    6.3060 H   0  0  0  0  0  0  0  0  0  0  0  0
    0.0469   -3.5761   14.8524 H   0  0  0  0  0  0  0  0  0  0  0  0
   -6.9648    1.3260    7.7852 H   0  0  0  0  0  0  0  0  0  0  0  0
   -6.6614    1.1833    9.6950 H   0  0  0  0  0  0  0  0  0  0  0  0
   -1.0007   -3.9039    7.0715 H   0  0  0  0  0  0  0  0  0  0  0  0
   -1.2583   -3.7193    5.3348 H   0  0  0  0  0  0  0  0  0  0  0  0
    0.6702   -0.5922    4.1159 H   0  0  0  0  0  0  0  0  0  0  0  0
   -3.3426   -1.7370    3.4585 H   0  0  0  0  0  0  0  0  0  0  0  0
   -7.6886    2.8036   11.1423 H   0  0  0  0  0  0  0  0  0  0  0  0
   -8.3029    3.1804    6.9790 H   0  0  0  0  0  0  0  0  0  0  0  0
   -2.8062   -2.2570    1.1640 H   0  0  0  0  0  0  0  0  0  0  0  0
    0.4579   -4.4956    3.7396 H   0  0  0  0  0  0  0  0  0  0  0  0
    1.1126   -4.9060    7.8935 H   0  0  0  0  0  0  0  0  0  0  0  0
   -9.4344    4.4169   11.5366 H   0  0  0  0  0  0  0  0  0  0  0  0
  -10.0484    4.7922    7.3942 H   0  0  0  0  0  0  0  0  0  0  0  0
    2.2987   -5.9980    3.3103 H   0  0  0  0  0  0  0  0  0  0  0  0
    2.9453   -6.4138    7.4463 H   0  0  0  0  0  0  0  0  0  0  0  0
  -10.6122    5.4255    9.6689 H   0  0  0  0  0  0  0  0  0  0  0  0
    2.4432   -2.5141    2.9687 H   0  0  0  0  0  0  0  0  0  0  0  0
    1.9236   -3.1152    1.3840 H   0  0  0  0  0  0  0  0  0  0  0  0
    3.5461   -6.9609    5.1584 H   0  0  0  0  0  0  0  0  0  0  0  0
   -0.5668   -1.1827   -1.9390 H   0  0  0  0  0  0  0  0  0  0  0  0
   -1.8611   -0.6723   -0.8861 H   0  0  0  0  0  0  0  0  0  0  0  0
    3.3500   -2.7239   -0.5808 H   0  0  0  0  0  0  0  0  0  0  0  0
    4.4208   -1.0115    3.1307 H   0  0  0  0  0  0  0  0  0  0  0  0
    5.5007   -2.0920   -1.4806 H   0  0  0  0  0  0  0  0  0  0  0  0
    6.5575   -0.3691    2.2089 H   0  0  0  0  0  0  0  0  0  0  0  0
   -1.6341    1.5234    0.0785 H   0  0  0  0  0  0  0  0  0  0  0  0
    1.8845   -0.4309   -1.1965 H   0  0  0  0  0  0  0  0  0  0  0  0
    7.0950   -0.8836   -0.1023 H   0  0  0  0  0  0  0  0  0  0  0  0
   -0.3091    3.3875    0.8453 H   0  0  0  0  0  0  0  0  0  0  0  0
    3.1937    1.4656   -0.4682 H   0  0  0  0  0  0  0  0  0  0  0  0
    2.1059    3.3538    0.6028 H   0  0  0  0  0  0  0  0  0  0  0  0
  1  2  1  0  0  0  0 
  1  3  1  0  0  0  0 
  2  4  1  0  0  0  0 
  3  5  2  0  0  0  0 
  3  6  1  0  0  0  0 
  4  7  2  0  0  0  0 
  4  8  1  0  0  0  0 
  5  9  1  0  0  0  0 
  5 10  1  0  0  0  0 
  6 11  2  0  0  0  0 
  7 12  1  0  0  0  0 
  8 13  2  0  0  0  0 
  9 14  1  0  0  0  0 
  9 15  2  0  0  0  0 
 10 16  2  0  0  0  0 
 10 17  1  0  0  0  0 
 11 15  1  0  0  0  0 
 11 18  1  0  0  0  0 
 12 19  2  0  0  0  0 
 13 19  1  0  0  0  0 
 14 20  1  0  0  0  0 
 17 20  2  0  0  0  0 
 17 21  1  0  0  0  0 
 18 22  1  0  0  0  0 
 20 23  1  0  0  0  0 
 21 24  1  0  0  0  0 
 22 25  1  0  0  0  0 
 23 26  2  0  0  0  0 
 23 27  1  0  0  0  0 
 24 28  1  0  0  0  0 
 25 29  2  0  0  0  0 
 25 30  1  0  0  0  0 
 26 31  1  0  0  0  0 
 27 32  2  0  0  0  0 
 28 33  2  0  0  0  0 
 28 34  1  0  0  0  0 
 29 35  1  0  0  0  0 
 30 36  2  0  0  0  0 
 31 37  1  0  0  0  0 
 31 38  2  0  0  0  0 
 32 38  1  0  0  0  0 
 33 39  1  0  0  0  0 
 34 40  2  0  0  0  0 
 35 41  2  0  0  0  0 
 36 41  1  0  0  0  0 
 37 42  1  0  0  0  0 
 38 43  1  0  0  0  0 
 39 44  2  0  0  0  0 
 40 44  1  0  0  0  0 
 42 45  1  0  0  0  0 
 43 46  1  0  0  0  0 
 45 47  2  0  0  0  0 
 45 48  1  0  0  0  0 
 46 49  1  0  0  0  0 
 47 50  1  0  0  0  0 
 48 51  2  0  0  0  0 
 49 52  2  0  0  0  0 
 49 53  1  0  0  0  0 
 50 54  2  0  0  0  0 
 51 54  1  0  0  0  0 
 52 55  1  0  0  0  0 
 53 56  2  0  0  0  0 
 55 57  2  0  0  0  0 
 56 57  1  0  0  0  0 
  2 58  1  0  0  0  0 
  2 59  1  0  0  0  0 
  6 60  1  0  0  0  0 
  7 61  1  0  0  0  0 
  8 62  1  0  0  0  0 
 12 63  1  0  0  0  0 
 13 64  1  0  0  0  0 
 15 65  1  0  0  0  0 
 19 66  1  0  0  0  0 
 22 67  1  0  0  0  0 
 22 68  1  0  0  0  0 
 24 69  1  0  0  0  0 
 24 70  1  0  0  0  0 
 26 71  1  0  0  0  0 
 27 72  1  0  0  0  0 
 29 73  1  0  0  0  0 
 30 74  1  0  0  0  0 
 32 75  1  0  0  0  0 
 33 76  1  0  0  0  0 
 34 77  1  0  0  0  0 
 35 78  1  0  0  0  0 
 36 79  1  0  0  0  0 
 39 80  1  0  0  0  0 
 40 81  1  0  0  0  0 
 41 82  1  0  0  0  0 
 42 83  1  0  0  0  0 
 42 84  1  0  0  0  0 
 44 85  1  0  0  0  0 
 46 86  1  0  0  0  0 
 46 87  1  0  0  0  0 
 47 88  1  0  0  0  0 
 48 89  1  0  0  0  0 
 50 90  1  0  0  0  0 
 51 91  1  0  0  0  0 
 52 92  1  0  0  0  0 
 53 93  1  0  0  0  0 
 54 94  1  0  0  0  0 
 55 95  1  0  0  0  0 
 56 96  1  0  0  0  0 
 57 97  1  0  0  0  0 
M  END
> <cdk:Title>
benzquercin

> <Conformer>
1

> <SuperDrugID>
SD000278

$$$$
