glycerylphosphorylcholine
  CDK     0628171801

 36 35  0  0  0  0  0  0  0  0999 V2000
   -2.6072    1.0308   -0.2765 P   0  0  2  0  0  0  0  0  0  0  0  0
   -3.4995   -0.0501    0.4907 O   0  0  0  0  0  0  0  0  0  0  0  0
   -1.0625    0.8447    0.1026 O   0  0  0  0  0  0  0  0  0  0  0  0
   -3.0315    2.3682    0.1557 O   0  0  0  0  0  0  0  0  0  0  0  0
   -2.7842    0.9163   -1.8469 O   0  0  0  0  0  0  0  0  0  0  0  0
   -3.8655   -1.2352   -0.2434 C   0  0  1  0  0  0  0  0  0  0  0  0
   -0.4450   -0.3886   -0.3158 C   0  0  1  0  0  0  0  0  0  0  0  0
   -4.5587   -2.2382    0.7122 C   0  0  2  0  0  0  0  0  0  0  0  0
    1.0787   -0.3439   -0.0081 C   0  0  1  0  0  0  0  0  0  0  0  0
   -3.6668   -2.6257    1.9171 C   0  0  1  0  0  0  0  0  0  0  0  0
   -4.9077   -3.4015   -0.0387 O   0  0  0  0  0  0  0  0  0  0  0  0
    1.9388   -1.5320   -0.4240 N   0  0  2  0  0  0  0  0  0  0  0  0
   -4.3132   -3.5951    2.7354 O   0  0  0  0  0  0  0  0  0  0  0  0
    1.4920   -2.8057    0.2568 C   0  0  0  0  0  0  0  0  0  0  0  0
    3.3695   -1.2559   -0.0147 C   0  0  0  0  0  0  0  0  0  0  0  0
    1.9158   -1.7302   -1.9229 C   0  0  0  0  0  0  0  0  0  0  0  0
   -4.5659   -0.9744   -1.0429 H   0  0  0  0  0  0  0  0  0  0  0  0
   -2.9990   -1.7296   -0.6917 H   0  0  0  0  0  0  0  0  0  0  0  0
   -0.8880   -1.2202    0.2329 H   0  0  0  0  0  0  0  0  0  0  0  0
   -0.5897   -0.5381   -1.3889 H   0  0  0  0  0  0  0  0  0  0  0  0
   -5.4828   -1.7869    1.0854 H   0  0  0  0  0  0  0  0  0  0  0  0
    1.4638    0.5632   -0.4854 H   0  0  0  0  0  0  0  0  0  0  0  0
    1.1716   -0.1837    1.0723 H   0  0  0  0  0  0  0  0  0  0  0  0
   -2.7170   -3.0382    1.5696 H   0  0  0  0  0  0  0  0  0  0  0  0
   -3.4622   -1.7461    2.5323 H   0  0  0  0  0  0  0  0  0  0  0  0
   -5.3807   -3.9862    0.5906 H   0  0  0  0  0  0  0  0  0  0  0  0
   -3.7109   -3.7245    3.4974 H   0  0  0  0  0  0  0  0  0  0  0  0
    0.4783   -3.0889   -0.0315 H   0  0  0  0  0  0  0  0  0  0  0  0
    2.1400   -3.6478   -0.0037 H   0  0  0  0  0  0  0  0  0  0  0  0
    1.5095   -2.7021    1.3454 H   0  0  0  0  0  0  0  0  0  0  0  0
    3.7589   -0.3559   -0.4997 H   0  0  0  0  0  0  0  0  0  0  0  0
    4.0357   -2.0816   -0.2842 H   0  0  0  0  0  0  0  0  0  0  0  0
    3.4576   -1.1099    1.0663 H   0  0  0  0  0  0  0  0  0  0  0  0
    2.1681   -0.8040   -2.4479 H   0  0  0  0  0  0  0  0  0  0  0  0
    2.6346   -2.4923   -2.2390 H   0  0  0  0  0  0  0  0  0  0  0  0
    0.9354   -2.0555   -2.2753 H   0  0  0  0  0  0  0  0  0  0  0  0
  1  2  1  0  0  0  0 
  1  3  1  0  0  0  0 
  1  4  2  0  0  0  0 
  1  5  1  0  0  0  0 
  2  6  1  0  0  0  0 
  3  7  1  0  0  0  0 
  6  8  1  0  0  0  0 
  7  9  1  0  0  0  0 
  8 10  1  0  0  0  0 
  8 11  1  0  0  0  0 
  9 12  1  0  0  0  0 
 10 13  1  0  0  0  0 
 12 14  1  0  0  0  0 
 12 15  1  0  0  0  0 
 12 16  1  0  0  0  0 
  6 17  1  0  0  0  0 
  6 18  1  0  0  0  0 
  7 19  1  0  0  0  0 
  7 20  1  0  0  0  0 
  8 21  1  0  0  0  0 
  9 22  1  0  0  0  0 
  9 23  1  0  0  0  0 
 10 24  1  0  0  0  0 
 10 25  1  0  0  0  0 
 11 26  1  0  0  0  0 
 13 27  1  0  0  0  0 
 14 28  1  0  0  0  0 
 14 29  1  0  0  0  0 
 14 30  1  0  0  0  0 
 15 31  1  0  0  0  0 
 15 32  1  0  0  0  0 
 15 33  1  0  0  0  0 
 16 34  1  0  0  0  0 
 16 35  1  0  0  0  0 
 16 36  1  0  0  0  0 
M  CHG  1   5  -1
M  CHG  1  12   1
M  END
> <cdk:Title>
glycerylphosphorylcholine

> <Conformer>
1

> <SuperDrugID>
SD003294

$$$$
