pivhydrazine
  CDK     0628171801

 33 33  0  0  0  0  0  0  0  0999 V2000
   -0.2162   -0.2242   -0.0145 C   0  0  1  0  0  0  0  0  0  0  0  0
   -0.9730   -1.1128   -0.9137 N   0  0  2  0  0  0  0  0  0  0  0  0
    0.2419    0.9953   -0.7252 C   0  0  0  0  0  0  0  0  0  0  0  0
   -1.5010   -2.1570   -0.2289 N   0  0  0  0  0  0  0  0  0  0  0  0
   -0.7092    1.8769   -1.2907 C   0  0  0  0  0  0  0  0  0  0  0  0
    1.6149    1.3266   -0.8256 C   0  0  0  0  0  0  0  0  0  0  0  0
   -2.8005   -2.5351   -0.3390 C   0  0  0  0  0  0  0  0  0  0  0  0
   -0.3022    3.0738   -1.9082 C   0  0  0  0  0  0  0  0  0  0  0  0
    2.0218    2.5287   -1.4369 C   0  0  0  0  0  0  0  0  0  0  0  0
   -3.3432   -3.6400    0.5220 C   0  0  1  0  0  0  0  0  0  0  0  0
   -3.5333   -1.9250   -1.1554 O   0  0  0  0  0  0  0  0  0  0  0  0
    1.0623    3.4074   -1.9715 C   0  0  0  0  0  0  0  0  0  0  0  0
   -4.7884   -4.0589    0.0863 C   0  0  0  0  0  0  0  0  0  0  0  0
   -2.4153   -4.8953    0.4379 C   0  0  0  0  0  0  0  0  0  0  0  0
   -3.3959   -3.1353    1.9982 C   0  0  0  0  0  0  0  0  0  0  0  0
   -0.8499    0.0791    0.8245 H   0  0  0  0  0  0  0  0  0  0  0  0
    0.6303   -0.7868    0.3859 H   0  0  0  0  0  0  0  0  0  0  0  0
   -0.3461   -1.4740   -1.6345 H   0  0  0  0  0  0  0  0  0  0  0  0
   -0.9248   -2.6502    0.3772 H   0  0  0  0  0  0  0  0  0  0  0  0
   -1.7070    1.6551   -1.2467 H   0  0  0  0  0  0  0  0  0  0  0  0
    2.3284    0.7016   -0.4428 H   0  0  0  0  0  0  0  0  0  0  0  0
   -1.0015    3.7056   -2.3024 H   0  0  0  0  0  0  0  0  0  0  0  0
    3.0145    2.7694   -1.4859 H   0  0  0  0  0  0  0  0  0  0  0  0
    1.3556    4.2855   -2.4070 H   0  0  0  0  0  0  0  0  0  0  0  0
   -5.1817   -4.8527    0.7287 H   0  0  0  0  0  0  0  0  0  0  0  0
   -4.7827   -4.4245   -0.9443 H   0  0  0  0  0  0  0  0  0  0  0  0
   -5.4719   -3.2073    0.1470 H   0  0  0  0  0  0  0  0  0  0  0  0
   -2.8014   -5.7045    1.0612 H   0  0  0  0  0  0  0  0  0  0  0  0
   -2.3467   -5.2575   -0.5893 H   0  0  0  0  0  0  0  0  0  0  0  0
   -1.4045   -4.6679    0.7844 H   0  0  0  0  0  0  0  0  0  0  0  0
   -3.8415   -3.8900    2.6505 H   0  0  0  0  0  0  0  0  0  0  0  0
   -2.3947   -2.9160    2.3773 H   0  0  0  0  0  0  0  0  0  0  0  0
   -3.9978   -2.2267    2.0736 H   0  0  0  0  0  0  0  0  0  0  0  0
  1  2  1  0  0  0  0 
  1  3  1  0  0  0  0 
  2  4  1  0  0  0  0 
  3  5  2  0  0  0  0 
  3  6  1  0  0  0  0 
  4  7  1  0  0  0  0 
  5  8  1  0  0  0  0 
  6  9  2  0  0  0  0 
  7 10  1  0  0  0  0 
  7 11  2  0  0  0  0 
  8 12  2  0  0  0  0 
  9 12  1  0  0  0  0 
 10 13  1  0  0  0  0 
 10 14  1  0  0  0  0 
 10 15  1  0  0  0  0 
 16  1  1  0  0  0  0 
 17  1  1  0  0  0  0 
 18  2  1  0  0  0  0 
 19  4  1  0  0  0  0 
 20  5  1  0  0  0  0 
 21  6  1  0  0  0  0 
 22  8  1  0  0  0  0 
 23  9  1  0  0  0  0 
 24 12  1  0  0  0  0 
 25 13  1  0  0  0  0 
 26 13  1  0  0  0  0 
 27 13  1  0  0  0  0 
 28 14  1  0  0  0  0 
 29 14  1  0  0  0  0 
 30 14  1  0  0  0  0 
 31 15  1  0  0  0  0 
 32 15  1  0  0  0  0 
 33 15  1  0  0  0  0 
M  END
> <cdk:Title>
pivhydrazine

> <Conformer>
1

> <SuperDrugID>
SD003258

$$$$
