dexloxiglumide
  CDK     0628171802

 60 60  0  0  0  0  0  0  0  0999 V2000
    2.1786    0.5134   -0.7074 C   0  0  2  0  0  0  0  0  0  0  0  0
    3.5240    0.1238   -0.1802 C   0  0  0  0  0  0  0  0  0  0  0  0
    1.0718   -0.0077    0.0545 N   0  0  0  0  0  0  0  0  0  0  0  0
    2.0743    0.1027   -2.2092 C   0  0  2  0  0  0  0  0  0  0  0  0
    4.0233   -1.1705   -0.0346 N   0  0  0  0  0  0  0  0  0  0  0  0
    4.3029    1.0873    0.0404 O   0  0  0  0  0  0  0  0  0  0  0  0
    0.0873    0.6944    0.6870 C   0  0  0  0  0  0  0  0  0  0  0  0
    0.8001    0.6407   -2.9158 C   0  0  1  0  0  0  0  0  0  0  0  0
    5.4612   -1.3901   -0.1081 C   0  0  2  0  0  0  0  0  0  0  0  0
    3.1813   -2.3332    0.1820 C   0  0  2  0  0  0  0  0  0  0  0  0
   -0.8662    0.0336    1.1573 O   0  0  0  0  0  0  0  0  0  0  0  0
    0.0455    2.0982    0.8057 C   0  0  0  0  0  0  0  0  0  0  0  0
    0.7275    0.2332   -4.3312 C   0  0  0  0  0  0  0  0  0  0  0  0
    5.9180   -1.2809   -1.5904 C   0  0  2  0  0  0  0  0  0  0  0  0
    2.7774   -2.4483    1.6842 C   0  0  1  0  0  0  0  0  0  0  0  0
    1.0525    2.7848    1.5199 C   0  0  0  0  0  0  0  0  0  0  0  0
   -0.9924    2.8309    0.1915 C   0  0  0  0  0  0  0  0  0  0  0  0
    0.5921   -1.0740   -4.6511 O   0  0  0  0  0  0  0  0  0  0  0  0
    0.7679    1.0785   -5.2544 O   0  0  0  0  0  0  0  0  0  0  0  0
    7.4152   -1.6196   -1.8068 C   0  0  1  0  0  0  0  0  0  0  0  0
    2.9143   -3.8720    2.2734 C   0  0  1  0  0  0  0  0  0  0  0  0
    1.0456    4.1922    1.5937 C   0  0  0  0  0  0  0  0  0  0  0  0
   -1.0002    4.2346    0.2576 C   0  0  0  0  0  0  0  0  0  0  0  0
    7.8762   -1.3699   -3.2674 C   0  0  1  0  0  0  0  0  0  0  0  0
    2.3731   -3.8575    3.6070 O   0  0  0  0  0  0  0  0  0  0  0  0
    2.2923    4.9515    2.4569 Cl  0  0  0  0  0  0  0  0  0  0  0  0
    0.0225    4.9214    0.9430 C   0  0  0  0  0  0  0  0  0  0  0  0
    9.3271   -1.8390   -3.5160 C   0  0  0  0  0  0  0  0  0  0  0  0
    2.4396   -5.1139    4.2987 C   0  0  0  0  0  0  0  0  0  0  0  0
   -0.0217    6.6162    0.9426 Cl  0  0  0  0  0  0  0  0  0  0  0  0
    2.1351    1.6070   -0.7115 H   0  0  0  0  0  0  0  0  0  0  0  0
    0.9772   -0.9700    0.0838 H   0  0  0  0  0  0  0  0  0  0  0  0
    2.0986   -0.9843   -2.3007 H   0  0  0  0  0  0  0  0  0  0  0  0
    2.9474    0.4934   -2.7432 H   0  0  0  0  0  0  0  0  0  0  0  0
   -0.0897    0.2587   -2.4113 H   0  0  0  0  0  0  0  0  0  0  0  0
    0.7802    1.7316   -2.8471 H   0  0  0  0  0  0  0  0  0  0  0  0
    5.7470   -2.3747    0.2760 H   0  0  0  0  0  0  0  0  0  0  0  0
    6.0011   -0.6661    0.5090 H   0  0  0  0  0  0  0  0  0  0  0  0
    3.6926   -3.2459   -0.1432 H   0  0  0  0  0  0  0  0  0  0  0  0
    2.2851   -2.3034   -0.4333 H   0  0  0  0  0  0  0  0  0  0  0  0
    5.7330   -0.2640   -1.9482 H   0  0  0  0  0  0  0  0  0  0  0  0
    5.3125   -1.9620   -2.1963 H   0  0  0  0  0  0  0  0  0  0  0  0
    3.3920   -1.7805    2.2966 H   0  0  0  0  0  0  0  0  0  0  0  0
    1.7394   -2.1220    1.7969 H   0  0  0  0  0  0  0  0  0  0  0  0
    1.7992    2.2584    1.9845 H   0  0  0  0  0  0  0  0  0  0  0  0
   -1.7401    2.3511   -0.3195 H   0  0  0  0  0  0  0  0  0  0  0  0
    0.5427   -1.7549   -3.9461 H   0  0  0  0  0  0  0  0  0  0  0  0
    8.0238   -1.0030   -1.1408 H   0  0  0  0  0  0  0  0  0  0  0  0
    7.5825   -2.6693   -1.5526 H   0  0  0  0  0  0  0  0  0  0  0  0
    2.3618   -4.5792    1.6473 H   0  0  0  0  0  0  0  0  0  0  0  0
    3.9712   -4.1581    2.2953 H   0  0  0  0  0  0  0  0  0  0  0  0
   -1.7517    4.7525   -0.2042 H   0  0  0  0  0  0  0  0  0  0  0  0
    7.2156   -1.8965   -3.9623 H   0  0  0  0  0  0  0  0  0  0  0  0
    7.8116   -0.3004   -3.4855 H   0  0  0  0  0  0  0  0  0  0  0  0
    9.6251   -1.5999   -4.5378 H   0  0  0  0  0  0  0  0  0  0  0  0
   10.0139   -1.3424   -2.8289 H   0  0  0  0  0  0  0  0  0  0  0  0
    9.4045   -2.9182   -3.3751 H   0  0  0  0  0  0  0  0  0  0  0  0
    1.9112   -4.9978    5.2451 H   0  0  0  0  0  0  0  0  0  0  0  0
    3.4749   -5.3912    4.5112 H   0  0  0  0  0  0  0  0  0  0  0  0
    1.9540   -5.9107    3.7296 H   0  0  0  0  0  0  0  0  0  0  0  0
  1  2  1  0  0  0  0 
  1  3  1  0  0  0  0 
  1  4  1  0  0  0  0 
  2  5  1  0  0  0  0 
  2  6  2  0  0  0  0 
  3  7  1  0  0  0  0 
  4  8  1  0  0  0  0 
  5  9  1  0  0  0  0 
  5 10  1  0  0  0  0 
  7 11  2  0  0  0  0 
  7 12  1  0  0  0  0 
  8 13  1  0  0  0  0 
  9 14  1  0  0  0  0 
 10 15  1  0  0  0  0 
 12 16  2  0  0  0  0 
 12 17  1  0  0  0  0 
 13 18  1  0  0  0  0 
 13 19  2  0  0  0  0 
 14 20  1  0  0  0  0 
 15 21  1  0  0  0  0 
 16 22  1  0  0  0  0 
 17 23  2  0  0  0  0 
 20 24  1  0  0  0  0 
 21 25  1  0  0  0  0 
 22 26  1  0  0  0  0 
 22 27  2  0  0  0  0 
 23 27  1  0  0  0  0 
 24 28  1  0  0  0  0 
 25 29  1  0  0  0  0 
 27 30  1  0  0  0  0 
  1 31  1  0  0  0  0 
  3 32  1  0  0  0  0 
  4 33  1  0  0  0  0 
  4 34  1  0  0  0  0 
  8 35  1  0  0  0  0 
  8 36  1  0  0  0  0 
  9 37  1  0  0  0  0 
  9 38  1  0  0  0  0 
 10 39  1  0  0  0  0 
 10 40  1  0  0  0  0 
 14 41  1  0  0  0  0 
 14 42  1  0  0  0  0 
 15 43  1  0  0  0  0 
 15 44  1  0  0  0  0 
 16 45  1  0  0  0  0 
 17 46  1  0  0  0  0 
 18 47  1  0  0  0  0 
 20 48  1  0  0  0  0 
 20 49  1  0  0  0  0 
 21 50  1  0  0  0  0 
 21 51  1  0  0  0  0 
 23 52  1  0  0  0  0 
 24 53  1  0  0  0  0 
 24 54  1  0  0  0  0 
 28 55  1  0  0  0  0 
 28 56  1  0  0  0  0 
 28 57  1  0  0  0  0 
 29 58  1  0  0  0  0 
 29 59  1  0  0  0  0 
 29 60  1  0  0  0  0 
M  END
> <cdk:Title>
dexloxiglumide

> <Conformer>
1

> <SuperDrugID>
SD000738

$$$$
