orciprenaline
  CDK     0628171801

 32 32  0  0  0  0  0  0  0  0999 V2000
    0.2322    0.5166   -0.3624 C   0  0  1  0  0  0  0  0  0  0  0  0
    1.2501    0.8515    0.7600 C   0  0  2  0  0  0  0  0  0  0  0  0
    0.9088   -0.0645   -1.4785 O   0  0  0  0  0  0  0  0  0  0  0  0
   -0.8676   -0.3776    0.1167 C   0  0  0  0  0  0  0  0  0  0  0  0
    0.5600    1.4739    1.9132 N   0  0  1  0  0  0  0  0  0  0  0  0
   -2.0971    0.1745    0.5538 C   0  0  0  0  0  0  0  0  0  0  0  0
   -0.6994   -1.7825    0.1842 C   0  0  0  0  0  0  0  0  0  0  0  0
    1.3969    1.8951    3.0648 C   0  0  1  0  0  0  0  0  0  0  0  0
   -3.1168   -0.6483    1.0682 C   0  0  0  0  0  0  0  0  0  0  0  0
   -1.7273   -2.6101    0.6800 C   0  0  0  0  0  0  0  0  0  0  0  0
    0.4787    2.7295    3.9914 C   0  0  0  0  0  0  0  0  0  0  0  0
    2.0051    0.6881    3.8277 C   0  0  0  0  0  0  0  0  0  0  0  0
   -4.2715   -0.0986    1.5143 O   0  0  0  0  0  0  0  0  0  0  0  0
   -2.9315   -2.0408    1.1341 C   0  0  0  0  0  0  0  0  0  0  0  0
   -1.5622   -3.9540    0.7262 O   0  0  0  0  0  0  0  0  0  0  0  0
   -0.1901    1.4581   -0.7240 H   0  0  0  0  0  0  0  0  0  0  0  0
    1.9991    1.5487    0.3724 H   0  0  0  0  0  0  0  0  0  0  0  0
    1.7584   -0.0631    1.0708 H   0  0  0  0  0  0  0  0  0  0  0  0
    1.5755    0.5999   -1.7565 H   0  0  0  0  0  0  0  0  0  0  0  0
    0.1010    2.3171    1.5591 H   0  0  0  0  0  0  0  0  0  0  0  0
   -2.2507    1.1851    0.5160 H   0  0  0  0  0  0  0  0  0  0  0  0
    0.1746   -2.2120   -0.1272 H   0  0  0  0  0  0  0  0  0  0  0  0
    2.2063    2.5432    2.7131 H   0  0  0  0  0  0  0  0  0  0  0  0
    1.0348    3.0989    4.8554 H   0  0  0  0  0  0  0  0  0  0  0  0
   -0.3557    2.1198    4.3444 H   0  0  0  0  0  0  0  0  0  0  0  0
    0.0776    3.5885    3.4505 H   0  0  0  0  0  0  0  0  0  0  0  0
    2.4732    1.0134    4.7598 H   0  0  0  0  0  0  0  0  0  0  0  0
    2.7682    0.1972    3.2234 H   0  0  0  0  0  0  0  0  0  0  0  0
    1.2259   -0.0388    4.0622 H   0  0  0  0  0  0  0  0  0  0  0  0
   -4.1015    0.0922    2.4610 H   0  0  0  0  0  0  0  0  0  0  0  0
   -3.6694   -2.6392    1.5124 H   0  0  0  0  0  0  0  0  0  0  0  0
   -1.7583   -4.2615   -0.1842 H   0  0  0  0  0  0  0  0  0  0  0  0
  1  2  1  0  0  0  0 
  1  3  1  0  0  0  0 
  1  4  1  0  0  0  0 
  2  5  1  0  0  0  0 
  4  6  2  0  0  0  0 
  4  7  1  0  0  0  0 
  5  8  1  0  0  0  0 
  6  9  1  0  0  0  0 
  7 10  2  0  0  0  0 
  8 11  1  0  0  0  0 
  8 12  1  0  0  0  0 
  9 13  1  0  0  0  0 
  9 14  2  0  0  0  0 
 10 14  1  0  0  0  0 
 10 15  1  0  0  0  0 
  1 16  1  0  0  0  0 
  2 17  1  0  0  0  0 
  2 18  1  0  0  0  0 
  3 19  1  0  0  0  0 
  5 20  1  0  0  0  0 
  6 21  1  0  0  0  0 
  7 22  1  0  0  0  0 
  8 23  1  0  0  0  0 
 11 24  1  0  0  0  0 
 11 25  1  0  0  0  0 
 11 26  1  0  0  0  0 
 12 27  1  0  0  0  0 
 12 28  1  0  0  0  0 
 12 29  1  0  0  0  0 
 13 30  1  0  0  0  0 
 14 31  1  0  0  0  0 
 15 32  1  0  0  0  0 
M  END
> <cdk:Title>
orciprenaline

> <Conformer>
1

> <SuperDrugID>
SD001521

$$$$
