nifuroxazide
  CDK     0628171801

 29 30  0  0  0  0  0  0  0  0999 V2000
    0.7203   -0.2127    0.0373 C   0  0  0  0  0  0  0  0  0  0  0  0
   -0.2670   -0.2780    0.8530 N   0  0  0  0  0  0  0  0  0  0  0  0
    1.3149    0.9999   -0.2161 C   0  0  0  0  0  0  0  0  0  0  0  0
   -0.9411   -1.3223    1.1192 N   0  0  0  0  0  0  0  0  0  0  0  0
    0.9011    2.1899    0.2852 O   0  0  0  0  0  0  0  0  0  0  0  0
    2.4040    1.2337   -1.0511 C   0  0  0  0  0  0  0  0  0  0  0  0
   -2.1710   -1.5702    0.5879 C   0  0  0  0  0  0  0  0  0  0  0  0
    1.6820    3.1815   -0.2138 C   0  0  0  0  0  0  0  0  0  0  0  0
    2.6318    2.6013   -1.0548 C   0  0  0  0  0  0  0  0  0  0  0  0
   -2.6746   -0.7388   -0.2055 O   0  0  0  0  0  0  0  0  0  0  0  0
   -2.9114   -2.7318    0.9345 C   0  0  0  0  0  0  0  0  0  0  0  0
    1.5260    4.4656    0.0680 N   0  0  0  0  0  0  0  0  0  0  0  0
   -2.2556   -3.9454    1.2540 C   0  0  0  0  0  0  0  0  0  0  0  0
   -4.3292   -2.7080    0.9659 C   0  0  0  0  0  0  0  0  0  0  0  0
    2.2706    5.3641   -0.4305 O   0  0  0  0  0  0  0  0  0  0  0  0
    0.6775    4.8128    0.7899 O   0  0  0  0  0  0  0  0  0  0  0  0
   -2.9902   -5.0896    1.6127 C   0  0  0  0  0  0  0  0  0  0  0  0
   -5.0632   -3.8505    1.3362 C   0  0  0  0  0  0  0  0  0  0  0  0
   -4.3955   -5.0432    1.6656 C   0  0  0  0  0  0  0  0  0  0  0  0
   -5.1127   -6.1352    2.0272 O   0  0  0  0  0  0  0  0  0  0  0  0
    1.0464   -1.0278   -0.4295 H   0  0  0  0  0  0  0  0  0  0  0  0
   -0.5796   -1.9503    1.7605 H   0  0  0  0  0  0  0  0  0  0  0  0
    2.9344    0.5352   -1.5745 H   0  0  0  0  0  0  0  0  0  0  0  0
    3.3613    3.0881   -1.5808 H   0  0  0  0  0  0  0  0  0  0  0  0
   -1.2365   -4.0152    1.2180 H   0  0  0  0  0  0  0  0  0  0  0  0
   -4.8437   -1.8556    0.7293 H   0  0  0  0  0  0  0  0  0  0  0  0
   -2.4957   -5.9563    1.8326 H   0  0  0  0  0  0  0  0  0  0  0  0
   -6.0838   -3.8113    1.3666 H   0  0  0  0  0  0  0  0  0  0  0  0
   -4.4519   -6.8126    2.2809 H   0  0  0  0  0  0  0  0  0  0  0  0
  1  2  2  0  0  0  0 
  1  3  1  0  0  0  0 
  2  4  1  0  0  0  0 
  3  5  1  0  0  0  0 
  3  6  2  0  0  0  0 
  4  7  1  0  0  0  0 
  5  8  1  0  0  0  0 
  6  9  1  0  0  0  0 
  7 10  2  0  0  0  0 
  7 11  1  0  0  0  0 
  8  9  2  0  0  0  0 
  8 12  1  0  0  0  0 
 11 13  2  0  0  0  0 
 11 14  1  0  0  0  0 
 12 15  1  0  0  0  0 
 12 16  2  0  0  0  0 
 13 17  1  0  0  0  0 
 14 18  2  0  0  0  0 
 17 19  2  0  0  0  0 
 18 19  1  0  0  0  0 
 19 20  1  0  0  0  0 
 21  1  1  0  0  0  0 
 22  4  1  0  0  0  0 
 23  6  1  0  0  0  0 
 24  9  1  0  0  0  0 
 25 13  1  0  0  0  0 
 26 14  1  0  0  0  0 
 27 17  1  0  0  0  0 
 28 18  1  0  0  0  0 
 29 20  1  0  0  0  0 
M  CHG  1  12   1
M  CHG  1  15  -1
M  END
> <cdk:Title>
nifuroxazide

> <Conformer>
1

> <SuperDrugID>
SD001723

$$$$
