perisoxal
  CDK     0628171801

 40 42  0  0  0  0  0  0  0  0999 V2000
   -1.3552    1.7310    0.0503 C   0  0  1  0  0  0  0  0  0  0  0  0
   -0.5694    2.6890    0.9936 C   0  0  2  0  0  0  0  0  0  0  0  0
   -1.5033    0.4301    0.6235 O   0  0  0  0  0  0  0  0  0  0  0  0
   -2.6619    2.3224   -0.3131 C   0  0  0  0  0  0  0  0  0  0  0  0
   -1.3955    3.2527    2.1202 N   0  0  2  0  0  0  0  0  0  0  0  0
   -3.9241    1.8922    0.0708 C   0  0  0  0  0  0  0  0  0  0  0  0
   -2.8250    3.4380   -1.0447 N   0  0  0  0  0  0  0  0  0  0  0  0
   -0.9085    4.5830    2.6071 C   0  0  2  0  0  0  0  0  0  0  0  0
   -1.6713    2.2892    3.2376 C   0  0  1  0  0  0  0  0  0  0  0  0
   -4.8312    2.8101   -0.4461 C   0  0  0  0  0  0  0  0  0  0  0  0
   -4.0960    3.7269   -1.1246 O   0  0  0  0  0  0  0  0  0  0  0  0
   -1.8917    5.2132    3.6245 C   0  0  2  0  0  0  0  0  0  0  0  0
   -2.6293    2.8726    4.3083 C   0  0  1  0  0  0  0  0  0  0  0  0
   -6.2430    2.8438   -0.3039 C   0  0  0  0  0  0  0  0  0  0  0  0
   -2.1426    4.2512    4.8108 C   0  0  1  0  0  0  0  0  0  0  0  0
   -6.9670    3.9760   -0.7524 C   0  0  0  0  0  0  0  0  0  0  0  0
   -6.9660    1.7766    0.2871 C   0  0  0  0  0  0  0  0  0  0  0  0
   -8.3637    4.0474   -0.5982 C   0  0  0  0  0  0  0  0  0  0  0  0
   -8.3631    1.8496    0.4402 C   0  0  0  0  0  0  0  0  0  0  0  0
   -9.0621    2.9838   -0.0011 C   0  0  0  0  0  0  0  0  0  0  0  0
   -0.7800    1.5908   -0.8691 H   0  0  0  0  0  0  0  0  0  0  0  0
   -0.2000    3.5045    0.3621 H   0  0  0  0  0  0  0  0  0  0  0  0
    0.3177    2.1783    1.3802 H   0  0  0  0  0  0  0  0  0  0  0  0
   -0.5897    0.0966    0.7502 H   0  0  0  0  0  0  0  0  0  0  0  0
   -4.1325    1.0726    0.6425 H   0  0  0  0  0  0  0  0  0  0  0  0
   -0.8207    5.2783    1.7681 H   0  0  0  0  0  0  0  0  0  0  0  0
    0.0803    4.4833    3.0664 H   0  0  0  0  0  0  0  0  0  0  0  0
   -2.1524    1.3912    2.8500 H   0  0  0  0  0  0  0  0  0  0  0  0
   -0.7346    1.9887    3.7176 H   0  0  0  0  0  0  0  0  0  0  0  0
   -2.8404    5.4359    3.1248 H   0  0  0  0  0  0  0  0  0  0  0  0
   -1.4789    6.1532    3.9989 H   0  0  0  0  0  0  0  0  0  0  0  0
   -3.6329    2.9744    3.8850 H   0  0  0  0  0  0  0  0  0  0  0  0
   -2.6897    2.1847    5.1553 H   0  0  0  0  0  0  0  0  0  0  0  0
   -1.2150    4.1244    5.3767 H   0  0  0  0  0  0  0  0  0  0  0  0
   -2.8909    4.6777    5.4843 H   0  0  0  0  0  0  0  0  0  0  0  0
   -6.4858    4.7656   -1.1919 H   0  0  0  0  0  0  0  0  0  0  0  0
   -6.4894    0.9333    0.6108 H   0  0  0  0  0  0  0  0  0  0  0  0
   -8.8704    4.8748   -0.9185 H   0  0  0  0  0  0  0  0  0  0  0  0
   -8.8697    1.0748    0.8752 H   0  0  0  0  0  0  0  0  0  0  0  0
  -10.0763    3.0347    0.1119 H   0  0  0  0  0  0  0  0  0  0  0  0
  1  2  1  0  0  0  0 
  1  3  1  0  0  0  0 
  1  4  1  0  0  0  0 
  2  5  1  0  0  0  0 
  4  6  1  0  0  0  0 
  4  7  2  0  0  0  0 
  5  8  1  0  0  0  0 
  5  9  1  0  0  0  0 
  6 10  2  0  0  0  0 
  7 11  1  0  0  0  0 
  8 12  1  0  0  0  0 
  9 13  1  0  0  0  0 
 10 11  1  0  0  0  0 
 10 14  1  0  0  0  0 
 12 15  1  0  0  0  0 
 13 15  1  0  0  0  0 
 14 16  2  0  0  0  0 
 14 17  1  0  0  0  0 
 16 18  1  0  0  0  0 
 17 19  2  0  0  0  0 
 18 20  2  0  0  0  0 
 19 20  1  0  0  0  0 
  1 21  1  0  0  0  0 
  2 22  1  0  0  0  0 
  2 23  1  0  0  0  0 
  3 24  1  0  0  0  0 
  6 25  1  0  0  0  0 
  8 26  1  0  0  0  0 
  8 27  1  0  0  0  0 
  9 28  1  0  0  0  0 
  9 29  1  0  0  0  0 
 12 30  1  0  0  0  0 
 12 31  1  0  0  0  0 
 13 32  1  0  0  0  0 
 13 33  1  0  0  0  0 
 15 34  1  0  0  0  0 
 15 35  1  0  0  0  0 
 16 36  1  0  0  0  0 
 17 37  1  0  0  0  0 
 18 38  1  0  0  0  0 
 19 39  1  0  0  0  0 
 20 40  1  0  0  0  0 
M  END
> <cdk:Title>
perisoxal

> <Conformer>
1

> <SuperDrugID>
SD001891

$$$$
