testosterone propionate
  CDK     0628171801

 57 60  0  0  0  0  0  0  0  0999 V2000
   -3.7947    0.9812   -0.2178 C   0  0  0  0  0  0  0  0  0  0  0  0
   -2.5762    0.5473   -1.1078 C   0  0  1  0  0  0  0  0  0  0  0  0
   -2.9356    0.5763   -2.6652 C   0  0  2  0  0  0  0  0  0  0  0  0
   -1.4399    1.4725   -0.7876 C   0  0  0  0  0  0  0  0  0  0  0  0
   -2.1686   -0.9314   -0.7224 C   0  0  1  0  0  0  0  0  0  0  0  0
   -2.9510    2.0329   -3.2707 C   0  0  2  0  0  0  0  0  0  0  0  0
   -4.2162   -0.2453   -3.0841 C   0  0  1  0  0  0  0  0  0  0  0  0
   -1.3614    2.7879   -1.4415 C   0  0  2  0  0  0  0  0  0  0  0  0
   -0.5169    1.1766    0.1592 C   0  0  0  0  0  0  0  0  0  0  0  0
   -1.5153   -1.0595    0.6772 C   0  0  1  0  0  0  0  0  0  0  0  0
   -3.2509    1.9646   -4.8028 C   0  0  1  0  0  0  0  0  0  0  0  0
   -1.5946    2.7240   -2.9661 C   0  0  2  0  0  0  0  0  0  0  0  0
   -4.5806   -0.1626   -4.6007 C   0  0  1  0  0  0  0  0  0  0  0  0
   -0.5336    0.0161    0.9143 C   0  0  0  0  0  0  0  0  0  0  0  0
   -4.6370    1.3159   -5.1149 C   0  0  1  0  0  0  0  0  0  0  0  0
   -3.2373    3.2556   -5.6502 C   0  0  1  0  0  0  0  0  0  0  0  0
    0.2792   -0.1177    1.8601 O   0  0  0  0  0  0  0  0  0  0  0  0
   -5.8817    2.0594   -4.4880 C   0  0  0  0  0  0  0  0  0  0  0  0
   -4.6650    1.4700   -6.6697 C   0  0  2  0  0  0  0  0  0  0  0  0
   -4.0221    2.8651   -6.9305 C   0  0  2  0  0  0  0  0  0  0  0  0
   -5.9954    1.3654   -7.2074 O   0  0  0  0  0  0  0  0  0  0  0  0
   -6.3732    1.2323   -8.5115 C   0  0  0  0  0  0  0  0  0  0  0  0
   -5.5273    1.0770   -9.4240 O   0  0  0  0  0  0  0  0  0  0  0  0
   -7.8139    1.2766   -8.8318 C   0  0  1  0  0  0  0  0  0  0  0  0
   -8.6325    0.1834   -8.1083 C   0  0  0  0  0  0  0  0  0  0  0  0
   -4.5680    0.2121   -0.2100 H   0  0  0  0  0  0  0  0  0  0  0  0
   -4.2466    1.9051   -0.5776 H   0  0  0  0  0  0  0  0  0  0  0  0
   -3.4927    1.1435    0.8191 H   0  0  0  0  0  0  0  0  0  0  0  0
   -2.1082    0.0710   -3.1779 H   0  0  0  0  0  0  0  0  0  0  0  0
   -3.0307   -1.6011   -0.7564 H   0  0  0  0  0  0  0  0  0  0  0  0
   -1.4379   -1.3101   -1.4452 H   0  0  0  0  0  0  0  0  0  0  0  0
   -3.7275    2.6327   -2.7927 H   0  0  0  0  0  0  0  0  0  0  0  0
   -4.0738   -1.3018   -2.8460 H   0  0  0  0  0  0  0  0  0  0  0  0
   -5.0795    0.0927   -2.5125 H   0  0  0  0  0  0  0  0  0  0  0  0
   -0.3971    3.2838   -1.2854 H   0  0  0  0  0  0  0  0  0  0  0  0
   -2.1223    3.4324   -0.9933 H   0  0  0  0  0  0  0  0  0  0  0  0
    0.2122    1.8258    0.3575 H   0  0  0  0  0  0  0  0  0  0  0  0
   -2.2769   -1.0178    1.4604 H   0  0  0  0  0  0  0  0  0  0  0  0
   -1.0126   -2.0285    0.7448 H   0  0  0  0  0  0  0  0  0  0  0  0
   -2.4559    1.3351   -5.2307 H   0  0  0  0  0  0  0  0  0  0  0  0
   -1.5971    3.7447   -3.3585 H   0  0  0  0  0  0  0  0  0  0  0  0
   -0.7708    2.1818   -3.4426 H   0  0  0  0  0  0  0  0  0  0  0  0
   -3.8337   -0.7322   -5.1644 H   0  0  0  0  0  0  0  0  0  0  0  0
   -5.5442   -0.6507   -4.7731 H   0  0  0  0  0  0  0  0  0  0  0  0
   -3.7311    4.0752   -5.1179 H   0  0  0  0  0  0  0  0  0  0  0  0
   -2.2154    3.5622   -5.8908 H   0  0  0  0  0  0  0  0  0  0  0  0
   -5.8540    2.0843   -3.4014 H   0  0  0  0  0  0  0  0  0  0  0  0
   -5.9555    3.0905   -4.8334 H   0  0  0  0  0  0  0  0  0  0  0  0
   -6.8080    1.5555   -4.7710 H   0  0  0  0  0  0  0  0  0  0  0  0
   -4.0366    0.6954   -7.1272 H   0  0  0  0  0  0  0  0  0  0  0  0
   -3.3510    2.8199   -7.7928 H   0  0  0  0  0  0  0  0  0  0  0  0
   -4.7905    3.6172   -7.1308 H   0  0  0  0  0  0  0  0  0  0  0  0
   -8.1990    2.2570   -8.5403 H   0  0  0  0  0  0  0  0  0  0  0  0
   -7.9615    1.1696   -9.9101 H   0  0  0  0  0  0  0  0  0  0  0  0
   -9.6875    0.2917   -8.3666 H   0  0  0  0  0  0  0  0  0  0  0  0
   -8.2995   -0.8106   -8.4131 H   0  0  0  0  0  0  0  0  0  0  0  0
   -8.5351    0.2722   -7.0239 H   0  0  0  0  0  0  0  0  0  0  0  0
  2  1  1  0  0  0  0 
  3  2  1  0  0  0  0 
  2  4  1  0  0  0  0 
  2  5  1  0  0  0  0 
  3  6  1  0  0  0  0 
  3  7  1  0  0  0  0 
  4  8  1  0  0  0  0 
  4  9  2  0  0  0  0 
  5 10  1  0  0  0  0 
  6 11  1  0  0  0  0 
  6 12  1  0  0  0  0 
  7 13  1  0  0  0  0 
  8 12  1  0  0  0  0 
  9 14  1  0  0  0  0 
 10 14  1  0  0  0  0 
 11 15  1  0  0  0  0 
 11 16  1  0  0  0  0 
 15 13  1  0  0  0  0 
 14 17  2  0  0  0  0 
 15 18  1  0  0  0  0 
 15 19  1  0  0  0  0 
 16 20  1  0  0  0  0 
 19 20  1  0  0  0  0 
 19 21  1  0  0  0  0 
 21 22  1  0  0  0  0 
 22 23  2  0  0  0  0 
 22 24  1  0  0  0  0 
 24 25  1  0  0  0  0 
 26  1  1  0  0  0  0 
 27  1  1  0  0  0  0 
 28  1  1  0  0  0  0 
  3 29  1  0  0  0  0 
 30  5  1  0  0  0  0 
 31  5  1  0  0  0  0 
  6 32  1  0  0  0  0 
 33  7  1  0  0  0  0 
 34  7  1  0  0  0  0 
 35  8  1  0  0  0  0 
 36  8  1  0  0  0  0 
 37  9  1  0  0  0  0 
 38 10  1  0  0  0  0 
 39 10  1  0  0  0  0 
 11 40  1  0  0  0  0 
 41 12  1  0  0  0  0 
 42 12  1  0  0  0  0 
 43 13  1  0  0  0  0 
 44 13  1  0  0  0  0 
 45 16  1  0  0  0  0 
 46 16  1  0  0  0  0 
 47 18  1  0  0  0  0 
 48 18  1  0  0  0  0 
 49 18  1  0  0  0  0 
 19 50  1  0  0  0  0 
 51 20  1  0  0  0  0 
 52 20  1  0  0  0  0 
 53 24  1  0  0  0  0 
 54 24  1  0  0  0  0 
 55 25  1  0  0  0  0 
 56 25  1  0  0  0  0 
 57 25  1  0  0  0  0 
M  END
> <cdk:Title>
testosterone propionate

> <Conformer>
1

> <SuperDrugID>
SD003382

$$$$
