phytomenadione
  CDK     0628171801

 79 80  0  0  0  0  0  0  0  0999 V2000
   -9.7400   -6.8437    3.4350 C   0  0  0  0  0  0  0  0  0  0  0  0
   -8.4978   -6.0670    2.9123 C   0  0  1  0  0  0  0  0  0  0  0  0
   -7.9777   -5.0732    3.9916 C   0  0  0  0  0  0  0  0  0  0  0  0
   -7.3875   -7.0436    2.3974 C   0  0  1  0  0  0  0  0  0  0  0  0
   -6.2367   -6.3401    1.6234 C   0  0  2  0  0  0  0  0  0  0  0  0
   -5.2418   -7.3295    0.9493 C   0  0  2  0  0  0  0  0  0  0  0  0
   -4.0003   -6.6521    0.2706 C   0  0  1  0  0  0  0  0  0  0  0  0
   -2.9111   -7.7164   -0.0560 C   0  0  0  0  0  0  0  0  0  0  0  0
   -4.3797   -5.8077   -0.9953 C   0  0  1  0  0  0  0  0  0  0  0  0
   -3.2304   -4.9270   -1.5686 C   0  0  1  0  0  0  0  0  0  0  0  0
   -3.7388   -3.8803   -2.6048 C   0  0  2  0  0  0  0  0  0  0  0  0
   -2.6408   -2.9641   -3.2476 C   0  0  1  0  0  0  0  0  0  0  0  0
   -3.2496   -2.2042   -4.4669 C   0  0  0  0  0  0  0  0  0  0  0  0
   -1.9972   -1.9794   -2.2105 C   0  0  1  0  0  0  0  0  0  0  0  0
   -0.8231   -1.1187   -2.7549 C   0  0  1  0  0  0  0  0  0  0  0  0
   -0.1194   -0.2825   -1.6482 C   0  0  1  0  0  0  0  0  0  0  0  0
    1.0140    0.4784   -2.1969 C   0  0  0  0  0  0  0  0  0  0  0  0
    0.7688    1.8122   -2.7532 C   0  0  0  0  0  0  0  0  0  0  0  0
    2.2335   -0.1063   -2.2441 C   0  0  0  0  0  0  0  0  0  0  0  0
    3.4444    0.4918   -2.8014 C   0  0  1  0  0  0  0  0  0  0  0  0
    4.6614   -0.3219   -2.5643 C   0  0  0  0  0  0  0  0  0  0  0  0
    5.4016   -0.2118   -1.4194 C   0  0  0  0  0  0  0  0  0  0  0  0
    4.9926    0.7401   -0.3168 C   0  0  0  0  0  0  0  0  0  0  0  0
    6.5808   -0.9777   -1.2592 C   0  0  0  0  0  0  0  0  0  0  0  0
    7.3090   -0.8298   -0.2469 O   0  0  0  0  0  0  0  0  0  0  0  0
    6.9959   -1.9155   -2.2499 C   0  0  0  0  0  0  0  0  0  0  0  0
    8.1657   -2.7027   -2.1048 C   0  0  0  0  0  0  0  0  0  0  0  0
    8.5429   -3.6153   -3.1047 C   0  0  0  0  0  0  0  0  0  0  0  0
    7.7583   -3.7581   -4.2599 C   0  0  0  0  0  0  0  0  0  0  0  0
    6.5969   -2.9863   -4.4177 C   0  0  0  0  0  0  0  0  0  0  0  0
    6.2049   -2.0582   -3.4209 C   0  0  0  0  0  0  0  0  0  0  0  0
    5.0294   -1.2618   -3.5559 C   0  0  0  0  0  0  0  0  0  0  0  0
    4.3091   -1.4336   -4.5717 O   0  0  0  0  0  0  0  0  0  0  0  0
   -9.4779   -7.4679    4.2911 H   0  0  0  0  0  0  0  0  0  0  0  0
  -10.5253   -6.1477    3.7392 H   0  0  0  0  0  0  0  0  0  0  0  0
  -10.1501   -7.4823    2.6501 H   0  0  0  0  0  0  0  0  0  0  0  0
   -8.8430   -5.4741    2.0593 H   0  0  0  0  0  0  0  0  0  0  0  0
   -7.5144   -5.6102    4.8208 H   0  0  0  0  0  0  0  0  0  0  0  0
   -8.7961   -4.4678    4.3876 H   0  0  0  0  0  0  0  0  0  0  0  0
   -7.2409   -4.3909    3.5646 H   0  0  0  0  0  0  0  0  0  0  0  0
   -6.9701   -7.6022    3.2411 H   0  0  0  0  0  0  0  0  0  0  0  0
   -7.8490   -7.7686    1.7204 H   0  0  0  0  0  0  0  0  0  0  0  0
   -5.6801   -5.7048    2.3148 H   0  0  0  0  0  0  0  0  0  0  0  0
   -6.6878   -5.7037    0.8621 H   0  0  0  0  0  0  0  0  0  0  0  0
   -5.7771   -7.9322    0.2098 H   0  0  0  0  0  0  0  0  0  0  0  0
   -4.8884   -8.0090    1.7318 H   0  0  0  0  0  0  0  0  0  0  0  0
   -3.5652   -5.9721    1.0096 H   0  0  0  0  0  0  0  0  0  0  0  0
   -3.2320   -8.3596   -0.8766 H   0  0  0  0  0  0  0  0  0  0  0  0
   -2.7079   -8.3446    0.8137 H   0  0  0  0  0  0  0  0  0  0  0  0
   -1.9738   -7.2338   -0.3368 H   0  0  0  0  0  0  0  0  0  0  0  0
   -4.7493   -6.4697   -1.7838 H   0  0  0  0  0  0  0  0  0  0  0  0
   -5.1932   -5.1313   -0.7339 H   0  0  0  0  0  0  0  0  0  0  0  0
   -2.7524   -4.4096   -0.7369 H   0  0  0  0  0  0  0  0  0  0  0  0
   -2.4849   -5.5665   -2.0489 H   0  0  0  0  0  0  0  0  0  0  0  0
   -4.4919   -3.2407   -2.1322 H   0  0  0  0  0  0  0  0  0  0  0  0
   -4.2391   -4.4425   -3.4009 H   0  0  0  0  0  0  0  0  0  0  0  0
   -1.8502   -3.6165   -3.6337 H   0  0  0  0  0  0  0  0  0  0  0  0
   -3.9493   -1.4352   -4.1304 H   0  0  0  0  0  0  0  0  0  0  0  0
   -3.7865   -2.8897   -5.1276 H   0  0  0  0  0  0  0  0  0  0  0  0
   -2.4663   -1.7298   -5.0608 H   0  0  0  0  0  0  0  0  0  0  0  0
   -2.7668   -1.3116   -1.8136 H   0  0  0  0  0  0  0  0  0  0  0  0
   -1.6005   -2.5604   -1.3770 H   0  0  0  0  0  0  0  0  0  0  0  0
   -0.0903   -1.7851   -3.2195 H   0  0  0  0  0  0  0  0  0  0  0  0
   -1.1959   -0.4331   -3.5211 H   0  0  0  0  0  0  0  0  0  0  0  0
   -0.8468    0.3904   -1.1857 H   0  0  0  0  0  0  0  0  0  0  0  0
    0.2174   -0.9505   -0.8475 H   0  0  0  0  0  0  0  0  0  0  0  0
    0.8308    1.7637   -3.8429 H   0  0  0  0  0  0  0  0  0  0  0  0
    1.4990    2.5358   -2.3847 H   0  0  0  0  0  0  0  0  0  0  0  0
   -0.2188    2.1995   -2.4919 H   0  0  0  0  0  0  0  0  0  0  0  0
    2.3166   -1.0321   -1.8812 H   0  0  0  0  0  0  0  0  0  0  0  0
    3.2797    0.6524   -3.8702 H   0  0  0  0  0  0  0  0  0  0  0  0
    3.5895    1.4937   -2.4010 H   0  0  0  0  0  0  0  0  0  0  0  0
    3.9403    0.4352   -0.0505 H   0  0  0  0  0  0  0  0  0  0  0  0
    5.5275    0.4550    0.6367 H   0  0  0  0  0  0  0  0  0  0  0  0
    5.1051    1.9126   -0.5852 H   0  0  0  0  0  0  0  0  0  0  0  0
    8.7553   -2.6231   -1.2706 H   0  0  0  0  0  0  0  0  0  0  0  0
    9.3917   -4.1774   -2.9930 H   0  0  0  0  0  0  0  0  0  0  0  0
    8.0303   -4.4202   -4.9893 H   0  0  0  0  0  0  0  0  0  0  0  0
    6.0422   -3.1081   -5.2696 H   0  0  0  0  0  0  0  0  0  0  0  0
  1  2  1  0  0  0  0 
  2  3  1  0  0  0  0 
  2  4  1  0  0  0  0 
  4  5  1  0  0  0  0 
  5  6  1  0  0  0  0 
  7  6  1  0  0  0  0 
  7  8  1  0  0  0  0 
  7  9  1  0  0  0  0 
  9 10  1  0  0  0  0 
 10 11  1  0  0  0  0 
 12 11  1  0  0  0  0 
 12 13  1  0  0  0  0 
 12 14  1  0  0  0  0 
 14 15  1  0  0  0  0 
 15 16  1  0  0  0  0 
 16 17  1  0  0  0  0 
 17 18  1  0  0  0  0 
 17 19  2  0  0  0  0 
 19 20  1  0  0  0  0 
 20 21  1  0  0  0  0 
 21 22  2  0  0  0  0 
 22 23  1  0  0  0  0 
 22 24  1  0  0  0  0 
 24 25  2  0  0  0  0 
 24 26  1  0  0  0  0 
 26 27  2  0  0  0  0 
 27 28  1  0  0  0  0 
 28 29  2  0  0  0  0 
 29 30  1  0  0  0  0 
 30 31  2  0  0  0  0 
 26 31  1  0  0  0  0 
 31 32  1  0  0  0  0 
 21 32  1  0  0  0  0 
 32 33  2  0  0  0  0 
 34  1  1  0  0  0  0 
 35  1  1  0  0  0  0 
 36  1  1  0  0  0  0 
 37  2  1  0  0  0  0 
 38  3  1  0  0  0  0 
 39  3  1  0  0  0  0 
 40  3  1  0  0  0  0 
 41  4  1  0  0  0  0 
 42  4  1  0  0  0  0 
 43  5  1  0  0  0  0 
 44  5  1  0  0  0  0 
 45  6  1  0  0  0  0 
 46  6  1  0  0  0  0 
  7 47  1  0  0  0  0 
 48  8  1  0  0  0  0 
 49  8  1  0  0  0  0 
 50  8  1  0  0  0  0 
 51  9  1  0  0  0  0 
 52  9  1  0  0  0  0 
 53 10  1  0  0  0  0 
 54 10  1  0  0  0  0 
 55 11  1  0  0  0  0 
 56 11  1  0  0  0  0 
 12 57  1  0  0  0  0 
 58 13  1  0  0  0  0 
 59 13  1  0  0  0  0 
 60 13  1  0  0  0  0 
 61 14  1  0  0  0  0 
 62 14  1  0  0  0  0 
 63 15  1  0  0  0  0 
 64 15  1  0  0  0  0 
 65 16  1  0  0  0  0 
 66 16  1  0  0  0  0 
 67 18  1  0  0  0  0 
 68 18  1  0  0  0  0 
 69 18  1  0  0  0  0 
 19 70  1  0  0  0  0 
 71 20  1  0  0  0  0 
 72 20  1  0  0  0  0 
 73 23  1  0  0  0  0 
 74 23  1  0  0  0  0 
 75 23  1  0  0  0  0 
 76 27  1  0  0  0  0 
 77 28  1  0  0  0  0 
 78 29  1  0  0  0  0 
 79 30  1  0  0  0  0 
M  END
> <cdk:Title>
phytomenadione

> <Conformer>
1

> <SuperDrugID>
SD002562

$$$$
