tamoxifen
  CDK     0628171801

 57 59  0  0  0  0  0  0  0  0999 V2000
    5.7791    0.1766    1.4086 C   0  0  0  0  0  0  0  0  0  0  0  0
    4.4419    0.5530    1.1915 C   0  0  0  0  0  0  0  0  0  0  0  0
    6.5663    0.7994    2.3350 C   0  0  0  0  0  0  0  0  0  0  0  0
    6.2471   -0.8898    0.6330 C   0  0  0  0  0  0  0  0  0  0  0  0
    8.0112    0.5396    2.5007 C   0  0  1  0  0  0  0  0  0  0  0  0
    6.0225    1.7384    3.2266 C   0  0  0  0  0  0  0  0  0  0  0  0
    6.3077    3.1198    3.1051 C   0  0  0  0  0  0  0  0  0  0  0  0
    5.7382    4.0487    3.9969 C   0  0  0  0  0  0  0  0  0  0  0  0
    4.8728    3.6104    5.0158 C   0  0  0  0  0  0  0  0  0  0  0  0
    4.5823    2.2405    5.1484 C   0  0  0  0  0  0  0  0  0  0  0  0
    5.1585    1.3095    4.2642 C   0  0  0  0  0  0  0  0  0  0  0  0
    4.1314    1.8504    0.7143 C   0  0  0  0  0  0  0  0  0  0  0  0
    2.7959    2.2880    0.6295 C   0  0  0  0  0  0  0  0  0  0  0  0
    1.7404    1.4217    0.9822 C   0  0  0  0  0  0  0  0  0  0  0  0
    2.0383    0.1097    1.3972 C   0  0  0  0  0  0  0  0  0  0  0  0
    3.3733   -0.3245    1.4979 C   0  0  0  0  0  0  0  0  0  0  0  0
    6.5969   -0.7091   -0.7263 C   0  0  0  0  0  0  0  0  0  0  0  0
    7.1009   -1.7849   -1.4832 C   0  0  0  0  0  0  0  0  0  0  0  0
    7.2581   -3.0532   -0.8933 C   0  0  0  0  0  0  0  0  0  0  0  0
    6.9087   -3.2460    0.4548 C   0  0  0  0  0  0  0  0  0  0  0  0
    6.4036   -2.1731    1.2123 C   0  0  0  0  0  0  0  0  0  0  0  0
    8.3567   -0.2163    3.8074 C   0  0  0  0  0  0  0  0  0  0  0  0
    0.4313    1.8303    1.0055 O   0  0  0  0  0  0  0  0  0  0  0  0
   -0.1606    2.1327   -0.2747 C   0  0  1  0  0  0  0  0  0  0  0  0
   -1.6599    2.4618   -0.0443 C   0  0  1  0  0  0  0  0  0  0  0  0
   -2.4194    3.0090   -1.2118 N   0  0  1  0  0  0  0  0  0  0  0  0
   -2.1009    4.4146   -1.5898 C   0  0  0  0  0  0  0  0  0  0  0  0
   -2.5521    2.0924   -2.3773 C   0  0  0  0  0  0  0  0  0  0  0  0
    8.4258   -0.0338    1.6695 H   0  0  0  0  0  0  0  0  0  0  0  0
    8.5598    1.4861    2.4927 H   0  0  0  0  0  0  0  0  0  0  0  0
    6.9237    3.4618    2.3617 H   0  0  0  0  0  0  0  0  0  0  0  0
    5.9525    5.0443    3.9024 H   0  0  0  0  0  0  0  0  0  0  0  0
    4.4550    4.2862    5.6589 H   0  0  0  0  0  0  0  0  0  0  0  0
    3.9512    1.9203    5.8868 H   0  0  0  0  0  0  0  0  0  0  0  0
    4.9391    0.3156    4.3826 H   0  0  0  0  0  0  0  0  0  0  0  0
    4.8795    2.4967    0.4458 H   0  0  0  0  0  0  0  0  0  0  0  0
    2.5994    3.2441    0.3270 H   0  0  0  0  0  0  0  0  0  0  0  0
    1.2812   -0.5291    1.6496 H   0  0  0  0  0  0  0  0  0  0  0  0
    3.5583   -1.2770    1.8234 H   0  0  0  0  0  0  0  0  0  0  0  0
    6.4940    0.2063   -1.1735 H   0  0  0  0  0  0  0  0  0  0  0  0
    7.3536   -1.6458   -2.4643 H   0  0  0  0  0  0  0  0  0  0  0  0
    7.6237   -3.8343   -1.4437 H   0  0  0  0  0  0  0  0  0  0  0  0
    7.0205   -4.1674    0.8850 H   0  0  0  0  0  0  0  0  0  0  0  0
    6.1492   -2.3367    2.1916 H   0  0  0  0  0  0  0  0  0  0  0  0
    9.4199   -0.4669    3.8149 H   0  0  0  0  0  0  0  0  0  0  0  0
    8.1445    0.4067    4.6788 H   0  0  0  0  0  0  0  0  0  0  0  0
    7.7831   -1.1421    3.8859 H   0  0  0  0  0  0  0  0  0  0  0  0
    0.3377    2.9949   -0.7256 H   0  0  0  0  0  0  0  0  0  0  0  0
   -0.0778    1.2734   -0.9489 H   0  0  0  0  0  0  0  0  0  0  0  0
   -2.1599    1.5493    0.2903 H   0  0  0  0  0  0  0  0  0  0  0  0
   -1.7368    3.1746    0.7806 H   0  0  0  0  0  0  0  0  0  0  0  0
   -1.1271    4.4819   -2.0805 H   0  0  0  0  0  0  0  0  0  0  0  0
   -2.0978    5.0586   -0.7078 H   0  0  0  0  0  0  0  0  0  0  0  0
   -2.8635    4.7994   -2.2716 H   0  0  0  0  0  0  0  0  0  0  0  0
   -1.5998    1.9862   -2.9026 H   0  0  0  0  0  0  0  0  0  0  0  0
   -3.2962    2.4799   -3.0773 H   0  0  0  0  0  0  0  0  0  0  0  0
   -2.8897    1.1059   -2.0527 H   0  0  0  0  0  0  0  0  0  0  0  0
  1  2  1  0  0  0  0 
  1  3  2  0  0  0  0 
  1  4  1  0  0  0  0 
  3  5  1  0  0  0  0 
  3  6  1  0  0  0  0 
  7  8  1  0  0  0  0 
  8  9  2  0  0  0  0 
  9 10  1  0  0  0  0 
 10 11  2  0  0  0  0 
  6  7  2  0  0  0  0 
  6 11  1  0  0  0  0 
 12 13  1  0  0  0  0 
 13 14  2  0  0  0  0 
 14 15  1  0  0  0  0 
 15 16  2  0  0  0  0 
  2 12  2  0  0  0  0 
  2 16  1  0  0  0  0 
 17 18  1  0  0  0  0 
 18 19  2  0  0  0  0 
 19 20  1  0  0  0  0 
 20 21  2  0  0  0  0 
  4 17  2  0  0  0  0 
  4 21  1  0  0  0  0 
  5 22  1  0  0  0  0 
 14 23  1  0  0  0  0 
 23 24  1  0  0  0  0 
 24 25  1  0  0  0  0 
 25 26  1  0  0  0  0 
 26 27  1  0  0  0  0 
 26 28  1  0  0  0  0 
  5 29  1  0  0  0  0 
  5 30  1  0  0  0  0 
  7 31  1  0  0  0  0 
  8 32  1  0  0  0  0 
  9 33  1  0  0  0  0 
 10 34  1  0  0  0  0 
 11 35  1  0  0  0  0 
 12 36  1  0  0  0  0 
 13 37  1  0  0  0  0 
 15 38  1  0  0  0  0 
 16 39  1  0  0  0  0 
 17 40  1  0  0  0  0 
 18 41  1  0  0  0  0 
 19 42  1  0  0  0  0 
 20 43  1  0  0  0  0 
 21 44  1  0  0  0  0 
 22 45  1  0  0  0  0 
 22 46  1  0  0  0  0 
 22 47  1  0  0  0  0 
 24 48  1  0  0  0  0 
 24 49  1  0  0  0  0 
 25 50  1  0  0  0  0 
 25 51  1  0  0  0  0 
 27 52  1  0  0  0  0 
 27 53  1  0  0  0  0 
 27 54  1  0  0  0  0 
 28 55  1  0  0  0  0 
 28 56  1  0  0  0  0 
 28 57  1  0  0  0  0 
M  END
> <cdk:Title>
tamoxifen

> <Conformer>
1

> <SuperDrugID>
SD002305

$$$$
