nilotinib
  CDK     0628171801

 61 65  0  0  0  0  0  0  0  0999 V2000
   -0.1354    8.3078   -2.4411 C   0  0  1  0  0  0  0  0  0  0  0  0
   -1.4266    8.1156   -1.9045 F   0  0  0  0  0  0  0  0  0  0  0  0
   -0.3704    8.9542   -3.6684 F   0  0  0  0  0  0  0  0  0  0  0  0
    0.7484    9.0321   -1.5550 F   0  0  0  0  0  0  0  0  0  0  0  0
    0.4248    6.9539   -2.7809 C   0  0  0  0  0  0  0  0  0  0  0  0
    1.7317    6.5554   -2.4030 C   0  0  0  0  0  0  0  0  0  0  0  0
   -0.3695    6.0083   -3.4808 C   0  0  0  0  0  0  0  0  0  0  0  0
    2.2356    5.2633   -2.6793 C   0  0  0  0  0  0  0  0  0  0  0  0
    0.0935    4.7013   -3.7683 C   0  0  0  0  0  0  0  0  0  0  0  0
    1.3981    4.3539   -3.3642 C   0  0  0  0  0  0  0  0  0  0  0  0
    3.4951    4.8892   -2.2657 N   0  0  0  0  0  0  0  0  0  0  0  0
   -0.6443    3.6930   -4.3348 N   0  0  0  0  0  0  0  0  0  0  0  0
    4.6166    5.6451   -2.2537 C   0  0  0  0  0  0  0  0  0  0  0  0
    3.8584    3.6877   -1.7768 C   0  0  0  0  0  0  0  0  0  0  0  0
   -1.7962    3.7406   -5.0728 C   0  0  0  0  0  0  0  0  0  0  0  0
    5.6611    4.9604   -1.7558 N   0  0  0  0  0  0  0  0  0  0  0  0
    5.2071    3.7354   -1.4483 C   0  0  0  0  0  0  0  0  0  0  0  0
   -2.2327    4.8497   -5.4633 O   0  0  0  0  0  0  0  0  0  0  0  0
   -2.5174    2.5479   -5.4097 C   0  0  0  0  0  0  0  0  0  0  0  0
    5.9884    2.6344   -0.8679 C   0  0  0  0  0  0  0  0  0  0  0  0
   -2.0348    1.2522   -5.0893 C   0  0  0  0  0  0  0  0  0  0  0  0
   -3.7738    2.6258   -6.0570 C   0  0  0  0  0  0  0  0  0  0  0  0
   -2.7296    0.0688   -5.4442 C   0  0  0  0  0  0  0  0  0  0  0  0
   -4.5101    1.4696   -6.3576 C   0  0  0  0  0  0  0  0  0  0  0  0
   -2.2393   -1.1914   -5.1926 N   0  0  0  0  0  0  0  0  0  0  0  0
   -4.0061    0.1850   -6.0561 C   0  0  0  0  0  0  0  0  0  0  0  0
   -0.9454   -1.6097   -5.0813 C   0  0  0  0  0  0  0  0  0  0  0  0
   -4.8218   -1.0159   -6.3819 C   0  0  0  0  0  0  0  0  0  0  0  0
    0.1370   -0.8339   -5.3589 N   0  0  0  0  0  0  0  0  0  0  0  0
   -0.7225   -2.8834   -4.6677 N   0  0  0  0  0  0  0  0  0  0  0  0
    1.4301   -1.2436   -5.2198 C   0  0  0  0  0  0  0  0  0  0  0  0
    0.5301   -3.3829   -4.5190 C   0  0  0  0  0  0  0  0  0  0  0  0
    1.6466   -2.5773   -4.7980 C   0  0  0  0  0  0  0  0  0  0  0  0
    2.4774   -0.3048   -5.4688 C   0  0  0  0  0  0  0  0  0  0  0  0
    2.2788    0.7953   -6.3431 C   0  0  0  0  0  0  0  0  0  0  0  0
    3.7426   -0.3909   -4.8323 C   0  0  0  0  0  0  0  0  0  0  0  0
    3.2950    1.7422   -6.5646 C   0  0  0  0  0  0  0  0  0  0  0  0
    4.7050    0.5380   -5.0632 N   0  0  0  0  0  0  0  0  0  0  0  0
    4.5230    1.5858   -5.9025 C   0  0  0  0  0  0  0  0  0  0  0  0
    2.3315    7.2081   -1.8972 H   0  0  0  0  0  0  0  0  0  0  0  0
   -1.3176    6.2773   -3.7444 H   0  0  0  0  0  0  0  0  0  0  0  0
    1.7453    3.4118   -3.5696 H   0  0  0  0  0  0  0  0  0  0  0  0
   -0.2930    2.8066   -4.1671 H   0  0  0  0  0  0  0  0  0  0  0  0
    4.6833    6.6105   -2.5861 H   0  0  0  0  0  0  0  0  0  0  0  0
    3.2535    2.8723   -1.6524 H   0  0  0  0  0  0  0  0  0  0  0  0
    5.5275    2.3109    0.0671 H   0  0  0  0  0  0  0  0  0  0  0  0
    7.0120    2.9536   -0.6657 H   0  0  0  0  0  0  0  0  0  0  0  0
    6.0072    1.7968   -1.5664 H   0  0  0  0  0  0  0  0  0  0  0  0
   -1.1639    1.1597   -4.5713 H   0  0  0  0  0  0  0  0  0  0  0  0
   -4.1805    3.5311   -6.3081 H   0  0  0  0  0  0  0  0  0  0  0  0
   -5.4259    1.5764   -6.7992 H   0  0  0  0  0  0  0  0  0  0  0  0
   -2.9063   -1.8920   -5.1144 H   0  0  0  0  0  0  0  0  0  0  0  0
   -5.0578   -1.5519   -5.4602 H   0  0  0  0  0  0  0  0  0  0  0  0
   -5.7633   -0.7613   -6.8735 H   0  0  0  0  0  0  0  0  0  0  0  0
   -4.2643   -1.6786   -7.0478 H   0  0  0  0  0  0  0  0  0  0  0  0
    0.6566   -4.3430   -4.1963 H   0  0  0  0  0  0  0  0  0  0  0  0
    2.5836   -2.9712   -4.6891 H   0  0  0  0  0  0  0  0  0  0  0  0
    1.3906    0.9185   -6.8353 H   0  0  0  0  0  0  0  0  0  0  0  0
    3.9590   -1.1387   -4.1708 H   0  0  0  0  0  0  0  0  0  0  0  0
    3.1444    2.5320   -7.1969 H   0  0  0  0  0  0  0  0  0  0  0  0
    5.2795    2.2552   -6.0469 H   0  0  0  0  0  0  0  0  0  0  0  0
  1  2  1  0  0  0  0 
  1  3  1  0  0  0  0 
  1  4  1  0  0  0  0 
  1  5  1  0  0  0  0 
  5  6  2  0  0  0  0 
  5  7  1  0  0  0  0 
  6  8  1  0  0  0  0 
  7  9  2  0  0  0  0 
  8 10  2  0  0  0  0 
  8 11  1  0  0  0  0 
  9 10  1  0  0  0  0 
  9 12  1  0  0  0  0 
 11 13  1  0  0  0  0 
 11 14  1  0  0  0  0 
 12 15  1  0  0  0  0 
 13 16  2  0  0  0  0 
 14 17  2  0  0  0  0 
 15 18  2  0  0  0  0 
 15 19  1  0  0  0  0 
 16 17  1  0  0  0  0 
 17 20  1  0  0  0  0 
 19 21  2  0  0  0  0 
 19 22  1  0  0  0  0 
 21 23  1  0  0  0  0 
 22 24  2  0  0  0  0 
 23 25  1  0  0  0  0 
 23 26  2  0  0  0  0 
 24 26  1  0  0  0  0 
 25 27  1  0  0  0  0 
 26 28  1  0  0  0  0 
 27 29  2  0  0  0  0 
 27 30  1  0  0  0  0 
 29 31  1  0  0  0  0 
 30 32  2  0  0  0  0 
 31 33  2  0  0  0  0 
 31 34  1  0  0  0  0 
 32 33  1  0  0  0  0 
 34 35  2  0  0  0  0 
 34 36  1  0  0  0  0 
 35 37  1  0  0  0  0 
 36 38  2  0  0  0  0 
 37 39  2  0  0  0  0 
 38 39  1  0  0  0  0 
  6 40  1  0  0  0  0 
  7 41  1  0  0  0  0 
 10 42  1  0  0  0  0 
 12 43  1  0  0  0  0 
 13 44  1  0  0  0  0 
 14 45  1  0  0  0  0 
 20 46  1  0  0  0  0 
 20 47  1  0  0  0  0 
 20 48  1  0  0  0  0 
 21 49  1  0  0  0  0 
 22 50  1  0  0  0  0 
 24 51  1  0  0  0  0 
 25 52  1  0  0  0  0 
 28 53  1  0  0  0  0 
 28 54  1  0  0  0  0 
 28 55  1  0  0  0  0 
 32 56  1  0  0  0  0 
 33 57  1  0  0  0  0 
 35 58  1  0  0  0  0 
 36 59  1  0  0  0  0 
 37 60  1  0  0  0  0 
 39 61  1  0  0  0  0 
M  END
> <cdk:Title>
nilotinib

> <Conformer>
1

> <SuperDrugID>
SD001727

$$$$
