pyridoxine
  CDK     0628171801

 23 23  0  0  0  0  0  0  0  0999 V2000
    5.3609    0.3086    2.2773 C   0  0  0  0  0  0  0  0  0  0  0  0
    4.0184    0.0612    1.7090 C   0  0  0  0  0  0  0  0  0  0  0  0
    3.8089   -0.1555    0.3282 C   0  0  0  0  0  0  0  0  0  0  0  0
    4.8930   -0.1743   -0.4921 O   0  0  0  0  0  0  0  0  0  0  0  0
    2.4916   -0.3642   -0.1715 C   0  0  0  0  0  0  0  0  0  0  0  0
    2.2787   -0.5574   -1.6382 C   0  0  2  0  0  0  0  0  0  0  0  0
    1.9191   -1.9071   -1.9102 O   0  0  0  0  0  0  0  0  0  0  0  0
    1.4011   -0.3888    0.7528 C   0  0  0  0  0  0  0  0  0  0  0  0
   -0.0139   -0.6379    0.3502 C   0  0  1  0  0  0  0  0  0  0  0  0
   -0.5195    0.4336   -0.4362 O   0  0  0  0  0  0  0  0  0  0  0  0
    1.6843   -0.1693    2.1214 C   0  0  0  0  0  0  0  0  0  0  0  0
    2.9514    0.0463    2.5428 N   0  0  0  0  0  0  0  0  0  0  0  0
    6.0224   -0.5288    2.0499 H   0  0  0  0  0  0  0  0  0  0  0  0
    5.3250    0.4296    3.3621 H   0  0  0  0  0  0  0  0  0  0  0  0
    5.7747    1.2210    1.8456 H   0  0  0  0  0  0  0  0  0  0  0  0
    4.9763   -1.1116   -0.7691 H   0  0  0  0  0  0  0  0  0  0  0  0
    3.1691   -0.3338   -2.2284 H   0  0  0  0  0  0  0  0  0  0  0  0
    1.4958    0.1077   -2.0053 H   0  0  0  0  0  0  0  0  0  0  0  0
    1.8245   -1.9516   -2.8854 H   0  0  0  0  0  0  0  0  0  0  0  0
   -0.0821   -1.5624   -0.2230 H   0  0  0  0  0  0  0  0  0  0  0  0
   -0.6785   -0.7454    1.2116 H   0  0  0  0  0  0  0  0  0  0  0  0
   -1.4248    0.1505   -0.6879 H   0  0  0  0  0  0  0  0  0  0  0  0
    0.9434   -0.1623    2.8240 H   0  0  0  0  0  0  0  0  0  0  0  0
  1  2  1  0  0  0  0 
  2  3  2  0  0  0  0 
  3  4  1  0  0  0  0 
  3  5  1  0  0  0  0 
  5  6  1  0  0  0  0 
  6  7  1  0  0  0  0 
  5  8  2  0  0  0  0 
  8  9  1  0  0  0  0 
  9 10  1  0  0  0  0 
  8 11  1  0  0  0  0 
 11 12  2  0  0  0  0 
  2 12  1  0  0  0  0 
  1 13  1  0  0  0  0 
  1 14  1  0  0  0  0 
  1 15  1  0  0  0  0 
  4 16  1  0  0  0  0 
  6 17  1  0  0  0  0 
  6 18  1  0  0  0  0 
  7 19  1  0  0  0  0 
  9 20  1  0  0  0  0 
  9 21  1  0  0  0  0 
 10 22  1  0  0  0  0 
 11 23  1  0  0  0  0 
M  END
> <cdk:Title>
pyridoxine

> <Conformer>
1

> <SuperDrugID>
SD002558

$$$$
