gemifloxacin
  CDK     0628171801

 48 51  0  0  0  0  0  0  0  0999 V2000
   -9.5944   -1.0320   -1.5132 O   0  0  0  0  0  0  0  0  0  0  0  0
   -9.1537    0.0950   -1.1804 C   0  0  0  0  0  0  0  0  0  0  0  0
   -7.8368    0.1872   -0.6716 C   0  0  0  0  0  0  0  0  0  0  0  0
   -9.9596    1.2549   -1.3169 C   0  0  0  0  0  0  0  0  0  0  0  0
   -7.3497    1.4547   -0.2573 C   0  0  0  0  0  0  0  0  0  0  0  0
   -6.9775   -0.9299   -0.5603 C   0  0  0  0  0  0  0  0  0  0  0  0
  -11.2777    1.2291   -1.8685 C   0  0  0  0  0  0  0  0  0  0  0  0
   -9.4047    2.4796   -0.8764 C   0  0  0  0  0  0  0  0  0  0  0  0
   -8.1484    2.5681   -0.3386 N   0  0  0  0  0  0  0  0  0  0  0  0
   -6.0730    1.5291    0.2161 N   0  0  0  0  0  0  0  0  0  0  0  0
   -5.6653   -0.7878   -0.0758 C   0  0  0  0  0  0  0  0  0  0  0  0
  -12.0416    2.3471   -1.9594 O   0  0  0  0  0  0  0  0  0  0  0  0
  -11.8103    0.1807   -2.2996 O   0  0  0  0  0  0  0  0  0  0  0  0
   -7.6785    3.8680    0.0862 C   0  0  1  0  0  0  0  0  0  0  0  0
   -5.2028    0.4872    0.3298 C   0  0  0  0  0  0  0  0  0  0  0  0
   -4.9303   -1.8625    0.0014 F   0  0  0  0  0  0  0  0  0  0  0  0
   -8.5484    4.6794    1.0707 C   0  0  2  0  0  0  0  0  0  0  0  0
   -7.2301    4.0674    1.5472 C   0  0  1  0  0  0  0  0  0  0  0  0
   -3.9505    0.7358    0.8538 N   0  0  0  0  0  0  0  0  0  0  0  0
   -2.7255    0.1548    0.3973 C   0  0  1  0  0  0  0  0  0  0  0  0
   -3.7242    1.7008    1.8830 C   0  0  2  0  0  0  0  0  0  0  0  0
   -1.7223    0.6926    1.2823 C   0  0  0  0  0  0  0  0  0  0  0  0
   -2.3043    1.3845    2.4096 C   0  0  1  0  0  0  0  0  0  0  0  0
   -0.4543    0.5303    1.1380 N   0  0  0  0  0  0  0  0  0  0  0  0
    0.0966   -0.0979    0.1685 O   0  0  0  0  0  0  0  0  0  0  0  0
    1.5253    0.0140    0.2390 C   0  0  0  0  0  0  0  0  0  0  0  0
   -1.5175    2.6238    2.9227 C   0  0  2  0  0  0  0  0  0  0  0  0
   -2.1953    3.2498    4.0634 N   0  0  1  0  0  0  0  0  0  0  0  0
   -7.3036   -1.8610   -0.8323 H   0  0  0  0  0  0  0  0  0  0  0  0
   -9.9682    3.3318   -0.9610 H   0  0  0  0  0  0  0  0  0  0  0  0
  -12.9329    2.3114   -2.3679 H   0  0  0  0  0  0  0  0  0  0  0  0
   -7.1261    4.4707   -0.6382 H   0  0  0  0  0  0  0  0  0  0  0  0
   -9.4522    4.1928    1.4474 H   0  0  0  0  0  0  0  0  0  0  0  0
   -8.5475    5.7626    0.9285 H   0  0  0  0  0  0  0  0  0  0  0  0
   -7.3252    3.2089    2.2145 H   0  0  0  0  0  0  0  0  0  0  0  0
   -6.4147    4.7756    1.7059 H   0  0  0  0  0  0  0  0  0  0  0  0
   -2.7164   -0.9301    0.4999 H   0  0  0  0  0  0  0  0  0  0  0  0
   -2.5274    0.4401   -0.6397 H   0  0  0  0  0  0  0  0  0  0  0  0
   -4.4605    1.6116    2.6861 H   0  0  0  0  0  0  0  0  0  0  0  0
   -3.7789    2.7055    1.4524 H   0  0  0  0  0  0  0  0  0  0  0  0
   -2.3827    0.6642    3.2322 H   0  0  0  0  0  0  0  0  0  0  0  0
    1.9150   -0.4357    1.1563 H   0  0  0  0  0  0  0  0  0  0  0  0
    1.9514   -0.5224   -0.6104 H   0  0  0  0  0  0  0  0  0  0  0  0
    1.8494    1.0569    0.1784 H   0  0  0  0  0  0  0  0  0  0  0  0
   -1.3987    3.3666    2.1310 H   0  0  0  0  0  0  0  0  0  0  0  0
   -0.5244    2.3170    3.2591 H   0  0  0  0  0  0  0  0  0  0  0  0
   -1.5761    3.9794    4.4221 H   0  0  0  0  0  0  0  0  0  0  0  0
   -3.0264    3.7196    3.6993 H   0  0  0  0  0  0  0  0  0  0  0  0
  1  2  2  0  0  0  0 
  2  3  1  0  0  0  0 
  2  4  1  0  0  0  0 
  3  5  1  0  0  0  0 
  3  6  2  0  0  0  0 
  4  7  1  0  0  0  0 
  4  8  2  0  0  0  0 
  5  9  1  0  0  0  0 
  5 10  2  0  0  0  0 
  6 11  1  0  0  0  0 
  7 12  1  0  0  0  0 
  7 13  2  0  0  0  0 
  8  9  1  0  0  0  0 
  9 14  1  0  0  0  0 
 10 15  1  0  0  0  0 
 11 15  2  0  0  0  0 
 11 16  1  0  0  0  0 
 14 17  1  0  0  0  0 
 14 18  1  0  0  0  0 
 15 19  1  0  0  0  0 
 17 18  1  0  0  0  0 
 19 20  1  0  0  0  0 
 19 21  1  0  0  0  0 
 20 22  1  0  0  0  0 
 23 21  1  0  0  0  0 
 23 22  1  0  0  0  0 
 22 24  2  0  0  0  0 
 24 25  1  0  0  0  0 
 25 26  1  0  0  0  0 
 23 27  1  0  0  0  0 
 27 28  1  0  0  0  0 
  6 29  1  0  0  0  0 
  8 30  1  0  0  0  0 
 12 31  1  0  0  0  0 
 14 32  1  0  0  0  0 
 17 33  1  0  0  0  0 
 17 34  1  0  0  0  0 
 18 35  1  0  0  0  0 
 18 36  1  0  0  0  0 
 20 37  1  0  0  0  0 
 20 38  1  0  0  0  0 
 21 39  1  0  0  0  0 
 21 40  1  0  0  0  0 
 23 41  1  0  0  0  0 
 26 42  1  0  0  0  0 
 26 43  1  0  0  0  0 
 26 44  1  0  0  0  0 
 27 45  1  0  0  0  0 
 27 46  1  0  0  0  0 
 28 47  1  0  0  0  0 
 28 48  1  0  0  0  0 
M  END
> <cdk:Title>
gemifloxacin

> <Conformer>
1

> <SuperDrugID>
SD001147

$$$$
