aliskiren
  CDK     0628171801

 92 92  0  0  0  0  0  0  0  0999 V2000
    0.1407   -5.3310    5.8286 C   0  0  0  0  0  0  0  0  0  0  0  0
   -0.3260   -5.9899    4.6755 C   0  0  0  0  0  0  0  0  0  0  0  0
    0.0653   -5.5242    3.4009 C   0  0  0  0  0  0  0  0  0  0  0  0
    0.8810   -4.3803    3.2953 C   0  0  0  0  0  0  0  0  0  0  0  0
    1.3857   -3.7297    4.4463 C   0  0  0  0  0  0  0  0  0  0  0  0
    0.9874   -4.2126    5.7162 C   0  0  0  0  0  0  0  0  0  0  0  0
   -1.1233   -7.0965    4.8094 O   0  0  0  0  0  0  0  0  0  0  0  0
    2.3026   -2.5608    4.3139 C   0  0  1  0  0  0  0  0  0  0  0  0
    3.6182   -2.8004    3.4827 C   0  0  1  0  0  0  0  0  0  0  0  0
    4.2404   -1.4375    2.9811 C   0  0  2  0  0  0  0  0  0  0  0  0
    4.6965   -3.7123    4.2064 C   0  0  1  0  0  0  0  0  0  0  0  0
    5.1950   -3.1678    5.5768 C   0  0  0  0  0  0  0  0  0  0  0  0
    4.3171   -5.2184    4.3395 C   0  0  0  0  0  0  0  0  0  0  0  0
   -0.3558   -6.1671    2.2661 O   0  0  0  0  0  0  0  0  0  0  0  0
    0.5391   -7.2207    1.8520 C   0  0  1  0  0  0  0  0  0  0  0  0
   -0.0492   -7.9386    0.6146 C   0  0  1  0  0  0  0  0  0  0  0  0
    0.8734   -9.0603    0.0822 C   0  0  1  0  0  0  0  0  0  0  0  0
    0.2562   -9.6802   -1.0621 O   0  0  0  0  0  0  0  0  0  0  0  0
    1.0376  -10.7343   -1.6514 C   0  0  0  0  0  0  0  0  0  0  0  0
   -2.5251   -6.8079    4.6612 C   0  0  0  0  0  0  0  0  0  0  0  0
    3.3512   -3.3443    2.5735 H   0  0  0  0  0  0  0  0  0  0  0  0
    3.7260   -0.8590    1.6102 C   0  0  1  0  0  0  0  0  0  0  0  0
    2.4554    0.0558    1.6665 C   0  0  2  0  0  0  0  0  0  0  0  0
    4.8276   -0.1055    0.9817 N   0  0  1  0  0  0  0  0  0  0  0  0
    2.0269    0.6500    0.2847 C   0  0  2  0  0  0  0  0  0  0  0  0
    2.6620    1.1457    2.5696 O   0  0  0  0  0  0  0  0  0  0  0  0
    0.6615    1.4275    0.3044 C   0  0  2  0  0  0  0  0  0  0  0  0
   -0.4580    0.4515    0.4877 C   0  0  0  0  0  0  0  0  0  0  0  0
    0.4009    2.3449   -0.9557 C   0  0  1  0  0  0  0  0  0  0  0  0
   -0.9808    3.0698   -0.8743 C   0  0  0  0  0  0  0  0  0  0  0  0
    1.5140    3.4125   -1.1936 C   0  0  0  0  0  0  0  0  0  0  0  0
   -1.2760    0.3451    1.5688 N   0  0  0  0  0  0  0  0  0  0  0  0
   -0.7108   -0.3543   -0.4374 O   0  0  0  0  0  0  0  0  0  0  0  0
   -1.1953    1.0576    2.8049 C   0  0  1  0  0  0  0  0  0  0  0  0
   -2.2737    0.5610    3.8331 C   0  0  2  0  0  0  0  0  0  0  0  0
   -2.1718   -0.9291    4.0062 C   0  0  0  0  0  0  0  0  0  0  0  0
   -3.1896   -1.7843    3.7748 N   0  0  0  0  0  0  0  0  0  0  0  0
   -1.0947   -1.4477    4.3816 O   0  0  0  0  0  0  0  0  0  0  0  0
   -3.6919    1.0114    3.3340 C   0  0  0  0  0  0  0  0  0  0  0  0
   -2.0099    1.2275    5.2224 C   0  0  0  0  0  0  0  0  0  0  0  0
   -0.1335   -5.6675    6.7547 H   0  0  0  0  0  0  0  0  0  0  0  0
    1.1141   -4.0328    2.3623 H   0  0  0  0  0  0  0  0  0  0  0  0
    1.3161   -3.7570    6.5706 H   0  0  0  0  0  0  0  0  0  0  0  0
    1.7082   -1.7842    3.8457 H   0  0  0  0  0  0  0  0  0  0  0  0
    2.5706   -2.1629    5.2949 H   0  0  0  0  0  0  0  0  0  0  0  0
    5.3156   -1.5939    2.8603 H   0  0  0  0  0  0  0  0  0  0  0  0
    4.1518   -0.6801    3.7610 H   0  0  0  0  0  0  0  0  0  0  0  0
    5.5770   -3.7238    3.5532 H   0  0  0  0  0  0  0  0  0  0  0  0
    5.4484   -2.1094    5.5089 H   0  0  0  0  0  0  0  0  0  0  0  0
    6.0930   -3.7046    5.8912 H   0  0  0  0  0  0  0  0  0  0  0  0
    4.4360   -3.2973    6.3496 H   0  0  0  0  0  0  0  0  0  0  0  0
    3.9451   -5.5811    3.3795 H   0  0  0  0  0  0  0  0  0  0  0  0
    5.2697   -5.8054    4.5441 H   0  0  0  0  0  0  0  0  0  0  0  0
    3.4708   -5.3305    5.0823 H   0  0  0  0  0  0  0  0  0  0  0  0
    1.5181   -6.8045    1.5918 H   0  0  0  0  0  0  0  0  0  0  0  0
    0.6690   -7.9568    2.6528 H   0  0  0  0  0  0  0  0  0  0  0  0
   -1.0186   -8.3700    0.8805 H   0  0  0  0  0  0  0  0  0  0  0  0
   -0.2096   -7.2054   -0.1801 H   0  0  0  0  0  0  0  0  0  0  0  0
    1.8394   -8.6281   -0.1966 H   0  0  0  0  0  0  0  0  0  0  0  0
    1.0292   -9.8013    0.8721 H   0  0  0  0  0  0  0  0  0  0  0  0
    0.4713  -11.1575   -2.4811 H   0  0  0  0  0  0  0  0  0  0  0  0
    1.2361  -11.5306   -0.9302 H   0  0  0  0  0  0  0  0  0  0  0  0
    1.9827  -10.3508   -2.0421 H   0  0  0  0  0  0  0  0  0  0  0  0
   -3.0809   -7.7318    4.8237 H   0  0  0  0  0  0  0  0  0  0  0  0
   -2.8639   -6.0737    5.3970 H   0  0  0  0  0  0  0  0  0  0  0  0
   -2.7531   -6.4486    3.6542 H   0  0  0  0  0  0  0  0  0  0  0  0
    3.5126   -1.6936    0.9378 H   0  0  0  0  0  0  0  0  0  0  0  0
    1.6185   -0.5358    2.0315 H   0  0  0  0  0  0  0  0  0  0  0  0
    5.6352   -0.7313    0.9478 H   0  0  0  0  0  0  0  0  0  0  0  0
    4.5600    0.0672    0.0102 H   0  0  0  0  0  0  0  0  0  0  0  0
    1.9791   -0.1526   -0.4578 H   0  0  0  0  0  0  0  0  0  0  0  0
    2.8220    1.3260   -0.0263 H   0  0  0  0  0  0  0  0  0  0  0  0
    2.7344    0.7439    3.4591 H   0  0  0  0  0  0  0  0  0  0  0  0
    0.6931    2.1031    1.1607 H   0  0  0  0  0  0  0  0  0  0  0  0
    0.3783    1.7091   -1.8472 H   0  0  0  0  0  0  0  0  0  0  0  0
   -1.1343    3.7211   -1.7376 H   0  0  0  0  0  0  0  0  0  0  0  0
   -1.0459    3.6756    0.0322 H   0  0  0  0  0  0  0  0  0  0  0  0
   -1.8017    2.3507   -0.8692 H   0  0  0  0  0  0  0  0  0  0  0  0
    1.2035    4.1521   -1.9353 H   0  0  0  0  0  0  0  0  0  0  0  0
    2.4212    2.9464   -1.5789 H   0  0  0  0  0  0  0  0  0  0  0  0
    1.7537    3.9375   -0.2666 H   0  0  0  0  0  0  0  0  0  0  0  0
   -1.9932   -0.3025    1.4952 H   0  0  0  0  0  0  0  0  0  0  0  0
   -0.1966    0.9104    3.2237 H   0  0  0  0  0  0  0  0  0  0  0  0
   -1.3291    2.1272    2.6135 H   0  0  0  0  0  0  0  0  0  0  0  0
   -3.0604   -2.7371    3.9074 H   0  0  0  0  0  0  0  0  0  0  0  0
   -4.0525   -1.4535    3.4778 H   0  0  0  0  0  0  0  0  0  0  0  0
   -3.7430    2.0973    3.2234 H   0  0  0  0  0  0  0  0  0  0  0  0
   -4.4703    0.7155    4.0410 H   0  0  0  0  0  0  0  0  0  0  0  0
   -3.9279    0.5685    2.3628 H   0  0  0  0  0  0  0  0  0  0  0  0
   -1.0206    0.9643    5.6023 H   0  0  0  0  0  0  0  0  0  0  0  0
   -2.0616    2.3155    5.1507 H   0  0  0  0  0  0  0  0  0  0  0  0
   -2.7491    0.9013    5.9570 H   0  0  0  0  0  0  0  0  0  0  0  0
  1  2  2  0  0  0  0 
  1  6  1  0  0  0  0 
  2  3  1  0  0  0  0 
  3  4  2  0  0  0  0 
  4  5  1  0  0  0  0 
  5  6  2  0  0  0  0 
  2  7  1  0  0  0  0 
  5  8  1  0  0  0  0 
  8  9  1  0  0  0  0 
  9 10  1  0  0  0  0 
  9 11  1  0  0  0  0 
 11 12  1  0  0  0  0 
 11 13  1  0  0  0  0 
  3 14  1  0  0  0  0 
 14 15  1  0  0  0  0 
 15 16  1  0  0  0  0 
 16 17  1  0  0  0  0 
 17 18  1  0  0  0  0 
 18 19  1  0  0  0  0 
  7 20  1  0  0  0  0 
  9 21  1  0  0  0  0 
 10 22  1  0  0  0  0 
 22 23  1  0  0  0  0 
 22 24  1  0  0  0  0 
 23 25  1  0  0  0  0 
 23 26  1  0  0  0  0 
 25 27  1  0  0  0  0 
 27 28  1  0  0  0  0 
 27 29  1  0  0  0  0 
 29 30  1  0  0  0  0 
 29 31  1  0  0  0  0 
 28 32  1  0  0  0  0 
 28 33  2  0  0  0  0 
 32 34  1  0  0  0  0 
 34 35  1  0  0  0  0 
 35 36  1  0  0  0  0 
 36 37  1  0  0  0  0 
 36 38  2  0  0  0  0 
 35 39  1  0  0  0  0 
 35 40  1  0  0  0  0 
  1 41  1  0  0  0  0 
  4 42  1  0  0  0  0 
  6 43  1  0  0  0  0 
  8 44  1  0  0  0  0 
  8 45  1  0  0  0  0 
 10 46  1  0  0  0  0 
 10 47  1  0  0  0  0 
 11 48  1  0  0  0  0 
 12 49  1  0  0  0  0 
 12 50  1  0  0  0  0 
 12 51  1  0  0  0  0 
 13 52  1  0  0  0  0 
 13 53  1  0  0  0  0 
 13 54  1  0  0  0  0 
 15 55  1  0  0  0  0 
 15 56  1  0  0  0  0 
 16 57  1  0  0  0  0 
 16 58  1  0  0  0  0 
 17 59  1  0  0  0  0 
 17 60  1  0  0  0  0 
 19 61  1  0  0  0  0 
 19 62  1  0  0  0  0 
 19 63  1  0  0  0  0 
 20 64  1  0  0  0  0 
 20 65  1  0  0  0  0 
 20 66  1  0  0  0  0 
 22 67  1  0  0  0  0 
 23 68  1  0  0  0  0 
 24 69  1  0  0  0  0 
 24 70  1  0  0  0  0 
 25 71  1  0  0  0  0 
 25 72  1  0  0  0  0 
 26 73  1  0  0  0  0 
 27 74  1  0  0  0  0 
 29 75  1  0  0  0  0 
 30 76  1  0  0  0  0 
 30 77  1  0  0  0  0 
 30 78  1  0  0  0  0 
 31 79  1  0  0  0  0 
 31 80  1  0  0  0  0 
 31 81  1  0  0  0  0 
 32 82  1  0  0  0  0 
 34 83  1  0  0  0  0 
 34 84  1  0  0  0  0 
 37 85  1  0  0  0  0 
 37 86  1  0  0  0  0 
 39 87  1  0  0  0  0 
 39 88  1  0  0  0  0 
 39 89  1  0  0  0  0 
 40 90  1  0  0  0  0 
 40 91  1  0  0  0  0 
 40 92  1  0  0  0  0 
M  END
> <cdk:Title>
aliskiren

> <Conformer>
1

> <SuperDrugID>
SD000089

$$$$
