avibactam
  CDK     0628171802

 28 29  0  0  0  0  0  0  0  0999 V2000
    1.3409   -0.4751    4.7690 C   0  0  1  0  0  0  0  0  0  0  0  0
    1.6020    0.1355    3.4891 N   0  0  1  0  0  0  0  0  0  0  0  0
    2.7840   -0.1841    2.7511 C   0  0  2  0  0  0  0  0  0  0  0  0
    2.0604   -1.3141    1.9943 C   0  0  1  0  0  0  0  0  0  0  0  0
    1.7976   -2.4818    3.0289 C   0  0  2  0  0  0  0  0  0  0  0  0
    1.1335   -2.0038    4.3883 C   0  0  1  0  0  0  0  0  0  0  0  0
    0.5979    0.3143    2.6057 C   0  0  0  0  0  0  0  0  0  0  0  0
    0.8760   -0.5804    1.6313 N   0  0  0  0  0  0  0  0  0  0  0  0
    0.1213   -0.8274    0.5895 O   0  0  0  0  0  0  0  0  0  0  0  0
   -0.4639    0.9620    2.7531 O   0  0  0  0  0  0  0  0  0  0  0  0
    2.3506   -0.2385    5.8351 C   0  0  0  0  0  0  0  0  0  0  0  0
    2.2123   -0.8220    7.0413 N   0  0  0  0  0  0  0  0  0  0  0  0
    3.3299    0.5263    5.6772 O   0  0  0  0  0  0  0  0  0  0  0  0
    0.5964    0.1356   -0.7495 S   0  0  2  0  0  0  0  0  0  0  0  0
    1.4086    1.5469   -0.2346 O   0  0  0  0  0  0  0  0  0  0  0  0
   -0.7126    0.5728   -1.5627 O   0  0  0  0  0  0  0  0  0  0  0  0
    1.5672   -0.7126   -1.6979 O   0  0  0  0  0  0  0  0  0  0  0  0
    2.6269   -1.6530    1.1234 H   0  0  0  0  0  0  0  0  0  0  0  0
    0.4045   -0.0786    5.1784 H   0  0  0  0  0  0  0  0  0  0  0  0
    3.6276   -0.5469    3.3429 H   0  0  0  0  0  0  0  0  0  0  0  0
    3.1221    0.6288    2.0959 H   0  0  0  0  0  0  0  0  0  0  0  0
    2.7586   -2.9507    3.2583 H   0  0  0  0  0  0  0  0  0  0  0  0
    1.1721   -3.2456    2.5610 H   0  0  0  0  0  0  0  0  0  0  0  0
    1.4656   -2.6592    5.1970 H   0  0  0  0  0  0  0  0  0  0  0  0
    0.0562   -2.1673    4.2913 H   0  0  0  0  0  0  0  0  0  0  0  0
    2.8673   -0.6636    7.7400 H   0  0  0  0  0  0  0  0  0  0  0  0
    1.4540   -1.4022    7.2169 H   0  0  0  0  0  0  0  0  0  0  0  0
    2.2362    1.5528   -0.7586 H   0  0  0  0  0  0  0  0  0  0  0  0
  1  2  1  0  0  0  0 
  1  6  1  0  0  0  0 
  2  3  1  0  0  0  0 
  3  4  1  0  0  0  0 
  4  5  1  0  0  0  0 
  5  6  1  0  0  0  0 
  2  7  1  0  0  0  0 
  4  8  1  0  0  0  0 
  7  8  1  0  0  0  0 
  8  9  1  0  0  0  0 
  7 10  2  0  0  0  0 
  1 11  1  0  0  0  0 
 11 12  1  0  0  0  0 
 11 13  2  0  0  0  0 
  9 14  1  0  0  0  0 
 14 15  1  0  0  0  0 
 14 16  2  0  0  0  0 
 14 17  2  0  0  0  0 
  4 18  1  0  0  0  0 
  1 19  1  0  0  0  0 
  3 20  1  0  0  0  0 
  3 21  1  0  0  0  0 
  5 22  1  0  0  0  0 
  5 23  1  0  0  0  0 
  6 24  1  0  0  0  0 
  6 25  1  0  0  0  0 
 12 26  1  0  0  0  0 
 12 27  1  0  0  0  0 
 15 28  1  0  0  0  0 
M  END
> <cdk:Title>
avibactam

> <Conformer>
1

> <SuperDrugID>
SD003861

$$$$
