heptaminol
  CDK     0628171801

 29 28  0  0  0  0  0  0  0  0999 V2000
    2.1641    4.2814   -2.3455 C   0  0  0  0  0  0  0  0  0  0  0  0
    0.8204    3.8417   -1.7148 C   0  0  2  0  0  0  0  0  0  0  0  0
    0.4339    4.8350   -0.7001 N   0  0  1  0  0  0  0  0  0  0  0  0
    0.9068    2.4152   -1.0982 C   0  0  1  0  0  0  0  0  0  0  0  0
   -0.4392    1.9060   -0.5086 C   0  0  1  0  0  0  0  0  0  0  0  0
   -0.3363    0.4861    0.1217 C   0  0  2  0  0  0  0  0  0  0  0  0
   -1.6634   -0.0852    0.7282 C   0  0  1  0  0  0  0  0  0  0  0  0
   -1.4387   -1.5391    1.2311 C   0  0  0  0  0  0  0  0  0  0  0  0
   -2.2061    0.7933    1.8934 C   0  0  0  0  0  0  0  0  0  0  0  0
   -2.6655   -0.1413   -0.2905 O   0  0  0  0  0  0  0  0  0  0  0  0
    2.4574    3.5872   -3.1344 H   0  0  0  0  0  0  0  0  0  0  0  0
    2.9517    4.3090   -1.5895 H   0  0  0  0  0  0  0  0  0  0  0  0
    2.0660    5.2762   -2.7826 H   0  0  0  0  0  0  0  0  0  0  0  0
    0.0561    3.8424   -2.4974 H   0  0  0  0  0  0  0  0  0  0  0  0
    0.3710    5.7366   -1.1765 H   0  0  0  0  0  0  0  0  0  0  0  0
   -0.5117    4.6012   -0.3927 H   0  0  0  0  0  0  0  0  0  0  0  0
    1.2301    1.7174   -1.8768 H   0  0  0  0  0  0  0  0  0  0  0  0
    1.6628    2.4156   -0.3080 H   0  0  0  0  0  0  0  0  0  0  0  0
   -0.7578    2.6107    0.2611 H   0  0  0  0  0  0  0  0  0  0  0  0
   -1.1948    1.8974   -1.2996 H   0  0  0  0  0  0  0  0  0  0  0  0
    0.4241    0.5119    0.9073 H   0  0  0  0  0  0  0  0  0  0  0  0
    0.0178   -0.2009   -0.6529 H   0  0  0  0  0  0  0  0  0  0  0  0
   -1.0911   -2.1753    0.4162 H   0  0  0  0  0  0  0  0  0  0  0  0
   -2.3689   -1.9610    1.6150 H   0  0  0  0  0  0  0  0  0  0  0  0
   -0.6941   -1.5571    2.0284 H   0  0  0  0  0  0  0  0  0  0  0  0
   -3.0627    0.3160    2.3734 H   0  0  0  0  0  0  0  0  0  0  0  0
   -1.4305    0.9473    2.6471 H   0  0  0  0  0  0  0  0  0  0  0  0
   -2.5355    1.7654    1.5267 H   0  0  0  0  0  0  0  0  0  0  0  0
   -2.3062   -0.7527   -0.9677 H   0  0  0  0  0  0  0  0  0  0  0  0
  2  1  1  0  0  0  0 
  2  3  1  0  0  0  0 
  2  4  1  0  0  0  0 
  4  5  1  0  0  0  0 
  5  6  1  0  0  0  0 
  6  7  1  0  0  0  0 
  7  8  1  0  0  0  0 
  7  9  1  0  0  0  0 
  7 10  1  0  0  0  0 
  1 11  1  0  0  0  0 
  1 12  1  0  0  0  0 
  1 13  1  0  0  0  0 
  2 14  1  0  0  0  0 
  3 15  1  0  0  0  0 
  3 16  1  0  0  0  0 
  4 17  1  0  0  0  0 
  4 18  1  0  0  0  0 
  5 19  1  0  0  0  0 
  5 20  1  0  0  0  0 
  6 21  1  0  0  0  0 
  6 22  1  0  0  0  0 
  8 23  1  0  0  0  0 
  8 24  1  0  0  0  0 
  8 25  1  0  0  0  0 
  9 26  1  0  0  0  0 
  9 27  1  0  0  0  0 
  9 28  1  0  0  0  0 
 10 29  1  0  0  0  0 
M  END
> <cdk:Title>
heptaminol

> <Conformer>
1

> <SuperDrugID>
SD001207

$$$$
