telmesteine
  CDK     0628171801

 24 24  0  0  0  0  0  0  0  0999 V2000
   -1.1399    1.6149   -1.0421 C   0  0  0  0  0  0  0  0  0  0  0  0
   -0.9432    1.1281    0.2226 O   0  0  0  0  0  0  0  0  0  0  0  0
   -0.4664    1.1150   -1.9774 O   0  0  0  0  0  0  0  0  0  0  0  0
   -2.0589    2.6210   -1.2878 N   0  0  0  0  0  0  0  0  0  0  0  0
   -0.0051    0.1165    0.6128 C   0  0  1  0  0  0  0  0  0  0  0  0
   -2.8217    3.2819   -0.2331 C   0  0  2  0  0  0  0  0  0  0  0  0
   -2.2490    3.0948   -2.6339 C   0  0  2  0  0  0  0  0  0  0  0  0
   -0.2230   -0.2613    2.0889 C   0  0  0  0  0  0  0  0  0  0  0  0
   -3.4883    2.3520    0.7077 C   0  0  0  0  0  0  0  0  0  0  0  0
   -3.8679    4.2770   -0.8173 C   0  0  1  0  0  0  0  0  0  0  0  0
   -3.2374    4.6109   -2.4835 S   0  0  0  0  0  0  0  0  0  0  0  0
   -3.2422    2.4168    2.0367 O   0  0  0  0  0  0  0  0  0  0  0  0
   -4.2873    1.4851    0.2882 O   0  0  0  0  0  0  0  0  0  0  0  0
   -0.1440   -0.7728   -0.0073 H   0  0  0  0  0  0  0  0  0  0  0  0
    1.0126    0.4896    0.4750 H   0  0  0  0  0  0  0  0  0  0  0  0
   -2.1049    3.8774    0.3389 H   0  0  0  0  0  0  0  0  0  0  0  0
   -2.7910    2.3521   -3.2214 H   0  0  0  0  0  0  0  0  0  0  0  0
   -1.3072    3.3470   -3.1266 H   0  0  0  0  0  0  0  0  0  0  0  0
    0.5285   -0.9899    2.4001 H   0  0  0  0  0  0  0  0  0  0  0  0
   -0.1440    0.6241    2.7228 H   0  0  0  0  0  0  0  0  0  0  0  0
   -1.2138   -0.7010    2.2194 H   0  0  0  0  0  0  0  0  0  0  0  0
   -4.8615    3.8355   -0.9229 H   0  0  0  0  0  0  0  0  0  0  0  0
   -3.9374    5.2015   -0.2382 H   0  0  0  0  0  0  0  0  0  0  0  0
   -3.7068    1.8133    2.6525 H   0  0  0  0  0  0  0  0  0  0  0  0
  1  2  1  0  0  0  0 
  1  3  2  0  0  0  0 
  1  4  1  0  0  0  0 
  2  5  1  0  0  0  0 
  6  4  1  0  0  0  0 
  4  7  1  0  0  0  0 
  5  8  1  0  0  0  0 
  6  9  1  0  0  0  0 
  6 10  1  0  0  0  0 
  7 11  1  0  0  0  0 
  9 12  1  0  0  0  0 
  9 13  2  0  0  0  0 
 10 11  1  0  0  0  0 
  5 14  1  0  0  0  0 
  5 15  1  0  0  0  0 
  6 16  1  0  0  0  0 
  7 17  1  0  0  0  0 
  7 18  1  0  0  0  0 
  8 19  1  0  0  0  0 
  8 20  1  0  0  0  0 
  8 21  1  0  0  0  0 
 10 22  1  0  0  0  0 
 10 23  1  0  0  0  0 
 12 24  1  0  0  0  0 
M  END
> <cdk:Title>
telmesteine

> <Conformer>
1

> <SuperDrugID>
SD002321

$$$$
