diethyl ether
  CDK     0628171801

 15 14  0  0  0  0  0  0  0  0999 V2000
    1.4068   -0.3734   -1.2592 O   0  0  0  0  0  0  0  0  0  0  0  0
    2.5043   -0.4219   -2.1932 C   0  0  2  0  0  0  0  0  0  0  0  0
    1.8110   -0.1130    0.1003 C   0  0  2  0  0  0  0  0  0  0  0  0
    1.9798   -0.7037   -3.6136 C   0  0  0  0  0  0  0  0  0  0  0  0
    0.5782   -0.0792    1.0228 C   0  0  0  0  0  0  0  0  0  0  0  0
    3.2041   -1.2160   -1.9173 H   0  0  0  0  0  0  0  0  0  0  0  0
    3.0384    0.5326   -2.2029 H   0  0  0  0  0  0  0  0  0  0  0  0
    2.3218    0.8518    0.1674 H   0  0  0  0  0  0  0  0  0  0  0  0
    2.4875   -0.8968    0.4530 H   0  0  0  0  0  0  0  0  0  0  0  0
    2.8141   -0.7395   -4.3168 H   0  0  0  0  0  0  0  0  0  0  0  0
    1.4580   -1.6612   -3.6412 H   0  0  0  0  0  0  0  0  0  0  0  0
    1.2926    0.0838   -3.9263 H   0  0  0  0  0  0  0  0  0  0  0  0
    0.8892    0.1182    2.0505 H   0  0  0  0  0  0  0  0  0  0  0  0
    0.0570   -1.0370    0.9932 H   0  0  0  0  0  0  0  0  0  0  0  0
   -0.1083    0.7080    0.7082 H   0  0  0  0  0  0  0  0  0  0  0  0
  1  2  1  0  0  0  0 
  1  3  1  0  0  0  0 
  2  4  1  0  0  0  0 
  3  5  1  0  0  0  0 
  2  6  1  0  0  0  0 
  2  7  1  0  0  0  0 
  3  8  1  0  0  0  0 
  3  9  1  0  0  0  0 
  4 10  1  0  0  0  0 
  4 11  1  0  0  0  0 
  4 12  1  0  0  0  0 
  5 13  1  0  0  0  0 
  5 14  1  0  0  0  0 
  5 15  1  0  0  0  0 
M  END
> <cdk:Title>
diethyl ether

> <Conformer>
1

> <SuperDrugID>
SD003556

$$$$
