lorpiprazole
  CDK     0628171802

 55 59  0  0  0  0  0  0  0  0999 V2000
    8.0075   -4.0060    4.1599 C   0  0  0  0  0  0  0  0  0  0  0  0
    6.6066   -4.1028    4.1039 C   0  0  0  0  0  0  0  0  0  0  0  0
    5.9525   -5.1822    4.7194 C   0  0  0  0  0  0  0  0  0  0  0  0
    6.6828   -6.1643    5.4291 C   0  0  0  0  0  0  0  0  0  0  0  0
    8.0875   -6.0152    5.5144 C   0  0  0  0  0  0  0  0  0  0  0  0
    8.7783   -4.9619    4.8658 C   0  0  0  0  0  0  0  0  0  0  0  0
    6.0249   -7.3275    6.0885 C   0  0  1  0  0  0  0  0  0  0  0  0
    4.6979   -7.4777    5.7625 F   0  0  0  0  0  0  0  0  0  0  0  0
    6.6468   -8.5002    5.7325 F   0  0  0  0  0  0  0  0  0  0  0  0
    6.1083   -7.1887    7.4516 F   0  0  0  0  0  0  0  0  0  0  0  0
   10.1626   -4.8980    4.8914 N   0  0  0  0  0  0  0  0  0  0  0  0
   11.7455   -3.4037    3.7913 C   0  0  2  0  0  0  0  0  0  0  0  0
   10.8824   -3.6539    5.0532 C   0  0  1  0  0  0  0  0  0  0  0  0
   10.9857   -6.0731    4.6893 C   0  0  1  0  0  0  0  0  0  0  0  0
   11.9000   -5.8564    3.4592 C   0  0  2  0  0  0  0  0  0  0  0  0
   12.6582   -4.5660    3.5470 N   0  0  1  0  0  0  0  0  0  0  0  0
   13.5972   -4.3861    2.3917 C   0  0  1  0  0  0  0  0  0  0  0  0
   14.6794   -3.2875    2.5661 C   0  0  1  0  0  0  0  0  0  0  0  0
   15.3899   -3.3406    3.8597 C   0  0  0  0  0  0  0  0  0  0  0  0
   15.9315   -4.4263    4.4561 N   0  0  0  0  0  0  0  0  0  0  0  0
   16.5033   -4.0814    5.5759 N   0  0  0  0  0  0  0  0  0  0  0  0
   16.3295   -2.7567    5.6937 C   0  0  0  0  0  0  0  0  0  0  0  0
   15.6528   -2.3037    4.6641 N   0  0  0  0  0  0  0  0  0  0  0  0
   16.7124   -1.7226    6.6547 C   0  0  2  0  0  0  0  0  0  0  0  0
   16.1267   -0.4471    5.9687 C   0  0  2  0  0  0  0  0  0  0  0  0
   15.4114   -0.9156    4.6569 C   0  0  2  0  0  0  0  0  0  0  0  0
   18.2383   -1.5039    6.7849 C   0  0  1  0  0  0  0  0  0  0  0  0
   18.5769   -0.4209    5.7446 C   0  0  1  0  0  0  0  0  0  0  0  0
   17.3400    0.4958    5.7465 C   0  0  1  0  0  0  0  0  0  0  0  0
   15.3956    0.0421    6.6233 H   0  0  0  0  0  0  0  0  0  0  0  0
   16.2501   -1.9217    7.6255 H   0  0  0  0  0  0  0  0  0  0  0  0
    8.4582   -3.2346    3.6627 H   0  0  0  0  0  0  0  0  0  0  0  0
    6.0615   -3.3887    3.6119 H   0  0  0  0  0  0  0  0  0  0  0  0
    4.9352   -5.2414    4.6405 H   0  0  0  0  0  0  0  0  0  0  0  0
    8.6216   -6.7004    6.0544 H   0  0  0  0  0  0  0  0  0  0  0  0
   12.3184   -2.4894    3.9444 H   0  0  0  0  0  0  0  0  0  0  0  0
   11.0872   -3.2481    2.9315 H   0  0  0  0  0  0  0  0  0  0  0  0
   10.2244   -2.7984    5.2225 H   0  0  0  0  0  0  0  0  0  0  0  0
   11.5347   -3.7260    5.9283 H   0  0  0  0  0  0  0  0  0  0  0  0
   11.5998   -6.2478    5.5792 H   0  0  0  0  0  0  0  0  0  0  0  0
   10.4000   -6.9797    4.5123 H   0  0  0  0  0  0  0  0  0  0  0  0
   11.2803   -5.8654    2.5566 H   0  0  0  0  0  0  0  0  0  0  0  0
   12.5947   -6.6996    3.4024 H   0  0  0  0  0  0  0  0  0  0  0  0
   14.1356   -5.3230    2.2146 H   0  0  0  0  0  0  0  0  0  0  0  0
   13.0265   -4.1718    1.4838 H   0  0  0  0  0  0  0  0  0  0  0  0
   15.4218   -3.3998    1.7725 H   0  0  0  0  0  0  0  0  0  0  0  0
   14.2258   -2.3021    2.4421 H   0  0  0  0  0  0  0  0  0  0  0  0
   14.3354   -0.7203    4.6938 H   0  0  0  0  0  0  0  0  0  0  0  0
   15.8389   -0.4727    3.7543 H   0  0  0  0  0  0  0  0  0  0  0  0
   18.4700   -1.1306    7.7884 H   0  0  0  0  0  0  0  0  0  0  0  0
   18.8090   -2.4199    6.6122 H   0  0  0  0  0  0  0  0  0  0  0  0
   19.4877    0.1254    6.0090 H   0  0  0  0  0  0  0  0  0  0  0  0
   18.7072   -0.8776    4.7591 H   0  0  0  0  0  0  0  0  0  0  0  0
   17.2682    1.0685    4.8190 H   0  0  0  0  0  0  0  0  0  0  0  0
   17.4160    1.2027    6.5789 H   0  0  0  0  0  0  0  0  0  0  0  0
  1  2  2  0  0  0  0 
  1  6  1  0  0  0  0 
  2  3  1  0  0  0  0 
  3  4  2  0  0  0  0 
  4  5  1  0  0  0  0 
  5  6  2  0  0  0  0 
  4  7  1  0  0  0  0 
  7  8  1  0  0  0  0 
  7  9  1  0  0  0  0 
  7 10  1  0  0  0  0 
  6 11  1  0  0  0  0 
 12 13  1  0  0  0  0 
 14 15  1  0  0  0  0 
 15 16  1  0  0  0  0 
 12 16  1  0  0  0  0 
 13 11  1  0  0  0  0 
 11 14  1  0  0  0  0 
 16 17  1  0  0  0  0 
 17 18  1  0  0  0  0 
 18 19  1  0  0  0  0 
 20 21  1  0  0  0  0 
 21 22  2  0  0  0  0 
 22 23  1  0  0  0  0 
 19 20  2  0  0  0  0 
 19 23  1  0  0  0  0 
 25 24  1  0  0  0  0 
 25 26  1  0  0  0  0 
 24 22  1  0  0  0  0 
 23 26  1  0  0  0  0 
 27 28  1  0  0  0  0 
 28 29  1  0  0  0  0 
 24 27  1  0  0  0  0 
 25 29  1  0  0  0  0 
 25 30  1  0  0  0  0 
 24 31  1  0  0  0  0 
  1 32  1  0  0  0  0 
  2 33  1  0  0  0  0 
  3 34  1  0  0  0  0 
  5 35  1  0  0  0  0 
 12 36  1  0  0  0  0 
 12 37  1  0  0  0  0 
 13 38  1  0  0  0  0 
 13 39  1  0  0  0  0 
 14 40  1  0  0  0  0 
 14 41  1  0  0  0  0 
 15 42  1  0  0  0  0 
 15 43  1  0  0  0  0 
 17 44  1  0  0  0  0 
 17 45  1  0  0  0  0 
 18 46  1  0  0  0  0 
 18 47  1  0  0  0  0 
 26 48  1  0  0  0  0 
 26 49  1  0  0  0  0 
 27 50  1  0  0  0  0 
 27 51  1  0  0  0  0 
 28 52  1  0  0  0  0 
 28 53  1  0  0  0  0 
 29 54  1  0  0  0  0 
 29 55  1  0  0  0  0 
M  END
> <cdk:Title>
lorpiprazole

> <Conformer>
1

> <SuperDrugID>
SD003908

$$$$
