eucatropine
  CDK     0628171801

 46 47  0  0  0  0  0  0  0  0999 V2000
    2.1864   -4.0818   -1.0330 O   0  0  0  0  0  0  0  0  0  0  0  0
    2.9688   -5.1920   -0.8610 C   0  0  0  0  0  0  0  0  0  0  0  0
    2.3324   -2.8106   -0.3769 C   0  0  2  0  0  0  0  0  0  0  0  0
    2.7278   -6.4048   -1.6725 C   0  0  2  0  0  0  0  0  0  0  0  0
    3.9179   -5.1876   -0.0419 O   0  0  0  0  0  0  0  0  0  0  0  0
    1.8857   -2.8680    1.1109 C   0  0  2  0  0  0  0  0  0  0  0  0
    1.4911   -1.7562   -1.1368 C   0  0  1  0  0  0  0  0  0  0  0  0
    1.6361   -6.2149   -2.5673 O   0  0  0  0  0  0  0  0  0  0  0  0
    2.4676   -7.6255   -0.8550 C   0  0  0  0  0  0  0  0  0  0  0  0
    1.9485   -1.4738    1.8351 C   0  0  2  0  0  0  0  0  0  0  0  0
    1.5761   -0.3596   -0.4494 C   0  0  2  0  0  0  0  0  0  0  0  0
    3.2217   -8.8093   -1.0551 C   0  0  0  0  0  0  0  0  0  0  0  0
    1.4529   -7.6372    0.1337 C   0  0  0  0  0  0  0  0  0  0  0  0
    3.4418   -1.0252    2.0380 C   0  0  0  0  0  0  0  0  0  0  0  0
    1.4002   -1.6590    3.2968 C   0  0  0  0  0  0  0  0  0  0  0  0
    1.1891   -0.4207    1.0192 N   0  0  1  0  0  0  0  0  0  0  0  0
    0.8568    0.7159   -1.3162 C   0  0  0  0  0  0  0  0  0  0  0  0
    2.9744   -9.9623   -0.2853 C   0  0  0  0  0  0  0  0  0  0  0  0
    1.2212   -8.7804    0.9224 C   0  0  0  0  0  0  0  0  0  0  0  0
   -0.2867   -0.2858    1.2703 C   0  0  0  0  0  0  0  0  0  0  0  0
    1.9816   -9.9446    0.7094 C   0  0  0  0  0  0  0  0  0  0  0  0
    3.3862   -2.5227   -0.4456 H   0  0  0  0  0  0  0  0  0  0  0  0
    3.6119   -6.5370   -2.2995 H   0  0  0  0  0  0  0  0  0  0  0  0
    2.5024   -3.5940    1.6485 H   0  0  0  0  0  0  0  0  0  0  0  0
    0.8577   -3.2421    1.1298 H   0  0  0  0  0  0  0  0  0  0  0  0
    1.8643   -1.6876   -2.1638 H   0  0  0  0  0  0  0  0  0  0  0  0
    0.4486   -2.0845   -1.1817 H   0  0  0  0  0  0  0  0  0  0  0  0
    1.6073   -7.0354   -3.1041 H   0  0  0  0  0  0  0  0  0  0  0  0
    2.6208   -0.0450   -0.4880 H   0  0  0  0  0  0  0  0  0  0  0  0
    3.9557   -8.8447   -1.7663 H   0  0  0  0  0  0  0  0  0  0  0  0
    0.8785   -6.8063    0.2934 H   0  0  0  0  0  0  0  0  0  0  0  0
    3.4859   -0.0856    2.5942 H   0  0  0  0  0  0  0  0  0  0  0  0
    4.0047   -1.7778    2.5995 H   0  0  0  0  0  0  0  0  0  0  0  0
    3.9671   -0.8737    1.0969 H   0  0  0  0  0  0  0  0  0  0  0  0
    1.3881   -0.7004    3.8201 H   0  0  0  0  0  0  0  0  0  0  0  0
    2.0172   -2.3492    3.8777 H   0  0  0  0  0  0  0  0  0  0  0  0
    0.3870   -2.0632    3.2971 H   0  0  0  0  0  0  0  0  0  0  0  0
    1.3411    0.8076   -2.2900 H   0  0  0  0  0  0  0  0  0  0  0  0
    0.9085    1.6866   -0.8227 H   0  0  0  0  0  0  0  0  0  0  0  0
   -0.1902    0.4578   -1.4879 H   0  0  0  0  0  0  0  0  0  0  0  0
    3.5192  -10.8150   -0.4462 H   0  0  0  0  0  0  0  0  0  0  0  0
    0.5022   -8.7647    1.6515 H   0  0  0  0  0  0  0  0  0  0  0  0
   -0.8229   -1.1541    0.8885 H   0  0  0  0  0  0  0  0  0  0  0  0
   -0.6951    0.6103    0.8055 H   0  0  0  0  0  0  0  0  0  0  0  0
   -0.5107   -0.1635    2.3281 H   0  0  0  0  0  0  0  0  0  0  0  0
    1.8126  -10.7764    1.2808 H   0  0  0  0  0  0  0  0  0  0  0  0
  1  2  1  0  0  0  0 
  1  3  1  0  0  0  0 
  2  4  1  0  0  0  0 
  2  5  2  0  0  0  0 
  3  6  1  0  0  0  0 
  3  7  1  0  0  0  0 
  4  8  1  0  0  0  0 
  4  9  1  0  0  0  0 
  6 10  1  0  0  0  0 
  7 11  1  0  0  0  0 
  9 12  2  0  0  0  0 
  9 13  1  0  0  0  0 
 10 14  1  0  0  0  0 
 10 15  1  0  0  0  0 
 10 16  1  0  0  0  0 
 11 16  1  0  0  0  0 
 11 17  1  0  0  0  0 
 12 18  1  0  0  0  0 
 13 19  2  0  0  0  0 
 16 20  1  0  0  0  0 
 18 21  2  0  0  0  0 
 19 21  1  0  0  0  0 
  3 22  1  0  0  0  0 
  4 23  1  0  0  0  0 
  6 24  1  0  0  0  0 
  6 25  1  0  0  0  0 
  7 26  1  0  0  0  0 
  7 27  1  0  0  0  0 
  8 28  1  0  0  0  0 
 11 29  1  0  0  0  0 
 12 30  1  0  0  0  0 
 13 31  1  0  0  0  0 
 14 32  1  0  0  0  0 
 14 33  1  0  0  0  0 
 14 34  1  0  0  0  0 
 15 35  1  0  0  0  0 
 15 36  1  0  0  0  0 
 15 37  1  0  0  0  0 
 17 38  1  0  0  0  0 
 17 39  1  0  0  0  0 
 17 40  1  0  0  0  0 
 18 41  1  0  0  0  0 
 19 42  1  0  0  0  0 
 20 43  1  0  0  0  0 
 20 44  1  0  0  0  0 
 20 45  1  0  0  0  0 
 21 46  1  0  0  0  0 
M  END
> <cdk:Title>
eucatropine

> <Conformer>
1

> <SuperDrugID>
SD002784

$$$$
