enalaprilat
  CDK     0628171801

 49 50  0  0  0  0  0  0  0  0999 V2000
   -3.2786    1.9897   -2.6690 C   0  0  0  0  0  0  0  0  0  0  0  0
   -3.7346    1.0092   -1.6350 C   0  0  1  0  0  0  0  0  0  0  0  0
   -2.0577    1.9469   -2.9580 O   0  0  0  0  0  0  0  0  0  0  0  0
   -4.0681    2.9321   -3.3207 N   0  0  0  0  0  0  0  0  0  0  0  0
   -2.7349   -0.0649   -1.3479 N   0  0  2  0  0  0  0  0  0  0  0  0
   -4.0290    1.6826   -0.2699 C   0  0  0  0  0  0  0  0  0  0  0  0
   -5.4652    3.2236   -3.0931 C   0  0  2  0  0  0  0  0  0  0  0  0
   -3.5157    3.7829   -4.3381 C   0  0  2  0  0  0  0  0  0  0  0  0
   -2.4619   -1.0879   -2.3945 C   0  0  1  0  0  0  0  0  0  0  0  0
   -6.3971    2.0893   -3.2754 C   0  0  0  0  0  0  0  0  0  0  0  0
   -5.8246    4.3727   -4.0717 C   0  0  2  0  0  0  0  0  0  0  0  0
   -4.4689    4.9802   -4.4424 C   0  0  1  0  0  0  0  0  0  0  0  0
   -1.2823   -2.0006   -1.9471 C   0  0  2  0  0  0  0  0  0  0  0  0
   -3.6639   -1.9016   -2.6910 C   0  0  0  0  0  0  0  0  0  0  0  0
   -7.3066    1.7875   -2.3204 O   0  0  0  0  0  0  0  0  0  0  0  0
   -6.3721    1.4025   -4.3213 O   0  0  0  0  0  0  0  0  0  0  0  0
    0.0531   -1.2747   -1.6101 C   0  0  2  0  0  0  0  0  0  0  0  0
   -4.1058   -2.0364   -3.9636 O   0  0  0  0  0  0  0  0  0  0  0  0
   -4.3017   -2.4678   -1.7740 O   0  0  0  0  0  0  0  0  0  0  0  0
    0.5781   -0.3404   -2.6478 C   0  0  0  0  0  0  0  0  0  0  0  0
    0.8162   -0.7751   -3.9748 C   0  0  0  0  0  0  0  0  0  0  0  0
    0.8919    1.0006   -2.3175 C   0  0  0  0  0  0  0  0  0  0  0  0
    1.3400    0.1039   -4.9412 C   0  0  0  0  0  0  0  0  0  0  0  0
    1.4191    1.8788   -3.2819 C   0  0  0  0  0  0  0  0  0  0  0  0
    1.6442    1.4316   -4.5947 C   0  0  0  0  0  0  0  0  0  0  0  0
   -4.6518    0.5276   -1.9735 H   0  0  0  0  0  0  0  0  0  0  0  0
   -3.0678   -0.5736   -0.5251 H   0  0  0  0  0  0  0  0  0  0  0  0
   -4.2861    0.9248    0.4745 H   0  0  0  0  0  0  0  0  0  0  0  0
   -3.1572    2.2346    0.0885 H   0  0  0  0  0  0  0  0  0  0  0  0
   -4.8739    2.3636   -0.3304 H   0  0  0  0  0  0  0  0  0  0  0  0
   -5.5720    3.6231   -2.0832 H   0  0  0  0  0  0  0  0  0  0  0  0
   -3.4729    3.2402   -5.2865 H   0  0  0  0  0  0  0  0  0  0  0  0
   -2.5136    4.1442   -4.0944 H   0  0  0  0  0  0  0  0  0  0  0  0
   -2.1573   -0.5903   -3.3172 H   0  0  0  0  0  0  0  0  0  0  0  0
   -6.4849    5.1160   -3.6090 H   0  0  0  0  0  0  0  0  0  0  0  0
   -6.3009    4.0042   -4.9870 H   0  0  0  0  0  0  0  0  0  0  0  0
   -4.1907    5.7497   -3.7154 H   0  0  0  0  0  0  0  0  0  0  0  0
   -4.4729    5.4119   -5.4483 H   0  0  0  0  0  0  0  0  0  0  0  0
   -1.0854   -2.7331   -2.7353 H   0  0  0  0  0  0  0  0  0  0  0  0
   -1.5878   -2.5572   -1.0552 H   0  0  0  0  0  0  0  0  0  0  0  0
   -7.9474    1.0589   -2.4605 H   0  0  0  0  0  0  0  0  0  0  0  0
    0.8185   -2.0330   -1.4297 H   0  0  0  0  0  0  0  0  0  0  0  0
   -0.0832   -0.7537   -0.6594 H   0  0  0  0  0  0  0  0  0  0  0  0
   -4.8951   -2.5870   -4.1534 H   0  0  0  0  0  0  0  0  0  0  0  0
    0.6153   -1.7391   -4.2490 H   0  0  0  0  0  0  0  0  0  0  0  0
    0.7458    1.3494   -1.3680 H   0  0  0  0  0  0  0  0  0  0  0  0
    1.5023   -0.2213   -5.8970 H   0  0  0  0  0  0  0  0  0  0  0  0
    1.6400    2.8441   -3.0286 H   0  0  0  0  0  0  0  0  0  0  0  0
    2.0288    2.0689   -5.2956 H   0  0  0  0  0  0  0  0  0  0  0  0
  2  1  1  0  0  0  0 
  1  3  2  0  0  0  0 
  1  4  1  0  0  0  0 
  2  5  1  0  0  0  0 
  2  6  1  0  0  0  0 
  7  4  1  0  0  0  0 
  4  8  1  0  0  0  0 
  9  5  1  0  0  0  0 
  7 10  1  0  0  0  0 
  7 11  1  0  0  0  0 
  8 12  1  0  0  0  0 
  9 13  1  0  0  0  0 
  9 14  1  0  0  0  0 
 10 15  1  0  0  0  0 
 10 16  2  0  0  0  0 
 11 12  1  0  0  0  0 
 13 17  1  0  0  0  0 
 14 18  1  0  0  0  0 
 14 19  2  0  0  0  0 
 17 20  1  0  0  0  0 
 20 21  2  0  0  0  0 
 20 22  1  0  0  0  0 
 21 23  1  0  0  0  0 
 22 24  2  0  0  0  0 
 23 25  2  0  0  0  0 
 24 25  1  0  0  0  0 
  2 26  1  0  0  0  0 
  5 27  1  0  0  0  0 
  6 28  1  0  0  0  0 
  6 29  1  0  0  0  0 
  6 30  1  0  0  0  0 
  7 31  1  0  0  0  0 
  8 32  1  0  0  0  0 
  8 33  1  0  0  0  0 
  9 34  1  0  0  0  0 
 11 35  1  0  0  0  0 
 11 36  1  0  0  0  0 
 12 37  1  0  0  0  0 
 12 38  1  0  0  0  0 
 13 39  1  0  0  0  0 
 13 40  1  0  0  0  0 
 15 41  1  0  0  0  0 
 17 42  1  0  0  0  0 
 17 43  1  0  0  0  0 
 18 44  1  0  0  0  0 
 21 45  1  0  0  0  0 
 22 46  1  0  0  0  0 
 23 47  1  0  0  0  0 
 24 48  1  0  0  0  0 
 25 49  1  0  0  0  0 
M  END
> <cdk:Title>
enalaprilat

> <Conformer>
1

> <SuperDrugID>
SD000894

$$$$
