quinfamide
  CDK     0628171801

 36 38  0  0  0  0  0  0  0  0999 V2000
   -0.0933    0.2145    3.0434 C   0  0  0  0  0  0  0  0  0  0  0  0
   -1.0485   -0.3396    4.0418 C   0  0  1  0  0  0  0  0  0  0  0  0
   -0.2288    1.4354    2.7800 O   0  0  0  0  0  0  0  0  0  0  0  0
    0.9400   -0.5045    2.4359 N   0  0  0  0  0  0  0  0  0  0  0  0
   -0.3504   -0.2472    5.6551 Cl  0  0  0  0  0  0  0  0  0  0  0  0
   -2.6046    0.4926    4.0861 Cl  0  0  0  0  0  0  0  0  0  0  0  0
    1.6366   -0.0140    1.3275 C   0  0  0  0  0  0  0  0  0  0  0  0
    1.4005   -1.7873    2.9421 C   0  0  1  0  0  0  0  0  0  0  0  0
    3.0256   -0.2929    1.1754 C   0  0  0  0  0  0  0  0  0  0  0  0
    0.9935    0.7191    0.2981 C   0  0  0  0  0  0  0  0  0  0  0  0
    2.8895   -1.6551    3.3398 C   0  0  1  0  0  0  0  0  0  0  0  0
    3.7322    0.2147    0.0610 C   0  0  0  0  0  0  0  0  0  0  0  0
    3.7458   -1.1741    2.1376 C   0  0  2  0  0  0  0  0  0  0  0  0
    1.7071    1.2207   -0.8030 C   0  0  0  0  0  0  0  0  0  0  0  0
    3.0875    0.9682   -0.9376 C   0  0  0  0  0  0  0  0  0  0  0  0
    3.8713    1.3757   -1.9865 O   0  0  0  0  0  0  0  0  0  0  0  0
    3.5813    1.9055   -3.2154 C   0  0  0  0  0  0  0  0  0  0  0  0
    2.4107    2.0982   -3.6153 O   0  0  0  0  0  0  0  0  0  0  0  0
    4.6368    2.1959   -4.0935 C   0  0  0  0  0  0  0  0  0  0  0  0
    5.9949    1.9860   -3.8568 C   0  0  0  0  0  0  0  0  0  0  0  0
    4.4905    2.7264   -5.3348 O   0  0  0  0  0  0  0  0  0  0  0  0
    6.6777    2.4039   -4.9872 C   0  0  0  0  0  0  0  0  0  0  0  0
    5.7213    2.8582   -5.8845 C   0  0  0  0  0  0  0  0  0  0  0  0
   -1.2785   -1.3793    3.8035 H   0  0  0  0  0  0  0  0  0  0  0  0
    0.8644   -2.1532    3.8171 H   0  0  0  0  0  0  0  0  0  0  0  0
    1.2937   -2.5481    2.1623 H   0  0  0  0  0  0  0  0  0  0  0  0
   -0.0150    0.8850    0.3312 H   0  0  0  0  0  0  0  0  0  0  0  0
    2.9770   -0.9386    4.1622 H   0  0  0  0  0  0  0  0  0  0  0  0
    3.2583   -2.6177    3.7032 H   0  0  0  0  0  0  0  0  0  0  0  0
    4.7314    0.0140   -0.0392 H   0  0  0  0  0  0  0  0  0  0  0  0
    4.6304   -0.6571    2.5188 H   0  0  0  0  0  0  0  0  0  0  0  0
    4.0849   -2.0555    1.5856 H   0  0  0  0  0  0  0  0  0  0  0  0
    1.2021    1.7671   -1.4988 H   0  0  0  0  0  0  0  0  0  0  0  0
    6.4168    1.5952   -3.0119 H   0  0  0  0  0  0  0  0  0  0  0  0
    7.6884    2.3825   -5.1323 H   0  0  0  0  0  0  0  0  0  0  0  0
    5.9132    3.2318   -6.8152 H   0  0  0  0  0  0  0  0  0  0  0  0
  1  2  1  0  0  0  0 
  1  3  2  0  0  0  0 
  1  4  1  0  0  0  0 
  2  5  1  0  0  0  0 
  2  6  1  0  0  0  0 
  4  7  1  0  0  0  0 
  4  8  1  0  0  0  0 
  7  9  2  0  0  0  0 
  7 10  1  0  0  0  0 
  8 11  1  0  0  0  0 
  9 12  1  0  0  0  0 
  9 13  1  0  0  0  0 
 10 14  2  0  0  0  0 
 11 13  1  0  0  0  0 
 12 15  2  0  0  0  0 
 14 15  1  0  0  0  0 
 15 16  1  0  0  0  0 
 16 17  1  0  0  0  0 
 17 18  2  0  0  0  0 
 17 19  1  0  0  0  0 
 19 20  2  0  0  0  0 
 19 21  1  0  0  0  0 
 20 22  1  0  0  0  0 
 21 23  1  0  0  0  0 
 22 23  2  0  0  0  0 
  2 24  1  0  0  0  0 
  8 25  1  0  0  0  0 
  8 26  1  0  0  0  0 
 10 27  1  0  0  0  0 
 11 28  1  0  0  0  0 
 11 29  1  0  0  0  0 
 12 30  1  0  0  0  0 
 13 31  1  0  0  0  0 
 13 32  1  0  0  0  0 
 14 33  1  0  0  0  0 
 20 34  1  0  0  0  0 
 22 35  1  0  0  0  0 
 23 36  1  0  0  0  0 
M  END
> <cdk:Title>
quinfamide

> <Conformer>
1

> <SuperDrugID>
SD002108

$$$$
