edatrexate
  CDK     0628171802

 59 61  0  0  0  0  0  0  0  0999 V2000
    8.1197    3.8461    1.6908 N   0  0  0  0  0  0  0  0  0  0  0  0
    8.6222    4.0359    2.9249 C   0  0  0  0  0  0  0  0  0  0  0  0
    7.9981    3.5049    4.0717 C   0  0  0  0  0  0  0  0  0  0  0  0
    9.7645    4.7586    3.0669 N   0  0  0  0  0  0  0  0  0  0  0  0
    8.6022    3.7499    5.3289 C   0  0  0  0  0  0  0  0  0  0  0  0
    6.8553    2.7717    4.0381 N   0  0  0  0  0  0  0  0  0  0  0  0
   10.3259    4.9845    4.2835 C   0  0  0  0  0  0  0  0  0  0  0  0
    8.0181    3.2479    6.4460 N   0  0  0  0  0  0  0  0  0  0  0  0
    9.7437    4.4790    5.4005 N   0  0  0  0  0  0  0  0  0  0  0  0
    6.2594    2.2640    5.1522 C   0  0  0  0  0  0  0  0  0  0  0  0
   11.4484    5.7108    4.3878 N   0  0  0  0  0  0  0  0  0  0  0  0
    6.8728    2.5186    6.4005 C   0  0  0  0  0  0  0  0  0  0  0  0
    5.0162    1.4632    5.0146 C   0  0  1  0  0  0  0  0  0  0  0  0
    3.7184    2.3173    4.8196 C   0  0  2  0  0  0  0  0  0  0  0  0
    2.4347    1.4506    4.5980 C   0  0  2  0  0  0  0  0  0  0  0  0
    3.8197    3.3161    3.7033 C   0  0  0  0  0  0  0  0  0  0  0  0
    2.0604    0.5213    5.7752 C   0  0  0  0  0  0  0  0  0  0  0  0
    4.1130    2.9149    2.3778 C   0  0  0  0  0  0  0  0  0  0  0  0
    3.5981    4.6900    3.9498 C   0  0  0  0  0  0  0  0  0  0  0  0
    4.1833    3.8564    1.3355 C   0  0  0  0  0  0  0  0  0  0  0  0
    3.6590    5.6293    2.9057 C   0  0  0  0  0  0  0  0  0  0  0  0
    3.9544    5.2332    1.5770 C   0  0  0  0  0  0  0  0  0  0  0  0
    4.0055    6.1930    0.5230 C   0  0  0  0  0  0  0  0  0  0  0  0
    4.6138    5.9147   -0.6703 N   0  0  0  0  0  0  0  0  0  0  0  0
    3.4742    7.3182    0.6879 O   0  0  0  0  0  0  0  0  0  0  0  0
    4.6722    6.7873   -1.8083 C   0  0  1  0  0  0  0  0  0  0  0  0
    5.7995    6.3347   -2.7851 C   0  0  2  0  0  0  0  0  0  0  0  0
    3.3492    6.7799   -2.4719 C   0  0  0  0  0  0  0  0  0  0  0  0
    7.2176    6.4149   -2.1548 C   0  0  2  0  0  0  0  0  0  0  0  0
    2.8542    5.6380   -3.0076 O   0  0  0  0  0  0  0  0  0  0  0  0
    2.6486    7.8163   -2.5278 O   0  0  0  0  0  0  0  0  0  0  0  0
    8.2790    5.9771   -3.0789 C   0  0  0  0  0  0  0  0  0  0  0  0
    8.9466    4.8233   -2.8420 O   0  0  0  0  0  0  0  0  0  0  0  0
    8.5821    6.6622   -4.0824 O   0  0  0  0  0  0  0  0  0  0  0  0
    7.3048    3.3336    1.5704 H   0  0  0  0  0  0  0  0  0  0  0  0
    8.5719    4.2191    0.9174 H   0  0  0  0  0  0  0  0  0  0  0  0
   11.8413    5.8727    5.2600 H   0  0  0  0  0  0  0  0  0  0  0  0
   11.8666    6.0784    3.5933 H   0  0  0  0  0  0  0  0  0  0  0  0
    6.4704    2.1655    7.2707 H   0  0  0  0  0  0  0  0  0  0  0  0
    5.1371    0.7673    4.1807 H   0  0  0  0  0  0  0  0  0  0  0  0
    4.9025    0.8484    5.9112 H   0  0  0  0  0  0  0  0  0  0  0  0
    3.5679    2.8535    5.7647 H   0  0  0  0  0  0  0  0  0  0  0  0
    2.5480    0.8374    3.6993 H   0  0  0  0  0  0  0  0  0  0  0  0
    1.5816    2.1174    4.4324 H   0  0  0  0  0  0  0  0  0  0  0  0
    1.0908    0.0592    5.5800 H   0  0  0  0  0  0  0  0  0  0  0  0
    1.9958    1.0886    6.7060 H   0  0  0  0  0  0  0  0  0  0  0  0
    2.7994   -0.2732    5.8879 H   0  0  0  0  0  0  0  0  0  0  0  0
    4.2769    1.9290    2.1571 H   0  0  0  0  0  0  0  0  0  0  0  0
    3.3812    5.0199    4.8943 H   0  0  0  0  0  0  0  0  0  0  0  0
    4.3921    3.5141    0.3943 H   0  0  0  0  0  0  0  0  0  0  0  0
    3.4837    6.6111    3.1335 H   0  0  0  0  0  0  0  0  0  0  0  0
    5.0288    5.0427   -0.7659 H   0  0  0  0  0  0  0  0  0  0  0  0
    4.9038    7.8068   -1.4758 H   0  0  0  0  0  0  0  0  0  0  0  0
    5.7701    6.9708   -3.6753 H   0  0  0  0  0  0  0  0  0  0  0  0
    5.6182    5.3023   -3.1045 H   0  0  0  0  0  0  0  0  0  0  0  0
    7.2484    5.7810   -1.2653 H   0  0  0  0  0  0  0  0  0  0  0  0
    7.4313    7.4392   -1.8428 H   0  0  0  0  0  0  0  0  0  0  0  0
    1.9770    5.6399   -3.4462 H   0  0  0  0  0  0  0  0  0  0  0  0
    9.6393    4.5137   -3.4603 H   0  0  0  0  0  0  0  0  0  0  0  0
  1  2  1  0  0  0  0 
  2  3  2  0  0  0  0 
  2  4  1  0  0  0  0 
  3  5  1  0  0  0  0 
  3  6  1  0  0  0  0 
  4  7  2  0  0  0  0 
  5  8  1  0  0  0  0 
  5  9  2  0  0  0  0 
  6 10  2  0  0  0  0 
  7  9  1  0  0  0  0 
  7 11  1  0  0  0  0 
  8 12  2  0  0  0  0 
 10 12  1  0  0  0  0 
 10 13  1  0  0  0  0 
 14 13  1  0  0  0  0 
 14 15  1  0  0  0  0 
 14 16  1  0  0  0  0 
 15 17  1  0  0  0  0 
 16 18  2  0  0  0  0 
 16 19  1  0  0  0  0 
 18 20  1  0  0  0  0 
 19 21  2  0  0  0  0 
 20 22  2  0  0  0  0 
 21 22  1  0  0  0  0 
 22 23  1  0  0  0  0 
 23 24  1  0  0  0  0 
 23 25  2  0  0  0  0 
 26 24  1  0  0  0  0 
 26 27  1  0  0  0  0 
 26 28  1  0  0  0  0 
 27 29  1  0  0  0  0 
 28 30  1  0  0  0  0 
 28 31  2  0  0  0  0 
 29 32  1  0  0  0  0 
 32 33  1  0  0  0  0 
 32 34  2  0  0  0  0 
  1 35  1  0  0  0  0 
  1 36  1  0  0  0  0 
 11 37  1  0  0  0  0 
 11 38  1  0  0  0  0 
 12 39  1  0  0  0  0 
 13 40  1  0  0  0  0 
 13 41  1  0  0  0  0 
 14 42  1  0  0  0  0 
 15 43  1  0  0  0  0 
 15 44  1  0  0  0  0 
 17 45  1  0  0  0  0 
 17 46  1  0  0  0  0 
 17 47  1  0  0  0  0 
 18 48  1  0  0  0  0 
 19 49  1  0  0  0  0 
 20 50  1  0  0  0  0 
 21 51  1  0  0  0  0 
 24 52  1  0  0  0  0 
 26 53  1  0  0  0  0 
 27 54  1  0  0  0  0 
 27 55  1  0  0  0  0 
 29 56  1  0  0  0  0 
 29 57  1  0  0  0  0 
 30 58  1  0  0  0  0 
 33 59  1  0  0  0  0 
M  END
> <cdk:Title>
edatrexate

> <Conformer>
1

> <SuperDrugID>
SD000874

$$$$
