nidroxyzone
  CDK     0628171801

 27 27  0  0  0  0  0  0  0  0999 V2000
   -1.0728    0.3278    0.8568 C   0  0  0  0  0  0  0  0  0  0  0  0
   -0.6003   -0.6021    0.1064 N   0  0  0  0  0  0  0  0  0  0  0  0
   -1.5569    1.4875    0.3032 C   0  0  0  0  0  0  0  0  0  0  0  0
   -0.1597   -1.7342    0.5174 N   0  0  0  0  0  0  0  0  0  0  0  0
   -1.6932    1.7263   -1.0258 O   0  0  0  0  0  0  0  0  0  0  0  0
   -2.0142    2.6024    1.0009 C   0  0  0  0  0  0  0  0  0  0  0  0
    1.2242   -1.9041    0.9186 C   0  0  1  0  0  0  0  0  0  0  0  0
   -1.0365   -2.7988    0.5494 C   0  0  0  0  0  0  0  0  0  0  0  0
   -2.2406    2.9577   -1.2007 C   0  0  0  0  0  0  0  0  0  0  0  0
   -2.4478    3.5208    0.0595 C   0  0  0  0  0  0  0  0  0  0  0  0
    2.1429   -0.6584    0.8670 C   0  0  1  0  0  0  0  0  0  0  0  0
   -2.3153   -2.6908    0.1333 N   0  0  0  0  0  0  0  0  0  0  0  0
   -0.6913   -3.9300    0.9633 O   0  0  0  0  0  0  0  0  0  0  0  0
   -2.5195    3.5040   -2.3760 N   0  0  0  0  0  0  0  0  0  0  0  0
    2.2809   -0.1822   -0.4672 O   0  0  0  0  0  0  0  0  0  0  0  0
   -3.0706    4.6440   -2.4773 O   0  0  0  0  0  0  0  0  0  0  0  0
   -2.2552    2.9483   -3.3671 O   0  0  0  0  0  0  0  0  0  0  0  0
   -1.0970    0.2097    1.8444 H   0  0  0  0  0  0  0  0  0  0  0  0
   -2.0356    2.7264    2.0157 H   0  0  0  0  0  0  0  0  0  0  0  0
    1.2398   -2.2697    1.9493 H   0  0  0  0  0  0  0  0  0  0  0  0
    1.6863   -2.6727    0.2905 H   0  0  0  0  0  0  0  0  0  0  0  0
   -2.8471    4.4400    0.2611 H   0  0  0  0  0  0  0  0  0  0  0  0
    1.7394    0.1373    1.4945 H   0  0  0  0  0  0  0  0  0  0  0  0
    3.1322   -0.9230    1.2458 H   0  0  0  0  0  0  0  0  0  0  0  0
   -2.6454   -1.8421   -0.2012 H   0  0  0  0  0  0  0  0  0  0  0  0
   -2.9059   -3.4601    0.1615 H   0  0  0  0  0  0  0  0  0  0  0  0
    2.8695    0.5997   -0.3943 H   0  0  0  0  0  0  0  0  0  0  0  0
  1  2  2  0  0  0  0 
  1  3  1  0  0  0  0 
  2  4  1  0  0  0  0 
  3  5  1  0  0  0  0 
  3  6  2  0  0  0  0 
  4  7  1  0  0  0  0 
  4  8  1  0  0  0  0 
  5  9  1  0  0  0  0 
  6 10  1  0  0  0  0 
  7 11  1  0  0  0  0 
  8 12  1  0  0  0  0 
  8 13  2  0  0  0  0 
  9 10  2  0  0  0  0 
  9 14  1  0  0  0  0 
 11 15  1  0  0  0  0 
 14 16  1  0  0  0  0 
 14 17  2  0  0  0  0 
 18  1  1  0  0  0  0 
 19  6  1  0  0  0  0 
 20  7  1  0  0  0  0 
 21  7  1  0  0  0  0 
 22 10  1  0  0  0  0 
 23 11  1  0  0  0  0 
 24 11  1  0  0  0  0 
 25 12  1  0  0  0  0 
 26 12  1  0  0  0  0 
 27 15  1  0  0  0  0 
M  CHG  1  14   1
M  CHG  1  16  -1
M  END
> <cdk:Title>
nidroxyzone

> <Conformer>
1

> <SuperDrugID>
SD003236

$$$$
