arterolane
  CDK     0628171802

 61 65  0  0  0  0  0  0  0  0999 V2000
   -0.2346    1.9543   -7.2615 C   0  0  2  0  0  0  0  0  0  0  0  0
   -1.5715    1.8606   -6.4848 C   0  0  2  0  0  0  0  0  0  0  0  0
   -2.8124    1.9554   -7.4245 C   0  0  1  0  0  0  0  0  0  0  0  0
   -2.7219    3.1709   -8.3891 C   0  0  2  0  0  0  0  0  0  0  0  0
   -1.3785    3.2120   -9.1634 C   0  0  1  0  0  0  0  0  0  0  0  0
   -0.1785    3.2241   -8.1693 C   0  0  2  0  0  0  0  0  0  0  0  0
   -2.9787    0.7610   -8.1907 O   0  0  0  0  0  0  0  0  0  0  0  0
   -3.7265   -0.0098   -7.4344 O   0  0  0  0  0  0  0  0  0  0  0  0
   -4.7017    0.8645   -6.8547 C   0  0  2  0  0  0  0  0  0  0  0  0
   -3.9935    2.0840   -6.6347 O   0  0  0  0  0  0  0  0  0  0  0  0
    1.1938    3.3786   -8.8953 C   0  0  1  0  0  0  0  0  0  0  0  0
    2.3152    3.5711   -7.9469 C   0  0  0  0  0  0  0  0  0  0  0  0
    2.2644    4.6214   -7.0707 N   0  0  0  0  0  0  0  0  0  0  0  0
    3.2504    2.7355   -7.9475 O   0  0  0  0  0  0  0  0  0  0  0  0
    3.1086    4.8960   -5.9348 C   0  0  2  0  0  0  0  0  0  0  0  0
    4.0073    3.7861   -5.5667 N   0  0  1  0  0  0  0  0  0  0  0  0
    2.1806    5.1517   -4.7101 C   0  0  0  0  0  0  0  0  0  0  0  0
    3.9878    6.1352   -6.2518 C   0  0  0  0  0  0  0  0  0  0  0  0
   -0.3105    4.1044   -7.5305 H   0  0  0  0  0  0  0  0  0  0  0  0
   -5.1940    0.2788   -5.4894 C   0  0  1  0  0  0  0  0  0  0  0  0
   -6.2016    1.2667   -4.8137 C   0  0  2  0  0  0  0  0  0  0  0  0
   -7.4338    1.4772   -5.7509 C   0  0  1  0  0  0  0  0  0  0  0  0
   -6.9542    2.0749   -7.1131 C   0  0  1  0  0  0  0  0  0  0  0  0
   -5.9435    1.0911   -7.7915 C   0  0  2  0  0  0  0  0  0  0  0  0
   -7.1317   -0.8787   -6.6839 C   0  0  1  0  0  0  0  0  0  0  0  0
   -8.1375    0.1037   -6.0012 C   0  0  2  0  0  0  0  0  0  0  0  0
   -6.6579   -0.2750   -8.0465 C   0  0  1  0  0  0  0  0  0  0  0  0
   -5.9028   -1.0917   -5.7413 C   0  0  1  0  0  0  0  0  0  0  0  0
   -4.3371    0.1297   -4.8255 H   0  0  0  0  0  0  0  0  0  0  0  0
   -5.6195    1.5132   -8.7474 H   0  0  0  0  0  0  0  0  0  0  0  0
   -0.1089    1.0566   -7.8731 H   0  0  0  0  0  0  0  0  0  0  0  0
    0.5818    1.9746   -6.5350 H   0  0  0  0  0  0  0  0  0  0  0  0
   -1.6117    2.6722   -5.7518 H   0  0  0  0  0  0  0  0  0  0  0  0
   -1.5951    0.9168   -5.9320 H   0  0  0  0  0  0  0  0  0  0  0  0
   -2.8225    4.0919   -7.8082 H   0  0  0  0  0  0  0  0  0  0  0  0
   -3.5523    3.1370   -9.1002 H   0  0  0  0  0  0  0  0  0  0  0  0
   -1.3113    2.3455   -9.8294 H   0  0  0  0  0  0  0  0  0  0  0  0
   -1.3620    4.1122   -9.7846 H   0  0  0  0  0  0  0  0  0  0  0  0
    1.3762    2.4942   -9.5128 H   0  0  0  0  0  0  0  0  0  0  0  0
    1.1701    4.2461   -9.5583 H   0  0  0  0  0  0  0  0  0  0  0  0
    1.5360    5.2499   -7.2061 H   0  0  0  0  0  0  0  0  0  0  0  0
    3.4247    2.9492   -5.4772 H   0  0  0  0  0  0  0  0  0  0  0  0
    4.6400    3.6297   -6.3545 H   0  0  0  0  0  0  0  0  0  0  0  0
    1.5584    4.2146   -4.5664 H   0  0  0  0  0  0  0  0  0  0  0  0
    2.8379    5.1918   -3.7862 H   0  0  0  0  0  0  0  0  0  0  0  0
    1.5632    6.1243   -4.9331 H   0  0  0  0  0  0  0  0  0  0  0  0
    4.6320    5.9292   -7.1098 H   0  0  0  0  0  0  0  0  0  0  0  0
    4.6221    6.3848   -5.3984 H   0  0  0  0  0  0  0  0  0  0  0  0
    3.3709    7.0046   -6.4893 H   0  0  0  0  0  0  0  0  0  0  0  0
   -5.7171    2.2266   -4.6125 H   0  0  0  0  0  0  0  0  0  0  0  0
   -6.5280    0.8671   -3.8496 H   0  0  0  0  0  0  0  0  0  0  0  0
   -8.1398    2.1661   -5.2768 H   0  0  0  0  0  0  0  0  0  0  0  0
   -7.8134    2.2417   -7.7693 H   0  0  0  0  0  0  0  0  0  0  0  0
   -6.4843    3.0489   -6.9500 H   0  0  0  0  0  0  0  0  0  0  0  0
   -7.6239   -1.8391   -6.8638 H   0  0  0  0  0  0  0  0  0  0  0  0
   -9.0180    0.2415   -6.6357 H   0  0  0  0  0  0  0  0  0  0  0  0
   -8.4871   -0.3173   -5.0535 H   0  0  0  0  0  0  0  0  0  0  0  0
   -7.5154   -0.1294   -8.7100 H   0  0  0  0  0  0  0  0  0  0  0  0
   -5.9781   -0.9683   -8.5496 H   0  0  0  0  0  0  0  0  0  0  0  0
   -5.2046   -1.8026   -6.1921 H   0  0  0  0  0  0  0  0  0  0  0  0
   -6.2284   -1.5224   -4.7906 H   0  0  0  0  0  0  0  0  0  0  0  0
  1  2  1  0  0  0  0 
  1  6  1  0  0  0  0 
  2  3  1  0  0  0  0 
  3  4  1  0  0  0  0 
  4  5  1  0  0  0  0 
  5  6  1  0  0  0  0 
  7  8  1  0  0  0  0 
  8  9  1  0  0  0  0 
  9 10  1  0  0  0  0 
  3 10  1  0  0  0  0 
  3  7  1  0  0  0  0 
  6 11  1  0  0  0  0 
 11 12  1  0  0  0  0 
 12 13  1  0  0  0  0 
 12 14  2  0  0  0  0 
 13 15  1  0  0  0  0 
 15 16  1  0  0  0  0 
 15 17  1  0  0  0  0 
 15 18  1  0  0  0  0 
  6 19  1  0  0  0  0 
 20 21  1  0  0  0  0 
 21 22  1  0  0  0  0 
 22 23  1  0  0  0  0 
 23 24  1  0  0  0  0 
 25 26  1  0  0  0  0 
 25 27  1  0  0  0  0 
 25 28  1  0  0  0  0 
 20 28  1  0  0  0  0 
 26 22  1  0  0  0  0 
 27 24  1  0  0  0  0 
 24  9  1  0  0  0  0 
 20  9  1  0  0  0  0 
 20 29  1  0  0  0  0 
 24 30  1  0  0  0  0 
  1 31  1  0  0  0  0 
  1 32  1  0  0  0  0 
  2 33  1  0  0  0  0 
  2 34  1  0  0  0  0 
  4 35  1  0  0  0  0 
  4 36  1  0  0  0  0 
  5 37  1  0  0  0  0 
  5 38  1  0  0  0  0 
 11 39  1  0  0  0  0 
 11 40  1  0  0  0  0 
 13 41  1  0  0  0  0 
 16 42  1  0  0  0  0 
 16 43  1  0  0  0  0 
 17 44  1  0  0  0  0 
 17 45  1  0  0  0  0 
 17 46  1  0  0  0  0 
 18 47  1  0  0  0  0 
 18 48  1  0  0  0  0 
 18 49  1  0  0  0  0 
 21 50  1  0  0  0  0 
 21 51  1  0  0  0  0 
 22 52  1  0  0  0  0 
 23 53  1  0  0  0  0 
 23 54  1  0  0  0  0 
 25 55  1  0  0  0  0 
 26 56  1  0  0  0  0 
 26 57  1  0  0  0  0 
 27 58  1  0  0  0  0 
 27 59  1  0  0  0  0 
 28 60  1  0  0  0  0 
 28 61  1  0  0  0  0 
M  END
> <cdk:Title>
arterolane

> <Conformer>
1

> <SuperDrugID>
SD003905

$$$$
