oxiconazole
  CDK     0628171801

 39 41  0  0  0  0  0  0  0  0999 V2000
    6.2083    2.3825    0.7984 C   0  0  0  0  0  0  0  0  0  0  0  0
    5.0771    3.0918    0.3621 C   0  0  0  0  0  0  0  0  0  0  0  0
    3.7884    2.5313    0.4775 C   0  0  0  0  0  0  0  0  0  0  0  0
    3.6146    1.2184    1.0076 C   0  0  0  0  0  0  0  0  0  0  0  0
    4.7762    0.5240    1.4392 C   0  0  0  0  0  0  0  0  0  0  0  0
    6.0562    1.0954    1.3393 C   0  0  0  0  0  0  0  0  0  0  0  0
    2.3538    0.6058    1.1155 C   0  0  0  0  0  0  0  0  0  0  0  0
    1.9403   -0.0874    2.3444 C   0  0  1  0  0  0  0  0  0  0  0  0
    1.5847    0.6698    0.0835 N   0  0  0  0  0  0  0  0  0  0  0  0
    2.1400    0.7024    3.5286 N   0  0  0  0  0  0  0  0  0  0  0  0
    1.4773    1.8174    3.8868 C   0  0  0  0  0  0  0  0  0  0  0  0
    1.9800    2.2279    5.1129 C   0  0  0  0  0  0  0  0  0  0  0  0
    2.9436    1.3745    5.4840 N   0  0  0  0  0  0  0  0  0  0  0  0
    3.0298    0.4540    4.5099 C   0  0  0  0  0  0  0  0  0  0  0  0
    0.4084    0.1763   -0.0341 O   0  0  0  0  0  0  0  0  0  0  0  0
   -0.2717    0.6740   -1.2014 C   0  0  2  0  0  0  0  0  0  0  0  0
    0.2694    0.1645   -2.4978 C   0  0  0  0  0  0  0  0  0  0  0  0
    0.6790    1.0883   -3.4894 C   0  0  0  0  0  0  0  0  0  0  0  0
    1.1736    0.6564   -4.7326 C   0  0  0  0  0  0  0  0  0  0  0  0
    1.2769   -0.7170   -5.0104 C   0  0  0  0  0  0  0  0  0  0  0  0
    0.8801   -1.6537   -4.0385 C   0  0  0  0  0  0  0  0  0  0  0  0
    0.3724   -1.2231   -2.7920 C   0  0  0  0  0  0  0  0  0  0  0  0
   -0.1040   -2.4253   -1.6913 Cl  0  0  0  0  0  0  0  0  0  0  0  0
    1.8758   -1.2354   -6.5055 Cl  0  0  0  0  0  0  0  0  0  0  0  0
    2.4969    3.5215   -0.0111 Cl  0  0  0  0  0  0  0  0  0  0  0  0
    7.7457    3.0788    0.6704 Cl  0  0  0  0  0  0  0  0  0  0  0  0
    5.1965    4.0244   -0.0383 H   0  0  0  0  0  0  0  0  0  0  0  0
    4.7116   -0.4208    1.8285 H   0  0  0  0  0  0  0  0  0  0  0  0
    6.8729    0.5659    1.6567 H   0  0  0  0  0  0  0  0  0  0  0  0
    0.8844   -0.3685    2.3175 H   0  0  0  0  0  0  0  0  0  0  0  0
    2.4928   -1.0290    2.4106 H   0  0  0  0  0  0  0  0  0  0  0  0
    0.7331    2.2815    3.3630 H   0  0  0  0  0  0  0  0  0  0  0  0
    1.6708    3.0409    5.6467 H   0  0  0  0  0  0  0  0  0  0  0  0
    3.6887   -0.3262    4.5239 H   0  0  0  0  0  0  0  0  0  0  0  0
   -0.2995    1.7698   -1.1705 H   0  0  0  0  0  0  0  0  0  0  0  0
   -1.3107    0.3466   -1.1263 H   0  0  0  0  0  0  0  0  0  0  0  0
    0.6173    2.0936   -3.3176 H   0  0  0  0  0  0  0  0  0  0  0  0
    1.4573    1.3483   -5.4308 H   0  0  0  0  0  0  0  0  0  0  0  0
    0.9610   -2.6544   -4.2437 H   0  0  0  0  0  0  0  0  0  0  0  0
  1  2  2  0  0  0  0 
  2  3  1  0  0  0  0 
  3  4  2  0  0  0  0 
  4  5  1  0  0  0  0 
  5  6  2  0  0  0  0 
  1  6  1  0  0  0  0 
  4  7  1  0  0  0  0 
  7  8  1  0  0  0  0 
  7  9  2  0  0  0  0 
  8 10  1  0  0  0  0 
 11 12  2  0  0  0  0 
 12 13  1  0  0  0  0 
 13 14  2  0  0  0  0 
 10 11  1  0  0  0  0 
 10 14  1  0  0  0  0 
  9 15  1  0  0  0  0 
 15 16  1  0  0  0  0 
 16 17  1  0  0  0  0 
 18 19  1  0  0  0  0 
 19 20  2  0  0  0  0 
 20 21  1  0  0  0  0 
 21 22  2  0  0  0  0 
 17 18  2  0  0  0  0 
 17 22  1  0  0  0  0 
 22 23  1  0  0  0  0 
 20 24  1  0  0  0  0 
  3 25  1  0  0  0  0 
  1 26  1  0  0  0  0 
  2 27  1  0  0  0  0 
  5 28  1  0  0  0  0 
  6 29  1  0  0  0  0 
  8 30  1  0  0  0  0 
  8 31  1  0  0  0  0 
 11 32  1  0  0  0  0 
 12 33  1  0  0  0  0 
 14 34  1  0  0  0  0 
 16 35  1  0  0  0  0 
 16 36  1  0  0  0  0 
 18 37  1  0  0  0  0 
 19 38  1  0  0  0  0 
 21 39  1  0  0  0  0 
M  END
> <cdk:Title>
oxiconazole

> <Conformer>
1

> <SuperDrugID>
SD002934

$$$$
