butanilicaine
  CDK     0628171801

 36 36  0  0  0  0  0  0  0  0999 V2000
   -1.6952    1.0255    3.2666 N   0  0  0  0  0  0  0  0  0  0  0  0
   -2.7747    0.7688    2.4724 C   0  0  0  0  0  0  0  0  0  0  0  0
   -1.7344    1.3143    4.6035 C   0  0  0  0  0  0  0  0  0  0  0  0
   -2.5806    0.3402    1.0751 C   0  0  1  0  0  0  0  0  0  0  0  0
   -3.9480    0.8899    2.9005 O   0  0  0  0  0  0  0  0  0  0  0  0
   -1.1762    2.5412    5.0600 C   0  0  0  0  0  0  0  0  0  0  0  0
   -2.2819    0.3989    5.5438 C   0  0  0  0  0  0  0  0  0  0  0  0
   -3.1426    1.3513    0.1510 N   0  0  2  0  0  0  0  0  0  0  0  0
   -0.5691    3.5049    4.1063 C   0  0  0  0  0  0  0  0  0  0  0  0
   -1.2241    2.8474    6.4412 C   0  0  0  0  0  0  0  0  0  0  0  0
   -2.8610   -1.1360    5.0980 Cl  0  0  0  0  0  0  0  0  0  0  0  0
   -2.3302    0.7354    6.9106 C   0  0  0  0  0  0  0  0  0  0  0  0
   -2.9664    1.0359   -1.2866 C   0  0  2  0  0  0  0  0  0  0  0  0
   -1.8085    1.9589    7.3578 C   0  0  0  0  0  0  0  0  0  0  0  0
   -3.8498    1.9547   -2.1729 C   0  0  2  0  0  0  0  0  0  0  0  0
   -3.6294    1.7019   -3.6907 C   0  0  1  0  0  0  0  0  0  0  0  0
   -4.6125    2.4652   -4.6084 C   0  0  0  0  0  0  0  0  0  0  0  0
   -0.8229    1.0310    2.8388 H   0  0  0  0  0  0  0  0  0  0  0  0
   -1.5161    0.1883    0.8691 H   0  0  0  0  0  0  0  0  0  0  0  0
   -3.0970   -0.6134    0.9370 H   0  0  0  0  0  0  0  0  0  0  0  0
   -2.6388    2.2239    0.3253 H   0  0  0  0  0  0  0  0  0  0  0  0
   -0.1896    4.4037    4.5953 H   0  0  0  0  0  0  0  0  0  0  0  0
    0.2597    3.0287    3.5801 H   0  0  0  0  0  0  0  0  0  0  0  0
   -1.3190    3.8149    3.3778 H   0  0  0  0  0  0  0  0  0  0  0  0
   -0.8400    3.7250    6.7966 H   0  0  0  0  0  0  0  0  0  0  0  0
   -2.7405    0.0896    7.5904 H   0  0  0  0  0  0  0  0  0  0  0  0
   -3.2596   -0.0008   -1.4769 H   0  0  0  0  0  0  0  0  0  0  0  0
   -1.9101    1.1627   -1.5500 H   0  0  0  0  0  0  0  0  0  0  0  0
   -1.8511    2.1996    8.3512 H   0  0  0  0  0  0  0  0  0  0  0  0
   -3.6276    3.0007   -1.9453 H   0  0  0  0  0  0  0  0  0  0  0  0
   -4.8996    1.7753   -1.9261 H   0  0  0  0  0  0  0  0  0  0  0  0
   -2.6097    1.9951   -3.9525 H   0  0  0  0  0  0  0  0  0  0  0  0
   -3.7379    0.6340   -3.8972 H   0  0  0  0  0  0  0  0  0  0  0  0
   -4.3788    2.2486   -5.6530 H   0  0  0  0  0  0  0  0  0  0  0  0
   -4.5342    3.5417   -4.4511 H   0  0  0  0  0  0  0  0  0  0  0  0
   -5.6398    2.1476   -4.4185 H   0  0  0  0  0  0  0  0  0  0  0  0
  1  2  1  0  0  0  0 
  1  3  1  0  0  0  0 
  2  4  1  0  0  0  0 
  2  5  2  0  0  0  0 
  3  6  2  0  0  0  0 
  3  7  1  0  0  0  0 
  4  8  1  0  0  0  0 
  6  9  1  0  0  0  0 
  6 10  1  0  0  0  0 
  7 11  1  0  0  0  0 
  7 12  2  0  0  0  0 
  8 13  1  0  0  0  0 
 10 14  2  0  0  0  0 
 12 14  1  0  0  0  0 
 13 15  1  0  0  0  0 
 15 16  1  0  0  0  0 
 16 17  1  0  0  0  0 
  1 18  1  0  0  0  0 
  4 19  1  0  0  0  0 
  4 20  1  0  0  0  0 
  8 21  1  0  0  0  0 
  9 22  1  0  0  0  0 
  9 23  1  0  0  0  0 
  9 24  1  0  0  0  0 
 10 25  1  0  0  0  0 
 12 26  1  0  0  0  0 
 13 27  1  0  0  0  0 
 13 28  1  0  0  0  0 
 14 29  1  0  0  0  0 
 15 30  1  0  0  0  0 
 15 31  1  0  0  0  0 
 16 32  1  0  0  0  0 
 16 33  1  0  0  0  0 
 17 34  1  0  0  0  0 
 17 35  1  0  0  0  0 
 17 36  1  0  0  0  0 
M  END
> <cdk:Title>
butanilicaine

> <Conformer>
1

> <SuperDrugID>
SD003156

$$$$
