fluocinolone acetonide
  CDK     0628171801

 62 66  0  0  0  0  0  0  0  0999 V2000
    6.4024   -1.7788   -0.9418 C   0  0  0  0  0  0  0  0  0  0  0  0
    7.5416   -2.3091   -0.4702 C   0  0  0  0  0  0  0  0  0  0  0  0
    8.5941   -1.4955   -0.1024 C   0  0  0  0  0  0  0  0  0  0  0  0
    8.5080   -0.1190   -0.2302 C   0  0  0  0  0  0  0  0  0  0  0  0
    7.3923    0.4885   -0.7009 C   0  0  0  0  0  0  0  0  0  0  0  0
    6.1800   -0.3171   -1.0898 C   0  0  1  0  0  0  0  0  0  0  0  0
    7.3416    1.9537   -0.8805 C   0  0  2  0  0  0  0  0  0  0  0  0
    7.0173    2.3249   -2.3535 C   0  0  2  0  0  0  0  0  0  0  0  0
    5.7267    1.5982   -2.8502 C   0  0  2  0  0  0  0  0  0  0  0  0
    5.8212    0.0310   -2.6132 C   0  0  2  0  0  0  0  0  0  0  0  0
    5.4280    1.9087   -4.3581 C   0  0  1  0  0  0  0  0  0  0  0  0
    4.0971    1.2828   -4.8937 C   0  0  1  0  0  0  0  0  0  0  0  0
    4.2353   -0.2751   -4.7152 C   0  0  1  0  0  0  0  0  0  0  0  0
    4.5869   -0.7276   -3.2533 C   0  0  2  0  0  0  0  0  0  0  0  0
    9.6453   -2.0150    0.3387 O   0  0  0  0  0  0  0  0  0  0  0  0
    3.4195   -0.6625   -2.4396 O   0  0  0  0  0  0  0  0  0  0  0  0
    6.2731    1.4732   -4.9090 H   0  0  0  0  0  0  0  0  0  0  0  0
    6.9004   -0.4228   -3.3627 F   0  0  0  0  0  0  0  0  0  0  0  0
    2.8028    1.7708   -4.1325 C   0  0  0  0  0  0  0  0  0  0  0  0
    4.9097    2.0063   -2.2553 H   0  0  0  0  0  0  0  0  0  0  0  0
    5.0387   -0.0001   -0.0525 C   0  0  0  0  0  0  0  0  0  0  0  0
    4.8218   -1.7941   -3.3102 H   0  0  0  0  0  0  0  0  0  0  0  0
    5.3614    3.3694   -4.8489 C   0  0  1  0  0  0  0  0  0  0  0  0
    4.8052    3.2262   -6.2879 C   0  0  2  0  0  0  0  0  0  0  0  0
    4.0790    1.8461   -6.3800 C   0  0  1  0  0  0  0  0  0  0  0  0
    5.8962    3.2034   -7.2166 O   0  0  0  0  0  0  0  0  0  0  0  0
    5.8153    1.9798   -7.9526 C   0  0  1  0  0  0  0  0  0  0  0  0
    4.9572    1.0863   -7.2284 O   0  0  0  0  0  0  0  0  0  0  0  0
    2.7382    1.7941   -7.0636 C   0  0  0  0  0  0  0  0  0  0  0  0
    2.2612    0.6565   -7.2920 O   0  0  0  0  0  0  0  0  0  0  0  0
    4.1650    4.0821   -6.5063 H   0  0  0  0  0  0  0  0  0  0  0  0
    5.2924    2.2720   -9.3866 C   0  0  0  0  0  0  0  0  0  0  0  0
    7.2168    1.3187   -8.0162 C   0  0  0  0  0  0  0  0  0  0  0  0
    1.9216    2.9592   -7.4917 C   0  0  2  0  0  0  0  0  0  0  0  0
    1.4672    3.7203   -6.3811 O   0  0  0  0  0  0  0  0  0  0  0  0
    8.4894    2.6391   -0.5329 F   0  0  0  0  0  0  0  0  0  0  0  0
    6.5628    2.3651   -0.2335 H   0  0  0  0  0  0  0  0  0  0  0  0
    5.6724   -2.4097   -1.1840 H   0  0  0  0  0  0  0  0  0  0  0  0
    7.6243   -3.2968   -0.3826 H   0  0  0  0  0  0  0  0  0  0  0  0
    9.3049    0.4161    0.0282 H   0  0  0  0  0  0  0  0  0  0  0  0
    7.8891    1.9709   -2.9951 H   0  0  0  0  0  0  0  0  0  0  0  0
    6.7982    3.4423   -2.3608 H   0  0  0  0  0  0  0  0  0  0  0  0
    3.3132   -0.7678   -5.0338 H   0  0  0  0  0  0  0  0  0  0  0  0
    5.0249   -0.6480   -5.3715 H   0  0  0  0  0  0  0  0  0  0  0  0
    2.7760   -1.2725   -2.8562 H   0  0  0  0  0  0  0  0  0  0  0  0
    2.6077    2.8268   -4.3041 H   0  0  0  0  0  0  0  0  0  0  0  0
    1.9320    1.2097   -4.4759 H   0  0  0  0  0  0  0  0  0  0  0  0
    2.8629    1.6419   -3.0570 H   0  0  0  0  0  0  0  0  0  0  0  0
    4.2066   -0.7034   -0.1188 H   0  0  0  0  0  0  0  0  0  0  0  0
    4.6246    0.9977   -0.1873 H   0  0  0  0  0  0  0  0  0  0  0  0
    5.4194   -0.0672    0.9707 H   0  0  0  0  0  0  0  0  0  0  0  0
    4.6871    3.9641   -4.2273 H   0  0  0  0  0  0  0  0  0  0  0  0
    6.3449    3.8454   -4.8485 H   0  0  0  0  0  0  0  0  0  0  0  0
    4.3624    2.8365   -9.3510 H   0  0  0  0  0  0  0  0  0  0  0  0
    5.1126    1.3381   -9.9226 H   0  0  0  0  0  0  0  0  0  0  0  0
    6.0227    2.8642   -9.9460 H   0  0  0  0  0  0  0  0  0  0  0  0
    7.5663    1.0633   -7.0146 H   0  0  0  0  0  0  0  0  0  0  0  0
    7.1758    0.4012   -8.6077 H   0  0  0  0  0  0  0  0  0  0  0  0
    7.9425    1.9959   -8.4721 H   0  0  0  0  0  0  0  0  0  0  0  0
    1.0362    2.6304   -8.0400 H   0  0  0  0  0  0  0  0  0  0  0  0
    2.4928    3.6112   -8.1492 H   0  0  0  0  0  0  0  0  0  0  0  0
    0.9259    4.4422   -6.7662 H   0  0  0  0  0  0  0  0  0  0  0  0
  1  2  2  0  0  0  0 
  2  3  1  0  0  0  0 
  3  4  1  0  0  0  0 
  4  5  2  0  0  0  0 
  5  6  1  0  0  0  0 
  1  6  1  0  0  0  0 
  5  7  1  0  0  0  0 
  7  8  1  0  0  0  0 
  8  9  1  0  0  0  0 
  9 10  1  0  0  0  0 
  6 10  1  0  0  0  0 
  9 11  1  0  0  0  0 
 11 12  1  0  0  0  0 
 12 13  1  0  0  0  0 
 13 14  1  0  0  0  0 
 10 14  1  0  0  0  0 
  3 15  2  0  0  0  0 
 14 16  1  0  0  0  0 
 11 17  1  0  0  0  0 
 10 18  1  0  0  0  0 
 12 19  1  0  0  0  0 
  9 20  1  0  0  0  0 
  6 21  1  0  0  0  0 
 14 22  1  0  0  0  0 
 11 23  1  0  0  0  0 
 23 24  1  0  0  0  0 
 24 25  1  0  0  0  0 
 12 25  1  0  0  0  0 
 26 27  1  0  0  0  0 
 27 28  1  0  0  0  0 
 25 28  1  0  0  0  0 
 24 26  1  0  0  0  0 
 25 29  1  0  0  0  0 
 29 30  2  0  0  0  0 
 24 31  1  0  0  0  0 
 27 32  1  0  0  0  0 
 27 33  1  0  0  0  0 
 29 34  1  0  0  0  0 
 34 35  1  0  0  0  0 
  7 36  1  0  0  0  0 
  7 37  1  0  0  0  0 
  1 38  1  0  0  0  0 
  2 39  1  0  0  0  0 
  4 40  1  0  0  0  0 
  8 41  1  0  0  0  0 
  8 42  1  0  0  0  0 
 13 43  1  0  0  0  0 
 13 44  1  0  0  0  0 
 16 45  1  0  0  0  0 
 19 46  1  0  0  0  0 
 19 47  1  0  0  0  0 
 19 48  1  0  0  0  0 
 21 49  1  0  0  0  0 
 21 50  1  0  0  0  0 
 21 51  1  0  0  0  0 
 23 52  1  0  0  0  0 
 23 53  1  0  0  0  0 
 32 54  1  0  0  0  0 
 32 55  1  0  0  0  0 
 32 56  1  0  0  0  0 
 33 57  1  0  0  0  0 
 33 58  1  0  0  0  0 
 33 59  1  0  0  0  0 
 34 60  1  0  0  0  0 
 34 61  1  0  0  0  0 
 35 62  1  0  0  0  0 
M  END
> <cdk:Title>
fluocinolone acetonide

> <Conformer>
1

> <SuperDrugID>
SD001078

$$$$
