methohexital
  CDK     0628171801

 37 37  0  0  0  0  0  0  0  0999 V2000
   -2.7887   -0.1220   -1.3556 C   0  0  1  0  0  0  0  0  0  0  0  0
   -4.2575   -0.4436   -1.4197 C   0  0  0  0  0  0  0  0  0  0  0  0
   -5.1033    0.1692   -2.2729 N   0  0  0  0  0  0  0  0  0  0  0  0
   -4.7043    1.1441   -3.1211 C   0  0  0  0  0  0  0  0  0  0  0  0
   -3.3969    1.5880   -3.1532 N   0  0  0  0  0  0  0  0  0  0  0  0
   -2.4571    0.9976   -2.3172 C   0  0  0  0  0  0  0  0  0  0  0  0
   -5.6046    1.6092   -3.8588 O   0  0  0  0  0  0  0  0  0  0  0  0
   -4.7674   -1.3278   -0.6936 O   0  0  0  0  0  0  0  0  0  0  0  0
   -1.2616    1.3909   -2.3479 O   0  0  0  0  0  0  0  0  0  0  0  0
   -2.3800    0.3449    0.1080 C   0  0  1  0  0  0  0  0  0  0  0  0
   -1.9864   -1.4090   -1.8025 C   0  0  2  0  0  0  0  0  0  0  0  0
   -2.2058   -1.8160   -3.1882 C   0  0  0  0  0  0  0  0  0  0  0  0
   -3.0005   -2.8303   -3.5513 C   0  0  0  0  0  0  0  0  0  0  0  0
   -3.1020    1.6349    0.6008 C   0  0  0  0  0  0  0  0  0  0  0  0
   -2.5194   -0.6461    1.0545 C   0  0  0  0  0  0  0  0  0  0  0  0
   -2.6370   -1.5447    1.8318 C   0  0  0  0  0  0  0  0  0  0  0  0
   -2.7712   -2.6074    2.6793 C   0  0  1  0  0  0  0  0  0  0  0  0
   -3.2345   -3.8753    1.9270 C   0  0  0  0  0  0  0  0  0  0  0  0
   -2.9832    2.6597   -4.0320 C   0  0  0  0  0  0  0  0  0  0  0  0
   -6.0366   -0.1033   -2.2761 H   0  0  0  0  0  0  0  0  0  0  0  0
   -1.3086    0.5688    0.1097 H   0  0  0  0  0  0  0  0  0  0  0  0
   -2.2307   -2.2432   -1.1373 H   0  0  0  0  0  0  0  0  0  0  0  0
   -0.9112   -1.2367   -1.6795 H   0  0  0  0  0  0  0  0  0  0  0  0
   -1.7423   -1.3034   -3.9054 H   0  0  0  0  0  0  0  0  0  0  0  0
   -3.1135   -3.0523   -4.5109 H   0  0  0  0  0  0  0  0  0  0  0  0
   -3.4893   -3.3698   -2.8772 H   0  0  0  0  0  0  0  0  0  0  0  0
   -2.7077    1.9456    1.5715 H   0  0  0  0  0  0  0  0  0  0  0  0
   -2.9383    2.4610   -0.0948 H   0  0  0  0  0  0  0  0  0  0  0  0
   -4.1801    1.4761    0.6956 H   0  0  0  0  0  0  0  0  0  0  0  0
   -1.8053   -2.7971    3.1495 H   0  0  0  0  0  0  0  0  0  0  0  0
   -3.4970   -2.3534    3.4539 H   0  0  0  0  0  0  0  0  0  0  0  0
   -3.3493   -4.7010    2.6323 H   0  0  0  0  0  0  0  0  0  0  0  0
   -4.1971   -3.7057    1.4362 H   0  0  0  0  0  0  0  0  0  0  0  0
   -2.4979   -4.1691    1.1734 H   0  0  0  0  0  0  0  0  0  0  0  0
   -2.1909    2.3116   -4.6985 H   0  0  0  0  0  0  0  0  0  0  0  0
   -3.7869    3.0508   -4.6574 H   0  0  0  0  0  0  0  0  0  0  0  0
   -2.5985    3.4903   -3.4359 H   0  0  0  0  0  0  0  0  0  0  0  0
  1  2  1  0  0  0  0 
  1  6  1  0  0  0  0 
  2  3  1  0  0  0  0 
  3  4  1  0  0  0  0 
  4  5  1  0  0  0  0 
  5  6  1  0  0  0  0 
  4  7  2  0  0  0  0 
  2  8  2  0  0  0  0 
  6  9  2  0  0  0  0 
  1 10  1  0  0  0  0 
  1 11  1  0  0  0  0 
 11 12  1  0  0  0  0 
 12 13  2  0  0  0  0 
 10 14  1  0  0  0  0 
 10 15  1  0  0  0  0 
 15 16  3  0  0  0  0 
 16 17  1  0  0  0  0 
 17 18  1  0  0  0  0 
  5 19  1  0  0  0  0 
 20  3  1  0  0  0  0 
 21 10  1  0  0  0  0 
 22 11  1  0  0  0  0 
 23 11  1  0  0  0  0 
 24 12  1  0  0  0  0 
 25 13  1  0  0  0  0 
 26 13  1  0  0  0  0 
 27 14  1  0  0  0  0 
 28 14  1  0  0  0  0 
 29 14  1  0  0  0  0 
 30 17  1  0  0  0  0 
 31 17  1  0  0  0  0 
 32 18  1  0  0  0  0 
 33 18  1  0  0  0  0 
 34 18  1  0  0  0  0 
 35 19  1  0  0  0  0 
 36 19  1  0  0  0  0 
 37 19  1  0  0  0  0 
M  END
> <cdk:Title>
methohexital

> <Conformer>
1

> <SuperDrugID>
SD001548

$$$$
