regadenoson
  CDK     0628171801

 46 49  0  0  0  0  0  0  0  0999 V2000
   -5.8758   -4.3343   -3.9588 N   0  0  0  0  0  0  0  0  0  0  0  0
   -5.8265   -4.1119   -2.6330 C   0  0  0  0  0  0  0  0  0  0  0  0
   -6.7696   -4.6658   -1.7513 C   0  0  0  0  0  0  0  0  0  0  0  0
   -4.8363   -3.3435   -2.1013 N   0  0  0  0  0  0  0  0  0  0  0  0
   -6.6409   -4.4268   -0.3889 C   0  0  0  0  0  0  0  0  0  0  0  0
   -7.8404   -5.4455   -1.9591 N   0  0  0  0  0  0  0  0  0  0  0  0
   -4.7329   -3.0891   -0.7608 C   0  0  0  0  0  0  0  0  0  0  0  0
   -7.6145   -5.1076    0.2417 N   0  0  0  0  0  0  0  0  0  0  0  0
   -5.6465   -3.6381    0.0919 N   0  0  0  0  0  0  0  0  0  0  0  0
   -8.3483   -5.6937   -0.7340 C   0  0  0  0  0  0  0  0  0  0  0  0
   -3.7276   -2.3145   -0.2713 N   0  0  0  0  0  0  0  0  0  0  0  0
   -7.8018   -5.2073    1.6671 C   0  0  2  0  0  0  0  0  0  0  0  0
   -2.4961   -2.1738   -0.8014 C   0  0  0  0  0  0  0  0  0  0  0  0
   -3.8199   -1.5932    0.8056 N   0  0  0  0  0  0  0  0  0  0  0  0
   -8.5038   -6.4142    2.0219 O   0  0  0  0  0  0  0  0  0  0  0  0
   -8.6081   -4.0167    2.2357 C   0  0  2  0  0  0  0  0  0  0  0  0
   -1.7595   -1.3132    0.0051 C   0  0  0  0  0  0  0  0  0  0  0  0
   -2.6542   -0.9564    1.0089 C   0  0  0  0  0  0  0  0  0  0  0  0
   -9.7017   -6.0677    2.7322 C   0  0  1  0  0  0  0  0  0  0  0  0
   -8.1104   -3.6379    3.5217 O   0  0  0  0  0  0  0  0  0  0  0  0
  -10.0190   -4.6109    2.3419 C   0  0  1  0  0  0  0  0  0  0  0  0
   -0.4130   -0.9223   -0.1627 C   0  0  0  0  0  0  0  0  0  0  0  0
  -10.8241   -7.0810    2.4102 C   0  0  1  0  0  0  0  0  0  0  0  0
  -10.8331   -3.9455    3.3059 O   0  0  0  0  0  0  0  0  0  0  0  0
    0.1546   -0.0025    0.6651 N   0  0  0  0  0  0  0  0  0  0  0  0
    0.2597   -1.4453   -1.0837 O   0  0  0  0  0  0  0  0  0  0  0  0
  -10.5009   -8.3428    2.9875 O   0  0  0  0  0  0  0  0  0  0  0  0
    1.5101    0.4321    0.5878 C   0  0  0  0  0  0  0  0  0  0  0  0
   -5.1763   -3.9916   -4.5385 H   0  0  0  0  0  0  0  0  0  0  0  0
   -6.6090   -4.8427   -4.3410 H   0  0  0  0  0  0  0  0  0  0  0  0
   -9.1818   -6.2654   -0.5714 H   0  0  0  0  0  0  0  0  0  0  0  0
   -6.8168   -5.2689    2.1415 H   0  0  0  0  0  0  0  0  0  0  0  0
   -2.1517   -2.6350   -1.6476 H   0  0  0  0  0  0  0  0  0  0  0  0
   -8.5882   -3.1470    1.5733 H   0  0  0  0  0  0  0  0  0  0  0  0
   -2.4680   -0.3221    1.7860 H   0  0  0  0  0  0  0  0  0  0  0  0
   -9.4927   -6.1103    3.8084 H   0  0  0  0  0  0  0  0  0  0  0  0
   -7.1817   -3.3679    3.3638 H   0  0  0  0  0  0  0  0  0  0  0  0
  -10.5133   -4.5723    1.3653 H   0  0  0  0  0  0  0  0  0  0  0  0
  -11.7734   -6.7379    2.8253 H   0  0  0  0  0  0  0  0  0  0  0  0
  -10.9342   -7.2061    1.3306 H   0  0  0  0  0  0  0  0  0  0  0  0
  -11.6672   -4.4605    3.3200 H   0  0  0  0  0  0  0  0  0  0  0  0
   -0.3970    0.3695    1.3725 H   0  0  0  0  0  0  0  0  0  0  0  0
  -11.2715   -8.9228    2.8048 H   0  0  0  0  0  0  0  0  0  0  0  0
    1.7672    0.7429   -0.4269 H   0  0  0  0  0  0  0  0  0  0  0  0
    1.6506    1.2801    1.2574 H   0  0  0  0  0  0  0  0  0  0  0  0
    2.1800   -0.3711    0.8969 H   0  0  0  0  0  0  0  0  0  0  0  0
  1  2  1  0  0  0  0 
  2  3  2  0  0  0  0 
  2  4  1  0  0  0  0 
  3  5  1  0  0  0  0 
  3  6  1  0  0  0  0 
  4  7  2  0  0  0  0 
  5  8  1  0  0  0  0 
  5  9  2  0  0  0  0 
  6 10  2  0  0  0  0 
  7  9  1  0  0  0  0 
  7 11  1  0  0  0  0 
  8 10  1  0  0  0  0 
 11 13  1  0  0  0  0 
 11 14  1  0  0  0  0 
 12  8  1  0  0  0  0 
 12 15  1  0  0  0  0 
 12 16  1  0  0  0  0 
 13 17  2  0  0  0  0 
 14 18  2  0  0  0  0 
 19 15  1  0  0  0  0 
 16 20  1  0  0  0  0 
 16 21  1  0  0  0  0 
 17 18  1  0  0  0  0 
 17 22  1  0  0  0  0 
 21 19  1  0  0  0  0 
 19 23  1  0  0  0  0 
 21 24  1  0  0  0  0 
 22 25  1  0  0  0  0 
 22 26  2  0  0  0  0 
 23 27  1  0  0  0  0 
 25 28  1  0  0  0  0 
  1 29  1  0  0  0  0 
  1 30  1  0  0  0  0 
 10 31  1  0  0  0  0 
 12 32  1  0  0  0  0 
 13 33  1  0  0  0  0 
 16 34  1  0  0  0  0 
 18 35  1  0  0  0  0 
 19 36  1  0  0  0  0 
 20 37  1  0  0  0  0 
 21 38  1  0  0  0  0 
 23 39  1  0  0  0  0 
 23 40  1  0  0  0  0 
 24 41  1  0  0  0  0 
 25 42  1  0  0  0  0 
 27 43  1  0  0  0  0 
 28 44  1  0  0  0  0 
 28 45  1  0  0  0  0 
 28 46  1  0  0  0  0 
M  END
> <cdk:Title>
regadenoson

> <Conformer>
1

> <SuperDrugID>
SD002125

$$$$
