mazindol
  CDK     0628171801

 33 36  0  0  0  0  0  0  0  0999 V2000
    2.0341   -2.3148   -4.2098 C   0  0  0  0  0  0  0  0  0  0  0  0
    2.7773   -1.8795   -3.0885 C   0  0  0  0  0  0  0  0  0  0  0  0
    2.2169   -0.9665   -2.1690 C   0  0  0  0  0  0  0  0  0  0  0  0
    0.9046   -0.5016   -2.3866 C   0  0  0  0  0  0  0  0  0  0  0  0
    0.1746   -0.9539   -3.4910 C   0  0  0  0  0  0  0  0  0  0  0  0
    0.7178   -1.8549   -4.4217 C   0  0  0  0  0  0  0  0  0  0  0  0
    0.1170    0.4856   -1.6106 C   0  0  1  0  0  0  0  0  0  0  0  0
   -1.0737    0.4577   -2.4122 N   0  0  0  0  0  0  0  0  0  0  0  0
   -1.0305   -0.3425   -3.4264 C   0  0  0  0  0  0  0  0  0  0  0  0
   -2.3051    1.1485   -2.3569 C   0  0  1  0  0  0  0  0  0  0  0  0
   -3.0385    0.4982   -3.5632 C   0  0  1  0  0  0  0  0  0  0  0  0
   -2.1028   -0.3723   -4.1162 N   0  0  0  0  0  0  0  0  0  0  0  0
   -0.0971    0.0941   -0.1755 C   0  0  0  0  0  0  0  0  0  0  0  0
    0.4022    0.8834    0.8931 C   0  0  0  0  0  0  0  0  0  0  0  0
    0.2029    0.5068    2.2337 C   0  0  0  0  0  0  0  0  0  0  0  0
   -0.5086   -0.6673    2.5414 C   0  0  0  0  0  0  0  0  0  0  0  0
   -1.0223   -1.4590    1.4973 C   0  0  0  0  0  0  0  0  0  0  0  0
   -0.8100   -1.0868    0.1563 C   0  0  0  0  0  0  0  0  0  0  0  0
   -0.7458   -1.1204    4.1562 Cl  0  0  0  0  0  0  0  0  0  0  0  0
    0.7454    1.7579   -1.7815 O   0  0  0  0  0  0  0  0  0  0  0  0
    2.4547   -2.9686   -4.8734 H   0  0  0  0  0  0  0  0  0  0  0  0
    3.7282   -2.2271   -2.9440 H   0  0  0  0  0  0  0  0  0  0  0  0
    2.7574   -0.6460   -1.3628 H   0  0  0  0  0  0  0  0  0  0  0  0
    0.1784   -2.1632   -5.2328 H   0  0  0  0  0  0  0  0  0  0  0  0
   -2.8248    0.9685   -1.4141 H   0  0  0  0  0  0  0  0  0  0  0  0
   -2.1475    2.2184   -2.5096 H   0  0  0  0  0  0  0  0  0  0  0  0
   -3.9249   -0.0574   -3.2427 H   0  0  0  0  0  0  0  0  0  0  0  0
   -3.3342    1.2489   -4.3013 H   0  0  0  0  0  0  0  0  0  0  0  0
    0.9215    1.7467    0.7139 H   0  0  0  0  0  0  0  0  0  0  0  0
    0.5772    1.0945    2.9816 H   0  0  0  0  0  0  0  0  0  0  0  0
   -1.5543   -2.3058    1.7067 H   0  0  0  0  0  0  0  0  0  0  0  0
   -1.1885   -1.6877   -0.5792 H   0  0  0  0  0  0  0  0  0  0  0  0
    0.1045    2.4129   -1.4350 H   0  0  0  0  0  0  0  0  0  0  0  0
  1  2  2  0  0  0  0 
  2  3  1  0  0  0  0 
  3  4  2  0  0  0  0 
  4  5  1  0  0  0  0 
  5  6  2  0  0  0  0 
  1  6  1  0  0  0  0 
  7  8  1  0  0  0  0 
  8  9  1  0  0  0  0 
  7  4  1  0  0  0  0 
  5  9  1  0  0  0  0 
 10 11  1  0  0  0  0 
 11 12  1  0  0  0  0 
  8 10  1  0  0  0  0 
  9 12  2  0  0  0  0 
  7 13  1  0  0  0  0 
 14 15  1  0  0  0  0 
 15 16  2  0  0  0  0 
 16 17  1  0  0  0  0 
 17 18  2  0  0  0  0 
 13 14  2  0  0  0  0 
 13 18  1  0  0  0  0 
 16 19  1  0  0  0  0 
  7 20  1  0  0  0  0 
  1 21  1  0  0  0  0 
  2 22  1  0  0  0  0 
  3 23  1  0  0  0  0 
  6 24  1  0  0  0  0 
 10 25  1  0  0  0  0 
 10 26  1  0  0  0  0 
 11 27  1  0  0  0  0 
 11 28  1  0  0  0  0 
 14 29  1  0  0  0  0 
 15 30  1  0  0  0  0 
 17 31  1  0  0  0  0 
 18 32  1  0  0  0  0 
 20 33  1  0  0  0  0 
M  END
> <cdk:Title>
mazindol

> <Conformer>
1

> <SuperDrugID>
SD001450

$$$$
