cholic acid
  CDK     0628171801

 69 72  0  0  0  0  0  0  0  0999 V2000
    1.2677   -1.5648   -7.7969 O   0  0  0  0  0  0  0  0  0  0  0  0
    1.6932   -0.9461   -9.0121 C   0  0  1  0  0  0  0  0  0  0  0  0
    0.8181   -1.3454  -10.2616 C   0  0  1  0  0  0  0  0  0  0  0  0
    1.7662    0.5819   -8.7298 C   0  0  1  0  0  0  0  0  0  0  0  0
    0.1792   -2.7786  -10.1259 C   0  0  1  0  0  0  0  0  0  0  0  0
   -0.3068   -0.2803  -10.5523 C   0  0  1  0  0  0  0  0  0  0  0  0
    1.6593    1.4207  -10.0355 C   0  0  1  0  0  0  0  0  0  0  0  0
   -0.6706   -3.2652  -11.3525 C   0  0  1  0  0  0  0  0  0  0  0  0
    1.0981   -3.9751   -9.8177 C   0  0  2  0  0  0  0  0  0  0  0  0
    0.2457    1.2227  -10.7428 C   0  0  1  0  0  0  0  0  0  0  0  0
   -1.3146   -0.7651  -11.6606 C   0  0  1  0  0  0  0  0  0  0  0  0
    2.0776    2.9172   -9.8169 C   0  0  2  0  0  0  0  0  0  0  0  0
    0.1628   -3.3599  -12.6910 C   0  0  0  0  0  0  0  0  0  0  0  0
   -1.0843   -4.7116  -10.8556 C   0  0  2  0  0  0  0  0  0  0  0  0
   -1.8417   -2.2235  -11.5072 C   0  0  2  0  0  0  0  0  0  0  0  0
    0.1891   -5.1990  -10.0816 C   0  0  1  0  0  0  0  0  0  0  0  0
    0.4346    1.5891  -12.2641 C   0  0  0  0  0  0  0  0  0  0  0  0
   -0.8122    2.2140  -10.1108 C   0  0  2  0  0  0  0  0  0  0  0  0
    0.9772    3.8026   -9.1798 C   0  0  1  0  0  0  0  0  0  0  0  0
   -1.6432   -5.7880  -11.8734 C   0  0  1  0  0  0  0  0  0  0  0  0
   -2.7660   -2.2691  -10.4167 O   0  0  0  0  0  0  0  0  0  0  0  0
   -0.3519    3.6877   -9.9664 C   0  0  2  0  0  0  0  0  0  0  0  0
    0.7884    3.4669   -7.8066 O   0  0  0  0  0  0  0  0  0  0  0  0
   -2.0681   -7.1227  -11.1489 C   0  0  1  0  0  0  0  0  0  0  0  0
   -2.8497   -5.2640  -12.7125 C   0  0  0  0  0  0  0  0  0  0  0  0
   -2.0550   -8.4013  -12.0406 C   0  0  2  0  0  0  0  0  0  0  0  0
   -0.7043   -8.9666  -12.2349 C   0  0  0  0  0  0  0  0  0  0  0  0
   -0.0478   -9.5214  -11.1871 O   0  0  0  0  0  0  0  0  0  0  0  0
   -0.1570   -8.9681  -13.3602 O   0  0  0  0  0  0  0  0  0  0  0  0
    1.4937   -1.3468  -11.1206 H   0  0  0  0  0  0  0  0  0  0  0  0
   -0.9023   -0.3010   -9.6319 H   0  0  0  0  0  0  0  0  0  0  0  0
   -0.4921   -2.7069   -9.2578 H   0  0  0  0  0  0  0  0  0  0  0  0
    2.4359    1.0106  -10.6946 H   0  0  0  0  0  0  0  0  0  0  0  0
   -1.8717   -4.5900  -10.1022 H   0  0  0  0  0  0  0  0  0  0  0  0
    0.3590   -1.2311   -7.6445 H   0  0  0  0  0  0  0  0  0  0  0  0
    2.7102   -1.3088   -9.1970 H   0  0  0  0  0  0  0  0  0  0  0  0
    0.9574    0.8705   -8.0523 H   0  0  0  0  0  0  0  0  0  0  0  0
    2.7108    0.7902   -8.2188 H   0  0  0  0  0  0  0  0  0  0  0  0
    1.4538   -3.9652   -8.7845 H   0  0  0  0  0  0  0  0  0  0  0  0
    1.9654   -3.9712  -10.4815 H   0  0  0  0  0  0  0  0  0  0  0  0
   -2.1716   -0.0878  -11.6812 H   0  0  0  0  0  0  0  0  0  0  0  0
   -0.8430   -0.7064  -12.6406 H   0  0  0  0  0  0  0  0  0  0  0  0
    2.3479    3.3607  -10.7782 H   0  0  0  0  0  0  0  0  0  0  0  0
    2.9784    2.9723   -9.2000 H   0  0  0  0  0  0  0  0  0  0  0  0
   -0.4846   -3.5371  -13.5469 H   0  0  0  0  0  0  0  0  0  0  0  0
    0.8918   -4.1707  -12.6636 H   0  0  0  0  0  0  0  0  0  0  0  0
    0.7120   -2.4473  -12.9088 H   0  0  0  0  0  0  0  0  0  0  0  0
   -2.4240   -2.4487  -12.4016 H   0  0  0  0  0  0  0  0  0  0  0  0
    0.7485   -5.9466  -10.6521 H   0  0  0  0  0  0  0  0  0  0  0  0
   -0.1053   -5.6522   -9.1284 H   0  0  0  0  0  0  0  0  0  0  0  0
    1.0698    0.8509  -12.7595 H   0  0  0  0  0  0  0  0  0  0  0  0
   -0.5223    1.6284  -12.7859 H   0  0  0  0  0  0  0  0  0  0  0  0
    0.8989    2.5645  -12.4026 H   0  0  0  0  0  0  0  0  0  0  0  0
   -1.0855    1.8809   -9.1059 H   0  0  0  0  0  0  0  0  0  0  0  0
   -1.7305    2.2016  -10.7046 H   0  0  0  0  0  0  0  0  0  0  0  0
    1.3097    4.8439   -9.2076 H   0  0  0  0  0  0  0  0  0  0  0  0
   -0.8402   -6.0337  -12.5762 H   0  0  0  0  0  0  0  0  0  0  0  0
   -3.4884   -1.6584  -10.6752 H   0  0  0  0  0  0  0  0  0  0  0  0
   -1.1261    4.2547   -9.4410 H   0  0  0  0  0  0  0  0  0  0  0  0
   -0.2337    4.1426  -10.9530 H   0  0  0  0  0  0  0  0  0  0  0  0
    0.1265    4.1101   -7.4739 H   0  0  0  0  0  0  0  0  0  0  0  0
   -1.4272   -7.3236  -10.2859 H   0  0  0  0  0  0  0  0  0  0  0  0
   -3.0792   -7.0011  -10.7427 H   0  0  0  0  0  0  0  0  0  0  0  0
   -2.5370   -4.5009  -13.4177 H   0  0  0  0  0  0  0  0  0  0  0  0
   -3.6189   -4.8494  -12.0581 H   0  0  0  0  0  0  0  0  0  0  0  0
   -3.3067   -6.0542  -13.3078 H   0  0  0  0  0  0  0  0  0  0  0  0
   -2.5024   -8.1922  -13.0139 H   0  0  0  0  0  0  0  0  0  0  0  0
   -2.6656   -9.1725  -11.5649 H   0  0  0  0  0  0  0  0  0  0  0  0
    0.8377   -9.9203  -11.3116 H   0  0  0  0  0  0  0  0  0  0  0  0
  2  1  1  0  0  0  0 
  3  2  1  0  0  0  0 
  2  4  1  0  0  0  0 
  5  3  1  0  0  0  0 
  3  6  1  0  0  0  0 
  3 30  1  0  0  0  0 
  7  4  1  0  0  0  0 
  8  5  1  0  0  0  0 
  5  9  1  0  0  0  0 
  5 32  1  0  0  0  0 
  6 10  1  0  0  0  0 
  6 11  1  0  0  0  0 
  6 31  1  0  0  0  0 
 10  7  1  0  0  0  0 
  7 12  1  0  0  0  0 
  7 33  1  0  0  0  0 
  8 13  1  0  0  0  0 
  8 14  1  0  0  0  0 
 15  8  1  0  0  0  0 
  9 16  1  0  0  0  0 
 10 17  1  0  0  0  0 
 10 18  1  0  0  0  0 
 15 11  1  0  0  0  0 
 19 12  1  0  0  0  0 
 14 16  1  0  0  0  0 
 14 20  1  0  0  0  0 
 14 34  1  0  0  0  0 
 15 21  1  0  0  0  0 
 18 22  1  0  0  0  0 
 19 22  1  0  0  0  0 
 19 23  1  0  0  0  0 
 20 24  1  0  0  0  0 
 20 25  1  0  0  0  0 
 24 26  1  0  0  0  0 
 26 27  1  0  0  0  0 
 27 28  1  0  0  0  0 
 27 29  2  0  0  0  0 
  1 35  1  0  0  0  0 
  2 36  1  0  0  0  0 
  4 37  1  0  0  0  0 
  4 38  1  0  0  0  0 
  9 39  1  0  0  0  0 
  9 40  1  0  0  0  0 
 11 41  1  0  0  0  0 
 11 42  1  0  0  0  0 
 12 43  1  0  0  0  0 
 12 44  1  0  0  0  0 
 13 45  1  0  0  0  0 
 13 46  1  0  0  0  0 
 13 47  1  0  0  0  0 
 15 48  1  0  0  0  0 
 16 49  1  0  0  0  0 
 16 50  1  0  0  0  0 
 17 51  1  0  0  0  0 
 17 52  1  0  0  0  0 
 17 53  1  0  0  0  0 
 18 54  1  0  0  0  0 
 18 55  1  0  0  0  0 
 19 56  1  0  0  0  0 
 20 57  1  0  0  0  0 
 21 58  1  0  0  0  0 
 22 59  1  0  0  0  0 
 22 60  1  0  0  0  0 
 23 61  1  0  0  0  0 
 24 62  1  0  0  0  0 
 24 63  1  0  0  0  0 
 25 64  1  0  0  0  0 
 25 65  1  0  0  0  0 
 25 66  1  0  0  0  0 
 26 67  1  0  0  0  0 
 26 68  1  0  0  0  0 
 28 69  1  0  0  0  0 
M  END
> <cdk:Title>
cholic acid

> <Conformer>
1

> <SuperDrugID>
SD002687

$$$$
