benfotiamine
  CDK     0628171801

 54 55  0  0  0  0  0  0  0  0999 V2000
    1.2604    2.2851    1.5334 C   0  0  0  0  0  0  0  0  0  0  0  0
    0.0027    2.6949    1.0619 C   0  0  0  0  0  0  0  0  0  0  0  0
   -0.8109    1.7926    0.3511 C   0  0  0  0  0  0  0  0  0  0  0  0
   -0.3895    0.4610    0.0902 C   0  0  0  0  0  0  0  0  0  0  0  0
    0.8901    0.0839    0.5671 C   0  0  0  0  0  0  0  0  0  0  0  0
    1.7034    0.9764    1.2869 C   0  0  0  0  0  0  0  0  0  0  0  0
   -1.2222   -0.4398   -0.6433 C   0  0  0  0  0  0  0  0  0  0  0  0
   -0.8134   -2.0886   -1.1057 S   0  0  0  0  0  0  0  0  0  0  0  0
   -2.3313   -0.0613   -1.0855 O   0  0  0  0  0  0  0  0  0  0  0  0
   -0.7863   -3.1095    0.3073 C   0  0  0  0  0  0  0  0  0  0  0  0
   -1.8905   -3.3457    1.0695 C   0  0  0  0  0  0  0  0  0  0  0  0
    0.5123   -3.7661    0.5377 C   0  0  1  0  0  0  0  0  0  0  0  0
    0.6503   -5.1125   -0.2149 C   0  0  2  0  0  0  0  0  0  0  0  0
    1.8819   -5.7419    0.1928 O   0  0  0  0  0  0  0  0  0  0  0  0
    2.2800   -7.0655   -0.6087 P   0  0  2  0  0  0  0  0  0  0  0  0
   -1.8492   -4.1798    2.2764 C   0  0  0  0  0  0  0  0  0  0  0  0
   -3.1134   -2.8403    0.7680 N   0  0  0  0  0  0  0  0  0  0  0  0
   -4.0590   -3.6517    0.0067 C   0  0  2  0  0  0  0  0  0  0  0  0
   -3.4607   -1.6258    1.3185 C   0  0  0  0  0  0  0  0  0  0  0  0
   -4.5817   -1.0901    1.1578 O   0  0  0  0  0  0  0  0  0  0  0  0
   -3.5730   -4.0182   -1.3537 C   0  0  0  0  0  0  0  0  0  0  0  0
   -2.3371   -5.5295   -2.7618 N   0  0  0  0  0  0  0  0  0  0  0  0
   -2.8738   -5.2305   -1.5553 C   0  0  0  0  0  0  0  0  0  0  0  0
   -3.7297   -3.1863   -2.4915 C   0  0  0  0  0  0  0  0  0  0  0  0
   -3.1590   -3.5367   -3.6745 N   0  0  0  0  0  0  0  0  0  0  0  0
   -2.4512   -4.6886   -3.8191 C   0  0  0  0  0  0  0  0  0  0  0  0
   -1.7948   -5.0400   -5.0859 C   0  0  0  0  0  0  0  0  0  0  0  0
   -4.4220   -2.0316   -2.4629 N   0  0  0  0  0  0  0  0  0  0  0  0
    2.8450   -6.6616   -2.0337 O   0  0  0  0  0  0  0  0  0  0  0  0
    1.0131   -7.9947   -0.8070 O   0  0  0  0  0  0  0  0  0  0  0  0
    3.3136   -7.7900    0.1385 O   0  0  0  0  0  0  0  0  0  0  0  0
    1.8539    2.9378    2.0510 H   0  0  0  0  0  0  0  0  0  0  0  0
   -0.3185    3.6500    1.2357 H   0  0  0  0  0  0  0  0  0  0  0  0
   -1.7181    2.1299    0.0209 H   0  0  0  0  0  0  0  0  0  0  0  0
    1.2598   -0.8452    0.3954 H   0  0  0  0  0  0  0  0  0  0  0  0
    2.6188    0.6745    1.6268 H   0  0  0  0  0  0  0  0  0  0  0  0
    1.3378   -3.1349    0.2075 H   0  0  0  0  0  0  0  0  0  0  0  0
    0.6945   -3.9372    1.6000 H   0  0  0  0  0  0  0  0  0  0  0  0
    0.6333   -4.9217   -1.2921 H   0  0  0  0  0  0  0  0  0  0  0  0
   -0.1942   -5.7578    0.0380 H   0  0  0  0  0  0  0  0  0  0  0  0
   -1.4867   -5.1809    2.0411 H   0  0  0  0  0  0  0  0  0  0  0  0
   -2.8317   -4.2906    2.7413 H   0  0  0  0  0  0  0  0  0  0  0  0
   -1.1945   -3.7274    3.0231 H   0  0  0  0  0  0  0  0  0  0  0  0
   -5.0343   -3.1731   -0.0938 H   0  0  0  0  0  0  0  0  0  0  0  0
   -4.2616   -4.5655    0.5725 H   0  0  0  0  0  0  0  0  0  0  0  0
   -2.7908   -1.1072    1.8969 H   0  0  0  0  0  0  0  0  0  0  0  0
   -2.7453   -5.8983   -0.7921 H   0  0  0  0  0  0  0  0  0  0  0  0
   -1.8574   -4.2195   -5.8004 H   0  0  0  0  0  0  0  0  0  0  0  0
   -2.2720   -5.9235   -5.5176 H   0  0  0  0  0  0  0  0  0  0  0  0
   -0.7401   -5.2568   -4.9021 H   0  0  0  0  0  0  0  0  0  0  0  0
   -4.8291   -1.7206   -1.6389 H   0  0  0  0  0  0  0  0  0  0  0  0
   -4.5185   -1.5046   -3.2716 H   0  0  0  0  0  0  0  0  0  0  0  0
    2.1333   -6.1326   -2.4473 H   0  0  0  0  0  0  0  0  0  0  0  0
    0.3644   -7.4283   -1.2742 H   0  0  0  0  0  0  0  0  0  0  0  0
  1  2  2  0  0  0  0 
  2  3  1  0  0  0  0 
  3  4  2  0  0  0  0 
  4  5  1  0  0  0  0 
  5  6  2  0  0  0  0 
  1  6  1  0  0  0  0 
  4  7  1  0  0  0  0 
  7  8  1  0  0  0  0 
  7  9  2  0  0  0  0 
  8 10  1  0  0  0  0 
 10 11  2  0  0  0  0 
 10 12  1  0  0  0  0 
 12 13  1  0  0  0  0 
 13 14  1  0  0  0  0 
 14 15  1  0  0  0  0 
 11 16  1  0  0  0  0 
 11 17  1  0  0  0  0 
 17 18  1  0  0  0  0 
 17 19  1  0  0  0  0 
 19 20  2  0  0  0  0 
 18 21  1  0  0  0  0 
 23 21  2  0  0  0  0 
 21 24  1  0  0  0  0 
 22 23  1  0  0  0  0 
 24 25  2  0  0  0  0 
 25 26  1  0  0  0  0 
 22 26  2  0  0  0  0 
 26 27  1  0  0  0  0 
 24 28  1  0  0  0  0 
 15 29  1  0  0  0  0 
 15 30  1  0  0  0  0 
 15 31  2  0  0  0  0 
  1 32  1  0  0  0  0 
  2 33  1  0  0  0  0 
  3 34  1  0  0  0  0 
  5 35  1  0  0  0  0 
  6 36  1  0  0  0  0 
 12 37  1  0  0  0  0 
 12 38  1  0  0  0  0 
 13 39  1  0  0  0  0 
 13 40  1  0  0  0  0 
 16 41  1  0  0  0  0 
 16 42  1  0  0  0  0 
 16 43  1  0  0  0  0 
 18 44  1  0  0  0  0 
 18 45  1  0  0  0  0 
 19 46  1  0  0  0  0 
 23 47  1  0  0  0  0 
 27 48  1  0  0  0  0 
 27 49  1  0  0  0  0 
 27 50  1  0  0  0  0 
 28 51  1  0  0  0  0 
 28 52  1  0  0  0  0 
 29 53  1  0  0  0  0 
 30 54  1  0  0  0  0 
M  END
> <cdk:Title>
benfotiamine

> <Conformer>
1

> <SuperDrugID>
SD000258

$$$$
