droperidol
  CDK     0628171802

 50 53  0  0  0  0  0  0  0  0999 V2000
    9.6339    4.4649    5.1362 O   0  0  0  0  0  0  0  0  0  0  0  0
    9.3489    5.5507    5.6881 C   0  0  0  0  0  0  0  0  0  0  0  0
    8.6567    5.8113    6.8471 N   0  0  0  0  0  0  0  0  0  0  0  0
    9.7665    6.6598    5.0779 N   0  0  0  0  0  0  0  0  0  0  0  0
    8.7188    7.1868    6.9447 C   0  0  0  0  0  0  0  0  0  0  0  0
    8.0364    4.8787    7.6787 C   0  0  0  0  0  0  0  0  0  0  0  0
    9.3795    7.6864    5.8149 C   0  0  0  0  0  0  0  0  0  0  0  0
    8.2835    8.1504    7.8949 C   0  0  0  0  0  0  0  0  0  0  0  0
    7.2966    5.3126    8.8757 C   0  0  1  0  0  0  0  0  0  0  0  0
    8.0621    3.5416    7.4399 C   0  0  0  0  0  0  0  0  0  0  0  0
    9.5797    9.0504    5.5503 C   0  0  0  0  0  0  0  0  0  0  0  0
    8.4608    9.5317    7.6574 C   0  0  0  0  0  0  0  0  0  0  0  0
    6.4492    4.2532    9.6345 C   0  0  1  0  0  0  0  0  0  0  0  0
    7.4574    2.5086    8.2673 C   0  0  2  0  0  0  0  0  0  0  0  0
    9.0994    9.9811    6.4855 C   0  0  0  0  0  0  0  0  0  0  0  0
    7.1525    2.9422    9.6626 N   0  0  2  0  0  0  0  0  0  0  0  0
    6.4285    1.9148   10.4859 C   0  0  2  0  0  0  0  0  0  0  0  0
    7.1977    0.5904   10.7565 C   0  0  1  0  0  0  0  0  0  0  0  0
    8.6433    0.8093   11.2843 C   0  0  2  0  0  0  0  0  0  0  0  0
    9.3848   -0.4602   11.5299 C   0  0  0  0  0  0  0  0  0  0  0  0
   10.3165   -0.7074   10.7255 O   0  0  0  0  0  0  0  0  0  0  0  0
    9.1205   -1.3786   12.6001 C   0  0  0  0  0  0  0  0  0  0  0  0
    9.7719   -2.6409   12.6538 C   0  0  0  0  0  0  0  0  0  0  0  0
    8.2145   -1.0722   13.6490 C   0  0  0  0  0  0  0  0  0  0  0  0
    9.5275   -3.5503   13.6997 C   0  0  0  0  0  0  0  0  0  0  0  0
    7.9525   -1.9858   14.6852 C   0  0  0  0  0  0  0  0  0  0  0  0
    8.6117   -3.2257   14.7147 C   0  0  0  0  0  0  0  0  0  0  0  0
    8.3765   -4.0698   15.6813 F   0  0  0  0  0  0  0  0  0  0  0  0
   10.2644    6.7059    4.2464 H   0  0  0  0  0  0  0  0  0  0  0  0
    7.8439    7.8963    8.7713 H   0  0  0  0  0  0  0  0  0  0  0  0
    8.0227    5.7236    9.5827 H   0  0  0  0  0  0  0  0  0  0  0  0
    6.5830    6.0859    8.5854 H   0  0  0  0  0  0  0  0  0  0  0  0
    8.5072    3.1815    6.6415 H   0  0  0  0  0  0  0  0  0  0  0  0
   10.0606    9.3558    4.7009 H   0  0  0  0  0  0  0  0  0  0  0  0
    8.1242   10.2150    8.3410 H   0  0  0  0  0  0  0  0  0  0  0  0
    6.2711    4.6125   10.6528 H   0  0  0  0  0  0  0  0  0  0  0  0
    5.4742    4.1446    9.1458 H   0  0  0  0  0  0  0  0  0  0  0  0
    8.1566    1.6700    8.3060 H   0  0  0  0  0  0  0  0  0  0  0  0
    6.5501    2.1637    7.7622 H   0  0  0  0  0  0  0  0  0  0  0  0
    9.2195   10.9817    6.3160 H   0  0  0  0  0  0  0  0  0  0  0  0
    5.4716    1.6692   10.0137 H   0  0  0  0  0  0  0  0  0  0  0  0
    6.2012    2.3465   11.4643 H   0  0  0  0  0  0  0  0  0  0  0  0
    6.6221    0.0172   11.4880 H   0  0  0  0  0  0  0  0  0  0  0  0
    7.2277   -0.0054    9.8413 H   0  0  0  0  0  0  0  0  0  0  0  0
    8.6212    1.4035   12.1989 H   0  0  0  0  0  0  0  0  0  0  0  0
    9.1893    1.4044   10.5469 H   0  0  0  0  0  0  0  0  0  0  0  0
   10.4365   -2.9206   11.9278 H   0  0  0  0  0  0  0  0  0  0  0  0
    7.7273   -0.1765   13.6831 H   0  0  0  0  0  0  0  0  0  0  0  0
   10.0173   -4.4483   13.7179 H   0  0  0  0  0  0  0  0  0  0  0  0
    7.2817   -1.7421   15.4177 H   0  0  0  0  0  0  0  0  0  0  0  0
  1  2  2  0  0  0  0 
  2  3  1  0  0  0  0 
  2  4  1  0  0  0  0 
  3  5  1  0  0  0  0 
  3  6  1  0  0  0  0 
  4  7  1  0  0  0  0 
  5  7  1  0  0  0  0 
  5  8  2  0  0  0  0 
  6  9  1  0  0  0  0 
  6 10  2  0  0  0  0 
  7 11  2  0  0  0  0 
  8 12  1  0  0  0  0 
  9 13  1  0  0  0  0 
 10 14  1  0  0  0  0 
 11 15  1  0  0  0  0 
 12 15  2  0  0  0  0 
 13 16  1  0  0  0  0 
 14 16  1  0  0  0  0 
 16 17  1  0  0  0  0 
 17 18  1  0  0  0  0 
 18 19  1  0  0  0  0 
 19 20  1  0  0  0  0 
 20 21  2  0  0  0  0 
 20 22  1  0  0  0  0 
 22 23  2  0  0  0  0 
 22 24  1  0  0  0  0 
 23 25  1  0  0  0  0 
 24 26  2  0  0  0  0 
 25 27  2  0  0  0  0 
 26 27  1  0  0  0  0 
 27 28  1  0  0  0  0 
 29  4  1  0  0  0  0 
 30  8  1  0  0  0  0 
 31  9  1  0  0  0  0 
 32  9  1  0  0  0  0 
 33 10  1  0  0  0  0 
 34 11  1  0  0  0  0 
 35 12  1  0  0  0  0 
 36 13  1  0  0  0  0 
 37 13  1  0  0  0  0 
 38 14  1  0  0  0  0 
 39 14  1  0  0  0  0 
 40 15  1  0  0  0  0 
 41 17  1  0  0  0  0 
 42 17  1  0  0  0  0 
 43 18  1  0  0  0  0 
 44 18  1  0  0  0  0 
 45 19  1  0  0  0  0 
 46 19  1  0  0  0  0 
 47 23  1  0  0  0  0 
 48 24  1  0  0  0  0 
 49 25  1  0  0  0  0 
 50 26  1  0  0  0  0 
M  END
> <cdk:Title>
droperidol

> <Conformer>
1

> <SuperDrugID>
SD000856

$$$$
