tafluprost
  CDK     0628171801

 66 67  0  0  0  0  0  0  0  0999 V2000
   -1.4882   -5.6587   -4.9561 C   0  0  1  0  0  0  0  0  0  0  0  0
   -0.5543   -6.6877   -4.5069 C   0  0  0  0  0  0  0  0  0  0  0  0
   -2.8728   -5.7197   -4.2205 C   0  0  2  0  0  0  0  0  0  0  0  0
    0.2570   -6.6135   -3.4349 C   0  0  0  0  0  0  0  0  0  0  0  0
   -3.7482   -6.9663   -4.6119 C   0  0  1  0  0  0  0  0  0  0  0  0
   -3.8048   -4.5131   -4.5062 C   0  0  1  0  0  0  0  0  0  0  0  0
    0.3495   -5.4670   -2.5389 C   0  0  1  0  0  0  0  0  0  0  0  0
   -4.2571   -7.7201   -3.4609 C   0  0  0  0  0  0  0  0  0  0  0  0
   -4.9047   -6.4191   -5.5091 C   0  0  1  0  0  0  0  0  0  0  0  0
   -3.1241   -3.2719   -4.6820 O   0  0  0  0  0  0  0  0  0  0  0  0
   -4.6075   -4.9279   -5.7478 C   0  0  1  0  0  0  0  0  0  0  0  0
    1.3937   -5.6524   -1.4072 C   0  0  1  0  0  0  0  0  0  0  0  0
   -4.9414   -8.8720   -3.5836 C   0  0  0  0  0  0  0  0  0  0  0  0
   -5.0010   -7.1331   -6.7413 O   0  0  0  0  0  0  0  0  0  0  0  0
    1.4625   -4.4012   -0.4912 C   0  0  2  0  0  0  0  0  0  0  0  0
   -5.4931   -9.6084   -2.4493 C   0  0  2  0  0  0  0  0  0  0  0  0
    2.5531   -4.5286    0.4920 C   0  0  0  0  0  0  0  0  0  0  0  0
   -6.5173   -8.7807   -1.6254 C   0  0  2  0  0  0  0  0  0  0  0  0
   -4.4670  -10.0174   -1.6273 F   0  0  0  0  0  0  0  0  0  0  0  0
   -6.1068  -10.7613   -2.8899 F   0  0  0  0  0  0  0  0  0  0  0  0
    2.2424   -4.7268    1.8057 O   0  0  0  0  0  0  0  0  0  0  0  0
    3.7443   -4.4503    0.1060 O   0  0  0  0  0  0  0  0  0  0  0  0
   -7.5343   -8.2203   -2.4857 O   0  0  0  0  0  0  0  0  0  0  0  0
    3.1528   -4.9758    2.8864 C   0  0  2  0  0  0  0  0  0  0  0  0
   -8.3857   -7.3715   -1.8308 C   0  0  0  0  0  0  0  0  0  0  0  0
    3.7379   -6.4065    2.7855 C   0  0  0  0  0  0  0  0  0  0  0  0
    2.3949   -4.7564    4.2159 C   0  0  0  0  0  0  0  0  0  0  0  0
   -9.5357   -7.8731   -1.1854 C   0  0  0  0  0  0  0  0  0  0  0  0
   -8.1322   -5.9828   -1.8206 C   0  0  0  0  0  0  0  0  0  0  0  0
  -10.4167   -6.9963   -0.5248 C   0  0  0  0  0  0  0  0  0  0  0  0
   -9.0150   -5.1070   -1.1599 C   0  0  0  0  0  0  0  0  0  0  0  0
  -10.1593   -5.6129   -0.5155 C   0  0  0  0  0  0  0  0  0  0  0  0
   -1.0286   -4.6769   -4.8206 H   0  0  0  0  0  0  0  0  0  0  0  0
   -1.6445   -5.7723   -6.0331 H   0  0  0  0  0  0  0  0  0  0  0  0
   -0.5204   -7.5273   -5.0415 H   0  0  0  0  0  0  0  0  0  0  0  0
   -2.6634   -5.6986   -3.1493 H   0  0  0  0  0  0  0  0  0  0  0  0
    0.8357   -7.4035   -3.2531 H   0  0  0  0  0  0  0  0  0  0  0  0
   -3.1439   -7.6611   -5.2048 H   0  0  0  0  0  0  0  0  0  0  0  0
   -4.4973   -4.3868   -3.6641 H   0  0  0  0  0  0  0  0  0  0  0  0
    0.7093   -4.5912   -3.1678 H   0  0  0  0  0  0  0  0  0  0  0  0
   -0.6540   -5.3678   -2.0206 H   0  0  0  0  0  0  0  0  0  0  0  0
   -4.1112   -7.3565   -2.5464 H   0  0  0  0  0  0  0  0  0  0  0  0
   -5.8742   -6.4927   -5.0032 H   0  0  0  0  0  0  0  0  0  0  0  0
   -3.8313   -2.6049   -4.7933 H   0  0  0  0  0  0  0  0  0  0  0  0
   -5.5280   -4.3446   -5.8401 H   0  0  0  0  0  0  0  0  0  0  0  0
   -4.0062   -4.7935   -6.6506 H   0  0  0  0  0  0  0  0  0  0  0  0
    1.1189   -6.5211   -0.7974 H   0  0  0  0  0  0  0  0  0  0  0  0
    2.3749   -5.8380   -1.8566 H   0  0  0  0  0  0  0  0  0  0  0  0
   -5.0934   -9.2344   -4.4983 H   0  0  0  0  0  0  0  0  0  0  0  0
   -5.7143   -6.6863   -7.2423 H   0  0  0  0  0  0  0  0  0  0  0  0
    0.5040   -4.2927    0.0273 H   0  0  0  0  0  0  0  0  0  0  0  0
    1.6192   -3.4951   -1.0857 H   0  0  0  0  0  0  0  0  0  0  0  0
   -5.9814   -7.9843   -1.0957 H   0  0  0  0  0  0  0  0  0  0  0  0
   -6.9814   -9.4345   -0.8789 H   0  0  0  0  0  0  0  0  0  0  0  0
    3.9703   -4.2496    2.8465 H   0  0  0  0  0  0  0  0  0  0  0  0
    4.4320   -6.5836    3.6093 H   0  0  0  0  0  0  0  0  0  0  0  0
    4.2825   -6.5277    1.8473 H   0  0  0  0  0  0  0  0  0  0  0  0
    2.9411   -7.1542    2.8205 H   0  0  0  0  0  0  0  0  0  0  0  0
    3.0641   -4.9040    5.0643 H   0  0  0  0  0  0  0  0  0  0  0  0
    2.0091   -3.7372    4.2598 H   0  0  0  0  0  0  0  0  0  0  0  0
    1.5557   -5.4476    4.3081 H   0  0  0  0  0  0  0  0  0  0  0  0
   -9.7315   -8.8761   -1.1972 H   0  0  0  0  0  0  0  0  0  0  0  0
   -7.3068   -5.6088   -2.2942 H   0  0  0  0  0  0  0  0  0  0  0  0
  -11.2442   -7.3657   -0.0526 H   0  0  0  0  0  0  0  0  0  0  0  0
   -8.8249   -4.1027   -1.1489 H   0  0  0  0  0  0  0  0  0  0  0  0
  -10.8042   -4.9756   -0.0410 H   0  0  0  0  0  0  0  0  0  0  0  0
  1  2  1  0  0  0  0 
  2  4  2  0  0  0  0 
  3  1  1  0  0  0  0 
  5  3  1  0  0  0  0 
  3  6  1  0  0  0  0 
  4  7  1  0  0  0  0 
  5  8  1  0  0  0  0 
  9  5  1  0  0  0  0 
  6 10  1  0  0  0  0 
  6 11  1  0  0  0  0 
  7 12  1  0  0  0  0 
  8 13  2  0  0  0  0 
  9 11  1  0  0  0  0 
  9 14  1  0  0  0  0 
 12 15  1  0  0  0  0 
 13 16  1  0  0  0  0 
 15 17  1  0  0  0  0 
 16 18  1  0  0  0  0 
 16 19  1  0  0  0  0 
 16 20  1  0  0  0  0 
 17 21  1  0  0  0  0 
 17 22  2  0  0  0  0 
 18 23  1  0  0  0  0 
 21 24  1  0  0  0  0 
 23 25  1  0  0  0  0 
 24 26  1  0  0  0  0 
 24 27  1  0  0  0  0 
 25 28  2  0  0  0  0 
 25 29  1  0  0  0  0 
 28 30  1  0  0  0  0 
 29 31  2  0  0  0  0 
 30 32  2  0  0  0  0 
 31 32  1  0  0  0  0 
  1 33  1  0  0  0  0 
  1 34  1  0  0  0  0 
  2 35  1  0  0  0  0 
  3 36  1  0  0  0  0 
  4 37  1  0  0  0  0 
  5 38  1  0  0  0  0 
  6 39  1  0  0  0  0 
  7 40  1  0  0  0  0 
  7 41  1  0  0  0  0 
  8 42  1  0  0  0  0 
  9 43  1  0  0  0  0 
 10 44  1  0  0  0  0 
 11 45  1  0  0  0  0 
 11 46  1  0  0  0  0 
 12 47  1  0  0  0  0 
 12 48  1  0  0  0  0 
 13 49  1  0  0  0  0 
 14 50  1  0  0  0  0 
 15 51  1  0  0  0  0 
 15 52  1  0  0  0  0 
 18 53  1  0  0  0  0 
 18 54  1  0  0  0  0 
 24 55  1  0  0  0  0 
 26 56  1  0  0  0  0 
 26 57  1  0  0  0  0 
 26 58  1  0  0  0  0 
 27 59  1  0  0  0  0 
 27 60  1  0  0  0  0 
 27 61  1  0  0  0  0 
 28 62  1  0  0  0  0 
 29 63  1  0  0  0  0 
 30 64  1  0  0  0  0 
 31 65  1  0  0  0  0 
 32 66  1  0  0  0  0 
M  END
> <cdk:Title>
tafluprost

> <Conformer>
1

> <SuperDrugID>
SD003440

$$$$
