midostaurin
  Mrv0541 09131710103D             181.98824

 73 81  0  0  0  0            999 V2000
   -0.7621    0.5815   -1.7674 C   0  0  0  0  0  0  0  0  0  0  0  0
   -0.8956   -0.1643   -0.5486 O   0  0  0  0  0  0  0  0  0  0  0  0
   -0.9372    0.5789    0.6900 C   0  0  2  0  0  0  0  0  0  0  0  0
    0.3494    0.2888    1.5549 C   0  0  1  0  0  0  0  0  0  0  0  0
    0.1703    0.9074    2.9857 C   0  0  2  0  0  0  0  0  0  0  0  0
   -1.2429    0.7375    3.6215 C   0  0  1  0  0  0  0  0  0  0  0  0
   -2.3140    0.9521    2.7000 O   0  0  0  0  0  0  0  0  0  0  0  0
   -2.3028    0.2890    1.4135 C   0  0  1  0  0  0  0  0  0  0  0  0
   -3.4792    1.1061    0.7738 C   0  0  0  0  0  0  0  0  0  0  0  0
   -2.6120   -1.1434    1.4943 N   0  0  0  0  0  0  0  0  0  0  0  0
   -3.1057   -1.9697    0.5145 C   0  0  0  0  0  0  0  0  0  0  0  0
   -3.4292   -1.7452   -0.8477 C   0  0  0  0  0  0  0  0  0  0  0  0
   -3.9780   -2.7746   -1.6378 C   0  0  0  0  0  0  0  0  0  0  0  0
   -4.1919   -4.0525   -1.0906 C   0  0  0  0  0  0  0  0  0  0  0  0
   -3.8443   -4.3097    0.2480 C   0  0  0  0  0  0  0  0  0  0  0  0
   -3.3047   -3.2615    1.0229 C   0  0  0  0  0  0  0  0  0  0  0  0
   -2.8739   -3.2355    2.3390 C   0  0  0  0  0  0  0  0  0  0  0  0
   -2.7685   -4.2479    3.3157 C   0  0  0  0  0  0  0  0  0  0  0  0
   -3.0542   -5.6835    3.2098 C   0  0  1  0  0  0  0  0  0  0  0  0
   -2.6499   -6.1328    4.4905 N   0  0  0  0  0  0  0  0  0  0  0  0
   -2.2192   -5.1442    5.2880 C   0  0  0  0  0  0  0  0  0  0  0  0
   -1.7894   -5.3555    6.4407 O   0  0  0  0  0  0  0  0  0  0  0  0
   -2.2859   -3.9378    4.5931 C   0  0  0  0  0  0  0  0  0  0  0  0
   -1.9236   -2.6040    4.9027 C   0  0  0  0  0  0  0  0  0  0  0  0
   -1.4525   -1.9659    6.0502 C   0  0  0  0  0  0  0  0  0  0  0  0
   -1.2856   -2.3925    7.3827 C   0  0  0  0  0  0  0  0  0  0  0  0
   -0.7464   -1.4992    8.3289 C   0  0  0  0  0  0  0  0  0  0  0  0
   -0.3836   -0.1917    7.9493 C   0  0  0  0  0  0  0  0  0  0  0  0
   -0.5778    0.2400    6.6224 C   0  0  0  0  0  0  0  0  0  0  0  0
   -1.1330   -0.6544    5.6780 C   0  0  0  0  0  0  0  0  0  0  0  0
   -1.4457   -0.4650    4.3718 N   0  0  0  0  0  0  0  0  0  0  0  0
   -1.9737   -1.6169    3.8986 C   0  0  0  0  0  0  0  0  0  0  0  0
   -2.4694   -1.9190    2.6059 C   0  0  0  0  0  0  0  0  0  0  0  0
    0.9372   -1.0607    1.4169 N   0  0  0  0  0  0  0  0  0  0  0  0
    0.9115   -2.0582    2.4727 C   0  0  0  0  0  0  0  0  0  0  0  0
    1.5879   -1.4220    0.2297 C   0  0  0  0  0  0  0  0  0  0  0  0
    1.8824   -0.5836   -0.6554 O   0  0  0  0  0  0  0  0  0  0  0  0
    1.9872   -2.7396   -0.0868 C   0  0  0  0  0  0  0  0  0  0  0  0
    1.0302   -3.6919   -0.5094 C   0  0  0  0  0  0  0  0  0  0  0  0
    1.4184   -5.0246   -0.7451 C   0  0  0  0  0  0  0  0  0  0  0  0
    2.7631   -5.4052   -0.5794 C   0  0  0  0  0  0  0  0  0  0  0  0
    3.7238   -4.4546   -0.1911 C   0  0  0  0  0  0  0  0  0  0  0  0
    3.3377   -3.1251    0.0587 C   0  0  0  0  0  0  0  0  0  0  0  0
   -1.6046    1.2584   -1.9051 H   0  0  0  0  0  0  0  0  0  0  0  0
   -0.7516   -0.1264   -2.5951 H   0  0  0  0  0  0  0  0  0  0  0  0
    0.1703    1.1459   -1.7753 H   0  0  0  0  0  0  0  0  0  0  0  0
   -0.9255    1.6625    0.4993 H   0  0  0  0  0  0  0  0  0  0  0  0
    1.1223    0.9403    1.1256 H   0  0  0  0  0  0  0  0  0  0  0  0
    0.3259    1.9880    2.8904 H   0  0  0  0  0  0  0  0  0  0  0  0
    0.9510    0.5606    3.6687 H   0  0  0  0  0  0  0  0  0  0  0  0
   -1.3750    1.5678    4.3202 H   0  0  0  0  0  0  0  0  0  0  0  0
   -3.4010    2.1760    0.9946 H   0  0  0  0  0  0  0  0  0  0  0  0
   -3.5010    1.0417   -0.3069 H   0  0  0  0  0  0  0  0  0  0  0  0
   -4.4369    0.7533    1.1613 H   0  0  0  0  0  0  0  0  0  0  0  0
   -3.2697   -0.8528   -1.2983 H   0  0  0  0  0  0  0  0  0  0  0  0
   -4.2224   -2.5933   -2.6153 H   0  0  0  0  0  0  0  0  0  0  0  0
   -4.5992   -4.7922   -1.6680 H   0  0  0  0  0  0  0  0  0  0  0  0
   -3.9955   -5.2420    0.6325 H   0  0  0  0  0  0  0  0  0  0  0  0
   -4.1160   -5.8733    3.0516 H   0  0  0  0  0  0  0  0  0  0  0  0
   -2.4501   -6.1555    2.4338 H   0  0  0  0  0  0  0  0  0  0  0  0
   -2.6648   -7.0649    4.7592 H   0  0  0  0  0  0  0  0  0  0  0  0
   -1.5625   -3.3210    7.6834 H   0  0  0  0  0  0  0  0  0  0  0  0
   -0.6206   -1.8006    9.2970 H   0  0  0  0  0  0  0  0  0  0  0  0
    0.0153    0.4465    8.6422 H   0  0  0  0  0  0  0  0  0  0  0  0
   -0.3224    1.1954    6.3656 H   0  0  0  0  0  0  0  0  0  0  0  0
    0.2055   -2.8510    2.2229 H   0  0  0  0  0  0  0  0  0  0  0  0
    0.6560   -1.6639    3.4437 H   0  0  0  0  0  0  0  0  0  0  0  0
    1.8979   -2.5107    2.6129 H   0  0  0  0  0  0  0  0  0  0  0  0
    0.0494   -3.4266   -0.6381 H   0  0  0  0  0  0  0  0  0  0  0  0
    0.7270   -5.7220   -1.0314 H   0  0  0  0  0  0  0  0  0  0  0  0
    3.0436   -6.3753   -0.7388 H   0  0  0  0  0  0  0  0  0  0  0  0
    4.7015   -4.7318   -0.0800 H   0  0  0  0  0  0  0  0  0  0  0  0
    4.0420   -2.4485    0.3631 H   0  0  0  0  0  0  0  0  0  0  0  0
  1  2  1  0  0  0  0
  3  2  1  0  0  0  0
  3  4  1  0  0  0  0
  4  5  1  0  0  0  0
  6  5  1  0  0  0  0
  6  7  1  0  0  0  0
  7  8  1  0  0  0  0
  8  9  1  0  0  0  0
  8 10  1  0  0  0  0
 10 11  1  0  0  0  0
 11 12  2  0  0  0  0
 12 13  1  0  0  0  0
 13 14  2  0  0  0  0
 14 15  1  0  0  0  0
 15 16  2  0  0  0  0
 16 17  1  0  0  0  0
 17 18  2  0  0  0  0
 18 19  1  0  0  0  0
 19 20  1  0  0  0  0
 20 21  1  0  0  0  0
 21 22  2  0  0  0  0
 21 23  1  0  0  0  0
 23 24  2  0  0  0  0
 24 25  1  0  0  0  0
 25 26  2  0  0  0  0
 26 27  1  0  0  0  0
 27 28  2  0  0  0  0
 28 29  1  0  0  0  0
 29 30  2  0  0  0  0
 30 31  1  0  0  0  0
 31 32  1  0  0  0  0
 32 33  2  0  0  0  0
  4 34  1  0  0  0  0
 34 35  1  0  0  0  0
 34 36  1  0  0  0  0
 36 37  2  0  0  0  0
 36 38  1  0  0  0  0
 38 39  2  0  0  0  0
 39 40  1  0  0  0  0
 40 41  2  0  0  0  0
 41 42  1  0  0  0  0
 42 43  2  0  0  0  0
  8  3  1  0  0  0  0
 33 10  1  0  0  0  0
 43 38  1  0  0  0  0
 31  6  1  0  0  0  0
 16 11  1  0  0  0  0
 33 17  1  0  0  0  0
 23 18  1  0  0  0  0
 32 24  1  0  0  0  0
 30 25  1  0  0  0  0
  1 44  1  0  0  0  0
  1 45  1  0  0  0  0
  1 46  1  0  0  0  0
  3 47  1  0  0  0  0
  4 48  1  0  0  0  0
  5 49  1  0  0  0  0
  5 50  1  0  0  0  0
  6 51  1  0  0  0  0
  9 52  1  0  0  0  0
  9 53  1  0  0  0  0
  9 54  1  0  0  0  0
 12 55  1  0  0  0  0
 13 56  1  0  0  0  0
 14 57  1  0  0  0  0
 15 58  1  0  0  0  0
 19 59  1  0  0  0  0
 19 60  1  0  0  0  0
 20 61  1  0  0  0  0
 26 62  1  0  0  0  0
 27 63  1  0  0  0  0
 28 64  1  0  0  0  0
 29 65  1  0  0  0  0
 35 66  1  0  0  0  0
 35 67  1  0  0  0  0
 35 68  1  0  0  0  0
 39 69  1  0  0  0  0
 40 70  1  0  0  0  0
 41 71  1  0  0  0  0
 42 72  1  0  0  0  0
 43 73  1  0  0  0  0
M  END
>  <SuperDrugID>
SD006001

>  <_MOLCOUNT>
1

$$$$
