azapropazone
  CDK     0628171801

 42 44  0  0  0  0  0  0  0  0999 V2000
    1.0738   -1.0190   -0.6081 C   0  0  0  0  0  0  0  0  0  0  0  0
    0.9002    0.1491    0.3877 C   0  0  2  0  0  0  0  0  0  0  0  0
    1.7810    1.3874    0.0648 C   0  0  2  0  0  0  0  0  0  0  0  0
    1.3472    2.1125   -1.1555 C   0  0  0  0  0  0  0  0  0  0  0  0
    0.2037    2.8864   -1.2932 C   0  0  0  0  0  0  0  0  0  0  0  0
   -0.6877    3.1392   -0.3011 O   0  0  0  0  0  0  0  0  0  0  0  0
    0.1567    3.3267   -2.5694 N   0  0  0  0  0  0  0  0  0  0  0  0
    1.2377    2.9535   -3.2256 N   0  0  0  0  0  0  0  0  0  0  0  0
    1.9778    2.1718   -2.3965 C   0  0  0  0  0  0  0  0  0  0  0  0
    3.0505    1.5781   -2.6534 O   0  0  0  0  0  0  0  0  0  0  0  0
    1.4811    3.3472   -4.5243 C   0  0  0  0  0  0  0  0  0  0  0  0
    2.6333    3.0366   -5.2922 C   0  0  0  0  0  0  0  0  0  0  0  0
    2.7818    3.4968   -6.6235 C   0  0  0  0  0  0  0  0  0  0  0  0
    3.9988    3.1609   -7.4025 C   0  0  0  0  0  0  0  0  0  0  0  0
    1.7558    4.2822   -7.1932 C   0  0  0  0  0  0  0  0  0  0  0  0
    0.6079    4.6040   -6.4536 C   0  0  0  0  0  0  0  0  0  0  0  0
    0.4740    4.1438   -5.1331 C   0  0  0  0  0  0  0  0  0  0  0  0
   -0.6404    4.4621   -4.4348 N   0  0  0  0  0  0  0  0  0  0  0  0
   -0.8350    4.0618   -3.1553 C   0  0  0  0  0  0  0  0  0  0  0  0
   -2.0059    4.4053   -2.5406 N   0  0  0  0  0  0  0  0  0  0  0  0
   -2.2729    5.7929   -2.2699 C   0  0  0  0  0  0  0  0  0  0  0  0
   -2.9995    3.4012   -2.2626 C   0  0  0  0  0  0  0  0  0  0  0  0
    0.7620   -0.7217   -1.6107 H   0  0  0  0  0  0  0  0  0  0  0  0
    0.4572   -1.8620   -0.2901 H   0  0  0  0  0  0  0  0  0  0  0  0
    2.1170   -1.3392   -0.6387 H   0  0  0  0  0  0  0  0  0  0  0  0
    1.1662   -0.2162    1.3820 H   0  0  0  0  0  0  0  0  0  0  0  0
   -0.1552    0.4332    0.4140 H   0  0  0  0  0  0  0  0  0  0  0  0
    2.8216    1.0725   -0.0398 H   0  0  0  0  0  0  0  0  0  0  0  0
    1.7418    2.0781    0.9105 H   0  0  0  0  0  0  0  0  0  0  0  0
   -0.2991    2.7456    0.5091 H   0  0  0  0  0  0  0  0  0  0  0  0
    3.3858    2.4789   -4.8882 H   0  0  0  0  0  0  0  0  0  0  0  0
    3.9565    3.5488   -8.4224 H   0  0  0  0  0  0  0  0  0  0  0  0
    4.8754    3.5881   -6.9156 H   0  0  0  0  0  0  0  0  0  0  0  0
    4.1167    2.0781   -7.4588 H   0  0  0  0  0  0  0  0  0  0  0  0
    1.8392    4.6323   -8.1516 H   0  0  0  0  0  0  0  0  0  0  0  0
   -0.1262    5.1760   -6.8796 H   0  0  0  0  0  0  0  0  0  0  0  0
   -3.0725    5.9109   -1.5346 H   0  0  0  0  0  0  0  0  0  0  0  0
   -2.5741    6.2983   -3.1907 H   0  0  0  0  0  0  0  0  0  0  0  0
   -1.3837    6.2888   -1.8698 H   0  0  0  0  0  0  0  0  0  0  0  0
   -3.9048    3.6199   -2.8336 H   0  0  0  0  0  0  0  0  0  0  0  0
   -2.6686    2.3929   -2.5306 H   0  0  0  0  0  0  0  0  0  0  0  0
   -3.2481    3.4002   -1.1990 H   0  0  0  0  0  0  0  0  0  0  0  0
  1  2  1  0  0  0  0 
  2  3  1  0  0  0  0 
  3  4  1  0  0  0  0 
  4  5  2  0  0  0  0 
  5  6  1  0  0  0  0 
  5  7  1  0  0  0  0 
  7  8  1  0  0  0  0 
  8  9  1  0  0  0  0 
  4  9  1  0  0  0  0 
  9 10  2  0  0  0  0 
  8 11  1  0  0  0  0 
 11 12  2  0  0  0  0 
 12 13  1  0  0  0  0 
 13 14  1  0  0  0  0 
 13 15  2  0  0  0  0 
 15 16  1  0  0  0  0 
 16 17  2  0  0  0  0 
 11 17  1  0  0  0  0 
 17 18  1  0  0  0  0 
 18 19  2  0  0  0  0 
  7 19  1  0  0  0  0 
 19 20  1  0  0  0  0 
 20 21  1  0  0  0  0 
 20 22  1  0  0  0  0 
 23  1  1  0  0  0  0 
 24  1  1  0  0  0  0 
 25  1  1  0  0  0  0 
 26  2  1  0  0  0  0 
 27  2  1  0  0  0  0 
 28  3  1  0  0  0  0 
 29  3  1  0  0  0  0 
 30  6  1  0  0  0  0 
 31 12  1  0  0  0  0 
 32 14  1  0  0  0  0 
 33 14  1  0  0  0  0 
 34 14  1  0  0  0  0 
 35 15  1  0  0  0  0 
 36 16  1  0  0  0  0 
 37 21  1  0  0  0  0 
 38 21  1  0  0  0  0 
 39 21  1  0  0  0  0 
 40 22  1  0  0  0  0 
 41 22  1  0  0  0  0 
 42 22  1  0  0  0  0 
M  END
> <cdk:Title>
azapropazone

> <Conformer>
1

> <SuperDrugID>
SD000220

$$$$
