citicoline
  CDK     0628171802

 57 58  0  0  0  0  0  0  0  0999 V2000
    0.8560    1.2542   -2.3811 O   0  0  0  0  0  0  0  0  0  0  0  0
    1.5848    0.0341   -2.2122 C   0  0  1  0  0  0  0  0  0  0  0  0
    2.0208   -0.1534   -0.7271 C   0  0  1  0  0  0  0  0  0  0  0  0
    0.6884   -1.1823   -2.4889 C   0  0  2  0  0  0  0  0  0  0  0  0
    1.2919   -1.3022   -0.2402 O   0  0  0  0  0  0  0  0  0  0  0  0
    3.4636   -0.2433   -0.5407 N   0  0  0  0  0  0  0  0  0  0  0  0
   -0.3503   -0.9232   -3.4305 O   0  0  0  0  0  0  0  0  0  0  0  0
    0.1551   -1.5009   -1.0815 C   0  0  2  0  0  0  0  0  0  0  0  0
    4.2827    0.8152   -0.8627 C   0  0  0  0  0  0  0  0  0  0  0  0
    4.0471   -1.3728   -0.0204 C   0  0  0  0  0  0  0  0  0  0  0  0
   -0.4451   -2.9166   -0.9116 C   0  0  2  0  0  0  0  0  0  0  0  0
    3.8493    1.8982   -1.3201 O   0  0  0  0  0  0  0  0  0  0  0  0
    5.6278    0.7320   -0.6977 N   0  0  0  0  0  0  0  0  0  0  0  0
    5.4329   -1.4677    0.1788 C   0  0  0  0  0  0  0  0  0  0  0  0
    0.4144   -3.9365   -1.4596 O   0  0  0  0  0  0  0  0  0  0  0  0
    6.2253   -0.3731   -0.1925 C   0  0  0  0  0  0  0  0  0  0  0  0
   -0.0783   -5.4483   -1.2748 P   0  0  1  0  0  0  0  0  0  0  0  0
    7.5623   -0.4099   -0.0595 N   0  0  0  0  0  0  0  0  0  0  0  0
    0.6539   -6.1558   -0.0446 O   0  0  0  0  0  0  0  0  0  0  0  0
   -1.5313   -5.5383   -1.0845 O   0  0  0  0  0  0  0  0  0  0  0  0
    0.2932   -6.2543   -2.5902 O   0  0  0  0  0  0  0  0  0  0  0  0
    2.2128   -5.8516    0.1326 P   0  0  2  0  0  0  0  0  0  0  0  0
    2.9584   -5.8502   -1.2814 O   0  0  0  0  0  0  0  0  0  0  0  0
    2.7923   -6.8731    1.0129 O   0  0  0  0  0  0  0  0  0  0  0  0
    2.3506   -4.4283    0.8159 O   0  0  0  0  0  0  0  0  0  0  0  0
    4.3465   -5.4725   -1.2474 C   0  0  1  0  0  0  0  0  0  0  0  0
    4.9881   -5.5600   -2.6613 C   0  0  1  0  0  0  0  0  0  0  0  0
    4.5919   -4.5708   -3.7505 N   0  0  1  0  0  0  0  0  0  0  0  0
    4.9074   -3.1504   -3.3445 C   0  0  0  0  0  0  0  0  0  0  0  0
    5.3857   -4.9078   -4.9987 C   0  0  0  0  0  0  0  0  0  0  0  0
    3.1268   -4.6745   -4.0944 C   0  0  0  0  0  0  0  0  0  0  0  0
    1.4715    1.9702   -2.1120 H   0  0  0  0  0  0  0  0  0  0  0  0
    2.4307    0.0404   -2.9040 H   0  0  0  0  0  0  0  0  0  0  0  0
    1.6664    0.6924   -0.1249 H   0  0  0  0  0  0  0  0  0  0  0  0
    1.3070   -2.0006   -2.8664 H   0  0  0  0  0  0  0  0  0  0  0  0
   -0.8269   -1.7755   -3.5243 H   0  0  0  0  0  0  0  0  0  0  0  0
   -0.6131   -0.7704   -0.7989 H   0  0  0  0  0  0  0  0  0  0  0  0
    3.4891   -2.1835    0.2433 H   0  0  0  0  0  0  0  0  0  0  0  0
   -1.4074   -2.9298   -1.4317 H   0  0  0  0  0  0  0  0  0  0  0  0
   -0.6186   -3.0820    0.1555 H   0  0  0  0  0  0  0  0  0  0  0  0
    5.8444   -2.3135    0.5784 H   0  0  0  0  0  0  0  0  0  0  0  0
    8.1037    0.3430   -0.3456 H   0  0  0  0  0  0  0  0  0  0  0  0
    7.9899   -1.1933    0.3198 H   0  0  0  0  0  0  0  0  0  0  0  0
    1.2683   -6.1949   -2.6586 H   0  0  0  0  0  0  0  0  0  0  0  0
    4.4780   -4.4660   -0.8445 H   0  0  0  0  0  0  0  0  0  0  0  0
    4.8928   -6.1691   -0.6001 H   0  0  0  0  0  0  0  0  0  0  0  0
    6.0697   -5.4836   -2.5004 H   0  0  0  0  0  0  0  0  0  0  0  0
    4.8015   -6.5808   -3.0083 H   0  0  0  0  0  0  0  0  0  0  0  0
    5.9510   -3.0432   -3.0360 H   0  0  0  0  0  0  0  0  0  0  0  0
    4.7313   -2.4489   -4.1663 H   0  0  0  0  0  0  0  0  0  0  0  0
    4.2826   -2.8237   -2.5120 H   0  0  0  0  0  0  0  0  0  0  0  0
    6.4639   -4.8354   -4.8241 H   0  0  0  0  0  0  0  0  0  0  0  0
    5.1451   -4.2349   -5.8279 H   0  0  0  0  0  0  0  0  0  0  0  0
    5.1785   -5.9274   -5.3409 H   0  0  0  0  0  0  0  0  0  0  0  0
    2.4946   -4.3598   -3.2638 H   0  0  0  0  0  0  0  0  0  0  0  0
    2.8677   -4.0359   -4.9448 H   0  0  0  0  0  0  0  0  0  0  0  0
    2.8540   -5.7012   -4.3550 H   0  0  0  0  0  0  0  0  0  0  0  0
  2  1  1  0  0  0  0 
  2  3  1  0  0  0  0 
  4  2  1  0  0  0  0 
  3  5  1  0  0  0  0 
  3  6  1  0  0  0  0 
  4  7  1  0  0  0  0 
  8  4  1  0  0  0  0 
  8  5  1  0  0  0  0 
  6  9  1  0  0  0  0 
  6 10  1  0  0  0  0 
  8 11  1  0  0  0  0 
  9 12  2  0  0  0  0 
  9 13  1  0  0  0  0 
 10 14  2  0  0  0  0 
 11 15  1  0  0  0  0 
 13 16  2  0  0  0  0 
 14 16  1  0  0  0  0 
 15 17  1  0  0  0  0 
 16 18  1  0  0  0  0 
 17 19  1  0  0  0  0 
 17 20  2  0  0  0  0 
 17 21  1  0  0  0  0 
 19 22  1  0  0  0  0 
 22 23  1  0  0  0  0 
 22 24  2  0  0  0  0 
 22 25  1  0  0  0  0 
 23 26  1  0  0  0  0 
 26 27  1  0  0  0  0 
 27 28  1  0  0  0  0 
 28 29  1  0  0  0  0 
 28 30  1  0  0  0  0 
 28 31  1  0  0  0  0 
  1 32  1  0  0  0  0 
  2 33  1  0  0  0  0 
  3 34  1  0  0  0  0 
  4 35  1  0  0  0  0 
  7 36  1  0  0  0  0 
  8 37  1  0  0  0  0 
 10 38  1  0  0  0  0 
 11 39  1  0  0  0  0 
 11 40  1  0  0  0  0 
 14 41  1  0  0  0  0 
 18 42  1  0  0  0  0 
 18 43  1  0  0  0  0 
 21 44  1  0  0  0  0 
 26 45  1  0  0  0  0 
 26 46  1  0  0  0  0 
 27 47  1  0  0  0  0 
 27 48  1  0  0  0  0 
 29 49  1  0  0  0  0 
 29 50  1  0  0  0  0 
 29 51  1  0  0  0  0 
 30 52  1  0  0  0  0 
 30 53  1  0  0  0  0 
 30 54  1  0  0  0  0 
 31 55  1  0  0  0  0 
 31 56  1  0  0  0  0 
 31 57  1  0  0  0  0 
M  CHG  1  25  -1
M  CHG  1  28   1
M  END
> <cdk:Title>
citicoline

> <Conformer>
1

> <SuperDrugID>
SD000583

$$$$
