sodium tetradecyl sulfate
  CDK     0628171801

 49 48  0  0  0  0  0  0  0  0999 V2000
   -2.1805   -0.5122    0.2186 C   0  0  2  0  0  0  0  0  0  0  0  0
   -3.3415   -1.4180    0.7318 C   0  0  2  0  0  0  0  0  0  0  0  0
   -0.9363   -1.0142    0.7547 O   0  0  0  0  0  0  0  0  0  0  0  0
   -2.3715    0.9707    0.6787 C   0  0  2  0  0  0  0  0  0  0  0  0
   -3.2565   -2.8821    0.2108 C   0  0  1  0  0  0  0  0  0  0  0  0
    0.2137   -1.5690   -0.4016 S   0  0  1  0  0  0  0  0  0  0  0  0
   -1.3384    2.0036    0.1152 C   0  0  1  0  0  0  0  0  0  0  0  0
   -4.4486   -3.8325    0.5848 C   0  0  1  0  0  0  0  0  0  0  0  0
    0.8202   -0.3365   -1.2203 O   0  0  0  0  0  0  0  0  0  0  0  0
    1.4010   -2.3183    0.3684 O   0  0  0  0  0  0  0  0  0  0  0  0
   -0.5026   -2.6723   -1.4908 O   0  0  0  0  0  0  0  0  0  0  0  0
   -1.4564    2.1890   -1.4250 C   0  0  0  0  0  0  0  0  0  0  0  0
   -1.4865    3.3787    0.8284 C   0  0  0  0  0  0  0  0  0  0  0  0
   -5.8476   -3.3258    0.0865 C   0  0  1  0  0  0  0  0  0  0  0  0
   -4.1090   -5.2962    0.1274 C   0  0  2  0  0  0  0  0  0  0  0  0
   -5.9927   -3.0864   -1.4443 C   0  0  1  0  0  0  0  0  0  0  0  0
   -5.1320   -6.3918    0.5158 C   0  0  0  0  0  0  0  0  0  0  0  0
   -7.4077   -2.5852   -1.8418 C   0  0  2  0  0  0  0  0  0  0  0  0
   -7.5534   -2.3599   -3.3634 C   0  0  0  0  0  0  0  0  0  0  0  0
   -2.2191   -0.5345   -0.8736 H   0  0  0  0  0  0  0  0  0  0  0  0
   -4.2838   -0.9754    0.4055 H   0  0  0  0  0  0  0  0  0  0  0  0
   -3.3352   -1.4305    1.8235 H   0  0  0  0  0  0  0  0  0  0  0  0
   -2.3220    0.9878    1.7717 H   0  0  0  0  0  0  0  0  0  0  0  0
   -3.3753    1.3089    0.3982 H   0  0  0  0  0  0  0  0  0  0  0  0
   -3.1409   -2.8655   -0.8756 H   0  0  0  0  0  0  0  0  0  0  0  0
   -2.3387   -3.3124    0.6214 H   0  0  0  0  0  0  0  0  0  0  0  0
   -0.3319    1.6395    0.3379 H   0  0  0  0  0  0  0  0  0  0  0  0
   -4.5008   -3.8567    1.6811 H   0  0  0  0  0  0  0  0  0  0  0  0
   -0.8596   -2.1097   -2.2094 H   0  0  0  0  0  0  0  0  0  0  0  0
   -1.1858    1.2727   -1.9480 H   0  0  0  0  0  0  0  0  0  0  0  0
   -0.7816    2.9736   -1.7710 H   0  0  0  0  0  0  0  0  0  0  0  0
   -2.4764    2.4598   -1.7029 H   0  0  0  0  0  0  0  0  0  0  0  0
   -1.3328    3.2670    1.9032 H   0  0  0  0  0  0  0  0  0  0  0  0
   -0.7429    4.0856    0.4552 H   0  0  0  0  0  0  0  0  0  0  0  0
   -2.4802    3.7964    0.6581 H   0  0  0  0  0  0  0  0  0  0  0  0
   -6.6126   -4.0409    0.3927 H   0  0  0  0  0  0  0  0  0  0  0  0
   -6.0891   -2.3988    0.6109 H   0  0  0  0  0  0  0  0  0  0  0  0
   -3.1581   -5.5853    0.5833 H   0  0  0  0  0  0  0  0  0  0  0  0
   -3.9635   -5.3261   -0.9551 H   0  0  0  0  0  0  0  0  0  0  0  0
   -5.2675   -2.3356   -1.7675 H   0  0  0  0  0  0  0  0  0  0  0  0
   -5.7831   -4.0178   -1.9764 H   0  0  0  0  0  0  0  0  0  0  0  0
   -4.7257   -7.3753    0.2697 H   0  0  0  0  0  0  0  0  0  0  0  0
   -5.3439   -6.3638    1.5864 H   0  0  0  0  0  0  0  0  0  0  0  0
   -6.0633   -6.2675   -0.0377 H   0  0  0  0  0  0  0  0  0  0  0  0
   -7.6183   -1.6444   -1.3233 H   0  0  0  0  0  0  0  0  0  0  0  0
   -8.1550   -3.3206   -1.5288 H   0  0  0  0  0  0  0  0  0  0  0  0
   -8.5550   -1.9856   -3.5838 H   0  0  0  0  0  0  0  0  0  0  0  0
   -6.8221   -1.6297   -3.7162 H   0  0  0  0  0  0  0  0  0  0  0  0
   -7.4045   -3.2983   -3.9027 H   0  0  0  0  0  0  0  0  0  0  0  0
  1  2  1  0  0  0  0 
  1  3  1  0  0  0  0 
  1  4  1  0  0  0  0 
  2  5  1  0  0  0  0 
  3  6  1  0  0  0  0 
  4  7  1  0  0  0  0 
  5  8  1  0  0  0  0 
  6  9  2  0  0  0  0 
  6 10  2  0  0  0  0 
  6 11  1  0  0  0  0 
  7 12  1  0  0  0  0 
  7 13  1  0  0  0  0 
  8 14  1  0  0  0  0 
  8 15  1  0  0  0  0 
 14 16  1  0  0  0  0 
 15 17  1  0  0  0  0 
 16 18  1  0  0  0  0 
 18 19  1  0  0  0  0 
  1 20  1  0  0  0  0 
  2 21  1  0  0  0  0 
  2 22  1  0  0  0  0 
  4 23  1  0  0  0  0 
  4 24  1  0  0  0  0 
  5 25  1  0  0  0  0 
  5 26  1  0  0  0  0 
  7 27  1  0  0  0  0 
  8 28  1  0  0  0  0 
 11 29  1  0  0  0  0 
 12 30  1  0  0  0  0 
 12 31  1  0  0  0  0 
 12 32  1  0  0  0  0 
 13 33  1  0  0  0  0 
 13 34  1  0  0  0  0 
 13 35  1  0  0  0  0 
 14 36  1  0  0  0  0 
 14 37  1  0  0  0  0 
 15 38  1  0  0  0  0 
 15 39  1  0  0  0  0 
 16 40  1  0  0  0  0 
 16 41  1  0  0  0  0 
 17 42  1  0  0  0  0 
 17 43  1  0  0  0  0 
 17 44  1  0  0  0  0 
 18 45  1  0  0  0  0 
 18 46  1  0  0  0  0 
 19 47  1  0  0  0  0 
 19 48  1  0  0  0  0 
 19 49  1  0  0  0  0 
M  END
> <cdk:Title>
sodium tetradecyl sulfate

> <Conformer>
1

> <SuperDrugID>
SD003054

$$$$
