eribulin
  CDK     0628171801

111119  0  0  0  0  0  0  0  0999 V2000
  -11.5184   -7.5425   -6.3724 C   0  0  0  0  0  0  0  0  0  0  0  0
  -12.3752   -6.8607   -5.5977 C   0  0  0  0  0  0  0  0  0  0  0  0
  -13.7978   -6.8083   -5.8303 C   0  0  1  0  0  0  0  0  0  0  0  0
  -11.9851   -6.0426   -4.4633 C   0  0  1  0  0  0  0  0  0  0  0  0
  -14.2812   -6.2405   -4.4838 C   0  0  1  0  0  0  0  0  0  0  0  0
  -13.2027   -5.3833   -4.0948 O   0  0  0  0  0  0  0  0  0  0  0  0
  -11.3538   -6.7945   -3.2465 C   0  0  1  0  0  0  0  0  0  0  0  0
  -15.6183   -5.4486   -4.4963 C   0  0  2  0  0  0  0  0  0  0  0  0
  -11.0487   -5.9150   -1.9872 C   0  0  2  0  0  0  0  0  0  0  0  0
  -16.0968   -5.1470   -3.0444 C   0  0  1  0  0  0  0  0  0  0  0  0
  -12.2979   -5.3665   -1.2120 C   0  0  2  0  0  0  0  0  0  0  0  0
  -17.2514   -4.1141   -2.9214 C   0  0  1  0  0  0  0  0  0  0  0  0
  -12.7914   -4.1145   -1.7465 O   0  0  0  0  0  0  0  0  0  0  0  0
  -12.2048   -5.3108    0.3450 C   0  0  2  0  0  0  0  0  0  0  0  0
  -16.6959   -2.8266   -3.3072 O   0  0  0  0  0  0  0  0  0  0  0  0
  -18.3816   -4.5406   -3.6997 O   0  0  0  0  0  0  0  0  0  0  0  0
  -17.7948   -4.0637   -1.4784 C   0  0  2  0  0  0  0  0  0  0  0  0
  -12.3371   -2.8385   -1.2305 C   0  0  2  0  0  0  0  0  0  0  0  0
  -11.5821   -3.9971    0.9014 C   0  0  2  0  0  0  0  0  0  0  0  0
  -17.5018   -1.6431   -3.5589 C   0  0  2  0  0  0  0  0  0  0  0  0
  -19.5438   -3.8940   -3.1616 C   0  0  1  0  0  0  0  0  0  0  0  0
  -19.1841   -3.4687   -1.7192 C   0  0  2  0  0  0  0  0  0  0  0  0
  -11.1057   -2.2393   -1.9778 C   0  0  1  0  0  0  0  0  0  0  0  0
  -12.1664   -2.8206    0.2335 C   0  0  0  0  0  0  0  0  0  0  0  0
  -10.0265   -4.0068    0.8843 C   0  0  0  0  0  0  0  0  0  0  0  0
  -18.9730   -1.6015   -3.0377 C   0  0  1  0  0  0  0  0  0  0  0  0
  -17.5116   -1.3467   -5.0788 C   0  0  2  0  0  0  0  0  0  0  0  0
  -19.8735   -2.5525   -3.8463 C   0  0  1  0  0  0  0  0  0  0  0  0
  -19.1011   -2.0369   -1.6824 O   0  0  0  0  0  0  0  0  0  0  0  0
  -11.2153   -2.2167   -3.5354 C   0  0  1  0  0  0  0  0  0  0  0  0
  -12.5411   -1.7395    0.9467 C   0  0  0  0  0  0  0  0  0  0  0  0
  -18.4031   -2.3712   -5.8358 C   0  0  1  0  0  0  0  0  0  0  0  0
  -16.1746   -1.4366   -5.5982 O   0  0  0  0  0  0  0  0  0  0  0  0
  -19.7401   -2.4454   -5.2904 O   0  0  0  0  0  0  0  0  0  0  0  0
  -12.1513   -1.1478   -4.1739 C   0  0  2  0  0  0  0  0  0  0  0  0
   -9.9015   -1.9794   -4.0589 O   0  0  0  0  0  0  0  0  0  0  0  0
  -18.4096   -1.9947   -7.3445 C   0  0  1  0  0  0  0  0  0  0  0  0
  -16.0343   -1.0600   -6.9907 C   0  0  2  0  0  0  0  0  0  0  0  0
  -12.7864   -1.6427   -5.5199 C   0  0  2  0  0  0  0  0  0  0  0  0
  -11.1720    0.0481   -4.3109 C   0  0  2  0  0  0  0  0  0  0  0  0
   -9.8398   -0.6719   -4.6441 C   0  0  1  0  0  0  0  0  0  0  0  0
  -16.9600   -1.9271   -7.9029 C   0  0  1  0  0  0  0  0  0  0  0  0
  -14.5016   -1.1565   -7.4074 C   0  0  1  0  0  0  0  0  0  0  0  0
  -13.6484   -0.6921   -6.2780 C   0  0  0  0  0  0  0  0  0  0  0  0
  -11.0574    0.8276   -3.0950 O   0  0  0  0  0  0  0  0  0  0  0  0
   -8.5577    0.0885   -4.1982 C   0  0  1  0  0  0  0  0  0  0  0  0
  -13.7504    0.5103   -5.9422 O   0  0  0  0  0  0  0  0  0  0  0  0
  -12.1703    1.6843   -2.7830 C   0  0  0  0  0  0  0  0  0  0  0  0
   -7.2209   -0.5135   -4.7230 C   0  0  1  0  0  0  0  0  0  0  0  0
   -5.9809    0.2965   -4.2669 C   0  0  2  0  0  0  0  0  0  0  0  0
   -7.0479   -1.8526   -4.2642 O   0  0  0  0  0  0  0  0  0  0  0  0
   -5.9653    1.6374   -4.8596 N   0  0  1  0  0  0  0  0  0  0  0  0
  -20.3934   -4.5814   -3.1952 H   0  0  0  0  0  0  0  0  0  0  0  0
  -16.9654   -0.8261   -3.0691 H   0  0  0  0  0  0  0  0  0  0  0  0
  -19.9091   -3.8213   -0.9810 H   0  0  0  0  0  0  0  0  0  0  0  0
  -20.9186   -2.3153   -3.6234 H   0  0  0  0  0  0  0  0  0  0  0  0
  -19.3594   -0.5808   -3.1040 H   0  0  0  0  0  0  0  0  0  0  0  0
  -17.8939   -0.3281   -5.2216 H   0  0  0  0  0  0  0  0  0  0  0  0
  -14.3741   -7.0664   -3.7644 H   0  0  0  0  0  0  0  0  0  0  0  0
  -17.9473   -3.3605   -5.7728 H   0  0  0  0  0  0  0  0  0  0  0  0
  -16.3348   -0.0130   -7.1057 H   0  0  0  0  0  0  0  0  0  0  0  0
  -11.2820   -5.2862   -4.8152 H   0  0  0  0  0  0  0  0  0  0  0  0
  -13.0992   -6.0847   -1.4073 H   0  0  0  0  0  0  0  0  0  0  0  0
  -12.9762   -0.9164   -3.5004 H   0  0  0  0  0  0  0  0  0  0  0  0
  -11.5062   -3.2138   -3.8546 H   0  0  0  0  0  0  0  0  0  0  0  0
  -13.1777   -2.1865   -1.4835 H   0  0  0  0  0  0  0  0  0  0  0  0
  -11.8408   -8.0698   -7.1481 H   0  0  0  0  0  0  0  0  0  0  0  0
  -10.5456   -7.5232   -6.1850 H   0  0  0  0  0  0  0  0  0  0  0  0
  -14.0144   -6.1275   -6.6599 H   0  0  0  0  0  0  0  0  0  0  0  0
  -14.2398   -7.7910   -6.0248 H   0  0  0  0  0  0  0  0  0  0  0  0
  -11.9979   -7.6264   -2.9503 H   0  0  0  0  0  0  0  0  0  0  0  0
  -10.4064   -7.2307   -3.5781 H   0  0  0  0  0  0  0  0  0  0  0  0
  -16.3822   -6.0432   -5.0063 H   0  0  0  0  0  0  0  0  0  0  0  0
  -15.4847   -4.5177   -5.0543 H   0  0  0  0  0  0  0  0  0  0  0  0
  -10.4125   -5.0881   -2.2972 H   0  0  0  0  0  0  0  0  0  0  0  0
  -10.4526   -6.5318   -1.3062 H   0  0  0  0  0  0  0  0  0  0  0  0
  -16.4076   -6.0962   -2.5968 H   0  0  0  0  0  0  0  0  0  0  0  0
  -15.2567   -4.7708   -2.4562 H   0  0  0  0  0  0  0  0  0  0  0  0
  -11.6742   -6.1867    0.7284 H   0  0  0  0  0  0  0  0  0  0  0  0
  -13.2259   -5.3763    0.7407 H   0  0  0  0  0  0  0  0  0  0  0  0
  -17.1731   -3.4448   -0.8248 H   0  0  0  0  0  0  0  0  0  0  0  0
  -17.8959   -5.0624   -1.0423 H   0  0  0  0  0  0  0  0  0  0  0  0
  -11.8521   -3.9786    1.9647 H   0  0  0  0  0  0  0  0  0  0  0  0
  -10.9299   -1.2250   -1.6129 H   0  0  0  0  0  0  0  0  0  0  0  0
  -10.2165   -2.8143   -1.7176 H   0  0  0  0  0  0  0  0  0  0  0  0
   -9.6524   -4.6866    1.6531 H   0  0  0  0  0  0  0  0  0  0  0  0
   -9.6299   -3.0096    1.0890 H   0  0  0  0  0  0  0  0  0  0  0  0
   -9.6334   -4.3459   -0.0710 H   0  0  0  0  0  0  0  0  0  0  0  0
  -12.9306   -0.9405    0.5039 H   0  0  0  0  0  0  0  0  0  0  0  0
  -12.4355   -1.7068    1.9325 H   0  0  0  0  0  0  0  0  0  0  0  0
  -18.9807   -2.7377   -7.9077 H   0  0  0  0  0  0  0  0  0  0  0  0
  -18.8968   -1.0252   -7.4848 H   0  0  0  0  0  0  0  0  0  0  0  0
  -13.4086   -2.5075   -5.2732 H   0  0  0  0  0  0  0  0  0  0  0  0
  -12.0009   -1.9853   -6.1963 H   0  0  0  0  0  0  0  0  0  0  0  0
  -11.4204    0.7141   -5.1405 H   0  0  0  0  0  0  0  0  0  0  0  0
   -9.7945   -0.8108   -5.7296 H   0  0  0  0  0  0  0  0  0  0  0  0
  -16.5692   -2.9489   -7.9639 H   0  0  0  0  0  0  0  0  0  0  0  0
  -16.9776   -1.5083   -8.9132 H   0  0  0  0  0  0  0  0  0  0  0  0
  -14.2973   -2.2660   -7.5384 H   0  0  0  0  0  0  0  0  0  0  0  0
  -14.1954   -0.4840   -8.3074 H   0  0  0  0  0  0  0  0  0  0  0  0
   -8.6387    1.1169   -4.5613 H   0  0  0  0  0  0  0  0  0  0  0  0
   -8.5265    0.1177   -3.1052 H   0  0  0  0  0  0  0  0  0  0  0  0
  -11.8756    2.3299   -1.9566 H   0  0  0  0  0  0  0  0  0  0  0  0
  -13.0388    1.1093   -2.4601 H   0  0  0  0  0  0  0  0  0  0  0  0
  -12.4424    2.3145   -3.6325 H   0  0  0  0  0  0  0  0  0  0  0  0
   -7.2394   -0.5366   -5.8162 H   0  0  0  0  0  0  0  0  0  0  0  0
   -5.0696   -0.2190   -4.5777 H   0  0  0  0  0  0  0  0  0  0  0  0
   -5.9676    0.3885   -3.1785 H   0  0  0  0  0  0  0  0  0  0  0  0
   -7.7479   -2.3673   -4.7156 H   0  0  0  0  0  0  0  0  0  0  0  0
   -5.1077    2.0953   -4.5443 H   0  0  0  0  0  0  0  0  0  0  0  0
   -5.8796    1.5107   -5.8702 H   0  0  0  0  0  0  0  0  0  0  0  0
  1  2  2  0  0  0  0 
  2  3  1  0  0  0  0 
  4  2  1  0  0  0  0 
  5  3  1  0  0  0  0 
  4  6  1  0  0  0  0 
  4  7  1  0  0  0  0 
  4 62  1  0  0  0  0 
  5  6  1  0  0  0  0 
  5  8  1  0  0  0  0 
  5 59  1  0  0  0  0 
  7  9  1  0  0  0  0 
  8 10  1  0  0  0  0 
 11  9  1  0  0  0  0 
 12 10  1  0  0  0  0 
 11 13  1  0  0  0  0 
 11 14  1  0  0  0  0 
 11 63  1  0  0  0  0 
 12 15  1  0  0  0  0 
 12 16  1  0  0  0  0 
 12 17  1  0  0  0  0 
 18 13  1  0  0  0  0 
 19 14  1  0  0  0  0 
 21 16  1  0  0  0  0 
 22 17  1  0  0  0  0 
 18 23  1  0  0  0  0 
 18 24  1  0  0  0  0 
 18 66  1  0  0  0  0 
 19 24  1  0  0  0  0 
 19 25  1  0  0  0  0 
 20 15  1  0  0  0  0 
 26 20  1  0  0  0  0 
 20 27  1  0  0  0  0 
 20 54  1  0  0  0  0 
 21 22  1  0  0  0  0 
 28 21  1  0  0  0  0 
 21 53  1  0  0  0  0 
 22 29  1  0  0  0  0 
 22 55  1  0  0  0  0 
 30 23  1  0  0  0  0 
 24 31  2  0  0  0  0 
 28 26  1  0  0  0  0 
 26 29  1  0  0  0  0 
 26 57  1  0  0  0  0 
 27 32  1  0  0  0  0 
 27 33  1  0  0  0  0 
 27 58  1  0  0  0  0 
 28 34  1  0  0  0  0 
 28 56  1  0  0  0  0 
 30 35  1  0  0  0  0 
 30 36  1  0  0  0  0 
 30 65  1  0  0  0  0 
 32 34  1  0  0  0  0 
 32 37  1  0  0  0  0 
 32 60  1  0  0  0  0 
 38 33  1  0  0  0  0 
 35 39  1  0  0  0  0 
 35 40  1  0  0  0  0 
 35 64  1  0  0  0  0 
 41 36  1  0  0  0  0 
 37 42  1  0  0  0  0 
 38 42  1  0  0  0  0 
 38 43  1  0  0  0  0 
 38 61  1  0  0  0  0 
 39 44  1  0  0  0  0 
 40 41  1  0  0  0  0 
 40 45  1  0  0  0  0 
 41 46  1  0  0  0  0 
 43 44  1  0  0  0  0 
 44 47  2  0  0  0  0 
 45 48  1  0  0  0  0 
 49 46  1  0  0  0  0 
 49 50  1  0  0  0  0 
 49 51  1  0  0  0  0 
 50 52  1  0  0  0  0 
  1 67  1  0  0  0  0 
  1 68  1  0  0  0  0 
  3 69  1  0  0  0  0 
  3 70  1  0  0  0  0 
  7 71  1  0  0  0  0 
  7 72  1  0  0  0  0 
  8 73  1  0  0  0  0 
  8 74  1  0  0  0  0 
  9 75  1  0  0  0  0 
  9 76  1  0  0  0  0 
 10 77  1  0  0  0  0 
 10 78  1  0  0  0  0 
 14 79  1  0  0  0  0 
 14 80  1  0  0  0  0 
 17 81  1  0  0  0  0 
 17 82  1  0  0  0  0 
 19 83  1  0  0  0  0 
 23 84  1  0  0  0  0 
 23 85  1  0  0  0  0 
 25 86  1  0  0  0  0 
 25 87  1  0  0  0  0 
 25 88  1  0  0  0  0 
 31 89  1  0  0  0  0 
 31 90  1  0  0  0  0 
 37 91  1  0  0  0  0 
 37 92  1  0  0  0  0 
 39 93  1  0  0  0  0 
 39 94  1  0  0  0  0 
 40 95  1  0  0  0  0 
 41 96  1  0  0  0  0 
 42 97  1  0  0  0  0 
 42 98  1  0  0  0  0 
 43 99  1  0  0  0  0 
 43100  1  0  0  0  0 
 46101  1  0  0  0  0 
 46102  1  0  0  0  0 
 48103  1  0  0  0  0 
 48104  1  0  0  0  0 
 48105  1  0  0  0  0 
 49106  1  0  0  0  0 
 50107  1  0  0  0  0 
 50108  1  0  0  0  0 
 51109  1  0  0  0  0 
 52110  1  0  0  0  0 
 52111  1  0  0  0  0 
M  END
> <cdk:Title>
eribulin

> <Conformer>
1

> <SuperDrugID>
SD003402

$$$$
