oxitropium
  CDK     0628171801

 50 53  0  0  0  0  0  0  0  0999 V2000
    3.6298   -2.5760    3.8982 C   0  0  2  0  0  0  0  0  0  0  0  0
    4.8101   -3.5679    4.0847 C   0  0  0  0  0  0  0  0  0  0  0  0
    3.6399   -1.3053    4.7640 N   0  0  2  0  0  0  0  0  0  0  0  0
    4.9130   -0.5564    4.3669 C   0  0  0  0  0  0  0  0  0  0  0  0
    3.5080   -1.5403    6.2592 C   0  0  1  0  0  0  0  0  0  0  0  0
    2.4101   -0.4252    4.6251 C   0  0  2  0  0  0  0  0  0  0  0  0
    3.1222   -0.1890    6.9288 C   0  0  2  0  0  0  0  0  0  0  0  0
    2.3580   -2.5488    6.6169 C   0  0  1  0  0  0  0  0  0  0  0  0
    2.3907    0.5565    5.8382 C   0  0  1  0  0  0  0  0  0  0  0  0
    1.0692   -1.2356    4.6874 C   0  0  1  0  0  0  0  0  0  0  0  0
    3.5837    1.0736    6.4426 O   0  0  0  0  0  0  0  0  0  0  0  0
    0.9911   -2.2362    5.9013 C   0  0  2  0  0  0  0  0  0  0  0  0
    0.0405   -1.8309    6.9021 O   0  0  0  0  0  0  0  0  0  0  0  0
   -1.3181   -1.7334    6.7705 C   0  0  0  0  0  0  0  0  0  0  0  0
   -2.1248   -1.4712    7.9845 C   0  0  2  0  0  0  0  0  0  0  0  0
   -1.8720   -1.9150    5.6596 O   0  0  0  0  0  0  0  0  0  0  0  0
   -2.9707   -2.7294    8.3297 C   0  0  1  0  0  0  0  0  0  0  0  0
   -2.9598   -0.2301    7.8913 C   0  0  0  0  0  0  0  0  0  0  0  0
   -3.7589   -2.5228    9.4976 O   0  0  0  0  0  0  0  0  0  0  0  0
   -4.0487   -0.1271    6.9879 C   0  0  0  0  0  0  0  0  0  0  0  0
   -2.7130    0.8650    8.7569 C   0  0  0  0  0  0  0  0  0  0  0  0
   -4.8894    1.0016    6.9863 C   0  0  0  0  0  0  0  0  0  0  0  0
   -3.5498    1.9966    8.7558 C   0  0  0  0  0  0  0  0  0  0  0  0
   -4.6447    2.0608    7.8771 C   0  0  0  0  0  0  0  0  0  0  0  0
    2.7422   -3.1860    4.0518 H   0  0  0  0  0  0  0  0  0  0  0  0
    3.5890   -2.2999    2.8392 H   0  0  0  0  0  0  0  0  0  0  0  0
    4.6332   -4.4671    3.4916 H   0  0  0  0  0  0  0  0  0  0  0  0
    4.9083   -3.8622    5.1303 H   0  0  0  0  0  0  0  0  0  0  0  0
    5.7498   -3.1300    3.7504 H   0  0  0  0  0  0  0  0  0  0  0  0
    5.0637   -0.5554    3.2827 H   0  0  0  0  0  0  0  0  0  0  0  0
    5.7955   -1.0129    4.8213 H   0  0  0  0  0  0  0  0  0  0  0  0
    4.9356    0.4943    4.6379 H   0  0  0  0  0  0  0  0  0  0  0  0
    4.4454   -1.9003    6.6963 H   0  0  0  0  0  0  0  0  0  0  0  0
    2.4294    0.1565    3.6972 H   0  0  0  0  0  0  0  0  0  0  0  0
    2.5815   -0.1743    7.8798 H   0  0  0  0  0  0  0  0  0  0  0  0
    2.6816   -3.5592    6.3578 H   0  0  0  0  0  0  0  0  0  0  0  0
    2.2163   -2.5721    7.7023 H   0  0  0  0  0  0  0  0  0  0  0  0
    1.4499    0.9983    6.1801 H   0  0  0  0  0  0  0  0  0  0  0  0
    0.2280   -0.5401    4.7122 H   0  0  0  0  0  0  0  0  0  0  0  0
    0.9516   -1.7872    3.7517 H   0  0  0  0  0  0  0  0  0  0  0  0
    0.6131   -3.1909    5.5187 H   0  0  0  0  0  0  0  0  0  0  0  0
   -1.4166   -1.3608    8.8132 H   0  0  0  0  0  0  0  0  0  0  0  0
   -3.6406   -2.9885    7.5069 H   0  0  0  0  0  0  0  0  0  0  0  0
   -2.3132   -3.5827    8.5125 H   0  0  0  0  0  0  0  0  0  0  0  0
   -4.2869   -3.3439    9.5940 H   0  0  0  0  0  0  0  0  0  0  0  0
   -4.2507   -0.8817    6.3297 H   0  0  0  0  0  0  0  0  0  0  0  0
   -1.9246    0.8457    9.4087 H   0  0  0  0  0  0  0  0  0  0  0  0
   -5.6821    1.0498    6.3407 H   0  0  0  0  0  0  0  0  0  0  0  0
   -3.3635    2.7710    9.3982 H   0  0  0  0  0  0  0  0  0  0  0  0
   -5.2614    2.8757    7.8847 H   0  0  0  0  0  0  0  0  0  0  0  0
  1  2  1  0  0  0  0 
  1  3  1  0  0  0  0 
  3  4  1  0  0  0  0 
  5  3  1  0  0  0  0 
  7  5  1  0  0  0  0 
  5  8  1  0  0  0  0 
  6  3  1  0  0  0  0 
  9  6  1  0  0  0  0 
  6 10  1  0  0  0  0 
  9  7  1  0  0  0  0 
  7 11  1  0  0  0  0 
 12  8  1  0  0  0  0 
  9 11  1  0  0  0  0 
 12 10  1  0  0  0  0 
 12 13  1  0  0  0  0 
 13 14  1  0  0  0  0 
 15 14  1  0  0  0  0 
 14 16  2  0  0  0  0 
 15 17  1  0  0  0  0 
 15 18  1  0  0  0  0 
 17 19  1  0  0  0  0 
 18 20  2  0  0  0  0 
 18 21  1  0  0  0  0 
 20 22  1  0  0  0  0 
 21 23  2  0  0  0  0 
 22 24  2  0  0  0  0 
 23 24  1  0  0  0  0 
  1 25  1  0  0  0  0 
  1 26  1  0  0  0  0 
  2 27  1  0  0  0  0 
  2 28  1  0  0  0  0 
  2 29  1  0  0  0  0 
  4 30  1  0  0  0  0 
  4 31  1  0  0  0  0 
  4 32  1  0  0  0  0 
  5 33  1  0  0  0  0 
  6 34  1  0  0  0  0 
  7 35  1  0  0  0  0 
  8 36  1  0  0  0  0 
  8 37  1  0  0  0  0 
  9 38  1  0  0  0  0 
 10 39  1  0  0  0  0 
 10 40  1  0  0  0  0 
 12 41  1  0  0  0  0 
 15 42  1  0  0  0  0 
 17 43  1  0  0  0  0 
 17 44  1  0  0  0  0 
 19 45  1  0  0  0  0 
 20 46  1  0  0  0  0 
 21 47  1  0  0  0  0 
 22 48  1  0  0  0  0 
 23 49  1  0  0  0  0 
 24 50  1  0  0  0  0 
M  CHG  1   3   1
M  END
> <cdk:Title>
oxitropium

> <Conformer>
1

> <SuperDrugID>
SD001809

$$$$
