glutamine
  CDK     0628171801

 20 19  0  0  0  0  0  0  0  0999 V2000
   -1.2937   -3.5879   -1.6469 N   0  0  1  0  0  0  0  0  0  0  0  0
   -1.1068   -2.4107   -2.5078 C   0  0  1  0  0  0  0  0  0  0  0  0
   -0.1355   -1.3791   -1.8607 C   0  0  1  0  0  0  0  0  0  0  0  0
   -0.6162   -0.8324   -0.4882 C   0  0  2  0  0  0  0  0  0  0  0  0
    0.3215    0.1495    0.0981 C   0  0  0  0  0  0  0  0  0  0  0  0
   -0.0535    1.4175    0.3522 N   0  0  0  0  0  0  0  0  0  0  0  0
    1.4921   -0.1880    0.3860 O   0  0  0  0  0  0  0  0  0  0  0  0
   -0.6226   -2.8649   -3.8294 C   0  0  0  0  0  0  0  0  0  0  0  0
   -1.3474   -2.6242   -4.9485 O   0  0  0  0  0  0  0  0  0  0  0  0
    0.4615   -3.4822   -3.9441 O   0  0  0  0  0  0  0  0  0  0  0  0
   -1.6879   -3.2595   -0.7647 H   0  0  0  0  0  0  0  0  0  0  0  0
   -2.0117   -4.1712   -2.0836 H   0  0  0  0  0  0  0  0  0  0  0  0
   -2.0840   -1.9366   -2.6350 H   0  0  0  0  0  0  0  0  0  0  0  0
    0.8455   -1.8449   -1.7369 H   0  0  0  0  0  0  0  0  0  0  0  0
   -0.0247   -0.5356   -2.5478 H   0  0  0  0  0  0  0  0  0  0  0  0
   -0.7240   -1.6559    0.2192 H   0  0  0  0  0  0  0  0  0  0  0  0
   -1.5979   -0.3711   -0.6181 H   0  0  0  0  0  0  0  0  0  0  0  0
    0.5780    2.0421    0.7414 H   0  0  0  0  0  0  0  0  0  0  0  0
   -0.9552    1.7087    0.1495 H   0  0  0  0  0  0  0  0  0  0  0  0
   -1.0172   -2.9212   -5.8231 H   0  0  0  0  0  0  0  0  0  0  0  0
  2  1  1  0  0  0  0 
  2  3  1  0  0  0  0 
  3  4  1  0  0  0  0 
  4  5  1  0  0  0  0 
  5  6  1  0  0  0  0 
  5  7  2  0  0  0  0 
  2  8  1  0  0  0  0 
  8  9  1  0  0  0  0 
  8 10  2  0  0  0  0 
  1 11  1  0  0  0  0 
  1 12  1  0  0  0  0 
  2 13  1  0  0  0  0 
  3 14  1  0  0  0  0 
  3 15  1  0  0  0  0 
  4 16  1  0  0  0  0 
  4 17  1  0  0  0  0 
  6 18  1  0  0  0  0 
  6 19  1  0  0  0  0 
  9 20  1  0  0  0  0 
M  END
> <cdk:Title>
glutamine

> <Conformer>
1

> <SuperDrugID>
SD001167

$$$$
