bromazepam
  CDK     0628171801

 29 31  0  0  0  0  0  0  0  0999 V2000
   -2.8148    4.5717    1.1414 Br  0  0  0  0  0  0  0  0  0  0  0  0
   -1.0650    5.1437    0.8746 C   0  0  0  0  0  0  0  0  0  0  0  0
   -0.0092    4.2164    0.8538 C   0  0  0  0  0  0  0  0  0  0  0  0
   -0.7970    6.5083    0.6994 C   0  0  0  0  0  0  0  0  0  0  0  0
    1.3362    4.6237    0.6541 C   0  0  0  0  0  0  0  0  0  0  0  0
    0.5187    6.9375    0.4706 C   0  0  0  0  0  0  0  0  0  0  0  0
    2.3700    3.6590    0.6882 C   0  0  0  0  0  0  0  0  0  0  0  0
    1.5840    6.0124    0.4139 C   0  0  0  0  0  0  0  0  0  0  0  0
    3.3601    3.6977   -0.1408 N   0  0  0  0  0  0  0  0  0  0  0  0
    2.4230    2.6025    1.6154 C   0  0  0  0  0  0  0  0  0  0  0  0
    2.8026    6.5562    0.1105 N   0  0  0  0  0  0  0  0  0  0  0  0
    3.6410    4.5968   -1.1613 C   0  0  2  0  0  0  0  0  0  0  0  0
    1.8468    2.6589    2.9114 C   0  0  0  0  0  0  0  0  0  0  0  0
    3.0888    1.4554    1.2809 N   0  0  0  0  0  0  0  0  0  0  0  0
    3.7945    5.9523   -0.5941 C   0  0  0  0  0  0  0  0  0  0  0  0
    1.9493    1.5559    3.7808 C   0  0  0  0  0  0  0  0  0  0  0  0
    3.2161    0.3745    2.0923 C   0  0  0  0  0  0  0  0  0  0  0  0
    4.8608    6.5866   -0.7646 O   0  0  0  0  0  0  0  0  0  0  0  0
    2.6356    0.4004    3.3703 C   0  0  0  0  0  0  0  0  0  0  0  0
   -0.2381    3.2286    0.9874 H   0  0  0  0  0  0  0  0  0  0  0  0
   -1.5557    7.1912    0.7332 H   0  0  0  0  0  0  0  0  0  0  0  0
    0.6921    7.9369    0.3280 H   0  0  0  0  0  0  0  0  0  0  0  0
    2.9560    7.4770    0.3814 H   0  0  0  0  0  0  0  0  0  0  0  0
    2.8373    4.5914   -1.9050 H   0  0  0  0  0  0  0  0  0  0  0  0
    4.5613    4.2754   -1.6530 H   0  0  0  0  0  0  0  0  0  0  0  0
    1.3585    3.4953    3.2383 H   0  0  0  0  0  0  0  0  0  0  0  0
    1.5296    1.5959    4.7124 H   0  0  0  0  0  0  0  0  0  0  0  0
    3.7316   -0.4487    1.7708 H   0  0  0  0  0  0  0  0  0  0  0  0
    2.7129   -0.4075    3.9912 H   0  0  0  0  0  0  0  0  0  0  0  0
  1  2  1  0  0  0  0 
  2  3  2  0  0  0  0 
  2  4  1  0  0  0  0 
  3  5  1  0  0  0  0 
  4  6  2  0  0  0  0 
  5  7  1  0  0  0  0 
  5  8  2  0  0  0  0 
  6  8  1  0  0  0  0 
  7  9  2  0  0  0  0 
  7 10  1  0  0  0  0 
  8 11  1  0  0  0  0 
  9 12  1  0  0  0  0 
 10 13  2  0  0  0  0 
 10 14  1  0  0  0  0 
 11 15  1  0  0  0  0 
 12 15  1  0  0  0  0 
 13 16  1  0  0  0  0 
 14 17  2  0  0  0  0 
 15 18  2  0  0  0  0 
 16 19  2  0  0  0  0 
 17 19  1  0  0  0  0 
  3 20  1  0  0  0  0 
  4 21  1  0  0  0  0 
  6 22  1  0  0  0  0 
 11 23  1  0  0  0  0 
 12 24  1  0  0  0  0 
 12 25  1  0  0  0  0 
 13 26  1  0  0  0  0 
 16 27  1  0  0  0  0 
 17 28  1  0  0  0  0 
 19 29  1  0  0  0  0 
M  END
> <cdk:Title>
bromazepam

> <Conformer>
1

> <SuperDrugID>
SD000341

$$$$
