prednisolone valerate acetate
  CDK     0628171801

 73 76  0  0  0  0  0  0  0  0999 V2000
    4.3717   -2.7576   -3.5880 C   0  0  0  0  0  0  0  0  0  0  0  0
    4.7120   -3.7397   -2.5295 C   0  0  2  0  0  0  0  0  0  0  0  0
    4.9936   -2.8923   -4.6693 O   0  0  0  0  0  0  0  0  0  0  0  0
    3.3492   -1.6597   -3.4458 C   0  0  2  0  0  0  0  0  0  0  0  0
    4.3806   -3.3150   -1.1987 O   0  0  0  0  0  0  0  0  0  0  0  0
    3.7833   -0.7293   -2.4136 O   0  0  0  0  0  0  0  0  0  0  0  0
    1.8563   -2.1512   -3.2076 C   0  0  2  0  0  0  0  0  0  0  0  0
    3.1548   -0.7635   -4.7287 C   0  0  2  0  0  0  0  0  0  0  0  0
    4.4837   -4.0778   -0.0661 C   0  0  0  0  0  0  0  0  0  0  0  0
    5.0252   -0.1633   -2.2479 C   0  0  0  0  0  0  0  0  0  0  0  0
    1.4866   -3.2917   -4.2430 C   0  0  0  0  0  0  0  0  0  0  0  0
    1.0823   -0.8091   -3.4289 C   0  0  1  0  0  0  0  0  0  0  0  0
    1.4834   -2.6300   -1.7593 C   0  0  2  0  0  0  0  0  0  0  0  0
    1.7009   -0.2233   -4.7146 C   0  0  1  0  0  0  0  0  0  0  0  0
    4.0347   -3.5218    1.2239 C   0  0  0  0  0  0  0  0  0  0  0  0
    4.9358   -5.2468   -0.1200 O   0  0  0  0  0  0  0  0  0  0  0  0
    5.1786    1.3062   -2.2215 C   0  0  2  0  0  0  0  0  0  0  0  0
    6.0426   -0.8835   -2.1213 O   0  0  0  0  0  0  0  0  0  0  0  0
   -0.4741   -0.9263   -3.3043 C   0  0  1  0  0  0  0  0  0  0  0  0
   -0.0498   -2.7380   -1.4725 C   0  0  1  0  0  0  0  0  0  0  0  0
    6.1414    1.7969   -3.3434 C   0  0  2  0  0  0  0  0  0  0  0  0
   -0.8546   -1.4391   -1.8567 C   0  0  2  0  0  0  0  0  0  0  0  0
   -1.1732    0.4364   -3.5971 C   0  0  1  0  0  0  0  0  0  0  0  0
   -0.5843   -3.9069   -2.0891 O   0  0  0  0  0  0  0  0  0  0  0  0
    6.1785    3.3387   -3.5279 C   0  0  2  0  0  0  0  0  0  0  0  0
   -2.4279   -1.4586   -1.5883 C   0  0  2  0  0  0  0  0  0  0  0  0
   -2.6963    0.3861   -3.3317 C   0  0  2  0  0  0  0  0  0  0  0  0
    7.1777    3.7807   -4.6264 C   0  0  0  0  0  0  0  0  0  0  0  0
   -3.2156   -2.5475   -2.4036 C   0  0  0  0  0  0  0  0  0  0  0  0
   -2.9598   -0.1092   -1.9756 C   0  0  0  0  0  0  0  0  0  0  0  0
   -2.6941   -1.7738   -0.1608 C   0  0  0  0  0  0  0  0  0  0  0  0
   -3.6278    0.6686   -1.0923 C   0  0  0  0  0  0  0  0  0  0  0  0
   -3.3634   -0.9537    0.6654 C   0  0  0  0  0  0  0  0  0  0  0  0
   -3.8426    0.2616    0.2143 C   0  0  0  0  0  0  0  0  0  0  0  0
   -4.4744    1.0067    1.0001 O   0  0  0  0  0  0  0  0  0  0  0  0
    5.7870   -3.9383   -2.5531 H   0  0  0  0  0  0  0  0  0  0  0  0
    4.1864   -4.6706   -2.7539 H   0  0  0  0  0  0  0  0  0  0  0  0
    3.3035   -1.3323   -5.6492 H   0  0  0  0  0  0  0  0  0  0  0  0
    3.8618    0.0656   -4.7619 H   0  0  0  0  0  0  0  0  0  0  0  0
    0.4272   -3.5274   -4.2568 H   0  0  0  0  0  0  0  0  0  0  0  0
    2.0179   -4.2134   -4.0013 H   0  0  0  0  0  0  0  0  0  0  0  0
    1.7463   -3.0276   -5.2674 H   0  0  0  0  0  0  0  0  0  0  0  0
    1.3669   -0.1060   -2.6332 H   0  0  0  0  0  0  0  0  0  0  0  0
    1.9068   -1.9339   -1.0306 H   0  0  0  0  0  0  0  0  0  0  0  0
    1.9242   -3.6076   -1.5637 H   0  0  0  0  0  0  0  0  0  0  0  0
    1.6888    0.8708   -4.6925 H   0  0  0  0  0  0  0  0  0  0  0  0
    1.1521   -0.5627   -5.5971 H   0  0  0  0  0  0  0  0  0  0  0  0
    2.9676   -3.1821    1.0693 H   0  0  0  0  0  0  0  0  0  0  0  0
    4.6208   -2.5684    1.3796 H   0  0  0  0  0  0  0  0  0  0  0  0
    4.1874   -4.3534    2.0395 H   0  0  0  0  0  0  0  0  0  0  0  0
    5.5667    1.6057   -1.2448 H   0  0  0  0  0  0  0  0  0  0  0  0
    4.1976    1.7684   -2.3563 H   0  0  0  0  0  0  0  0  0  0  0  0
   -0.8342   -1.6342   -4.0513 H   0  0  0  0  0  0  0  0  0  0  0  0
   -0.1443   -2.9079   -0.3964 H   0  0  0  0  0  0  0  0  0  0  0  0
    5.8450    1.3517   -4.2978 H   0  0  0  0  0  0  0  0  0  0  0  0
    7.1525    1.4481   -3.1112 H   0  0  0  0  0  0  0  0  0  0  0  0
   -0.4630   -0.6809   -1.1648 H   0  0  0  0  0  0  0  0  0  0  0  0
   -0.7311    1.2191   -2.9724 H   0  0  0  0  0  0  0  0  0  0  0  0
   -1.0156    0.7156   -4.6421 H   0  0  0  0  0  0  0  0  0  0  0  0
   -0.0274   -4.6504   -1.7763 H   0  0  0  0  0  0  0  0  0  0  0  0
    6.4671    3.8135   -2.5858 H   0  0  0  0  0  0  0  0  0  0  0  0
    5.1830    3.7001   -3.8018 H   0  0  0  0  0  0  0  0  0  0  0  0
   -3.1764   -0.2655   -4.0638 H   0  0  0  0  0  0  0  0  0  0  0  0
   -3.0981    1.3896   -3.5013 H   0  0  0  0  0  0  0  0  0  0  0  0
    7.1759    4.8697   -4.7107 H   0  0  0  0  0  0  0  0  0  0  0  0
    6.8984    3.3581   -5.5957 H   0  0  0  0  0  0  0  0  0  0  0  0
    8.1907    3.4560   -4.3778 H   0  0  0  0  0  0  0  0  0  0  0  0
   -2.9253   -2.5551   -3.4532 H   0  0  0  0  0  0  0  0  0  0  0  0
   -3.0513   -3.5552   -2.0165 H   0  0  0  0  0  0  0  0  0  0  0  0
   -4.2929   -2.3618   -2.3555 H   0  0  0  0  0  0  0  0  0  0  0  0
   -2.3799   -2.6409    0.2125 H   0  0  0  0  0  0  0  0  0  0  0  0
   -3.9702    1.5615   -1.3674 H   0  0  0  0  0  0  0  0  0  0  0  0
   -3.5184   -1.2265    1.6101 H   0  0  0  0  0  0  0  0  0  0  0  0
  1  2  1  0  0  0  0 
  1  3  2  0  0  0  0 
  4  1  1  0  0  0  0 
  2  5  1  0  0  0  0 
  4  6  1  0  0  0  0 
  7  4  1  0  0  0  0 
  4  8  1  0  0  0  0 
  5  9  1  0  0  0  0 
  6 10  1  0  0  0  0 
  7 11  1  0  0  0  0 
 12  7  1  0  0  0  0 
  7 13  1  0  0  0  0 
  8 14  1  0  0  0  0 
  9 15  1  0  0  0  0 
  9 16  2  0  0  0  0 
 10 17  1  0  0  0  0 
 10 18  2  0  0  0  0 
 12 14  1  0  0  0  0 
 19 12  1  0  0  0  0 
 20 13  1  0  0  0  0 
 17 21  1  0  0  0  0 
 22 19  1  0  0  0  0 
 19 23  1  0  0  0  0 
 22 20  1  0  0  0  0 
 20 24  1  0  0  0  0 
 21 25  1  0  0  0  0 
 22 26  1  0  0  0  0 
 23 27  1  0  0  0  0 
 25 28  1  0  0  0  0 
 26 29  1  0  0  0  0 
 26 30  1  0  0  0  0 
 26 31  1  0  0  0  0 
 27 30  1  0  0  0  0 
 30 32  2  0  0  0  0 
 31 33  2  0  0  0  0 
 32 34  1  0  0  0  0 
 33 34  1  0  0  0  0 
 34 35  2  0  0  0  0 
 36  2  1  0  0  0  0 
 37  2  1  0  0  0  0 
 38  8  1  0  0  0  0 
 39  8  1  0  0  0  0 
 40 11  1  0  0  0  0 
 41 11  1  0  0  0  0 
 42 11  1  0  0  0  0 
 12 43  1  0  0  0  0 
 44 13  1  0  0  0  0 
 45 13  1  0  0  0  0 
 46 14  1  0  0  0  0 
 47 14  1  0  0  0  0 
 48 15  1  0  0  0  0 
 49 15  1  0  0  0  0 
 50 15  1  0  0  0  0 
 51 17  1  0  0  0  0 
 52 17  1  0  0  0  0 
 19 53  1  0  0  0  0 
 20 54  1  0  0  0  0 
 55 21  1  0  0  0  0 
 56 21  1  0  0  0  0 
 22 57  1  0  0  0  0 
 58 23  1  0  0  0  0 
 59 23  1  0  0  0  0 
 60 24  1  0  0  0  0 
 61 25  1  0  0  0  0 
 62 25  1  0  0  0  0 
 63 27  1  0  0  0  0 
 64 27  1  0  0  0  0 
 65 28  1  0  0  0  0 
 66 28  1  0  0  0  0 
 67 28  1  0  0  0  0 
 68 29  1  0  0  0  0 
 69 29  1  0  0  0  0 
 70 29  1  0  0  0  0 
 71 31  1  0  0  0  0 
 72 32  1  0  0  0  0 
 73 33  1  0  0  0  0 
M  END
> <cdk:Title>
prednisolone valerate acetate

> <Conformer>
1

> <SuperDrugID>
SD002020

$$$$
