piketoprofen
  CDK     0628171801

 46 48  0  0  0  0  0  0  0  0999 V2000
    3.6322    1.3409    0.4548 C   0  0  0  0  0  0  0  0  0  0  0  0
    3.4589    2.0618    1.4680 O   0  0  0  0  0  0  0  0  0  0  0  0
    2.4790    0.7236   -0.1068 C   0  0  0  0  0  0  0  0  0  0  0  0
    4.9531    1.1946   -0.0612 C   0  0  0  0  0  0  0  0  0  0  0  0
    1.5255    0.0875    0.7249 C   0  0  0  0  0  0  0  0  0  0  0  0
    2.2345    0.7647   -1.4984 C   0  0  0  0  0  0  0  0  0  0  0  0
    5.3641   -0.0114   -0.6832 C   0  0  0  0  0  0  0  0  0  0  0  0
    5.9017    2.2433    0.0571 C   0  0  0  0  0  0  0  0  0  0  0  0
    0.3279   -0.4713    0.2082 C   0  0  0  0  0  0  0  0  0  0  0  0
    1.0583    0.2132   -2.0347 C   0  0  0  0  0  0  0  0  0  0  0  0
    6.6775   -0.1674   -1.1632 C   0  0  0  0  0  0  0  0  0  0  0  0
    7.2153    2.0863   -0.4241 C   0  0  0  0  0  0  0  0  0  0  0  0
   -0.6973   -1.0863    1.1216 C   0  0  2  0  0  0  0  0  0  0  0  0
    0.1107   -0.3912   -1.1883 C   0  0  0  0  0  0  0  0  0  0  0  0
    7.6048    0.8806   -1.0329 C   0  0  0  0  0  0  0  0  0  0  0  0
   -1.1152   -0.0861    2.1452 C   0  0  0  0  0  0  0  0  0  0  0  0
   -0.1790   -2.4315    1.7105 C   0  0  0  0  0  0  0  0  0  0  0  0
   -1.6077    1.0998    1.6888 N   0  0  0  0  0  0  0  0  0  0  0  0
   -0.9507   -0.3097    3.3692 O   0  0  0  0  0  0  0  0  0  0  0  0
   -1.8272    2.2447    2.3867 C   0  0  0  0  0  0  0  0  0  0  0  0
   -2.1986    3.3959    1.6619 C   0  0  0  0  0  0  0  0  0  0  0  0
   -1.6404    2.3445    3.7311 N   0  0  0  0  0  0  0  0  0  0  0  0
   -2.3085    4.6397    2.3232 C   0  0  0  0  0  0  0  0  0  0  0  0
   -1.7628    3.5104    4.4101 C   0  0  0  0  0  0  0  0  0  0  0  0
   -2.6218    5.8593    1.5440 C   0  0  0  0  0  0  0  0  0  0  0  0
   -2.0863    4.6899    3.7180 C   0  0  0  0  0  0  0  0  0  0  0  0
    1.6984    0.0396    1.7334 H   0  0  0  0  0  0  0  0  0  0  0  0
    2.9033    1.2105   -2.1323 H   0  0  0  0  0  0  0  0  0  0  0  0
    4.7168   -0.7976   -0.7827 H   0  0  0  0  0  0  0  0  0  0  0  0
    5.6467    3.1350    0.4909 H   0  0  0  0  0  0  0  0  0  0  0  0
    0.8879    0.2625   -3.0424 H   0  0  0  0  0  0  0  0  0  0  0  0
    6.9585   -1.0473   -1.6039 H   0  0  0  0  0  0  0  0  0  0  0  0
    7.8884    2.8507   -0.3297 H   0  0  0  0  0  0  0  0  0  0  0  0
   -1.6026   -1.3323    0.5556 H   0  0  0  0  0  0  0  0  0  0  0  0
   -0.7459   -0.7672   -1.6040 H   0  0  0  0  0  0  0  0  0  0  0  0
    8.5604    0.7662   -1.3785 H   0  0  0  0  0  0  0  0  0  0  0  0
   -0.9649   -2.9209    2.2921 H   0  0  0  0  0  0  0  0  0  0  0  0
    0.1197   -3.1094    0.9074 H   0  0  0  0  0  0  0  0  0  0  0  0
    0.6801   -2.2674    2.3635 H   0  0  0  0  0  0  0  0  0  0  0  0
   -1.7604    1.1482    0.7316 H   0  0  0  0  0  0  0  0  0  0  0  0
   -2.3627    3.3343    0.6517 H   0  0  0  0  0  0  0  0  0  0  0  0
   -1.6034    3.5260    5.4173 H   0  0  0  0  0  0  0  0  0  0  0  0
   -3.5717    5.7293    1.0230 H   0  0  0  0  0  0  0  0  0  0  0  0
   -2.6977    6.7447    2.1791 H   0  0  0  0  0  0  0  0  0  0  0  0
   -1.8339    6.0344    0.8079 H   0  0  0  0  0  0  0  0  0  0  0  0
   -2.1496    5.5725    4.2302 H   0  0  0  0  0  0  0  0  0  0  0  0
  1  2  2  0  0  0  0 
  1  3  1  0  0  0  0 
  1  4  1  0  0  0  0 
  3  5  2  0  0  0  0 
  3  6  1  0  0  0  0 
  4  7  2  0  0  0  0 
  4  8  1  0  0  0  0 
  5  9  1  0  0  0  0 
  6 10  2  0  0  0  0 
  7 11  1  0  0  0  0 
  8 12  2  0  0  0  0 
 13  9  1  0  0  0  0 
  9 14  2  0  0  0  0 
 10 14  1  0  0  0  0 
 11 15  2  0  0  0  0 
 12 15  1  0  0  0  0 
 13 16  1  0  0  0  0 
 13 17  1  0  0  0  0 
 16 18  1  0  0  0  0 
 16 19  2  0  0  0  0 
 18 20  1  0  0  0  0 
 20 21  2  0  0  0  0 
 20 22  1  0  0  0  0 
 21 23  1  0  0  0  0 
 22 24  2  0  0  0  0 
 23 25  1  0  0  0  0 
 23 26  2  0  0  0  0 
 24 26  1  0  0  0  0 
  5 27  1  0  0  0  0 
  6 28  1  0  0  0  0 
  7 29  1  0  0  0  0 
  8 30  1  0  0  0  0 
 10 31  1  0  0  0  0 
 11 32  1  0  0  0  0 
 12 33  1  0  0  0  0 
 13 34  1  0  0  0  0 
 14 35  1  0  0  0  0 
 15 36  1  0  0  0  0 
 17 37  1  0  0  0  0 
 17 38  1  0  0  0  0 
 17 39  1  0  0  0  0 
 18 40  1  0  0  0  0 
 21 41  1  0  0  0  0 
 24 42  1  0  0  0  0 
 25 43  1  0  0  0  0 
 25 44  1  0  0  0  0 
 25 45  1  0  0  0  0 
 26 46  1  0  0  0  0 
M  END
> <cdk:Title>
piketoprofen

> <Conformer>
1

> <SuperDrugID>
SD001942

$$$$
