prenylamine
  CDK     0628171801

 52 54  0  0  0  0  0  0  0  0999 V2000
   -4.3319   -0.5216   -1.5705 C   0  0  2  0  0  0  0  0  0  0  0  0
   -3.0153   -0.9016   -0.8050 C   0  0  2  0  0  0  0  0  0  0  0  0
   -4.8062    0.8829   -1.3211 C   0  0  0  0  0  0  0  0  0  0  0  0
   -5.4877   -1.4591   -1.3687 C   0  0  0  0  0  0  0  0  0  0  0  0
   -1.7528   -0.1604   -1.3209 C   0  0  2  0  0  0  0  0  0  0  0  0
   -5.0542    1.7658   -2.4026 C   0  0  0  0  0  0  0  0  0  0  0  0
   -5.0532    1.3610   -0.0093 C   0  0  0  0  0  0  0  0  0  0  0  0
   -6.3414   -1.7686   -2.4603 C   0  0  0  0  0  0  0  0  0  0  0  0
   -5.7974   -2.0297   -0.1072 C   0  0  0  0  0  0  0  0  0  0  0  0
   -0.6787   -0.1592   -0.2976 N   0  0  2  0  0  0  0  0  0  0  0  0
   -5.5492    3.0664   -2.1833 C   0  0  0  0  0  0  0  0  0  0  0  0
   -5.5289    2.6647    0.2150 C   0  0  0  0  0  0  0  0  0  0  0  0
   -7.4483   -2.6210   -2.3044 C   0  0  0  0  0  0  0  0  0  0  0  0
   -6.9023   -2.8883    0.0495 C   0  0  0  0  0  0  0  0  0  0  0  0
    0.6085    0.4884   -0.6804 C   0  0  1  0  0  0  0  0  0  0  0  0
   -5.7869    3.5155   -0.8722 C   0  0  0  0  0  0  0  0  0  0  0  0
   -7.7283   -3.1839   -1.0488 C   0  0  0  0  0  0  0  0  0  0  0  0
    0.6120    2.0327   -0.4426 C   0  0  2  0  0  0  0  0  0  0  0  0
    1.7245   -0.1675    0.1745 C   0  0  0  0  0  0  0  0  0  0  0  0
   -0.2937    2.8259   -1.3185 C   0  0  0  0  0  0  0  0  0  0  0  0
   -0.0912    2.8506   -2.7183 C   0  0  0  0  0  0  0  0  0  0  0  0
   -1.3617    3.5816   -0.7774 C   0  0  0  0  0  0  0  0  0  0  0  0
   -0.9273    3.6146   -3.5536 C   0  0  0  0  0  0  0  0  0  0  0  0
   -2.1907    4.3548   -1.6107 C   0  0  0  0  0  0  0  0  0  0  0  0
   -1.9751    4.3722   -2.9996 C   0  0  0  0  0  0  0  0  0  0  0  0
   -4.0483   -0.6111   -2.6246 H   0  0  0  0  0  0  0  0  0  0  0  0
   -2.8366   -1.9766   -0.8989 H   0  0  0  0  0  0  0  0  0  0  0  0
   -3.1264   -0.6931    0.2590 H   0  0  0  0  0  0  0  0  0  0  0  0
   -2.0250    0.8623   -1.5596 H   0  0  0  0  0  0  0  0  0  0  0  0
   -1.4022   -0.6452   -2.2355 H   0  0  0  0  0  0  0  0  0  0  0  0
   -4.8898    1.4636   -3.3647 H   0  0  0  0  0  0  0  0  0  0  0  0
   -4.8936    0.7606    0.8002 H   0  0  0  0  0  0  0  0  0  0  0  0
   -6.1659   -1.3680   -3.3856 H   0  0  0  0  0  0  0  0  0  0  0  0
   -5.2231   -1.8270    0.7121 H   0  0  0  0  0  0  0  0  0  0  0  0
   -0.4675   -1.1423   -0.1110 H   0  0  0  0  0  0  0  0  0  0  0  0
   -5.7391    3.6853   -2.9738 H   0  0  0  0  0  0  0  0  0  0  0  0
   -5.6963    2.9911    1.1704 H   0  0  0  0  0  0  0  0  0  0  0  0
   -8.0497   -2.8314   -3.1050 H   0  0  0  0  0  0  0  0  0  0  0  0
   -7.1049   -3.2984    0.9635 H   0  0  0  0  0  0  0  0  0  0  0  0
    0.8440    0.2726   -1.7285 H   0  0  0  0  0  0  0  0  0  0  0  0
   -6.1468    4.4588   -0.7116 H   0  0  0  0  0  0  0  0  0  0  0  0
   -8.5329   -3.8043   -0.9339 H   0  0  0  0  0  0  0  0  0  0  0  0
    1.6230    2.4183   -0.6091 H   0  0  0  0  0  0  0  0  0  0  0  0
    0.3706    2.2110    0.6089 H   0  0  0  0  0  0  0  0  0  0  0  0
    2.6999    0.2309   -0.1060 H   0  0  0  0  0  0  0  0  0  0  0  0
    1.7439   -1.2450    0.0122 H   0  0  0  0  0  0  0  0  0  0  0  0
    1.5611    0.0199    1.2378 H   0  0  0  0  0  0  0  0  0  0  0  0
    0.6677    2.3118   -3.1416 H   0  0  0  0  0  0  0  0  0  0  0  0
   -1.5468    3.5785    0.2281 H   0  0  0  0  0  0  0  0  0  0  0  0
   -0.7681    3.6224   -4.5619 H   0  0  0  0  0  0  0  0  0  0  0  0
   -2.9493    4.9091   -1.2069 H   0  0  0  0  0  0  0  0  0  0  0  0
   -2.5757    4.9388   -3.6028 H   0  0  0  0  0  0  0  0  0  0  0  0
  1  2  1  0  0  0  0 
  1  3  1  0  0  0  0 
  1  4  1  0  0  0  0 
  2  5  1  0  0  0  0 
  3  6  2  0  0  0  0 
  3  7  1  0  0  0  0 
  4  8  2  0  0  0  0 
  4  9  1  0  0  0  0 
  5 10  1  0  0  0  0 
  6 11  1  0  0  0  0 
  7 12  2  0  0  0  0 
  8 13  1  0  0  0  0 
  9 14  2  0  0  0  0 
 15 10  1  0  0  0  0 
 11 16  2  0  0  0  0 
 12 16  1  0  0  0  0 
 13 17  2  0  0  0  0 
 14 17  1  0  0  0  0 
 15 18  1  0  0  0  0 
 15 19  1  0  0  0  0 
 18 20  1  0  0  0  0 
 20 21  2  0  0  0  0 
 20 22  1  0  0  0  0 
 21 23  1  0  0  0  0 
 22 24  2  0  0  0  0 
 23 25  2  0  0  0  0 
 24 25  1  0  0  0  0 
  1 26  1  0  0  0  0 
  2 27  1  0  0  0  0 
  2 28  1  0  0  0  0 
  5 29  1  0  0  0  0 
  5 30  1  0  0  0  0 
  6 31  1  0  0  0  0 
  7 32  1  0  0  0  0 
  8 33  1  0  0  0  0 
  9 34  1  0  0  0  0 
 10 35  1  0  0  0  0 
 11 36  1  0  0  0  0 
 12 37  1  0  0  0  0 
 13 38  1  0  0  0  0 
 14 39  1  0  0  0  0 
 15 40  1  0  0  0  0 
 16 41  1  0  0  0  0 
 17 42  1  0  0  0  0 
 18 43  1  0  0  0  0 
 18 44  1  0  0  0  0 
 19 45  1  0  0  0  0 
 19 46  1  0  0  0  0 
 19 47  1  0  0  0  0 
 21 48  1  0  0  0  0 
 22 49  1  0  0  0  0 
 23 50  1  0  0  0  0 
 24 51  1  0  0  0  0 
 25 52  1  0  0  0  0 
M  END
> <cdk:Title>
prenylamine

> <Conformer>
1

> <SuperDrugID>
SD002028

$$$$
