troleandomycin
  CDK     0628171801

124127  0  0  0  0  0  0  0  0999 V2000
   11.0722   -1.9097   -0.7859 O   0  0  0  0  0  0  0  0  0  0  0  0
   10.6818   -3.0074   -1.2480 C   0  0  0  0  0  0  0  0  0  0  0  0
    9.5728   -2.9190   -2.2526 C   0  0  1  0  0  0  0  0  0  0  0  0
   11.3998   -4.2440   -0.7740 C   0  0  2  0  0  0  0  0  0  0  0  0
   10.0616   -2.2960   -3.5591 C   0  0  1  0  0  0  0  0  0  0  0  0
    9.6734   -3.6672   -3.4774 O   0  0  0  0  0  0  0  0  0  0  0  0
    8.1299   -2.4459   -1.8623 C   0  0  2  0  0  0  0  0  0  0  0  0
   11.2245   -5.4784   -1.6963 C   0  0  0  0  0  0  0  0  0  0  0  0
   11.3027   -4.5747    0.7756 C   0  0  1  0  0  0  0  0  0  0  0  0
    7.6656   -2.8760   -0.4292 C   0  0  2  0  0  0  0  0  0  0  0  0
   11.5283   -3.3622    1.5230 O   0  0  0  0  0  0  0  0  0  0  0  0
   10.0380   -5.3510    1.3375 C   0  0  1  0  0  0  0  0  0  0  0  0
    6.7822   -4.1576   -0.4904 C   0  0  0  0  0  0  0  0  0  0  0  0
    7.1417   -1.7552    0.5423 C   0  0  2  0  0  0  0  0  0  0  0  0
   12.7108   -2.7317    1.7936 C   0  0  0  0  0  0  0  0  0  0  0  0
   10.1550   -6.9041    1.1999 C   0  0  0  0  0  0  0  0  0  0  0  0
    9.5842   -4.9780    2.8081 C   0  0  1  0  0  0  0  0  0  0  0  0
    6.0114   -0.9888    0.0363 O   0  0  0  0  0  0  0  0  0  0  0  0
    8.2822   -0.8176    1.1389 C   0  0  1  0  0  0  0  0  0  0  0  0
   12.6857   -1.5160    2.6160 C   0  0  0  0  0  0  0  0  0  0  0  0
   13.8027   -3.1761    1.3667 O   0  0  0  0  0  0  0  0  0  0  0  0
   10.5835   -5.4356    3.9060 C   0  0  0  0  0  0  0  0  0  0  0  0
    9.3801   -3.5623    3.0272 O   0  0  0  0  0  0  0  0  0  0  0  0
    4.6647   -1.5012    0.2661 C   0  0  1  0  0  0  0  0  0  0  0  0
    8.6950    0.3438    0.1806 C   0  0  0  0  0  0  0  0  0  0  0  0
    7.9704   -0.3658    2.6261 C   0  0  2  0  0  0  0  0  0  0  0  0
    8.2711   -2.8674    3.4508 C   0  0  0  0  0  0  0  0  0  0  0  0
    3.7181   -0.3170    0.6105 C   0  0  2  0  0  0  0  0  0  0  0  0
    4.1861   -2.1927   -0.9128 O   0  0  0  0  0  0  0  0  0  0  0  0
    8.7507    0.7962    2.9985 O   0  0  0  0  0  0  0  0  0  0  0  0
    8.4042   -1.4072    3.7410 C   0  0  2  0  0  0  0  0  0  0  0  0
    7.1782   -3.4583    3.6218 O   0  0  0  0  0  0  0  0  0  0  0  0
    4.1102    0.2140    1.8889 O   0  0  0  0  0  0  0  0  0  0  0  0
    2.2370   -0.8126    0.7180 C   0  0  1  0  0  0  0  0  0  0  0  0
    2.8727   -2.7900   -0.7593 C   0  0  1  0  0  0  0  0  0  0  0  0
    8.2066    2.1337    3.0526 C   0  0  1  0  0  0  0  0  0  0  0  0
    7.7498   -1.0656    5.1137 C   0  0  0  0  0  0  0  0  0  0  0  0
    3.8260    1.4494    2.3961 C   0  0  0  0  0  0  0  0  0  0  0  0
    1.2974    0.3166    1.0447 N   0  0  1  0  0  0  0  0  0  0  0  0
    1.8254   -1.6661   -0.5168 C   0  0  2  0  0  0  0  0  0  0  0  0
    2.5295   -3.6399   -2.0060 C   0  0  0  0  0  0  0  0  0  0  0  0
    9.4453    2.9701    3.4830 C   0  0  1  0  0  0  0  0  0  0  0  0
    7.6509    2.5203    1.7737 O   0  0  0  0  0  0  0  0  0  0  0  0
    4.1641    1.7557    3.7898 C   0  0  0  0  0  0  0  0  0  0  0  0
    3.2927    2.3397    1.6936 O   0  0  0  0  0  0  0  0  0  0  0  0
    0.8870    1.2275   -0.0636 C   0  0  0  0  0  0  0  0  0  0  0  0
    0.1842   -0.0278    1.9725 C   0  0  0  0  0  0  0  0  0  0  0  0
    9.2806    4.4856    3.2275 C   0  0  2  0  0  0  0  0  0  0  0  0
    7.5364    3.9213    1.4340 C   0  0  2  0  0  0  0  0  0  0  0  0
    8.3595    5.0053    4.2133 O   0  0  0  0  0  0  0  0  0  0  0  0
    8.8474    4.7056    1.7450 C   0  0  2  0  0  0  0  0  0  0  0  0
    6.2360    4.5591    1.9807 C   0  0  0  0  0  0  0  0  0  0  0  0
    8.3289    6.4345    4.3693 C   0  0  0  0  0  0  0  0  0  0  0  0
    9.8306    4.1895    0.8258 O   0  0  0  0  0  0  0  0  0  0  0  0
   11.0876    4.6200    0.5081 C   0  0  0  0  0  0  0  0  0  0  0  0
   11.6495    5.9257    0.8969 C   0  0  0  0  0  0  0  0  0  0  0  0
   11.7713    3.8474   -0.2007 O   0  0  0  0  0  0  0  0  0  0  0  0
    4.6371   -2.1966    1.1138 H   0  0  0  0  0  0  0  0  0  0  0  0
    7.4308    2.1994    3.8198 H   0  0  0  0  0  0  0  0  0  0  0  0
   12.1561   -5.2194    1.0060 H   0  0  0  0  0  0  0  0  0  0  0  0
   12.4548   -3.9874   -0.9230 H   0  0  0  0  0  0  0  0  0  0  0  0
    9.3680   -1.7028   -4.1582 H   0  0  0  0  0  0  0  0  0  0  0  0
   11.1315   -2.1977   -3.7531 H   0  0  0  0  0  0  0  0  0  0  0  0
    7.4324   -2.8340   -2.6094 H   0  0  0  0  0  0  0  0  0  0  0  0
    8.0527   -1.3681   -1.9761 H   0  0  0  0  0  0  0  0  0  0  0  0
   11.8088   -6.3213   -1.3230 H   0  0  0  0  0  0  0  0  0  0  0  0
   10.1761   -5.7709   -1.7598 H   0  0  0  0  0  0  0  0  0  0  0  0
   11.5888   -5.2546   -2.7016 H   0  0  0  0  0  0  0  0  0  0  0  0
    8.5445   -3.2098    0.0929 H   0  0  0  0  0  0  0  0  0  0  0  0
    9.1969   -5.1169    0.7029 H   0  0  0  0  0  0  0  0  0  0  0  0
    6.4860   -4.4796    0.5099 H   0  0  0  0  0  0  0  0  0  0  0  0
    7.3411   -4.9738   -0.9526 H   0  0  0  0  0  0  0  0  0  0  0  0
    5.8908   -3.9936   -1.0881 H   0  0  0  0  0  0  0  0  0  0  0  0
    6.7877   -2.3102    1.4049 H   0  0  0  0  0  0  0  0  0  0  0  0
    9.3057   -7.4002    1.6732 H   0  0  0  0  0  0  0  0  0  0  0  0
   11.0681   -7.2708    1.6673 H   0  0  0  0  0  0  0  0  0  0  0  0
   10.1598   -7.2181    0.1597 H   0  0  0  0  0  0  0  0  0  0  0  0
    8.6374   -5.4904    3.0055 H   0  0  0  0  0  0  0  0  0  0  0  0
    9.2052   -1.3969    1.2264 H   0  0  0  0  0  0  0  0  0  0  0  0
   12.2802   -1.7536    3.5993 H   0  0  0  0  0  0  0  0  0  0  0  0
   12.0558   -0.7612    2.1444 H   0  0  0  0  0  0  0  0  0  0  0  0
   13.6896   -1.1071    2.7409 H   0  0  0  0  0  0  0  0  0  0  0  0
   10.6630   -6.5232    3.9345 H   0  0  0  0  0  0  0  0  0  0  0  0
   11.5751   -5.0157    3.7284 H   0  0  0  0  0  0  0  0  0  0  0  0
   10.2407   -5.1056    4.8900 H   0  0  0  0  0  0  0  0  0  0  0  0
    9.4242    1.0069    0.6471 H   0  0  0  0  0  0  0  0  0  0  0  0
    9.1967   -0.0299   -0.7036 H   0  0  0  0  0  0  0  0  0  0  0  0
    7.8296    0.9250   -0.1353 H   0  0  0  0  0  0  0  0  0  0  0  0
    6.9000   -0.1528    2.7220 H   0  0  0  0  0  0  0  0  0  0  0  0
    3.8267    0.4411   -0.1710 H   0  0  0  0  0  0  0  0  0  0  0  0
    9.4809   -1.2716    3.9025 H   0  0  0  0  0  0  0  0  0  0  0  0
    2.2336   -1.5064    1.5685 H   0  0  0  0  0  0  0  0  0  0  0  0
    2.8770   -3.4773    0.0967 H   0  0  0  0  0  0  0  0  0  0  0  0
    8.1254   -1.7238    5.9003 H   0  0  0  0  0  0  0  0  0  0  0  0
    7.9783   -0.0398    5.4068 H   0  0  0  0  0  0  0  0  0  0  0  0
    6.6647   -1.1738    5.0619 H   0  0  0  0  0  0  0  0  0  0  0  0
    1.7740   -1.0340   -1.4067 H   0  0  0  0  0  0  0  0  0  0  0  0
    0.8357   -2.1000   -0.3477 H   0  0  0  0  0  0  0  0  0  0  0  0
    2.4267   -3.0086   -2.8910 H   0  0  0  0  0  0  0  0  0  0  0  0
    3.3184   -4.3733   -2.1850 H   0  0  0  0  0  0  0  0  0  0  0  0
    1.5928   -4.1804   -1.8482 H   0  0  0  0  0  0  0  0  0  0  0  0
    9.6502    2.7942    4.5426 H   0  0  0  0  0  0  0  0  0  0  0  0
   10.3276    2.6286    2.9294 H   0  0  0  0  0  0  0  0  0  0  0  0
    3.2580    2.0640    4.3167 H   0  0  0  0  0  0  0  0  0  0  0  0
    4.5864    0.8804    4.2886 H   0  0  0  0  0  0  0  0  0  0  0  0
    4.8862    2.5667    3.8340 H   0  0  0  0  0  0  0  0  0  0  0  0
    1.7408    1.5118   -0.6785 H   0  0  0  0  0  0  0  0  0  0  0  0
    0.4631    2.1461    0.3453 H   0  0  0  0  0  0  0  0  0  0  0  0
    0.1368    0.7575   -0.7012 H   0  0  0  0  0  0  0  0  0  0  0  0
    0.5695   -0.5140    2.8708 H   0  0  0  0  0  0  0  0  0  0  0  0
   -0.3403    0.8721    2.2954 H   0  0  0  0  0  0  0  0  0  0  0  0
   -0.5302   -0.6959    1.4915 H   0  0  0  0  0  0  0  0  0  0  0  0
   10.2589    4.9379    3.3935 H   0  0  0  0  0  0  0  0  0  0  0  0
    7.4113    3.9362    0.3464 H   0  0  0  0  0  0  0  0  0  0  0  0
    8.7007    5.7680    1.5358 H   0  0  0  0  0  0  0  0  0  0  0  0
    6.1733    4.4819    3.0633 H   0  0  0  0  0  0  0  0  0  0  0  0
    6.1851    5.6122    1.6998 H   0  0  0  0  0  0  0  0  0  0  0  0
    5.3702    4.0551    1.5511 H   0  0  0  0  0  0  0  0  0  0  0  0
    7.6621    6.6717    5.1985 H   0  0  0  0  0  0  0  0  0  0  0  0
    7.9428    6.9244    3.4753 H   0  0  0  0  0  0  0  0  0  0  0  0
    9.3181    6.8315    4.6053 H   0  0  0  0  0  0  0  0  0  0  0  0
   11.7699    5.9763    1.9767 H   0  0  0  0  0  0  0  0  0  0  0  0
   10.9877    6.7274    0.5702 H   0  0  0  0  0  0  0  0  0  0  0  0
   12.6295    6.0780    0.4380 H   0  0  0  0  0  0  0  0  0  0  0  0
  1  2  2  0  0  0  0 
  3  2  1  0  0  0  0 
  4  2  1  0  0  0  0 
  3  5  1  0  0  0  0 
  3  6  1  0  0  0  0 
  3  7  1  0  0  0  0 
  4  8  1  0  0  0  0 
  9  4  1  0  0  0  0 
  5  6  1  0  0  0  0 
 10  7  1  0  0  0  0 
  9 11  1  0  0  0  0 
 12  9  1  0  0  0  0 
  9 60  1  0  0  0  0 
 10 13  1  0  0  0  0 
 14 10  1  0  0  0  0 
 11 15  1  0  0  0  0 
 12 16  1  0  0  0  0 
 17 12  1  0  0  0  0 
 14 18  1  0  0  0  0 
 14 19  1  0  0  0  0 
 15 20  1  0  0  0  0 
 15 21  2  0  0  0  0 
 17 22  1  0  0  0  0 
 17 23  1  0  0  0  0 
 24 18  1  0  0  0  0 
 19 25  1  0  0  0  0 
 26 19  1  0  0  0  0 
 23 27  1  0  0  0  0 
 28 24  1  0  0  0  0 
 24 29  1  0  0  0  0 
 24 58  1  0  0  0  0 
 26 30  1  0  0  0  0 
 31 26  1  0  0  0  0 
 31 27  1  0  0  0  0 
 27 32  2  0  0  0  0 
 28 33  1  0  0  0  0 
 28 34  1  0  0  0  0 
 35 29  1  0  0  0  0 
 36 30  1  0  0  0  0 
 31 37  1  0  0  0  0 
 33 38  1  0  0  0  0 
 34 39  1  0  0  0  0 
 34 40  1  0  0  0  0 
 35 40  1  0  0  0  0 
 35 41  1  0  0  0  0 
 36 42  1  0  0  0  0 
 36 43  1  0  0  0  0 
 36 59  1  0  0  0  0 
 38 44  1  0  0  0  0 
 38 45  2  0  0  0  0 
 39 46  1  0  0  0  0 
 39 47  1  0  0  0  0 
 48 42  1  0  0  0  0 
 49 43  1  0  0  0  0 
 48 50  1  0  0  0  0 
 48 51  1  0  0  0  0 
 51 49  1  0  0  0  0 
 49 52  1  0  0  0  0 
 50 53  1  0  0  0  0 
 51 54  1  0  0  0  0 
 54 55  1  0  0  0  0 
 55 56  1  0  0  0  0 
 55 57  2  0  0  0  0 
  4 61  1  0  0  0  0 
  5 62  1  0  0  0  0 
  5 63  1  0  0  0  0 
  7 64  1  0  0  0  0 
  7 65  1  0  0  0  0 
  8 66  1  0  0  0  0 
  8 67  1  0  0  0  0 
  8 68  1  0  0  0  0 
 10 69  1  0  0  0  0 
 12 70  1  0  0  0  0 
 13 71  1  0  0  0  0 
 13 72  1  0  0  0  0 
 13 73  1  0  0  0  0 
 14 74  1  0  0  0  0 
 16 75  1  0  0  0  0 
 16 76  1  0  0  0  0 
 16 77  1  0  0  0  0 
 17 78  1  0  0  0  0 
 19 79  1  0  0  0  0 
 20 80  1  0  0  0  0 
 20 81  1  0  0  0  0 
 20 82  1  0  0  0  0 
 22 83  1  0  0  0  0 
 22 84  1  0  0  0  0 
 22 85  1  0  0  0  0 
 25 86  1  0  0  0  0 
 25 87  1  0  0  0  0 
 25 88  1  0  0  0  0 
 26 89  1  0  0  0  0 
 28 90  1  0  0  0  0 
 31 91  1  0  0  0  0 
 34 92  1  0  0  0  0 
 35 93  1  0  0  0  0 
 37 94  1  0  0  0  0 
 37 95  1  0  0  0  0 
 37 96  1  0  0  0  0 
 40 97  1  0  0  0  0 
 40 98  1  0  0  0  0 
 41 99  1  0  0  0  0 
 41100  1  0  0  0  0 
 41101  1  0  0  0  0 
 42102  1  0  0  0  0 
 42103  1  0  0  0  0 
 44104  1  0  0  0  0 
 44105  1  0  0  0  0 
 44106  1  0  0  0  0 
 46107  1  0  0  0  0 
 46108  1  0  0  0  0 
 46109  1  0  0  0  0 
 47110  1  0  0  0  0 
 47111  1  0  0  0  0 
 47112  1  0  0  0  0 
 48113  1  0  0  0  0 
 49114  1  0  0  0  0 
 51115  1  0  0  0  0 
 52116  1  0  0  0  0 
 52117  1  0  0  0  0 
 52118  1  0  0  0  0 
 53119  1  0  0  0  0 
 53120  1  0  0  0  0 
 53121  1  0  0  0  0 
 56122  1  0  0  0  0 
 56123  1  0  0  0  0 
 56124  1  0  0  0  0 
M  END
> <cdk:Title>
troleandomycin

> <Conformer>
1

> <SuperDrugID>
SD002498

$$$$
