clozapine
  CDK     0628171802

 42 45  0  0  0  0  0  0  0  0999 V2000
    1.5254    1.4628    4.3825 C   0  0  0  0  0  0  0  0  0  0  0  0
    0.9539    1.2651    3.0206 N   0  0  1  0  0  0  0  0  0  0  0  0
    1.8200    0.4377    2.1246 C   0  0  1  0  0  0  0  0  0  0  0  0
    1.2407    0.4221    0.6874 C   0  0  1  0  0  0  0  0  0  0  0  0
   -0.1557    0.0306    0.6935 N   0  0  0  0  0  0  0  0  0  0  0  0
   -1.0397    0.7252    1.6129 C   0  0  2  0  0  0  0  0  0  0  0  0
   -0.4562    0.7725    3.0456 C   0  0  1  0  0  0  0  0  0  0  0  0
   -0.6309   -0.9517   -0.1129 C   0  0  0  0  0  0  0  0  0  0  0  0
    0.0212   -2.0577   -0.0312 N   0  0  0  0  0  0  0  0  0  0  0  0
   -0.1206   -3.2627   -0.5469 C   0  0  0  0  0  0  0  0  0  0  0  0
    1.0408   -4.0635   -0.5830 C   0  0  0  0  0  0  0  0  0  0  0  0
    0.9811   -5.3943   -1.0359 C   0  0  0  0  0  0  0  0  0  0  0  0
    2.3877   -6.3332   -1.1085 Cl  0  0  0  0  0  0  0  0  0  0  0  0
   -0.2549   -5.9395   -1.4247 C   0  0  0  0  0  0  0  0  0  0  0  0
   -1.4161   -5.1483   -1.3900 C   0  0  0  0  0  0  0  0  0  0  0  0
   -1.3570   -3.7969   -0.9854 C   0  0  0  0  0  0  0  0  0  0  0  0
   -2.5188   -3.1005   -1.0593 N   0  0  0  0  0  0  0  0  0  0  0  0
   -2.6721   -1.7690   -1.2956 C   0  0  0  0  0  0  0  0  0  0  0  0
   -1.7555   -0.7389   -0.9330 C   0  0  0  0  0  0  0  0  0  0  0  0
   -2.0173    0.5750   -1.4106 C   0  0  0  0  0  0  0  0  0  0  0  0
   -3.1870    0.8841   -2.1224 C   0  0  0  0  0  0  0  0  0  0  0  0
   -4.1223   -0.1240   -2.3900 C   0  0  0  0  0  0  0  0  0  0  0  0
   -3.8607   -1.4428   -1.9882 C   0  0  0  0  0  0  0  0  0  0  0  0
    2.4999    1.9488    4.3169 H   0  0  0  0  0  0  0  0  0  0  0  0
    1.6415    0.5117    4.9037 H   0  0  0  0  0  0  0  0  0  0  0  0
    0.8815    2.1082    4.9821 H   0  0  0  0  0  0  0  0  0  0  0  0
    2.8306    0.8528    2.0820 H   0  0  0  0  0  0  0  0  0  0  0  0
    1.8882   -0.5888    2.5027 H   0  0  0  0  0  0  0  0  0  0  0  0
    1.3089    1.4278    0.2639 H   0  0  0  0  0  0  0  0  0  0  0  0
    1.8637   -0.2298    0.0658 H   0  0  0  0  0  0  0  0  0  0  0  0
   -2.0310    0.2598    1.6703 H   0  0  0  0  0  0  0  0  0  0  0  0
   -1.1756    1.7485    1.2537 H   0  0  0  0  0  0  0  0  0  0  0  0
   -0.5038   -0.2278    3.4879 H   0  0  0  0  0  0  0  0  0  0  0  0
   -1.0802    1.4437    3.6454 H   0  0  0  0  0  0  0  0  0  0  0  0
    1.9375   -3.6763   -0.2767 H   0  0  0  0  0  0  0  0  0  0  0  0
   -0.3152   -6.9102   -1.7384 H   0  0  0  0  0  0  0  0  0  0  0  0
   -2.3061   -5.5657   -1.6786 H   0  0  0  0  0  0  0  0  0  0  0  0
   -3.3313   -3.6340   -1.0742 H   0  0  0  0  0  0  0  0  0  0  0  0
   -1.3542    1.3347   -1.2405 H   0  0  0  0  0  0  0  0  0  0  0  0
   -3.3605    1.8414   -2.4381 H   0  0  0  0  0  0  0  0  0  0  0  0
   -4.9852    0.1001   -2.8874 H   0  0  0  0  0  0  0  0  0  0  0  0
   -4.5440   -2.1692   -2.2227 H   0  0  0  0  0  0  0  0  0  0  0  0
  1  2  1  0  0  0  0 
  2  3  1  0  0  0  0 
  3  4  1  0  0  0  0 
  4  5  1  0  0  0  0 
  5  6  1  0  0  0  0 
  6  7  1  0  0  0  0 
  2  7  1  0  0  0  0 
  5  8  1  0  0  0  0 
  8  9  2  0  0  0  0 
  9 10  1  0  0  0  0 
 10 11  2  0  0  0  0 
 11 12  1  0  0  0  0 
 12 13  1  0  0  0  0 
 12 14  2  0  0  0  0 
 14 15  1  0  0  0  0 
 15 16  2  0  0  0  0 
 10 16  1  0  0  0  0 
 16 17  1  0  0  0  0 
 17 18  1  0  0  0  0 
 18 19  2  0  0  0  0 
  8 19  1  0  0  0  0 
 19 20  1  0  0  0  0 
 20 21  2  0  0  0  0 
 21 22  1  0  0  0  0 
 22 23  2  0  0  0  0 
 18 23  1  0  0  0  0 
  1 24  1  0  0  0  0 
  1 25  1  0  0  0  0 
  1 26  1  0  0  0  0 
  3 27  1  0  0  0  0 
  3 28  1  0  0  0  0 
  4 29  1  0  0  0  0 
  4 30  1  0  0  0  0 
  6 31  1  0  0  0  0 
  6 32  1  0  0  0  0 
  7 33  1  0  0  0  0 
  7 34  1  0  0  0  0 
 11 35  1  0  0  0  0 
 14 36  1  0  0  0  0 
 15 37  1  0  0  0  0 
 17 38  1  0  0  0  0 
 20 39  1  0  0  0  0 
 21 40  1  0  0  0  0 
 22 41  1  0  0  0  0 
 23 42  1  0  0  0  0 
M  END
> <cdk:Title>
clozapine

> <Conformer>
1

> <SuperDrugID>
SD000639

$$$$
