norfenefrine
  CDK     0628171801

 22 22  0  0  0  0  0  0  0  0999 V2000
    1.5670   -0.1220   -0.1127 N   0  0  1  0  0  0  0  0  0  0  0  0
    0.8858   -0.3600    1.1645 C   0  0  2  0  0  0  0  0  0  0  0  0
   -0.4982    0.3314    1.2145 C   0  0  1  0  0  0  0  0  0  0  0  0
   -1.3065   -0.1070    0.1189 O   0  0  0  0  0  0  0  0  0  0  0  0
   -1.1690    0.0817    2.5250 C   0  0  0  0  0  0  0  0  0  0  0  0
   -1.9952   -1.0527    2.7211 C   0  0  0  0  0  0  0  0  0  0  0  0
   -2.6146   -1.2873    3.9627 C   0  0  0  0  0  0  0  0  0  0  0  0
   -3.4105   -2.3685    4.1342 O   0  0  0  0  0  0  0  0  0  0  0  0
   -2.4046   -0.3982    5.0325 C   0  0  0  0  0  0  0  0  0  0  0  0
   -1.5746    0.7236    4.8599 C   0  0  0  0  0  0  0  0  0  0  0  0
   -0.9657    0.9649    3.6145 C   0  0  0  0  0  0  0  0  0  0  0  0
    1.7187    0.8857   -0.1863 H   0  0  0  0  0  0  0  0  0  0  0  0
    2.4913   -0.5527   -0.0408 H   0  0  0  0  0  0  0  0  0  0  0  0
    1.5229    0.0293    1.9620 H   0  0  0  0  0  0  0  0  0  0  0  0
    0.7766   -1.4379    1.2990 H   0  0  0  0  0  0  0  0  0  0  0  0
   -0.3514    1.4077    1.0758 H   0  0  0  0  0  0  0  0  0  0  0  0
   -0.7848    0.0861   -0.6883 H   0  0  0  0  0  0  0  0  0  0  0  0
   -2.1490   -1.7168    1.9578 H   0  0  0  0  0  0  0  0  0  0  0  0
   -4.2916   -2.0761    3.8186 H   0  0  0  0  0  0  0  0  0  0  0  0
   -2.8517   -0.5678    5.9383 H   0  0  0  0  0  0  0  0  0  0  0  0
   -1.4175    1.3654    5.6406 H   0  0  0  0  0  0  0  0  0  0  0  0
   -0.3614    1.7855    3.5107 H   0  0  0  0  0  0  0  0  0  0  0  0
  1  2  1  0  0  0  0 
  3  2  1  0  0  0  0 
  3  4  1  0  0  0  0 
  3  5  1  0  0  0  0 
  5  6  2  0  0  0  0 
  6  7  1  0  0  0  0 
  7  8  1  0  0  0  0 
  7  9  2  0  0  0  0 
  9 10  1  0  0  0  0 
 10 11  2  0  0  0  0 
  5 11  1  0  0  0  0 
  1 12  1  0  0  0  0 
  1 13  1  0  0  0  0 
  2 14  1  0  0  0  0 
  2 15  1  0  0  0  0 
  3 16  1  0  0  0  0 
  4 17  1  0  0  0  0 
  6 18  1  0  0  0  0 
  8 19  1  0  0  0  0 
  9 20  1  0  0  0  0 
 10 21  1  0  0  0  0 
 11 22  1  0  0  0  0 
M  END
> <cdk:Title>
norfenefrine

> <Conformer>
1

> <SuperDrugID>
SD001758

$$$$
