fenpiverinium
  CDK     0628171801

 54 56  0  0  0  0  0  0  0  0999 V2000
    1.0242    2.1781   -2.9186 C   0  0  2  0  0  0  0  0  0  0  0  0
    0.8276    2.7593   -1.4493 C   0  0  2  0  0  0  0  0  0  0  0  0
   -0.3271    2.2041   -3.6041 C   0  0  0  0  0  0  0  0  0  0  0  0
    1.3874    0.6927   -3.0022 C   0  0  0  0  0  0  0  0  0  0  0  0
    2.0268    3.1053   -3.6098 C   0  0  0  0  0  0  0  0  0  0  0  0
    2.1022    2.9556   -0.5499 C   0  0  1  0  0  0  0  0  0  0  0  0
   -0.4842    2.4705   -4.9178 N   0  0  0  0  0  0  0  0  0  0  0  0
   -1.3812    1.8995   -2.9965 O   0  0  0  0  0  0  0  0  0  0  0  0
    1.4947   -0.1700   -1.8752 C   0  0  0  0  0  0  0  0  0  0  0  0
    1.6004    0.0806   -4.2717 C   0  0  0  0  0  0  0  0  0  0  0  0
    3.3649    2.7251   -3.9100 C   0  0  0  0  0  0  0  0  0  0  0  0
    1.6659    4.4447   -3.9280 C   0  0  0  0  0  0  0  0  0  0  0  0
    1.9306    3.4882    0.8775 N   0  0  1  0  0  0  0  0  0  0  0  0
    1.7962   -1.5379   -2.0025 C   0  0  0  0  0  0  0  0  0  0  0  0
    1.8918   -1.2882   -4.4099 C   0  0  0  0  0  0  0  0  0  0  0  0
    4.2654    3.6059   -4.5385 C   0  0  0  0  0  0  0  0  0  0  0  0
    2.5636    5.3340   -4.5473 C   0  0  0  0  0  0  0  0  0  0  0  0
    0.9495    2.6189    1.6424 C   0  0  0  0  0  0  0  0  0  0  0  0
    3.2657    3.4300    1.6173 C   0  0  2  0  0  0  0  0  0  0  0  0
    1.4261    4.9235    0.9109 C   0  0  1  0  0  0  0  0  0  0  0  0
    1.9846   -2.1031   -3.2718 C   0  0  0  0  0  0  0  0  0  0  0  0
    3.8619    4.9099   -4.8637 C   0  0  0  0  0  0  0  0  0  0  0  0
    4.3368    4.4519    1.1383 C   0  0  2  0  0  0  0  0  0  0  0  0
    2.4329    5.9965    0.4084 C   0  0  1  0  0  0  0  0  0  0  0  0
    3.7762    5.8944    1.1669 C   0  0  1  0  0  0  0  0  0  0  0  0
    0.1267    2.1145   -0.9192 H   0  0  0  0  0  0  0  0  0  0  0  0
    0.3337    3.7302   -1.5236 H   0  0  0  0  0  0  0  0  0  0  0  0
    2.6200    1.9974   -0.5035 H   0  0  0  0  0  0  0  0  0  0  0  0
    2.7748    3.6139   -1.0978 H   0  0  0  0  0  0  0  0  0  0  0  0
   -1.3657    2.4330   -5.3224 H   0  0  0  0  0  0  0  0  0  0  0  0
    0.2850    2.6888   -5.4663 H   0  0  0  0  0  0  0  0  0  0  0  0
    1.3477    0.1706   -0.9308 H   0  0  0  0  0  0  0  0  0  0  0  0
    1.5415    0.6396   -5.1252 H   0  0  0  0  0  0  0  0  0  0  0  0
    3.7158    1.7993   -3.6668 H   0  0  0  0  0  0  0  0  0  0  0  0
    0.7325    4.7971   -3.7098 H   0  0  0  0  0  0  0  0  0  0  0  0
    1.8744   -2.1242   -1.1675 H   0  0  0  0  0  0  0  0  0  0  0  0
    2.0382   -1.6923   -5.3385 H   0  0  0  0  0  0  0  0  0  0  0  0
    5.2170    3.3036   -4.7553 H   0  0  0  0  0  0  0  0  0  0  0  0
    2.2692    6.2883   -4.7683 H   0  0  0  0  0  0  0  0  0  0  0  0
   -0.0707    2.7282    1.2709 H   0  0  0  0  0  0  0  0  0  0  0  0
    0.9049    2.8798    2.7030 H   0  0  0  0  0  0  0  0  0  0  0  0
    1.2164    1.5611    1.5818 H   0  0  0  0  0  0  0  0  0  0  0  0
    3.7009    2.4262    1.5550 H   0  0  0  0  0  0  0  0  0  0  0  0
    3.1215    3.6274    2.6866 H   0  0  0  0  0  0  0  0  0  0  0  0
    0.5053    5.0323    0.3353 H   0  0  0  0  0  0  0  0  0  0  0  0
    1.1670    5.2018    1.9390 H   0  0  0  0  0  0  0  0  0  0  0  0
    2.1873   -3.1005   -3.3660 H   0  0  0  0  0  0  0  0  0  0  0  0
    4.5118    5.5474   -5.3259 H   0  0  0  0  0  0  0  0  0  0  0  0
    4.6732    4.2053    0.1294 H   0  0  0  0  0  0  0  0  0  0  0  0
    5.2116    4.3957    1.7922 H   0  0  0  0  0  0  0  0  0  0  0  0
    2.6095    5.8868   -0.6633 H   0  0  0  0  0  0  0  0  0  0  0  0
    2.0060    6.9898    0.5671 H   0  0  0  0  0  0  0  0  0  0  0  0
    3.6256    6.2016    2.2054 H   0  0  0  0  0  0  0  0  0  0  0  0
    4.4994    6.5800    0.7197 H   0  0  0  0  0  0  0  0  0  0  0  0
  1  2  1  0  0  0  0 
  1  3  1  0  0  0  0 
  1  4  1  0  0  0  0 
  1  5  1  0  0  0  0 
  2  6  1  0  0  0  0 
  3  7  1  0  0  0  0 
  3  8  2  0  0  0  0 
  4  9  2  0  0  0  0 
  4 10  1  0  0  0  0 
  5 11  2  0  0  0  0 
  5 12  1  0  0  0  0 
  6 13  1  0  0  0  0 
  9 14  1  0  0  0  0 
 10 15  2  0  0  0  0 
 11 16  1  0  0  0  0 
 12 17  2  0  0  0  0 
 13 18  1  0  0  0  0 
 13 19  1  0  0  0  0 
 13 20  1  0  0  0  0 
 14 21  2  0  0  0  0 
 15 21  1  0  0  0  0 
 16 22  2  0  0  0  0 
 17 22  1  0  0  0  0 
 19 23  1  0  0  0  0 
 20 24  1  0  0  0  0 
 23 25  1  0  0  0  0 
 24 25  1  0  0  0  0 
  2 26  1  0  0  0  0 
  2 27  1  0  0  0  0 
  6 28  1  0  0  0  0 
  6 29  1  0  0  0  0 
  7 30  1  0  0  0  0 
  7 31  1  0  0  0  0 
  9 32  1  0  0  0  0 
 10 33  1  0  0  0  0 
 11 34  1  0  0  0  0 
 12 35  1  0  0  0  0 
 14 36  1  0  0  0  0 
 15 37  1  0  0  0  0 
 16 38  1  0  0  0  0 
 17 39  1  0  0  0  0 
 18 40  1  0  0  0  0 
 18 41  1  0  0  0  0 
 18 42  1  0  0  0  0 
 19 43  1  0  0  0  0 
 19 44  1  0  0  0  0 
 20 45  1  0  0  0  0 
 20 46  1  0  0  0  0 
 21 47  1  0  0  0  0 
 22 48  1  0  0  0  0 
 23 49  1  0  0  0  0 
 23 50  1  0  0  0  0 
 24 51  1  0  0  0  0 
 24 52  1  0  0  0  0 
 25 53  1  0  0  0  0 
 25 54  1  0  0  0  0 
M  CHG  1  13   1
M  END
> <cdk:Title>
fenpiverinium

> <Conformer>
1

> <SuperDrugID>
SD001037

$$$$
