tenonitrozole
  CDK     0628171801

 21 22  0  0  0  0  0  0  0  0999 V2000
    4.6337   -2.0180    0.9815 N   0  0  0  0  0  0  0  0  0  0  0  0
    5.2279   -2.7434    1.9665 C   0  0  0  0  0  0  0  0  0  0  0  0
    3.3613   -1.5540    0.9485 C   0  0  0  0  0  0  0  0  0  0  0  0
    4.6210   -3.0597    3.0169 O   0  0  0  0  0  0  0  0  0  0  0  0
    6.5660   -3.1510    1.7950 C   0  0  0  0  0  0  0  0  0  0  0  0
    2.7219   -0.5749   -0.3565 S   0  0  0  0  0  0  0  0  0  0  0  0
    2.3560   -1.7251    1.8359 N   0  0  0  0  0  0  0  0  0  0  0  0
    7.3750   -3.8430    2.7105 C   0  0  0  0  0  0  0  0  0  0  0  0
    7.5623   -2.8899    0.3703 S   0  0  0  0  0  0  0  0  0  0  0  0
    1.1118   -0.4131    0.3207 C   0  0  0  0  0  0  0  0  0  0  0  0
    1.1700   -1.1353    1.5251 C   0  0  0  0  0  0  0  0  0  0  0  0
    8.6822   -4.1333    2.2768 C   0  0  0  0  0  0  0  0  0  0  0  0
    8.9924   -3.6890    0.9910 C   0  0  0  0  0  0  0  0  0  0  0  0
    0.0923    0.2485   -0.2092 N   0  0  0  0  0  0  0  0  0  0  0  0
    0.2264    0.8752   -1.3042 O   0  0  0  0  0  0  0  0  0  0  0  0
   -0.9563    0.2821    0.3010 O   0  0  0  0  0  0  0  0  0  0  0  0
    5.1814   -1.8057    0.2105 H   0  0  0  0  0  0  0  0  0  0  0  0
    7.0448   -4.1215    3.6370 H   0  0  0  0  0  0  0  0  0  0  0  0
    0.3644   -1.2201    2.1469 H   0  0  0  0  0  0  0  0  0  0  0  0
    9.3549   -4.6343    2.8586 H   0  0  0  0  0  0  0  0  0  0  0  0
    9.8806   -3.8069    0.5024 H   0  0  0  0  0  0  0  0  0  0  0  0
  1  2  1  0  0  0  0 
  1  3  1  0  0  0  0 
  2  4  2  0  0  0  0 
  2  5  1  0  0  0  0 
  3  6  1  0  0  0  0 
  3  7  2  0  0  0  0 
  5  8  2  0  0  0  0 
  5  9  1  0  0  0  0 
  6 10  1  0  0  0  0 
  7 11  1  0  0  0  0 
  8 12  1  0  0  0  0 
  9 13  1  0  0  0  0 
 10 11  2  0  0  0  0 
 10 14  1  0  0  0  0 
 12 13  2  0  0  0  0 
 14 15  1  0  0  0  0 
 14 16  2  0  0  0  0 
  1 17  1  0  0  0  0 
  8 18  1  0  0  0  0 
 11 19  1  0  0  0  0 
 12 20  1  0  0  0  0 
 13 21  1  0  0  0  0 
M  CHG  1  14   1
M  CHG  1  15  -1
M  END
> <cdk:Title>
tenonitrozole

> <Conformer>
1

> <SuperDrugID>
SD002333

$$$$
