propafenone
  CDK     0628171801

 52 53  0  0  0  0  0  0  0  0999 V2000
   -0.9035    1.0099   -2.6352 O   0  0  0  0  0  0  0  0  0  0  0  0
   -0.3927    1.2894   -1.3135 C   0  0  1  0  0  0  0  0  0  0  0  0
   -1.0649    2.1209   -3.4284 C   0  0  0  0  0  0  0  0  0  0  0  0
   -0.1763   -0.0342   -0.5336 C   0  0  2  0  0  0  0  0  0  0  0  0
   -0.0472    2.5821   -4.3170 C   0  0  0  0  0  0  0  0  0  0  0  0
   -2.3086    2.7844   -3.3595 C   0  0  0  0  0  0  0  0  0  0  0  0
   -1.4833   -0.8489   -0.3758 C   0  0  2  0  0  0  0  0  0  0  0  0
    0.3510    0.2594    0.7597 O   0  0  0  0  0  0  0  0  0  0  0  0
    1.2080    1.8946   -4.4375 C   0  0  0  0  0  0  0  0  0  0  0  0
   -0.3240    3.7434   -5.0906 C   0  0  0  0  0  0  0  0  0  0  0  0
   -2.5593    3.9163   -4.1483 C   0  0  0  0  0  0  0  0  0  0  0  0
   -1.2524   -2.1121    0.3634 N   0  0  1  0  0  0  0  0  0  0  0  0
    2.3984    2.4708   -5.1237 C   0  0  1  0  0  0  0  0  0  0  0  0
    1.3193    0.7317   -3.9803 O   0  0  0  0  0  0  0  0  0  0  0  0
   -1.5666    4.3989   -5.0119 C   0  0  0  0  0  0  0  0  0  0  0  0
   -2.4677   -2.9501    0.4781 C   0  0  2  0  0  0  0  0  0  0  0  0
    3.7015    1.6284   -5.0279 C   0  0  2  0  0  0  0  0  0  0  0  0
   -2.1741   -4.2377    1.2802 C   0  0  2  0  0  0  0  0  0  0  0  0
    4.7929    2.2191   -5.8433 C   0  0  0  0  0  0  0  0  0  0  0  0
   -3.4344   -5.1148    1.4548 C   0  0  0  0  0  0  0  0  0  0  0  0
    4.9535    1.8472   -7.1994 C   0  0  0  0  0  0  0  0  0  0  0  0
    5.6722    3.1793   -5.2897 C   0  0  0  0  0  0  0  0  0  0  0  0
    5.9734    2.4174   -7.9830 C   0  0  0  0  0  0  0  0  0  0  0  0
    6.6925    3.7504   -6.0735 C   0  0  0  0  0  0  0  0  0  0  0  0
    6.8412    3.3692   -7.4191 C   0  0  0  0  0  0  0  0  0  0  0  0
    0.5682    1.8095   -1.3771 H   0  0  0  0  0  0  0  0  0  0  0  0
   -1.0917    1.9237   -0.7599 H   0  0  0  0  0  0  0  0  0  0  0  0
    0.5643   -0.6394   -1.0636 H   0  0  0  0  0  0  0  0  0  0  0  0
   -3.0360    2.4390   -2.7286 H   0  0  0  0  0  0  0  0  0  0  0  0
   -1.8792   -1.0800   -1.3687 H   0  0  0  0  0  0  0  0  0  0  0  0
   -2.2153   -0.2415    0.1630 H   0  0  0  0  0  0  0  0  0  0  0  0
    1.2009    0.7194    0.5922 H   0  0  0  0  0  0  0  0  0  0  0  0
    0.3696    4.1309   -5.7348 H   0  0  0  0  0  0  0  0  0  0  0  0
   -3.4628    4.3863   -4.0942 H   0  0  0  0  0  0  0  0  0  0  0  0
   -0.5657   -2.6528   -0.1657 H   0  0  0  0  0  0  0  0  0  0  0  0
    2.1444    2.5992   -6.1778 H   0  0  0  0  0  0  0  0  0  0  0  0
    2.5999    3.4565   -4.6971 H   0  0  0  0  0  0  0  0  0  0  0  0
   -1.7473    5.2271   -5.5865 H   0  0  0  0  0  0  0  0  0  0  0  0
   -2.8197   -3.2254   -0.5203 H   0  0  0  0  0  0  0  0  0  0  0  0
   -3.2539   -2.3850    0.9860 H   0  0  0  0  0  0  0  0  0  0  0  0
    3.5064    0.6065   -5.3692 H   0  0  0  0  0  0  0  0  0  0  0  0
    4.0101    1.5594   -3.9798 H   0  0  0  0  0  0  0  0  0  0  0  0
   -1.7882   -3.9671    2.2665 H   0  0  0  0  0  0  0  0  0  0  0  0
   -1.4061   -4.8196    0.7634 H   0  0  0  0  0  0  0  0  0  0  0  0
   -3.1894   -6.0105    2.0266 H   0  0  0  0  0  0  0  0  0  0  0  0
   -3.8245   -5.4194    0.4829 H   0  0  0  0  0  0  0  0  0  0  0  0
   -4.2102   -4.5639    1.9894 H   0  0  0  0  0  0  0  0  0  0  0  0
    4.3242    1.1626   -7.6249 H   0  0  0  0  0  0  0  0  0  0  0  0
    5.5705    3.4713   -4.3150 H   0  0  0  0  0  0  0  0  0  0  0  0
    6.0792    2.1424   -8.9630 H   0  0  0  0  0  0  0  0  0  0  0  0
    7.3223    4.4459   -5.6653 H   0  0  0  0  0  0  0  0  0  0  0  0
    7.5835    3.7834   -7.9888 H   0  0  0  0  0  0  0  0  0  0  0  0
  1  2  1  0  0  0  0 
  1  3  1  0  0  0  0 
  4  2  1  0  0  0  0 
  3  5  2  0  0  0  0 
  3  6  1  0  0  0  0 
  4  7  1  0  0  0  0 
  4  8  1  0  0  0  0 
  5  9  1  0  0  0  0 
  5 10  1  0  0  0  0 
  6 11  2  0  0  0  0 
  7 12  1  0  0  0  0 
  9 13  1  0  0  0  0 
  9 14  2  0  0  0  0 
 10 15  2  0  0  0  0 
 11 15  1  0  0  0  0 
 12 16  1  0  0  0  0 
 13 17  1  0  0  0  0 
 16 18  1  0  0  0  0 
 17 19  1  0  0  0  0 
 18 20  1  0  0  0  0 
 19 21  2  0  0  0  0 
 19 22  1  0  0  0  0 
 21 23  1  0  0  0  0 
 22 24  2  0  0  0  0 
 23 25  2  0  0  0  0 
 24 25  1  0  0  0  0 
 26  2  1  0  0  0  0 
 27  2  1  0  0  0  0 
 28  4  1  0  0  0  0 
 29  6  1  0  0  0  0 
 30  7  1  0  0  0  0 
 31  7  1  0  0  0  0 
 32  8  1  0  0  0  0 
 33 10  1  0  0  0  0 
 34 11  1  0  0  0  0 
 35 12  1  0  0  0  0 
 36 13  1  0  0  0  0 
 37 13  1  0  0  0  0 
 38 15  1  0  0  0  0 
 39 16  1  0  0  0  0 
 40 16  1  0  0  0  0 
 41 17  1  0  0  0  0 
 42 17  1  0  0  0  0 
 43 18  1  0  0  0  0 
 44 18  1  0  0  0  0 
 45 20  1  0  0  0  0 
 46 20  1  0  0  0  0 
 47 20  1  0  0  0  0 
 48 21  1  0  0  0  0 
 49 22  1  0  0  0  0 
 50 23  1  0  0  0  0 
 51 24  1  0  0  0  0 
 52 25  1  0  0  0  0 
M  END
> <cdk:Title>
propafenone

> <Conformer>
1

> <SuperDrugID>
SD002057

$$$$
