chlorobutanol
  CDK     0628171801

 15 14  0  0  0  0  0  0  0  0999 V2000
    2.3782    0.1713    1.1816 C   0  0  0  0  0  0  0  0  0  0  0  0
    1.2450   -0.4060    0.2777 C   0  0  2  0  0  0  0  0  0  0  0  0
    0.0749   -0.8998    1.1839 C   0  0  0  0  0  0  0  0  0  0  0  0
    1.7810   -1.5599   -0.3804 O   0  0  0  0  0  0  0  0  0  0  0  0
    0.7752    0.6019   -0.8367 C   0  0  2  0  0  0  0  0  0  0  0  0
   -0.4462   -0.0804   -1.9123 Cl  0  0  0  0  0  0  0  0  0  0  0  0
    2.0822    1.0955   -1.9149 Cl  0  0  0  0  0  0  0  0  0  0  0  0
    0.0838    2.0899   -0.1905 Cl  0  0  0  0  0  0  0  0  0  0  0  0
    2.7060   -0.5726    1.9111 H   0  0  0  0  0  0  0  0  0  0  0  0
    2.0333    1.0516    1.7265 H   0  0  0  0  0  0  0  0  0  0  0  0
    3.2474    0.4513    0.5864 H   0  0  0  0  0  0  0  0  0  0  0  0
    0.4338   -1.6293    1.9133 H   0  0  0  0  0  0  0  0  0  0  0  0
   -0.7003   -1.3846    0.5904 H   0  0  0  0  0  0  0  0  0  0  0  0
   -0.3752   -0.0685    1.7289 H   0  0  0  0  0  0  0  0  0  0  0  0
    2.0634   -2.1655    0.3359 H   0  0  0  0  0  0  0  0  0  0  0  0
  1  2  1  0  0  0  0 
  2  3  1  0  0  0  0 
  2  4  1  0  0  0  0 
  2  5  1  0  0  0  0 
  5  6  1  0  0  0  0 
  5  7  1  0  0  0  0 
  5  8  1  0  0  0  0 
  1  9  1  0  0  0  0 
  1 10  1  0  0  0  0 
  1 11  1  0  0  0  0 
  3 12  1  0  0  0  0 
  3 13  1  0  0  0  0 
  3 14  1  0  0  0  0 
  4 15  1  0  0  0  0 
M  END
> <cdk:Title>
chlorobutanol

> <Conformer>
1

> <SuperDrugID>
SD002683

$$$$
