thiazosulfone
  CDK     0628171801

 25 26  0  0  0  0  0  0  0  0999 V2000
    2.3136    3.8026    0.0856 S   0  0  1  0  0  0  0  0  0  0  0  0
    3.6564    3.6742   -0.7864 O   0  0  0  0  0  0  0  0  0  0  0  0
    1.5175    5.0958   -0.4416 O   0  0  0  0  0  0  0  0  0  0  0  0
    1.3054    2.3550   -0.1270 C   0  0  0  0  0  0  0  0  0  0  0  0
    2.7516    4.0509    1.7833 C   0  0  0  0  0  0  0  0  0  0  0  0
    1.8877    1.0819   -0.3086 C   0  0  0  0  0  0  0  0  0  0  0  0
   -0.0997    2.4734   -0.1011 C   0  0  0  0  0  0  0  0  0  0  0  0
    3.6944    5.3793    2.4315 S   0  0  0  0  0  0  0  0  0  0  0  0
    2.4287    3.2586    2.8928 C   0  0  0  0  0  0  0  0  0  0  0  0
    1.0726   -0.0567   -0.4666 C   0  0  0  0  0  0  0  0  0  0  0  0
   -0.9149    1.3378   -0.2635 C   0  0  0  0  0  0  0  0  0  0  0  0
    3.6082    4.8258    4.0953 C   0  0  0  0  0  0  0  0  0  0  0  0
    2.8883    3.6841    4.1012 N   0  0  0  0  0  0  0  0  0  0  0  0
   -0.3317    0.0680   -0.4453 C   0  0  0  0  0  0  0  0  0  0  0  0
    4.1566    5.4133    5.1682 N   0  0  0  0  0  0  0  0  0  0  0  0
   -1.1152   -1.0196   -0.5884 N   0  0  0  0  0  0  0  0  0  0  0  0
    2.9046    0.9741   -0.3233 H   0  0  0  0  0  0  0  0  0  0  0  0
   -0.5374    3.3853    0.0394 H   0  0  0  0  0  0  0  0  0  0  0  0
    1.8773    2.4035    2.8106 H   0  0  0  0  0  0  0  0  0  0  0  0
    1.5050   -0.9758   -0.5977 H   0  0  0  0  0  0  0  0  0  0  0  0
   -1.9331    1.4436   -0.2501 H   0  0  0  0  0  0  0  0  0  0  0  0
    4.6812    6.2228    5.0633 H   0  0  0  0  0  0  0  0  0  0  0  0
    4.0335    5.0233    6.0498 H   0  0  0  0  0  0  0  0  0  0  0  0
   -2.0802   -0.9294   -0.5552 H   0  0  0  0  0  0  0  0  0  0  0  0
   -0.7192   -1.8960   -0.7156 H   0  0  0  0  0  0  0  0  0  0  0  0
  1  2  2  0  0  0  0 
  1  3  2  0  0  0  0 
  1  4  1  0  0  0  0 
  1  5  1  0  0  0  0 
  4  6  2  0  0  0  0 
  4  7  1  0  0  0  0 
  5  8  1  0  0  0  0 
  5  9  2  0  0  0  0 
  6 10  1  0  0  0  0 
  7 11  2  0  0  0  0 
  8 12  1  0  0  0  0 
  9 13  1  0  0  0  0 
 10 14  2  0  0  0  0 
 11 14  1  0  0  0  0 
 12 13  2  0  0  0  0 
 12 15  1  0  0  0  0 
 14 16  1  0  0  0  0 
  6 17  1  0  0  0  0 
  7 18  1  0  0  0  0 
  9 19  1  0  0  0  0 
 10 20  1  0  0  0  0 
 11 21  1  0  0  0  0 
 15 22  1  0  0  0  0 
 15 23  1  0  0  0  0 
 16 24  1  0  0  0  0 
 16 25  1  0  0  0  0 
M  END
> <cdk:Title>
thiazosulfone

> <Conformer>
1

> <SuperDrugID>
SD003086

$$$$
