carbifene
  CDK     0628171801

 66 68  0  0  0  0  0  0  0  0999 V2000
   -1.2103    1.4049   -1.1869 C   0  0  2  0  0  0  0  0  0  0  0  0
   -1.7923    2.7736   -0.8753 C   0  0  0  0  0  0  0  0  0  0  0  0
   -0.4006    1.0154   -0.0316 O   0  0  0  0  0  0  0  0  0  0  0  0
   -0.2474    1.4997   -2.3715 C   0  0  0  0  0  0  0  0  0  0  0  0
   -2.4059    0.4940   -1.4062 C   0  0  0  0  0  0  0  0  0  0  0  0
   -2.1567    3.2942    0.3668 N   0  0  0  0  0  0  0  0  0  0  0  0
   -1.9801    3.5328   -1.8619 O   0  0  0  0  0  0  0  0  0  0  0  0
    0.5257   -0.1010   -0.1328 C   0  0  1  0  0  0  0  0  0  0  0  0
    0.7337    2.5306   -2.4051 C   0  0  0  0  0  0  0  0  0  0  0  0
   -0.2170    0.5505   -3.4303 C   0  0  0  0  0  0  0  0  0  0  0  0
   -3.2781    0.6999   -2.5115 C   0  0  0  0  0  0  0  0  0  0  0  0
   -2.7290   -0.5771   -0.5288 C   0  0  0  0  0  0  0  0  0  0  0  0
   -2.6850    2.4847    1.4538 C   0  0  1  0  0  0  0  0  0  0  0  0
   -2.1323    4.7312    0.5946 C   0  0  0  0  0  0  0  0  0  0  0  0
    0.9155   -0.6055    1.2688 C   0  0  0  0  0  0  0  0  0  0  0  0
    1.6423    2.6549   -3.4717 C   0  0  0  0  0  0  0  0  0  0  0  0
    0.6990    0.6633   -4.4928 C   0  0  0  0  0  0  0  0  0  0  0  0
   -4.3964   -0.1237   -2.7377 C   0  0  0  0  0  0  0  0  0  0  0  0
   -3.8507   -1.3991   -0.7458 C   0  0  0  0  0  0  0  0  0  0  0  0
   -4.2059    2.2187    1.2450 C   0  0  2  0  0  0  0  0  0  0  0  0
    1.6163    1.7268   -4.5240 C   0  0  0  0  0  0  0  0  0  0  0  0
   -4.6845   -1.1724   -1.8514 C   0  0  0  0  0  0  0  0  0  0  0  0
   -5.0150    1.7641    2.4292 N   0  0  1  0  0  0  0  0  0  0  0  0
   -6.4418    1.4334    2.0718 C   0  0  2  0  0  0  0  0  0  0  0  0
   -4.3851    0.6860    3.2472 C   0  0  0  0  0  0  0  0  0  0  0  0
   -7.3048    2.6833    1.7485 C   0  0  2  0  0  0  0  0  0  0  0  0
   -8.7156    2.3159    1.4527 C   0  0  0  0  0  0  0  0  0  0  0  0
   -9.1007    1.9729    0.1269 C   0  0  0  0  0  0  0  0  0  0  0  0
   -9.6670    2.2898    2.4974 C   0  0  0  0  0  0  0  0  0  0  0  0
  -10.4134    1.5956   -0.2403 C   0  0  0  0  0  0  0  0  0  0  0  0
  -11.0155    1.9043    2.1529 C   0  0  0  0  0  0  0  0  0  0  0  0
  -11.4317    1.5482    0.7804 C   0  0  0  0  0  0  0  0  0  0  0  0
    0.0997   -0.9326   -0.6978 H   0  0  0  0  0  0  0  0  0  0  0  0
    1.4350    0.2266   -0.6396 H   0  0  0  0  0  0  0  0  0  0  0  0
    0.7977    3.2119   -1.6440 H   0  0  0  0  0  0  0  0  0  0  0  0
   -0.8471   -0.2538   -3.4384 H   0  0  0  0  0  0  0  0  0  0  0  0
   -3.1011    1.4562   -3.1757 H   0  0  0  0  0  0  0  0  0  0  0  0
   -2.1612   -0.7692    0.2958 H   0  0  0  0  0  0  0  0  0  0  0  0
   -2.1566    1.5400    1.5574 H   0  0  0  0  0  0  0  0  0  0  0  0
   -2.5618    3.0010    2.4107 H   0  0  0  0  0  0  0  0  0  0  0  0
   -3.1458    5.1228    0.7049 H   0  0  0  0  0  0  0  0  0  0  0  0
   -1.6457    5.2902   -0.2062 H   0  0  0  0  0  0  0  0  0  0  0  0
   -1.5711    4.9595    1.5038 H   0  0  0  0  0  0  0  0  0  0  0  0
    1.6655   -1.3967    1.1842 H   0  0  0  0  0  0  0  0  0  0  0  0
    1.3327    0.2103    1.8622 H   0  0  0  0  0  0  0  0  0  0  0  0
    0.0405   -1.0078    1.7828 H   0  0  0  0  0  0  0  0  0  0  0  0
    2.3210    3.4201   -3.4801 H   0  0  0  0  0  0  0  0  0  0  0  0
    0.6991   -0.0309   -5.2429 H   0  0  0  0  0  0  0  0  0  0  0  0
   -5.0021    0.0392   -3.5445 H   0  0  0  0  0  0  0  0  0  0  0  0
   -4.0643   -2.1631   -0.0999 H   0  0  0  0  0  0  0  0  0  0  0  0
   -4.3225    1.5086    0.4249 H   0  0  0  0  0  0  0  0  0  0  0  0
   -4.6374    3.1634    0.9134 H   0  0  0  0  0  0  0  0  0  0  0  0
    2.2674    1.8280   -5.3059 H   0  0  0  0  0  0  0  0  0  0  0  0
   -5.4990   -1.7692   -2.0126 H   0  0  0  0  0  0  0  0  0  0  0  0
   -6.9297    0.9279    2.9123 H   0  0  0  0  0  0  0  0  0  0  0  0
   -6.4710    0.7405    1.2232 H   0  0  0  0  0  0  0  0  0  0  0  0
   -3.4046    0.9882    3.6156 H   0  0  0  0  0  0  0  0  0  0  0  0
   -4.9911    0.4759    4.1312 H   0  0  0  0  0  0  0  0  0  0  0  0
   -4.2794   -0.2307    2.6647 H   0  0  0  0  0  0  0  0  0  0  0  0
   -6.8976    3.2170    0.8886 H   0  0  0  0  0  0  0  0  0  0  0  0
   -7.2590    3.3719    2.5970 H   0  0  0  0  0  0  0  0  0  0  0  0
   -8.3931    1.9938   -0.6137 H   0  0  0  0  0  0  0  0  0  0  0  0
   -9.4199    2.5253    3.4620 H   0  0  0  0  0  0  0  0  0  0  0  0
  -10.5389    1.3672   -1.2835 H   0  0  0  0  0  0  0  0  0  0  0  0
  -11.6657    1.9052    3.0031 H   0  0  0  0  0  0  0  0  0  0  0  0
  -12.3943    1.2834    0.5648 H   0  0  0  0  0  0  0  0  0  0  0  0
  1  2  1  0  0  0  0 
  1  3  1  0  0  0  0 
  1  4  1  0  0  0  0 
  1  5  1  0  0  0  0 
  2  6  1  0  0  0  0 
  2  7  2  0  0  0  0 
  3  8  1  0  0  0  0 
  4  9  2  0  0  0  0 
  4 10  1  0  0  0  0 
  5 11  2  0  0  0  0 
  5 12  1  0  0  0  0 
  6 13  1  0  0  0  0 
  6 14  1  0  0  0  0 
  8 15  1  0  0  0  0 
  9 16  1  0  0  0  0 
 10 17  2  0  0  0  0 
 11 18  1  0  0  0  0 
 12 19  2  0  0  0  0 
 13 20  1  0  0  0  0 
 16 21  2  0  0  0  0 
 17 21  1  0  0  0  0 
 18 22  2  0  0  0  0 
 19 22  1  0  0  0  0 
 20 23  1  0  0  0  0 
 23 24  1  0  0  0  0 
 23 25  1  0  0  0  0 
 24 26  1  0  0  0  0 
 26 27  1  0  0  0  0 
 27 28  2  0  0  0  0 
 27 29  1  0  0  0  0 
 28 30  1  0  0  0  0 
 29 31  2  0  0  0  0 
 30 32  2  0  0  0  0 
 31 32  1  0  0  0  0 
  8 33  1  0  0  0  0 
  8 34  1  0  0  0  0 
  9 35  1  0  0  0  0 
 10 36  1  0  0  0  0 
 11 37  1  0  0  0  0 
 12 38  1  0  0  0  0 
 13 39  1  0  0  0  0 
 13 40  1  0  0  0  0 
 14 41  1  0  0  0  0 
 14 42  1  0  0  0  0 
 14 43  1  0  0  0  0 
 15 44  1  0  0  0  0 
 15 45  1  0  0  0  0 
 15 46  1  0  0  0  0 
 16 47  1  0  0  0  0 
 17 48  1  0  0  0  0 
 18 49  1  0  0  0  0 
 19 50  1  0  0  0  0 
 20 51  1  0  0  0  0 
 20 52  1  0  0  0  0 
 21 53  1  0  0  0  0 
 22 54  1  0  0  0  0 
 24 55  1  0  0  0  0 
 24 56  1  0  0  0  0 
 25 57  1  0  0  0  0 
 25 58  1  0  0  0  0 
 25 59  1  0  0  0  0 
 26 60  1  0  0  0  0 
 26 61  1  0  0  0  0 
 28 62  1  0  0  0  0 
 29 63  1  0  0  0  0 
 30 64  1  0  0  0  0 
 31 65  1  0  0  0  0 
 32 66  1  0  0  0  0 
M  END
> <cdk:Title>
carbifene

> <Conformer>
1

> <SuperDrugID>
SD003161

$$$$
