dipivefrine
  CDK     0628171802

 54 54  0  0  0  0  0  0  0  0999 V2000
    4.3371   -3.6012   -1.3376 O   0  0  0  0  0  0  0  0  0  0  0  0
    4.9585   -3.6853   -0.1160 C   0  0  0  0  0  0  0  0  0  0  0  0
    3.0383   -3.3532   -1.7095 C   0  0  0  0  0  0  0  0  0  0  0  0
    6.4512   -3.8433   -0.0803 C   0  0  1  0  0  0  0  0  0  0  0  0
    4.2787   -3.6769    0.9382 O   0  0  0  0  0  0  0  0  0  0  0  0
    2.6515   -3.8018   -2.9930 C   0  0  0  0  0  0  0  0  0  0  0  0
    2.0961   -2.6758   -0.8956 C   0  0  0  0  0  0  0  0  0  0  0  0
    6.8614   -5.1379   -0.8520 C   0  0  0  0  0  0  0  0  0  0  0  0
    7.0798   -2.5926   -0.7738 C   0  0  0  0  0  0  0  0  0  0  0  0
    7.0099   -3.9525    1.3792 C   0  0  0  0  0  0  0  0  0  0  0  0
    3.5823   -4.4121   -3.7986 O   0  0  0  0  0  0  0  0  0  0  0  0
    1.3309   -3.5714   -3.4361 C   0  0  0  0  0  0  0  0  0  0  0  0
    0.7645   -2.4635   -1.3271 C   0  0  0  0  0  0  0  0  0  0  0  0
    3.4041   -5.3569   -4.7786 C   0  0  0  0  0  0  0  0  0  0  0  0
    0.4024   -2.9142   -2.6156 C   0  0  0  0  0  0  0  0  0  0  0  0
   -0.2515   -1.7782   -0.4735 C   0  0  2  0  0  0  0  0  0  0  0  0
    4.4977   -5.6077   -5.7695 C   0  0  2  0  0  0  0  0  0  0  0  0
    2.3496   -6.0383   -4.7938 O   0  0  0  0  0  0  0  0  0  0  0  0
   -0.1505   -0.2331   -0.5634 C   0  0  2  0  0  0  0  0  0  0  0  0
   -0.1396   -2.2153    0.8810 O   0  0  0  0  0  0  0  0  0  0  0  0
    4.7804   -4.2783   -6.5420 C   0  0  0  0  0  0  0  0  0  0  0  0
    4.1133   -6.7115   -6.8123 C   0  0  0  0  0  0  0  0  0  0  0  0
    5.7771   -6.0626   -5.0022 C   0  0  0  0  0  0  0  0  0  0  0  0
   -1.3919    0.3743   -0.0305 N   0  0  2  0  0  0  0  0  0  0  0  0
   -1.4548    1.8456   -0.0903 C   0  0  0  0  0  0  0  0  0  0  0  0
    2.3800   -2.3193    0.0177 H   0  0  0  0  0  0  0  0  0  0  0  0
    7.9466   -5.2543   -0.8546 H   0  0  0  0  0  0  0  0  0  0  0  0
    6.5298   -5.1004   -1.8904 H   0  0  0  0  0  0  0  0  0  0  0  0
    6.4251   -6.0245   -0.3848 H   0  0  0  0  0  0  0  0  0  0  0  0
    8.1712   -2.6386   -0.7532 H   0  0  0  0  0  0  0  0  0  0  0  0
    6.7683   -2.5259   -1.8208 H   0  0  0  0  0  0  0  0  0  0  0  0
    6.7693   -1.6748   -0.2667 H   0  0  0  0  0  0  0  0  0  0  0  0
    8.1010   -4.0128    1.3771 H   0  0  0  0  0  0  0  0  0  0  0  0
    6.7247   -3.0803    1.9706 H   0  0  0  0  0  0  0  0  0  0  0  0
    6.6250   -4.8462    1.8776 H   0  0  0  0  0  0  0  0  0  0  0  0
    1.0396   -3.8687   -4.3683 H   0  0  0  0  0  0  0  0  0  0  0  0
   -0.5462   -2.7679   -2.9707 H   0  0  0  0  0  0  0  0  0  0  0  0
   -1.2543   -2.0756   -0.7981 H   0  0  0  0  0  0  0  0  0  0  0  0
   -0.0293    0.0669   -1.6094 H   0  0  0  0  0  0  0  0  0  0  0  0
    0.7174    0.1130    0.0045 H   0  0  0  0  0  0  0  0  0  0  0  0
   -0.9011   -1.8136    1.3504 H   0  0  0  0  0  0  0  0  0  0  0  0
    5.5837   -4.4195   -7.2694 H   0  0  0  0  0  0  0  0  0  0  0  0
    3.8906   -3.9390   -7.0796 H   0  0  0  0  0  0  0  0  0  0  0  0
    5.0858   -3.4794   -5.8617 H   0  0  0  0  0  0  0  0  0  0  0  0
    4.9133   -6.8561   -7.5412 H   0  0  0  0  0  0  0  0  0  0  0  0
    3.9319   -7.6666   -6.3150 H   0  0  0  0  0  0  0  0  0  0  0  0
    3.2070   -6.4350   -7.3583 H   0  0  0  0  0  0  0  0  0  0  0  0
    6.5702   -6.3355   -5.7010 H   0  0  0  0  0  0  0  0  0  0  0  0
    5.5614   -6.9284   -4.3712 H   0  0  0  0  0  0  0  0  0  0  0  0
    6.1545   -5.2631   -4.3629 H   0  0  0  0  0  0  0  0  0  0  0  0
   -1.4695    0.1051    0.9524 H   0  0  0  0  0  0  0  0  0  0  0  0
   -2.4432    2.1589    0.2453 H   0  0  0  0  0  0  0  0  0  0  0  0
   -0.7051    2.2921    0.5643 H   0  0  0  0  0  0  0  0  0  0  0  0
   -1.3078    2.1995   -1.1110 H   0  0  0  0  0  0  0  0  0  0  0  0
  1  2  1  0  0  0  0 
  1  3  1  0  0  0  0 
  2  4  1  0  0  0  0 
  2  5  2  0  0  0  0 
  3  6  2  0  0  0  0 
  3  7  1  0  0  0  0 
  4  8  1  0  0  0  0 
  4  9  1  0  0  0  0 
  4 10  1  0  0  0  0 
  6 11  1  0  0  0  0 
  6 12  1  0  0  0  0 
  7 13  2  0  0  0  0 
 11 14  1  0  0  0  0 
 12 15  2  0  0  0  0 
 13 15  1  0  0  0  0 
 16 13  1  0  0  0  0 
 14 17  1  0  0  0  0 
 14 18  2  0  0  0  0 
 16 19  1  0  0  0  0 
 16 20  1  0  0  0  0 
 17 21  1  0  0  0  0 
 17 22  1  0  0  0  0 
 17 23  1  0  0  0  0 
 19 24  1  0  0  0  0 
 24 25  1  0  0  0  0 
  7 26  1  0  0  0  0 
  8 27  1  0  0  0  0 
  8 28  1  0  0  0  0 
  8 29  1  0  0  0  0 
  9 30  1  0  0  0  0 
  9 31  1  0  0  0  0 
  9 32  1  0  0  0  0 
 10 33  1  0  0  0  0 
 10 34  1  0  0  0  0 
 10 35  1  0  0  0  0 
 12 36  1  0  0  0  0 
 15 37  1  0  0  0  0 
 16 38  1  0  0  0  0 
 19 39  1  0  0  0  0 
 19 40  1  0  0  0  0 
 20 41  1  0  0  0  0 
 21 42  1  0  0  0  0 
 21 43  1  0  0  0  0 
 21 44  1  0  0  0  0 
 22 45  1  0  0  0  0 
 22 46  1  0  0  0  0 
 22 47  1  0  0  0  0 
 23 48  1  0  0  0  0 
 23 49  1  0  0  0  0 
 23 50  1  0  0  0  0 
 24 51  1  0  0  0  0 
 25 52  1  0  0  0  0 
 25 53  1  0  0  0  0 
 25 54  1  0  0  0  0 
M  END
> <cdk:Title>
dipivefrine

> <Conformer>
1

> <SuperDrugID>
SD000819

$$$$
