noxytiolin
  CDK     0628171801

 15 14  0  0  0  0  0  0  0  0999 V2000
   -2.4489    4.1138   -0.5372 C   0  0  0  0  0  0  0  0  0  0  0  0
   -1.5125    3.0440   -0.4435 N   0  0  0  0  0  0  0  0  0  0  0  0
   -1.6341    1.9423    0.3044 C   0  0  0  0  0  0  0  0  0  0  0  0
   -2.9771    1.6475    1.3126 S   0  0  0  0  0  0  0  0  0  0  0  0
   -0.7042    0.9900    0.3082 N   0  0  0  0  0  0  0  0  0  0  0  0
    0.5206    1.0112   -0.4207 C   0  0  1  0  0  0  0  0  0  0  0  0
    1.2149   -0.2025   -0.1661 O   0  0  0  0  0  0  0  0  0  0  0  0
   -3.4083    3.7495   -0.9084 H   0  0  0  0  0  0  0  0  0  0  0  0
   -2.0674    4.8578   -1.2357 H   0  0  0  0  0  0  0  0  0  0  0  0
   -2.5894    4.5893    0.4348 H   0  0  0  0  0  0  0  0  0  0  0  0
   -0.7093    3.1250   -0.9810 H   0  0  0  0  0  0  0  0  0  0  0  0
   -0.8698    0.2088    0.8620 H   0  0  0  0  0  0  0  0  0  0  0  0
    0.3278    1.0899   -1.4926 H   0  0  0  0  0  0  0  0  0  0  0  0
    1.1407    1.8485   -0.0964 H   0  0  0  0  0  0  0  0  0  0  0  0
    2.0428   -0.1390   -0.6865 H   0  0  0  0  0  0  0  0  0  0  0  0
  1  2  1  0  0  0  0 
  2  3  1  0  0  0  0 
  3  4  2  0  0  0  0 
  3  5  1  0  0  0  0 
  5  6  1  0  0  0  0 
  6  7  1  0  0  0  0 
  8  1  1  0  0  0  0 
  9  1  1  0  0  0  0 
 10  1  1  0  0  0  0 
 11  2  1  0  0  0  0 
 12  5  1  0  0  0  0 
 13  6  1  0  0  0  0 
 14  6  1  0  0  0  0 
 15  7  1  0  0  0  0 
M  END
> <cdk:Title>
noxytiolin

> <Conformer>
1

> <SuperDrugID>
SD002919

$$$$
