pravastatin
  CDK     0628171801

 66 67  0  0  0  0  0  0  0  0999 V2000
    1.2718   -0.1527   -1.1747 C   0  0  1  0  0  0  0  0  0  0  0  0
    2.1029    1.1659   -1.2413 C   0  0  2  0  0  0  0  0  0  0  0  0
    2.0104   -1.4293   -1.6968 C   0  0  2  0  0  0  0  0  0  0  0  0
    1.4831    2.4014   -0.5229 C   0  0  2  0  0  0  0  0  0  0  0  0
    1.1509   -2.7595   -1.7401 C   0  0  1  0  0  0  0  0  0  0  0  0
    3.3750   -1.7526   -0.9438 C   0  0  1  0  0  0  0  0  0  0  0  0
    1.4214    2.2405    1.0237 C   0  0  2  0  0  0  0  0  0  0  0  0
    0.1888    2.6975   -1.0444 O   0  0  0  0  0  0  0  0  0  0  0  0
   -0.3269   -2.7390   -2.2699 C   0  0  1  0  0  0  0  0  0  0  0  0
    1.9936   -3.7448   -2.4693 C   0  0  0  0  0  0  0  0  0  0  0  0
    3.2858   -1.6824    0.6132 C   0  0  0  0  0  0  0  0  0  0  0  0
    3.9225   -3.0739   -1.2820 C   0  0  0  0  0  0  0  0  0  0  0  0
    1.1592    3.5528    1.8191 C   0  0  2  0  0  0  0  0  0  0  0  0
   -1.2351   -1.8638   -1.5659 O   0  0  0  0  0  0  0  0  0  0  0  0
   -0.3422   -2.7209   -3.8214 C   0  0  2  0  0  0  0  0  0  0  0  0
    1.6331   -4.2911   -3.6545 C   0  0  0  0  0  0  0  0  0  0  0  0
    3.2371   -4.0067   -1.9628 C   0  0  0  0  0  0  0  0  0  0  0  0
    1.2545    3.2892    3.3484 C   0  0  1  0  0  0  0  0  0  0  0  0
   -0.1240    4.0915    1.4949 O   0  0  0  0  0  0  0  0  0  0  0  0
   -2.1201   -0.9236   -2.0302 C   0  0  0  0  0  0  0  0  0  0  0  0
    0.4101   -3.9631   -4.3750 C   0  0  1  0  0  0  0  0  0  0  0  0
    0.9785    4.4796    4.1712 C   0  0  0  0  0  0  0  0  0  0  0  0
   -3.1825   -0.3945   -1.1375 C   0  0  2  0  0  0  0  0  0  0  0  0
   -2.0460   -0.4861   -3.2024 O   0  0  0  0  0  0  0  0  0  0  0  0
   -0.4388   -5.1098   -4.3491 O   0  0  0  0  0  0  0  0  0  0  0  0
   -0.0858    4.5020    5.0058 O   0  0  0  0  0  0  0  0  0  0  0  0
    1.7307    5.4779    4.1235 O   0  0  0  0  0  0  0  0  0  0  0  0
   -2.6055    0.6271   -0.1126 C   0  0  1  0  0  0  0  0  0  0  0  0
   -3.9632   -1.5681   -0.4815 C   0  0  0  0  0  0  0  0  0  0  0  0
   -3.6820    1.3905    0.6971 C   0  0  0  0  0  0  0  0  0  0  0  0
    1.0448   -3.1157   -0.7096 H   0  0  0  0  0  0  0  0  0  0  0  0
    0.9128   -0.3425   -0.1634 H   0  0  0  0  0  0  0  0  0  0  0  0
    0.4022    0.0241   -1.8015 H   0  0  0  0  0  0  0  0  0  0  0  0
    2.2478    1.4224   -2.2954 H   0  0  0  0  0  0  0  0  0  0  0  0
    3.0936    1.0145   -0.8124 H   0  0  0  0  0  0  0  0  0  0  0  0
    2.2736   -1.1874   -2.7350 H   0  0  0  0  0  0  0  0  0  0  0  0
    2.1220    3.2625   -0.7460 H   0  0  0  0  0  0  0  0  0  0  0  0
    4.1232   -1.0209   -1.2664 H   0  0  0  0  0  0  0  0  0  0  0  0
    2.3808    1.8379    1.3628 H   0  0  0  0  0  0  0  0  0  0  0  0
    0.6430    1.5167    1.2810 H   0  0  0  0  0  0  0  0  0  0  0  0
    0.3272    2.8787   -1.9977 H   0  0  0  0  0  0  0  0  0  0  0  0
   -0.7505   -3.7125   -1.9961 H   0  0  0  0  0  0  0  0  0  0  0  0
    4.2497   -1.9185    1.0716 H   0  0  0  0  0  0  0  0  0  0  0  0
    2.5466   -2.3908    0.9899 H   0  0  0  0  0  0  0  0  0  0  0  0
    3.0113   -0.6843    0.9544 H   0  0  0  0  0  0  0  0  0  0  0  0
    4.8400   -3.2981   -0.9656 H   0  0  0  0  0  0  0  0  0  0  0  0
    1.9134    4.2967    1.5445 H   0  0  0  0  0  0  0  0  0  0  0  0
    0.1333   -1.8057   -4.1848 H   0  0  0  0  0  0  0  0  0  0  0  0
   -1.3705   -2.7420   -4.1910 H   0  0  0  0  0  0  0  0  0  0  0  0
    2.2359   -4.9478   -4.1018 H   0  0  0  0  0  0  0  0  0  0  0  0
    3.6683   -4.8890   -2.1201 H   0  0  0  0  0  0  0  0  0  0  0  0
    0.5531    2.4959    3.6192 H   0  0  0  0  0  0  0  0  0  0  0  0
    2.2602    2.9382    3.5915 H   0  0  0  0  0  0  0  0  0  0  0  0
   -0.0558    4.3782    0.5591 H   0  0  0  0  0  0  0  0  0  0  0  0
    0.6616   -3.7676   -5.4220 H   0  0  0  0  0  0  0  0  0  0  0  0
   -3.9021    0.1450   -1.7648 H   0  0  0  0  0  0  0  0  0  0  0  0
   -1.2045   -4.8761   -4.9170 H   0  0  0  0  0  0  0  0  0  0  0  0
   -0.2623    5.2890    5.5610 H   0  0  0  0  0  0  0  0  0  0  0  0
   -1.9303    0.1211    0.5841 H   0  0  0  0  0  0  0  0  0  0  0  0
   -2.0272    1.3760   -0.6598 H   0  0  0  0  0  0  0  0  0  0  0  0
   -4.8707   -1.2028    0.0001 H   0  0  0  0  0  0  0  0  0  0  0  0
   -3.3522   -2.0759    0.2660 H   0  0  0  0  0  0  0  0  0  0  0  0
   -4.2646   -2.2980   -1.2355 H   0  0  0  0  0  0  0  0  0  0  0  0
   -3.2052    2.1551    1.3115 H   0  0  0  0  0  0  0  0  0  0  0  0
   -4.2253    0.7115    1.3566 H   0  0  0  0  0  0  0  0  0  0  0  0
   -4.3933    1.8793    0.0270 H   0  0  0  0  0  0  0  0  0  0  0  0
  1  2  1  0  0  0  0 
  4  2  1  0  0  0  0 
  3  1  1  0  0  0  0 
  5  3  1  0  0  0  0 
  3  6  1  0  0  0  0 
  4  7  1  0  0  0  0 
  4  8  1  0  0  0  0 
  9  5  1  0  0  0  0 
  5 10  1  0  0  0  0 
  5 31  1  0  0  0  0 
  6 11  1  0  0  0  0 
  6 12  1  0  0  0  0 
 13  7  1  0  0  0  0 
  9 14  1  0  0  0  0 
  9 15  1  0  0  0  0 
 10 16  2  0  0  0  0 
 10 17  1  0  0  0  0 
 12 17  2  0  0  0  0 
 13 18  1  0  0  0  0 
 13 19  1  0  0  0  0 
 14 20  1  0  0  0  0 
 21 15  1  0  0  0  0 
 21 16  1  0  0  0  0 
 18 22  1  0  0  0  0 
 23 20  1  0  0  0  0 
 20 24  2  0  0  0  0 
 21 25  1  0  0  0  0 
 22 26  1  0  0  0  0 
 22 27  2  0  0  0  0 
 23 28  1  0  0  0  0 
 23 29  1  0  0  0  0 
 28 30  1  0  0  0  0 
  1 32  1  0  0  0  0 
  1 33  1  0  0  0  0 
  2 34  1  0  0  0  0 
  2 35  1  0  0  0  0 
  3 36  1  0  0  0  0 
  4 37  1  0  0  0  0 
  6 38  1  0  0  0  0 
  7 39  1  0  0  0  0 
  7 40  1  0  0  0  0 
  8 41  1  0  0  0  0 
  9 42  1  0  0  0  0 
 11 43  1  0  0  0  0 
 11 44  1  0  0  0  0 
 11 45  1  0  0  0  0 
 12 46  1  0  0  0  0 
 13 47  1  0  0  0  0 
 15 48  1  0  0  0  0 
 15 49  1  0  0  0  0 
 16 50  1  0  0  0  0 
 17 51  1  0  0  0  0 
 18 52  1  0  0  0  0 
 18 53  1  0  0  0  0 
 19 54  1  0  0  0  0 
 21 55  1  0  0  0  0 
 23 56  1  0  0  0  0 
 25 57  1  0  0  0  0 
 26 58  1  0  0  0  0 
 28 59  1  0  0  0  0 
 28 60  1  0  0  0  0 
 29 61  1  0  0  0  0 
 29 62  1  0  0  0  0 
 29 63  1  0  0  0  0 
 30 64  1  0  0  0  0 
 30 65  1  0  0  0  0 
 30 66  1  0  0  0  0 
M  END
> <cdk:Title>
pravastatin

> <Conformer>
1

> <SuperDrugID>
SD002008

$$$$
