zopiclone
  CDK     0628171801

 44 47  0  0  0  0  0  0  0  0999 V2000
    0.3891   -2.4856    0.6085 O   0  0  0  0  0  0  0  0  0  0  0  0
    0.3705   -3.8254    0.8725 C   0  0  0  0  0  0  0  0  0  0  0  0
   -0.5538   -1.4931    0.5806 C   0  0  0  0  0  0  0  0  0  0  0  0
   -0.7152   -4.3739    1.1730 O   0  0  0  0  0  0  0  0  0  0  0  0
    1.5383   -4.5538    0.7334 N   0  0  0  0  0  0  0  0  0  0  0  0
   -0.3586   -0.3593   -0.1449 N   0  0  0  0  0  0  0  0  0  0  0  0
   -1.8236   -1.4232    1.1594 C   0  0  0  0  0  0  0  0  0  0  0  0
    2.8125   -3.9234    0.4357 C   0  0  2  0  0  0  0  0  0  0  0  0
    1.5646   -6.0009    0.8118 C   0  0  1  0  0  0  0  0  0  0  0  0
   -1.4710    0.4118   -0.0822 C   0  0  0  0  0  0  0  0  0  0  0  0
    0.7614   -0.0804   -0.8836 C   0  0  0  0  0  0  0  0  0  0  0  0
   -2.3944   -0.2301    0.7299 C   0  0  0  0  0  0  0  0  0  0  0  0
   -2.5228   -2.2414    1.9905 N   0  0  0  0  0  0  0  0  0  0  0  0
    3.3781   -4.4708   -0.8971 C   0  0  2  0  0  0  0  0  0  0  0  0
    2.1193   -6.5823   -0.5166 C   0  0  2  0  0  0  0  0  0  0  0  0
   -1.6632    1.5153   -0.6430 O   0  0  0  0  0  0  0  0  0  0  0  0
    2.0666   -0.1551   -0.3429 C   0  0  0  0  0  0  0  0  0  0  0  0
    0.6202    0.2356   -2.1999 N   0  0  0  0  0  0  0  0  0  0  0  0
   -3.6475    0.1190    1.1149 N   0  0  0  0  0  0  0  0  0  0  0  0
   -3.7846   -1.9091    2.3868 C   0  0  0  0  0  0  0  0  0  0  0  0
    3.4369   -5.9642   -0.8659 N   0  0  1  0  0  0  0  0  0  0  0  0
    3.1799    0.0440   -1.1819 C   0  0  0  0  0  0  0  0  0  0  0  0
    1.6711    0.4415   -3.0325 C   0  0  0  0  0  0  0  0  0  0  0  0
   -4.3619   -0.6991    1.9380 C   0  0  0  0  0  0  0  0  0  0  0  0
    4.0511   -6.5399   -2.0958 C   0  0  0  0  0  0  0  0  0  0  0  0
    2.9870    0.3277   -2.5483 C   0  0  0  0  0  0  0  0  0  0  0  0
    4.2989    0.5137   -3.6013 Cl  0  0  0  0  0  0  0  0  0  0  0  0
    3.5193   -4.1425    1.2378 H   0  0  0  0  0  0  0  0  0  0  0  0
    2.7584   -2.8384    0.3592 H   0  0  0  0  0  0  0  0  0  0  0  0
    2.2131   -6.3061    1.6373 H   0  0  0  0  0  0  0  0  0  0  0  0
    0.5833   -6.4435    0.9974 H   0  0  0  0  0  0  0  0  0  0  0  0
   -2.1264   -3.0645    2.3091 H   0  0  0  0  0  0  0  0  0  0  0  0
    4.3837   -4.0646   -1.0394 H   0  0  0  0  0  0  0  0  0  0  0  0
    2.7493   -4.1274   -1.7250 H   0  0  0  0  0  0  0  0  0  0  0  0
    1.3943   -6.4013   -1.3157 H   0  0  0  0  0  0  0  0  0  0  0  0
    2.2351   -7.6627   -0.3990 H   0  0  0  0  0  0  0  0  0  0  0  0
    2.2113   -0.3605    0.6487 H   0  0  0  0  0  0  0  0  0  0  0  0
   -4.3043   -2.5335    3.0051 H   0  0  0  0  0  0  0  0  0  0  0  0
    4.1252   -0.0289   -0.7936 H   0  0  0  0  0  0  0  0  0  0  0  0
    1.4935    0.6654   -4.0117 H   0  0  0  0  0  0  0  0  0  0  0  0
   -5.3061   -0.4362    2.2278 H   0  0  0  0  0  0  0  0  0  0  0  0
    5.0639   -6.1506   -2.2264 H   0  0  0  0  0  0  0  0  0  0  0  0
    4.1211   -7.6262   -2.0174 H   0  0  0  0  0  0  0  0  0  0  0  0
    3.4654   -6.2894   -2.9834 H   0  0  0  0  0  0  0  0  0  0  0  0
  1  2  1  0  0  0  0 
  3  1  1  0  0  0  0 
  2  4  2  0  0  0  0 
  2  5  1  0  0  0  0 
  3  6  1  0  0  0  0 
  3  7  2  0  0  0  0 
  5  8  1  0  0  0  0 
  5  9  1  0  0  0  0 
  6 10  1  0  0  0  0 
  6 11  1  0  0  0  0 
  7 12  1  0  0  0  0 
  7 13  1  0  0  0  0 
  8 14  1  0  0  0  0 
  9 15  1  0  0  0  0 
 10 12  1  0  0  0  0 
 10 16  2  0  0  0  0 
 11 17  2  0  0  0  0 
 11 18  1  0  0  0  0 
 12 19  2  0  0  0  0 
 13 20  1  0  0  0  0 
 14 21  1  0  0  0  0 
 15 21  1  0  0  0  0 
 17 22  1  0  0  0  0 
 18 23  2  0  0  0  0 
 19 24  1  0  0  0  0 
 20 24  2  0  0  0  0 
 21 25  1  0  0  0  0 
 22 26  2  0  0  0  0 
 23 26  1  0  0  0  0 
 26 27  1  0  0  0  0 
 28  8  1  0  0  0  0 
 29  8  1  0  0  0  0 
 30  9  1  0  0  0  0 
 31  9  1  0  0  0  0 
 32 13  1  0  0  0  0 
 33 14  1  0  0  0  0 
 34 14  1  0  0  0  0 
 35 15  1  0  0  0  0 
 36 15  1  0  0  0  0 
 37 17  1  0  0  0  0 
 38 20  1  0  0  0  0 
 39 22  1  0  0  0  0 
 40 23  1  0  0  0  0 
 41 24  1  0  0  0  0 
 42 25  1  0  0  0  0 
 43 25  1  0  0  0  0 
 44 25  1  0  0  0  0 
M  END
> <cdk:Title>
zopiclone

> <Conformer>
1

> <SuperDrugID>
SD002589

$$$$
