isosorbide
  CDK     0628171801

 20 21  0  0  0  0  0  0  0  0999 V2000
   -0.7253   -1.4294   -1.9429 O   0  0  0  0  0  0  0  0  0  0  0  0
   -0.0060   -2.5641   -1.4401 C   0  0  1  0  0  0  0  0  0  0  0  0
   -1.0308   -3.6142   -0.9815 C   0  0  1  0  0  0  0  0  0  0  0  0
   -2.6456   -0.4023   -0.7423 C   0  0  1  0  0  0  0  0  0  0  0  0
   -2.1120   -1.5614   -1.5907 C   0  0  2  0  0  0  0  0  0  0  0  0
   -2.2545   -2.7555   -0.6407 C   0  0  2  0  0  0  0  0  0  0  0  0
   -2.2414   -2.2621    0.7109 O   0  0  0  0  0  0  0  0  0  0  0  0
   -2.2371   -0.8293    0.6746 C   0  0  2  0  0  0  0  0  0  0  0  0
   -2.1095    0.8625   -1.1189 O   0  0  0  0  0  0  0  0  0  0  0  0
   -1.3432   -4.5257   -2.0353 O   0  0  0  0  0  0  0  0  0  0  0  0
   -3.1901   -3.2944   -0.8108 H   0  0  0  0  0  0  0  0  0  0  0  0
   -2.7031   -1.6938   -2.5032 H   0  0  0  0  0  0  0  0  0  0  0  0
    0.6539   -2.9584   -2.2153 H   0  0  0  0  0  0  0  0  0  0  0  0
    0.6064   -2.2422   -0.5955 H   0  0  0  0  0  0  0  0  0  0  0  0
   -0.6764   -4.1744   -0.1121 H   0  0  0  0  0  0  0  0  0  0  0  0
   -3.7367   -0.3634   -0.8184 H   0  0  0  0  0  0  0  0  0  0  0  0
   -2.9257   -0.4275    1.4201 H   0  0  0  0  0  0  0  0  0  0  0  0
   -1.2277   -0.4781    0.9051 H   0  0  0  0  0  0  0  0  0  0  0  0
   -2.5478    1.5047   -0.5214 H   0  0  0  0  0  0  0  0  0  0  0  0
   -0.5284   -5.0560   -2.1624 H   0  0  0  0  0  0  0  0  0  0  0  0
  1  2  1  0  0  0  0 
  1  5  1  0  0  0  0 
  2  3  1  0  0  0  0 
  3  6  1  0  0  0  0 
  4  5  1  0  0  0  0 
  4  8  1  0  0  0  0 
  6  7  1  0  0  0  0 
  7  8  1  0  0  0  0 
  5  6  1  0  0  0  0 
  4  9  1  0  0  0  0 
  3 10  1  0  0  0  0 
  6 11  1  0  0  0  0 
  5 12  1  0  0  0  0 
  2 13  1  0  0  0  0 
  2 14  1  0  0  0  0 
  3 15  1  0  0  0  0 
  4 16  1  0  0  0  0 
  8 17  1  0  0  0  0 
  8 18  1  0  0  0  0 
  9 19  1  0  0  0  0 
 10 20  1  0  0  0  0 
M  END
> <cdk:Title>
isosorbide

> <Conformer>
1

> <SuperDrugID>
SD001331

$$$$
