timepidium
  CDK     0628171801

 43 45  0  0  0  0  0  0  0  0999 V2000
   -2.6940   -1.1302    0.6533 C   0  0  0  0  0  0  0  0  0  0  0  0
   -2.4964    0.1131    0.1287 C   0  0  0  0  0  0  0  0  0  0  0  0
   -1.6618   -2.0066    0.9747 C   0  0  0  0  0  0  0  0  0  0  0  0
   -3.9563   -1.6594    0.8853 C   0  0  0  0  0  0  0  0  0  0  0  0
   -1.1803    0.7742    0.0317 C   0  0  2  0  0  0  0  0  0  0  0  0
   -3.5793    0.9366   -0.4591 C   0  0  2  0  0  0  0  0  0  0  0  0
   -1.4481   -2.6799    2.1901 C   0  0  0  0  0  0  0  0  0  0  0  0
   -0.4256   -2.5894   -0.1320 S   0  0  0  0  0  0  0  0  0  0  0  0
   -4.9596   -1.1380    1.7182 C   0  0  0  0  0  0  0  0  0  0  0  0
   -4.6060   -3.1425    0.2029 S   0  0  0  0  0  0  0  0  0  0  0  0
   -0.8154    1.1402   -1.4379 C   0  0  2  0  0  0  0  0  0  0  0  0
   -3.3531    1.2156   -1.9350 N   0  0  2  0  0  0  0  0  0  0  0  0
   -0.3564   -3.5689    2.2113 C   0  0  0  0  0  0  0  0  0  0  0  0
    0.3502   -3.6673    1.0109 C   0  0  0  0  0  0  0  0  0  0  0  0
   -6.1539   -1.8780    1.7693 C   0  0  0  0  0  0  0  0  0  0  0  0
   -6.1672   -3.0388    0.9933 C   0  0  0  0  0  0  0  0  0  0  0  0
    0.3224    2.0314   -1.5243 O   0  0  0  0  0  0  0  0  0  0  0  0
   -2.0043    1.8860   -2.1127 C   0  0  1  0  0  0  0  0  0  0  0  0
   -4.4317    2.1488   -2.4399 C   0  0  0  0  0  0  0  0  0  0  0  0
   -3.4474   -0.0646   -2.7434 C   0  0  0  0  0  0  0  0  0  0  0  0
    1.6203    1.4462   -1.3302 C   0  0  0  0  0  0  0  0  0  0  0  0
   -0.3716    0.1822    0.4569 H   0  0  0  0  0  0  0  0  0  0  0  0
   -1.2091    1.6942    0.6237 H   0  0  0  0  0  0  0  0  0  0  0  0
   -3.6320    1.8732    0.1094 H   0  0  0  0  0  0  0  0  0  0  0  0
   -4.5666    0.4842   -0.3523 H   0  0  0  0  0  0  0  0  0  0  0  0
   -2.0449   -2.5412    3.0103 H   0  0  0  0  0  0  0  0  0  0  0  0
   -4.8358   -0.2735    2.2512 H   0  0  0  0  0  0  0  0  0  0  0  0
   -0.6182    0.2243   -2.0034 H   0  0  0  0  0  0  0  0  0  0  0  0
   -0.1010   -4.1075    3.0425 H   0  0  0  0  0  0  0  0  0  0  0  0
    1.1626   -4.2578    0.8301 H   0  0  0  0  0  0  0  0  0  0  0  0
   -6.9545   -1.5869    2.3332 H   0  0  0  0  0  0  0  0  0  0  0  0
   -6.9370   -3.7018    0.9025 H   0  0  0  0  0  0  0  0  0  0  0  0
   -2.0353    2.8925   -1.6778 H   0  0  0  0  0  0  0  0  0  0  0  0
   -1.7749    2.0134   -3.1755 H   0  0  0  0  0  0  0  0  0  0  0  0
   -4.4297    3.0990   -1.8988 H   0  0  0  0  0  0  0  0  0  0  0  0
   -4.2968    2.3765   -3.5015 H   0  0  0  0  0  0  0  0  0  0  0  0
   -5.4277    1.7117   -2.3214 H   0  0  0  0  0  0  0  0  0  0  0  0
   -4.4375   -0.5214   -2.6508 H   0  0  0  0  0  0  0  0  0  0  0  0
   -2.7239   -0.8163   -2.4228 H   0  0  0  0  0  0  0  0  0  0  0  0
   -3.2677    0.1194   -3.8061 H   0  0  0  0  0  0  0  0  0  0  0  0
    2.3685    2.2133   -1.5273 H   0  0  0  0  0  0  0  0  0  0  0  0
    1.7896    0.6199   -2.0222 H   0  0  0  0  0  0  0  0  0  0  0  0
    1.7501    1.0997   -0.3051 H   0  0  0  0  0  0  0  0  0  0  0  0
  1  2  2  0  0  0  0 
  1  3  1  0  0  0  0 
  1  4  1  0  0  0  0 
  2  5  1  0  0  0  0 
  2  6  1  0  0  0  0 
  3  7  2  0  0  0  0 
  3  8  1  0  0  0  0 
  4  9  2  0  0  0  0 
  4 10  1  0  0  0  0 
  5 11  1  0  0  0  0 
  6 12  1  0  0  0  0 
  7 13  1  0  0  0  0 
  8 14  1  0  0  0  0 
  9 15  1  0  0  0  0 
 10 16  1  0  0  0  0 
 11 17  1  0  0  0  0 
 11 18  1  0  0  0  0 
 12 18  1  0  0  0  0 
 12 19  1  0  0  0  0 
 12 20  1  0  0  0  0 
 13 14  2  0  0  0  0 
 15 16  2  0  0  0  0 
 17 21  1  0  0  0  0 
  5 22  1  0  0  0  0 
  5 23  1  0  0  0  0 
  6 24  1  0  0  0  0 
  6 25  1  0  0  0  0 
  7 26  1  0  0  0  0 
  9 27  1  0  0  0  0 
 11 28  1  0  0  0  0 
 13 29  1  0  0  0  0 
 14 30  1  0  0  0  0 
 15 31  1  0  0  0  0 
 16 32  1  0  0  0  0 
 18 33  1  0  0  0  0 
 18 34  1  0  0  0  0 
 19 35  1  0  0  0  0 
 19 36  1  0  0  0  0 
 19 37  1  0  0  0  0 
 20 38  1  0  0  0  0 
 20 39  1  0  0  0  0 
 20 40  1  0  0  0  0 
 21 41  1  0  0  0  0 
 21 42  1  0  0  0  0 
 21 43  1  0  0  0  0 
M  CHG  1  12   1
M  END
> <cdk:Title>
timepidium

> <Conformer>
1

> <SuperDrugID>
SD002400

$$$$
