fenethazine
  CDK     0628171801

 37 39  0  0  0  0  0  0  0  0999 V2000
    0.7131    5.2494   -4.6823 C   0  0  0  0  0  0  0  0  0  0  0  0
    1.9360    4.4006   -4.5412 N   0  0  1  0  0  0  0  0  0  0  0  0
    3.0175    4.8538   -5.4707 C   0  0  0  0  0  0  0  0  0  0  0  0
    2.4310    4.2259   -3.1306 C   0  0  2  0  0  0  0  0  0  0  0  0
    1.3788    3.7178   -2.0923 C   0  0  2  0  0  0  0  0  0  0  0  0
    1.8838    3.4672   -0.7423 N   0  0  0  0  0  0  0  0  0  0  0  0
    1.5837    2.2712   -0.0836 C   0  0  0  0  0  0  0  0  0  0  0  0
    0.2839    1.7033   -0.1271 C   0  0  0  0  0  0  0  0  0  0  0  0
   -0.0181    0.5153    0.5670 C   0  0  0  0  0  0  0  0  0  0  0  0
    0.9782   -0.1442    1.3074 C   0  0  0  0  0  0  0  0  0  0  0  0
    2.2735    0.3955    1.3665 C   0  0  0  0  0  0  0  0  0  0  0  0
    2.5643    1.5980    0.6926 C   0  0  0  0  0  0  0  0  0  0  0  0
    4.1558    2.3291    0.8629 S   0  0  0  0  0  0  0  0  0  0  0  0
    3.7930    4.0419    0.6766 C   0  0  0  0  0  0  0  0  0  0  0  0
    2.6577    4.4257   -0.0858 C   0  0  0  0  0  0  0  0  0  0  0  0
    2.3465    5.8094   -0.1446 C   0  0  0  0  0  0  0  0  0  0  0  0
    3.1604    6.7675    0.4892 C   0  0  0  0  0  0  0  0  0  0  0  0
    4.2967    6.3633    1.2092 C   0  0  0  0  0  0  0  0  0  0  0  0
    4.6091    4.9979    1.3132 C   0  0  0  0  0  0  0  0  0  0  0  0
    0.8456    6.2211   -4.1993 H   0  0  0  0  0  0  0  0  0  0  0  0
   -0.1468    4.7453   -4.2415 H   0  0  0  0  0  0  0  0  0  0  0  0
    0.4616    5.4170   -5.7339 H   0  0  0  0  0  0  0  0  0  0  0  0
    3.3462    5.8685   -5.2301 H   0  0  0  0  0  0  0  0  0  0  0  0
    2.6691    4.8413   -6.5069 H   0  0  0  0  0  0  0  0  0  0  0  0
    3.8789    4.1859   -5.4177 H   0  0  0  0  0  0  0  0  0  0  0  0
    2.8558    5.1725   -2.7891 H   0  0  0  0  0  0  0  0  0  0  0  0
    3.2425    3.4925   -3.1375 H   0  0  0  0  0  0  0  0  0  0  0  0
    0.9478    2.8109   -2.5276 H   0  0  0  0  0  0  0  0  0  0  0  0
    0.5688    4.4434   -2.0074 H   0  0  0  0  0  0  0  0  0  0  0  0
   -0.4653    2.1606   -0.6518 H   0  0  0  0  0  0  0  0  0  0  0  0
   -0.9656    0.1298    0.5363 H   0  0  0  0  0  0  0  0  0  0  0  0
    0.7598   -1.0107    1.8048 H   0  0  0  0  0  0  0  0  0  0  0  0
    2.9932   -0.0835    1.9143 H   0  0  0  0  0  0  0  0  0  0  0  0
    1.5207    6.1390   -0.6488 H   0  0  0  0  0  0  0  0  0  0  0  0
    2.9246    7.7616    0.4234 H   0  0  0  0  0  0  0  0  0  0  0  0
    4.8920    7.0600    1.6599 H   0  0  0  0  0  0  0  0  0  0  0  0
    5.4243    4.7089    1.8607 H   0  0  0  0  0  0  0  0  0  0  0  0
  1  2  1  0  0  0  0 
  2  3  1  0  0  0  0 
  2  4  1  0  0  0  0 
  4  5  1  0  0  0  0 
  5  6  1  0  0  0  0 
  6  7  1  0  0  0  0 
  7  8  2  0  0  0  0 
  8  9  1  0  0  0  0 
  9 10  2  0  0  0  0 
 10 11  1  0  0  0  0 
 11 12  2  0  0  0  0 
  7 12  1  0  0  0  0 
 12 13  1  0  0  0  0 
 13 14  1  0  0  0  0 
 14 15  2  0  0  0  0 
  6 15  1  0  0  0  0 
 15 16  1  0  0  0  0 
 16 17  2  0  0  0  0 
 17 18  1  0  0  0  0 
 18 19  2  0  0  0  0 
 14 19  1  0  0  0  0 
  1 20  1  0  0  0  0 
  1 21  1  0  0  0  0 
  1 22  1  0  0  0  0 
  3 23  1  0  0  0  0 
  3 24  1  0  0  0  0 
  3 25  1  0  0  0  0 
  4 26  1  0  0  0  0 
  4 27  1  0  0  0  0 
  5 28  1  0  0  0  0 
  5 29  1  0  0  0  0 
  8 30  1  0  0  0  0 
  9 31  1  0  0  0  0 
 10 32  1  0  0  0  0 
 11 33  1  0  0  0  0 
 16 34  1  0  0  0  0 
 17 35  1  0  0  0  0 
 18 36  1  0  0  0  0 
 19 37  1  0  0  0  0 
M  END
> <cdk:Title>
fenethazine

> <Conformer>
1

> <SuperDrugID>
SD003203

$$$$
