nalfurafine
  CDK     0628171802

 67 73  0  0  0  0  0  0  0  0999 V2000
   -2.0623   -4.7814   -4.5420 O   0  0  0  0  0  0  0  0  0  0  0  0
   -3.2762   -5.0833   -3.8440 C   0  0  1  0  0  0  0  0  0  0  0  0
   -3.8613   -3.7775   -3.1984 C   0  0  1  0  0  0  0  0  0  0  0  0
   -4.3556   -5.5587   -4.8893 C   0  0  1  0  0  0  0  0  0  0  0  0
   -2.8808   -6.1531   -2.7724 C   0  0  1  0  0  0  0  0  0  0  0  0
   -5.1718   -4.0463   -2.6063 C   0  0  0  0  0  0  0  0  0  0  0  0
   -3.1788   -3.2621   -1.8869 C   0  0  2  0  0  0  0  0  0  0  0  0
   -4.0158   -2.6586   -4.2984 C   0  0  1  0  0  0  0  0  0  0  0  0
   -5.7474   -5.8702   -4.2157 C   0  0  1  0  0  0  0  0  0  0  0  0
   -4.5245   -4.5046   -5.9588 N   0  0  0  0  0  0  0  0  0  0  0  0
   -1.9169   -5.5659   -1.7037 C   0  0  2  0  0  0  0  0  0  0  0  0
   -5.3591   -3.2940   -1.4550 C   0  0  0  0  0  0  0  0  0  0  0  0
   -6.1111   -4.9833   -3.0728 C   0  0  0  0  0  0  0  0  0  0  0  0
   -2.5588   -4.3658   -0.9409 C   0  0  1  0  0  0  0  0  0  0  0  0
   -4.2374   -2.5773   -1.1525 O   0  0  0  0  0  0  0  0  0  0  0  0
   -4.8801   -3.1215   -5.5077 C   0  0  1  0  0  0  0  0  0  0  0  0
   -3.8874   -4.6723   -7.3056 C   0  0  2  0  0  0  0  0  0  0  0  0
   -6.5738   -3.3879   -0.7480 C   0  0  0  0  0  0  0  0  0  0  0  0
   -7.3369   -5.0671   -2.3723 C   0  0  0  0  0  0  0  0  0  0  0  0
   -1.7354   -3.7303    0.0898 N   0  0  0  0  0  0  0  0  0  0  0  0
   -2.6810   -3.7308   -7.5833 C   0  0  1  0  0  0  0  0  0  0  0  0
   -6.8073   -2.6730    0.3810 O   0  0  0  0  0  0  0  0  0  0  0  0
   -7.5684   -4.2689   -1.2278 C   0  0  0  0  0  0  0  0  0  0  0  0
   -0.5537   -3.0826   -0.2354 C   0  0  0  0  0  0  0  0  0  0  0  0
   -2.2216   -3.6951    1.4554 C   0  0  0  0  0  0  0  0  0  0  0  0
   -2.0044   -3.8217   -8.9630 C   0  0  2  0  0  0  0  0  0  0  0  0
   -2.8394   -2.5878   -8.6037 C   0  0  1  0  0  0  0  0  0  0  0  0
   -0.2346   -1.7782    0.1273 C   0  0  0  0  0  0  0  0  0  0  0  0
    0.2803   -3.6417   -0.9843 O   0  0  0  0  0  0  0  0  0  0  0  0
   -1.1567   -0.8194    0.3325 C   0  0  0  0  0  0  0  0  0  0  0  0
   -0.8863    0.5245    0.5482 C   0  0  0  0  0  0  0  0  0  0  0  0
   -1.8358    1.4947    0.8605 C   0  0  0  0  0  0  0  0  0  0  0  0
    0.3282    1.2138    0.4695 C   0  0  0  0  0  0  0  0  0  0  0  0
   -1.1749    2.7111    0.9668 C   0  0  0  0  0  0  0  0  0  0  0  0
    0.1436    2.5308    0.7248 O   0  0  0  0  0  0  0  0  0  0  0  0
   -2.3954   -2.5469   -2.1602 H   0  0  0  0  0  0  0  0  0  0  0  0
   -4.0072   -6.4898   -5.3462 H   0  0  0  0  0  0  0  0  0  0  0  0
   -1.7960   -5.6197   -4.9768 H   0  0  0  0  0  0  0  0  0  0  0  0
   -3.7652   -6.5430   -2.2660 H   0  0  0  0  0  0  0  0  0  0  0  0
   -2.3920   -6.9993   -3.2613 H   0  0  0  0  0  0  0  0  0  0  0  0
   -4.4687   -1.7563   -3.8760 H   0  0  0  0  0  0  0  0  0  0  0  0
   -3.0258   -2.3739   -4.6663 H   0  0  0  0  0  0  0  0  0  0  0  0
   -6.5377   -5.8208   -4.9688 H   0  0  0  0  0  0  0  0  0  0  0  0
   -5.7224   -6.8922   -3.8287 H   0  0  0  0  0  0  0  0  0  0  0  0
   -0.9936   -5.2777   -2.2016 H   0  0  0  0  0  0  0  0  0  0  0  0
   -1.6650   -6.3468   -0.9811 H   0  0  0  0  0  0  0  0  0  0  0  0
   -3.4078   -4.8397   -0.4350 H   0  0  0  0  0  0  0  0  0  0  0  0
   -5.9333   -3.1163   -5.2186 H   0  0  0  0  0  0  0  0  0  0  0  0
   -4.7867   -2.3942   -6.3190 H   0  0  0  0  0  0  0  0  0  0  0  0
   -4.6656   -4.5081   -8.0542 H   0  0  0  0  0  0  0  0  0  0  0  0
   -3.5449   -5.6985   -7.4443 H   0  0  0  0  0  0  0  0  0  0  0  0
   -8.0632   -5.7172   -2.6848 H   0  0  0  0  0  0  0  0  0  0  0  0
   -1.9800   -3.5283   -6.7735 H   0  0  0  0  0  0  0  0  0  0  0  0
   -5.9280   -2.4001    0.7174 H   0  0  0  0  0  0  0  0  0  0  0  0
   -8.4602   -4.3436   -0.7309 H   0  0  0  0  0  0  0  0  0  0  0  0
   -3.1147   -3.0686    1.5238 H   0  0  0  0  0  0  0  0  0  0  0  0
   -1.4767   -3.3139    2.1602 H   0  0  0  0  0  0  0  0  0  0  0  0
   -2.4816   -4.7058    1.7820 H   0  0  0  0  0  0  0  0  0  0  0  0
   -2.4548   -4.4878   -9.7016 H   0  0  0  0  0  0  0  0  0  0  0  0
   -0.9245   -3.6614   -8.9833 H   0  0  0  0  0  0  0  0  0  0  0  0
   -3.7923   -2.5075   -9.1305 H   0  0  0  0  0  0  0  0  0  0  0  0
   -2.2684   -1.6796   -8.4022 H   0  0  0  0  0  0  0  0  0  0  0  0
    0.7286   -1.5361    0.1603 H   0  0  0  0  0  0  0  0  0  0  0  0
   -2.1163   -1.0731    0.2970 H   0  0  0  0  0  0  0  0  0  0  0  0
   -2.8409    1.3485    0.9870 H   0  0  0  0  0  0  0  0  0  0  0  0
    1.2341    0.8032    0.2387 H   0  0  0  0  0  0  0  0  0  0  0  0
   -1.6147    3.6060    1.1915 H   0  0  0  0  0  0  0  0  0  0  0  0
  2  1  1  0  0  0  0 
  3  2  1  0  0  0  0 
  2  4  1  0  0  0  0 
  2  5  1  0  0  0  0 
  3  6  1  0  0  0  0 
  7  3  1  0  0  0  0 
  3  8  1  0  0  0  0 
  4  9  1  0  0  0  0 
  4 10  1  0  0  0  0 
  4 37  1  0  0  0  0 
  5 11  1  0  0  0  0 
  6 12  2  0  0  0  0 
  6 13  1  0  0  0  0 
 14  7  1  0  0  0  0 
  7 15  1  0  0  0  0 
  7 36  1  0  0  0  0 
  8 16  1  0  0  0  0 
  9 13  1  0  0  0  0 
 10 16  1  0  0  0  0 
 10 17  1  0  0  0  0 
 14 11  1  0  0  0  0 
 12 15  1  0  0  0  0 
 12 18  1  0  0  0  0 
 13 19  2  0  0  0  0 
 14 20  1  0  0  0  0 
 17 21  1  0  0  0  0 
 18 22  1  0  0  0  0 
 18 23  2  0  0  0  0 
 19 23  1  0  0  0  0 
 20 24  1  0  0  0  0 
 20 25  1  0  0  0  0 
 21 26  1  0  0  0  0 
 21 27  1  0  0  0  0 
 24 28  1  0  0  0  0 
 24 29  2  0  0  0  0 
 26 27  1  0  0  0  0 
 28 30  2  0  0  0  0 
 30 31  1  0  0  0  0 
 31 32  1  0  0  0  0 
 31 33  2  0  0  0  0 
 32 34  2  0  0  0  0 
 33 35  1  0  0  0  0 
 34 35  1  0  0  0  0 
  1 38  1  0  0  0  0 
  5 39  1  0  0  0  0 
  5 40  1  0  0  0  0 
  8 41  1  0  0  0  0 
  8 42  1  0  0  0  0 
  9 43  1  0  0  0  0 
  9 44  1  0  0  0  0 
 11 45  1  0  0  0  0 
 11 46  1  0  0  0  0 
 14 47  1  0  0  0  0 
 16 48  1  0  0  0  0 
 16 49  1  0  0  0  0 
 17 50  1  0  0  0  0 
 17 51  1  0  0  0  0 
 19 52  1  0  0  0  0 
 21 53  1  0  0  0  0 
 22 54  1  0  0  0  0 
 23 55  1  0  0  0  0 
 25 56  1  0  0  0  0 
 25 57  1  0  0  0  0 
 25 58  1  0  0  0  0 
 26 59  1  0  0  0  0 
 26 60  1  0  0  0  0 
 27 61  1  0  0  0  0 
 27 62  1  0  0  0  0 
 28 63  1  0  0  0  0 
 30 64  1  0  0  0  0 
 32 65  1  0  0  0  0 
 33 66  1  0  0  0  0 
 34 67  1  0  0  0  0 
M  END
> <cdk:Title>
nalfurafine

> <Conformer>
1

> <SuperDrugID>
SD003704

$$$$
