rilmenidine
  CDK     0628171801

 29 31  0  0  0  0  0  0  0  0999 V2000
   -0.3139   -0.2822    1.1306 C   0  0  1  0  0  0  0  0  0  0  0  0
   -1.2681    0.3649    1.9175 N   0  0  0  0  0  0  0  0  0  0  0  0
   -0.5516    0.1858   -0.3276 C   0  0  2  0  0  0  0  0  0  0  0  0
    1.1193    0.1263    1.5699 C   0  0  2  0  0  0  0  0  0  0  0  0
   -1.5443    0.1743    3.1564 C   0  0  0  0  0  0  0  0  0  0  0  0
   -1.5306   -0.6218   -1.1952 C   0  0  1  0  0  0  0  0  0  0  0  0
   -0.0275   -0.6694   -1.4936 C   0  0  2  0  0  0  0  0  0  0  0  0
    2.3190   -0.7170    1.1030 C   0  0  1  0  0  0  0  0  0  0  0  0
    1.8716   -0.7711    2.5669 C   0  0  2  0  0  0  0  0  0  0  0  0
   -2.4663    0.8796    3.7572 N   0  0  0  0  0  0  0  0  0  0  0  0
   -0.9574   -0.7390    3.9313 O   0  0  0  0  0  0  0  0  0  0  0  0
   -2.6059    0.5305    5.1083 C   0  0  1  0  0  0  0  0  0  0  0  0
   -1.4611   -0.4864    5.2504 C   0  0  2  0  0  0  0  0  0  0  0  0
   -0.4533   -1.3660    1.2083 H   0  0  0  0  0  0  0  0  0  0  0  0
   -0.5543    1.2613   -0.5278 H   0  0  0  0  0  0  0  0  0  0  0  0
    1.3392    1.1928    1.6666 H   0  0  0  0  0  0  0  0  0  0  0  0
   -1.9414   -1.5394   -0.7681 H   0  0  0  0  0  0  0  0  0  0  0  0
   -2.1296   -0.0492   -1.9046 H   0  0  0  0  0  0  0  0  0  0  0  0
    0.4545   -1.6183   -1.2530 H   0  0  0  0  0  0  0  0  0  0  0  0
    0.2930   -0.1204   -2.3815 H   0  0  0  0  0  0  0  0  0  0  0  0
    2.1157   -1.6294    0.5407 H   0  0  0  0  0  0  0  0  0  0  0  0
    3.2496   -0.1756    0.9217 H   0  0  0  0  0  0  0  0  0  0  0  0
    1.3906   -1.7041    2.8639 H   0  0  0  0  0  0  0  0  0  0  0  0
    2.5167   -0.2546    3.2786 H   0  0  0  0  0  0  0  0  0  0  0  0
   -2.9928    1.5679    3.3165 H   0  0  0  0  0  0  0  0  0  0  0  0
   -2.4718    1.3987    5.7560 H   0  0  0  0  0  0  0  0  0  0  0  0
   -3.5838    0.0771    5.2810 H   0  0  0  0  0  0  0  0  0  0  0  0
   -0.6585   -0.0801    5.8731 H   0  0  0  0  0  0  0  0  0  0  0  0
   -1.8125   -1.4211    5.6940 H   0  0  0  0  0  0  0  0  0  0  0  0
  2  1  1  0  0  0  0 
  1  3  1  0  0  0  0 
  1  4  1  0  0  0  0 
  2  5  2  0  0  0  0 
  3  6  1  0  0  0  0 
  3  7  1  0  0  0  0 
  4  8  1  0  0  0  0 
  4  9  1  0  0  0  0 
  5 10  1  0  0  0  0 
  5 11  1  0  0  0  0 
  6  7  1  0  0  0  0 
  8  9  1  0  0  0  0 
 10 12  1  0  0  0  0 
 11 13  1  0  0  0  0 
 12 13  1  0  0  0  0 
 14  1  1  0  0  0  0 
 15  3  1  0  0  0  0 
 16  4  1  0  0  0  0 
 17  6  1  0  0  0  0 
 18  6  1  0  0  0  0 
 19  7  1  0  0  0  0 
 20  7  1  0  0  0  0 
 21  8  1  0  0  0  0 
 22  8  1  0  0  0  0 
 23  9  1  0  0  0  0 
 24  9  1  0  0  0  0 
 25 10  1  0  0  0  0 
 26 12  1  0  0  0  0 
 27 12  1  0  0  0  0 
 28 13  1  0  0  0  0 
 29 13  1  0  0  0  0 
M  END
> <cdk:Title>
rilmenidine

> <Conformer>
1

> <SuperDrugID>
SD002142

$$$$
