fampridine
  CDK     0628171801

 13 13  0  0  0  0  0  0  0  0999 V2000
   -0.6833    1.1629    0.0848 N   0  0  0  0  0  0  0  0  0  0  0  0
   -0.0426    2.3590    0.0310 C   0  0  0  0  0  0  0  0  0  0  0  0
    1.3600    2.3982   -0.0764 C   0  0  0  0  0  0  0  0  0  0  0  0
    2.0775    1.1861   -0.1221 C   0  0  0  0  0  0  0  0  0  0  0  0
    1.3809   -0.0389   -0.0738 C   0  0  0  0  0  0  0  0  0  0  0  0
   -0.0221   -0.0222    0.0349 C   0  0  0  0  0  0  0  0  0  0  0  0
    3.4201    1.2015   -0.2112 N   0  0  0  0  0  0  0  0  0  0  0  0
   -0.5821    3.2251    0.0667 H   0  0  0  0  0  0  0  0  0  0  0  0
    1.8450    3.2972   -0.1222 H   0  0  0  0  0  0  0  0  0  0  0  0
    1.8795   -0.9314   -0.1168 H   0  0  0  0  0  0  0  0  0  0  0  0
   -0.5487   -0.8960    0.0756 H   0  0  0  0  0  0  0  0  0  0  0  0
    3.9143    0.3691   -0.2634 H   0  0  0  0  0  0  0  0  0  0  0  0
    3.8975    2.0463   -0.2218 H   0  0  0  0  0  0  0  0  0  0  0  0
  1  2  2  0  0  0  0 
  1  6  1  0  0  0  0 
  2  3  1  0  0  0  0 
  3  4  2  0  0  0  0 
  4  5  1  0  0  0  0 
  5  6  2  0  0  0  0 
  4  7  1  0  0  0  0 
  2  8  1  0  0  0  0 
  3  9  1  0  0  0  0 
  5 10  1  0  0  0  0 
  6 11  1  0  0  0  0 
  7 12  1  0  0  0  0 
  7 13  1  0  0  0  0 
M  END
> <cdk:Title>
fampridine

> <Conformer>
1

> <SuperDrugID>
SD003395

$$$$
