cefixime
  CDK     0628171802

 45 47  0  0  0  0  0  0  0  0999 V2000
    3.8261   -2.3117   -0.5656 C   0  0  1  0  0  0  0  0  0  0  0  0
    3.3791   -3.3765    0.8365 S   0  0  0  0  0  0  0  0  0  0  0  0
    3.1696   -4.9623   -0.0513 C   0  0  1  0  0  0  0  0  0  0  0  0
    2.5387   -4.8787   -1.3870 C   0  0  0  0  0  0  0  0  0  0  0  0
    2.3847   -3.7198   -2.0941 C   0  0  0  0  0  0  0  0  0  0  0  0
    2.8552   -2.5632   -1.5740 N   0  0  0  0  0  0  0  0  0  0  0  0
    2.5155   -1.2722   -1.6922 C   0  0  0  0  0  0  0  0  0  0  0  0
    3.3879   -0.8161   -0.6098 C   0  0  1  0  0  0  0  0  0  0  0  0
    2.1657   -6.0859   -1.9094 C   0  0  0  0  0  0  0  0  0  0  0  0
    1.0824   -6.7675   -1.5079 C   0  0  0  0  0  0  0  0  0  0  0  0
    1.7417   -3.6501   -3.3392 C   0  0  0  0  0  0  0  0  0  0  0  0
    1.6860   -0.6646   -2.4066 O   0  0  0  0  0  0  0  0  0  0  0  0
    4.8462   -2.4914   -0.9178 H   0  0  0  0  0  0  0  0  0  0  0  0
    4.1748   -0.1393   -0.9528 H   0  0  0  0  0  0  0  0  0  0  0  0
    2.6371   -0.3463    0.5108 N   0  0  0  0  0  0  0  0  0  0  0  0
    1.9314    0.8186    0.5497 C   0  0  0  0  0  0  0  0  0  0  0  0
    1.0083    1.0915    1.5701 C   0  0  0  0  0  0  0  0  0  0  0  0
    0.6485    2.4067    1.8687 C   0  0  0  0  0  0  0  0  0  0  0  0
    2.0761    1.6382   -0.3911 O   0  0  0  0  0  0  0  0  0  0  0  0
    1.5427    3.4348    1.7457 N   0  0  0  0  0  0  0  0  0  0  0  0
    1.1081    4.6841    2.0176 C   0  0  0  0  0  0  0  0  0  0  0  0
   -0.5777    4.5445    2.4798 S   0  0  0  0  0  0  0  0  0  0  0  0
   -0.6358    2.8025    2.2901 C   0  0  0  0  0  0  0  0  0  0  0  0
    1.8275    5.8143    1.9414 N   0  0  0  0  0  0  0  0  0  0  0  0
    0.4189    0.1616    2.2450 N   0  0  0  0  0  0  0  0  0  0  0  0
    0.6002   -1.1025    2.1386 O   0  0  0  0  0  0  0  0  0  0  0  0
   -0.5692   -1.7996    1.6881 C   0  0  1  0  0  0  0  0  0  0  0  0
   -0.1778   -3.1984    1.4583 C   0  0  0  0  0  0  0  0  0  0  0  0
    2.1232   -2.8505   -4.2249 O   0  0  0  0  0  0  0  0  0  0  0  0
    0.6739   -4.4230   -3.6515 O   0  0  0  0  0  0  0  0  0  0  0  0
   -0.2455   -3.7151    0.3197 O   0  0  0  0  0  0  0  0  0  0  0  0
    0.2968   -3.9422    2.4841 O   0  0  0  0  0  0  0  0  0  0  0  0
    4.1615   -5.4088   -0.1606 H   0  0  0  0  0  0  0  0  0  0  0  0
    2.5863   -5.6022    0.6170 H   0  0  0  0  0  0  0  0  0  0  0  0
    2.7265   -6.4659   -2.6378 H   0  0  0  0  0  0  0  0  0  0  0  0
    0.4891   -6.4191   -0.7906 H   0  0  0  0  0  0  0  0  0  0  0  0
    0.8513   -7.6391   -1.9284 H   0  0  0  0  0  0  0  0  0  0  0  0
    2.5842   -0.9262    1.2837 H   0  0  0  0  0  0  0  0  0  0  0  0
   -1.4544    2.2080    2.4337 H   0  0  0  0  0  0  0  0  0  0  0  0
    2.7647    5.7774    1.6924 H   0  0  0  0  0  0  0  0  0  0  0  0
    1.4135    6.6705    2.1350 H   0  0  0  0  0  0  0  0  0  0  0  0
   -1.3567   -1.7686    2.4454 H   0  0  0  0  0  0  0  0  0  0  0  0
   -0.9514   -1.3652    0.7580 H   0  0  0  0  0  0  0  0  0  0  0  0
    0.2567   -4.3545   -4.5352 H   0  0  0  0  0  0  0  0  0  0  0  0
    0.5929   -4.8643    2.3331 H   0  0  0  0  0  0  0  0  0  0  0  0
  1  2  1  0  0  0  0 
  2  3  1  0  0  0  0 
  3  4  1  0  0  0  0 
  4  5  2  0  0  0  0 
  5  6  1  0  0  0  0 
  1  6  1  0  0  0  0 
  6  7  1  0  0  0  0 
  7  8  1  0  0  0  0 
  1  8  1  0  0  0  0 
  4  9  1  0  0  0  0 
  9 10  2  0  0  0  0 
  5 11  1  0  0  0  0 
  7 12  2  0  0  0  0 
  1 13  1  0  0  0  0 
  8 14  1  0  0  0  0 
  8 15  1  0  0  0  0 
 15 16  1  0  0  0  0 
 16 17  1  0  0  0  0 
 17 18  1  0  0  0  0 
 16 19  2  0  0  0  0 
 18 20  1  0  0  0  0 
 20 21  2  0  0  0  0 
 21 22  1  0  0  0  0 
 22 23  1  0  0  0  0 
 18 23  2  0  0  0  0 
 21 24  1  0  0  0  0 
 17 25  2  0  0  0  0 
 25 26  1  0  0  0  0 
 26 27  1  0  0  0  0 
 27 28  1  0  0  0  0 
 11 29  2  0  0  0  0 
 11 30  1  0  0  0  0 
 28 31  2  0  0  0  0 
 28 32  1  0  0  0  0 
  3 33  1  0  0  0  0 
  3 34  1  0  0  0  0 
  9 35  1  0  0  0  0 
 10 36  1  0  0  0  0 
 10 37  1  0  0  0  0 
 15 38  1  0  0  0  0 
 23 39  1  0  0  0  0 
 24 40  1  0  0  0  0 
 24 41  1  0  0  0  0 
 27 42  1  0  0  0  0 
 27 43  1  0  0  0  0 
 30 44  1  0  0  0  0 
 32 45  1  0  0  0  0 
M  END
> <cdk:Title>
cefixime

> <Conformer>
1

> <SuperDrugID>
SD000465

$$$$
