doxacurium
  CDK     0628171801

152157  0  0  0  0  0  0  0  0999 V2000
   -4.1178   -9.6152   -0.4313 C   0  0  1  0  0  0  0  0  0  0  0  0
   -2.6473   -9.0787   -0.6543 C   0  0  1  0  0  0  0  0  0  0  0  0
   -4.2306  -11.0993   -0.3104 C   0  0  0  0  0  0  0  0  0  0  0  0
   -2.1876   -9.5748   -2.0083 C   0  0  0  0  0  0  0  0  0  0  0  0
   -2.4169   -7.5605   -0.4857 N   0  0  1  0  0  0  0  0  0  0  0  0
   -4.7476  -11.8828   -1.3681 C   0  0  0  0  0  0  0  0  0  0  0  0
   -3.7923  -11.7541    0.8632 C   0  0  0  0  0  0  0  0  0  0  0  0
   -2.3252   -8.7255   -3.1427 C   0  0  0  0  0  0  0  0  0  0  0  0
   -1.6167  -10.8670   -2.1912 C   0  0  0  0  0  0  0  0  0  0  0  0
   -0.8997   -7.2883   -0.4963 C   0  0  2  0  0  0  0  0  0  0  0  0
   -3.1589   -6.8505   -1.6006 C   0  0  1  0  0  0  0  0  0  0  0  0
   -4.7968  -13.2887   -1.2738 C   0  0  0  0  0  0  0  0  0  0  0  0
   -3.8030  -13.1602    0.9571 C   0  0  0  0  0  0  0  0  0  0  0  0
   -1.9814   -9.2063   -4.4260 C   0  0  0  0  0  0  0  0  0  0  0  0
   -2.7584   -7.3044   -3.0298 C   0  0  2  0  0  0  0  0  0  0  0  0
   -1.3666  -11.6879   -1.1202 O   0  0  0  0  0  0  0  0  0  0  0  0
   -1.3169  -11.3484   -3.4872 C   0  0  0  0  0  0  0  0  0  0  0  0
   -0.3792   -5.8137   -0.5014 C   0  0  1  0  0  0  0  0  0  0  0  0
   -5.2931  -14.0307   -2.3139 O   0  0  0  0  0  0  0  0  0  0  0  0
   -4.2835  -13.9325   -0.1260 C   0  0  0  0  0  0  0  0  0  0  0  0
   -3.2833  -13.7617    2.0707 O   0  0  0  0  0  0  0  0  0  0  0  0
   -1.4779  -10.5060   -4.6062 C   0  0  0  0  0  0  0  0  0  0  0  0
   -0.0019  -11.6340   -0.6649 C   0  0  0  0  0  0  0  0  0  0  0  0
   -0.8152  -12.6162   -3.6500 O   0  0  0  0  0  0  0  0  0  0  0  0
    1.1629   -5.7497   -0.6184 C   0  0  2  0  0  0  0  0  0  0  0  0
   -6.7294  -14.1113   -2.3082 C   0  0  0  0  0  0  0  0  0  0  0  0
   -4.2790  -15.3015   -0.0507 O   0  0  0  0  0  0  0  0  0  0  0  0
   -4.2608  -14.1176    3.0627 C   0  0  0  0  0  0  0  0  0  0  0  0
   -1.1775  -10.9352   -5.8722 O   0  0  0  0  0  0  0  0  0  0  0  0
   -1.8023  -13.5978   -4.0111 C   0  0  0  0  0  0  0  0  0  0  0  0
    1.6094   -4.3944   -0.5309 O   0  0  0  0  0  0  0  0  0  0  0  0
   -3.0312  -15.8935   -0.4563 C   0  0  0  0  0  0  0  0  0  0  0  0
    0.2206  -10.8401   -6.1980 C   0  0  0  0  0  0  0  0  0  0  0  0
    2.9057   -3.9641   -0.5186 C   0  0  0  0  0  0  0  0  0  0  0  0
    3.1641   -2.5162   -0.4647 C   0  0  2  0  0  0  0  0  0  0  0  0
    3.8648   -4.7709   -0.5674 O   0  0  0  0  0  0  0  0  0  0  0  0
    3.9385   -2.0463    0.8012 C   0  0  2  0  0  0  0  0  0  0  0  0
    3.7544   -0.5905    0.9448 C   0  0  0  0  0  0  0  0  0  0  0  0
    2.5382   -0.1284    1.3558 O   0  0  0  0  0  0  0  0  0  0  0  0
    4.6679    0.2009    0.6128 O   0  0  0  0  0  0  0  0  0  0  0  0
    1.8867    1.0277    0.8174 C   0  0  2  0  0  0  0  0  0  0  0  0
    0.8030    1.5840    1.7743 C   0  0  1  0  0  0  0  0  0  0  0  0
   -0.3888    2.2743    1.0322 C   0  0  2  0  0  0  0  0  0  0  0  0
   -1.2551    3.2799    1.8048 N   0  0  1  0  0  0  0  0  0  0  0  0
   -0.4980    4.5261    2.2941 C   0  0  1  0  0  0  0  0  0  0  0  0
   -2.3604    3.7403    0.8682 C   0  0  1  0  0  0  0  0  0  0  0  0
    0.3401    5.2964    1.2018 C   0  0  2  0  0  0  0  0  0  0  0  0
   -1.4029    5.5267    2.9799 C   0  0  0  0  0  0  0  0  0  0  0  0
   -3.2945    4.8623    1.4104 C   0  0  1  0  0  0  0  0  0  0  0  0
    1.3400    6.2348    1.7737 C   0  0  0  0  0  0  0  0  0  0  0  0
   -2.7254    5.7101    2.4916 C   0  0  0  0  0  0  0  0  0  0  0  0
   -0.9728    6.3083    4.0911 C   0  0  0  0  0  0  0  0  0  0  0  0
    2.5069    5.7283    2.3889 C   0  0  0  0  0  0  0  0  0  0  0  0
    1.1328    7.6312    1.7437 C   0  0  0  0  0  0  0  0  0  0  0  0
   -3.5599    6.6938    3.0696 C   0  0  0  0  0  0  0  0  0  0  0  0
    0.2679    6.1244    4.6471 O   0  0  0  0  0  0  0  0  0  0  0  0
   -1.8024    7.3210    4.6281 C   0  0  0  0  0  0  0  0  0  0  0  0
    3.4233    6.5909    3.0177 C   0  0  0  0  0  0  0  0  0  0  0  0
    2.0576    8.5070    2.3446 C   0  0  0  0  0  0  0  0  0  0  0  0
   -3.1119    7.4942    4.1353 C   0  0  0  0  0  0  0  0  0  0  0  0
    0.2496    5.2867    5.8173 C   0  0  0  0  0  0  0  0  0  0  0  0
   -1.3556    8.1073    5.6615 O   0  0  0  0  0  0  0  0  0  0  0  0
    4.4976    6.0539    3.6725 O   0  0  0  0  0  0  0  0  0  0  0  0
    3.1823    7.9840    3.0199 C   0  0  0  0  0  0  0  0  0  0  0  0
    1.8385    9.8586    2.3104 O   0  0  0  0  0  0  0  0  0  0  0  0
   -3.9466    8.4520    4.6529 O   0  0  0  0  0  0  0  0  0  0  0  0
   -0.7331    9.3312    5.2331 C   0  0  0  0  0  0  0  0  0  0  0  0
    5.7189    6.0735    2.9145 C   0  0  0  0  0  0  0  0  0  0  0  0
    4.0512    8.8271    3.6584 O   0  0  0  0  0  0  0  0  0  0  0  0
    2.2965   10.4577    1.0856 C   0  0  0  0  0  0  0  0  0  0  0  0
   -4.6495    8.0328    5.8366 C   0  0  0  0  0  0  0  0  0  0  0  0
    3.7690    8.9626    5.0625 C   0  0  0  0  0  0  0  0  0  0  0  0
   -1.8595    2.5360    2.9850 C   0  0  0  0  0  0  0  0  0  0  0  0
    0.2170    4.1744    3.0403 H   0  0  0  0  0  0  0  0  0  0  0  0
   -2.9769   -7.0531    0.8339 C   0  0  0  0  0  0  0  0  0  0  0  0
   -2.0409   -9.5646    0.1170 H   0  0  0  0  0  0  0  0  0  0  0  0
   -4.5446   -9.2150    0.4865 H   0  0  0  0  0  0  0  0  0  0  0  0
   -4.7596   -9.2621   -1.2434 H   0  0  0  0  0  0  0  0  0  0  0  0
   -5.0812  -11.4339   -2.2267 H   0  0  0  0  0  0  0  0  0  0  0  0
   -3.4449  -11.2059    1.6523 H   0  0  0  0  0  0  0  0  0  0  0  0
   -0.4708   -7.7042   -1.4646 H   0  0  0  0  0  0  0  0  0  0  0  0
   -0.4784   -7.7412    0.4654 H   0  0  0  0  0  0  0  0  0  0  0  0
   -4.2363   -7.0181   -1.5033 H   0  0  0  0  0  0  0  0  0  0  0  0
   -3.0452   -5.7663   -1.5279 H   0  0  0  0  0  0  0  0  0  0  0  0
   -2.0918   -8.6011   -5.2459 H   0  0  0  0  0  0  0  0  0  0  0  0
   -3.6036   -7.1263   -3.7010 H   0  0  0  0  0  0  0  0  0  0  0  0
   -1.9317   -6.6720   -3.3662 H   0  0  0  0  0  0  0  0  0  0  0  0
   -0.7971   -5.2613   -1.3433 H   0  0  0  0  0  0  0  0  0  0  0  0
   -0.6628   -5.3042    0.4193 H   0  0  0  0  0  0  0  0  0  0  0  0
    0.0879  -12.2850    0.2051 H   0  0  0  0  0  0  0  0  0  0  0  0
    0.6930  -11.9922   -1.4291 H   0  0  0  0  0  0  0  0  0  0  0  0
    0.2809  -10.6223   -0.3642 H   0  0  0  0  0  0  0  0  0  0  0  0
    1.4842   -6.1687   -1.5757 H   0  0  0  0  0  0  0  0  0  0  0  0
    1.6170   -6.3249    0.1912 H   0  0  0  0  0  0  0  0  0  0  0  0
   -7.0409  -14.7216   -3.1562 H   0  0  0  0  0  0  0  0  0  0  0  0
   -7.0982  -14.5833   -1.3941 H   0  0  0  0  0  0  0  0  0  0  0  0
   -7.1837  -13.1236   -2.4186 H   0  0  0  0  0  0  0  0  0  0  0  0
   -3.7421  -14.6437    3.8662 H   0  0  0  0  0  0  0  0  0  0  0  0
   -4.7365  -13.2292    3.4848 H   0  0  0  0  0  0  0  0  0  0  0  0
   -5.0255  -14.7856    2.6576 H   0  0  0  0  0  0  0  0  0  0  0  0
   -1.3093  -14.5684   -4.0688 H   0  0  0  0  0  0  0  0  0  0  0  0
   -2.5945  -13.6636   -3.2646 H   0  0  0  0  0  0  0  0  0  0  0  0
   -2.2394  -13.3843   -4.9884 H   0  0  0  0  0  0  0  0  0  0  0  0
   -3.1180  -16.9736   -0.3431 H   0  0  0  0  0  0  0  0  0  0  0  0
   -2.8101  -15.6787   -1.5036 H   0  0  0  0  0  0  0  0  0  0  0  0
   -2.2016  -15.5550    0.1686 H   0  0  0  0  0  0  0  0  0  0  0  0
    0.3480  -11.1640   -7.2321 H   0  0  0  0  0  0  0  0  0  0  0  0
    0.5848   -9.8123   -6.1160 H   0  0  0  0  0  0  0  0  0  0  0  0
    0.8228  -11.4938   -5.5622 H   0  0  0  0  0  0  0  0  0  0  0  0
    2.1953   -2.0085   -0.5207 H   0  0  0  0  0  0  0  0  0  0  0  0
    3.7294   -2.2310   -1.3567 H   0  0  0  0  0  0  0  0  0  0  0  0
    5.0001   -2.2878    0.6880 H   0  0  0  0  0  0  0  0  0  0  0  0
    3.5697   -2.5468    1.7000 H   0  0  0  0  0  0  0  0  0  0  0  0
    1.4357    0.7115   -0.1243 H   0  0  0  0  0  0  0  0  0  0  0  0
    2.6071    1.8198    0.5994 H   0  0  0  0  0  0  0  0  0  0  0  0
    0.4065    0.7650    2.3785 H   0  0  0  0  0  0  0  0  0  0  0  0
    1.2969    2.2833    2.4514 H   0  0  0  0  0  0  0  0  0  0  0  0
   -1.0200    1.4582    0.6626 H   0  0  0  0  0  0  0  0  0  0  0  0
   -0.0041    2.7312    0.1181 H   0  0  0  0  0  0  0  0  0  0  0  0
   -1.9225    4.1151   -0.0631 H   0  0  0  0  0  0  0  0  0  0  0  0
   -2.9890    2.8941    0.5680 H   0  0  0  0  0  0  0  0  0  0  0  0
   -0.3355    5.8231    0.5221 H   0  0  0  0  0  0  0  0  0  0  0  0
    0.9159    4.6151    0.5822 H   0  0  0  0  0  0  0  0  0  0  0  0
   -3.5881    5.5070    0.5765 H   0  0  0  0  0  0  0  0  0  0  0  0
   -4.2055    4.3910    1.7930 H   0  0  0  0  0  0  0  0  0  0  0  0
    2.6839    4.7219    2.3973 H   0  0  0  0  0  0  0  0  0  0  0  0
    0.2967    8.0210    1.2966 H   0  0  0  0  0  0  0  0  0  0  0  0
   -4.5113    6.8309    2.7169 H   0  0  0  0  0  0  0  0  0  0  0  0
    1.2773    5.1567    6.1560 H   0  0  0  0  0  0  0  0  0  0  0  0
   -0.3190    5.7420    6.6318 H   0  0  0  0  0  0  0  0  0  0  0  0
   -0.1628    4.3001    5.5962 H   0  0  0  0  0  0  0  0  0  0  0  0
   -0.3654    9.8546    6.1156 H   0  0  0  0  0  0  0  0  0  0  0  0
    0.1166    9.1403    4.5767 H   0  0  0  0  0  0  0  0  0  0  0  0
   -1.4457    9.9850    4.7269 H   0  0  0  0  0  0  0  0  0  0  0  0
    6.5079    5.6507    3.5389 H   0  0  0  0  0  0  0  0  0  0  0  0
    5.6356    5.4665    2.0097 H   0  0  0  0  0  0  0  0  0  0  0  0
    6.0084    7.0924    2.6462 H   0  0  0  0  0  0  0  0  0  0  0  0
    2.1005   11.5284    1.1364 H   0  0  0  0  0  0  0  0  0  0  0  0
    3.3711   10.3134    0.9487 H   0  0  0  0  0  0  0  0  0  0  0  0
    1.7619   10.0570    0.2208 H   0  0  0  0  0  0  0  0  0  0  0  0
   -5.3129    8.8445    6.1374 H   0  0  0  0  0  0  0  0  0  0  0  0
   -5.2605    7.1456    5.6513 H   0  0  0  0  0  0  0  0  0  0  0  0
   -3.9594    7.8365    6.6603 H   0  0  0  0  0  0  0  0  0  0  0  0
    4.5240    9.6165    5.4969 H   0  0  0  0  0  0  0  0  0  0  0  0
    2.7891    9.4151    5.2271 H   0  0  0  0  0  0  0  0  0  0  0  0
    3.8183    8.0015    5.5797 H   0  0  0  0  0  0  0  0  0  0  0  0
   -2.5477    3.1510    3.5658 H   0  0  0  0  0  0  0  0  0  0  0  0
   -1.0867    2.1993    3.6807 H   0  0  0  0  0  0  0  0  0  0  0  0
   -2.4207    1.6551    2.6623 H   0  0  0  0  0  0  0  0  0  0  0  0
   -2.5908   -7.6289    1.6790 H   0  0  0  0  0  0  0  0  0  0  0  0
   -4.0671   -7.1019    0.8777 H   0  0  0  0  0  0  0  0  0  0  0  0
   -2.7334   -6.0035    1.0083 H   0  0  0  0  0  0  0  0  0  0  0  0
  2  1  1  0  0  0  0 
  1  3  1  0  0  0  0 
  2  4  1  0  0  0  0 
  5  2  1  0  0  0  0 
  3  6  2  0  0  0  0 
  3  7  1  0  0  0  0 
  4  8  2  0  0  0  0 
  4  9  1  0  0  0  0 
  5 10  1  0  0  0  0 
  5 11  1  0  0  0  0 
  6 12  1  0  0  0  0 
  7 13  2  0  0  0  0 
  8 14  1  0  0  0  0 
  8 15  1  0  0  0  0 
  9 16  1  0  0  0  0 
  9 17  2  0  0  0  0 
 10 18  1  0  0  0  0 
 11 15  1  0  0  0  0 
 12 19  1  0  0  0  0 
 12 20  2  0  0  0  0 
 13 20  1  0  0  0  0 
 13 21  1  0  0  0  0 
 14 22  2  0  0  0  0 
 16 23  1  0  0  0  0 
 17 22  1  0  0  0  0 
 17 24  1  0  0  0  0 
 18 25  1  0  0  0  0 
 19 26  1  0  0  0  0 
 20 27  1  0  0  0  0 
 21 28  1  0  0  0  0 
 22 29  1  0  0  0  0 
 24 30  1  0  0  0  0 
 25 31  1  0  0  0  0 
 27 32  1  0  0  0  0 
 29 33  1  0  0  0  0 
 31 34  1  0  0  0  0 
 34 35  1  0  0  0  0 
 34 36  2  0  0  0  0 
 35 37  1  0  0  0  0 
 37 38  1  0  0  0  0 
 38 39  1  0  0  0  0 
 38 40  2  0  0  0  0 
 39 41  1  0  0  0  0 
 41 42  1  0  0  0  0 
 42 43  1  0  0  0  0 
 44 43  1  0  0  0  0 
 45 44  1  0  0  0  0 
 44 46  1  0  0  0  0 
 45 47  1  0  0  0  0 
 45 48  1  0  0  0  0 
 46 49  1  0  0  0  0 
 47 50  1  0  0  0  0 
 48 51  2  0  0  0  0 
 48 52  1  0  0  0  0 
 49 51  1  0  0  0  0 
 50 53  2  0  0  0  0 
 50 54  1  0  0  0  0 
 51 55  1  0  0  0  0 
 52 56  1  0  0  0  0 
 52 57  2  0  0  0  0 
 53 58  1  0  0  0  0 
 54 59  2  0  0  0  0 
 55 60  2  0  0  0  0 
 56 61  1  0  0  0  0 
 57 60  1  0  0  0  0 
 57 62  1  0  0  0  0 
 58 63  1  0  0  0  0 
 58 64  2  0  0  0  0 
 59 64  1  0  0  0  0 
 59 65  1  0  0  0  0 
 60 66  1  0  0  0  0 
 62 67  1  0  0  0  0 
 63 68  1  0  0  0  0 
 64 69  1  0  0  0  0 
 65 70  1  0  0  0  0 
 66 71  1  0  0  0  0 
 69 72  1  0  0  0  0 
 44 73  1  0  0  0  0 
 45 74  1  0  0  0  0 
  5 75  1  0  0  0  0 
  2 76  1  0  0  0  0 
  1 77  1  0  0  0  0 
  1 78  1  0  0  0  0 
  6 79  1  0  0  0  0 
  7 80  1  0  0  0  0 
 10 81  1  0  0  0  0 
 10 82  1  0  0  0  0 
 11 83  1  0  0  0  0 
 11 84  1  0  0  0  0 
 14 85  1  0  0  0  0 
 15 86  1  0  0  0  0 
 15 87  1  0  0  0  0 
 18 88  1  0  0  0  0 
 18 89  1  0  0  0  0 
 23 90  1  0  0  0  0 
 23 91  1  0  0  0  0 
 23 92  1  0  0  0  0 
 25 93  1  0  0  0  0 
 25 94  1  0  0  0  0 
 26 95  1  0  0  0  0 
 26 96  1  0  0  0  0 
 26 97  1  0  0  0  0 
 28 98  1  0  0  0  0 
 28 99  1  0  0  0  0 
 28100  1  0  0  0  0 
 30101  1  0  0  0  0 
 30102  1  0  0  0  0 
 30103  1  0  0  0  0 
 32104  1  0  0  0  0 
 32105  1  0  0  0  0 
 32106  1  0  0  0  0 
 33107  1  0  0  0  0 
 33108  1  0  0  0  0 
 33109  1  0  0  0  0 
 35110  1  0  0  0  0 
 35111  1  0  0  0  0 
 37112  1  0  0  0  0 
 37113  1  0  0  0  0 
 41114  1  0  0  0  0 
 41115  1  0  0  0  0 
 42116  1  0  0  0  0 
 42117  1  0  0  0  0 
 43118  1  0  0  0  0 
 43119  1  0  0  0  0 
 46120  1  0  0  0  0 
 46121  1  0  0  0  0 
 47122  1  0  0  0  0 
 47123  1  0  0  0  0 
 49124  1  0  0  0  0 
 49125  1  0  0  0  0 
 53126  1  0  0  0  0 
 54127  1  0  0  0  0 
 55128  1  0  0  0  0 
 61129  1  0  0  0  0 
 61130  1  0  0  0  0 
 61131  1  0  0  0  0 
 67132  1  0  0  0  0 
 67133  1  0  0  0  0 
 67134  1  0  0  0  0 
 68135  1  0  0  0  0 
 68136  1  0  0  0  0 
 68137  1  0  0  0  0 
 70138  1  0  0  0  0 
 70139  1  0  0  0  0 
 70140  1  0  0  0  0 
 71141  1  0  0  0  0 
 71142  1  0  0  0  0 
 71143  1  0  0  0  0 
 72144  1  0  0  0  0 
 72145  1  0  0  0  0 
 72146  1  0  0  0  0 
 73147  1  0  0  0  0 
 73148  1  0  0  0  0 
 73149  1  0  0  0  0 
 75150  1  0  0  0  0 
 75151  1  0  0  0  0 
 75152  1  0  0  0  0 
M  CHG  1   5   1
M  CHG  1  44   1
M  END
> <cdk:Title>
doxacurium

> <Conformer>
1

> <SuperDrugID>
SD002606

$$$$
