acamprosate
  CDK     0628171801

 22 21  0  0  0  0  0  0  0  0999 V2000
   -5.1902   -2.6891   -3.1753 C   0  0  0  0  0  0  0  0  0  0  0  0
   -5.1929   -2.1604   -1.8024 C   0  0  0  0  0  0  0  0  0  0  0  0
   -6.2753   -2.0620   -1.1768 O   0  0  0  0  0  0  0  0  0  0  0  0
   -4.0096   -1.7999   -1.2412 N   0  0  0  0  0  0  0  0  0  0  0  0
   -3.8490   -1.3202    0.0940 C   0  0  2  0  0  0  0  0  0  0  0  0
   -2.3463   -1.1344    0.4167 C   0  0  2  0  0  0  0  0  0  0  0  0
   -2.1104   -0.4766    1.7992 C   0  0  2  0  0  0  0  0  0  0  0  0
   -0.3386   -0.4672    2.2586 S   0  0  2  0  0  0  0  0  0  0  0  0
    0.6009    0.1287    0.9607 O   0  0  0  0  0  0  0  0  0  0  0  0
    0.1458   -1.9567    2.6000 O   0  0  0  0  0  0  0  0  0  0  0  0
   -0.1058    0.4796    3.5295 O   0  0  0  0  0  0  0  0  0  0  0  0
   -4.5435   -3.5661   -3.2255 H   0  0  0  0  0  0  0  0  0  0  0  0
   -6.1935   -2.9799   -3.4925 H   0  0  0  0  0  0  0  0  0  0  0  0
   -4.8137   -1.9295   -3.8614 H   0  0  0  0  0  0  0  0  0  0  0  0
   -3.2123   -1.8806   -1.7885 H   0  0  0  0  0  0  0  0  0  0  0  0
   -4.2759   -2.0458    0.7939 H   0  0  0  0  0  0  0  0  0  0  0  0
   -4.3782   -0.3685    0.2047 H   0  0  0  0  0  0  0  0  0  0  0  0
   -1.8918   -0.5072   -0.3551 H   0  0  0  0  0  0  0  0  0  0  0  0
   -1.8565   -2.1123    0.3919 H   0  0  0  0  0  0  0  0  0  0  0  0
   -2.6568   -1.0187    2.5747 H   0  0  0  0  0  0  0  0  0  0  0  0
   -2.4684    0.5547    1.7791 H   0  0  0  0  0  0  0  0  0  0  0  0
   -0.0482    0.5277    0.3475 H   0  0  0  0  0  0  0  0  0  0  0  0
  1  2  1  0  0  0  0 
  2  3  2  0  0  0  0 
  2  4  1  0  0  0  0 
  4  5  1  0  0  0  0 
  5  6  1  0  0  0  0 
  6  7  1  0  0  0  0 
  7  8  1  0  0  0  0 
  8  9  1  0  0  0  0 
  8 10  2  0  0  0  0 
  8 11  2  0  0  0  0 
  1 12  1  0  0  0  0 
  1 13  1  0  0  0  0 
  1 14  1  0  0  0  0 
  4 15  1  0  0  0  0 
  5 16  1  0  0  0  0 
  5 17  1  0  0  0  0 
  6 18  1  0  0  0  0 
  6 19  1  0  0  0  0 
  7 20  1  0  0  0  0 
  7 21  1  0  0  0  0 
  9 22  1  0  0  0  0 
M  END
> <cdk:Title>
acamprosate

> <Conformer>
1

> <SuperDrugID>
SD000016

$$$$
