amsacrine
  CDK     0628171801

 47 50  0  0  0  0  0  0  0  0999 V2000
   -1.3509    4.0059   -1.8265 N   0  0  0  0  0  0  0  0  0  0  0  0
   -1.3597    3.0225   -2.7719 C   0  0  0  0  0  0  0  0  0  0  0  0
   -2.3334    4.9081   -1.5247 C   0  0  0  0  0  0  0  0  0  0  0  0
   -0.3625    3.0664   -3.7852 C   0  0  0  0  0  0  0  0  0  0  0  0
   -2.2928    1.9475   -2.7403 C   0  0  0  0  0  0  0  0  0  0  0  0
   -2.1603    5.6783   -0.3522 C   0  0  0  0  0  0  0  0  0  0  0  0
   -3.4845    5.1266   -2.3185 C   0  0  0  0  0  0  0  0  0  0  0  0
   -0.3699    2.0590   -4.7905 C   0  0  0  0  0  0  0  0  0  0  0  0
    0.6376    4.0710   -3.8539 C   0  0  0  0  0  0  0  0  0  0  0  0
   -2.2339    0.9757   -3.7796 C   0  0  0  0  0  0  0  0  0  0  0  0
   -3.2630    1.7725   -1.7201 C   0  0  0  0  0  0  0  0  0  0  0  0
   -1.0527    5.5381    0.4420 O   0  0  0  0  0  0  0  0  0  0  0  0
   -3.1133    6.6512    0.0025 C   0  0  0  0  0  0  0  0  0  0  0  0
   -4.4314    6.1057   -1.9591 C   0  0  0  0  0  0  0  0  0  0  0  0
   -1.2931    1.0697   -4.7500 N   0  0  0  0  0  0  0  0  0  0  0  0
    0.5748    2.0754   -5.8361 C   0  0  0  0  0  0  0  0  0  0  0  0
    1.5818    4.0816   -4.8966 C   0  0  0  0  0  0  0  0  0  0  0  0
   -3.1370   -0.1046   -3.8122 C   0  0  0  0  0  0  0  0  0  0  0  0
   -4.1733    0.7005   -1.7636 C   0  0  0  0  0  0  0  0  0  0  0  0
   -1.2003    4.5096    1.4366 C   0  0  0  0  0  0  0  0  0  0  0  0
   -4.2474    6.8911   -0.7979 C   0  0  0  0  0  0  0  0  0  0  0  0
    1.5455    3.0909   -5.8917 C   0  0  0  0  0  0  0  0  0  0  0  0
   -4.1136   -0.2346   -2.8109 C   0  0  0  0  0  0  0  0  0  0  0  0
   -5.0780    7.8780   -0.3668 N   0  0  0  0  0  0  0  0  0  0  0  0
   -6.3396    8.6343   -1.2460 S   0  0  2  0  0  0  0  0  0  0  0  0
   -5.6909    9.3862   -2.7822 C   0  0  0  0  0  0  0  0  0  0  0  0
   -6.9595    9.7932   -0.3263 O   0  0  0  0  0  0  0  0  0  0  0  0
   -7.4920    7.5754   -1.5921 O   0  0  0  0  0  0  0  0  0  0  0  0
   -0.5159    4.1093   -1.3444 H   0  0  0  0  0  0  0  0  0  0  0  0
   -3.6383    4.5815   -3.1709 H   0  0  0  0  0  0  0  0  0  0  0  0
    0.6955    4.8083   -3.1485 H   0  0  0  0  0  0  0  0  0  0  0  0
   -3.3206    2.4139   -0.9285 H   0  0  0  0  0  0  0  0  0  0  0  0
   -2.9622    7.2007    0.8530 H   0  0  0  0  0  0  0  0  0  0  0  0
   -5.2505    6.2367   -2.5530 H   0  0  0  0  0  0  0  0  0  0  0  0
    0.5592    1.3528   -6.5602 H   0  0  0  0  0  0  0  0  0  0  0  0
    2.2966    4.8134   -4.9336 H   0  0  0  0  0  0  0  0  0  0  0  0
   -3.0867   -0.7990   -4.5611 H   0  0  0  0  0  0  0  0  0  0  0  0
   -4.8794    0.5965   -1.0302 H   0  0  0  0  0  0  0  0  0  0  0  0
   -0.2940    4.4934    2.0423 H   0  0  0  0  0  0  0  0  0  0  0  0
   -2.0477    4.7039    2.0995 H   0  0  0  0  0  0  0  0  0  0  0  0
   -1.3191    3.5243    0.9779 H   0  0  0  0  0  0  0  0  0  0  0  0
    2.2291    3.1073   -6.6525 H   0  0  0  0  0  0  0  0  0  0  0  0
   -4.7748   -1.0145   -2.8388 H   0  0  0  0  0  0  0  0  0  0  0  0
   -4.9168    8.2208    0.5267 H   0  0  0  0  0  0  0  0  0  0  0  0
   -6.4486   10.0389   -3.2176 H   0  0  0  0  0  0  0  0  0  0  0  0
   -5.4343    8.6079   -3.4988 H   0  0  0  0  0  0  0  0  0  0  0  0
   -4.8004    9.9723   -2.5505 H   0  0  0  0  0  0  0  0  0  0  0  0
  1  2  1  0  0  0  0 
  1  3  1  0  0  0  0 
  2  4  1  0  0  0  0 
  2  5  2  0  0  0  0 
  3  6  2  0  0  0  0 
  3  7  1  0  0  0  0 
  4  8  1  0  0  0  0 
  4  9  2  0  0  0  0 
  5 10  1  0  0  0  0 
  5 11  1  0  0  0  0 
  6 12  1  0  0  0  0 
  6 13  1  0  0  0  0 
  7 14  2  0  0  0  0 
  8 15  1  0  0  0  0 
  8 16  2  0  0  0  0 
  9 17  1  0  0  0  0 
 10 15  2  0  0  0  0 
 10 18  1  0  0  0  0 
 11 19  2  0  0  0  0 
 12 20  1  0  0  0  0 
 13 21  2  0  0  0  0 
 14 21  1  0  0  0  0 
 16 22  1  0  0  0  0 
 17 22  2  0  0  0  0 
 18 23  2  0  0  0  0 
 19 23  1  0  0  0  0 
 21 24  1  0  0  0  0 
 24 25  1  0  0  0  0 
 25 26  1  0  0  0  0 
 25 27  2  0  0  0  0 
 25 28  2  0  0  0  0 
  1 29  1  0  0  0  0 
  7 30  1  0  0  0  0 
  9 31  1  0  0  0  0 
 11 32  1  0  0  0  0 
 13 33  1  0  0  0  0 
 14 34  1  0  0  0  0 
 16 35  1  0  0  0  0 
 17 36  1  0  0  0  0 
 18 37  1  0  0  0  0 
 19 38  1  0  0  0  0 
 20 39  1  0  0  0  0 
 20 40  1  0  0  0  0 
 20 41  1  0  0  0  0 
 22 42  1  0  0  0  0 
 23 43  1  0  0  0  0 
 24 44  1  0  0  0  0 
 26 45  1  0  0  0  0 
 26 46  1  0  0  0  0 
 26 47  1  0  0  0  0 
M  END
> <cdk:Title>
amsacrine

> <Conformer>
1

> <SuperDrugID>
SD000168

$$$$
