nimesulide
  CDK     0628171801

 33 34  0  0  0  0  0  0  0  0999 V2000
   -4.6492   -2.8385   -4.1385 O   0  0  0  0  0  0  0  0  0  0  0  0
   -3.3635   -3.2470   -3.8787 C   0  0  0  0  0  0  0  0  0  0  0  0
   -4.6960   -1.7085   -4.9156 C   0  0  0  0  0  0  0  0  0  0  0  0
   -2.6780   -2.8365   -2.7108 C   0  0  0  0  0  0  0  0  0  0  0  0
   -2.7340   -4.1212   -4.7904 C   0  0  0  0  0  0  0  0  0  0  0  0
   -4.5881   -1.7810   -6.3232 C   0  0  0  0  0  0  0  0  0  0  0  0
   -4.9061   -0.4527   -4.3070 C   0  0  0  0  0  0  0  0  0  0  0  0
   -3.3058   -1.9865   -1.8552 N   0  0  0  0  0  0  0  0  0  0  0  0
   -1.3788   -3.3363   -2.4746 C   0  0  0  0  0  0  0  0  0  0  0  0
   -1.4118   -4.5916   -4.5934 C   0  0  0  0  0  0  0  0  0  0  0  0
   -4.6536   -0.6123   -7.1038 C   0  0  0  0  0  0  0  0  0  0  0  0
   -4.9663    0.7176   -5.0863 C   0  0  0  0  0  0  0  0  0  0  0  0
   -2.5374   -0.8308   -0.8435 S   0  0  2  0  0  0  0  0  0  0  0  0
   -0.7586   -4.1941   -3.3998 C   0  0  0  0  0  0  0  0  0  0  0  0
   -0.8012   -5.3851   -5.4951 N   0  0  0  0  0  0  0  0  0  0  0  0
   -4.8443    0.6367   -6.4855 C   0  0  0  0  0  0  0  0  0  0  0  0
   -3.6790    0.5710   -0.5712 C   0  0  0  0  0  0  0  0  0  0  0  0
   -1.2009   -0.2871   -1.5437 O   0  0  0  0  0  0  0  0  0  0  0  0
   -2.1746   -1.5017    0.5663 O   0  0  0  0  0  0  0  0  0  0  0  0
    0.3912   -5.8026   -5.3468 O   0  0  0  0  0  0  0  0  0  0  0  0
   -1.3173   -5.7396   -6.4817 O   0  0  0  0  0  0  0  0  0  0  0  0
   -3.2557   -4.4163   -5.6192 H   0  0  0  0  0  0  0  0  0  0  0  0
   -4.4675   -2.6839   -6.7845 H   0  0  0  0  0  0  0  0  0  0  0  0
   -5.0237   -0.3899   -3.2946 H   0  0  0  0  0  0  0  0  0  0  0  0
   -4.2755   -1.9868   -1.8603 H   0  0  0  0  0  0  0  0  0  0  0  0
   -0.8771   -3.0900   -1.6188 H   0  0  0  0  0  0  0  0  0  0  0  0
   -4.5617   -0.6715   -8.1190 H   0  0  0  0  0  0  0  0  0  0  0  0
   -5.0990    1.6244   -4.6349 H   0  0  0  0  0  0  0  0  0  0  0  0
    0.1822   -4.5325   -3.1893 H   0  0  0  0  0  0  0  0  0  0  0  0
   -4.8975    1.4849   -7.0530 H   0  0  0  0  0  0  0  0  0  0  0  0
   -3.9512    1.0115   -1.5292 H   0  0  0  0  0  0  0  0  0  0  0  0
   -3.1941    1.3263    0.0460 H   0  0  0  0  0  0  0  0  0  0  0  0
   -4.5775    0.2145   -0.0687 H   0  0  0  0  0  0  0  0  0  0  0  0
  1  2  1  0  0  0  0 
  1  3  1  0  0  0  0 
  2  4  2  0  0  0  0 
  2  5  1  0  0  0  0 
  3  6  2  0  0  0  0 
  3  7  1  0  0  0  0 
  4  8  1  0  0  0  0 
  4  9  1  0  0  0  0 
  5 10  2  0  0  0  0 
  6 11  1  0  0  0  0 
  7 12  2  0  0  0  0 
  8 13  1  0  0  0  0 
  9 14  2  0  0  0  0 
 10 14  1  0  0  0  0 
 10 15  1  0  0  0  0 
 11 16  2  0  0  0  0 
 12 16  1  0  0  0  0 
 13 17  1  0  0  0  0 
 13 18  2  0  0  0  0 
 13 19  2  0  0  0  0 
 15 20  1  0  0  0  0 
 15 21  2  0  0  0  0 
  5 22  1  0  0  0  0 
  6 23  1  0  0  0  0 
  7 24  1  0  0  0  0 
  8 25  1  0  0  0  0 
  9 26  1  0  0  0  0 
 11 27  1  0  0  0  0 
 12 28  1  0  0  0  0 
 14 29  1  0  0  0  0 
 16 30  1  0  0  0  0 
 17 31  1  0  0  0  0 
 17 32  1  0  0  0  0 
 17 33  1  0  0  0  0 
M  CHG  1  15   1
M  CHG  1  20  -1
M  END
> <cdk:Title>
nimesulide

> <Conformer>
1

> <SuperDrugID>
SD001730

$$$$
