iotroxic acid
  CDK     0628171801

 57 58  0  0  0  0  0  0  0  0999 V2000
    1.4607    5.8423   10.1891 N   0  0  0  0  0  0  0  0  0  0  0  0
    0.5129    6.8174   10.1978 C   0  0  0  0  0  0  0  0  0  0  0  0
    1.8803    5.0843   11.2348 C   0  0  0  0  0  0  0  0  0  0  0  0
    0.1093    7.3722    8.8950 C   0  0  1  0  0  0  0  0  0  0  0  0
   -0.0234    7.2276   11.2548 O   0  0  0  0  0  0  0  0  0  0  0  0
    1.0138    4.2366   11.9733 C   0  0  0  0  0  0  0  0  0  0  0  0
    3.2580    5.1013   11.5333 C   0  0  0  0  0  0  0  0  0  0  0  0
   -0.2631    6.2466    8.0806 O   0  0  0  0  0  0  0  0  0  0  0  0
   -0.9805    4.0914   11.4568 I   0  0  0  0  0  0  0  0  0  0  0  0
    1.5246    3.4577   13.0444 C   0  0  0  0  0  0  0  0  0  0  0  0
    4.5885    6.2215   10.4337 I   0  0  0  0  0  0  0  0  0  0  0  0
    3.7569    4.3382   12.6000 C   0  0  0  0  0  0  0  0  0  0  0  0
   -0.4242    6.4811    6.6705 C   0  0  1  0  0  0  0  0  0  0  0  0
    0.6841    2.5932   13.7677 C   0  0  0  0  0  0  0  0  0  0  0  0
    2.9007    3.5254   13.3612 C   0  0  0  0  0  0  0  0  0  0  0  0
   -0.2737    5.1052    5.9937 C   0  0  1  0  0  0  0  0  0  0  0  0
    0.1259    1.5188   13.1622 O   0  0  0  0  0  0  0  0  0  0  0  0
    0.4476    2.7953   14.9800 O   0  0  0  0  0  0  0  0  0  0  0  0
    3.7502    2.4275   14.8800 I   0  0  0  0  0  0  0  0  0  0  0  0
   -0.3794    5.1852    4.5564 O   0  0  0  0  0  0  0  0  0  0  0  0
    0.0262    3.9631    3.9042 C   0  0  2  0  0  0  0  0  0  0  0  0
   -0.3548    3.9405    2.4114 C   0  0  1  0  0  0  0  0  0  0  0  0
    0.0782    2.6622    1.9134 O   0  0  0  0  0  0  0  0  0  0  0  0
   -0.5469    2.1801    0.7110 C   0  0  1  0  0  0  0  0  0  0  0  0
   -0.1749    0.7599    0.5990 C   0  0  0  0  0  0  0  0  0  0  0  0
   -0.4281   -0.0334    1.6740 N   0  0  0  0  0  0  0  0  0  0  0  0
    0.3700    0.3280   -0.4449 O   0  0  0  0  0  0  0  0  0  0  0  0
   -0.0439   -1.3223    1.8623 C   0  0  0  0  0  0  0  0  0  0  0  0
    1.3156   -1.7299    1.8807 C   0  0  0  0  0  0  0  0  0  0  0  0
   -1.0572   -2.2670    2.1232 C   0  0  0  0  0  0  0  0  0  0  0  0
    2.8186   -0.3337    1.6429 I   0  0  0  0  0  0  0  0  0  0  0  0
    1.6460   -3.0927    2.1010 C   0  0  0  0  0  0  0  0  0  0  0  0
   -3.0401   -1.7260    2.2213 I   0  0  0  0  0  0  0  0  0  0  0  0
   -0.7270   -3.6152    2.3294 C   0  0  0  0  0  0  0  0  0  0  0  0
    2.9887   -3.5071    2.1487 C   0  0  0  0  0  0  0  0  0  0  0  0
    0.6133   -4.0350    2.3115 C   0  0  0  0  0  0  0  0  0  0  0  0
    3.8006   -3.0786    3.1436 O   0  0  0  0  0  0  0  0  0  0  0  0
    3.4508   -4.2837    1.2828 O   0  0  0  0  0  0  0  0  0  0  0  0
    0.9786   -6.0303    2.6576 I   0  0  0  0  0  0  0  0  0  0  0  0
    1.8958    5.6789    9.3386 H   0  0  0  0  0  0  0  0  0  0  0  0
   -0.7313    8.0629    9.0001 H   0  0  0  0  0  0  0  0  0  0  0  0
    0.9628    7.9057    8.4677 H   0  0  0  0  0  0  0  0  0  0  0  0
    4.7550    4.3632   12.8140 H   0  0  0  0  0  0  0  0  0  0  0  0
   -1.4140    6.9009    6.4733 H   0  0  0  0  0  0  0  0  0  0  0  0
    0.3453    7.1501    6.2728 H   0  0  0  0  0  0  0  0  0  0  0  0
    0.7002    4.6941    6.2867 H   0  0  0  0  0  0  0  0  0  0  0  0
   -1.0596    4.4459    6.3718 H   0  0  0  0  0  0  0  0  0  0  0  0
   -0.4497    0.9134   13.6735 H   0  0  0  0  0  0  0  0  0  0  0  0
   -0.4456    3.0957    4.3820 H   0  0  0  0  0  0  0  0  0  0  0  0
    1.1115    3.8600    3.9858 H   0  0  0  0  0  0  0  0  0  0  0  0
   -1.4382    4.0708    2.3272 H   0  0  0  0  0  0  0  0  0  0  0  0
    0.1551    4.7428    1.8718 H   0  0  0  0  0  0  0  0  0  0  0  0
   -1.6363    2.2475    0.7761 H   0  0  0  0  0  0  0  0  0  0  0  0
   -0.2018    2.7511   -0.1548 H   0  0  0  0  0  0  0  0  0  0  0  0
   -0.9556    0.3651    2.3826 H   0  0  0  0  0  0  0  0  0  0  0  0
   -1.4684   -4.2938    2.5095 H   0  0  0  0  0  0  0  0  0  0  0  0
    4.7320   -3.3793    3.1786 H   0  0  0  0  0  0  0  0  0  0  0  0
  1  2  1  0  0  0  0 
  1  3  1  0  0  0  0 
  2  4  1  0  0  0  0 
  2  5  2  0  0  0  0 
  3  6  2  0  0  0  0 
  3  7  1  0  0  0  0 
  4  8  1  0  0  0  0 
  6  9  1  0  0  0  0 
  6 10  1  0  0  0  0 
  7 11  1  0  0  0  0 
  7 12  2  0  0  0  0 
  8 13  1  0  0  0  0 
 10 14  1  0  0  0  0 
 10 15  2  0  0  0  0 
 12 15  1  0  0  0  0 
 13 16  1  0  0  0  0 
 14 17  1  0  0  0  0 
 14 18  2  0  0  0  0 
 15 19  1  0  0  0  0 
 16 20  1  0  0  0  0 
 20 21  1  0  0  0  0 
 21 22  1  0  0  0  0 
 22 23  1  0  0  0  0 
 23 24  1  0  0  0  0 
 24 25  1  0  0  0  0 
 25 26  1  0  0  0  0 
 25 27  2  0  0  0  0 
 26 28  1  0  0  0  0 
 28 29  2  0  0  0  0 
 28 30  1  0  0  0  0 
 29 31  1  0  0  0  0 
 29 32  1  0  0  0  0 
 30 33  1  0  0  0  0 
 30 34  2  0  0  0  0 
 32 35  1  0  0  0  0 
 32 36  2  0  0  0  0 
 34 36  1  0  0  0  0 
 35 37  1  0  0  0  0 
 35 38  2  0  0  0  0 
 36 39  1  0  0  0  0 
  1 40  1  0  0  0  0 
  4 41  1  0  0  0  0 
  4 42  1  0  0  0  0 
 12 43  1  0  0  0  0 
 13 44  1  0  0  0  0 
 13 45  1  0  0  0  0 
 16 46  1  0  0  0  0 
 16 47  1  0  0  0  0 
 17 48  1  0  0  0  0 
 21 49  1  0  0  0  0 
 21 50  1  0  0  0  0 
 22 51  1  0  0  0  0 
 22 52  1  0  0  0  0 
 24 53  1  0  0  0  0 
 24 54  1  0  0  0  0 
 26 55  1  0  0  0  0 
 34 56  1  0  0  0  0 
 37 57  1  0  0  0  0 
M  END
> <cdk:Title>
iotroxic acid

> <Conformer>
1

> <SuperDrugID>
SD003318

$$$$
