idarubicin
  CDK     0628171801

 63 67  0  0  0  0  0  0  0  0999 V2000
   -6.2859   -1.1314    1.5729 O   0  0  0  0  0  0  0  0  0  0  0  0
   -5.8220   -2.4353    1.1188 C   0  0  2  0  0  0  0  0  0  0  0  0
   -6.8504   -0.2461    0.5678 C   0  0  1  0  0  0  0  0  0  0  0  0
   -5.6735   -3.3606    2.2993 C   0  0  0  0  0  0  0  0  0  0  0  0
   -4.5265   -2.2694    0.2682 C   0  0  2  0  0  0  0  0  0  0  0  0
   -7.8020    0.8014    1.2110 C   0  0  1  0  0  0  0  0  0  0  0  0
   -5.8361    0.4020   -0.2380 O   0  0  0  0  0  0  0  0  0  0  0  0
   -4.4804   -4.0998    2.5291 C   0  0  0  0  0  0  0  0  0  0  0  0
   -6.7665   -3.5499    3.1832 C   0  0  0  0  0  0  0  0  0  0  0  0
   -3.7374   -3.5932    0.1214 C   0  0  1  0  0  0  0  0  0  0  0  0
   -7.0357    1.9650    1.8966 C   0  0  2  0  0  0  0  0  0  0  0  0
   -5.0282    1.3834    0.4541 C   0  0  2  0  0  0  0  0  0  0  0  0
   -4.3560   -4.8986    3.6915 C   0  0  0  0  0  0  0  0  0  0  0  0
   -3.3470   -4.0616    1.5543 C   0  0  2  0  0  0  0  0  0  0  0  0
   -7.9421   -2.9363    2.8635 O   0  0  0  0  0  0  0  0  0  0  0  0
   -6.6551   -4.3572    4.3519 C   0  0  0  0  0  0  0  0  0  0  0  0
   -4.4945   -4.6092   -0.6830 C   0  0  0  0  0  0  0  0  0  0  0  0
   -2.5162   -3.3069   -0.5635 O   0  0  0  0  0  0  0  0  0  0  0  0
   -7.9790    3.0199    2.2984 N   0  0  2  0  0  0  0  0  0  0  0  0
   -5.9334    2.5409    0.9655 C   0  0  1  0  0  0  0  0  0  0  0  0
   -3.9061    1.8662   -0.4965 C   0  0  0  0  0  0  0  0  0  0  0  0
   -3.1790   -5.5617    3.8756 O   0  0  0  0  0  0  0  0  0  0  0  0
   -5.4191   -5.0160    4.6256 C   0  0  0  0  0  0  0  0  0  0  0  0
   -7.7484   -4.5226    5.2706 C   0  0  0  0  0  0  0  0  0  0  0  0
   -4.7599   -4.4314   -2.1278 C   0  0  0  0  0  0  0  0  0  0  0  0
   -4.9306   -5.6567   -0.1478 O   0  0  0  0  0  0  0  0  0  0  0  0
   -6.5328    3.2416   -0.1266 O   0  0  0  0  0  0  0  0  0  0  0  0
   -5.2832   -5.7795    5.8371 C   0  0  0  0  0  0  0  0  0  0  0  0
   -8.8452   -3.9479    5.0685 O   0  0  0  0  0  0  0  0  0  0  0  0
   -7.6217   -5.3323    6.4419 C   0  0  0  0  0  0  0  0  0  0  0  0
   -4.1766   -6.2770    6.1580 O   0  0  0  0  0  0  0  0  0  0  0  0
   -6.3831   -5.9670    6.7257 C   0  0  0  0  0  0  0  0  0  0  0  0
   -8.7030   -5.5116    7.3404 C   0  0  0  0  0  0  0  0  0  0  0  0
   -6.2619   -6.7623    7.8952 C   0  0  0  0  0  0  0  0  0  0  0  0
   -8.5796   -6.3170    8.5305 C   0  0  0  0  0  0  0  0  0  0  0  0
   -7.3411   -6.9303    8.7772 C   0  0  0  0  0  0  0  0  0  0  0  0
   -7.4720   -0.8301   -0.1175 H   0  0  0  0  0  0  0  0  0  0  0  0
   -6.5891   -2.8962    0.4859 H   0  0  0  0  0  0  0  0  0  0  0  0
   -3.8839   -1.5246    0.7480 H   0  0  0  0  0  0  0  0  0  0  0  0
   -4.7777   -1.8844   -0.7217 H   0  0  0  0  0  0  0  0  0  0  0  0
   -8.4377    1.2136    0.4211 H   0  0  0  0  0  0  0  0  0  0  0  0
   -8.4499    0.3072    1.9406 H   0  0  0  0  0  0  0  0  0  0  0  0
   -6.5654    1.5889    2.8086 H   0  0  0  0  0  0  0  0  0  0  0  0
   -4.5297    0.9258    1.3159 H   0  0  0  0  0  0  0  0  0  0  0  0
   -2.8894   -5.0501    1.4530 H   0  0  0  0  0  0  0  0  0  0  0  0
   -2.5793   -3.4004    1.9681 H   0  0  0  0  0  0  0  0  0  0  0  0
   -8.6292   -3.6330    2.9343 H   0  0  0  0  0  0  0  0  0  0  0  0
   -2.0492   -4.1663   -0.6237 H   0  0  0  0  0  0  0  0  0  0  0  0
   -7.4384    3.7508    2.7656 H   0  0  0  0  0  0  0  0  0  0  0  0
   -8.5991    2.6137    3.0014 H   0  0  0  0  0  0  0  0  0  0  0  0
   -5.3274    3.2523    1.5320 H   0  0  0  0  0  0  0  0  0  0  0  0
   -4.3202    2.2725   -1.4216 H   0  0  0  0  0  0  0  0  0  0  0  0
   -3.2526    1.0306   -0.7524 H   0  0  0  0  0  0  0  0  0  0  0  0
   -3.3041    2.6355   -0.0094 H   0  0  0  0  0  0  0  0  0  0  0  0
   -3.4334   -6.4865    4.0754 H   0  0  0  0  0  0  0  0  0  0  0  0
   -3.8646   -4.0807   -2.6417 H   0  0  0  0  0  0  0  0  0  0  0  0
   -5.5613   -3.7062   -2.2704 H   0  0  0  0  0  0  0  0  0  0  0  0
   -5.0643   -5.3710   -2.5921 H   0  0  0  0  0  0  0  0  0  0  0  0
   -5.7871    3.6420   -0.6207 H   0  0  0  0  0  0  0  0  0  0  0  0
   -9.6082   -5.0685    7.1692 H   0  0  0  0  0  0  0  0  0  0  0  0
   -5.3783   -7.2275    8.1222 H   0  0  0  0  0  0  0  0  0  0  0  0
   -9.3377   -6.5068    9.2664 H   0  0  0  0  0  0  0  0  0  0  0  0
   -7.2230   -7.5084    9.6148 H   0  0  0  0  0  0  0  0  0  0  0  0
  3  1  1  0  0  0  0 
  2  1  1  0  0  0  0 
  2  4  1  0  0  0  0 
  2  5  1  0  0  0  0 
  3  6  1  0  0  0  0 
  3  7  1  0  0  0  0 
  3 37  1  0  0  0  0 
  4  8  2  0  0  0  0 
  4  9  1  0  0  0  0 
 10  5  1  0  0  0  0 
 11  6  1  0  0  0  0 
 12  7  1  0  0  0  0 
  8 13  1  0  0  0  0 
  8 14  1  0  0  0  0 
  9 15  1  0  0  0  0 
  9 16  2  0  0  0  0 
 10 14  1  0  0  0  0 
 10 17  1  0  0  0  0 
 10 18  1  0  0  0  0 
 11 19  1  0  0  0  0 
 20 11  1  0  0  0  0 
 12 20  1  0  0  0  0 
 12 21  1  0  0  0  0 
 13 22  1  0  0  0  0 
 13 23  2  0  0  0  0 
 16 23  1  0  0  0  0 
 16 24  1  0  0  0  0 
 17 25  1  0  0  0  0 
 17 26  2  0  0  0  0 
 20 27  1  0  0  0  0 
 23 28  1  0  0  0  0 
 24 29  2  0  0  0  0 
 24 30  1  0  0  0  0 
 28 31  2  0  0  0  0 
 28 32  1  0  0  0  0 
 30 32  2  0  0  0  0 
 30 33  1  0  0  0  0 
 32 34  1  0  0  0  0 
 33 35  2  0  0  0  0 
 34 36  2  0  0  0  0 
 35 36  1  0  0  0  0 
  2 38  1  0  0  0  0 
  5 39  1  0  0  0  0 
  5 40  1  0  0  0  0 
  6 41  1  0  0  0  0 
  6 42  1  0  0  0  0 
 11 43  1  0  0  0  0 
 12 44  1  0  0  0  0 
 14 45  1  0  0  0  0 
 14 46  1  0  0  0  0 
 15 47  1  0  0  0  0 
 18 48  1  0  0  0  0 
 19 49  1  0  0  0  0 
 19 50  1  0  0  0  0 
 20 51  1  0  0  0  0 
 21 52  1  0  0  0  0 
 21 53  1  0  0  0  0 
 21 54  1  0  0  0  0 
 22 55  1  0  0  0  0 
 25 56  1  0  0  0  0 
 25 57  1  0  0  0  0 
 25 58  1  0  0  0  0 
 27 59  1  0  0  0  0 
 33 60  1  0  0  0  0 
 34 61  1  0  0  0  0 
 35 62  1  0  0  0  0 
 36 63  1  0  0  0  0 
M  END
> <cdk:Title>
idarubicin

> <Conformer>
1

> <SuperDrugID>
SD001256

$$$$
