gitoformate
  CDK     0628171801

129136  0  0  0  0  0  0  0  0999 V2000
  -19.9242    9.6248    0.9814 O   0  0  0  0  0  0  0  0  0  0  0  0
  -19.4271    8.5986    0.1079 C   0  0  2  0  0  0  0  0  0  0  0  0
  -20.6311    7.9110   -0.6392 C   0  0  1  0  0  0  0  0  0  0  0  0
  -18.5719    7.6374    1.0268 C   0  0  1  0  0  0  0  0  0  0  0  0
  -18.6327    9.3279   -1.0228 C   0  0  2  0  0  0  0  0  0  0  0  0
  -21.8690    7.6319    0.2893 C   0  0  0  0  0  0  0  0  0  0  0  0
  -20.9534    8.9254   -1.8091 C   0  0  2  0  0  0  0  0  0  0  0  0
  -20.1691    6.5281   -1.2543 C   0  0  2  0  0  0  0  0  0  0  0  0
  -18.1208    6.3115    0.3044 C   0  0  2  0  0  0  0  0  0  0  0  0
  -17.3939    8.4038    1.7173 C   0  0  1  0  0  0  0  0  0  0  0  0
  -19.5568    9.4544   -2.2612 C   0  0  1  0  0  0  0  0  0  0  0  0
  -21.9473    9.9845   -1.5354 C   0  0  0  0  0  0  0  0  0  0  0  0
  -19.3880    5.6062   -0.2809 C   0  0  2  0  0  0  0  0  0  0  0  0
  -17.1694    5.3841    1.1864 C   0  0  2  0  0  0  0  0  0  0  0  0
  -16.4674    7.4928    2.5552 C   0  0  2  0  0  0  0  0  0  0  0  0
  -19.5724   10.7729   -2.8360 O   0  0  0  0  0  0  0  0  0  0  0  0
  -21.7632   11.1243   -0.8637 C   0  0  0  0  0  0  0  0  0  0  0  0
  -23.3260    9.9270   -1.9810 C   0  0  2  0  0  0  0  0  0  0  0  0
  -17.9674    4.7196    2.3697 C   0  0  0  0  0  0  0  0  0  0  0  0
  -15.9705    6.2530    1.7517 C   0  0  2  0  0  0  0  0  0  0  0  0
  -16.5267    4.1890    0.3750 C   0  0  1  0  0  0  0  0  0  0  0  0
  -18.5074   11.4045   -3.4037 C   0  0  0  0  0  0  0  0  0  0  0  0
  -22.9224   11.8246   -0.8210 C   0  0  0  0  0  0  0  0  0  0  0  0
  -23.8795   11.1428   -1.4770 O   0  0  0  0  0  0  0  0  0  0  0  0
  -14.9435    6.6788    0.6455 C   0  0  2  0  0  0  0  0  0  0  0  0
  -15.5079    4.6007   -0.7189 C   0  0  2  0  0  0  0  0  0  0  0  0
  -18.6465   12.5693   -3.8349 O   0  0  0  0  0  0  0  0  0  0  0  0
  -23.0869   12.9319   -0.2629 O   0  0  0  0  0  0  0  0  0  0  0  0
  -14.3606    5.4778   -0.1523 C   0  0  2  0  0  0  0  0  0  0  0  0
  -13.4907    4.6527    0.6642 O   0  0  0  0  0  0  0  0  0  0  0  0
  -12.1330    5.1261    0.8247 C   0  0  1  0  0  0  0  0  0  0  0  0
  -11.3907    4.3179    1.9204 C   0  0  1  0  0  0  0  0  0  0  0  0
  -11.4088    5.1592   -0.4276 O   0  0  0  0  0  0  0  0  0  0  0  0
  -10.8698    2.9552    1.3988 C   0  0  2  0  0  0  0  0  0  0  0  0
  -10.9570    3.9007   -0.9752 C   0  0  1  0  0  0  0  0  0  0  0  0
  -10.0184    2.3729    2.4061 O   0  0  0  0  0  0  0  0  0  0  0  0
  -10.0819    3.1372    0.0699 C   0  0  1  0  0  0  0  0  0  0  0  0
  -12.0850    3.0528   -1.6217 C   0  0  0  0  0  0  0  0  0  0  0  0
  -10.2159    1.2252    3.1154 C   0  0  0  0  0  0  0  0  0  0  0  0
   -8.8548    3.8423    0.3959 O   0  0  0  0  0  0  0  0  0  0  0  0
  -11.2150    0.4880    2.9427 O   0  0  0  0  0  0  0  0  0  0  0  0
   -7.8384    4.0780   -0.6117 C   0  0  2  0  0  0  0  0  0  0  0  0
   -7.3969    2.8355   -1.4318 C   0  0  2  0  0  0  0  0  0  0  0  0
   -6.6790    4.6699    0.0199 O   0  0  0  0  0  0  0  0  0  0  0  0
   -6.7246    1.8174   -0.4807 C   0  0  1  0  0  0  0  0  0  0  0  0
   -5.8670    3.8188    0.8719 C   0  0  2  0  0  0  0  0  0  0  0  0
   -6.4793    0.6026   -1.2024 O   0  0  0  0  0  0  0  0  0  0  0  0
   -5.4630    2.4742    0.1742 C   0  0  2  0  0  0  0  0  0  0  0  0
   -6.4760    3.6463    2.2885 C   0  0  0  0  0  0  0  0  0  0  0  0
   -6.1694   -0.6164   -0.6750 C   0  0  0  0  0  0  0  0  0  0  0  0
   -4.4194    2.8178   -0.7786 O   0  0  0  0  0  0  0  0  0  0  0  0
   -6.0778   -0.8125    0.5577 O   0  0  0  0  0  0  0  0  0  0  0  0
   -3.5443    1.7655   -1.2376 C   0  0  1  0  0  0  0  0  0  0  0  0
   -2.5746    2.2868   -2.3355 C   0  0  1  0  0  0  0  0  0  0  0  0
   -2.8635    1.0748   -0.1640 O   0  0  0  0  0  0  0  0  0  0  0  0
   -1.2868    2.9496   -1.7761 C   0  0  2  0  0  0  0  0  0  0  0  0
   -1.7237    1.7275    0.4397 C   0  0  1  0  0  0  0  0  0  0  0  0
   -0.2966    3.1032   -2.8090 O   0  0  0  0  0  0  0  0  0  0  0  0
   -0.6629    2.0798   -0.6490 C   0  0  1  0  0  0  0  0  0  0  0  0
   -2.0992    2.9177    1.3612 C   0  0  0  0  0  0  0  0  0  0  0  0
   -0.3565    3.9046   -3.9095 C   0  0  0  0  0  0  0  0  0  0  0  0
   -0.1451    0.8763   -1.2485 O   0  0  0  0  0  0  0  0  0  0  0  0
   -1.3083    4.6931   -4.1143 O   0  0  0  0  0  0  0  0  0  0  0  0
    0.6799   -0.0539   -0.6910 C   0  0  0  0  0  0  0  0  0  0  0  0
    1.1718    0.0780    0.4533 O   0  0  0  0  0  0  0  0  0  0  0  0
  -19.2381    7.3366    1.8403 H   0  0  0  0  0  0  0  0  0  0  0  0
  -17.5367    6.6113   -0.5634 H   0  0  0  0  0  0  0  0  0  0  0  0
  -15.4047    5.6425    2.4655 H   0  0  0  0  0  0  0  0  0  0  0  0
  -20.4260    9.1608    1.6836 H   0  0  0  0  0  0  0  0  0  0  0  0
  -17.7368    8.7736   -1.3089 H   0  0  0  0  0  0  0  0  0  0  0  0
  -18.3031   10.3148   -0.6885 H   0  0  0  0  0  0  0  0  0  0  0  0
  -22.6837    7.1837   -0.2836 H   0  0  0  0  0  0  0  0  0  0  0  0
  -22.2502    8.5453    0.7478 H   0  0  0  0  0  0  0  0  0  0  0  0
  -21.6141    6.9491    1.0990 H   0  0  0  0  0  0  0  0  0  0  0  0
  -21.3684    8.3599   -2.6519 H   0  0  0  0  0  0  0  0  0  0  0  0
  -19.5162    6.6836   -2.1159 H   0  0  0  0  0  0  0  0  0  0  0  0
  -21.0374    5.9812   -1.6344 H   0  0  0  0  0  0  0  0  0  0  0  0
  -16.7840    8.9196    0.9750 H   0  0  0  0  0  0  0  0  0  0  0  0
  -17.7967    9.1745    2.3817 H   0  0  0  0  0  0  0  0  0  0  0  0
  -19.1792    8.7884   -3.0471 H   0  0  0  0  0  0  0  0  0  0  0  0
  -19.1009    4.7157   -0.8424 H   0  0  0  0  0  0  0  0  0  0  0  0
  -20.0539    5.2835    0.5201 H   0  0  0  0  0  0  0  0  0  0  0  0
  -16.9989    7.1681    3.4529 H   0  0  0  0  0  0  0  0  0  0  0  0
  -15.6113    8.0805    2.9009 H   0  0  0  0  0  0  0  0  0  0  0  0
  -20.9134   11.4351   -0.4619 H   0  0  0  0  0  0  0  0  0  0  0  0
  -23.8567    9.0715   -1.5584 H   0  0  0  0  0  0  0  0  0  0  0  0
  -23.3878    9.9065   -3.0717 H   0  0  0  0  0  0  0  0  0  0  0  0
  -18.5293    5.4487    2.9502 H   0  0  0  0  0  0  0  0  0  0  0  0
  -18.6796    3.9796    1.9997 H   0  0  0  0  0  0  0  0  0  0  0  0
  -17.2934    4.2046    3.0584 H   0  0  0  0  0  0  0  0  0  0  0  0
  -15.9897    3.5296    1.0655 H   0  0  0  0  0  0  0  0  0  0  0  0
  -17.2978    3.5719   -0.0894 H   0  0  0  0  0  0  0  0  0  0  0  0
  -17.5971   10.9453   -3.4855 H   0  0  0  0  0  0  0  0  0  0  0  0
  -14.1298    7.2371    1.1101 H   0  0  0  0  0  0  0  0  0  0  0  0
  -15.4039    7.3597   -0.0720 H   0  0  0  0  0  0  0  0  0  0  0  0
  -16.0208    5.1345   -1.5220 H   0  0  0  0  0  0  0  0  0  0  0  0
  -15.0819    3.6980   -1.1640 H   0  0  0  0  0  0  0  0  0  0  0  0
  -13.8106    5.8678   -1.0166 H   0  0  0  0  0  0  0  0  0  0  0  0
  -12.1536    6.1548    1.1863 H   0  0  0  0  0  0  0  0  0  0  0  0
  -10.5392    4.9077    2.2718 H   0  0  0  0  0  0  0  0  0  0  0  0
  -12.0548    4.1562    2.7745 H   0  0  0  0  0  0  0  0  0  0  0  0
  -11.7314    2.3056    1.2184 H   0  0  0  0  0  0  0  0  0  0  0  0
  -10.3217    4.1708   -1.8184 H   0  0  0  0  0  0  0  0  0  0  0  0
   -9.8481    2.1351   -0.2971 H   0  0  0  0  0  0  0  0  0  0  0  0
  -12.6488    3.6658   -2.3285 H   0  0  0  0  0  0  0  0  0  0  0  0
  -12.7743    2.6580   -0.8775 H   0  0  0  0  0  0  0  0  0  0  0  0
  -11.6555    2.2105   -2.1692 H   0  0  0  0  0  0  0  0  0  0  0  0
   -9.5262    0.9568    3.8172 H   0  0  0  0  0  0  0  0  0  0  0  0
   -8.2072    4.8375   -1.3026 H   0  0  0  0  0  0  0  0  0  0  0  0
   -6.6875    3.1436   -2.2045 H   0  0  0  0  0  0  0  0  0  0  0  0
   -8.2490    2.3842   -1.9426 H   0  0  0  0  0  0  0  0  0  0  0  0
   -7.4436    1.5614    0.3050 H   0  0  0  0  0  0  0  0  0  0  0  0
   -4.9497    4.3922    1.0351 H   0  0  0  0  0  0  0  0  0  0  0  0
   -5.0658    1.7978    0.9362 H   0  0  0  0  0  0  0  0  0  0  0  0
   -7.3316    2.9749    2.2779 H   0  0  0  0  0  0  0  0  0  0  0  0
   -6.7959    4.6159    2.6747 H   0  0  0  0  0  0  0  0  0  0  0  0
   -5.7284    3.2334    2.9675 H   0  0  0  0  0  0  0  0  0  0  0  0
   -6.0144   -1.3997   -1.3093 H   0  0  0  0  0  0  0  0  0  0  0  0
   -4.1513    1.0179   -1.7396 H   0  0  0  0  0  0  0  0  0  0  0  0
   -2.2639    1.4412   -2.9554 H   0  0  0  0  0  0  0  0  0  0  0  0
   -3.1079    2.9879   -2.9858 H   0  0  0  0  0  0  0  0  0  0  0  0
   -1.5299    3.9393   -1.3806 H   0  0  0  0  0  0  0  0  0  0  0  0
   -1.2853    0.9781    1.1052 H   0  0  0  0  0  0  0  0  0  0  0  0
    0.1693    2.6300   -0.1990 H   0  0  0  0  0  0  0  0  0  0  0  0
   -1.2213    3.2549    1.9154 H   0  0  0  0  0  0  0  0  0  0  0  0
   -2.8594    2.6055    2.0783 H   0  0  0  0  0  0  0  0  0  0  0  0
   -2.4854    3.7603    0.7901 H   0  0  0  0  0  0  0  0  0  0  0  0
    0.4088    3.8650   -4.5878 H   0  0  0  0  0  0  0  0  0  0  0  0
    0.9137   -0.8842   -1.2359 H   0  0  0  0  0  0  0  0  0  0  0  0
  2  1  1  0  0  0  0 
  2  3  1  0  0  0  0 
  2  4  1  0  0  0  0 
  2  5  1  0  0  0  0 
  3  6  1  0  0  0  0 
  3  7  1  0  0  0  0 
  3  8  1  0  0  0  0 
  4  9  1  0  0  0  0 
  4 10  1  0  0  0  0 
  5 11  1  0  0  0  0 
  7 11  1  0  0  0  0 
  7 12  1  0  0  0  0 
  8 13  1  0  0  0  0 
  9 13  1  0  0  0  0 
  9 14  1  0  0  0  0 
 10 15  1  0  0  0  0 
 11 16  1  0  0  0  0 
 12 17  2  0  0  0  0 
 12 18  1  0  0  0  0 
 14 19  1  0  0  0  0 
 14 20  1  0  0  0  0 
 14 21  1  0  0  0  0 
 15 20  1  0  0  0  0 
 16 22  1  0  0  0  0 
 17 23  1  0  0  0  0 
 18 24  1  0  0  0  0 
 20 25  1  0  0  0  0 
 21 26  1  0  0  0  0 
 22 27  2  0  0  0  0 
 23 24  1  0  0  0  0 
 23 28  2  0  0  0  0 
 25 29  1  0  0  0  0 
 26 29  1  0  0  0  0 
 29 30  1  0  0  0  0 
 31 30  1  0  0  0  0 
 31 32  1  0  0  0  0 
 31 33  1  0  0  0  0 
 32 34  1  0  0  0  0 
 33 35  1  0  0  0  0 
 34 36  1  0  0  0  0 
 34 37  1  0  0  0  0 
 35 37  1  0  0  0  0 
 35 38  1  0  0  0  0 
 36 39  1  0  0  0  0 
 37 40  1  0  0  0  0 
 39 41  2  0  0  0  0 
 42 40  1  0  0  0  0 
 42 43  1  0  0  0  0 
 42 44  1  0  0  0  0 
 43 45  1  0  0  0  0 
 44 46  1  0  0  0  0 
 45 47  1  0  0  0  0 
 45 48  1  0  0  0  0 
 46 48  1  0  0  0  0 
 46 49  1  0  0  0  0 
 47 50  1  0  0  0  0 
 48 51  1  0  0  0  0 
 50 52  2  0  0  0  0 
 53 51  1  0  0  0  0 
 53 54  1  0  0  0  0 
 53 55  1  0  0  0  0 
 54 56  1  0  0  0  0 
 55 57  1  0  0  0  0 
 56 58  1  0  0  0  0 
 56 59  1  0  0  0  0 
 57 59  1  0  0  0  0 
 57 60  1  0  0  0  0 
 58 61  1  0  0  0  0 
 59 62  1  0  0  0  0 
 61 63  2  0  0  0  0 
 62 64  1  0  0  0  0 
 64 65  2  0  0  0  0 
  4 66  1  0  0  0  0 
  9 67  1  0  0  0  0 
 20 68  1  0  0  0  0 
  1 69  1  0  0  0  0 
  5 70  1  0  0  0  0 
  5 71  1  0  0  0  0 
  6 72  1  0  0  0  0 
  6 73  1  0  0  0  0 
  6 74  1  0  0  0  0 
  7 75  1  0  0  0  0 
  8 76  1  0  0  0  0 
  8 77  1  0  0  0  0 
 10 78  1  0  0  0  0 
 10 79  1  0  0  0  0 
 11 80  1  0  0  0  0 
 13 81  1  0  0  0  0 
 13 82  1  0  0  0  0 
 15 83  1  0  0  0  0 
 15 84  1  0  0  0  0 
 17 85  1  0  0  0  0 
 18 86  1  0  0  0  0 
 18 87  1  0  0  0  0 
 19 88  1  0  0  0  0 
 19 89  1  0  0  0  0 
 19 90  1  0  0  0  0 
 21 91  1  0  0  0  0 
 21 92  1  0  0  0  0 
 22 93  1  0  0  0  0 
 25 94  1  0  0  0  0 
 25 95  1  0  0  0  0 
 26 96  1  0  0  0  0 
 26 97  1  0  0  0  0 
 29 98  1  0  0  0  0 
 31 99  1  0  0  0  0 
 32100  1  0  0  0  0 
 32101  1  0  0  0  0 
 34102  1  0  0  0  0 
 35103  1  0  0  0  0 
 37104  1  0  0  0  0 
 38105  1  0  0  0  0 
 38106  1  0  0  0  0 
 38107  1  0  0  0  0 
 39108  1  0  0  0  0 
 42109  1  0  0  0  0 
 43110  1  0  0  0  0 
 43111  1  0  0  0  0 
 45112  1  0  0  0  0 
 46113  1  0  0  0  0 
 48114  1  0  0  0  0 
 49115  1  0  0  0  0 
 49116  1  0  0  0  0 
 49117  1  0  0  0  0 
 50118  1  0  0  0  0 
 53119  1  0  0  0  0 
 54120  1  0  0  0  0 
 54121  1  0  0  0  0 
 56122  1  0  0  0  0 
 57123  1  0  0  0  0 
 59124  1  0  0  0  0 
 60125  1  0  0  0  0 
 60126  1  0  0  0  0 
 60127  1  0  0  0  0 
 61128  1  0  0  0  0 
 64129  1  0  0  0  0 
M  END
> <cdk:Title>
gitoformate

> <Conformer>
1

> <SuperDrugID>
SD001152

$$$$
