epitizide
  CDK     0628171801

 35 36  0  0  0  0  0  0  0  0999 V2000
   -3.5015    3.2324    2.2898 O   0  0  0  0  0  0  0  0  0  0  0  0
   -2.7722    2.4144    3.4589 S   0  0  2  0  0  0  0  0  0  0  0  0
   -1.6207    3.3013    4.1369 O   0  0  0  0  0  0  0  0  0  0  0  0
   -2.1209    0.8780    2.8928 C   0  0  0  0  0  0  0  0  0  0  0  0
   -3.9530    1.9719    4.6839 N   0  0  2  0  0  0  0  0  0  0  0  0
   -2.1596   -0.2129    3.7878 C   0  0  0  0  0  0  0  0  0  0  0  0
   -1.5915    0.7327    1.5974 C   0  0  0  0  0  0  0  0  0  0  0  0
   -3.3721    0.9970    5.6395 C   0  0  2  0  0  0  0  0  0  0  0  0
   -2.7013   -0.1321    5.0447 N   0  0  0  0  0  0  0  0  0  0  0  0
   -1.6129   -1.4433    3.3699 C   0  0  0  0  0  0  0  0  0  0  0  0
   -1.0731   -0.5093    1.1703 C   0  0  0  0  0  0  0  0  0  0  0  0
   -4.5112    0.4784    6.5543 C   0  0  1  0  0  0  0  0  0  0  0  0
   -1.0637   -1.5981    2.0788 C   0  0  0  0  0  0  0  0  0  0  0  0
   -0.4825   -0.6641   -0.4980 S   0  0  1  0  0  0  0  0  0  0  0  0
   -5.3301    1.8368    7.4602 S   0  0  0  0  0  0  0  0  0  0  0  0
   -0.4131   -3.1154    1.6820 Cl  0  0  0  0  0  0  0  0  0  0  0  0
    1.2322   -1.0485   -0.4963 N   0  0  2  0  0  0  0  0  0  0  0  0
   -1.2575   -1.8521   -1.2485 O   0  0  0  0  0  0  0  0  0  0  0  0
   -0.6866    0.6871   -1.3391 O   0  0  0  0  0  0  0  0  0  0  0  0
   -6.6995    1.0105    8.3365 C   0  0  2  0  0  0  0  0  0  0  0  0
   -7.6033    2.0088    9.0965 C   0  0  2  0  0  0  0  0  0  0  0  0
   -8.1931    2.8960    8.2283 F   0  0  0  0  0  0  0  0  0  0  0  0
   -6.8847    2.7135   10.0314 F   0  0  0  0  0  0  0  0  0  0  0  0
   -8.6010    1.3287    9.7500 F   0  0  0  0  0  0  0  0  0  0  0  0
   -4.7117    1.4898    4.1950 H   0  0  0  0  0  0  0  0  0  0  0  0
   -1.5907    1.5374    0.9656 H   0  0  0  0  0  0  0  0  0  0  0  0
   -2.6418    1.5152    6.2671 H   0  0  0  0  0  0  0  0  0  0  0  0
   -2.6127   -0.9198    5.6043 H   0  0  0  0  0  0  0  0  0  0  0  0
   -1.6159   -2.2390    4.0152 H   0  0  0  0  0  0  0  0  0  0  0  0
   -5.2591   -0.0440    5.9502 H   0  0  0  0  0  0  0  0  0  0  0  0
   -4.1079   -0.2248    7.2873 H   0  0  0  0  0  0  0  0  0  0  0  0
    1.5176   -1.1430   -1.4737 H   0  0  0  0  0  0  0  0  0  0  0  0
    1.3279   -1.9739   -0.0738 H   0  0  0  0  0  0  0  0  0  0  0  0
   -6.2740    0.2910    9.0391 H   0  0  0  0  0  0  0  0  0  0  0  0
   -7.3005    0.4672    7.6037 H   0  0  0  0  0  0  0  0  0  0  0  0
  1  2  2  0  0  0  0 
  2  3  2  0  0  0  0 
  2  4  1  0  0  0  0 
  2  5  1  0  0  0  0 
  4  6  2  0  0  0  0 
  4  7  1  0  0  0  0 
  8  5  1  0  0  0  0 
  6  9  1  0  0  0  0 
  6 10  1  0  0  0  0 
  7 11  2  0  0  0  0 
  8  9  1  0  0  0  0 
  8 12  1  0  0  0  0 
 10 13  2  0  0  0  0 
 11 13  1  0  0  0  0 
 11 14  1  0  0  0  0 
 12 15  1  0  0  0  0 
 13 16  1  0  0  0  0 
 14 17  1  0  0  0  0 
 14 18  2  0  0  0  0 
 14 19  2  0  0  0  0 
 15 20  1  0  0  0  0 
 20 21  1  0  0  0  0 
 21 22  1  0  0  0  0 
 21 23  1  0  0  0  0 
 21 24  1  0  0  0  0 
  5 25  1  0  0  0  0 
  7 26  1  0  0  0  0 
  8 27  1  0  0  0  0 
  9 28  1  0  0  0  0 
 10 29  1  0  0  0  0 
 12 30  1  0  0  0  0 
 12 31  1  0  0  0  0 
 17 32  1  0  0  0  0 
 17 33  1  0  0  0  0 
 20 34  1  0  0  0  0 
 20 35  1  0  0  0  0 
M  END
> <cdk:Title>
epitizide

> <Conformer>
1

> <SuperDrugID>
SD000918

$$$$
