valdetamide
  CDK     0628171801

 28 27  0  0  0  0  0  0  0  0999 V2000
   -2.3958   -3.7532   -0.2187 C   0  0  0  0  0  0  0  0  0  0  0  0
   -3.0795   -2.5302    0.4496 C   0  0  1  0  0  0  0  0  0  0  0  0
   -2.5103   -1.0994    0.0747 C   0  0  1  0  0  0  0  0  0  0  0  0
   -3.2652    0.0137    0.9022 C   0  0  2  0  0  0  0  0  0  0  0  0
   -4.7960    0.1426    0.6979 C   0  0  0  0  0  0  0  0  0  0  0  0
   -0.9621   -1.0029    0.3953 C   0  0  2  0  0  0  0  0  0  0  0  0
   -0.5207   -1.3012    1.7545 C   0  0  0  0  0  0  0  0  0  0  0  0
    0.7703   -1.3012    2.1081 C   0  0  0  0  0  0  0  0  0  0  0  0
   -2.7131   -0.8104   -1.3932 C   0  0  0  0  0  0  0  0  0  0  0  0
   -2.0296    0.1435   -2.0600 N   0  0  0  0  0  0  0  0  0  0  0  0
   -3.5475   -1.4318   -2.0910 O   0  0  0  0  0  0  0  0  0  0  0  0
   -2.4341   -3.6815   -1.3060 H   0  0  0  0  0  0  0  0  0  0  0  0
   -1.3544   -3.8370    0.0922 H   0  0  0  0  0  0  0  0  0  0  0  0
   -2.9149   -4.6667    0.0784 H   0  0  0  0  0  0  0  0  0  0  0  0
   -4.1385   -2.5867    0.1867 H   0  0  0  0  0  0  0  0  0  0  0  0
   -3.0315   -2.6763    1.5308 H   0  0  0  0  0  0  0  0  0  0  0  0
   -2.8289    0.9919    0.6827 H   0  0  0  0  0  0  0  0  0  0  0  0
   -3.1131   -0.1568    1.9694 H   0  0  0  0  0  0  0  0  0  0  0  0
   -5.1706    0.9992    1.2605 H   0  0  0  0  0  0  0  0  0  0  0  0
   -5.3128   -0.7469    1.0574 H   0  0  0  0  0  0  0  0  0  0  0  0
   -5.0406    0.2939   -0.3526 H   0  0  0  0  0  0  0  0  0  0  0  0
   -0.6201    0.0151    0.1839 H   0  0  0  0  0  0  0  0  0  0  0  0
   -0.4197   -1.6585   -0.2915 H   0  0  0  0  0  0  0  0  0  0  0  0
   -1.1877   -1.4977    2.4626 H   0  0  0  0  0  0  0  0  0  0  0  0
    1.4843   -1.1061    1.4468 H   0  0  0  0  0  0  0  0  0  0  0  0
    1.0307   -1.4993    3.0446 H   0  0  0  0  0  0  0  0  0  0  0  0
   -1.3664    0.6868   -1.6054 H   0  0  0  0  0  0  0  0  0  0  0  0
   -2.1958    0.2812   -3.0076 H   0  0  0  0  0  0  0  0  0  0  0  0
  1  2  1  0  0  0  0 
  2  3  1  0  0  0  0 
  3  4  1  0  0  0  0 
  4  5  1  0  0  0  0 
  3  6  1  0  0  0  0 
  6  7  1  0  0  0  0 
  7  8  2  0  0  0  0 
  3  9  1  0  0  0  0 
  9 10  1  0  0  0  0 
  9 11  2  0  0  0  0 
  1 12  1  0  0  0  0 
  1 13  1  0  0  0  0 
  1 14  1  0  0  0  0 
  2 15  1  0  0  0  0 
  2 16  1  0  0  0  0 
  4 17  1  0  0  0  0 
  4 18  1  0  0  0  0 
  5 19  1  0  0  0  0 
  5 20  1  0  0  0  0 
  5 21  1  0  0  0  0 
  6 22  1  0  0  0  0 
  6 23  1  0  0  0  0 
  7 24  1  0  0  0  0 
  8 25  1  0  0  0  0 
  8 26  1  0  0  0  0 
 10 27  1  0  0  0  0 
 10 28  1  0  0  0  0 
M  END
> <cdk:Title>
valdetamide

> <Conformer>
1

> <SuperDrugID>
SD003120

$$$$
