exemestane
  CDK     0628171801

 46 49  0  0  0  0  0  0  0  0999 V2000
    2.4283    1.9795   -0.7471 C   0  0  0  0  0  0  0  0  0  0  0  0
    2.2571    0.8228   -1.7944 C   0  0  1  0  0  0  0  0  0  0  0  0
    3.4207   -0.2576   -1.7236 C   0  0  2  0  0  0  0  0  0  0  0  0
    0.9829    0.0900   -1.5023 C   0  0  0  0  0  0  0  0  0  0  0  0
    2.2371    1.4701   -3.1294 C   0  0  0  0  0  0  0  0  0  0  0  0
    3.3535   -1.0948   -0.3790 C   0  0  2  0  0  0  0  0  0  0  0  0
    4.8795    0.2537   -2.0225 C   0  0  1  0  0  0  0  0  0  0  0  0
    0.9097   -0.6195   -0.3302 C   0  0  0  0  0  0  0  0  0  0  0  0
   -0.0349    0.0439   -2.3925 C   0  0  0  0  0  0  0  0  0  0  0  0
    1.1920    1.3917   -3.9696 C   0  0  0  0  0  0  0  0  0  0  0  0
    4.4496   -2.2026   -0.4255 C   0  0  1  0  0  0  0  0  0  0  0  0
    1.9161   -1.6711   -0.1614 C   0  0  2  0  0  0  0  0  0  0  0  0
    5.9642   -0.8660   -1.9244 C   0  0  1  0  0  0  0  0  0  0  0  0
   -0.0004   -0.3235    0.6163 C   0  0  0  0  0  0  0  0  0  0  0  0
    0.0560    0.6822   -3.6199 C   0  0  0  0  0  0  0  0  0  0  0  0
    5.8902   -1.6092   -0.5490 C   0  0  1  0  0  0  0  0  0  0  0  0
    4.5730   -3.2497    0.7031 C   0  0  2  0  0  0  0  0  0  0  0  0
   -0.9008    0.6154   -4.4270 O   0  0  0  0  0  0  0  0  0  0  0  0
    6.3787   -0.6758    0.6205 C   0  0  0  0  0  0  0  0  0  0  0  0
    6.6484   -2.8709   -0.4182 C   0  0  0  0  0  0  0  0  0  0  0  0
    5.9608   -3.8779    0.4099 C   0  0  1  0  0  0  0  0  0  0  0  0
    7.7772   -3.0624   -0.9252 O   0  0  0  0  0  0  0  0  0  0  0  0
    3.5640   -0.4451    0.4716 H   0  0  0  0  0  0  0  0  0  0  0  0
    3.2097   -0.9682   -2.5352 H   0  0  0  0  0  0  0  0  0  0  0  0
    4.2177   -2.7931   -1.3273 H   0  0  0  0  0  0  0  0  0  0  0  0
    3.3452    2.5448   -0.9205 H   0  0  0  0  0  0  0  0  0  0  0  0
    2.4675    1.6038    0.2758 H   0  0  0  0  0  0  0  0  0  0  0  0
    1.5900    2.6781   -0.8031 H   0  0  0  0  0  0  0  0  0  0  0  0
    3.0246    2.0001   -3.4257 H   0  0  0  0  0  0  0  0  0  0  0  0
    4.9323    0.6678   -3.0313 H   0  0  0  0  0  0  0  0  0  0  0  0
    5.1393    1.0614   -1.3394 H   0  0  0  0  0  0  0  0  0  0  0  0
   -0.8628   -0.4708   -2.1856 H   0  0  0  0  0  0  0  0  0  0  0  0
    1.2365    1.8500   -4.8522 H   0  0  0  0  0  0  0  0  0  0  0  0
    1.8577   -2.1337    0.8298 H   0  0  0  0  0  0  0  0  0  0  0  0
    1.7208   -2.4601   -0.8964 H   0  0  0  0  0  0  0  0  0  0  0  0
    5.8067   -1.5771   -2.7421 H   0  0  0  0  0  0  0  0  0  0  0  0
    6.9566   -0.4283   -2.0686 H   0  0  0  0  0  0  0  0  0  0  0  0
   -0.6578    0.4108    0.4852 H   0  0  0  0  0  0  0  0  0  0  0  0
   -0.0326   -0.8251    1.4722 H   0  0  0  0  0  0  0  0  0  0  0  0
    3.7771   -3.9983    0.6518 H   0  0  0  0  0  0  0  0  0  0  0  0
    4.5449   -2.7706    1.6860 H   0  0  0  0  0  0  0  0  0  0  0  0
    5.7648    0.2170    0.7219 H   0  0  0  0  0  0  0  0  0  0  0  0
    6.3672   -1.1828    1.5873 H   0  0  0  0  0  0  0  0  0  0  0  0
    7.4038   -0.3477    0.4357 H   0  0  0  0  0  0  0  0  0  0  0  0
    6.5174   -4.0662    1.3305 H   0  0  0  0  0  0  0  0  0  0  0  0
    5.8511   -4.8078   -0.1529 H   0  0  0  0  0  0  0  0  0  0  0  0
  2  1  1  0  0  0  0 
  3  2  1  0  0  0  0 
  2  4  1  0  0  0  0 
  2  5  1  0  0  0  0 
  6  3  1  0  0  0  0 
  3  7  1  0  0  0  0 
  3 24  1  0  0  0  0 
  4  8  1  0  0  0  0 
  4  9  2  0  0  0  0 
  5 10  2  0  0  0  0 
 11  6  1  0  0  0  0 
  6 12  1  0  0  0  0 
  6 23  1  0  0  0  0 
  7 13  1  0  0  0  0 
  8 12  1  0  0  0  0 
  8 14  2  0  0  0  0 
  9 15  1  0  0  0  0 
 10 15  1  0  0  0  0 
 11 16  1  0  0  0  0 
 11 17  1  0  0  0  0 
 11 25  1  0  0  0  0 
 16 13  1  0  0  0  0 
 15 18  2  0  0  0  0 
 16 19  1  0  0  0  0 
 16 20  1  0  0  0  0 
 17 21  1  0  0  0  0 
 20 21  1  0  0  0  0 
 20 22  2  0  0  0  0 
  1 26  1  0  0  0  0 
  1 27  1  0  0  0  0 
  1 28  1  0  0  0  0 
  5 29  1  0  0  0  0 
  7 30  1  0  0  0  0 
  7 31  1  0  0  0  0 
  9 32  1  0  0  0  0 
 10 33  1  0  0  0  0 
 12 34  1  0  0  0  0 
 12 35  1  0  0  0  0 
 13 36  1  0  0  0  0 
 13 37  1  0  0  0  0 
 14 38  1  0  0  0  0 
 14 39  1  0  0  0  0 
 17 40  1  0  0  0  0 
 17 41  1  0  0  0  0 
 19 42  1  0  0  0  0 
 19 43  1  0  0  0  0 
 19 44  1  0  0  0  0 
 21 45  1  0  0  0  0 
 21 46  1  0  0  0  0 
M  END
> <cdk:Title>
exemestane

> <Conformer>
1

> <SuperDrugID>
SD001002

$$$$
