lercanidipine
  CDK     0628171801

 86 89  0  0  0  0  0  0  0  0999 V2000
   -2.0754    0.5778    3.3293 C   0  0  1  0  0  0  0  0  0  0  0  0
   -3.0163    0.9940    4.4041 C   0  0  0  0  0  0  0  0  0  0  0  0
   -4.2329    1.4780    4.0451 C   0  0  0  0  0  0  0  0  0  0  0  0
   -4.5635    1.5461    2.7515 N   0  0  0  0  0  0  0  0  0  0  0  0
   -3.8266    1.1261    1.7154 C   0  0  0  0  0  0  0  0  0  0  0  0
   -2.5780    0.6288    1.9270 C   0  0  0  0  0  0  0  0  0  0  0  0
   -0.7940    1.3629    3.4601 C   0  0  0  0  0  0  0  0  0  0  0  0
   -4.4883    1.2469    0.4173 C   0  0  0  0  0  0  0  0  0  0  0  0
   -5.2754    1.9190    4.9683 C   0  0  0  0  0  0  0  0  0  0  0  0
   -2.6171    0.8478    5.7455 C   0  0  0  0  0  0  0  0  0  0  0  0
   -1.8278   -0.0722    6.0689 O   0  0  0  0  0  0  0  0  0  0  0  0
   -3.0555    1.7020    6.7215 O   0  0  0  0  0  0  0  0  0  0  0  0
   -2.7631    1.6461    8.1208 C   0  0  0  0  0  0  0  0  0  0  0  0
    1.7457    2.7372    3.6521 C   0  0  0  0  0  0  0  0  0  0  0  0
    0.4943    3.4207    3.2642 C   0  0  0  0  0  0  0  0  0  0  0  0
   -0.7772    2.7464    3.1696 C   0  0  0  0  0  0  0  0  0  0  0  0
    0.4039    0.7120    3.8731 C   0  0  0  0  0  0  0  0  0  0  0  0
    1.6876    1.3263    3.9759 C   0  0  0  0  0  0  0  0  0  0  0  0
    2.7578    0.5234    4.3712 N   0  0  0  0  0  0  0  0  0  0  0  0
    3.8350    0.9689    4.4281 O   0  0  0  0  0  0  0  0  0  0  0  0
    2.6592   -0.7046    4.6900 O   0  0  0  0  0  0  0  0  0  0  0  0
   -1.7356    0.1605    0.8938 C   0  0  0  0  0  0  0  0  0  0  0  0
   -1.9034    0.4940   -0.3019 O   0  0  0  0  0  0  0  0  0  0  0  0
   -0.6657   -0.6554    1.1782 O   0  0  0  0  0  0  0  0  0  0  0  0
    0.3783   -1.1961    0.3296 C   0  0  1  0  0  0  0  0  0  0  0  0
   -0.2191   -2.1207   -0.7762 C   0  0  0  0  0  0  0  0  0  0  0  0
    1.1612   -0.0100   -0.3252 C   0  0  0  0  0  0  0  0  0  0  0  0
    1.3564   -1.9960    1.2658 C   0  0  1  0  0  0  0  0  0  0  0  0
    0.9921   -3.4243    1.5827 N   0  0  2  0  0  0  0  0  0  0  0  0
   -0.1653   -3.5377    2.5202 C   0  0  0  0  0  0  0  0  0  0  0  0
    2.1648   -4.2503    2.0387 C   0  0  2  0  0  0  0  0  0  0  0  0
    3.1037   -4.7043    0.8770 C   0  0  1  0  0  0  0  0  0  0  0  0
    4.4566   -5.3383    1.3514 C   0  0  1  0  0  0  0  0  0  0  0  0
    5.3573   -5.7599    0.2240 C   0  0  0  0  0  0  0  0  0  0  0  0
    5.2485   -4.5002    2.3169 C   0  0  0  0  0  0  0  0  0  0  0  0
    7.1981   -6.5497   -1.8002 C   0  0  0  0  0  0  0  0  0  0  0  0
    6.7185   -5.2305   -1.7590 C   0  0  0  0  0  0  0  0  0  0  0  0
    5.8039   -4.8433   -0.7635 C   0  0  0  0  0  0  0  0  0  0  0  0
    5.8353   -7.0933    0.1443 C   0  0  0  0  0  0  0  0  0  0  0  0
    6.7475   -7.4843   -0.8534 C   0  0  0  0  0  0  0  0  0  0  0  0
    5.7579   -5.0732    3.5107 C   0  0  0  0  0  0  0  0  0  0  0  0
    5.5205   -3.1281    2.0772 C   0  0  0  0  0  0  0  0  0  0  0  0
    6.2572   -2.3599    2.9960 C   0  0  0  0  0  0  0  0  0  0  0  0
    6.7379   -2.9468    4.1785 C   0  0  0  0  0  0  0  0  0  0  0  0
    6.4906   -4.3059    4.4349 C   0  0  0  0  0  0  0  0  0  0  0  0
   -1.8924   -0.4869    3.5107 H   0  0  0  0  0  0  0  0  0  0  0  0
   -5.4332    1.9233    2.5445 H   0  0  0  0  0  0  0  0  0  0  0  0
   -4.5075    0.2792   -0.0871 H   0  0  0  0  0  0  0  0  0  0  0  0
   -5.5238    1.5882    0.5018 H   0  0  0  0  0  0  0  0  0  0  0  0
   -3.9610    1.9714   -0.2051 H   0  0  0  0  0  0  0  0  0  0  0  0
   -4.9586    2.8315    5.4751 H   0  0  0  0  0  0  0  0  0  0  0  0
   -5.4792    1.1408    5.7065 H   0  0  0  0  0  0  0  0  0  0  0  0
   -6.2199    2.1397    4.4648 H   0  0  0  0  0  0  0  0  0  0  0  0
   -3.0576    0.6790    8.5340 H   0  0  0  0  0  0  0  0  0  0  0  0
   -3.3242    2.4322    8.6251 H   0  0  0  0  0  0  0  0  0  0  0  0
   -1.6986    1.8075    8.2903 H   0  0  0  0  0  0  0  0  0  0  0  0
    2.6243    3.2528    3.6948 H   0  0  0  0  0  0  0  0  0  0  0  0
    0.4171    4.4600    3.0209 H   0  0  0  0  0  0  0  0  0  0  0  0
   -1.6216    3.2546    2.8957 H   0  0  0  0  0  0  0  0  0  0  0  0
    0.3265   -0.2804    4.1108 H   0  0  0  0  0  0  0  0  0  0  0  0
    0.5736   -2.6628   -1.2929 H   0  0  0  0  0  0  0  0  0  0  0  0
   -0.9051   -2.8486   -0.3426 H   0  0  0  0  0  0  0  0  0  0  0  0
   -0.7735   -1.5457   -1.5180 H   0  0  0  0  0  0  0  0  0  0  0  0
    2.0070   -0.3793   -0.9092 H   0  0  0  0  0  0  0  0  0  0  0  0
    1.5406    0.6625    0.4470 H   0  0  0  0  0  0  0  0  0  0  0  0
    0.5298    0.5673   -1.0003 H   0  0  0  0  0  0  0  0  0  0  0  0
    2.3343   -1.9865    0.7860 H   0  0  0  0  0  0  0  0  0  0  0  0
    1.4961   -1.4479    2.1998 H   0  0  0  0  0  0  0  0  0  0  0  0
   -0.4525   -4.5850    2.6423 H   0  0  0  0  0  0  0  0  0  0  0  0
   -1.0404   -3.0137    2.1364 H   0  0  0  0  0  0  0  0  0  0  0  0
    0.0935   -3.1296    3.5000 H   0  0  0  0  0  0  0  0  0  0  0  0
    1.8289   -5.1663    2.5344 H   0  0  0  0  0  0  0  0  0  0  0  0
    2.7231   -3.6765    2.7827 H   0  0  0  0  0  0  0  0  0  0  0  0
    2.5614   -5.4457    0.2821 H   0  0  0  0  0  0  0  0  0  0  0  0
    3.3093   -3.8690    0.2112 H   0  0  0  0  0  0  0  0  0  0  0  0
    4.1425   -6.2430    1.8847 H   0  0  0  0  0  0  0  0  0  0  0  0
    7.8729   -6.8282   -2.5161 H   0  0  0  0  0  0  0  0  0  0  0  0
    7.0387   -4.5508   -2.4525 H   0  0  0  0  0  0  0  0  0  0  0  0
    5.4755   -3.8776   -0.7663 H   0  0  0  0  0  0  0  0  0  0  0  0
    5.5340   -7.7946    0.8249 H   0  0  0  0  0  0  0  0  0  0  0  0
    7.0884   -8.4476   -0.8861 H   0  0  0  0  0  0  0  0  0  0  0  0
    5.6026   -6.0624    3.7202 H   0  0  0  0  0  0  0  0  0  0  0  0
    5.1801   -2.6667    1.2332 H   0  0  0  0  0  0  0  0  0  0  0  0
    6.4420   -1.3723    2.8043 H   0  0  0  0  0  0  0  0  0  0  0  0
    7.2659   -2.3859    4.8509 H   0  0  0  0  0  0  0  0  0  0  0  0
    6.8433   -4.7370    5.2933 H   0  0  0  0  0  0  0  0  0  0  0  0
  1  2  1  0  0  0  0 
  1  6  1  0  0  0  0 
  2  3  2  0  0  0  0 
  3  4  1  0  0  0  0 
  4  5  1  0  0  0  0 
  5  6  2  0  0  0  0 
  1  7  1  0  0  0  0 
  5  8  1  0  0  0  0 
  3  9  1  0  0  0  0 
  2 10  1  0  0  0  0 
 10 11  2  0  0  0  0 
 10 12  1  0  0  0  0 
 12 13  1  0  0  0  0 
 16  7  2  0  0  0  0 
  7 17  1  0  0  0  0 
 14 15  2  0  0  0  0 
 14 18  1  0  0  0  0 
 15 16  1  0  0  0  0 
 17 18  2  0  0  0  0 
 18 19  1  0  0  0  0 
 19 20  2  0  0  0  0 
 19 21  1  0  0  0  0 
  6 22  1  0  0  0  0 
 22 23  2  0  0  0  0 
 22 24  1  0  0  0  0 
 24 25  1  0  0  0  0 
 25 26  1  0  0  0  0 
 25 27  1  0  0  0  0 
 25 28  1  0  0  0  0 
 28 29  1  0  0  0  0 
 29 30  1  0  0  0  0 
 29 31  1  0  0  0  0 
 31 32  1  0  0  0  0 
 32 33  1  0  0  0  0 
 33 34  1  0  0  0  0 
 33 35  1  0  0  0  0 
 38 34  2  0  0  0  0 
 34 39  1  0  0  0  0 
 36 37  2  0  0  0  0 
 36 40  1  0  0  0  0 
 37 38  1  0  0  0  0 
 39 40  2  0  0  0  0 
 41 35  2  0  0  0  0 
 35 42  1  0  0  0  0 
 41 45  1  0  0  0  0 
 42 43  2  0  0  0  0 
 43 44  1  0  0  0  0 
 44 45  2  0  0  0  0 
 46  1  1  0  0  0  0 
 47  4  1  0  0  0  0 
 48  8  1  0  0  0  0 
 49  8  1  0  0  0  0 
 50  8  1  0  0  0  0 
 51  9  1  0  0  0  0 
 52  9  1  0  0  0  0 
 53  9  1  0  0  0  0 
 54 13  1  0  0  0  0 
 55 13  1  0  0  0  0 
 56 13  1  0  0  0  0 
 57 14  1  0  0  0  0 
 58 15  1  0  0  0  0 
 59 16  1  0  0  0  0 
 60 17  1  0  0  0  0 
 61 26  1  0  0  0  0 
 62 26  1  0  0  0  0 
 63 26  1  0  0  0  0 
 64 27  1  0  0  0  0 
 65 27  1  0  0  0  0 
 66 27  1  0  0  0  0 
 67 28  1  0  0  0  0 
 68 28  1  0  0  0  0 
 69 30  1  0  0  0  0 
 70 30  1  0  0  0  0 
 71 30  1  0  0  0  0 
 72 31  1  0  0  0  0 
 73 31  1  0  0  0  0 
 74 32  1  0  0  0  0 
 75 32  1  0  0  0  0 
 76 33  1  0  0  0  0 
 77 36  1  0  0  0  0 
 78 37  1  0  0  0  0 
 79 38  1  0  0  0  0 
 80 39  1  0  0  0  0 
 81 40  1  0  0  0  0 
 82 41  1  0  0  0  0 
 83 42  1  0  0  0  0 
 84 43  1  0  0  0  0 
 85 44  1  0  0  0  0 
 86 45  1  0  0  0  0 
M  CHG  1  19   1
M  CHG  1  21  -1
M  END
> <cdk:Title>
lercanidipine

> <Conformer>
1

> <SuperDrugID>
SD003390

$$$$
