iophenoic acid
  CDK     0628171801

 28 28  0  0  0  0  0  0  0  0999 V2000
    3.2360   -2.5865   -3.6781 C   0  0  1  0  0  0  0  0  0  0  0  0
    1.7389   -2.4288   -4.1074 C   0  0  2  0  0  0  0  0  0  0  0  0
    3.6725   -1.5720   -2.6676 C   0  0  0  0  0  0  0  0  0  0  0  0
    0.8377   -2.6331   -2.9454 C   0  0  0  0  0  0  0  0  0  0  0  0
    1.3193   -3.3644   -5.2871 C   0  0  1  0  0  0  0  0  0  0  0  0
    3.8132   -1.8929   -1.2847 C   0  0  0  0  0  0  0  0  0  0  0  0
    3.9396   -0.2365   -3.0813 C   0  0  0  0  0  0  0  0  0  0  0  0
    0.1725   -1.5835   -2.4109 O   0  0  0  0  0  0  0  0  0  0  0  0
    0.6816   -3.7620   -2.4272 O   0  0  0  0  0  0  0  0  0  0  0  0
    1.9588   -3.0318   -6.6577 C   0  0  0  0  0  0  0  0  0  0  0  0
    3.4504   -3.7744   -0.5161 I   0  0  0  0  0  0  0  0  0  0  0  0
    4.2046   -0.9014   -0.3583 C   0  0  0  0  0  0  0  0  0  0  0  0
    3.8678    0.3951   -5.0429 I   0  0  0  0  0  0  0  0  0  0  0  0
    4.2936    0.7454   -2.1402 C   0  0  0  0  0  0  0  0  0  0  0  0
    4.3694   -1.1931    0.9563 O   0  0  0  0  0  0  0  0  0  0  0  0
    4.4246    0.4200   -0.7823 C   0  0  0  0  0  0  0  0  0  0  0  0
    4.9444    1.8853    0.5622 I   0  0  0  0  0  0  0  0  0  0  0  0
    3.3966   -3.6021   -3.3197 H   0  0  0  0  0  0  0  0  0  0  0  0
    3.8865   -2.4977   -4.5482 H   0  0  0  0  0  0  0  0  0  0  0  0
    1.5810   -1.4033   -4.4520 H   0  0  0  0  0  0  0  0  0  0  0  0
    1.5529   -4.4030   -5.0357 H   0  0  0  0  0  0  0  0  0  0  0  0
    0.2357   -3.2930   -5.4243 H   0  0  0  0  0  0  0  0  0  0  0  0
   -0.4111   -1.7074   -1.6341 H   0  0  0  0  0  0  0  0  0  0  0  0
    1.4818   -3.6303   -7.4359 H   0  0  0  0  0  0  0  0  0  0  0  0
    3.0260   -3.2596   -6.6593 H   0  0  0  0  0  0  0  0  0  0  0  0
    1.8197   -1.9776   -6.9039 H   0  0  0  0  0  0  0  0  0  0  0  0
    4.4626    1.7049   -2.4469 H   0  0  0  0  0  0  0  0  0  0  0  0
    4.8185   -2.0611    0.9734 H   0  0  0  0  0  0  0  0  0  0  0  0
  2  1  1  0  0  0  0 
  1  3  1  0  0  0  0 
  2  4  1  0  0  0  0 
  2  5  1  0  0  0  0 
  3  6  2  0  0  0  0 
  3  7  1  0  0  0  0 
  4  8  1  0  0  0  0 
  4  9  2  0  0  0  0 
  5 10  1  0  0  0  0 
  6 11  1  0  0  0  0 
  6 12  1  0  0  0  0 
  7 13  1  0  0  0  0 
  7 14  2  0  0  0  0 
 12 15  1  0  0  0  0 
 12 16  2  0  0  0  0 
 14 16  1  0  0  0  0 
 16 17  1  0  0  0  0 
  1 18  1  0  0  0  0 
  1 19  1  0  0  0  0 
  2 20  1  0  0  0  0 
  5 21  1  0  0  0  0 
  5 22  1  0  0  0  0 
  8 23  1  0  0  0  0 
 10 24  1  0  0  0  0 
 10 25  1  0  0  0  0 
 10 26  1  0  0  0  0 
 14 27  1  0  0  0  0 
 15 28  1  0  0  0  0 
M  END
> <cdk:Title>
iophenoic acid

> <Conformer>
1

> <SuperDrugID>
SD002857

$$$$
