triprolidine
  CDK     0628171801

 43 45  0  0  0  0  0  0  0  0999 V2000
   -0.8637    4.4704   -0.6467 C   0  0  0  0  0  0  0  0  0  0  0  0
   -1.3002    3.7460    0.4089 C   0  0  0  0  0  0  0  0  0  0  0  0
    0.2672    4.1392   -1.3867 C   0  0  0  0  0  0  0  0  0  0  0  0
   -1.5456    5.6171   -1.0486 C   0  0  0  0  0  0  0  0  0  0  0  0
   -0.7242    2.4984    0.9044 C   0  0  2  0  0  0  0  0  0  0  0  0
    1.5568    4.2780   -0.8254 C   0  0  0  0  0  0  0  0  0  0  0  0
    0.1461    3.7060   -2.7285 C   0  0  0  0  0  0  0  0  0  0  0  0
   -2.8922    5.5846   -1.4823 C   0  0  0  0  0  0  0  0  0  0  0  0
   -0.8889    6.8122   -1.0568 N   0  0  0  0  0  0  0  0  0  0  0  0
   -0.8272    1.3749   -0.0748 N   0  0  2  0  0  0  0  0  0  0  0  0
    2.7001    3.9968   -1.5915 C   0  0  0  0  0  0  0  0  0  0  0  0
    1.2935    3.4378   -3.4981 C   0  0  0  0  0  0  0  0  0  0  0  0
   -3.5091    6.7726   -1.9155 C   0  0  0  0  0  0  0  0  0  0  0  0
   -1.4586    7.9778   -1.4569 C   0  0  0  0  0  0  0  0  0  0  0  0
   -2.1970    0.9726   -0.4900 C   0  0  1  0  0  0  0  0  0  0  0  0
   -0.1059    0.1387    0.3069 C   0  0  1  0  0  0  0  0  0  0  0  0
    2.5828    3.5800   -2.9357 C   0  0  0  0  0  0  0  0  0  0  0  0
   -2.7896    7.9805   -1.9085 C   0  0  0  0  0  0  0  0  0  0  0  0
   -2.1818   -0.5571   -0.6879 C   0  0  1  0  0  0  0  0  0  0  0  0
   -0.6958   -0.9376   -0.6137 C   0  0  1  0  0  0  0  0  0  0  0  0
    3.8087    3.3084   -3.7188 C   0  0  0  0  0  0  0  0  0  0  0  0
   -2.1007    4.0754    0.9027 H   0  0  0  0  0  0  0  0  0  0  0  0
   -1.2349    2.2101    1.8293 H   0  0  0  0  0  0  0  0  0  0  0  0
    0.3231    2.6696    1.1633 H   0  0  0  0  0  0  0  0  0  0  0  0
    1.6748    4.5982    0.1402 H   0  0  0  0  0  0  0  0  0  0  0  0
   -0.7769    3.5918   -3.1560 H   0  0  0  0  0  0  0  0  0  0  0  0
   -3.4216    4.7085   -1.4945 H   0  0  0  0  0  0  0  0  0  0  0  0
    3.6226    4.1048   -1.1617 H   0  0  0  0  0  0  0  0  0  0  0  0
    1.1785    3.1456   -4.4738 H   0  0  0  0  0  0  0  0  0  0  0  0
   -4.4785    6.7600   -2.2395 H   0  0  0  0  0  0  0  0  0  0  0  0
   -0.9178    8.8440   -1.4279 H   0  0  0  0  0  0  0  0  0  0  0  0
   -2.9584    1.2412    0.2496 H   0  0  0  0  0  0  0  0  0  0  0  0
   -2.4317    1.4766   -1.4304 H   0  0  0  0  0  0  0  0  0  0  0  0
    0.9673    0.2441    0.1418 H   0  0  0  0  0  0  0  0  0  0  0  0
   -0.2847   -0.1293    1.3528 H   0  0  0  0  0  0  0  0  0  0  0  0
   -3.2255    8.8486   -2.2261 H   0  0  0  0  0  0  0  0  0  0  0  0
   -2.7348   -1.0472    0.1197 H   0  0  0  0  0  0  0  0  0  0  0  0
   -2.6174   -0.8478   -1.6464 H   0  0  0  0  0  0  0  0  0  0  0  0
   -0.2372   -0.8791   -1.6064 H   0  0  0  0  0  0  0  0  0  0  0  0
   -0.5515   -1.9444   -0.2117 H   0  0  0  0  0  0  0  0  0  0  0  0
    4.3965    4.2229   -3.8041 H   0  0  0  0  0  0  0  0  0  0  0  0
    3.5890    2.9472   -4.7246 H   0  0  0  0  0  0  0  0  0  0  0  0
    4.4047    2.5506   -3.2095 H   0  0  0  0  0  0  0  0  0  0  0  0
  1  2  2  0  0  0  0 
  1  3  1  0  0  0  0 
  1  4  1  0  0  0  0 
  2  5  1  0  0  0  0 
  3  6  2  0  0  0  0 
  3  7  1  0  0  0  0 
  4  8  2  0  0  0  0 
  4  9  1  0  0  0  0 
  5 10  1  0  0  0  0 
  6 11  1  0  0  0  0 
  7 12  2  0  0  0  0 
  8 13  1  0  0  0  0 
  9 14  2  0  0  0  0 
 10 15  1  0  0  0  0 
 10 16  1  0  0  0  0 
 11 17  2  0  0  0  0 
 12 17  1  0  0  0  0 
 13 18  2  0  0  0  0 
 14 18  1  0  0  0  0 
 15 19  1  0  0  0  0 
 16 20  1  0  0  0  0 
 17 21  1  0  0  0  0 
 19 20  1  0  0  0  0 
  2 22  1  0  0  0  0 
  5 23  1  0  0  0  0 
  5 24  1  0  0  0  0 
  6 25  1  0  0  0  0 
  7 26  1  0  0  0  0 
  8 27  1  0  0  0  0 
 11 28  1  0  0  0  0 
 12 29  1  0  0  0  0 
 13 30  1  0  0  0  0 
 14 31  1  0  0  0  0 
 15 32  1  0  0  0  0 
 15 33  1  0  0  0  0 
 16 34  1  0  0  0  0 
 16 35  1  0  0  0  0 
 18 36  1  0  0  0  0 
 19 37  1  0  0  0  0 
 19 38  1  0  0  0  0 
 20 39  1  0  0  0  0 
 20 40  1  0  0  0  0 
 21 41  1  0  0  0  0 
 21 42  1  0  0  0  0 
 21 43  1  0  0  0  0 
M  END
> <cdk:Title>
triprolidine

> <Conformer>
1

> <SuperDrugID>
SD002492

$$$$
