paraldehyde
  CDK     0628171801

 21 21  0  0  0  0  0  0  0  0999 V2000
    0.3359   -2.7071   -1.9131 C   0  0  0  0  0  0  0  0  0  0  0  0
    0.8620   -1.9464   -0.6783 C   0  0  2  0  0  0  0  0  0  0  0  0
    1.3531   -0.6483   -1.0787 O   0  0  0  0  0  0  0  0  0  0  0  0
    1.9155    0.0705    0.0409 C   0  0  2  0  0  0  0  0  0  0  0  0
    2.4906    1.4181   -0.4419 C   0  0  0  0  0  0  0  0  0  0  0  0
    2.9572   -0.7053    0.6731 O   0  0  0  0  0  0  0  0  0  0  0  0
    2.4732   -2.0036    1.0812 C   0  0  2  0  0  0  0  0  0  0  0  0
    3.6313   -2.8241    1.6857 C   0  0  0  0  0  0  0  0  0  0  0  0
    1.9084   -2.7133   -0.0431 O   0  0  0  0  0  0  0  0  0  0  0  0
   -0.0567   -3.6790   -1.6087 H   0  0  0  0  0  0  0  0  0  0  0  0
    1.1304   -2.8606   -2.6450 H   0  0  0  0  0  0  0  0  0  0  0  0
   -0.4707   -2.1396   -2.3807 H   0  0  0  0  0  0  0  0  0  0  0  0
    0.0174   -1.8285    0.0096 H   0  0  0  0  0  0  0  0  0  0  0  0
    1.1290    0.2997    0.7685 H   0  0  0  0  0  0  0  0  0  0  0  0
    3.2847    1.2639   -1.1741 H   0  0  0  0  0  0  0  0  0  0  0  0
    1.6994    2.0150   -0.8991 H   0  0  0  0  0  0  0  0  0  0  0  0
    2.8952    1.9725    0.4068 H   0  0  0  0  0  0  0  0  0  0  0  0
    1.7175   -1.8889    1.8662 H   0  0  0  0  0  0  0  0  0  0  0  0
    3.2622   -3.7968    2.0157 H   0  0  0  0  0  0  0  0  0  0  0  0
    4.0440   -2.2999    2.5495 H   0  0  0  0  0  0  0  0  0  0  0  0
    4.4253   -2.9776    0.9531 H   0  0  0  0  0  0  0  0  0  0  0  0
  1  2  1  0  0  0  0 
  2  3  1  0  0  0  0 
  3  4  1  0  0  0  0 
  4  5  1  0  0  0  0 
  4  6  1  0  0  0  0 
  6  7  1  0  0  0  0 
  7  8  1  0  0  0  0 
  7  9  1  0  0  0  0 
  2  9  1  0  0  0  0 
  1 10  1  0  0  0  0 
  1 11  1  0  0  0  0 
  1 12  1  0  0  0  0 
  2 13  1  0  0  0  0 
  4 14  1  0  0  0  0 
  5 15  1  0  0  0  0 
  5 16  1  0  0  0  0 
  5 17  1  0  0  0  0 
  7 18  1  0  0  0  0 
  8 19  1  0  0  0  0 
  8 20  1  0  0  0  0 
  8 21  1  0  0  0  0 
M  END
> <cdk:Title>
paraldehyde

> <Conformer>
1

> <SuperDrugID>
SD001845

$$$$
