fytic acid
  CDK     0628171801

 54 54  0  0  0  0  0  0  0  0999 V2000
  -11.8323   17.7797   16.6510 C   0  0  2  0  0  0  0  0  0  0  0  0
  -12.1061   17.1870   15.2339 C   0  0  2  0  0  0  0  0  0  0  0  0
  -13.5683   17.4418   14.7278 C   0  0  1  0  0  0  0  0  0  0  0  0
  -14.0093   18.9387   14.9051 C   0  0  2  0  0  0  0  0  0  0  0  0
  -13.7492   19.4007   16.3761 C   0  0  1  0  0  0  0  0  0  0  0  0
  -12.2315   19.2838   16.7227 C   0  0  2  0  0  0  0  0  0  0  0  0
  -11.7944   15.7783   15.3879 O   0  0  0  0  0  0  0  0  0  0  0  0
  -10.4268   17.5464   16.9176 O   0  0  0  0  0  0  0  0  0  0  0  0
  -11.3229   19.9888   15.8373 O   0  0  0  0  0  0  0  0  0  0  0  0
  -14.2355   20.7439   16.5806 O   0  0  0  0  0  0  0  0  0  0  0  0
  -15.4305   19.0388   14.6472 O   0  0  0  0  0  0  0  0  0  0  0  0
  -13.5733   17.0475   13.3325 O   0  0  0  0  0  0  0  0  0  0  0  0
   -9.8920   17.7409   18.4103 P   0  0  2  0  0  0  0  0  0  0  0  0
  -11.1755   21.5747   15.9541 P   0  0  2  0  0  0  0  0  0  0  0  0
  -11.3204   14.9103   14.1335 P   0  0  2  0  0  0  0  0  0  0  0  0
  -14.8664   16.3427   12.7075 P   0  0  2  0  0  0  0  0  0  0  0  0
  -14.8049   21.1421   18.0211 P   0  0  2  0  0  0  0  0  0  0  0  0
  -15.9864   20.3001   13.8312 P   0  0  2  0  0  0  0  0  0  0  0  0
  -12.4530   14.1817   13.5568 O   0  0  0  0  0  0  0  0  0  0  0  0
  -10.2495   13.8681   14.6649 O   0  0  0  0  0  0  0  0  0  0  0  0
  -10.6128   15.8093   13.0397 O   0  0  0  0  0  0  0  0  0  0  0  0
   -9.6397   19.1561   18.6965 O   0  0  0  0  0  0  0  0  0  0  0  0
   -8.5428   16.9188   18.5270 O   0  0  0  0  0  0  0  0  0  0  0  0
  -10.9225   17.1347   19.4485 O   0  0  0  0  0  0  0  0  0  0  0  0
  -12.3005   22.2620   15.3129 O   0  0  0  0  0  0  0  0  0  0  0  0
   -9.8316   21.9800   15.2137 O   0  0  0  0  0  0  0  0  0  0  0  0
  -11.0363   22.0007   17.4720 O   0  0  0  0  0  0  0  0  0  0  0  0
  -13.7453   21.1738   19.0322 O   0  0  0  0  0  0  0  0  0  0  0  0
  -15.9453   20.1251   18.4395 O   0  0  0  0  0  0  0  0  0  0  0  0
  -15.4609   22.5776   17.8827 O   0  0  0  0  0  0  0  0  0  0  0  0
  -15.6551   20.1846   12.4073 O   0  0  0  0  0  0  0  0  0  0  0  0
  -15.4433   21.6730   14.4019 O   0  0  0  0  0  0  0  0  0  0  0  0
  -17.5595   20.3082   14.0321 O   0  0  0  0  0  0  0  0  0  0  0  0
  -15.8692   17.3297   12.3016 O   0  0  0  0  0  0  0  0  0  0  0  0
  -15.4935   15.3062   13.7275 O   0  0  0  0  0  0  0  0  0  0  0  0
  -14.3877   15.5349   11.4279 O   0  0  0  0  0  0  0  0  0  0  0  0
  -12.4443   17.2146   17.3663 H   0  0  0  0  0  0  0  0  0  0  0  0
  -11.4059   17.6775   14.5492 H   0  0  0  0  0  0  0  0  0  0  0  0
  -14.2171   16.8077   15.3413 H   0  0  0  0  0  0  0  0  0  0  0  0
  -13.4133   19.5454   14.2114 H   0  0  0  0  0  0  0  0  0  0  0  0
  -14.3100   18.7039   17.0144 H   0  0  0  0  0  0  0  0  0  0  0  0
  -12.0889   19.6001   17.7577 H   0  0  0  0  0  0  0  0  0  0  0  0
   -9.5420   14.4215   15.0556 H   0  0  0  0  0  0  0  0  0  0  0  0
   -9.8629   16.2306   13.5109 H   0  0  0  0  0  0  0  0  0  0  0  0
   -8.8027   15.9983   18.3135 H   0  0  0  0  0  0  0  0  0  0  0  0
  -11.0596   16.2112   19.1509 H   0  0  0  0  0  0  0  0  0  0  0  0
   -9.1244   21.5428   15.7312 H   0  0  0  0  0  0  0  0  0  0  0  0
  -10.2620   21.4968   17.7976 H   0  0  0  0  0  0  0  0  0  0  0  0
  -16.5942   20.1626   17.7064 H   0  0  0  0  0  0  0  0  0  0  0  0
  -16.1042   22.4791   17.1489 H   0  0  0  0  0  0  0  0  0  0  0  0
  -14.4829   21.6685   14.2066 H   0  0  0  0  0  0  0  0  0  0  0  0
  -17.6882   20.3839   15.0041 H   0  0  0  0  0  0  0  0  0  0  0  0
  -14.7644   14.6860   13.9310 H   0  0  0  0  0  0  0  0  0  0  0  0
  -13.7345   14.8925   11.7732 H   0  0  0  0  0  0  0  0  0  0  0  0
  1  2  1  0  0  0  0 
  2  3  1  0  0  0  0 
  3  4  1  0  0  0  0 
  4  5  1  0  0  0  0 
  5  6  1  0  0  0  0 
  1  6  1  0  0  0  0 
  2  7  1  0  0  0  0 
  1  8  1  0  0  0  0 
  6  9  1  0  0  0  0 
  5 10  1  0  0  0  0 
  4 11  1  0  0  0  0 
  3 12  1  0  0  0  0 
  8 13  1  0  0  0  0 
  9 14  1  0  0  0  0 
  7 15  1  0  0  0  0 
 12 16  1  0  0  0  0 
 10 17  1  0  0  0  0 
 11 18  1  0  0  0  0 
 15 19  2  0  0  0  0 
 15 20  1  0  0  0  0 
 15 21  1  0  0  0  0 
 13 22  2  0  0  0  0 
 13 23  1  0  0  0  0 
 13 24  1  0  0  0  0 
 14 25  2  0  0  0  0 
 14 26  1  0  0  0  0 
 14 27  1  0  0  0  0 
 17 28  2  0  0  0  0 
 17 29  1  0  0  0  0 
 17 30  1  0  0  0  0 
 18 31  2  0  0  0  0 
 18 32  1  0  0  0  0 
 18 33  1  0  0  0  0 
 16 34  2  0  0  0  0 
 16 35  1  0  0  0  0 
 16 36  1  0  0  0  0 
  1 37  1  0  0  0  0 
  2 38  1  0  0  0  0 
  3 39  1  0  0  0  0 
  4 40  1  0  0  0  0 
  5 41  1  0  0  0  0 
  6 42  1  0  0  0  0 
 20 43  1  0  0  0  0 
 21 44  1  0  0  0  0 
 23 45  1  0  0  0  0 
 24 46  1  0  0  0  0 
 26 47  1  0  0  0  0 
 27 48  1  0  0  0  0 
 29 49  1  0  0  0  0 
 30 50  1  0  0  0  0 
 32 51  1  0  0  0  0 
 33 52  1  0  0  0  0 
 35 53  1  0  0  0  0 
 36 54  1  0  0  0  0 
M  END
> <cdk:Title>
fytic acid

> <Conformer>
1

> <SuperDrugID>
SD002987

$$$$
