tobramycin
  CDK     0628171801

 69 71  0  0  0  0  0  0  0  0999 V2000
    7.7847   15.9752   54.6645 O   0  0  0  0  0  0  0  0  0  0  0  0
    6.7002   15.4025   53.8937 C   0  0  2  0  0  0  0  0  0  0  0  0
    8.3872   15.2067   55.7287 C   0  0  1  0  0  0  0  0  0  0  0  0
    7.1720   14.2612   52.9369 C   0  0  1  0  0  0  0  0  0  0  0  0
    6.1117   16.6093   53.1092 C   0  0  2  0  0  0  0  0  0  0  0  0
    9.3619   14.2538   55.2467 O   0  0  0  0  0  0  0  0  0  0  0  0
    9.0664   16.1777   56.7335 C   0  0  2  0  0  0  0  0  0  0  0  0
    7.4257   13.0868   53.7084 O   0  0  0  0  0  0  0  0  0  0  0  0
    6.1703   13.8745   51.8025 C   0  0  2  0  0  0  0  0  0  0  0  0
    5.5195   17.5753   54.0499 N   0  0  1  0  0  0  0  0  0  0  0  0
    5.0386   16.1690   52.0846 C   0  0  2  0  0  0  0  0  0  0  0  0
   10.5067   14.8204   54.5658 C   0  0  2  0  0  0  0  0  0  0  0  0
    8.1278   17.1565   57.1768 O   0  0  0  0  0  0  0  0  0  0  0  0
   10.3073   16.8706   56.0987 C   0  0  2  0  0  0  0  0  0  0  0  0
    6.9473   13.0285   50.9176 O   0  0  0  0  0  0  0  0  0  0  0  0
    5.6091   15.1364   51.0769 C   0  0  2  0  0  0  0  0  0  0  0  0
   11.3978   13.6502   54.0792 C   0  0  1  0  0  0  0  0  0  0  0  0
   11.2690   15.7954   55.5142 C   0  0  2  0  0  0  0  0  0  0  0  0
   11.0425   17.6316   57.1731 N   0  0  1  0  0  0  0  0  0  0  0  0
    6.3272   11.9450   50.1937 C   0  0  1  0  0  0  0  0  0  0  0  0
    4.5342   14.8022   50.1317 N   0  0  2  0  0  0  0  0  0  0  0  0
   10.6624   12.7707   53.2339 O   0  0  0  0  0  0  0  0  0  0  0  0
   12.3339   16.4372   54.8137 O   0  0  0  0  0  0  0  0  0  0  0  0
    5.7264   12.4548   48.9819 O   0  0  0  0  0  0  0  0  0  0  0  0
    7.4434   10.9084   49.8612 C   0  0  2  0  0  0  0  0  0  0  0  0
    5.1451   11.4831   48.0797 C   0  0  2  0  0  0  0  0  0  0  0  0
    8.6368   11.5692   49.3046 N   0  0  1  0  0  0  0  0  0  0  0  0
    6.9303    9.8210   48.8773 C   0  0  2  0  0  0  0  0  0  0  0  0
    3.8303   10.8487   48.6189 C   0  0  2  0  0  0  0  0  0  0  0  0
    6.2150   10.4375   47.6452 C   0  0  2  0  0  0  0  0  0  0  0  0
    2.8769   11.8778   49.0459 N   0  0  1  0  0  0  0  0  0  0  0  0
    7.1839   11.0648   46.8025 O   0  0  0  0  0  0  0  0  0  0  0  0
    7.6163   14.6532   56.2740 H   0  0  0  0  0  0  0  0  0  0  0  0
    5.5722   11.4601   50.8205 H   0  0  0  0  0  0  0  0  0  0  0  0
    5.9220   15.0183   54.5635 H   0  0  0  0  0  0  0  0  0  0  0  0
    8.1141   14.5760   52.4784 H   0  0  0  0  0  0  0  0  0  0  0  0
    6.9156   17.1212   52.5694 H   0  0  0  0  0  0  0  0  0  0  0  0
    9.3843   15.6025   57.6086 H   0  0  0  0  0  0  0  0  0  0  0  0
    7.8595   12.4625   53.0908 H   0  0  0  0  0  0  0  0  0  0  0  0
    5.3399   13.3241   52.2597 H   0  0  0  0  0  0  0  0  0  0  0  0
    6.2583   17.8571   54.6978 H   0  0  0  0  0  0  0  0  0  0  0  0
    5.2599   18.4048   53.5121 H   0  0  0  0  0  0  0  0  0  0  0  0
    4.6836   17.0476   51.5371 H   0  0  0  0  0  0  0  0  0  0  0  0
    4.1866   15.7365   52.6183 H   0  0  0  0  0  0  0  0  0  0  0  0
   10.1757   15.3696   53.6777 H   0  0  0  0  0  0  0  0  0  0  0  0
    7.4036   16.6406   57.5903 H   0  0  0  0  0  0  0  0  0  0  0  0
    9.9392   17.4899   55.2323 H   0  0  0  0  0  0  0  0  0  0  0  0
    6.4122   15.6109   50.5040 H   0  0  0  0  0  0  0  0  0  0  0  0
   12.2518   14.0331   53.5161 H   0  0  0  0  0  0  0  0  0  0  0  0
   11.7683   13.0773   54.9314 H   0  0  0  0  0  0  0  0  0  0  0  0
   11.7051   15.2178   56.3356 H   0  0  0  0  0  0  0  0  0  0  0  0
   10.3977   18.3357   57.5379 H   0  0  0  0  0  0  0  0  0  0  0  0
   11.2315   16.9757   57.9342 H   0  0  0  0  0  0  0  0  0  0  0  0
    3.9778   14.0514   50.5479 H   0  0  0  0  0  0  0  0  0  0  0  0
    4.9725   14.4303   49.2898 H   0  0  0  0  0  0  0  0  0  0  0  0
   11.2913   12.0504   53.0144 H   0  0  0  0  0  0  0  0  0  0  0  0
   12.7917   16.9775   55.4918 H   0  0  0  0  0  0  0  0  0  0  0  0
    7.7550   10.4202   50.7893 H   0  0  0  0  0  0  0  0  0  0  0  0
    4.8646   12.0441   47.1832 H   0  0  0  0  0  0  0  0  0  0  0  0
    8.9433   12.2613   49.9919 H   0  0  0  0  0  0  0  0  0  0  0  0
    9.3724   10.8603   49.2584 H   0  0  0  0  0  0  0  0  0  0  0  0
    6.2307    9.1663   49.4041 H   0  0  0  0  0  0  0  0  0  0  0  0
    7.7623    9.1945   48.5430 H   0  0  0  0  0  0  0  0  0  0  0  0
    4.0268   10.1941   49.4680 H   0  0  0  0  0  0  0  0  0  0  0  0
    3.3591   10.2528   47.8341 H   0  0  0  0  0  0  0  0  0  0  0  0
    5.7470    9.6416   47.0600 H   0  0  0  0  0  0  0  0  0  0  0  0
    2.0575   11.3882   49.4132 H   0  0  0  0  0  0  0  0  0  0  0  0
    3.3004   12.3720   49.8338 H   0  0  0  0  0  0  0  0  0  0  0  0
    6.6732   11.4348   46.0519 H   0  0  0  0  0  0  0  0  0  0  0  0
  3  1  1  0  0  0  0 
  2  1  1  0  0  0  0 
  4  2  1  0  0  0  0 
  2  5  1  0  0  0  0 
  3  6  1  0  0  0  0 
  7  3  1  0  0  0  0 
  3 33  1  0  0  0  0 
  4  8  1  0  0  0  0 
  9  4  1  0  0  0  0 
  5 10  1  0  0  0  0 
  5 11  1  0  0  0  0 
 12  6  1  0  0  0  0 
  7 13  1  0  0  0  0 
 14  7  1  0  0  0  0 
  9 15  1  0  0  0  0 
 16  9  1  0  0  0  0 
 16 11  1  0  0  0  0 
 12 17  1  0  0  0  0 
 18 12  1  0  0  0  0 
 18 14  1  0  0  0  0 
 14 19  1  0  0  0  0 
 20 15  1  0  0  0  0 
 16 21  1  0  0  0  0 
 17 22  1  0  0  0  0 
 18 23  1  0  0  0  0 
 20 24  1  0  0  0  0 
 25 20  1  0  0  0  0 
 20 34  1  0  0  0  0 
 26 24  1  0  0  0  0 
 25 27  1  0  0  0  0 
 25 28  1  0  0  0  0 
 26 29  1  0  0  0  0 
 30 26  1  0  0  0  0 
 30 28  1  0  0  0  0 
 29 31  1  0  0  0  0 
 30 32  1  0  0  0  0 
  2 35  1  0  0  0  0 
  4 36  1  0  0  0  0 
  5 37  1  0  0  0  0 
  7 38  1  0  0  0  0 
  8 39  1  0  0  0  0 
  9 40  1  0  0  0  0 
 10 41  1  0  0  0  0 
 10 42  1  0  0  0  0 
 11 43  1  0  0  0  0 
 11 44  1  0  0  0  0 
 12 45  1  0  0  0  0 
 13 46  1  0  0  0  0 
 14 47  1  0  0  0  0 
 16 48  1  0  0  0  0 
 17 49  1  0  0  0  0 
 17 50  1  0  0  0  0 
 18 51  1  0  0  0  0 
 19 52  1  0  0  0  0 
 19 53  1  0  0  0  0 
 21 54  1  0  0  0  0 
 21 55  1  0  0  0  0 
 22 56  1  0  0  0  0 
 23 57  1  0  0  0  0 
 25 58  1  0  0  0  0 
 26 59  1  0  0  0  0 
 27 60  1  0  0  0  0 
 27 61  1  0  0  0  0 
 28 62  1  0  0  0  0 
 28 63  1  0  0  0  0 
 29 64  1  0  0  0  0 
 29 65  1  0  0  0  0 
 30 66  1  0  0  0  0 
 31 67  1  0  0  0  0 
 31 68  1  0  0  0  0 
 32 69  1  0  0  0  0 
M  END
> <cdk:Title>
tobramycin

> <Conformer>
1

> <SuperDrugID>
SD002416

$$$$
