bamipine
  CDK     0628171801

 45 47  0  0  0  0  0  0  0  0999 V2000
    0.2081   -2.2842    0.8480 N   0  0  0  0  0  0  0  0  0  0  0  0
    0.6966   -1.4029   -0.1950 C   0  0  2  0  0  0  0  0  0  0  0  0
    0.5397   -2.0405    2.2492 C   0  0  2  0  0  0  0  0  0  0  0  0
   -0.5700   -3.3583    0.4861 C   0  0  0  0  0  0  0  0  0  0  0  0
   -0.3343   -0.4224   -0.6342 C   0  0  0  0  0  0  0  0  0  0  0  0
    1.8831   -2.7112    2.6677 C   0  0  2  0  0  0  0  0  0  0  0  0
   -0.5846   -2.4138    3.2675 C   0  0  1  0  0  0  0  0  0  0  0  0
   -1.9709   -3.2169    0.3531 C   0  0  0  0  0  0  0  0  0  0  0  0
    0.0161   -4.6257    0.2783 C   0  0  0  0  0  0  0  0  0  0  0  0
   -0.9726   -0.5385   -1.8936 C   0  0  0  0  0  0  0  0  0  0  0  0
   -0.6981    0.6536    0.2105 C   0  0  0  0  0  0  0  0  0  0  0  0
    2.2453   -2.3671    4.1386 C   0  0  1  0  0  0  0  0  0  0  0  0
   -0.1674   -2.0608    4.7190 C   0  0  1  0  0  0  0  0  0  0  0  0
   -2.7716   -4.3321    0.0449 C   0  0  0  0  0  0  0  0  0  0  0  0
   -0.7844   -5.7415   -0.0231 C   0  0  0  0  0  0  0  0  0  0  0  0
   -1.9527    0.3934   -2.2886 C   0  0  0  0  0  0  0  0  0  0  0  0
   -1.6766    1.5837   -0.1834 C   0  0  0  0  0  0  0  0  0  0  0  0
    1.1440   -2.6668    5.1075 N   0  0  1  0  0  0  0  0  0  0  0  0
   -2.1784   -5.5934   -0.1474 C   0  0  0  0  0  0  0  0  0  0  0  0
   -2.3033    1.4553   -1.4352 C   0  0  0  0  0  0  0  0  0  0  0  0
    1.0515   -4.0892    5.5386 C   0  0  0  0  0  0  0  0  0  0  0  0
    1.0520   -1.9968   -1.0426 H   0  0  0  0  0  0  0  0  0  0  0  0
    1.5747   -0.8479    0.1483 H   0  0  0  0  0  0  0  0  0  0  0  0
    0.6851   -0.9624    2.3775 H   0  0  0  0  0  0  0  0  0  0  0  0
    2.6938   -2.3637    2.0221 H   0  0  0  0  0  0  0  0  0  0  0  0
    1.8094   -3.7956    2.5634 H   0  0  0  0  0  0  0  0  0  0  0  0
   -1.4989   -1.8689    3.0173 H   0  0  0  0  0  0  0  0  0  0  0  0
   -0.8084   -3.4825    3.2124 H   0  0  0  0  0  0  0  0  0  0  0  0
   -2.4131   -2.3025    0.4871 H   0  0  0  0  0  0  0  0  0  0  0  0
    1.0276   -4.7424    0.3528 H   0  0  0  0  0  0  0  0  0  0  0  0
   -0.7333   -1.3040   -2.5298 H   0  0  0  0  0  0  0  0  0  0  0  0
   -0.2481    0.7751    1.1178 H   0  0  0  0  0  0  0  0  0  0  0  0
    3.1651   -2.8879    4.4224 H   0  0  0  0  0  0  0  0  0  0  0  0
    2.4658   -1.2984    4.1995 H   0  0  0  0  0  0  0  0  0  0  0  0
   -0.0821   -0.9750    4.8047 H   0  0  0  0  0  0  0  0  0  0  0  0
   -0.9597   -2.3700    5.4072 H   0  0  0  0  0  0  0  0  0  0  0  0
   -3.7856   -4.2274   -0.0358 H   0  0  0  0  0  0  0  0  0  0  0  0
   -0.3509   -6.6583   -0.1475 H   0  0  0  0  0  0  0  0  0  0  0  0
   -2.4130    0.3004   -3.1974 H   0  0  0  0  0  0  0  0  0  0  0  0
   -1.9298    2.3517    0.4416 H   0  0  0  0  0  0  0  0  0  0  0  0
   -2.7634   -6.4007   -0.3738 H   0  0  0  0  0  0  0  0  0  0  0  0
   -3.0126    2.1327   -1.7256 H   0  0  0  0  0  0  0  0  0  0  0  0
    2.0268   -4.4705    5.8441 H   0  0  0  0  0  0  0  0  0  0  0  0
    0.3897   -4.1703    6.4019 H   0  0  0  0  0  0  0  0  0  0  0  0
    0.6652   -4.7240    4.7420 H   0  0  0  0  0  0  0  0  0  0  0  0
  1  2  1  0  0  0  0 
  1  3  1  0  0  0  0 
  1  4  1  0  0  0  0 
  2  5  1  0  0  0  0 
  3  6  1  0  0  0  0 
  3  7  1  0  0  0  0 
  4  8  2  0  0  0  0 
  4  9  1  0  0  0  0 
  5 10  2  0  0  0  0 
  5 11  1  0  0  0  0 
  6 12  1  0  0  0  0 
  7 13  1  0  0  0  0 
  8 14  1  0  0  0  0 
  9 15  2  0  0  0  0 
 10 16  1  0  0  0  0 
 11 17  2  0  0  0  0 
 12 18  1  0  0  0  0 
 13 18  1  0  0  0  0 
 14 19  2  0  0  0  0 
 15 19  1  0  0  0  0 
 16 20  2  0  0  0  0 
 17 20  1  0  0  0  0 
 18 21  1  0  0  0  0 
  2 22  1  0  0  0  0 
  2 23  1  0  0  0  0 
  3 24  1  0  0  0  0 
  6 25  1  0  0  0  0 
  6 26  1  0  0  0  0 
  7 27  1  0  0  0  0 
  7 28  1  0  0  0  0 
  8 29  1  0  0  0  0 
  9 30  1  0  0  0  0 
 10 31  1  0  0  0  0 
 11 32  1  0  0  0  0 
 12 33  1  0  0  0  0 
 12 34  1  0  0  0  0 
 13 35  1  0  0  0  0 
 13 36  1  0  0  0  0 
 14 37  1  0  0  0  0 
 15 38  1  0  0  0  0 
 16 39  1  0  0  0  0 
 17 40  1  0  0  0  0 
 19 41  1  0  0  0  0 
 20 42  1  0  0  0  0 
 21 43  1  0  0  0  0 
 21 44  1  0  0  0  0 
 21 45  1  0  0  0  0 
M  END
> <cdk:Title>
bamipine

> <Conformer>
1

> <SuperDrugID>
SD000241

$$$$
