gimeracil
  CDK     0628171801

 13 13  0  0  0  0  0  0  0  0999 V2000
    1.1013   -0.4051   -0.2188 O   0  0  0  0  0  0  0  0  0  0  0  0
    0.3030   -0.1553    0.8536 C   0  0  0  0  0  0  0  0  0  0  0  0
   -1.0599   -0.5241    0.8234 C   0  0  0  0  0  0  0  0  0  0  0  0
    0.8250    0.4726    2.0038 C   0  0  0  0  0  0  0  0  0  0  0  0
   -1.7379   -1.2816   -0.5347 Cl  0  0  0  0  0  0  0  0  0  0  0  0
   -1.8637   -0.2528    1.9493 C   0  0  0  0  0  0  0  0  0  0  0  0
   -0.0250    0.7192    3.1000 C   0  0  0  0  0  0  0  0  0  0  0  0
   -1.3313    0.3532    3.0419 N   0  0  0  0  0  0  0  0  0  0  0  0
    0.4082    1.2747    4.1350 O   0  0  0  0  0  0  0  0  0  0  0  0
    1.9892   -0.0705    0.0217 H   0  0  0  0  0  0  0  0  0  0  0  0
    1.8100    0.7466    2.0431 H   0  0  0  0  0  0  0  0  0  0  0  0
   -2.8527   -0.5079    1.9565 H   0  0  0  0  0  0  0  0  0  0  0  0
   -1.9057    0.5296    3.8054 H   0  0  0  0  0  0  0  0  0  0  0  0
  1  2  1  0  0  0  0 
  2  3  1  0  0  0  0 
  2  4  2  0  0  0  0 
  3  5  1  0  0  0  0 
  3  6  2  0  0  0  0 
  4  7  1  0  0  0  0 
  6  8  1  0  0  0  0 
  7  8  1  0  0  0  0 
  7  9  2  0  0  0  0 
  1 10  1  0  0  0  0 
  4 11  1  0  0  0  0 
  6 12  1  0  0  0  0 
  8 13  1  0  0  0  0 
M  END
> <cdk:Title>
gimeracil

> <Conformer>
1

> <SuperDrugID>
SD001151

$$$$
