hydrocortisone butyrate
  CDK     0628171801

 67 70  0  0  0  0  0  0  0  0999 V2000
    0.8943    1.2957    0.9781 O   0  0  0  0  0  0  0  0  0  0  0  0
    1.8048    0.3740    1.4347 C   0  0  0  0  0  0  0  0  0  0  0  0
   -0.5457    1.3482    1.1532 C   0  0  1  0  0  0  0  0  0  0  0  0
    3.2290    0.5263    1.0714 C   0  0  2  0  0  0  0  0  0  0  0  0
    1.4465   -0.5775    2.1688 O   0  0  0  0  0  0  0  0  0  0  0  0
   -0.8176    1.4241    2.6320 C   0  0  0  0  0  0  0  0  0  0  0  0
   -1.1549    2.5544    0.3264 C   0  0  2  0  0  0  0  0  0  0  0  0
   -1.1539    0.1048    0.4001 C   0  0  2  0  0  0  0  0  0  0  0  0
    3.7790   -0.7958    0.3875 C   0  0  1  0  0  0  0  0  0  0  0  0
   -0.0920    2.3335    3.5518 C   0  0  2  0  0  0  0  0  0  0  0  0
   -1.6736    0.6754    3.1597 O   0  0  0  0  0  0  0  0  0  0  0  0
   -2.6670    2.7833    0.7328 C   0  0  0  0  0  0  0  0  0  0  0  0
   -0.9605    2.0120   -1.1262 C   0  0  1  0  0  0  0  0  0  0  0  0
   -0.3806    3.9201    0.3964 C   0  0  2  0  0  0  0  0  0  0  0  0
   -1.4759    0.5581   -1.0473 C   0  0  1  0  0  0  0  0  0  0  0  0
    5.2419   -0.6153   -0.0756 C   0  0  0  0  0  0  0  0  0  0  0  0
    0.6948    1.5918    4.4810 O   0  0  0  0  0  0  0  0  0  0  0  0
   -1.5107    2.9544   -2.2481 C   0  0  1  0  0  0  0  0  0  0  0  0
   -0.8214    4.9574   -0.6898 C   0  0  1  0  0  0  0  0  0  0  0  0
   -0.8490    4.3829   -2.1617 C   0  0  2  0  0  0  0  0  0  0  0  0
   -1.2328    2.3581   -3.6589 C   0  0  1  0  0  0  0  0  0  0  0  0
   -2.0583    5.5459   -0.3008 O   0  0  0  0  0  0  0  0  0  0  0  0
   -1.3456    5.3631   -3.3292 C   0  0  2  0  0  0  0  0  0  0  0  0
   -1.7067    3.2932   -4.7938 C   0  0  2  0  0  0  0  0  0  0  0  0
   -2.8541    5.7938   -3.1967 C   0  0  0  0  0  0  0  0  0  0  0  0
   -1.2184    4.6762   -4.6564 C   0  0  0  0  0  0  0  0  0  0  0  0
   -0.4577    6.6722   -3.2965 C   0  0  1  0  0  0  0  0  0  0  0  0
   -0.7306    5.3032   -5.7546 C   0  0  0  0  0  0  0  0  0  0  0  0
   -0.5255    7.5079   -4.5991 C   0  0  1  0  0  0  0  0  0  0  0  0
   -0.3484    6.6354   -5.7769 C   0  0  0  0  0  0  0  0  0  0  0  0
    0.1103    7.1328   -6.8323 O   0  0  0  0  0  0  0  0  0  0  0  0
    3.7748    0.6025    2.0623 H   0  0  0  0  0  0  0  0  0  0  0  0
    3.2763    1.4781    0.3988 H   0  0  0  0  0  0  0  0  0  0  0  0
   -2.0719   -0.2540    0.8730 H   0  0  0  0  0  0  0  0  0  0  0  0
   -0.4620   -0.7374    0.3798 H   0  0  0  0  0  0  0  0  0  0  0  0
    3.7332   -1.6329    1.0895 H   0  0  0  0  0  0  0  0  0  0  0  0
    3.1622   -1.0477   -0.4785 H   0  0  0  0  0  0  0  0  0  0  0  0
   -0.8117    2.9371    4.1093 H   0  0  0  0  0  0  0  0  0  0  0  0
    0.5782    3.0070    3.0168 H   0  0  0  0  0  0  0  0  0  0  0  0
   -3.1952    3.4194    0.0306 H   0  0  0  0  0  0  0  0  0  0  0  0
   -3.2305    1.8527    0.7790 H   0  0  0  0  0  0  0  0  0  0  0  0
   -2.7297    3.2514    1.7167 H   0  0  0  0  0  0  0  0  0  0  0  0
    0.1161    1.9297   -1.3324 H   0  0  0  0  0  0  0  0  0  0  0  0
    0.6908    3.7417    0.2714 H   0  0  0  0  0  0  0  0  0  0  0  0
   -0.5075    4.3675    1.3849 H   0  0  0  0  0  0  0  0  0  0  0  0
   -0.9742   -0.0819   -1.7758 H   0  0  0  0  0  0  0  0  0  0  0  0
   -2.5522    0.5231   -1.2363 H   0  0  0  0  0  0  0  0  0  0  0  0
    5.6223   -1.5538   -0.4876 H   0  0  0  0  0  0  0  0  0  0  0  0
    5.8707   -0.3217    0.7689 H   0  0  0  0  0  0  0  0  0  0  0  0
    5.3013    0.1557   -0.8484 H   0  0  0  0  0  0  0  0  0  0  0  0
    1.4025    1.1750    3.9433 H   0  0  0  0  0  0  0  0  0  0  0  0
   -2.5910    3.0394   -2.1329 H   0  0  0  0  0  0  0  0  0  0  0  0
   -0.0905    5.7693   -0.6492 H   0  0  0  0  0  0  0  0  0  0  0  0
    0.2145    4.2036   -2.3707 H   0  0  0  0  0  0  0  0  0  0  0  0
   -0.1605    2.1735   -3.7816 H   0  0  0  0  0  0  0  0  0  0  0  0
   -1.7480    1.3996   -3.7646 H   0  0  0  0  0  0  0  0  0  0  0  0
   -1.9155    5.8814    0.6106 H   0  0  0  0  0  0  0  0  0  0  0  0
   -2.7993    3.3111   -4.8020 H   0  0  0  0  0  0  0  0  0  0  0  0
   -1.3976    2.8282   -5.7360 H   0  0  0  0  0  0  0  0  0  0  0  0
   -3.0190    6.4425   -2.3377 H   0  0  0  0  0  0  0  0  0  0  0  0
   -3.5211    4.9370   -3.0979 H   0  0  0  0  0  0  0  0  0  0  0  0
   -3.1832    6.3566   -4.0742 H   0  0  0  0  0  0  0  0  0  0  0  0
   -0.7396    7.3154   -2.4585 H   0  0  0  0  0  0  0  0  0  0  0  0
    0.5931    6.4021   -3.1528 H   0  0  0  0  0  0  0  0  0  0  0  0
   -0.6549    4.8041   -6.6135 H   0  0  0  0  0  0  0  0  0  0  0  0
   -1.4890    8.0159   -4.6807 H   0  0  0  0  0  0  0  0  0  0  0  0
    0.2548    8.2742   -4.5756 H   0  0  0  0  0  0  0  0  0  0  0  0
  1  2  1  0  0  0  0 
  2  4  1  0  0  0  0 
  2  5  2  0  0  0  0 
  3  1  1  0  0  0  0 
  3  6  1  0  0  0  0 
  7  3  1  0  0  0  0 
  3  8  1  0  0  0  0 
  4  9  1  0  0  0  0 
  6 10  1  0  0  0  0 
  6 11  2  0  0  0  0 
  7 12  1  0  0  0  0 
 13  7  1  0  0  0  0 
  7 14  1  0  0  0  0 
  8 15  1  0  0  0  0 
  9 16  1  0  0  0  0 
 10 17  1  0  0  0  0 
 13 15  1  0  0  0  0 
 18 13  1  0  0  0  0 
 19 14  1  0  0  0  0 
 20 18  1  0  0  0  0 
 18 21  1  0  0  0  0 
 20 19  1  0  0  0  0 
 19 22  1  0  0  0  0 
 20 23  1  0  0  0  0 
 21 24  1  0  0  0  0 
 23 25  1  0  0  0  0 
 23 26  1  0  0  0  0 
 23 27  1  0  0  0  0 
 24 26  1  0  0  0  0 
 26 28  2  0  0  0  0 
 27 29  1  0  0  0  0 
 28 30  1  0  0  0  0 
 29 30  1  0  0  0  0 
 30 31  2  0  0  0  0 
 32  4  1  0  0  0  0 
 33  4  1  0  0  0  0 
 34  8  1  0  0  0  0 
 35  8  1  0  0  0  0 
 36  9  1  0  0  0  0 
 37  9  1  0  0  0  0 
 38 10  1  0  0  0  0 
 39 10  1  0  0  0  0 
 40 12  1  0  0  0  0 
 41 12  1  0  0  0  0 
 42 12  1  0  0  0  0 
 13 43  1  0  0  0  0 
 44 14  1  0  0  0  0 
 45 14  1  0  0  0  0 
 46 15  1  0  0  0  0 
 47 15  1  0  0  0  0 
 48 16  1  0  0  0  0 
 49 16  1  0  0  0  0 
 50 16  1  0  0  0  0 
 51 17  1  0  0  0  0 
 18 52  1  0  0  0  0 
 19 53  1  0  0  0  0 
 20 54  1  0  0  0  0 
 55 21  1  0  0  0  0 
 56 21  1  0  0  0  0 
 57 22  1  0  0  0  0 
 58 24  1  0  0  0  0 
 59 24  1  0  0  0  0 
 60 25  1  0  0  0  0 
 61 25  1  0  0  0  0 
 62 25  1  0  0  0  0 
 63 27  1  0  0  0  0 
 64 27  1  0  0  0  0 
 65 28  1  0  0  0  0 
 66 29  1  0  0  0  0 
 67 29  1  0  0  0  0 
M  END
> <cdk:Title>
hydrocortisone butyrate

> <Conformer>
1

> <SuperDrugID>
SD003308

$$$$
