ethyl nitrite
  Mrv0541 09131710093D               3.28692

 10  9  0  0  0  0            999 V2000
   -2.7934    2.1600    0.0000 C   0  0  0  0  0  0  0  0  0  0  0  0
   -2.0287    0.8262    0.0000 C   0  0  2  0  0  0  0  0  0  0  0  0
   -0.6179    1.0943   -0.0000 O   0  0  0  0  0  0  0  0  0  0  0  0
    0.0284   -0.0031   -0.0000 N   0  0  0  0  0  0  0  0  0  0  0  0
    1.1935   -0.0052   -0.0000 O   0  0  0  0  0  0  0  0  0  0  0  0
   -2.5392    2.7415   -0.8877 H   0  0  0  0  0  0  0  0  0  0  0  0
   -3.8675    1.9725    0.0000 H   0  0  0  0  0  0  0  0  0  0  0  0
   -2.5392    2.7415    0.8877 H   0  0  0  0  0  0  0  0  0  0  0  0
   -2.3177    0.2605   -0.8915 H   0  0  0  0  0  0  0  0  0  0  0  0
   -2.3177    0.2605    0.8915 H   0  0  0  0  0  0  0  0  0  0  0  0
  1  2  1  0  0  0  0
  2  3  1  0  0  0  0
  3  4  1  0  0  0  0
  4  5  2  0  0  0  0
  1  6  1  0  0  0  0
  1  7  1  0  0  0  0
  1  8  1  0  0  0  0
  2  9  1  0  0  0  0
  2 10  1  0  0  0  0
M  END
>  <SuperDrugID>
SD006023

>  <_MOLCOUNT>
1

$$$$
