carubicin
  CDK     0628171802

 64 68  0  0  0  0  0  0  0  0999 V2000
   -5.6167   -5.9405   -5.1065 O   0  0  0  0  0  0  0  0  0  0  0  0
   -6.9063   -5.2753   -5.2098 C   0  0  2  0  0  0  0  0  0  0  0  0
   -5.5629   -7.1505   -4.3045 C   0  0  1  0  0  0  0  0  0  0  0  0
   -6.8908   -4.3302   -6.3825 C   0  0  0  0  0  0  0  0  0  0  0  0
   -7.2735   -4.6102   -3.8481 C   0  0  2  0  0  0  0  0  0  0  0  0
   -4.3597   -8.0433   -4.7140 C   0  0  1  0  0  0  0  0  0  0  0  0
   -5.5365   -6.8720   -2.8836 O   0  0  0  0  0  0  0  0  0  0  0  0
   -7.2897   -2.9728   -6.2549 C   0  0  0  0  0  0  0  0  0  0  0  0
   -6.5138   -4.8082   -7.6649 C   0  0  0  0  0  0  0  0  0  0  0  0
   -8.3780   -3.5348   -3.9940 C   0  0  1  0  0  0  0  0  0  0  0  0
   -3.0106   -7.5126   -4.1603 C   0  0  2  0  0  0  0  0  0  0  0  0
   -4.3296   -6.2362   -2.4007 C   0  0  2  0  0  0  0  0  0  0  0  0
   -7.1705   -2.1000   -7.3615 C   0  0  0  0  0  0  0  0  0  0  0  0
   -7.8404   -2.4449   -4.9690 C   0  0  2  0  0  0  0  0  0  0  0  0
   -6.2386   -6.1392   -7.7714 O   0  0  0  0  0  0  0  0  0  0  0  0
   -6.4174   -3.9429   -8.7947 C   0  0  0  0  0  0  0  0  0  0  0  0
   -9.6894   -4.1421   -4.4011 C   0  0  0  0  0  0  0  0  0  0  0  0
   -8.5522   -2.9050   -2.7219 O   0  0  0  0  0  0  0  0  0  0  0  0
   -1.9460   -8.4973   -4.4066 N   0  0  1  0  0  0  0  0  0  0  0  0
   -3.1156   -7.1791   -2.6454 C   0  0  1  0  0  0  0  0  0  0  0  0
   -4.5218   -5.8528   -0.9122 C   0  0  0  0  0  0  0  0  0  0  0  0
   -7.4857   -0.7899   -7.1691 O   0  0  0  0  0  0  0  0  0  0  0  0
   -6.7450   -2.5646   -8.6361 C   0  0  0  0  0  0  0  0  0  0  0  0
   -5.9814   -4.4081  -10.0873 C   0  0  0  0  0  0  0  0  0  0  0  0
  -10.4535   -5.0373   -3.5067 C   0  0  0  0  0  0  0  0  0  0  0  0
  -10.1888   -3.8983   -5.5253 O   0  0  0  0  0  0  0  0  0  0  0  0
   -3.2454   -8.3832   -1.8841 O   0  0  0  0  0  0  0  0  0  0  0  0
   -6.6450   -1.6850   -9.7687 C   0  0  0  0  0  0  0  0  0  0  0  0
   -5.6996   -5.6181  -10.2504 O   0  0  0  0  0  0  0  0  0  0  0  0
   -5.8511   -3.5251  -11.2089 C   0  0  0  0  0  0  0  0  0  0  0  0
   -6.9182   -0.4650   -9.6530 O   0  0  0  0  0  0  0  0  0  0  0  0
   -6.2149   -2.1584  -11.0454 C   0  0  0  0  0  0  0  0  0  0  0  0
   -5.3608   -3.9578  -12.4771 C   0  0  0  0  0  0  0  0  0  0  0  0
   -6.1248   -1.2796  -12.1567 C   0  0  0  0  0  0  0  0  0  0  0  0
   -4.9438   -5.2327  -12.7047 O   0  0  0  0  0  0  0  0  0  0  0  0
   -5.2905   -3.0649  -13.5636 C   0  0  0  0  0  0  0  0  0  0  0  0
   -5.6755   -1.7291  -13.4047 C   0  0  0  0  0  0  0  0  0  0  0  0
   -6.4569   -7.7523   -4.4982 H   0  0  0  0  0  0  0  0  0  0  0  0
   -7.6814   -6.0136   -5.4455 H   0  0  0  0  0  0  0  0  0  0  0  0
   -6.3780   -4.1420   -3.4256 H   0  0  0  0  0  0  0  0  0  0  0  0
   -7.6064   -5.3710   -3.1377 H   0  0  0  0  0  0  0  0  0  0  0  0
   -4.5355   -9.0516   -4.3272 H   0  0  0  0  0  0  0  0  0  0  0  0
   -4.3090   -8.1105   -5.8032 H   0  0  0  0  0  0  0  0  0  0  0  0
   -2.7427   -6.6023   -4.7044 H   0  0  0  0  0  0  0  0  0  0  0  0
   -4.1548   -5.2964   -2.9381 H   0  0  0  0  0  0  0  0  0  0  0  0
   -8.6657   -1.7526   -5.1605 H   0  0  0  0  0  0  0  0  0  0  0  0
   -7.0470   -1.8686   -4.4860 H   0  0  0  0  0  0  0  0  0  0  0  0
   -6.7458   -6.4499   -8.5495 H   0  0  0  0  0  0  0  0  0  0  0  0
   -9.2439   -2.2258   -2.8655 H   0  0  0  0  0  0  0  0  0  0  0  0
   -1.8423   -8.5807   -5.4198 H   0  0  0  0  0  0  0  0  0  0  0  0
   -1.0735   -8.1039   -4.0481 H   0  0  0  0  0  0  0  0  0  0  0  0
   -2.2000   -6.6719   -2.3303 H   0  0  0  0  0  0  0  0  0  0  0  0
   -3.6003   -5.4229   -0.5118 H   0  0  0  0  0  0  0  0  0  0  0  0
   -5.3150   -5.1077   -0.8175 H   0  0  0  0  0  0  0  0  0  0  0  0
   -4.7961   -6.7235   -0.3148 H   0  0  0  0  0  0  0  0  0  0  0  0
   -6.6246   -0.3364   -7.0521 H   0  0  0  0  0  0  0  0  0  0  0  0
  -10.4868   -4.6227   -2.4986 H   0  0  0  0  0  0  0  0  0  0  0  0
   -9.9846   -6.0221   -3.4810 H   0  0  0  0  0  0  0  0  0  0  0  0
  -11.4826   -5.1560   -3.8553 H   0  0  0  0  0  0  0  0  0  0  0  0
   -3.2527   -8.1000   -0.9459 H   0  0  0  0  0  0  0  0  0  0  0  0
   -6.3826   -0.2925  -12.0740 H   0  0  0  0  0  0  0  0  0  0  0  0
   -4.5198   -5.2299  -13.5901 H   0  0  0  0  0  0  0  0  0  0  0  0
   -4.9531   -3.3852  -14.4755 H   0  0  0  0  0  0  0  0  0  0  0  0
   -5.6268   -1.0850  -14.1969 H   0  0  0  0  0  0  0  0  0  0  0  0
  3  1  1  0  0  0  0 
  2  1  1  0  0  0  0 
  2  4  1  0  0  0  0 
  2  5  1  0  0  0  0 
  3  6  1  0  0  0  0 
  3  7  1  0  0  0  0 
  3 38  1  0  0  0  0 
  4  8  2  0  0  0  0 
  4  9  1  0  0  0  0 
 10  5  1  0  0  0  0 
 11  6  1  0  0  0  0 
 12  7  1  0  0  0  0 
  8 13  1  0  0  0  0 
  8 14  1  0  0  0  0 
  9 15  1  0  0  0  0 
  9 16  2  0  0  0  0 
 10 14  1  0  0  0  0 
 10 17  1  0  0  0  0 
 10 18  1  0  0  0  0 
 11 19  1  0  0  0  0 
 20 11  1  0  0  0  0 
 12 20  1  0  0  0  0 
 12 21  1  0  0  0  0 
 13 22  1  0  0  0  0 
 13 23  2  0  0  0  0 
 16 23  1  0  0  0  0 
 16 24  1  0  0  0  0 
 17 25  1  0  0  0  0 
 17 26  2  0  0  0  0 
 20 27  1  0  0  0  0 
 23 28  1  0  0  0  0 
 24 29  2  0  0  0  0 
 24 30  1  0  0  0  0 
 28 31  2  0  0  0  0 
 28 32  1  0  0  0  0 
 30 32  2  0  0  0  0 
 30 33  1  0  0  0  0 
 32 34  1  0  0  0  0 
 33 35  1  0  0  0  0 
 33 36  2  0  0  0  0 
 34 37  2  0  0  0  0 
 36 37  1  0  0  0  0 
  2 39  1  0  0  0  0 
  5 40  1  0  0  0  0 
  5 41  1  0  0  0  0 
  6 42  1  0  0  0  0 
  6 43  1  0  0  0  0 
 11 44  1  0  0  0  0 
 12 45  1  0  0  0  0 
 14 46  1  0  0  0  0 
 14 47  1  0  0  0  0 
 15 48  1  0  0  0  0 
 18 49  1  0  0  0  0 
 19 50  1  0  0  0  0 
 19 51  1  0  0  0  0 
 20 52  1  0  0  0  0 
 21 53  1  0  0  0  0 
 21 54  1  0  0  0  0 
 21 55  1  0  0  0  0 
 22 56  1  0  0  0  0 
 25 57  1  0  0  0  0 
 25 58  1  0  0  0  0 
 25 59  1  0  0  0  0 
 27 60  1  0  0  0  0 
 34 61  1  0  0  0  0 
 35 62  1  0  0  0  0 
 36 63  1  0  0  0  0 
 37 64  1  0  0  0  0 
M  END
> <cdk:Title>
carubicin

> <Conformer>
1

> <SuperDrugID>
SD000440

$$$$
