flunarizine
  CDK     0628171801

 56 59  0  0  0  0  0  0  0  0999 V2000
   -2.8133   -5.1511    4.9317 C   0  0  2  0  0  0  0  0  0  0  0  0
   -3.5476   -3.9207    4.4494 N   0  0  1  0  0  0  0  0  0  0  0  0
   -3.6907   -6.3595    5.0956 C   0  0  0  0  0  0  0  0  0  0  0  0
   -2.0429   -4.9526    6.2032 C   0  0  0  0  0  0  0  0  0  0  0  0
   -2.6563   -2.7298    4.2212 C   0  0  2  0  0  0  0  0  0  0  0  0
   -4.4116   -4.1540    3.2422 C   0  0  1  0  0  0  0  0  0  0  0  0
   -4.7540   -6.3938    6.0338 C   0  0  0  0  0  0  0  0  0  0  0  0
   -3.4925   -7.4989    4.2758 C   0  0  0  0  0  0  0  0  0  0  0  0
   -2.5582   -4.1780    7.2730 C   0  0  0  0  0  0  0  0  0  0  0  0
   -0.7656   -5.5447    6.3620 C   0  0  0  0  0  0  0  0  0  0  0  0
   -3.4789   -1.4677    3.8716 C   0  0  2  0  0  0  0  0  0  0  0  0
   -5.2313   -2.8941    2.8815 C   0  0  2  0  0  0  0  0  0  0  0  0
   -5.5855   -7.5234    6.1469 C   0  0  0  0  0  0  0  0  0  0  0  0
   -4.3279   -8.6246    4.3809 C   0  0  0  0  0  0  0  0  0  0  0  0
   -1.8095   -3.9759    8.4464 C   0  0  0  0  0  0  0  0  0  0  0  0
   -0.0126   -5.3376    7.5319 C   0  0  0  0  0  0  0  0  0  0  0  0
   -4.3388   -1.7111    2.6731 N   0  0  1  0  0  0  0  0  0  0  0  0
   -5.3794   -8.6380    5.3142 C   0  0  0  0  0  0  0  0  0  0  0  0
   -0.5310   -4.5483    8.5740 C   0  0  0  0  0  0  0  0  0  0  0  0
   -5.0456   -0.4700    2.2236 C   0  0  1  0  0  0  0  0  0  0  0  0
   -6.1624   -9.6795    5.4029 F   0  0  0  0  0  0  0  0  0  0  0  0
    0.1723   -4.3464    9.6551 F   0  0  0  0  0  0  0  0  0  0  0  0
   -5.7724   -0.6336    0.9720 C   0  0  0  0  0  0  0  0  0  0  0  0
   -5.1735   -0.7929   -0.2244 C   0  0  0  0  0  0  0  0  0  0  0  0
   -5.8144   -1.0308   -1.4498 C   0  0  0  0  0  0  0  0  0  0  0  0
   -5.1055   -0.7891   -2.6565 C   0  0  0  0  0  0  0  0  0  0  0  0
   -7.1353   -1.5461   -1.5596 C   0  0  0  0  0  0  0  0  0  0  0  0
   -5.6748   -1.0816   -3.9112 C   0  0  0  0  0  0  0  0  0  0  0  0
   -7.7052   -1.8370   -2.8137 C   0  0  0  0  0  0  0  0  0  0  0  0
   -6.9709   -1.6180   -3.9901 C   0  0  0  0  0  0  0  0  0  0  0  0
   -2.0813   -5.3638    4.1446 H   0  0  0  0  0  0  0  0  0  0  0  0
   -1.9547   -2.9351    3.4087 H   0  0  0  0  0  0  0  0  0  0  0  0
   -2.0668   -2.4934    5.1095 H   0  0  0  0  0  0  0  0  0  0  0  0
   -3.7950   -4.4456    2.3863 H   0  0  0  0  0  0  0  0  0  0  0  0
   -5.1323   -4.9555    3.4199 H   0  0  0  0  0  0  0  0  0  0  0  0
   -4.9402   -5.5957    6.6427 H   0  0  0  0  0  0  0  0  0  0  0  0
   -2.7400   -7.5185    3.5832 H   0  0  0  0  0  0  0  0  0  0  0  0
   -3.4799   -3.7400    7.2022 H   0  0  0  0  0  0  0  0  0  0  0  0
   -0.3706   -6.1327    5.6240 H   0  0  0  0  0  0  0  0  0  0  0  0
   -2.7776   -0.6521    3.6766 H   0  0  0  0  0  0  0  0  0  0  0  0
   -4.0932   -1.1879    4.7348 H   0  0  0  0  0  0  0  0  0  0  0  0
   -5.9505   -2.6894    3.6801 H   0  0  0  0  0  0  0  0  0  0  0  0
   -5.7913   -3.1202    1.9703 H   0  0  0  0  0  0  0  0  0  0  0  0
   -6.3455   -7.5269    6.8310 H   0  0  0  0  0  0  0  0  0  0  0  0
   -4.1710   -9.4291    3.7704 H   0  0  0  0  0  0  0  0  0  0  0  0
   -2.1977   -3.4064    9.2018 H   0  0  0  0  0  0  0  0  0  0  0  0
    0.9128   -5.7630    7.6198 H   0  0  0  0  0  0  0  0  0  0  0  0
   -5.7435   -0.1550    3.0062 H   0  0  0  0  0  0  0  0  0  0  0  0
   -4.3240    0.3418    2.0954 H   0  0  0  0  0  0  0  0  0  0  0  0
   -6.7634   -0.6482    1.0343 H   0  0  0  0  0  0  0  0  0  0  0  0
   -4.1796   -0.7416   -0.2344 H   0  0  0  0  0  0  0  0  0  0  0  0
   -4.1598   -0.3943   -2.6353 H   0  0  0  0  0  0  0  0  0  0  0  0
   -7.7023   -1.7356   -0.7311 H   0  0  0  0  0  0  0  0  0  0  0  0
   -5.1420   -0.9063   -4.7673 H   0  0  0  0  0  0  0  0  0  0  0  0
   -8.6521   -2.2151   -2.8726 H   0  0  0  0  0  0  0  0  0  0  0  0
   -7.3775   -1.8467   -4.9014 H   0  0  0  0  0  0  0  0  0  0  0  0
  1  2  1  0  0  0  0 
  1  3  1  0  0  0  0 
  1  4  1  0  0  0  0 
  2  5  1  0  0  0  0 
  2  6  1  0  0  0  0 
  3  7  2  0  0  0  0 
  3  8  1  0  0  0  0 
  4  9  2  0  0  0  0 
  4 10  1  0  0  0  0 
  5 11  1  0  0  0  0 
  6 12  1  0  0  0  0 
  7 13  1  0  0  0  0 
  8 14  2  0  0  0  0 
  9 15  1  0  0  0  0 
 10 16  2  0  0  0  0 
 11 17  1  0  0  0  0 
 12 17  1  0  0  0  0 
 13 18  2  0  0  0  0 
 14 18  1  0  0  0  0 
 15 19  2  0  0  0  0 
 16 19  1  0  0  0  0 
 17 20  1  0  0  0  0 
 18 21  1  0  0  0  0 
 19 22  1  0  0  0  0 
 20 23  1  0  0  0  0 
 23 24  2  0  0  0  0 
 24 25  1  0  0  0  0 
 25 26  2  0  0  0  0 
 25 27  1  0  0  0  0 
 26 28  1  0  0  0  0 
 27 29  2  0  0  0  0 
 28 30  2  0  0  0  0 
 29 30  1  0  0  0  0 
  1 31  1  0  0  0  0 
  5 32  1  0  0  0  0 
  5 33  1  0  0  0  0 
  6 34  1  0  0  0  0 
  6 35  1  0  0  0  0 
  7 36  1  0  0  0  0 
  8 37  1  0  0  0  0 
  9 38  1  0  0  0  0 
 10 39  1  0  0  0  0 
 11 40  1  0  0  0  0 
 11 41  1  0  0  0  0 
 12 42  1  0  0  0  0 
 12 43  1  0  0  0  0 
 13 44  1  0  0  0  0 
 14 45  1  0  0  0  0 
 15 46  1  0  0  0  0 
 16 47  1  0  0  0  0 
 20 48  1  0  0  0  0 
 20 49  1  0  0  0  0 
 23 50  1  0  0  0  0 
 24 51  1  0  0  0  0 
 26 52  1  0  0  0  0 
 27 53  1  0  0  0  0 
 28 54  1  0  0  0  0 
 29 55  1  0  0  0  0 
 30 56  1  0  0  0  0 
M  END
> <cdk:Title>
flunarizine

> <Conformer>
1

> <SuperDrugID>
SD001074

$$$$
