fentanyl
  CDK     0628171801

 53 55  0  0  0  0  0  0  0  0999 V2000
   -5.8785   -3.1657   -0.7067 N   0  0  0  0  0  0  0  0  0  0  0  0
   -5.6111   -4.2986    0.0647 C   0  0  0  0  0  0  0  0  0  0  0  0
   -5.4699   -3.0292   -2.1098 C   0  0  2  0  0  0  0  0  0  0  0  0
   -6.5399   -2.0969   -0.1477 C   0  0  0  0  0  0  0  0  0  0  0  0
   -6.0773   -4.5450    1.4607 C   0  0  1  0  0  0  0  0  0  0  0  0
   -4.9188   -5.2342   -0.4056 O   0  0  0  0  0  0  0  0  0  0  0  0
   -6.0531   -4.1444   -3.0409 C   0  0  2  0  0  0  0  0  0  0  0  0
   -3.9251   -2.8645   -2.2555 C   0  0  1  0  0  0  0  0  0  0  0  0
   -5.8159   -1.0823    0.5189 C   0  0  0  0  0  0  0  0  0  0  0  0
   -7.9434   -1.9876   -0.2488 C   0  0  0  0  0  0  0  0  0  0  0  0
   -7.1619   -5.6461    1.5235 C   0  0  0  0  0  0  0  0  0  0  0  0
   -5.4828   -4.0713   -4.4842 C   0  0  1  0  0  0  0  0  0  0  0  0
   -3.4815   -2.8235   -3.7428 C   0  0  1  0  0  0  0  0  0  0  0  0
   -6.4864    0.0283    1.0676 C   0  0  0  0  0  0  0  0  0  0  0  0
   -8.6125   -0.8709    0.2885 C   0  0  0  0  0  0  0  0  0  0  0  0
   -3.9851   -3.9995   -4.5221 N   0  0  1  0  0  0  0  0  0  0  0  0
   -7.8835    0.1404    0.9416 C   0  0  0  0  0  0  0  0  0  0  0  0
   -3.2364   -5.2746   -4.2496 C   0  0  2  0  0  0  0  0  0  0  0  0
   -3.4242   -6.3927   -5.3123 C   0  0  1  0  0  0  0  0  0  0  0  0
   -3.2466   -5.9510   -6.7247 C   0  0  0  0  0  0  0  0  0  0  0  0
   -4.3135   -6.0267   -7.6538 C   0  0  0  0  0  0  0  0  0  0  0  0
   -1.9921   -5.4722   -7.1753 C   0  0  0  0  0  0  0  0  0  0  0  0
   -4.1354   -5.6241   -8.9905 C   0  0  0  0  0  0  0  0  0  0  0  0
   -1.8141   -5.0642   -8.5114 C   0  0  0  0  0  0  0  0  0  0  0  0
   -2.8860   -5.1419   -9.4181 C   0  0  0  0  0  0  0  0  0  0  0  0
   -5.8806   -2.0959   -2.5224 H   0  0  0  0  0  0  0  0  0  0  0  0
   -5.2228   -4.8571    2.0676 H   0  0  0  0  0  0  0  0  0  0  0  0
   -6.4792   -3.6449    1.9274 H   0  0  0  0  0  0  0  0  0  0  0  0
   -7.1415   -4.0395   -3.0810 H   0  0  0  0  0  0  0  0  0  0  0  0
   -5.8426   -5.1407   -2.6546 H   0  0  0  0  0  0  0  0  0  0  0  0
   -3.6174   -1.9325   -1.7760 H   0  0  0  0  0  0  0  0  0  0  0  0
   -3.3970   -3.6744   -1.7528 H   0  0  0  0  0  0  0  0  0  0  0  0
   -4.7986   -1.1516    0.6037 H   0  0  0  0  0  0  0  0  0  0  0  0
   -8.4817   -2.7206   -0.7155 H   0  0  0  0  0  0  0  0  0  0  0  0
   -7.4611   -5.8112    2.5606 H   0  0  0  0  0  0  0  0  0  0  0  0
   -8.0424   -5.3494    0.9478 H   0  0  0  0  0  0  0  0  0  0  0  0
   -6.7778   -6.5880    1.1262 H   0  0  0  0  0  0  0  0  0  0  0  0
   -5.8470   -4.9257   -5.0563 H   0  0  0  0  0  0  0  0  0  0  0  0
   -5.8859   -3.1835   -4.9796 H   0  0  0  0  0  0  0  0  0  0  0  0
   -3.8562   -1.9048   -4.2042 H   0  0  0  0  0  0  0  0  0  0  0  0
   -2.3906   -2.7672   -3.7918 H   0  0  0  0  0  0  0  0  0  0  0  0
   -5.9570    0.7555    1.5547 H   0  0  0  0  0  0  0  0  0  0  0  0
   -9.6284   -0.7948    0.2024 H   0  0  0  0  0  0  0  0  0  0  0  0
   -8.3700    0.9562    1.3226 H   0  0  0  0  0  0  0  0  0  0  0  0
   -3.5194   -5.6769   -3.2732 H   0  0  0  0  0  0  0  0  0  0  0  0
   -2.1639   -5.0616   -4.1974 H   0  0  0  0  0  0  0  0  0  0  0  0
   -2.6980   -7.1858   -5.1149 H   0  0  0  0  0  0  0  0  0  0  0  0
   -4.4101   -6.8374   -5.1641 H   0  0  0  0  0  0  0  0  0  0  0  0
   -5.2301   -6.3812   -7.3694 H   0  0  0  0  0  0  0  0  0  0  0  0
   -1.1962   -5.4242   -6.5346 H   0  0  0  0  0  0  0  0  0  0  0  0
   -4.9130   -5.6854   -9.6523 H   0  0  0  0  0  0  0  0  0  0  0  0
   -0.9047   -4.7154   -8.8246 H   0  0  0  0  0  0  0  0  0  0  0  0
   -2.7580   -4.8530  -10.3906 H   0  0  0  0  0  0  0  0  0  0  0  0
  1  2  1  0  0  0  0 
  1  3  1  0  0  0  0 
  1  4  1  0  0  0  0 
  2  5  1  0  0  0  0 
  2  6  2  0  0  0  0 
  3  7  1  0  0  0  0 
  3  8  1  0  0  0  0 
  4  9  2  0  0  0  0 
  4 10  1  0  0  0  0 
  5 11  1  0  0  0  0 
  7 12  1  0  0  0  0 
  8 13  1  0  0  0  0 
  9 14  1  0  0  0  0 
 10 15  2  0  0  0  0 
 12 16  1  0  0  0  0 
 13 16  1  0  0  0  0 
 14 17  2  0  0  0  0 
 15 17  1  0  0  0  0 
 16 18  1  0  0  0  0 
 18 19  1  0  0  0  0 
 19 20  1  0  0  0  0 
 20 21  2  0  0  0  0 
 20 22  1  0  0  0  0 
 21 23  1  0  0  0  0 
 22 24  2  0  0  0  0 
 23 25  2  0  0  0  0 
 24 25  1  0  0  0  0 
  3 26  1  0  0  0  0 
  5 27  1  0  0  0  0 
  5 28  1  0  0  0  0 
  7 29  1  0  0  0  0 
  7 30  1  0  0  0  0 
  8 31  1  0  0  0  0 
  8 32  1  0  0  0  0 
  9 33  1  0  0  0  0 
 10 34  1  0  0  0  0 
 11 35  1  0  0  0  0 
 11 36  1  0  0  0  0 
 11 37  1  0  0  0  0 
 12 38  1  0  0  0  0 
 12 39  1  0  0  0  0 
 13 40  1  0  0  0  0 
 13 41  1  0  0  0  0 
 14 42  1  0  0  0  0 
 15 43  1  0  0  0  0 
 17 44  1  0  0  0  0 
 18 45  1  0  0  0  0 
 18 46  1  0  0  0  0 
 19 47  1  0  0  0  0 
 19 48  1  0  0  0  0 
 21 49  1  0  0  0  0 
 22 50  1  0  0  0  0 
 23 51  1  0  0  0  0 
 24 52  1  0  0  0  0 
 25 53  1  0  0  0  0 
M  END
> <cdk:Title>
fentanyl

> <Conformer>
1

> <SuperDrugID>
SD001041

$$$$
