diacerein
  CDK     0628171802

 39 41  0  0  0  0  0  0  0  0999 V2000
   -2.3550   -1.6783    0.6634 O   0  0  0  0  0  0  0  0  0  0  0  0
   -2.1930   -2.9670    1.0944 C   0  0  0  0  0  0  0  0  0  0  0  0
   -2.8661   -1.1021   -0.4773 C   0  0  0  0  0  0  0  0  0  0  0  0
   -1.4758   -3.1649    2.3619 C   0  0  0  0  0  0  0  0  0  0  0  0
   -2.6609   -3.9559    0.4837 O   0  0  0  0  0  0  0  0  0  0  0  0
   -3.2562    0.2687   -0.4437 C   0  0  0  0  0  0  0  0  0  0  0  0
   -2.9490   -1.8218   -1.6881 C   0  0  0  0  0  0  0  0  0  0  0  0
   -3.7159    0.8937   -1.6367 C   0  0  0  0  0  0  0  0  0  0  0  0
   -3.1971    1.0537    0.7558 C   0  0  0  0  0  0  0  0  0  0  0  0
   -3.4134   -1.2239   -2.8792 C   0  0  0  0  0  0  0  0  0  0  0  0
   -4.0706    2.2791   -1.6219 C   0  0  0  0  0  0  0  0  0  0  0  0
   -3.7944    0.1348   -2.8302 C   0  0  0  0  0  0  0  0  0  0  0  0
   -3.0888    0.4727    1.8621 O   0  0  0  0  0  0  0  0  0  0  0  0
   -3.3152    2.4819    0.7184 C   0  0  0  0  0  0  0  0  0  0  0  0
   -3.4765   -1.9583   -4.0963 C   0  0  0  0  0  0  0  0  0  0  0  0
   -4.6234    2.7906   -2.6261 O   0  0  0  0  0  0  0  0  0  0  0  0
   -3.7830    3.0909   -0.4828 C   0  0  0  0  0  0  0  0  0  0  0  0
   -2.9924    3.3010    1.8411 C   0  0  0  0  0  0  0  0  0  0  0  0
   -3.6806   -1.3471   -5.2902 O   0  0  0  0  0  0  0  0  0  0  0  0
   -3.3377   -3.2027   -4.1267 O   0  0  0  0  0  0  0  0  0  0  0  0
   -3.9377    4.4990   -0.5331 C   0  0  0  0  0  0  0  0  0  0  0  0
   -2.5165    2.7097    2.9881 O   0  0  0  0  0  0  0  0  0  0  0  0
   -3.1325    4.7034    1.7465 C   0  0  0  0  0  0  0  0  0  0  0  0
   -3.6082    5.2976    0.5706 C   0  0  0  0  0  0  0  0  0  0  0  0
   -2.5621    3.0720    4.3066 C   0  0  0  0  0  0  0  0  0  0  0  0
   -1.8676    2.2397    5.2999 C   0  0  0  0  0  0  0  0  0  0  0  0
   -3.2314    4.0519    4.7084 O   0  0  0  0  0  0  0  0  0  0  0  0
   -1.4567   -4.2167    2.6560 H   0  0  0  0  0  0  0  0  0  0  0  0
   -0.4490   -2.8131    2.2420 H   0  0  0  0  0  0  0  0  0  0  0  0
   -1.9612   -2.5907    3.1537 H   0  0  0  0  0  0  0  0  0  0  0  0
   -2.6374   -2.7932   -1.7097 H   0  0  0  0  0  0  0  0  0  0  0  0
   -4.1286    0.5845   -3.6864 H   0  0  0  0  0  0  0  0  0  0  0  0
   -3.7089   -1.8747   -6.1169 H   0  0  0  0  0  0  0  0  0  0  0  0
   -4.2806    4.9638   -1.3785 H   0  0  0  0  0  0  0  0  0  0  0  0
   -2.8760    5.3094    2.5270 H   0  0  0  0  0  0  0  0  0  0  0  0
   -3.7090    6.3140    0.5160 H   0  0  0  0  0  0  0  0  0  0  0  0
   -1.2940    1.4502    4.8110 H   0  0  0  0  0  0  0  0  0  0  0  0
   -2.5974    1.7791    5.9693 H   0  0  0  0  0  0  0  0  0  0  0  0
   -1.1838    2.8550    5.8871 H   0  0  0  0  0  0  0  0  0  0  0  0
  1  2  1  0  0  0  0 
  1  3  1  0  0  0  0 
  2  4  1  0  0  0  0 
  2  5  2  0  0  0  0 
  3  6  2  0  0  0  0 
  3  7  1  0  0  0  0 
  6  8  1  0  0  0  0 
  6  9  1  0  0  0  0 
  7 10  2  0  0  0  0 
  8 11  1  0  0  0  0 
  8 12  2  0  0  0  0 
  9 13  2  0  0  0  0 
  9 14  1  0  0  0  0 
 10 12  1  0  0  0  0 
 10 15  1  0  0  0  0 
 11 16  2  0  0  0  0 
 11 17  1  0  0  0  0 
 14 17  2  0  0  0  0 
 14 18  1  0  0  0  0 
 15 19  1  0  0  0  0 
 15 20  2  0  0  0  0 
 17 21  1  0  0  0  0 
 18 22  1  0  0  0  0 
 18 23  2  0  0  0  0 
 21 24  2  0  0  0  0 
 22 25  1  0  0  0  0 
 23 24  1  0  0  0  0 
 25 26  1  0  0  0  0 
 25 27  2  0  0  0  0 
  4 28  1  0  0  0  0 
  4 29  1  0  0  0  0 
  4 30  1  0  0  0  0 
  7 31  1  0  0  0  0 
 12 32  1  0  0  0  0 
 19 33  1  0  0  0  0 
 21 34  1  0  0  0  0 
 23 35  1  0  0  0  0 
 24 36  1  0  0  0  0 
 26 37  1  0  0  0  0 
 26 38  1  0  0  0  0 
 26 39  1  0  0  0  0 
M  END
> <cdk:Title>
diacerein

> <Conformer>
1

> <SuperDrugID>
SD000752

$$$$
