dronabinol
  CDK     0628171801

 53 55  0  0  0  0  0  0  0  0999 V2000
    4.6580   -2.0111   -0.0309 O   0  0  0  0  0  0  0  0  0  0  0  0
    3.8341   -1.0145   -0.4294 C   0  0  0  0  0  0  0  0  0  0  0  0
    4.2440    0.1363   -1.1634 C   0  0  0  0  0  0  0  0  0  0  0  0
    2.4855   -1.1884   -0.0510 C   0  0  0  0  0  0  0  0  0  0  0  0
    5.6241    0.5215   -1.6537 C   0  0  1  0  0  0  0  0  0  0  0  0
    3.2447    1.1013   -1.4579 C   0  0  0  0  0  0  0  0  0  0  0  0
    1.5030   -0.2263   -0.3707 C   0  0  0  0  0  0  0  0  0  0  0  0
    5.8974    1.9935   -1.1510 C   0  0  2  0  0  0  0  0  0  0  0  0
    6.7655   -0.3615   -1.3762 C   0  0  0  0  0  0  0  0  0  0  0  0
    3.5706    2.2525   -2.1217 O   0  0  0  0  0  0  0  0  0  0  0  0
    1.9040    0.9229   -1.0803 C   0  0  0  0  0  0  0  0  0  0  0  0
    0.0824   -0.3980    0.0470 C   0  0  2  0  0  0  0  0  0  0  0  0
    4.7290    2.9802   -1.6256 C   0  0  2  0  0  0  0  0  0  0  0  0
    7.3870    2.4731   -1.3444 C   0  0  1  0  0  0  0  0  0  0  0  0
    8.0488    0.0468   -1.4703 C   0  0  0  0  0  0  0  0  0  0  0  0
   -0.3011    0.4331    1.3038 C   0  0  2  0  0  0  0  0  0  0  0  0
    8.3377    1.3998   -1.9372 C   0  0  2  0  0  0  0  0  0  0  0  0
    9.1662   -0.8453   -1.1774 C   0  0  0  0  0  0  0  0  0  0  0  0
    0.4874    0.0175    2.5778 C   0  0  2  0  0  0  0  0  0  0  0  0
    0.0224    0.7702    3.8509 C   0  0  1  0  0  0  0  0  0  0  0  0
    0.8786    0.4279    5.0909 C   0  0  0  0  0  0  0  0  0  0  0  0
    5.5642    0.5515   -2.7480 H   0  0  0  0  0  0  0  0  0  0  0  0
    5.8037    1.9015   -0.0598 H   0  0  0  0  0  0  0  0  0  0  0  0
    5.0635    3.8929   -2.8475 C   0  0  0  0  0  0  0  0  0  0  0  0
    4.2457    3.8963   -0.4565 C   0  0  0  0  0  0  0  0  0  0  0  0
    5.3931   -1.5750    0.4456 H   0  0  0  0  0  0  0  0  0  0  0  0
    2.2200   -2.0202    0.4849 H   0  0  0  0  0  0  0  0  0  0  0  0
    6.6009   -1.3098   -1.1573 H   0  0  0  0  0  0  0  0  0  0  0  0
    1.2171    1.6419   -1.3231 H   0  0  0  0  0  0  0  0  0  0  0  0
   -0.1326   -1.4514    0.2465 H   0  0  0  0  0  0  0  0  0  0  0  0
   -0.5695   -0.1086   -0.7824 H   0  0  0  0  0  0  0  0  0  0  0  0
    7.4700    3.3495   -1.9829 H   0  0  0  0  0  0  0  0  0  0  0  0
    7.7909    2.7789   -0.3730 H   0  0  0  0  0  0  0  0  0  0  0  0
   -1.3699    0.2929    1.4887 H   0  0  0  0  0  0  0  0  0  0  0  0
   -0.1413    1.4962    1.1013 H   0  0  0  0  0  0  0  0  0  0  0  0
    9.3667    1.6923   -1.7077 H   0  0  0  0  0  0  0  0  0  0  0  0
    8.2449    1.3997   -3.0264 H   0  0  0  0  0  0  0  0  0  0  0  0
    9.7641   -0.4205   -0.3703 H   0  0  0  0  0  0  0  0  0  0  0  0
    9.7967   -0.9504   -2.0618 H   0  0  0  0  0  0  0  0  0  0  0  0
    8.8485   -1.8431   -0.8685 H   0  0  0  0  0  0  0  0  0  0  0  0
    1.5506    0.2199    2.4221 H   0  0  0  0  0  0  0  0  0  0  0  0
    0.3634   -1.0579    2.7378 H   0  0  0  0  0  0  0  0  0  0  0  0
    0.0830    1.8479    3.6779 H   0  0  0  0  0  0  0  0  0  0  0  0
   -1.0199    0.5148    4.0621 H   0  0  0  0  0  0  0  0  0  0  0  0
    0.5195    0.9946    5.9514 H   0  0  0  0  0  0  0  0  0  0  0  0
    1.9248    0.6892    4.9186 H   0  0  0  0  0  0  0  0  0  0  0  0
    0.8112   -0.6375    5.3196 H   0  0  0  0  0  0  0  0  0  0  0  0
    5.4897    3.3021   -3.6587 H   0  0  0  0  0  0  0  0  0  0  0  0
    5.7687    4.6821   -2.5797 H   0  0  0  0  0  0  0  0  0  0  0  0
    4.1603    4.3820   -3.2266 H   0  0  0  0  0  0  0  0  0  0  0  0
    3.4073    4.5220   -0.7721 H   0  0  0  0  0  0  0  0  0  0  0  0
    3.9100    3.2923    0.3884 H   0  0  0  0  0  0  0  0  0  0  0  0
    5.0565    4.5451   -0.1168 H   0  0  0  0  0  0  0  0  0  0  0  0
  1  2  1  0  0  0  0 
  2  3  2  0  0  0  0 
  2  4  1  0  0  0  0 
  5  3  1  0  0  0  0 
  3  6  1  0  0  0  0 
  4  7  2  0  0  0  0 
  8  5  1  0  0  0  0 
  5  9  1  0  0  0  0 
  5 22  1  0  0  0  0 
  6 10  1  0  0  0  0 
  6 11  2  0  0  0  0 
  7 11  1  0  0  0  0 
  7 12  1  0  0  0  0 
  8 13  1  0  0  0  0 
  8 14  1  0  0  0  0 
  8 23  1  0  0  0  0 
  9 15  2  0  0  0  0 
 10 13  1  0  0  0  0 
 12 16  1  0  0  0  0 
 14 17  1  0  0  0  0 
 15 17  1  0  0  0  0 
 15 18  1  0  0  0  0 
 16 19  1  0  0  0  0 
 19 20  1  0  0  0  0 
 20 21  1  0  0  0  0 
 13 24  1  0  0  0  0 
 13 25  1  0  0  0  0 
  1 26  1  0  0  0  0 
  4 27  1  0  0  0  0 
  9 28  1  0  0  0  0 
 11 29  1  0  0  0  0 
 12 30  1  0  0  0  0 
 12 31  1  0  0  0  0 
 14 32  1  0  0  0  0 
 14 33  1  0  0  0  0 
 16 34  1  0  0  0  0 
 16 35  1  0  0  0  0 
 17 36  1  0  0  0  0 
 17 37  1  0  0  0  0 
 18 38  1  0  0  0  0 
 18 39  1  0  0  0  0 
 18 40  1  0  0  0  0 
 19 41  1  0  0  0  0 
 19 42  1  0  0  0  0 
 20 43  1  0  0  0  0 
 20 44  1  0  0  0  0 
 21 45  1  0  0  0  0 
 21 46  1  0  0  0  0 
 21 47  1  0  0  0  0 
 24 48  1  0  0  0  0 
 24 49  1  0  0  0  0 
 24 50  1  0  0  0  0 
 25 51  1  0  0  0  0 
 25 52  1  0  0  0  0 
 25 53  1  0  0  0  0 
M  END
> <cdk:Title>
dronabinol

> <Conformer>
1

> <SuperDrugID>
SD003354

$$$$
