vindesine
  CDK     0628171801

110118  0  0  0  0  0  0  0  0999 V2000
   -6.9991    2.5040    1.1861 C   0  0  2  0  0  0  0  0  0  0  0  0
   -7.8256    2.9918    2.4117 C   0  0  0  0  0  0  0  0  0  0  0  0
   -7.7823    1.8818   -0.0394 C   0  0  1  0  0  0  0  0  0  0  0  0
   -6.7282    1.5639   -1.1756 C   0  0  1  0  0  0  0  0  0  0  0  0
   -8.6253    0.5763    0.2827 C   0  0  1  0  0  0  0  0  0  0  0  0
   -8.7397    2.9166   -0.5126 C   0  0  0  0  0  0  0  0  0  0  0  0
   -5.9414    0.2165   -1.1395 C   0  0  1  0  0  0  0  0  0  0  0  0
   -7.4497    1.4586   -2.4680 N   0  0  2  0  0  0  0  0  0  0  0  0
   -9.5421    0.3208   -0.7941 O   0  0  0  0  0  0  0  0  0  0  0  0
   -7.8204   -0.7514    0.5418 C   0  0  1  0  0  0  0  0  0  0  0  0
   -8.9093    3.2845   -1.7949 C   0  0  0  0  0  0  0  0  0  0  0  0
   -4.7336    0.0358   -0.2961 C   0  0  0  0  0  0  0  0  0  0  0  0
   -6.8037   -1.0066   -0.6484 C   0  0  2  0  0  0  0  0  0  0  0  0
   -5.5026    0.0899   -2.6357 C   0  0  1  0  0  0  0  0  0  0  0  0
   -6.5908    0.7956   -3.4657 C   0  0  1  0  0  0  0  0  0  0  0  0
   -8.1755    2.6856   -2.8915 C   0  0  2  0  0  0  0  0  0  0  0  0
   -7.2952   -0.8961    1.9481 C   0  0  0  0  0  0  0  0  0  0  0  0
   -8.7630   -1.8334    0.4757 O   0  0  0  0  0  0  0  0  0  0  0  0
   -4.7173   -1.2633    0.1949 C   0  0  0  0  0  0  0  0  0  0  0  0
   -3.6396    0.8915   -0.0524 C   0  0  0  0  0  0  0  0  0  0  0  0
   -5.7851   -1.9444   -0.2800 N   0  0  0  0  0  0  0  0  0  0  0  0
   -6.7840   -2.0499    2.4244 N   0  0  0  0  0  0  0  0  0  0  0  0
   -7.3608    0.0036    2.8121 O   0  0  0  0  0  0  0  0  0  0  0  0
   -3.7229   -1.6703    1.0899 C   0  0  0  0  0  0  0  0  0  0  0  0
   -2.5351    0.4943    0.7718 C   0  0  0  0  0  0  0  0  0  0  0  0
   -5.8854   -3.3644   -0.4690 C   0  0  0  0  0  0  0  0  0  0  0  0
   -2.7038   -0.7654    1.4496 C   0  0  0  0  0  0  0  0  0  0  0  0
   -1.2801    1.3951    0.9665 C   0  0  2  0  0  0  0  0  0  0  0  0
   -1.8762   -1.1995    2.4553 O   0  0  0  0  0  0  0  0  0  0  0  0
   -0.1425    0.4255    1.0790 C   0  0  0  0  0  0  0  0  0  0  0  0
   -1.5674    2.2871    2.1615 C   0  0  0  0  0  0  0  0  0  0  0  0
   -1.0253    2.3180   -0.3030 C   0  0  1  0  0  0  0  0  0  0  0  0
   -2.3392   -0.9398    3.7965 C   0  0  0  0  0  0  0  0  0  0  0  0
    0.1473   -0.3689    0.0008 O   0  0  0  0  0  0  0  0  0  0  0  0
    0.4336    0.1901    2.1658 O   0  0  0  0  0  0  0  0  0  0  0  0
   -0.7490    3.0114    3.0701 C   0  0  0  0  0  0  0  0  0  0  0  0
   -2.8483    2.5858    2.4908 N   0  0  0  0  0  0  0  0  0  0  0  0
    0.2288    3.2238   -0.6248 C   0  0  1  0  0  0  0  0  0  0  0  0
    1.0610   -1.4707   -0.0391 C   0  0  0  0  0  0  0  0  0  0  0  0
   -1.6199    3.7130    3.9174 C   0  0  0  0  0  0  0  0  0  0  0  0
    0.7282    3.1069    3.2182 C   0  0  1  0  0  0  0  0  0  0  0  0
   -2.9164    3.4138    3.5282 C   0  0  0  0  0  0  0  0  0  0  0  0
    0.4386    4.4944    0.2554 C   0  0  2  0  0  0  0  0  0  0  0  0
    1.5724    2.5417   -1.0828 C   0  0  2  0  0  0  0  0  0  0  0  0
   -1.3964    4.5953    4.9966 C   0  0  0  0  0  0  0  0  0  0  0  0
    1.3295    4.4209    2.6699 C   0  0  2  0  0  0  0  0  0  0  0  0
   -4.0362    3.9567    4.1752 C   0  0  0  0  0  0  0  0  0  0  0  0
    1.5643    4.3635    1.2030 N   0  0  0  0  0  0  0  0  0  0  0  0
    2.8029    2.5756   -0.1090 C   0  0  2  0  0  0  0  0  0  0  0  0
   -2.5091    5.1552    5.6631 C   0  0  0  0  0  0  0  0  0  0  0  0
   -3.8226    4.8364    5.2539 C   0  0  0  0  0  0  0  0  0  0  0  0
    2.8721    3.9434    0.6336 C   0  0  2  0  0  0  0  0  0  0  0  0
    4.1376    2.2725   -0.8825 C   0  0  2  0  0  0  0  0  0  0  0  0
    2.6661    1.5456    0.8629 O   0  0  0  0  0  0  0  0  0  0  0  0
    5.3986    2.0357   -0.0143 C   0  0  0  0  0  0  0  0  0  0  0  0
   -6.0109    2.3912   -1.2623 H   0  0  0  0  0  0  0  0  0  0  0  0
   -7.3759   -1.3874   -1.5038 H   0  0  0  0  0  0  0  0  0  0  0  0
   -0.1283    3.6763   -1.5626 H   0  0  0  0  0  0  0  0  0  0  0  0
   -6.2478    1.7953    1.5332 H   0  0  0  0  0  0  0  0  0  0  0  0
   -6.4358    3.3794    0.8450 H   0  0  0  0  0  0  0  0  0  0  0  0
   -7.1643    3.1742    3.2570 H   0  0  0  0  0  0  0  0  0  0  0  0
   -8.3369    3.9288    2.1863 H   0  0  0  0  0  0  0  0  0  0  0  0
   -8.5691    2.2623    2.7246 H   0  0  0  0  0  0  0  0  0  0  0  0
   -9.2722    0.7657    1.1422 H   0  0  0  0  0  0  0  0  0  0  0  0
   -9.3341    3.3583    0.1503 H   0  0  0  0  0  0  0  0  0  0  0  0
  -10.1581   -0.3647   -0.4600 H   0  0  0  0  0  0  0  0  0  0  0  0
   -9.5774    3.9910   -2.0085 H   0  0  0  0  0  0  0  0  0  0  0  0
   -4.5515    0.6058   -2.8098 H   0  0  0  0  0  0  0  0  0  0  0  0
   -5.3784   -0.9509   -2.9486 H   0  0  0  0  0  0  0  0  0  0  0  0
   -7.1853    0.0696   -4.0239 H   0  0  0  0  0  0  0  0  0  0  0  0
   -6.1420    1.5052   -4.1685 H   0  0  0  0  0  0  0  0  0  0  0  0
   -8.8871    2.4048   -3.6722 H   0  0  0  0  0  0  0  0  0  0  0  0
   -7.4879    3.4311   -3.3000 H   0  0  0  0  0  0  0  0  0  0  0  0
   -9.4526   -1.6321    1.1435 H   0  0  0  0  0  0  0  0  0  0  0  0
   -3.6740    1.8045   -0.4995 H   0  0  0  0  0  0  0  0  0  0  0  0
   -6.4695   -2.1000    3.3414 H   0  0  0  0  0  0  0  0  0  0  0  0
   -6.7283   -2.8317    1.8575 H   0  0  0  0  0  0  0  0  0  0  0  0
   -3.7554   -2.6021    1.5075 H   0  0  0  0  0  0  0  0  0  0  0  0
   -6.0260   -3.5795   -1.5285 H   0  0  0  0  0  0  0  0  0  0  0  0
   -6.7393   -3.7647    0.0757 H   0  0  0  0  0  0  0  0  0  0  0  0
   -4.9905   -3.8926   -0.1390 H   0  0  0  0  0  0  0  0  0  0  0  0
   -1.1433    1.6796   -1.1851 H   0  0  0  0  0  0  0  0  0  0  0  0
   -1.8601    3.0239   -0.3305 H   0  0  0  0  0  0  0  0  0  0  0  0
   -1.4788   -1.3672    4.4682 H   0  0  0  0  0  0  0  0  0  0  0  0
   -2.5362    0.1689    3.9051 H   0  0  0  0  0  0  0  0  0  0  0  0
   -3.3505   -1.4322    3.9323 H   0  0  0  0  0  0  0  0  0  0  0  0
   -3.6283    2.2412    2.0294 H   0  0  0  0  0  0  0  0  0  0  0  0
    2.0620   -1.1659    0.2653 H   0  0  0  0  0  0  0  0  0  0  0  0
    1.1028   -1.8602   -1.0560 H   0  0  0  0  0  0  0  0  0  0  0  0
    0.7054   -2.2649    0.6202 H   0  0  0  0  0  0  0  0  0  0  0  0
    0.9676    3.0290    4.2820 H   0  0  0  0  0  0  0  0  0  0  0  0
    1.2459    2.2911    2.7436 H   0  0  0  0  0  0  0  0  0  0  0  0
   -0.4868    4.7690    0.7627 H   0  0  0  0  0  0  0  0  0  0  0  0
    0.6890    5.3467   -0.3871 H   0  0  0  0  0  0  0  0  0  0  0  0
    1.8947    3.0647   -1.9889 H   0  0  0  0  0  0  0  0  0  0  0  0
    1.3838    1.5133   -1.3954 H   0  0  0  0  0  0  0  0  0  0  0  0
   -0.4501    4.8359    5.2964 H   0  0  0  0  0  0  0  0  0  0  0  0
    2.2776    4.6104    3.1771 H   0  0  0  0  0  0  0  0  0  0  0  0
    0.6854    5.2718    2.9030 H   0  0  0  0  0  0  0  0  0  0  0  0
   -4.9776    3.7207    3.8683 H   0  0  0  0  0  0  0  0  0  0  0  0
   -2.3654    5.7981    6.4440 H   0  0  0  0  0  0  0  0  0  0  0  0
   -4.6242    5.2420    5.7421 H   0  0  0  0  0  0  0  0  0  0  0  0
    3.6231    3.8957    1.4214 H   0  0  0  0  0  0  0  0  0  0  0  0
    3.1958    4.7202   -0.0638 H   0  0  0  0  0  0  0  0  0  0  0  0
    4.3559    3.0921   -1.5707 H   0  0  0  0  0  0  0  0  0  0  0  0
    4.0024    1.3740   -1.4908 H   0  0  0  0  0  0  0  0  0  0  0  0
    2.8487    0.7154    0.3783 H   0  0  0  0  0  0  0  0  0  0  0  0
    6.2639    1.8858   -0.6608 H   0  0  0  0  0  0  0  0  0  0  0  0
    5.6035    2.8897    0.6276 H   0  0  0  0  0  0  0  0  0  0  0  0
    5.2804    1.1471    0.6071 H   0  0  0  0  0  0  0  0  0  0  0  0
  1  2  1  0  0  0  0 
  3  1  1  0  0  0  0 
  4  3  1  0  0  0  0 
  5  3  1  0  0  0  0 
  3  6  1  0  0  0  0 
  7  4  1  0  0  0  0 
  4  8  1  0  0  0  0 
  4 56  1  0  0  0  0 
  5  9  1  0  0  0  0 
 10  5  1  0  0  0  0 
  6 11  2  0  0  0  0 
  7 12  1  0  0  0  0 
 13  7  1  0  0  0  0 
  7 14  1  0  0  0  0 
  8 15  1  0  0  0  0 
  8 16  1  0  0  0  0 
 13 10  1  0  0  0  0 
 10 17  1  0  0  0  0 
 10 18  1  0  0  0  0 
 11 16  1  0  0  0  0 
 12 19  2  0  0  0  0 
 12 20  1  0  0  0  0 
 13 21  1  0  0  0  0 
 13 57  1  0  0  0  0 
 14 15  1  0  0  0  0 
 17 22  1  0  0  0  0 
 17 23  2  0  0  0  0 
 19 21  1  0  0  0  0 
 19 24  1  0  0  0  0 
 20 25  2  0  0  0  0 
 21 26  1  0  0  0  0 
 24 27  2  0  0  0  0 
 25 27  1  0  0  0  0 
 28 25  1  0  0  0  0 
 27 29  1  0  0  0  0 
 28 30  1  0  0  0  0 
 28 31  1  0  0  0  0 
 28 32  1  0  0  0  0 
 29 33  1  0  0  0  0 
 30 34  1  0  0  0  0 
 30 35  2  0  0  0  0 
 31 36  2  0  0  0  0 
 31 37  1  0  0  0  0 
 38 32  1  0  0  0  0 
 34 39  1  0  0  0  0 
 36 40  1  0  0  0  0 
 36 41  1  0  0  0  0 
 37 42  1  0  0  0  0 
 38 43  1  0  0  0  0 
 38 44  1  0  0  0  0 
 38 58  1  0  0  0  0 
 40 42  1  0  0  0  0 
 40 45  2  0  0  0  0 
 41 46  1  0  0  0  0 
 42 47  2  0  0  0  0 
 49 44  1  0  0  0  0 
 45 50  1  0  0  0  0 
 48 46  1  0  0  0  0 
 47 51  1  0  0  0  0 
 48 43  1  0  0  0  0 
 48 52  1  0  0  0  0 
 49 52  1  0  0  0  0 
 49 53  1  0  0  0  0 
 49 54  1  0  0  0  0 
 50 51  2  0  0  0  0 
 53 55  1  0  0  0  0 
  1 59  1  0  0  0  0 
  1 60  1  0  0  0  0 
  2 61  1  0  0  0  0 
  2 62  1  0  0  0  0 
  2 63  1  0  0  0  0 
  5 64  1  0  0  0  0 
  6 65  1  0  0  0  0 
  9 66  1  0  0  0  0 
 11 67  1  0  0  0  0 
 14 68  1  0  0  0  0 
 14 69  1  0  0  0  0 
 15 70  1  0  0  0  0 
 15 71  1  0  0  0  0 
 16 72  1  0  0  0  0 
 16 73  1  0  0  0  0 
 18 74  1  0  0  0  0 
 20 75  1  0  0  0  0 
 22 76  1  0  0  0  0 
 22 77  1  0  0  0  0 
 24 78  1  0  0  0  0 
 26 79  1  0  0  0  0 
 26 80  1  0  0  0  0 
 26 81  1  0  0  0  0 
 32 82  1  0  0  0  0 
 32 83  1  0  0  0  0 
 33 84  1  0  0  0  0 
 33 85  1  0  0  0  0 
 33 86  1  0  0  0  0 
 37 87  1  0  0  0  0 
 39 88  1  0  0  0  0 
 39 89  1  0  0  0  0 
 39 90  1  0  0  0  0 
 41 91  1  0  0  0  0 
 41 92  1  0  0  0  0 
 43 93  1  0  0  0  0 
 43 94  1  0  0  0  0 
 44 95  1  0  0  0  0 
 44 96  1  0  0  0  0 
 45 97  1  0  0  0  0 
 46 98  1  0  0  0  0 
 46 99  1  0  0  0  0 
 47100  1  0  0  0  0 
 50101  1  0  0  0  0 
 51102  1  0  0  0  0 
 52103  1  0  0  0  0 
 52104  1  0  0  0  0 
 53105  1  0  0  0  0 
 53106  1  0  0  0  0 
 54107  1  0  0  0  0 
 55108  1  0  0  0  0 
 55109  1  0  0  0  0 
 55110  1  0  0  0  0 
M  END
> <cdk:Title>
vindesine

> <Conformer>
1

> <SuperDrugID>
SD002549

$$$$
