lorcaserin
  CDK     0628171801

 27 28  0  0  0  0  0  0  0  0999 V2000
   -3.3737    2.9407   -1.4369 C   0  0  0  0  0  0  0  0  0  0  0  0
   -2.7799    2.5670   -0.0508 C   0  0  2  0  0  0  0  0  0  0  0  0
   -2.1104    1.2181   -0.0350 C   0  0  0  0  0  0  0  0  0  0  0  0
   -3.7698    2.7721    1.1300 C   0  0  2  0  0  0  0  0  0  0  0  0
   -2.8150   -0.0269    0.0164 C   0  0  0  0  0  0  0  0  0  0  0  0
   -0.6891    1.1903   -0.0556 C   0  0  0  0  0  0  0  0  0  0  0  0
   -5.0564    2.0652    0.9891 N   0  0  1  0  0  0  0  0  0  0  0  0
   -2.0688   -1.2331    0.0792 C   0  0  0  0  0  0  0  0  0  0  0  0
   -4.3072   -0.1337    0.0048 C   0  0  1  0  0  0  0  0  0  0  0  0
    0.0292   -0.0166   -0.0098 C   0  0  0  0  0  0  0  0  0  0  0  0
   -5.0094    0.6028    1.1691 C   0  0  2  0  0  0  0  0  0  0  0  0
   -0.6662   -1.2317    0.0657 C   0  0  0  0  0  0  0  0  0  0  0  0
    1.7224   -0.0052   -0.0418 Cl  0  0  0  0  0  0  0  0  0  0  0  0
   -4.1742    2.2704   -1.7372 H   0  0  0  0  0  0  0  0  0  0  0  0
   -3.7812    3.9534   -1.4051 H   0  0  0  0  0  0  0  0  0  0  0  0
   -2.5935    2.9091   -2.2015 H   0  0  0  0  0  0  0  0  0  0  0  0
   -2.0203    3.3379    0.1260 H   0  0  0  0  0  0  0  0  0  0  0  0
   -4.0179    3.8346    1.1965 H   0  0  0  0  0  0  0  0  0  0  0  0
   -3.2863    2.5010    2.0728 H   0  0  0  0  0  0  0  0  0  0  0  0
   -0.1547    2.0628   -0.1077 H   0  0  0  0  0  0  0  0  0  0  0  0
   -5.6534    2.4191    1.7392 H   0  0  0  0  0  0  0  0  0  0  0  0
   -2.5426   -2.1387    0.1332 H   0  0  0  0  0  0  0  0  0  0  0  0
   -4.6897    0.2307   -0.9475 H   0  0  0  0  0  0  0  0  0  0  0  0
   -4.6249   -1.1793    0.0641 H   0  0  0  0  0  0  0  0  0  0  0  0
   -6.0505    0.2738    1.2002 H   0  0  0  0  0  0  0  0  0  0  0  0
   -4.5526    0.3406    2.1279 H   0  0  0  0  0  0  0  0  0  0  0  0
   -0.1588   -2.1198    0.1065 H   0  0  0  0  0  0  0  0  0  0  0  0
  2  1  1  0  0  0  0 
  2  3  1  0  0  0  0 
  2  4  1  0  0  0  0 
  3  5  2  0  0  0  0 
  3  6  1  0  0  0  0 
  4  7  1  0  0  0  0 
  5  8  1  0  0  0  0 
  5  9  1  0  0  0  0 
  6 10  2  0  0  0  0 
  7 11  1  0  0  0  0 
  8 12  2  0  0  0  0 
  9 11  1  0  0  0  0 
 10 12  1  0  0  0  0 
 10 13  1  0  0  0  0 
  1 14  1  0  0  0  0 
  1 15  1  0  0  0  0 
  1 16  1  0  0  0  0 
  2 17  1  0  0  0  0 
  4 18  1  0  0  0  0 
  4 19  1  0  0  0  0 
  6 20  1  0  0  0  0 
  7 21  1  0  0  0  0 
  8 22  1  0  0  0  0 
  9 23  1  0  0  0  0 
  9 24  1  0  0  0  0 
 11 25  1  0  0  0  0 
 11 26  1  0  0  0  0 
 12 27  1  0  0  0  0 
M  END
> <cdk:Title>
lorcaserin

> <Conformer>
1

> <SuperDrugID>
SD003527

$$$$
