daunorubicinol
  CDK     0628171802

 69 73  0  0  0  0  0  0  0  0999 V2000
    0.2215    5.4623    1.7881 O   0  0  0  0  0  0  0  0  0  0  0  0
   -0.6053    4.9783    0.8212 C   0  0  0  0  0  0  0  0  0  0  0  0
   -1.7321    5.7613    0.4688 C   0  0  0  0  0  0  0  0  0  0  0  0
   -0.3334    3.7318    0.1913 C   0  0  0  0  0  0  0  0  0  0  0  0
   -2.6499    5.2721   -0.4996 C   0  0  0  0  0  0  0  0  0  0  0  0
   -1.9574    7.0861    1.1316 C   0  0  1  0  0  0  0  0  0  0  0  0
   -1.2107    3.2650   -0.8301 C   0  0  0  0  0  0  0  0  0  0  0  0
    0.8043    2.9317    0.5572 C   0  0  0  0  0  0  0  0  0  0  0  0
   -3.9012    6.0335   -0.8585 C   0  0  1  0  0  0  0  0  0  0  0  0
   -2.3524    4.0529   -1.1659 C   0  0  0  0  0  0  0  0  0  0  0  0
   -2.7910    8.0962    0.2822 C   0  0  2  0  0  0  0  0  0  0  0  0
   -0.9186    2.0055   -1.4699 C   0  0  0  0  0  0  0  0  0  0  0  0
    1.5253    3.2590    1.5313 O   0  0  0  0  0  0  0  0  0  0  0  0
    1.1377    1.7354   -0.1505 C   0  0  0  0  0  0  0  0  0  0  0  0
   -5.0447    5.1566   -0.6636 O   0  0  0  0  0  0  0  0  0  0  0  0
   -4.1144    7.3663   -0.0757 C   0  0  1  0  0  0  0  0  0  0  0  0
   -3.2043    3.6690   -2.1586 O   0  0  0  0  0  0  0  0  0  0  0  0
   -2.0304    8.6544   -0.9790 C   0  0  2  0  0  0  0  0  0  0  0  0
   -3.1385    9.2110    1.1123 O   0  0  0  0  0  0  0  0  0  0  0  0
   -1.7481    1.5101   -2.2689 O   0  0  0  0  0  0  0  0  0  0  0  0
    0.2786    1.2632   -1.1842 C   0  0  0  0  0  0  0  0  0  0  0  0
    2.3128    1.0023    0.1674 C   0  0  0  0  0  0  0  0  0  0  0  0
   -6.3036    5.5607   -1.2589 C   0  0  1  0  0  0  0  0  0  0  0  0
   -0.7930    9.5336   -0.6680 C   0  0  0  0  0  0  0  0  0  0  0  0
   -2.8935    9.4612   -1.7811 O   0  0  0  0  0  0  0  0  0  0  0  0
    0.6364    0.0667   -1.8796 C   0  0  0  0  0  0  0  0  0  0  0  0
    2.6309   -0.1876   -0.5026 C   0  0  0  0  0  0  0  0  0  0  0  0
   -7.2358    4.3325   -1.4505 C   0  0  1  0  0  0  0  0  0  0  0  0
   -6.9638    6.6010   -0.4974 O   0  0  0  0  0  0  0  0  0  0  0  0
   -0.1164   -0.4540   -2.9026 O   0  0  0  0  0  0  0  0  0  0  0  0
    1.7902   -0.6579   -1.5169 C   0  0  0  0  0  0  0  0  0  0  0  0
   -7.9126    3.8869   -0.1250 C   0  0  2  0  0  0  0  0  0  0  0  0
   -7.4618    6.2059    0.8028 C   0  0  2  0  0  0  0  0  0  0  0  0
    0.3628   -0.0708   -4.2059 C   0  0  0  0  0  0  0  0  0  0  0  0
   -8.9425    2.8755   -0.4110 N   0  0  1  0  0  0  0  0  0  0  0  0
   -8.5345    5.0916    0.6372 C   0  0  1  0  0  0  0  0  0  0  0  0
   -7.9854    7.4651    1.5360 C   0  0  0  0  0  0  0  0  0  0  0  0
   -9.6733    5.5856   -0.0707 O   0  0  0  0  0  0  0  0  0  0  0  0
   -6.1167    5.9595   -2.2604 H   0  0  0  0  0  0  0  0  0  0  0  0
   -0.0021    4.9464    2.5909 H   0  0  0  0  0  0  0  0  0  0  0  0
   -2.4756    6.8848    2.0763 H   0  0  0  0  0  0  0  0  0  0  0  0
   -1.0107    7.5649    1.3913 H   0  0  0  0  0  0  0  0  0  0  0  0
   -3.8021    6.2819   -1.9214 H   0  0  0  0  0  0  0  0  0  0  0  0
   -4.7646    8.0317   -0.6477 H   0  0  0  0  0  0  0  0  0  0  0  0
   -4.6435    7.1410    0.8542 H   0  0  0  0  0  0  0  0  0  0  0  0
   -2.6345    3.4058   -2.9106 H   0  0  0  0  0  0  0  0  0  0  0  0
   -1.6922    7.8247   -1.6040 H   0  0  0  0  0  0  0  0  0  0  0  0
   -3.5929    8.8297    1.8934 H   0  0  0  0  0  0  0  0  0  0  0  0
    2.9580    1.3235    0.8941 H   0  0  0  0  0  0  0  0  0  0  0  0
   -0.4153    9.9824   -1.5887 H   0  0  0  0  0  0  0  0  0  0  0  0
    0.0098    8.9381   -0.2342 H   0  0  0  0  0  0  0  0  0  0  0  0
   -1.0528   10.3389    0.0203 H   0  0  0  0  0  0  0  0  0  0  0  0
   -3.5454    8.8437   -2.1722 H   0  0  0  0  0  0  0  0  0  0  0  0
    3.4748   -0.7090   -0.2545 H   0  0  0  0  0  0  0  0  0  0  0  0
   -8.0148    4.5941   -2.1743 H   0  0  0  0  0  0  0  0  0  0  0  0
   -6.6622    3.4991   -1.8671 H   0  0  0  0  0  0  0  0  0  0  0  0
    2.0282   -1.5285   -2.0003 H   0  0  0  0  0  0  0  0  0  0  0  0
   -7.1590    3.4181    0.5164 H   0  0  0  0  0  0  0  0  0  0  0  0
   -6.6425    5.8080    1.4107 H   0  0  0  0  0  0  0  0  0  0  0  0
   -0.2704   -0.5470   -4.9541 H   0  0  0  0  0  0  0  0  0  0  0  0
    0.3032    1.0116   -4.3461 H   0  0  0  0  0  0  0  0  0  0  0  0
    1.3902   -0.4056   -4.3751 H   0  0  0  0  0  0  0  0  0  0  0  0
   -8.4662    2.0487   -0.7789 H   0  0  0  0  0  0  0  0  0  0  0  0
   -9.3636    2.6082    0.4809 H   0  0  0  0  0  0  0  0  0  0  0  0
   -8.8721    4.7542    1.6219 H   0  0  0  0  0  0  0  0  0  0  0  0
   -8.4069    7.1957    2.5061 H   0  0  0  0  0  0  0  0  0  0  0  0
   -7.1617    8.1641    1.6976 H   0  0  0  0  0  0  0  0  0  0  0  0
   -8.7566    7.9679    0.9504 H   0  0  0  0  0  0  0  0  0  0  0  0
  -10.0371    6.3051    0.4869 H   0  0  0  0  0  0  0  0  0  0  0  0
  1  2  1  0  0  0  0 
  2  3  2  0  0  0  0 
  2  4  1  0  0  0  0 
  3  5  1  0  0  0  0 
  3  6  1  0  0  0  0 
  4  7  2  0  0  0  0 
  4  8  1  0  0  0  0 
  9  5  1  0  0  0  0 
  5 10  2  0  0  0  0 
 11  6  1  0  0  0  0 
  7 10  1  0  0  0  0 
  7 12  1  0  0  0  0 
  8 13  2  0  0  0  0 
  8 14  1  0  0  0  0 
  9 15  1  0  0  0  0 
  9 16  1  0  0  0  0 
 10 17  1  0  0  0  0 
 11 16  1  0  0  0  0 
 11 18  1  0  0  0  0 
 11 19  1  0  0  0  0 
 12 20  2  0  0  0  0 
 12 21  1  0  0  0  0 
 14 21  2  0  0  0  0 
 14 22  1  0  0  0  0 
 23 15  1  0  0  0  0 
 18 24  1  0  0  0  0 
 18 25  1  0  0  0  0 
 21 26  1  0  0  0  0 
 22 27  2  0  0  0  0 
 23 28  1  0  0  0  0 
 23 29  1  0  0  0  0 
 23 39  1  0  0  0  0 
 26 30  1  0  0  0  0 
 26 31  2  0  0  0  0 
 27 31  1  0  0  0  0 
 32 28  1  0  0  0  0 
 33 29  1  0  0  0  0 
 30 34  1  0  0  0  0 
 32 35  1  0  0  0  0 
 36 32  1  0  0  0  0 
 36 33  1  0  0  0  0 
 33 37  1  0  0  0  0 
 36 38  1  0  0  0  0 
  1 40  1  0  0  0  0 
  6 41  1  0  0  0  0 
  6 42  1  0  0  0  0 
  9 43  1  0  0  0  0 
 16 44  1  0  0  0  0 
 16 45  1  0  0  0  0 
 17 46  1  0  0  0  0 
 18 47  1  0  0  0  0 
 19 48  1  0  0  0  0 
 22 49  1  0  0  0  0 
 24 50  1  0  0  0  0 
 24 51  1  0  0  0  0 
 24 52  1  0  0  0  0 
 25 53  1  0  0  0  0 
 27 54  1  0  0  0  0 
 28 55  1  0  0  0  0 
 28 56  1  0  0  0  0 
 31 57  1  0  0  0  0 
 32 58  1  0  0  0  0 
 33 59  1  0  0  0  0 
 34 60  1  0  0  0  0 
 34 61  1  0  0  0  0 
 34 62  1  0  0  0  0 
 35 63  1  0  0  0  0 
 35 64  1  0  0  0  0 
 36 65  1  0  0  0  0 
 37 66  1  0  0  0  0 
 37 67  1  0  0  0  0 
 37 68  1  0  0  0  0 
 38 69  1  0  0  0  0 
M  END
> <cdk:Title>
daunorubicinol

> <Conformer>
1

> <SuperDrugID>
SD003728

$$$$
