phenolphthalein
  CDK     0628171801

 38 41  0  0  0  0  0  0  0  0999 V2000
    4.8928    3.0302   -0.6238 O   0  0  0  0  0  0  0  0  0  0  0  0
    4.0033    3.3515    0.1955 C   0  0  0  0  0  0  0  0  0  0  0  0
    2.8031    3.8849   -0.1337 O   0  0  0  0  0  0  0  0  0  0  0  0
    4.0566    3.2090    1.5679 C   0  0  0  0  0  0  0  0  0  0  0  0
    1.9511    4.1705    1.0024 C   0  0  2  0  0  0  0  0  0  0  0  0
    2.8498    3.6825    2.0898 C   0  0  0  0  0  0  0  0  0  0  0  0
    5.0734    2.6861    2.3902 C   0  0  0  0  0  0  0  0  0  0  0  0
    0.6880    3.3465    0.9819 C   0  0  0  0  0  0  0  0  0  0  0  0
    1.6848    5.6524    0.9126 C   0  0  0  0  0  0  0  0  0  0  0  0
    2.6278    3.6210    3.4837 C   0  0  0  0  0  0  0  0  0  0  0  0
    4.8537    2.6408    3.7823 C   0  0  0  0  0  0  0  0  0  0  0  0
   -0.4651    3.7432    1.7093 C   0  0  0  0  0  0  0  0  0  0  0  0
    0.6110    2.1343    0.2503 C   0  0  0  0  0  0  0  0  0  0  0  0
    2.0203    6.5866    1.9276 C   0  0  0  0  0  0  0  0  0  0  0  0
    1.0487    6.1526   -0.2520 C   0  0  0  0  0  0  0  0  0  0  0  0
    3.6356    3.1028    4.3265 C   0  0  0  0  0  0  0  0  0  0  0  0
   -1.6450    2.9752    1.6911 C   0  0  0  0  0  0  0  0  0  0  0  0
   -0.5644    1.3612    0.2352 C   0  0  0  0  0  0  0  0  0  0  0  0
    1.7273    7.9568    1.7832 C   0  0  0  0  0  0  0  0  0  0  0  0
    0.7609    7.5208   -0.3997 C   0  0  0  0  0  0  0  0  0  0  0  0
   -1.6964    1.7767    0.9575 C   0  0  0  0  0  0  0  0  0  0  0  0
    1.1014    8.4302    0.6156 C   0  0  0  0  0  0  0  0  0  0  0  0
   -2.8182    1.0132    0.9386 O   0  0  0  0  0  0  0  0  0  0  0  0
    0.8246    9.7486    0.4529 O   0  0  0  0  0  0  0  0  0  0  0  0
    5.9514    2.3435    1.9918 H   0  0  0  0  0  0  0  0  0  0  0  0
    1.7463    3.9473    3.8834 H   0  0  0  0  0  0  0  0  0  0  0  0
    5.5796    2.2681    4.4007 H   0  0  0  0  0  0  0  0  0  0  0  0
   -0.4590    4.6054    2.2598 H   0  0  0  0  0  0  0  0  0  0  0  0
    1.4155    1.7945   -0.2801 H   0  0  0  0  0  0  0  0  0  0  0  0
    2.4775    6.2864    2.7902 H   0  0  0  0  0  0  0  0  0  0  0  0
    0.7891    5.5166   -1.0102 H   0  0  0  0  0  0  0  0  0  0  0  0
    3.4834    3.0586    5.3377 H   0  0  0  0  0  0  0  0  0  0  0  0
   -2.4662    3.2903    2.2124 H   0  0  0  0  0  0  0  0  0  0  0  0
   -0.5917    0.4926   -0.3036 H   0  0  0  0  0  0  0  0  0  0  0  0
    1.9677    8.6085    2.5315 H   0  0  0  0  0  0  0  0  0  0  0  0
    0.3048    7.8543   -1.2514 H   0  0  0  0  0  0  0  0  0  0  0  0
   -3.4314    1.4102    1.5926 H   0  0  0  0  0  0  0  0  0  0  0  0
    1.4140   10.2181    1.0788 H   0  0  0  0  0  0  0  0  0  0  0  0
  1  2  2  0  0  0  0 
  2  3  1  0  0  0  0 
  2  4  1  0  0  0  0 
  3  5  1  0  0  0  0 
  4  6  2  0  0  0  0 
  4  7  1  0  0  0  0 
  5  6  1  0  0  0  0 
  5  8  1  0  0  0  0 
  5  9  1  0  0  0  0 
  6 10  1  0  0  0  0 
  7 11  2  0  0  0  0 
  8 12  2  0  0  0  0 
  8 13  1  0  0  0  0 
  9 14  2  0  0  0  0 
  9 15  1  0  0  0  0 
 10 16  2  0  0  0  0 
 11 16  1  0  0  0  0 
 12 17  1  0  0  0  0 
 13 18  2  0  0  0  0 
 14 19  1  0  0  0  0 
 15 20  2  0  0  0  0 
 17 21  2  0  0  0  0 
 18 21  1  0  0  0  0 
 19 22  2  0  0  0  0 
 20 22  1  0  0  0  0 
 21 23  1  0  0  0  0 
 22 24  1  0  0  0  0 
  7 25  1  0  0  0  0 
 10 26  1  0  0  0  0 
 11 27  1  0  0  0  0 
 12 28  1  0  0  0  0 
 13 29  1  0  0  0  0 
 14 30  1  0  0  0  0 
 15 31  1  0  0  0  0 
 16 32  1  0  0  0  0 
 17 33  1  0  0  0  0 
 18 34  1  0  0  0  0 
 19 35  1  0  0  0  0 
 20 36  1  0  0  0  0 
 23 37  1  0  0  0  0 
 24 38  1  0  0  0  0 
M  END
> <cdk:Title>
phenolphthalein

> <Conformer>
1

> <SuperDrugID>
SD001915

$$$$
