telmisartan
  CDK     0628171801

 69 74  0  0  0  0  0  0  0  0999 V2000
    0.3305   -1.7271   -1.3885 C   0  0  1  0  0  0  0  0  0  0  0  0
   -1.0132   -1.1860   -1.4169 N   0  0  0  0  0  0  0  0  0  0  0  0
    0.8268   -2.1309   -2.7314 C   0  0  0  0  0  0  0  0  0  0  0  0
   -2.1130   -1.7307   -0.8385 C   0  0  0  0  0  0  0  0  0  0  0  0
   -1.4244   -0.0377   -2.0239 C   0  0  0  0  0  0  0  0  0  0  0  0
    0.1136   -3.0853   -3.4945 C   0  0  0  0  0  0  0  0  0  0  0  0
    2.0118   -1.5784   -3.2722 C   0  0  0  0  0  0  0  0  0  0  0  0
   -3.2228   -0.9320   -1.1274 C   0  0  0  0  0  0  0  0  0  0  0  0
   -2.2578   -2.8940   -0.0533 C   0  0  0  0  0  0  0  0  0  0  0  0
   -0.6339    0.9548   -2.7922 C   0  0  2  0  0  0  0  0  0  0  0  0
   -2.7506    0.1172   -1.8660 N   0  0  0  0  0  0  0  0  0  0  0  0
    0.5457   -3.4401   -4.7862 C   0  0  0  0  0  0  0  0  0  0  0  0
    2.4422   -1.9263   -4.5651 C   0  0  0  0  0  0  0  0  0  0  0  0
   -4.5351   -1.3040   -0.6652 C   0  0  0  0  0  0  0  0  0  0  0  0
   -3.5276   -3.2468    0.4542 C   0  0  0  0  0  0  0  0  0  0  0  0
    0.2567    1.8692   -1.9094 C   0  0  2  0  0  0  0  0  0  0  0  0
    1.6952   -2.8359   -5.3432 C   0  0  0  0  0  0  0  0  0  0  0  0
   -5.7010   -0.4698   -1.0286 C   0  0  0  0  0  0  0  0  0  0  0  0
   -4.6592   -2.4621    0.1338 C   0  0  0  0  0  0  0  0  0  0  0  0
   -3.6694   -4.3838    1.2766 C   0  0  0  0  0  0  0  0  0  0  0  0
    1.1060    2.8511   -2.7478 C   0  0  0  0  0  0  0  0  0  0  0  0
    2.0566   -3.0858   -6.6892 C   0  0  0  0  0  0  0  0  0  0  0  0
   -4.0963   -4.4218    2.5681 N   0  0  0  0  0  0  0  0  0  0  0  0
   -3.3990   -5.6255    0.8260 N   0  0  0  0  0  0  0  0  0  0  0  0
    1.5251   -2.3185   -7.7743 C   0  0  0  0  0  0  0  0  0  0  0  0
    2.9906   -4.1211   -6.9366 C   0  0  0  0  0  0  0  0  0  0  0  0
   -4.4536   -3.3240    3.4261 C   0  0  0  0  0  0  0  0  0  0  0  0
   -4.1168   -5.7225    2.9238 C   0  0  0  0  0  0  0  0  0  0  0  0
   -3.6829   -6.4644    1.8290 C   0  0  0  0  0  0  0  0  0  0  0  0
    0.5897   -1.2441   -7.6190 C   0  0  0  0  0  0  0  0  0  0  0  0
    1.9621   -2.6390   -9.0865 C   0  0  0  0  0  0  0  0  0  0  0  0
    3.4045   -4.4077   -8.2479 C   0  0  0  0  0  0  0  0  0  0  0  0
   -4.4808   -6.3660    4.1248 C   0  0  0  0  0  0  0  0  0  0  0  0
   -3.6047   -7.8659    1.8734 C   0  0  0  0  0  0  0  0  0  0  0  0
    0.3537   -0.3540   -8.6146 O   0  0  0  0  0  0  0  0  0  0  0  0
   -0.0737   -1.0502   -6.5744 O   0  0  0  0  0  0  0  0  0  0  0  0
    2.8888   -3.6677   -9.3221 C   0  0  0  0  0  0  0  0  0  0  0  0
   -4.4070   -7.7748    4.1868 C   0  0  0  0  0  0  0  0  0  0  0  0
   -3.9751   -8.5199    3.0666 C   0  0  0  0  0  0  0  0  0  0  0  0
    0.9883   -0.9906   -0.9268 H   0  0  0  0  0  0  0  0  0  0  0  0
    0.4057   -2.6088   -0.7509 H   0  0  0  0  0  0  0  0  0  0  0  0
   -0.7359   -3.5180   -3.1203 H   0  0  0  0  0  0  0  0  0  0  0  0
    2.5617   -0.9024   -2.7349 H   0  0  0  0  0  0  0  0  0  0  0  0
   -1.4467   -3.4740    0.1700 H   0  0  0  0  0  0  0  0  0  0  0  0
   -1.3260    1.5970   -3.3450 H   0  0  0  0  0  0  0  0  0  0  0  0
   -0.0268    0.4321   -3.5317 H   0  0  0  0  0  0  0  0  0  0  0  0
   -0.0010   -4.1168   -5.3247 H   0  0  0  0  0  0  0  0  0  0  0  0
    3.2926   -1.4996   -4.9419 H   0  0  0  0  0  0  0  0  0  0  0  0
    0.9370    1.2704   -1.3069 H   0  0  0  0  0  0  0  0  0  0  0  0
   -0.3700    2.4498   -1.2271 H   0  0  0  0  0  0  0  0  0  0  0  0
   -5.6532    0.4806   -0.4942 H   0  0  0  0  0  0  0  0  0  0  0  0
   -6.6466   -0.9574   -0.7845 H   0  0  0  0  0  0  0  0  0  0  0  0
   -5.6949   -0.2750   -2.1021 H   0  0  0  0  0  0  0  0  0  0  0  0
   -5.5818   -2.7359    0.4840 H   0  0  0  0  0  0  0  0  0  0  0  0
    1.7521    2.3054   -3.4379 H   0  0  0  0  0  0  0  0  0  0  0  0
    1.7350    3.4585   -2.0935 H   0  0  0  0  0  0  0  0  0  0  0  0
    0.4561    3.5152   -3.3206 H   0  0  0  0  0  0  0  0  0  0  0  0
    3.3796   -4.6733   -6.1643 H   0  0  0  0  0  0  0  0  0  0  0  0
   -5.5130   -3.3908    3.6817 H   0  0  0  0  0  0  0  0  0  0  0  0
   -4.2742   -2.3521    2.9632 H   0  0  0  0  0  0  0  0  0  0  0  0
   -3.8654   -3.3628    4.3455 H   0  0  0  0  0  0  0  0  0  0  0  0
    1.6088   -2.1251   -9.8981 H   0  0  0  0  0  0  0  0  0  0  0  0
    4.0814   -5.1530   -8.4194 H   0  0  0  0  0  0  0  0  0  0  0  0
   -4.7964   -5.8284    4.9349 H   0  0  0  0  0  0  0  0  0  0  0  0
   -3.2930   -8.3973    1.0580 H   0  0  0  0  0  0  0  0  0  0  0  0
   -0.2917    0.3723   -8.4847 H   0  0  0  0  0  0  0  0  0  0  0  0
    3.1896   -3.8738  -10.2764 H   0  0  0  0  0  0  0  0  0  0  0  0
   -4.6712   -8.2595    5.0466 H   0  0  0  0  0  0  0  0  0  0  0  0
   -3.9352   -9.5390    3.1187 H   0  0  0  0  0  0  0  0  0  0  0  0
  1  2  1  0  0  0  0 
  1  3  1  0  0  0  0 
  2  4  1  0  0  0  0 
  2  5  1  0  0  0  0 
  3  6  2  0  0  0  0 
  3  7  1  0  0  0  0 
  4  8  1  0  0  0  0 
  4  9  2  0  0  0  0 
  5 10  1  0  0  0  0 
  5 11  2  0  0  0  0 
  6 12  1  0  0  0  0 
  7 13  2  0  0  0  0 
  8 11  1  0  0  0  0 
  8 14  2  0  0  0  0 
  9 15  1  0  0  0  0 
 10 16  1  0  0  0  0 
 12 17  2  0  0  0  0 
 13 17  1  0  0  0  0 
 14 18  1  0  0  0  0 
 14 19  1  0  0  0  0 
 15 19  2  0  0  0  0 
 15 20  1  0  0  0  0 
 16 21  1  0  0  0  0 
 17 22  1  0  0  0  0 
 20 23  1  0  0  0  0 
 20 24  2  0  0  0  0 
 22 25  2  0  0  0  0 
 22 26  1  0  0  0  0 
 23 27  1  0  0  0  0 
 23 28  1  0  0  0  0 
 24 29  1  0  0  0  0 
 25 30  1  0  0  0  0 
 25 31  1  0  0  0  0 
 26 32  2  0  0  0  0 
 28 29  1  0  0  0  0 
 28 33  2  0  0  0  0 
 29 34  2  0  0  0  0 
 30 35  1  0  0  0  0 
 30 36  2  0  0  0  0 
 31 37  2  0  0  0  0 
 32 37  1  0  0  0  0 
 33 38  1  0  0  0  0 
 34 39  1  0  0  0  0 
 38 39  2  0  0  0  0 
  1 40  1  0  0  0  0 
  1 41  1  0  0  0  0 
  6 42  1  0  0  0  0 
  7 43  1  0  0  0  0 
  9 44  1  0  0  0  0 
 10 45  1  0  0  0  0 
 10 46  1  0  0  0  0 
 12 47  1  0  0  0  0 
 13 48  1  0  0  0  0 
 16 49  1  0  0  0  0 
 16 50  1  0  0  0  0 
 18 51  1  0  0  0  0 
 18 52  1  0  0  0  0 
 18 53  1  0  0  0  0 
 19 54  1  0  0  0  0 
 21 55  1  0  0  0  0 
 21 56  1  0  0  0  0 
 21 57  1  0  0  0  0 
 26 58  1  0  0  0  0 
 27 59  1  0  0  0  0 
 27 60  1  0  0  0  0 
 27 61  1  0  0  0  0 
 31 62  1  0  0  0  0 
 32 63  1  0  0  0  0 
 33 64  1  0  0  0  0 
 34 65  1  0  0  0  0 
 35 66  1  0  0  0  0 
 37 67  1  0  0  0  0 
 38 68  1  0  0  0  0 
 39 69  1  0  0  0  0 
M  END
> <cdk:Title>
telmisartan

> <Conformer>
1

> <SuperDrugID>
SD002322

$$$$
