fluoxetine
  CDK     0628171801

 40 41  0  0  0  0  0  0  0  0999 V2000
   -3.2361   -4.4364   -0.1618 C   0  0  1  0  0  0  0  0  0  0  0  0
   -3.1670   -3.0418    0.2463 O   0  0  0  0  0  0  0  0  0  0  0  0
   -3.5590   -5.4552    0.9872 C   0  0  2  0  0  0  0  0  0  0  0  0
   -4.3023   -4.4909   -1.2117 C   0  0  0  0  0  0  0  0  0  0  0  0
   -2.1950   -2.6946    1.1470 C   0  0  0  0  0  0  0  0  0  0  0  0
   -2.3280   -5.9514    1.7921 C   0  0  1  0  0  0  0  0  0  0  0  0
   -4.0654   -5.0879   -2.4754 C   0  0  0  0  0  0  0  0  0  0  0  0
   -5.5892   -3.9516   -0.9589 C   0  0  0  0  0  0  0  0  0  0  0  0
   -2.5577   -2.4280    2.4822 C   0  0  0  0  0  0  0  0  0  0  0  0
   -0.8433   -2.5859    0.7649 C   0  0  0  0  0  0  0  0  0  0  0  0
   -2.7557   -6.7191    2.9838 N   0  0  1  0  0  0  0  0  0  0  0  0
   -5.0748   -5.1287   -3.4567 C   0  0  0  0  0  0  0  0  0  0  0  0
   -6.5939   -3.9797   -1.9437 C   0  0  0  0  0  0  0  0  0  0  0  0
   -1.5704   -2.1133    3.4347 C   0  0  0  0  0  0  0  0  0  0  0  0
    0.1422   -2.2668    1.7179 C   0  0  0  0  0  0  0  0  0  0  0  0
   -1.6412   -7.2069    3.8216 C   0  0  0  0  0  0  0  0  0  0  0  0
   -6.3398   -4.5759   -3.1906 C   0  0  0  0  0  0  0  0  0  0  0  0
   -0.2013   -2.0406    3.0751 C   0  0  0  0  0  0  0  0  0  0  0  0
    0.8180   -1.7519    4.1262 C   0  0  1  0  0  0  0  0  0  0  0  0
    2.1017   -1.6078    3.6544 F   0  0  0  0  0  0  0  0  0  0  0  0
    0.5098   -0.5883    4.7897 F   0  0  0  0  0  0  0  0  0  0  0  0
    0.8389   -2.7802    5.0378 F   0  0  0  0  0  0  0  0  0  0  0  0
   -2.2788   -4.7216   -0.6149 H   0  0  0  0  0  0  0  0  0  0  0  0
   -4.0279   -6.3496    0.5620 H   0  0  0  0  0  0  0  0  0  0  0  0
   -4.2796   -5.0013    1.6727 H   0  0  0  0  0  0  0  0  0  0  0  0
   -1.7103   -6.5782    1.1444 H   0  0  0  0  0  0  0  0  0  0  0  0
   -1.7286   -5.1088    2.1257 H   0  0  0  0  0  0  0  0  0  0  0  0
   -3.1557   -5.5034   -2.6905 H   0  0  0  0  0  0  0  0  0  0  0  0
   -5.8013   -3.5261   -0.0530 H   0  0  0  0  0  0  0  0  0  0  0  0
   -3.5396   -2.4805    2.7710 H   0  0  0  0  0  0  0  0  0  0  0  0
   -0.5744   -2.7516   -0.2064 H   0  0  0  0  0  0  0  0  0  0  0  0
   -3.3016   -6.0793    3.5662 H   0  0  0  0  0  0  0  0  0  0  0  0
   -4.8894   -5.5602   -4.3654 H   0  0  0  0  0  0  0  0  0  0  0  0
   -7.5092   -3.5654   -1.7529 H   0  0  0  0  0  0  0  0  0  0  0  0
   -1.8595   -1.9444    4.4031 H   0  0  0  0  0  0  0  0  0  0  0  0
    1.1147   -2.2125    1.4082 H   0  0  0  0  0  0  0  0  0  0  0  0
   -1.0551   -7.9460    3.2761 H   0  0  0  0  0  0  0  0  0  0  0  0
   -2.0506   -7.6819    4.7124 H   0  0  0  0  0  0  0  0  0  0  0  0
   -0.9957   -6.3824    4.1346 H   0  0  0  0  0  0  0  0  0  0  0  0
   -7.0742   -4.6094   -3.9024 H   0  0  0  0  0  0  0  0  0  0  0  0
  1  2  1  0  0  0  0 
  1  3  1  0  0  0  0 
  1  4  1  0  0  0  0 
  2  5  1  0  0  0  0 
  3  6  1  0  0  0  0 
  4  7  2  0  0  0  0 
  4  8  1  0  0  0  0 
  5  9  2  0  0  0  0 
  5 10  1  0  0  0  0 
  6 11  1  0  0  0  0 
  7 12  1  0  0  0  0 
  8 13  2  0  0  0  0 
  9 14  1  0  0  0  0 
 10 15  2  0  0  0  0 
 11 16  1  0  0  0  0 
 12 17  2  0  0  0  0 
 13 17  1  0  0  0  0 
 14 18  2  0  0  0  0 
 15 18  1  0  0  0  0 
 18 19  1  0  0  0  0 
 19 20  1  0  0  0  0 
 19 21  1  0  0  0  0 
 19 22  1  0  0  0  0 
  1 23  1  0  0  0  0 
  3 24  1  0  0  0  0 
  3 25  1  0  0  0  0 
  6 26  1  0  0  0  0 
  6 27  1  0  0  0  0 
  7 28  1  0  0  0  0 
  8 29  1  0  0  0  0 
  9 30  1  0  0  0  0 
 10 31  1  0  0  0  0 
 11 32  1  0  0  0  0 
 12 33  1  0  0  0  0 
 13 34  1  0  0  0  0 
 14 35  1  0  0  0  0 
 15 36  1  0  0  0  0 
 16 37  1  0  0  0  0 
 16 38  1  0  0  0  0 
 16 39  1  0  0  0  0 
 17 40  1  0  0  0  0 
M  END
> <cdk:Title>
fluoxetine

> <Conformer>
1

> <SuperDrugID>
SD001082

$$$$
