methylpentynol
  CDK     0628171801

 17 16  0  0  0  0  0  0  0  0999 V2000
    0.3079   -0.3690    0.4198 C   0  0  2  0  0  0  0  0  0  0  0  0
    1.4209   -0.6318   -0.6459 C   0  0  1  0  0  0  0  0  0  0  0  0
    0.2767   -1.3608    1.6102 C   0  0  0  0  0  0  0  0  0  0  0  0
    2.6844   -0.5634   -0.0983 C   0  0  0  0  0  0  0  0  0  0  0  0
    3.7777   -0.5110    0.3815 C   0  0  0  0  0  0  0  0  0  0  0  0
    1.2737   -1.9495   -1.1752 O   0  0  0  0  0  0  0  0  0  0  0  0
    1.3053    0.3707   -1.8311 C   0  0  0  0  0  0  0  0  0  0  0  0
   -0.6685   -0.4240   -0.0721 H   0  0  0  0  0  0  0  0  0  0  0  0
    0.4118    0.6446    0.8217 H   0  0  0  0  0  0  0  0  0  0  0  0
   -0.5461   -1.1035    2.2794 H   0  0  0  0  0  0  0  0  0  0  0  0
    1.2079   -1.3148    2.1774 H   0  0  0  0  0  0  0  0  0  0  0  0
    0.1262   -2.3828    1.2572 H   0  0  0  0  0  0  0  0  0  0  0  0
    4.6217   -0.4715    0.7516 H   0  0  0  0  0  0  0  0  0  0  0  0
    0.3784   -1.9658   -1.5770 H   0  0  0  0  0  0  0  0  0  0  0  0
    2.0556    0.1579   -2.5982 H   0  0  0  0  0  0  0  0  0  0  0  0
    0.3205    0.2921   -2.2980 H   0  0  0  0  0  0  0  0  0  0  0  0
    1.4402    1.4007   -1.4894 H   0  0  0  0  0  0  0  0  0  0  0  0
  2  1  1  0  0  0  0 
  1  3  1  0  0  0  0 
  2  4  1  0  0  0  0 
  4  5  3  0  0  0  0 
  2  6  1  0  0  0  0 
  2  7  1  0  0  0  0 
  1  8  1  0  0  0  0 
  1  9  1  0  0  0  0 
  3 10  1  0  0  0  0 
  3 11  1  0  0  0  0 
  3 12  1  0  0  0  0 
  5 13  1  0  0  0  0 
  6 14  1  0  0  0  0 
  7 15  1  0  0  0  0 
  7 16  1  0  0  0  0 
  7 17  1  0  0  0  0 
M  END
> <cdk:Title>
methylpentynol

> <Conformer>
1

> <SuperDrugID>
SD001491

$$$$
