idrocilamide
  CDK     0628171801

 27 27  0  0  0  0  0  0  0  0999 V2000
   -1.3728   -0.4555   -0.0035 C   0  0  0  0  0  0  0  0  0  0  0  0
   -1.4836   -1.8001    0.0045 C   0  0  0  0  0  0  0  0  0  0  0  0
   -0.1894    0.3057   -0.0062 C   0  0  0  0  0  0  0  0  0  0  0  0
   -2.6833   -2.5028   -0.0040 C   0  0  0  0  0  0  0  0  0  0  0  0
    1.1226   -0.2464   -0.0047 C   0  0  0  0  0  0  0  0  0  0  0  0
   -0.2952    1.7235   -0.0205 C   0  0  0  0  0  0  0  0  0  0  0  0
   -2.6544   -3.8690   -0.0350 N   0  0  0  0  0  0  0  0  0  0  0  0
   -3.7861   -1.9023    0.0087 O   0  0  0  0  0  0  0  0  0  0  0  0
    2.2654    0.5755   -0.0114 C   0  0  0  0  0  0  0  0  0  0  0  0
    0.8460    2.5475   -0.0272 C   0  0  0  0  0  0  0  0  0  0  0  0
   -3.8045   -4.7140   -0.1240 C   0  0  1  0  0  0  0  0  0  0  0  0
    2.1275    1.9726   -0.0202 C   0  0  0  0  0  0  0  0  0  0  0  0
   -3.4814   -6.1782    0.2397 C   0  0  2  0  0  0  0  0  0  0  0  0
   -4.6571   -6.9705    0.0850 O   0  0  0  0  0  0  0  0  0  0  0  0
   -2.2267    0.0568   -0.0065 H   0  0  0  0  0  0  0  0  0  0  0  0
   -0.6603   -2.3475    0.0127 H   0  0  0  0  0  0  0  0  0  0  0  0
    1.2791   -1.2549    0.0017 H   0  0  0  0  0  0  0  0  0  0  0  0
   -1.2132    2.1815   -0.0260 H   0  0  0  0  0  0  0  0  0  0  0  0
   -1.7828   -4.2965   -0.0410 H   0  0  0  0  0  0  0  0  0  0  0  0
    3.1995    0.1549   -0.0068 H   0  0  0  0  0  0  0  0  0  0  0  0
    0.7422    3.5661   -0.0341 H   0  0  0  0  0  0  0  0  0  0  0  0
   -4.5952   -4.3616    0.5437 H   0  0  0  0  0  0  0  0  0  0  0  0
   -4.1719   -4.6754   -1.1520 H   0  0  0  0  0  0  0  0  0  0  0  0
    2.9573    2.5691   -0.0233 H   0  0  0  0  0  0  0  0  0  0  0  0
   -3.1397   -6.2437    1.2747 H   0  0  0  0  0  0  0  0  0  0  0  0
   -2.7003   -6.5674   -0.4151 H   0  0  0  0  0  0  0  0  0  0  0  0
   -4.4062   -7.8803    0.3529 H   0  0  0  0  0  0  0  0  0  0  0  0
  1  2  2  0  0  0  0 
  1  3  1  0  0  0  0 
  2  4  1  0  0  0  0 
  3  5  2  0  0  0  0 
  3  6  1  0  0  0  0 
  4  7  1  0  0  0  0 
  4  8  2  0  0  0  0 
  5  9  1  0  0  0  0 
  6 10  2  0  0  0  0 
  7 11  1  0  0  0  0 
  9 12  2  0  0  0  0 
 10 12  1  0  0  0  0 
 11 13  1  0  0  0  0 
 13 14  1  0  0  0  0 
  1 15  1  0  0  0  0 
  2 16  1  0  0  0  0 
  5 17  1  0  0  0  0 
  6 18  1  0  0  0  0 
  7 19  1  0  0  0  0 
  9 20  1  0  0  0  0 
 10 21  1  0  0  0  0 
 11 22  1  0  0  0  0 
 11 23  1  0  0  0  0 
 12 24  1  0  0  0  0 
 13 25  1  0  0  0  0 
 13 26  1  0  0  0  0 
 14 27  1  0  0  0  0 
M  END
> <cdk:Title>
idrocilamide

> <Conformer>
1

> <SuperDrugID>
SD001259

$$$$
