oxidronic acid
  CDK     0628171801

 16 15  0  0  0  0  0  0  0  0999 V2000
   -1.1210   -1.1410   -0.7903 O   0  0  0  0  0  0  0  0  0  0  0  0
   -1.2894   -1.4890    0.3999 C   0  0  0  0  0  0  0  0  0  0  0  0
   -1.5159   -3.1894    0.7612 P   0  0  0  0  0  0  0  0  0  0  0  0
   -0.3824   -3.7711   -0.2448 O   0  0  0  0  0  0  0  0  0  0  0  0
   -2.9645   -3.2017   -0.0410 O   0  0  0  0  0  0  0  0  0  0  0  0
   -1.9206   -4.7395    1.2980 O   0  0  0  0  0  0  0  0  0  0  0  0
   -1.3272   -0.3079    1.5601 P   0  0  2  0  0  0  0  0  0  0  0  0
   -2.6818   -0.4039    2.3916 O   0  0  0  0  0  0  0  0  0  0  0  0
   -1.3108    1.1347    0.8823 O   0  0  0  0  0  0  0  0  0  0  0  0
   -0.1893   -0.4061    2.4883 O   0  0  0  0  0  0  0  0  0  0  0  0
   -0.9316   -3.0470    1.9352 H   0  0  0  0  0  0  0  0  0  0  0  0
    0.4147   -3.8679    0.3174 H   0  0  0  0  0  0  0  0  0  0  0  0
   -3.6200   -2.9205    0.6310 H   0  0  0  0  0  0  0  0  0  0  0  0
   -2.7659   -4.6277    1.7800 H   0  0  0  0  0  0  0  0  0  0  0  0
   -2.6009    0.2925    3.0767 H   0  0  0  0  0  0  0  0  0  0  0  0
   -1.3720    1.7645    1.6311 H   0  0  0  0  0  0  0  0  0  0  0  0
  1  2  2  0  0  0  0 
  2  3  1  0  0  0  0 
  3  4  1  0  0  0  0 
  3  5  1  0  0  0  0 
  3  6  1  0  0  0  0 
  2  7  1  0  0  0  0 
  7  8  1  0  0  0  0 
  7  9  1  0  0  0  0 
  7 10  2  0  0  0  0 
 11  3  1  0  0  0  0 
 12  4  1  0  0  0  0 
 13  5  1  0  0  0  0 
 14  6  1  0  0  0  0 
 15  8  1  0  0  0  0 
 16  9  1  0  0  0  0 
M  END
> <cdk:Title>
oxidronic acid

> <Conformer>
1

> <SuperDrugID>
SD002935

$$$$
