imrecoxib
  Mrv0541 09131710093D             104.08763

 49 51  0  0  0  0            999 V2000
    0.7944   -0.5678   -0.1955 C   0  0  0  0  0  0  0  0  0  0  0  0
    2.1587    0.0693    0.1532 C   0  0  1  0  0  0  0  0  0  0  0  0
    2.1825    1.6203    0.0894 C   0  0  2  0  0  0  0  0  0  0  0  0
    1.7911    2.1957   -1.1745 N   0  0  0  0  0  0  0  0  0  0  0  0
    2.3568    1.8651   -2.4393 C   0  0  1  0  0  0  0  0  0  0  0  0
    1.6804    2.7703   -3.3518 C   0  0  0  0  0  0  0  0  0  0  0  0
    0.8064    3.5289   -2.6658 C   0  0  0  0  0  0  0  0  0  0  0  0
    0.8687    3.1643   -1.3440 C   0  0  0  0  0  0  0  0  0  0  0  0
    0.1719    3.6553   -0.4233 O   0  0  0  0  0  0  0  0  0  0  0  0
   -0.0524    4.5178   -3.1478 C   0  0  0  0  0  0  0  0  0  0  0  0
   -0.9377    4.2580   -4.2192 C   0  0  0  0  0  0  0  0  0  0  0  0
   -1.8252    5.2508   -4.6727 C   0  0  0  0  0  0  0  0  0  0  0  0
   -1.8528    6.5248   -4.0633 C   0  0  0  0  0  0  0  0  0  0  0  0
   -2.7990    7.5760   -4.4997 C   0  0  0  0  0  0  0  0  0  0  0  0
   -0.9558    6.7928   -3.0064 C   0  0  0  0  0  0  0  0  0  0  0  0
   -0.0702    5.8016   -2.5519 C   0  0  0  0  0  0  0  0  0  0  0  0
    1.9638    2.8051   -4.7273 C   0  0  0  0  0  0  0  0  0  0  0  0
    2.0425    1.6050   -5.4763 C   0  0  0  0  0  0  0  0  0  0  0  0
    2.3110    1.6250   -6.8565 C   0  0  0  0  0  0  0  0  0  0  0  0
    2.5116    2.8452   -7.5275 C   0  0  0  0  0  0  0  0  0  0  0  0
    2.4491    4.0475   -6.7944 C   0  0  0  0  0  0  0  0  0  0  0  0
    2.1918    4.0275   -5.4084 C   0  0  0  0  0  0  0  0  0  0  0  0
    2.8768    2.8417   -9.2623 S   0  0  1  0  0  0  0  0  0  0  0  0
    4.6693    2.5567   -9.5002 C   0  0  0  0  0  0  0  0  0  0  0  0
    2.0711    1.6643  -10.0006 O   0  0  0  0  0  0  0  0  0  0  0  0
    2.4758    4.2408   -9.9403 O   0  0  0  0  0  0  0  0  0  0  0  0
    0.0133   -0.1681    0.4524 H   0  0  0  0  0  0  0  0  0  0  0  0
    0.8466   -1.6489   -0.0539 H   0  0  0  0  0  0  0  0  0  0  0  0
    0.5271   -0.3717   -1.2358 H   0  0  0  0  0  0  0  0  0  0  0  0
    2.4292   -0.2326    1.1693 H   0  0  0  0  0  0  0  0  0  0  0  0
    2.9189   -0.3346   -0.5204 H   0  0  0  0  0  0  0  0  0  0  0  0
    3.2023    1.9525    0.2974 H   0  0  0  0  0  0  0  0  0  0  0  0
    1.5575    2.0005    0.9029 H   0  0  0  0  0  0  0  0  0  0  0  0
    3.4341    2.0501   -2.4412 H   0  0  0  0  0  0  0  0  0  0  0  0
    2.1522    0.8215   -2.6900 H   0  0  0  0  0  0  0  0  0  0  0  0
   -0.9550    3.3404   -4.6714 H   0  0  0  0  0  0  0  0  0  0  0  0
   -2.4557    5.0326   -5.4478 H   0  0  0  0  0  0  0  0  0  0  0  0
   -3.4449    7.2396   -5.3120 H   0  0  0  0  0  0  0  0  0  0  0  0
   -3.4336    7.8673   -3.6614 H   0  0  0  0  0  0  0  0  0  0  0  0
   -2.2439    8.4485   -4.8430 H   0  0  0  0  0  0  0  0  0  0  0  0
   -0.9459    7.7131   -2.5577 H   0  0  0  0  0  0  0  0  0  0  0  0
    0.5616    6.0297   -1.7799 H   0  0  0  0  0  0  0  0  0  0  0  0
    1.8974    0.6968   -5.0286 H   0  0  0  0  0  0  0  0  0  0  0  0
    2.3622    0.7427   -7.3692 H   0  0  0  0  0  0  0  0  0  0  0  0
    2.6003    4.9441   -7.2625 H   0  0  0  0  0  0  0  0  0  0  0  0
    2.1839    4.9160   -4.9004 H   0  0  0  0  0  0  0  0  0  0  0  0
    5.2338    3.3522   -9.0116 H   0  0  0  0  0  0  0  0  0  0  0  0
    4.8991    2.5490  -10.5660 H   0  0  0  0  0  0  0  0  0  0  0  0
    4.9427    1.5960   -9.0617 H   0  0  0  0  0  0  0  0  0  0  0  0
  1  2  1  0  0  0  0
  2  3  1  0  0  0  0
  3  4  1  0  0  0  0
  4  5  1  0  0  0  0
  5  6  1  0  0  0  0
  6  7  2  0  0  0  0
  7  8  1  0  0  0  0
  8  9  2  0  0  0  0
  7 10  1  0  0  0  0
 10 11  2  0  0  0  0
 11 12  1  0  0  0  0
 12 13  2  0  0  0  0
 13 14  1  0  0  0  0
 13 15  1  0  0  0  0
 15 16  2  0  0  0  0
  6 17  1  0  0  0  0
 17 18  2  0  0  0  0
 18 19  1  0  0  0  0
 19 20  2  0  0  0  0
 20 21  1  0  0  0  0
 21 22  2  0  0  0  0
 20 23  1  0  0  0  0
 23 24  1  0  0  0  0
 23 25  2  0  0  0  0
 23 26  2  0  0  0  0
  8  4  1  0  0  0  0
 16 10  1  0  0  0  0
 22 17  1  0  0  0  0
  1 27  1  0  0  0  0
  1 28  1  0  0  0  0
  1 29  1  0  0  0  0
  2 30  1  0  0  0  0
  2 31  1  0  0  0  0
  3 32  1  0  0  0  0
  3 33  1  0  0  0  0
  5 34  1  0  0  0  0
  5 35  1  0  0  0  0
 11 36  1  0  0  0  0
 12 37  1  0  0  0  0
 14 38  1  0  0  0  0
 14 39  1  0  0  0  0
 14 40  1  0  0  0  0
 15 41  1  0  0  0  0
 16 42  1  0  0  0  0
 18 43  1  0  0  0  0
 19 44  1  0  0  0  0
 21 45  1  0  0  0  0
 22 46  1  0  0  0  0
 24 47  1  0  0  0  0
 24 48  1  0  0  0  0
 24 49  1  0  0  0  0
M  END
>  <SuperDrugID>
SD006013

>  <_MOLCOUNT>
1

$$$$
