propoxycaine
  CDK     0628171801

 47 47  0  0  0  0  0  0  0  0999 V2000
   -2.4811    0.1632    0.0369 C   0  0  0  0  0  0  0  0  0  0  0  0
   -1.2246    0.3941   -0.4604 O   0  0  0  0  0  0  0  0  0  0  0  0
   -2.6296   -0.7824    0.8480 O   0  0  0  0  0  0  0  0  0  0  0  0
   -3.5847    0.9663   -0.3824 C   0  0  0  0  0  0  0  0  0  0  0  0
   -0.0193   -0.3114   -0.1391 C   0  0  2  0  0  0  0  0  0  0  0  0
   -4.9190    0.7551    0.0733 C   0  0  0  0  0  0  0  0  0  0  0  0
   -3.3618    2.0318   -1.2934 C   0  0  0  0  0  0  0  0  0  0  0  0
    1.1306    0.1831   -1.0480 C   0  0  2  0  0  0  0  0  0  0  0  0
   -5.2371   -0.2241    0.9807 O   0  0  0  0  0  0  0  0  0  0  0  0
   -5.9757    1.5634   -0.4029 C   0  0  0  0  0  0  0  0  0  0  0  0
   -4.4104    2.8548   -1.7348 C   0  0  0  0  0  0  0  0  0  0  0  0
    2.3936   -0.6117   -0.8478 N   0  0  1  0  0  0  0  0  0  0  0  0
   -5.3163    0.2732    2.3360 C   0  0  1  0  0  0  0  0  0  0  0  0
   -5.7222    2.6291   -1.2834 C   0  0  0  0  0  0  0  0  0  0  0  0
    2.4121   -1.8565   -1.6926 C   0  0  1  0  0  0  0  0  0  0  0  0
    3.6515    0.2066   -0.9309 C   0  0  1  0  0  0  0  0  0  0  0  0
   -5.6163   -0.8769    3.3251 C   0  0  1  0  0  0  0  0  0  0  0  0
   -6.7234    3.4446   -1.6654 N   0  0  0  0  0  0  0  0  0  0  0  0
    3.4726   -2.9082   -1.2937 C   0  0  0  0  0  0  0  0  0  0  0  0
    3.8605    1.1231    0.2967 C   0  0  0  0  0  0  0  0  0  0  0  0
   -4.5239   -1.9679    3.3548 C   0  0  0  0  0  0  0  0  0  0  0  0
   -0.1903   -1.3784   -0.2899 H   0  0  0  0  0  0  0  0  0  0  0  0
    0.2379   -0.1368    0.9087 H   0  0  0  0  0  0  0  0  0  0  0  0
   -2.4235    2.2313   -1.6472 H   0  0  0  0  0  0  0  0  0  0  0  0
    1.2740    1.2427   -0.8280 H   0  0  0  0  0  0  0  0  0  0  0  0
    0.8053    0.1340   -2.0909 H   0  0  0  0  0  0  0  0  0  0  0  0
   -6.9326    1.3832   -0.0884 H   0  0  0  0  0  0  0  0  0  0  0  0
   -4.2142    3.6206   -2.3844 H   0  0  0  0  0  0  0  0  0  0  0  0
   -4.3799    0.7596    2.6319 H   0  0  0  0  0  0  0  0  0  0  0  0
   -6.1283    1.0021    2.4190 H   0  0  0  0  0  0  0  0  0  0  0  0
    1.4463   -2.3620   -1.6193 H   0  0  0  0  0  0  0  0  0  0  0  0
    2.5539   -1.5921   -2.7439 H   0  0  0  0  0  0  0  0  0  0  0  0
    4.5300   -0.4376   -0.9635 H   0  0  0  0  0  0  0  0  0  0  0  0
    3.6583    0.8058   -1.8455 H   0  0  0  0  0  0  0  0  0  0  0  0
   -5.7114   -0.4573    4.3305 H   0  0  0  0  0  0  0  0  0  0  0  0
   -6.5722   -1.3358    3.0594 H   0  0  0  0  0  0  0  0  0  0  0  0
   -6.5451    4.2036   -2.2431 H   0  0  0  0  0  0  0  0  0  0  0  0
   -7.6269    3.2815   -1.3534 H   0  0  0  0  0  0  0  0  0  0  0  0
    4.4524   -2.6309   -1.6847 H   0  0  0  0  0  0  0  0  0  0  0  0
    3.5308   -3.0009   -0.2083 H   0  0  0  0  0  0  0  0  0  0  0  0
    3.2105   -3.8809   -1.7142 H   0  0  0  0  0  0  0  0  0  0  0  0
    4.8826    1.5065    0.3045 H   0  0  0  0  0  0  0  0  0  0  0  0
    3.6901    0.5646    1.2193 H   0  0  0  0  0  0  0  0  0  0  0  0
    3.1847    1.9773    0.2668 H   0  0  0  0  0  0  0  0  0  0  0  0
   -4.7863   -2.7300    4.0909 H   0  0  0  0  0  0  0  0  0  0  0  0
   -3.5599   -1.5361    3.6311 H   0  0  0  0  0  0  0  0  0  0  0  0
   -4.4324   -2.4471    2.3783 H   0  0  0  0  0  0  0  0  0  0  0  0
  1  2  1  0  0  0  0 
  1  3  2  0  0  0  0 
  1  4  1  0  0  0  0 
  2  5  1  0  0  0  0 
  4  6  2  0  0  0  0 
  4  7  1  0  0  0  0 
  5  8  1  0  0  0  0 
  6  9  1  0  0  0  0 
  6 10  1  0  0  0  0 
  7 11  2  0  0  0  0 
  8 12  1  0  0  0  0 
  9 13  1  0  0  0  0 
 10 14  2  0  0  0  0 
 11 14  1  0  0  0  0 
 12 15  1  0  0  0  0 
 12 16  1  0  0  0  0 
 13 17  1  0  0  0  0 
 14 18  1  0  0  0  0 
 15 19  1  0  0  0  0 
 16 20  1  0  0  0  0 
 17 21  1  0  0  0  0 
  5 22  1  0  0  0  0 
  5 23  1  0  0  0  0 
  7 24  1  0  0  0  0 
  8 25  1  0  0  0  0 
  8 26  1  0  0  0  0 
 10 27  1  0  0  0  0 
 11 28  1  0  0  0  0 
 13 29  1  0  0  0  0 
 13 30  1  0  0  0  0 
 15 31  1  0  0  0  0 
 15 32  1  0  0  0  0 
 16 33  1  0  0  0  0 
 16 34  1  0  0  0  0 
 17 35  1  0  0  0  0 
 17 36  1  0  0  0  0 
 18 37  1  0  0  0  0 
 18 38  1  0  0  0  0 
 19 39  1  0  0  0  0 
 19 40  1  0  0  0  0 
 19 41  1  0  0  0  0 
 20 42  1  0  0  0  0 
 20 43  1  0  0  0  0 
 20 44  1  0  0  0  0 
 21 45  1  0  0  0  0 
 21 46  1  0  0  0  0 
 21 47  1  0  0  0  0 
M  END
> <cdk:Title>
propoxycaine

> <Conformer>
1

> <SuperDrugID>
SD003013

$$$$
