bibenzonium
  CDK     0628171801

 47 48  0  0  0  0  0  0  0  0999 V2000
   -1.8301   -5.5394   -2.3027 C   0  0  0  0  0  0  0  0  0  0  0  0
   -2.3974   -6.8236   -2.1965 C   0  0  0  0  0  0  0  0  0  0  0  0
   -2.2486   -7.5652   -1.0114 C   0  0  0  0  0  0  0  0  0  0  0  0
   -1.5379   -7.0195    0.0712 C   0  0  0  0  0  0  0  0  0  0  0  0
   -0.9858   -5.7298   -0.0297 C   0  0  0  0  0  0  0  0  0  0  0  0
   -1.1243   -4.9703   -1.2162 C   0  0  0  0  0  0  0  0  0  0  0  0
   -0.5381   -3.6028   -1.3033 C   0  0  1  0  0  0  0  0  0  0  0  0
   -1.3123   -2.5434   -0.4529 C   0  0  1  0  0  0  0  0  0  0  0  0
   -0.6762   -1.2426   -0.4858 O   0  0  0  0  0  0  0  0  0  0  0  0
   -2.7167   -2.3465   -0.9334 C   0  0  0  0  0  0  0  0  0  0  0  0
   -2.9755   -1.8360   -2.2309 C   0  0  0  0  0  0  0  0  0  0  0  0
   -4.2946   -1.6530   -2.6869 C   0  0  0  0  0  0  0  0  0  0  0  0
   -5.3804   -1.9634   -1.8497 C   0  0  0  0  0  0  0  0  0  0  0  0
   -5.1432   -2.4568   -0.5557 C   0  0  0  0  0  0  0  0  0  0  0  0
   -3.8244   -2.6555   -0.1051 C   0  0  0  0  0  0  0  0  0  0  0  0
    0.5083   -1.0670    0.3240 C   0  0  2  0  0  0  0  0  0  0  0  0
    0.9580    0.4184    0.2548 C   0  0  2  0  0  0  0  0  0  0  0  0
    2.2745    0.8101    0.9173 N   0  0  2  0  0  0  0  0  0  0  0  0
    2.4230    2.3161    0.8432 C   0  0  0  0  0  0  0  0  0  0  0  0
    3.4530    0.1894    0.2021 C   0  0  0  0  0  0  0  0  0  0  0  0
    2.3004    0.4014    2.3718 C   0  0  0  0  0  0  0  0  0  0  0  0
   -1.3364   -2.8987    0.5839 H   0  0  0  0  0  0  0  0  0  0  0  0
   -1.9468   -5.0212   -3.1769 H   0  0  0  0  0  0  0  0  0  0  0  0
   -2.9185   -7.2205   -2.9809 H   0  0  0  0  0  0  0  0  0  0  0  0
   -2.6520   -8.5025   -0.9374 H   0  0  0  0  0  0  0  0  0  0  0  0
   -1.4204   -7.5606    0.9318 H   0  0  0  0  0  0  0  0  0  0  0  0
   -0.4770   -5.3488    0.7716 H   0  0  0  0  0  0  0  0  0  0  0  0
    0.4950   -3.6685   -0.9600 H   0  0  0  0  0  0  0  0  0  0  0  0
   -0.4849   -3.2682   -2.3421 H   0  0  0  0  0  0  0  0  0  0  0  0
   -2.2041   -1.5898   -2.8566 H   0  0  0  0  0  0  0  0  0  0  0  0
   -4.4638   -1.2904   -3.6276 H   0  0  0  0  0  0  0  0  0  0  0  0
   -6.3396   -1.8329   -2.1825 H   0  0  0  0  0  0  0  0  0  0  0  0
   -5.9307   -2.6700    0.0593 H   0  0  0  0  0  0  0  0  0  0  0  0
   -3.6807   -3.0262    0.8372 H   0  0  0  0  0  0  0  0  0  0  0  0
    1.3072   -1.7085   -0.0436 H   0  0  0  0  0  0  0  0  0  0  0  0
    0.2899   -1.3282    1.3627 H   0  0  0  0  0  0  0  0  0  0  0  0
    0.1391    1.0018    0.6927 H   0  0  0  0  0  0  0  0  0  0  0  0
    0.9931    0.6930   -0.8058 H   0  0  0  0  0  0  0  0  0  0  0  0
    1.6106    2.8264    1.3692 H   0  0  0  0  0  0  0  0  0  0  0  0
    2.4175    2.6684   -0.1926 H   0  0  0  0  0  0  0  0  0  0  0  0
    3.3610    2.6539    1.2950 H   0  0  0  0  0  0  0  0  0  0  0  0
    3.4537    0.4452   -0.8619 H   0  0  0  0  0  0  0  0  0  0  0  0
    4.4024    0.5331    0.6241 H   0  0  0  0  0  0  0  0  0  0  0  0
    3.4511   -0.8998    0.2793 H   0  0  0  0  0  0  0  0  0  0  0  0
    3.1766    0.8050    2.8880 H   0  0  0  0  0  0  0  0  0  0  0  0
    1.4112    0.7576    2.9003 H   0  0  0  0  0  0  0  0  0  0  0  0
    2.3406   -0.6851    2.4850 H   0  0  0  0  0  0  0  0  0  0  0  0
  1  2  2  0  0  0  0 
  2  3  1  0  0  0  0 
  3  4  2  0  0  0  0 
  4  5  1  0  0  0  0 
  5  6  2  0  0  0  0 
  1  6  1  0  0  0  0 
  6  7  1  0  0  0  0 
  8  7  1  0  0  0  0 
  8  9  1  0  0  0  0 
  8 10  1  0  0  0  0 
 11 12  1  0  0  0  0 
 12 13  2  0  0  0  0 
 13 14  1  0  0  0  0 
 14 15  2  0  0  0  0 
 10 11  2  0  0  0  0 
 10 15  1  0  0  0  0 
  9 16  1  0  0  0  0 
 16 17  1  0  0  0  0 
 17 18  1  0  0  0  0 
 18 19  1  0  0  0  0 
 18 20  1  0  0  0  0 
 18 21  1  0  0  0  0 
  8 22  1  0  0  0  0 
  1 23  1  0  0  0  0 
  2 24  1  0  0  0  0 
  3 25  1  0  0  0  0 
  4 26  1  0  0  0  0 
  5 27  1  0  0  0  0 
  7 28  1  0  0  0  0 
  7 29  1  0  0  0  0 
 11 30  1  0  0  0  0 
 12 31  1  0  0  0  0 
 13 32  1  0  0  0  0 
 14 33  1  0  0  0  0 
 15 34  1  0  0  0  0 
 16 35  1  0  0  0  0 
 16 36  1  0  0  0  0 
 17 37  1  0  0  0  0 
 17 38  1  0  0  0  0 
 19 39  1  0  0  0  0 
 19 40  1  0  0  0  0 
 19 41  1  0  0  0  0 
 20 42  1  0  0  0  0 
 20 43  1  0  0  0  0 
 20 44  1  0  0  0  0 
 21 45  1  0  0  0  0 
 21 46  1  0  0  0  0 
 21 47  1  0  0  0  0 
M  CHG  1  18   1
M  END
> <cdk:Title>
bibenzonium

> <Conformer>
1

> <SuperDrugID>
SD000311

$$$$
