lacosamide
  CDK     0628171801

 36 36  0  0  0  0  0  0  0  0999 V2000
   -4.2953    2.6245   -0.7941 C   0  0  2  0  0  0  0  0  0  0  0  0
   -3.8746    1.5574    0.0600 N   0  0  0  0  0  0  0  0  0  0  0  0
   -4.9898    2.1293   -2.0138 C   0  0  0  0  0  0  0  0  0  0  0  0
   -2.6898    0.8908   -0.0281 C   0  0  0  0  0  0  0  0  0  0  0  0
   -6.2596    1.5115   -1.9107 C   0  0  0  0  0  0  0  0  0  0  0  0
   -4.4171    2.2836   -3.3008 C   0  0  0  0  0  0  0  0  0  0  0  0
   -2.3553   -0.1749    0.9503 C   0  0  2  0  0  0  0  0  0  0  0  0
   -1.8548    1.1837   -0.9181 O   0  0  0  0  0  0  0  0  0  0  0  0
   -6.9360    1.0645   -3.0631 C   0  0  0  0  0  0  0  0  0  0  0  0
   -5.0941    1.8365   -4.4513 C   0  0  0  0  0  0  0  0  0  0  0  0
   -1.3019    0.3426    1.7730 N   0  0  0  0  0  0  0  0  0  0  0  0
   -1.9213   -1.4958    0.2563 C   0  0  2  0  0  0  0  0  0  0  0  0
   -6.3555    1.2289   -4.3329 C   0  0  0  0  0  0  0  0  0  0  0  0
   -1.0239   -0.0109    3.0571 C   0  0  0  0  0  0  0  0  0  0  0  0
   -2.8930   -1.8859   -0.7357 O   0  0  0  0  0  0  0  0  0  0  0  0
    0.1179    0.6134    3.7498 C   0  0  0  0  0  0  0  0  0  0  0  0
   -1.7110   -0.8616    3.6709 O   0  0  0  0  0  0  0  0  0  0  0  0
   -2.5145   -3.0245   -1.5288 C   0  0  0  0  0  0  0  0  0  0  0  0
   -3.4432    3.2595   -1.0522 H   0  0  0  0  0  0  0  0  0  0  0  0
   -4.9846    3.2560   -0.2277 H   0  0  0  0  0  0  0  0  0  0  0  0
   -4.4830    1.2960    0.7697 H   0  0  0  0  0  0  0  0  0  0  0  0
   -6.7055    1.3955   -0.9951 H   0  0  0  0  0  0  0  0  0  0  0  0
   -3.5016    2.7258   -3.4123 H   0  0  0  0  0  0  0  0  0  0  0  0
   -3.2353   -0.3850    1.5687 H   0  0  0  0  0  0  0  0  0  0  0  0
   -7.8559    0.6263   -2.9795 H   0  0  0  0  0  0  0  0  0  0  0  0
   -4.6718    1.9589   -5.3741 H   0  0  0  0  0  0  0  0  0  0  0  0
   -0.7177    1.0027    1.3656 H   0  0  0  0  0  0  0  0  0  0  0  0
   -1.8302   -2.2831    1.0111 H   0  0  0  0  0  0  0  0  0  0  0  0
   -0.9403   -1.3463   -0.2035 H   0  0  0  0  0  0  0  0  0  0  0  0
   -6.8521    0.9119   -5.1674 H   0  0  0  0  0  0  0  0  0  0  0  0
    0.8613   -0.1467    3.9962 H   0  0  0  0  0  0  0  0  0  0  0  0
    0.5929    1.3729    3.1223 H   0  0  0  0  0  0  0  0  0  0  0  0
   -0.2209    1.0879    4.6740 H   0  0  0  0  0  0  0  0  0  0  0  0
   -2.3511   -3.9030   -0.9013 H   0  0  0  0  0  0  0  0  0  0  0  0
   -3.3231   -3.2427   -2.2270 H   0  0  0  0  0  0  0  0  0  0  0  0
   -1.6099   -2.8145   -2.1055 H   0  0  0  0  0  0  0  0  0  0  0  0
  1  2  1  0  0  0  0 
  1  3  1  0  0  0  0 
  2  4  1  0  0  0  0 
  3  5  2  0  0  0  0 
  3  6  1  0  0  0  0 
  7  4  1  0  0  0  0 
  4  8  2  0  0  0  0 
  5  9  1  0  0  0  0 
  6 10  2  0  0  0  0 
  7 11  1  0  0  0  0 
  7 12  1  0  0  0  0 
  9 13  2  0  0  0  0 
 10 13  1  0  0  0  0 
 11 14  1  0  0  0  0 
 12 15  1  0  0  0  0 
 14 16  1  0  0  0  0 
 14 17  2  0  0  0  0 
 15 18  1  0  0  0  0 
  1 19  1  0  0  0  0 
  1 20  1  0  0  0  0 
  2 21  1  0  0  0  0 
  5 22  1  0  0  0  0 
  6 23  1  0  0  0  0 
  7 24  1  0  0  0  0 
  9 25  1  0  0  0  0 
 10 26  1  0  0  0  0 
 11 27  1  0  0  0  0 
 12 28  1  0  0  0  0 
 12 29  1  0  0  0  0 
 13 30  1  0  0  0  0 
 16 31  1  0  0  0  0 
 16 32  1  0  0  0  0 
 16 33  1  0  0  0  0 
 18 34  1  0  0  0  0 
 18 35  1  0  0  0  0 
 18 36  1  0  0  0  0 
M  END
> <cdk:Title>
lacosamide

> <Conformer>
1

> <SuperDrugID>
SD003491

$$$$
