tocainide
  CDK     0628171801

 30 30  0  0  0  0  0  0  0  0999 V2000
    0.2701    0.0469   -0.1878 N   0  0  0  0  0  0  0  0  0  0  0  0
   -0.3408    1.2513   -0.0104 C   0  0  0  0  0  0  0  0  0  0  0  0
   -0.2633   -1.0068   -0.8666 C   0  0  0  0  0  0  0  0  0  0  0  0
    0.3342    2.3033    0.7810 C   0  0  2  0  0  0  0  0  0  0  0  0
   -1.4696    1.4882   -0.5053 O   0  0  0  0  0  0  0  0  0  0  0  0
    0.1830   -1.2710   -2.1910 C   0  0  0  0  0  0  0  0  0  0  0  0
   -1.2347   -1.8424   -0.2465 C   0  0  0  0  0  0  0  0  0  0  0  0
    1.7113    2.7017    0.1968 C   0  0  0  0  0  0  0  0  0  0  0  0
    0.4913    1.8326    2.1625 N   0  0  2  0  0  0  0  0  0  0  0  0
    1.2190   -0.4249   -2.8420 C   0  0  0  0  0  0  0  0  0  0  0  0
   -0.3776   -2.3607   -2.8951 C   0  0  0  0  0  0  0  0  0  0  0  0
   -1.7008   -1.6008    1.1456 C   0  0  0  0  0  0  0  0  0  0  0  0
   -1.7674   -2.9263   -0.9796 C   0  0  0  0  0  0  0  0  0  0  0  0
   -1.3453   -3.1804   -2.2934 C   0  0  0  0  0  0  0  0  0  0  0  0
    1.1645   -0.0626    0.1738 H   0  0  0  0  0  0  0  0  0  0  0  0
   -0.2906    3.2001    0.8123 H   0  0  0  0  0  0  0  0  0  0  0  0
    2.1515    3.5043    0.7924 H   0  0  0  0  0  0  0  0  0  0  0  0
    2.3997    1.8534    0.2009 H   0  0  0  0  0  0  0  0  0  0  0  0
    1.5979    3.0581   -0.8288 H   0  0  0  0  0  0  0  0  0  0  0  0
   -0.4462    1.6514    2.5286 H   0  0  0  0  0  0  0  0  0  0  0  0
    0.8713    2.6156    2.6975 H   0  0  0  0  0  0  0  0  0  0  0  0
    1.4185   -0.7285   -3.8722 H   0  0  0  0  0  0  0  0  0  0  0  0
    0.8924    0.6149   -2.8615 H   0  0  0  0  0  0  0  0  0  0  0  0
    2.1530   -0.4916   -2.2815 H   0  0  0  0  0  0  0  0  0  0  0  0
   -0.0845   -2.5694   -3.8540 H   0  0  0  0  0  0  0  0  0  0  0  0
   -0.8493   -1.4928    1.8218 H   0  0  0  0  0  0  0  0  0  0  0  0
   -2.3231   -2.4150    1.5221 H   0  0  0  0  0  0  0  0  0  0  0  0
   -2.2939   -0.6863    1.1746 H   0  0  0  0  0  0  0  0  0  0  0  0
   -2.4727   -3.5396   -0.5645 H   0  0  0  0  0  0  0  0  0  0  0  0
   -1.7462   -3.9630   -2.8150 H   0  0  0  0  0  0  0  0  0  0  0  0
  1  2  1  0  0  0  0 
  1  3  1  0  0  0  0 
  4  2  1  0  0  0  0 
  2  5  2  0  0  0  0 
  3  6  2  0  0  0  0 
  3  7  1  0  0  0  0 
  4  8  1  0  0  0  0 
  4  9  1  0  0  0  0 
  6 10  1  0  0  0  0 
  6 11  1  0  0  0  0 
  7 12  1  0  0  0  0 
  7 13  2  0  0  0  0 
 11 14  2  0  0  0  0 
 13 14  1  0  0  0  0 
  1 15  1  0  0  0  0 
  4 16  1  0  0  0  0 
  8 17  1  0  0  0  0 
  8 18  1  0  0  0  0 
  8 19  1  0  0  0  0 
  9 20  1  0  0  0  0 
  9 21  1  0  0  0  0 
 10 22  1  0  0  0  0 
 10 23  1  0  0  0  0 
 10 24  1  0  0  0  0 
 11 25  1  0  0  0  0 
 12 26  1  0  0  0  0 
 12 27  1  0  0  0  0 
 12 28  1  0  0  0  0 
 13 29  1  0  0  0  0 
 14 30  1  0  0  0  0 
M  END
> <cdk:Title>
tocainide

> <Conformer>
1

> <SuperDrugID>
SD002418

$$$$
