pipebuzone
  CDK     0628171801

 63 66  0  0  0  0  0  0  0  0999 V2000
    1.7731    3.0411   -2.9137 C   0  0  2  0  0  0  0  0  0  0  0  0
    1.6393    2.7133   -1.3791 C   0  0  2  0  0  0  0  0  0  0  0  0
    2.1559    4.4249   -3.3790 N   0  0  1  0  0  0  0  0  0  0  0  0
    0.2421    3.0832   -0.7534 C   0  0  2  0  0  0  0  0  0  0  0  0
    2.7816    3.2224   -0.5923 C   0  0  0  0  0  0  0  0  0  0  0  0
    1.9141    1.2666   -1.1920 C   0  0  0  0  0  0  0  0  0  0  0  0
    2.5041    4.3814   -4.8420 C   0  0  2  0  0  0  0  0  0  0  0  0
    1.1693    5.5060   -3.0580 C   0  0  1  0  0  0  0  0  0  0  0  0
    0.0726    2.7858    0.7683 C   0  0  1  0  0  0  0  0  0  0  0  0
    2.9768    4.4414   -0.3743 O   0  0  0  0  0  0  0  0  0  0  0  0
    3.4719    2.2012   -0.0219 N   0  0  0  0  0  0  0  0  0  0  0  0
    1.2003    0.3739   -1.7086 O   0  0  0  0  0  0  0  0  0  0  0  0
    3.0938    1.0604   -0.5566 N   0  0  0  0  0  0  0  0  0  0  0  0
    2.8426    5.7604   -5.4425 C   0  0  2  0  0  0  0  0  0  0  0  0
    1.4961    6.8700   -3.7178 C   0  0  2  0  0  0  0  0  0  0  0  0
   -1.3000    3.2475    1.3305 C   0  0  2  0  0  0  0  0  0  0  0  0
    4.2668    2.3164    1.0959 C   0  0  0  0  0  0  0  0  0  0  0  0
    3.8580   -0.0918   -0.6418 C   0  0  0  0  0  0  0  0  0  0  0  0
    1.7145    6.6970   -5.1824 N   0  0  1  0  0  0  0  0  0  0  0  0
   -1.4492    2.9657    2.8433 C   0  0  0  0  0  0  0  0  0  0  0  0
    5.3687    3.2000    1.1450 C   0  0  0  0  0  0  0  0  0  0  0  0
    4.0006    1.4992    2.2200 C   0  0  0  0  0  0  0  0  0  0  0  0
    3.3045   -1.3907   -0.5106 C   0  0  0  0  0  0  0  0  0  0  0  0
    5.2519    0.0083   -0.8826 C   0  0  0  0  0  0  0  0  0  0  0  0
    1.8378    7.9798   -5.9264 C   0  0  0  0  0  0  0  0  0  0  0  0
    6.2007    3.2422    2.2813 C   0  0  0  0  0  0  0  0  0  0  0  0
    4.8313    1.5404    3.3537 C   0  0  0  0  0  0  0  0  0  0  0  0
    4.1067   -2.5412   -0.6456 C   0  0  0  0  0  0  0  0  0  0  0  0
    6.0604   -1.1364   -0.9979 C   0  0  0  0  0  0  0  0  0  0  0  0
    5.9344    2.4101    3.3834 C   0  0  0  0  0  0  0  0  0  0  0  0
    5.4841   -2.4126   -0.8889 C   0  0  0  0  0  0  0  0  0  0  0  0
    0.8423    2.7440   -3.4078 H   0  0  0  0  0  0  0  0  0  0  0  0
    2.5487    2.3760   -3.3137 H   0  0  0  0  0  0  0  0  0  0  0  0
   -0.5426    2.5513   -1.3024 H   0  0  0  0  0  0  0  0  0  0  0  0
    0.0483    4.1436   -0.8850 H   0  0  0  0  0  0  0  0  0  0  0  0
    1.6728    3.9543   -5.4155 H   0  0  0  0  0  0  0  0  0  0  0  0
    3.3805    3.7428   -4.9888 H   0  0  0  0  0  0  0  0  0  0  0  0
    0.1632    5.2035   -3.3618 H   0  0  0  0  0  0  0  0  0  0  0  0
    1.1710    5.6890   -1.9855 H   0  0  0  0  0  0  0  0  0  0  0  0
    0.1837    1.7118    0.9337 H   0  0  0  0  0  0  0  0  0  0  0  0
    0.8572    3.3001    1.3299 H   0  0  0  0  0  0  0  0  0  0  0  0
    2.9945    5.6289   -6.5174 H   0  0  0  0  0  0  0  0  0  0  0  0
    3.7736    6.1354   -5.0079 H   0  0  0  0  0  0  0  0  0  0  0  0
    2.3849    7.3049   -3.2477 H   0  0  0  0  0  0  0  0  0  0  0  0
    0.6549    7.5461   -3.5385 H   0  0  0  0  0  0  0  0  0  0  0  0
   -2.1088    2.7371    0.8012 H   0  0  0  0  0  0  0  0  0  0  0  0
   -1.4149    4.3232    1.1721 H   0  0  0  0  0  0  0  0  0  0  0  0
   -2.4308    3.2977    3.1893 H   0  0  0  0  0  0  0  0  0  0  0  0
   -1.3533    1.8975    3.0497 H   0  0  0  0  0  0  0  0  0  0  0  0
   -0.6837    3.5057    3.4039 H   0  0  0  0  0  0  0  0  0  0  0  0
    5.5827    3.8036    0.3477 H   0  0  0  0  0  0  0  0  0  0  0  0
    3.1975    0.8642    2.2185 H   0  0  0  0  0  0  0  0  0  0  0  0
    2.3103   -1.5121   -0.3125 H   0  0  0  0  0  0  0  0  0  0  0  0
    5.6929    0.9240   -0.9903 H   0  0  0  0  0  0  0  0  0  0  0  0
    1.8928    7.7877   -7.0012 H   0  0  0  0  0  0  0  0  0  0  0  0
    0.9578    8.6054   -5.7536 H   0  0  0  0  0  0  0  0  0  0  0  0
    2.7312    8.5286   -5.6160 H   0  0  0  0  0  0  0  0  0  0  0  0
    7.0038    3.8736    2.3033 H   0  0  0  0  0  0  0  0  0  0  0  0
    4.6348    0.9364    4.1543 H   0  0  0  0  0  0  0  0  0  0  0  0
    3.6908   -3.4705   -0.5641 H   0  0  0  0  0  0  0  0  0  0  0  0
    7.0641   -1.0379   -1.1636 H   0  0  0  0  0  0  0  0  0  0  0  0
    6.5419    2.4362    4.2052 H   0  0  0  0  0  0  0  0  0  0  0  0
    6.0698   -3.2466   -0.9850 H   0  0  0  0  0  0  0  0  0  0  0  0
  1  2  1  0  0  0  0 
  1  3  1  0  0  0  0 
  2  4  1  0  0  0  0 
  2  5  1  0  0  0  0 
  2  6  1  0  0  0  0 
  3  7  1  0  0  0  0 
  3  8  1  0  0  0  0 
  4  9  1  0  0  0  0 
  5 10  2  0  0  0  0 
  5 11  1  0  0  0  0 
  6 12  2  0  0  0  0 
  6 13  1  0  0  0  0 
  7 14  1  0  0  0  0 
  8 15  1  0  0  0  0 
  9 16  1  0  0  0  0 
 11 13  1  0  0  0  0 
 11 17  1  0  0  0  0 
 13 18  1  0  0  0  0 
 14 19  1  0  0  0  0 
 15 19  1  0  0  0  0 
 16 20  1  0  0  0  0 
 17 21  2  0  0  0  0 
 17 22  1  0  0  0  0 
 18 23  2  0  0  0  0 
 18 24  1  0  0  0  0 
 19 25  1  0  0  0  0 
 21 26  1  0  0  0  0 
 22 27  2  0  0  0  0 
 23 28  1  0  0  0  0 
 24 29  2  0  0  0  0 
 26 30  2  0  0  0  0 
 27 30  1  0  0  0  0 
 28 31  2  0  0  0  0 
 29 31  1  0  0  0  0 
  1 32  1  0  0  0  0 
  1 33  1  0  0  0  0 
  4 34  1  0  0  0  0 
  4 35  1  0  0  0  0 
  7 36  1  0  0  0  0 
  7 37  1  0  0  0  0 
  8 38  1  0  0  0  0 
  8 39  1  0  0  0  0 
  9 40  1  0  0  0  0 
  9 41  1  0  0  0  0 
 14 42  1  0  0  0  0 
 14 43  1  0  0  0  0 
 15 44  1  0  0  0  0 
 15 45  1  0  0  0  0 
 16 46  1  0  0  0  0 
 16 47  1  0  0  0  0 
 20 48  1  0  0  0  0 
 20 49  1  0  0  0  0 
 20 50  1  0  0  0  0 
 21 51  1  0  0  0  0 
 22 52  1  0  0  0  0 
 23 53  1  0  0  0  0 
 24 54  1  0  0  0  0 
 25 55  1  0  0  0  0 
 25 56  1  0  0  0  0 
 25 57  1  0  0  0  0 
 26 58  1  0  0  0  0 
 27 59  1  0  0  0  0 
 28 60  1  0  0  0  0 
 29 61  1  0  0  0  0 
 30 62  1  0  0  0  0 
 31 63  1  0  0  0  0 
M  END
> <cdk:Title>
pipebuzone

> <Conformer>
1

> <SuperDrugID>
SD002994

$$$$
