norethindrone enanthate
  CDK     0628171801

 68 71  0  0  0  0  0  0  0  0999 V2000
   -8.2354    1.2892   -4.6269 O   0  0  0  0  0  0  0  0  0  0  0  0
   -9.2710    1.6870   -5.4405 C   0  0  0  0  0  0  0  0  0  0  0  0
   -6.8013    1.2290   -4.8829 C   0  0  2  0  0  0  0  0  0  0  0  0
  -10.6584    1.7600   -4.9260 C   0  0  1  0  0  0  0  0  0  0  0  0
   -9.0517    2.0111   -6.6313 O   0  0  0  0  0  0  0  0  0  0  0  0
   -6.6200    0.3502   -5.9408 C   0  0  0  0  0  0  0  0  0  0  0  0
   -5.9583    0.8102   -3.5910 C   0  0  2  0  0  0  0  0  0  0  0  0
   -6.2924    2.6756   -5.2361 C   0  0  2  0  0  0  0  0  0  0  0  0
  -10.8542    2.8284   -3.8030 C   0  0  1  0  0  0  0  0  0  0  0  0
   -6.4589   -0.4234   -6.8386 C   0  0  0  0  0  0  0  0  0  0  0  0
   -6.8724    0.9467   -2.3100 C   0  0  0  0  0  0  0  0  0  0  0  0
   -4.7518    1.8112   -3.6422 C   0  0  1  0  0  0  0  0  0  0  0  0
   -5.2983   -0.6210   -3.5438 C   0  0  2  0  0  0  0  0  0  0  0  0
   -5.3847    3.1417   -4.0807 C   0  0  1  0  0  0  0  0  0  0  0  0
  -10.6242    2.1776   -2.3372 C   0  0  1  0  0  0  0  0  0  0  0  0
   -3.8564    1.7760   -2.3661 C   0  0  1  0  0  0  0  0  0  0  0  0
   -4.3027   -0.8166   -2.3573 C   0  0  2  0  0  0  0  0  0  0  0  0
  -10.1996    3.3195   -1.2709 C   0  0  1  0  0  0  0  0  0  0  0  0
   -3.2485    0.3373   -2.1743 C   0  0  2  0  0  0  0  0  0  0  0  0
   -2.6796    2.7914   -2.4145 C   0  0  1  0  0  0  0  0  0  0  0  0
  -10.3015    2.7372    0.1673 C   0  0  2  0  0  0  0  0  0  0  0  0
   -2.4723    0.2803   -0.8032 C   0  0  2  0  0  0  0  0  0  0  0  0
   -1.8561    2.7554   -1.1023 C   0  0  2  0  0  0  0  0  0  0  0  0
   -9.8552    3.7184    1.2764 C   0  0  0  0  0  0  0  0  0  0  0  0
   -1.5227    1.4106   -0.6070 C   0  0  0  0  0  0  0  0  0  0  0  0
   -1.7702   -1.1048   -0.6019 C   0  0  1  0  0  0  0  0  0  0  0  0
   -0.3882    1.2603    0.1182 C   0  0  0  0  0  0  0  0  0  0  0  0
   -0.8925   -1.1237    0.6723 C   0  0  1  0  0  0  0  0  0  0  0  0
   -0.0232    0.0691    0.7256 C   0  0  0  0  0  0  0  0  0  0  0  0
    1.0485    0.0089    1.3740 O   0  0  0  0  0  0  0  0  0  0  0  0
  -11.3260    2.0081   -5.7611 H   0  0  0  0  0  0  0  0  0  0  0  0
  -10.9500    0.7670   -4.5721 H   0  0  0  0  0  0  0  0  0  0  0  0
   -7.1081    3.3910   -5.3647 H   0  0  0  0  0  0  0  0  0  0  0  0
   -5.6997    2.6867   -6.1620 H   0  0  0  0  0  0  0  0  0  0  0  0
  -10.1859    3.6963   -4.0571 H   0  0  0  0  0  0  0  0  0  0  0  0
  -11.8867    3.2511   -3.9587 H   0  0  0  0  0  0  0  0  0  0  0  0
   -6.3281   -1.0250   -7.5254 H   0  0  0  0  0  0  0  0  0  0  0  0
   -6.3560    0.7344   -1.3762 H   0  0  0  0  0  0  0  0  0  0  0  0
   -7.7010    0.2373   -2.3756 H   0  0  0  0  0  0  0  0  0  0  0  0
   -7.2897    1.9492   -2.2200 H   0  0  0  0  0  0  0  0  0  0  0  0
   -4.0812    1.5282   -4.4680 H   0  0  0  0  0  0  0  0  0  0  0  0
   -4.7285   -0.8015   -4.4596 H   0  0  0  0  0  0  0  0  0  0  0  0
   -6.0735   -1.3917   -3.4946 H   0  0  0  0  0  0  0  0  0  0  0  0
   -4.6380    3.8540   -4.4374 H   0  0  0  0  0  0  0  0  0  0  0  0
   -5.9634    3.6025   -3.2760 H   0  0  0  0  0  0  0  0  0  0  0  0
  -11.5540    1.6912   -2.0288 H   0  0  0  0  0  0  0  0  0  0  0  0
   -9.8414    1.4207   -2.3689 H   0  0  0  0  0  0  0  0  0  0  0  0
   -4.4698    2.0419   -1.5007 H   0  0  0  0  0  0  0  0  0  0  0  0
   -3.7716   -1.7535   -2.5466 H   0  0  0  0  0  0  0  0  0  0  0  0
   -4.8593   -0.9655   -1.4306 H   0  0  0  0  0  0  0  0  0  0  0  0
   -9.1512    3.7082   -1.3844 H   0  0  0  0  0  0  0  0  0  0  0  0
  -10.8332    4.2465   -1.2812 H   0  0  0  0  0  0  0  0  0  0  0  0
   -2.5123    0.1834   -2.9738 H   0  0  0  0  0  0  0  0  0  0  0  0
   -2.0247    2.5671   -3.2637 H   0  0  0  0  0  0  0  0  0  0  0  0
   -3.0602    3.8070   -2.5515 H   0  0  0  0  0  0  0  0  0  0  0  0
   -9.6847    1.8360    0.2413 H   0  0  0  0  0  0  0  0  0  0  0  0
  -11.3410    2.4544    0.3624 H   0  0  0  0  0  0  0  0  0  0  0  0
   -3.2233    0.3751   -0.0120 H   0  0  0  0  0  0  0  0  0  0  0  0
   -2.4253    3.2636   -0.3186 H   0  0  0  0  0  0  0  0  0  0  0  0
   -0.9534    3.3482   -1.2814 H   0  0  0  0  0  0  0  0  0  0  0  0
  -10.0485    3.2749    2.2560 H   0  0  0  0  0  0  0  0  0  0  0  0
   -8.7865    3.9271    1.1950 H   0  0  0  0  0  0  0  0  0  0  0  0
  -10.4089    4.6561    1.2023 H   0  0  0  0  0  0  0  0  0  0  0  0
   -2.5088   -1.9057   -0.5153 H   0  0  0  0  0  0  0  0  0  0  0  0
   -1.1378   -1.3186   -1.4704 H   0  0  0  0  0  0  0  0  0  0  0  0
    0.2201    2.0401    0.2461 H   0  0  0  0  0  0  0  0  0  0  0  0
   -1.5298   -1.1303    1.5611 H   0  0  0  0  0  0  0  0  0  0  0  0
   -0.2881   -2.0345    0.6726 H   0  0  0  0  0  0  0  0  0  0  0  0
  1  2  1  0  0  0  0 
  3  1  1  0  0  0  0 
  2  4  1  0  0  0  0 
  2  5  2  0  0  0  0 
  3  6  1  0  0  0  0 
  7  3  1  0  0  0  0 
  3  8  1  0  0  0  0 
  4  9  1  0  0  0  0 
  6 10  3  0  0  0  0 
  7 11  1  0  0  0  0 
  7 12  1  0  0  0  0 
  7 13  1  0  0  0  0 
  8 14  1  0  0  0  0 
  9 15  1  0  0  0  0 
 12 14  1  0  0  0  0 
 12 16  1  0  0  0  0 
 13 17  1  0  0  0  0 
 15 18  1  0  0  0  0 
 16 19  1  0  0  0  0 
 16 20  1  0  0  0  0 
 19 17  1  0  0  0  0 
 18 21  1  0  0  0  0 
 19 22  1  0  0  0  0 
 20 23  1  0  0  0  0 
 21 24  1  0  0  0  0 
 22 25  1  0  0  0  0 
 22 26  1  0  0  0  0 
 23 25  1  0  0  0  0 
 25 27  2  0  0  0  0 
 26 28  1  0  0  0  0 
 27 29  1  0  0  0  0 
 28 29  1  0  0  0  0 
 29 30  2  0  0  0  0 
 31  4  1  0  0  0  0 
 32  4  1  0  0  0  0 
 33  8  1  0  0  0  0 
 34  8  1  0  0  0  0 
 35  9  1  0  0  0  0 
 36  9  1  0  0  0  0 
 37 10  1  0  0  0  0 
 38 11  1  0  0  0  0 
 39 11  1  0  0  0  0 
 40 11  1  0  0  0  0 
 12 41  1  0  0  0  0 
 42 13  1  0  0  0  0 
 43 13  1  0  0  0  0 
 44 14  1  0  0  0  0 
 45 14  1  0  0  0  0 
 46 15  1  0  0  0  0 
 47 15  1  0  0  0  0 
 16 48  1  0  0  0  0 
 49 17  1  0  0  0  0 
 50 17  1  0  0  0  0 
 51 18  1  0  0  0  0 
 52 18  1  0  0  0  0 
 19 53  1  0  0  0  0 
 54 20  1  0  0  0  0 
 55 20  1  0  0  0  0 
 56 21  1  0  0  0  0 
 57 21  1  0  0  0  0 
 22 58  1  0  0  0  0 
 59 23  1  0  0  0  0 
 60 23  1  0  0  0  0 
 61 24  1  0  0  0  0 
 62 24  1  0  0  0  0 
 63 24  1  0  0  0  0 
 64 26  1  0  0  0  0 
 65 26  1  0  0  0  0 
 66 27  1  0  0  0  0 
 67 28  1  0  0  0  0 
 68 28  1  0  0  0  0 
M  END
> <cdk:Title>
norethindrone enanthate

> <Conformer>
1

> <SuperDrugID>
SD001756

$$$$
