clofedanol
  CDK     0628171802

 40 41  0  0  0  0  0  0  0  0999 V2000
    4.5365    2.2810    3.3764 C   0  0  1  0  0  0  0  0  0  0  0  0
    6.1111    2.3391    3.4157 C   0  0  1  0  0  0  0  0  0  0  0  0
    4.1221    3.6178    3.6777 O   0  0  0  0  0  0  0  0  0  0  0  0
    3.9013    1.9699    2.0289 C   0  0  0  0  0  0  0  0  0  0  0  0
    4.0406    1.2879    4.3954 C   0  0  0  0  0  0  0  0  0  0  0  0
    6.7831    2.7578    4.7580 C   0  0  2  0  0  0  0  0  0  0  0  0
    2.4944    2.1049    1.8030 C   0  0  0  0  0  0  0  0  0  0  0  0
    4.6812    1.5284    0.9233 C   0  0  0  0  0  0  0  0  0  0  0  0
    3.3228    1.6803    5.5555 C   0  0  0  0  0  0  0  0  0  0  0  0
    4.2784   -0.0990    4.2084 C   0  0  0  0  0  0  0  0  0  0  0  0
    6.4306    4.1262    5.2633 N   0  0  1  0  0  0  0  0  0  0  0  0
    1.3842    2.5893    2.9938 Cl  0  0  0  0  0  0  0  0  0  0  0  0
    1.9307    1.8401    0.5355 C   0  0  0  0  0  0  0  0  0  0  0  0
    4.1150    1.2573   -0.3338 C   0  0  0  0  0  0  0  0  0  0  0  0
    2.8205    0.7258    6.4602 C   0  0  0  0  0  0  0  0  0  0  0  0
    3.7906   -1.0543    5.1178 C   0  0  0  0  0  0  0  0  0  0  0  0
    6.7185    4.2867    6.7189 C   0  0  0  0  0  0  0  0  0  0  0  0
    7.0171    5.2406    4.4607 C   0  0  0  0  0  0  0  0  0  0  0  0
    2.7390    1.4216   -0.5298 C   0  0  0  0  0  0  0  0  0  0  0  0
    3.0509   -0.6415    6.2387 C   0  0  0  0  0  0  0  0  0  0  0  0
    6.5121    1.3521    3.1685 H   0  0  0  0  0  0  0  0  0  0  0  0
    6.4624    3.0194    2.6380 H   0  0  0  0  0  0  0  0  0  0  0  0
    4.4460    4.1619    2.9303 H   0  0  0  0  0  0  0  0  0  0  0  0
    7.8678    2.6965    4.6307 H   0  0  0  0  0  0  0  0  0  0  0  0
    6.5197    1.9978    5.4996 H   0  0  0  0  0  0  0  0  0  0  0  0
    5.6861    1.3870    1.0036 H   0  0  0  0  0  0  0  0  0  0  0  0
    3.1439    2.6665    5.7543 H   0  0  0  0  0  0  0  0  0  0  0  0
    4.8072   -0.4282    3.3974 H   0  0  0  0  0  0  0  0  0  0  0  0
    0.9267    1.9502    0.3749 H   0  0  0  0  0  0  0  0  0  0  0  0
    4.7073    0.9443   -1.1072 H   0  0  0  0  0  0  0  0  0  0  0  0
    2.2841    1.0276    7.2774 H   0  0  0  0  0  0  0  0  0  0  0  0
    3.9703   -2.0488    4.9606 H   0  0  0  0  0  0  0  0  0  0  0  0
    6.3945    5.2678    7.0727 H   0  0  0  0  0  0  0  0  0  0  0  0
    6.1743    3.5387    7.2995 H   0  0  0  0  0  0  0  0  0  0  0  0
    7.7873    4.1774    6.9181 H   0  0  0  0  0  0  0  0  0  0  0  0
    6.6966    5.1874    3.4217 H   0  0  0  0  0  0  0  0  0  0  0  0
    6.6839    6.2058    4.8440 H   0  0  0  0  0  0  0  0  0  0  0  0
    8.1074    5.2120    4.4915 H   0  0  0  0  0  0  0  0  0  0  0  0
    2.3269    1.2351   -1.4467 H   0  0  0  0  0  0  0  0  0  0  0  0
    2.6834   -1.3359    6.8923 H   0  0  0  0  0  0  0  0  0  0  0  0
  1  2  1  0  0  0  0 
  1  3  1  0  0  0  0 
  1  4  1  0  0  0  0 
  1  5  1  0  0  0  0 
  2  6  1  0  0  0  0 
  4  7  2  0  0  0  0 
  4  8  1  0  0  0  0 
  5  9  2  0  0  0  0 
  5 10  1  0  0  0  0 
  6 11  1  0  0  0  0 
  7 12  1  0  0  0  0 
  7 13  1  0  0  0  0 
  8 14  2  0  0  0  0 
  9 15  1  0  0  0  0 
 10 16  2  0  0  0  0 
 11 17  1  0  0  0  0 
 11 18  1  0  0  0  0 
 13 19  2  0  0  0  0 
 14 19  1  0  0  0  0 
 15 20  2  0  0  0  0 
 16 20  1  0  0  0  0 
  2 21  1  0  0  0  0 
  2 22  1  0  0  0  0 
  3 23  1  0  0  0  0 
  6 24  1  0  0  0  0 
  6 25  1  0  0  0  0 
  8 26  1  0  0  0  0 
  9 27  1  0  0  0  0 
 10 28  1  0  0  0  0 
 13 29  1  0  0  0  0 
 14 30  1  0  0  0  0 
 15 31  1  0  0  0  0 
 16 32  1  0  0  0  0 
 17 33  1  0  0  0  0 
 17 34  1  0  0  0  0 
 17 35  1  0  0  0  0 
 18 36  1  0  0  0  0 
 18 37  1  0  0  0  0 
 18 38  1  0  0  0  0 
 19 39  1  0  0  0  0 
 20 40  1  0  0  0  0 
M  END
> <cdk:Title>
clofedanol

> <Conformer>
1

> <SuperDrugID>
SD000512

$$$$
