fentiazac
  CDK     0628171801

 34 36  0  0  0  0  0  0  0  0999 V2000
   -1.3019   -1.3731    1.2237 C   0  0  1  0  0  0  0  0  0  0  0  0
   -2.5402   -0.5754    1.1594 C   0  0  0  0  0  0  0  0  0  0  0  0
   -1.3525   -2.5055    0.2759 C   0  0  0  0  0  0  0  0  0  0  0  0
   -3.3685   -0.5054    2.2269 O   0  0  0  0  0  0  0  0  0  0  0  0
   -2.8491    0.0488    0.1187 O   0  0  0  0  0  0  0  0  0  0  0  0
   -2.1793   -3.6459    0.2900 C   0  0  0  0  0  0  0  0  0  0  0  0
   -0.4444   -2.6129   -1.2211 S   0  0  0  0  0  0  0  0  0  0  0  0
   -2.0644   -4.4559   -0.7954 N   0  0  0  0  0  0  0  0  0  0  0  0
   -3.1076   -3.9679    1.3040 C   0  0  0  0  0  0  0  0  0  0  0  0
   -1.1892   -4.1075   -1.7645 C   0  0  0  0  0  0  0  0  0  0  0  0
   -2.6855   -4.1490    2.6400 C   0  0  0  0  0  0  0  0  0  0  0  0
   -4.4775   -4.1284    0.9905 C   0  0  0  0  0  0  0  0  0  0  0  0
   -0.9526   -4.8299   -2.9584 C   0  0  0  0  0  0  0  0  0  0  0  0
   -3.6155   -4.4581    3.6484 C   0  0  0  0  0  0  0  0  0  0  0  0
   -5.4074   -4.4486    1.9977 C   0  0  0  0  0  0  0  0  0  0  0  0
   -0.2095   -4.2754   -4.0290 C   0  0  0  0  0  0  0  0  0  0  0  0
   -1.4668   -6.1431   -3.1044 C   0  0  0  0  0  0  0  0  0  0  0  0
   -4.9781   -4.6145    3.3291 C   0  0  0  0  0  0  0  0  0  0  0  0
    0.0190   -5.0180   -5.2029 C   0  0  0  0  0  0  0  0  0  0  0  0
   -1.2321   -6.8849   -4.2763 C   0  0  0  0  0  0  0  0  0  0  0  0
   -6.0938   -5.0078    4.5409 Cl  0  0  0  0  0  0  0  0  0  0  0  0
   -0.4914   -6.3221   -5.3288 C   0  0  0  0  0  0  0  0  0  0  0  0
   -0.4585   -0.7215    0.9878 H   0  0  0  0  0  0  0  0  0  0  0  0
   -1.1470   -1.7561    2.2336 H   0  0  0  0  0  0  0  0  0  0  0  0
   -4.2002    0.0102    2.1717 H   0  0  0  0  0  0  0  0  0  0  0  0
   -1.6976   -4.0685    2.8906 H   0  0  0  0  0  0  0  0  0  0  0  0
   -4.8113   -4.0071    0.0295 H   0  0  0  0  0  0  0  0  0  0  0  0
   -3.2921   -4.5729    4.6115 H   0  0  0  0  0  0  0  0  0  0  0  0
   -6.3951   -4.5594    1.7548 H   0  0  0  0  0  0  0  0  0  0  0  0
    0.1699   -3.3266   -3.9733 H   0  0  0  0  0  0  0  0  0  0  0  0
   -2.0132   -6.5814   -2.3560 H   0  0  0  0  0  0  0  0  0  0  0  0
    0.5612   -4.6091   -5.9661 H   0  0  0  0  0  0  0  0  0  0  0  0
   -1.5970   -7.8365   -4.3571 H   0  0  0  0  0  0  0  0  0  0  0  0
   -0.3222   -6.8614   -6.1806 H   0  0  0  0  0  0  0  0  0  0  0  0
  1  2  1  0  0  0  0 
  1  3  1  0  0  0  0 
  2  4  1  0  0  0  0 
  2  5  2  0  0  0  0 
  3  6  2  0  0  0  0 
  3  7  1  0  0  0  0 
  6  8  1  0  0  0  0 
  6  9  1  0  0  0  0 
  7 10  1  0  0  0  0 
  8 10  2  0  0  0  0 
  9 11  2  0  0  0  0 
  9 12  1  0  0  0  0 
 10 13  1  0  0  0  0 
 11 14  1  0  0  0  0 
 12 15  2  0  0  0  0 
 13 16  2  0  0  0  0 
 13 17  1  0  0  0  0 
 14 18  2  0  0  0  0 
 15 18  1  0  0  0  0 
 16 19  1  0  0  0  0 
 17 20  2  0  0  0  0 
 18 21  1  0  0  0  0 
 19 22  2  0  0  0  0 
 20 22  1  0  0  0  0 
  1 23  1  0  0  0  0 
  1 24  1  0  0  0  0 
  4 25  1  0  0  0  0 
 11 26  1  0  0  0  0 
 12 27  1  0  0  0  0 
 14 28  1  0  0  0  0 
 15 29  1  0  0  0  0 
 16 30  1  0  0  0  0 
 17 31  1  0  0  0  0 
 19 32  1  0  0  0  0 
 20 33  1  0  0  0  0 
 22 34  1  0  0  0  0 
M  END
> <cdk:Title>
fentiazac

> <Conformer>
1

> <SuperDrugID>
SD001042

$$$$
