axitinib
  CDK     0628171801

 46 49  0  0  0  0  0  0  0  0999 V2000
    2.2115    5.0973   -0.4888 C   0  0  0  0  0  0  0  0  0  0  0  0
    0.8706    4.9438   -0.5257 C   0  0  0  0  0  0  0  0  0  0  0  0
    2.8545    6.3219   -0.3376 C   0  0  0  0  0  0  0  0  0  0  0  0
    0.1996    3.7274   -0.6726 C   0  0  0  0  0  0  0  0  0  0  0  0
    4.2253    6.5785   -0.2800 C   0  0  0  0  0  0  0  0  0  0  0  0
    2.2651    7.5303   -0.2080 N   0  0  0  0  0  0  0  0  0  0  0  0
   -1.2176    3.6600   -0.7036 C   0  0  0  0  0  0  0  0  0  0  0  0
    0.8918    2.5583   -0.7931 N   0  0  0  0  0  0  0  0  0  0  0  0
    4.3462    7.9534   -0.1076 C   0  0  0  0  0  0  0  0  0  0  0  0
    5.3690    5.7595   -0.3569 C   0  0  0  0  0  0  0  0  0  0  0  0
    3.1214    8.4974   -0.0732 N   0  0  0  0  0  0  0  0  0  0  0  0
   -1.8586    2.4150   -0.8569 C   0  0  0  0  0  0  0  0  0  0  0  0
    0.3075    1.3426   -0.9420 C   0  0  0  0  0  0  0  0  0  0  0  0
    5.6026    8.5692    0.0065 C   0  0  0  0  0  0  0  0  0  0  0  0
    6.6414    6.3635   -0.2466 C   0  0  0  0  0  0  0  0  0  0  0  0
   -1.0936    1.2423   -0.9783 C   0  0  0  0  0  0  0  0  0  0  0  0
    6.7606    7.7625   -0.0579 C   0  0  0  0  0  0  0  0  0  0  0  0
    8.3461    8.5071    0.1057 S   0  0  0  0  0  0  0  0  0  0  0  0
    8.9703    8.6391   -1.5441 C   0  0  0  0  0  0  0  0  0  0  0  0
   10.1086    7.9319   -2.0526 C   0  0  0  0  0  0  0  0  0  0  0  0
    8.2715    9.5555   -2.3622 C   0  0  0  0  0  0  0  0  0  0  0  0
   10.8413    6.9524   -1.2954 C   0  0  0  0  0  0  0  0  0  0  0  0
   10.5195    8.2380   -3.3810 C   0  0  0  0  0  0  0  0  0  0  0  0
    8.6937    9.8163   -3.6728 C   0  0  0  0  0  0  0  0  0  0  0  0
   12.0095    6.3940   -1.7453 N   0  0  0  0  0  0  0  0  0  0  0  0
   10.4248    6.5575   -0.1802 O   0  0  0  0  0  0  0  0  0  0  0  0
    9.8283    9.1680   -4.1775 C   0  0  0  0  0  0  0  0  0  0  0  0
   12.8173    5.4750   -1.0134 C   0  0  0  0  0  0  0  0  0  0  0  0
    2.7905    4.2933   -0.5684 H   0  0  0  0  0  0  0  0  0  0  0  0
    0.3056    5.7585   -0.4397 H   0  0  0  0  0  0  0  0  0  0  0  0
    1.3034    7.6638   -0.2121 H   0  0  0  0  0  0  0  0  0  0  0  0
   -1.7924    4.5031   -0.6176 H   0  0  0  0  0  0  0  0  0  0  0  0
    5.2882    4.7514   -0.4883 H   0  0  0  0  0  0  0  0  0  0  0  0
   -2.8808    2.3606   -0.8811 H   0  0  0  0  0  0  0  0  0  0  0  0
    0.8920    0.5082   -1.0263 H   0  0  0  0  0  0  0  0  0  0  0  0
    5.6673    9.5798    0.1323 H   0  0  0  0  0  0  0  0  0  0  0  0
    7.4797    5.7793   -0.3027 H   0  0  0  0  0  0  0  0  0  0  0  0
   -1.5470    0.3318   -1.0895 H   0  0  0  0  0  0  0  0  0  0  0  0
    7.4483   10.0521   -2.0099 H   0  0  0  0  0  0  0  0  0  0  0  0
   11.3352    7.7911   -3.8031 H   0  0  0  0  0  0  0  0  0  0  0  0
    8.1785   10.4838   -4.2529 H   0  0  0  0  0  0  0  0  0  0  0  0
   12.3381    6.6562   -2.6196 H   0  0  0  0  0  0  0  0  0  0  0  0
   10.1477    9.3743   -5.1273 H   0  0  0  0  0  0  0  0  0  0  0  0
   13.3369    6.0057   -0.2150 H   0  0  0  0  0  0  0  0  0  0  0  0
   13.5580    5.0381   -1.6819 H   0  0  0  0  0  0  0  0  0  0  0  0
   12.2157    4.6707   -0.5837 H   0  0  0  0  0  0  0  0  0  0  0  0
  1  2  2  0  0  0  0 
  1  3  1  0  0  0  0 
  2  4  1  0  0  0  0 
  3  5  2  0  0  0  0 
  3  6  1  0  0  0  0 
  4  7  2  0  0  0  0 
  4  8  1  0  0  0  0 
  5  9  1  0  0  0  0 
  5 10  1  0  0  0  0 
  6 11  1  0  0  0  0 
  7 12  1  0  0  0  0 
  8 13  2  0  0  0  0 
  9 11  2  0  0  0  0 
  9 14  1  0  0  0  0 
 10 15  2  0  0  0  0 
 12 16  2  0  0  0  0 
 13 16  1  0  0  0  0 
 14 17  2  0  0  0  0 
 15 17  1  0  0  0  0 
 17 18  1  0  0  0  0 
 18 19  1  0  0  0  0 
 19 20  2  0  0  0  0 
 19 21  1  0  0  0  0 
 20 22  1  0  0  0  0 
 20 23  1  0  0  0  0 
 21 24  2  0  0  0  0 
 22 25  1  0  0  0  0 
 22 26  2  0  0  0  0 
 23 27  2  0  0  0  0 
 24 27  1  0  0  0  0 
 25 28  1  0  0  0  0 
  1 29  1  0  0  0  0 
 30  2  1  0  0  0  0 
 31  6  1  0  0  0  0 
 32  7  1  0  0  0  0 
 33 10  1  0  0  0  0 
 34 12  1  0  0  0  0 
 35 13  1  0  0  0  0 
 36 14  1  0  0  0  0 
 37 15  1  0  0  0  0 
 38 16  1  0  0  0  0 
 39 21  1  0  0  0  0 
 40 23  1  0  0  0  0 
 41 24  1  0  0  0  0 
 42 25  1  0  0  0  0 
 43 27  1  0  0  0  0 
 44 28  1  0  0  0  0 
 45 28  1  0  0  0  0 
 46 28  1  0  0  0  0 
M  END
> <cdk:Title>
axitinib

> <Conformer>
1

> <SuperDrugID>
SD003436

$$$$
