polythiazide
  CDK     0628171801

 38 39  0  0  0  0  0  0  0  0999 V2000
   -3.5804    3.1430    2.1929 O   0  0  0  0  0  0  0  0  0  0  0  0
   -2.8439    2.3772    3.3933 S   0  0  2  0  0  0  0  0  0  0  0  0
   -1.7025    3.3223    4.0075 O   0  0  0  0  0  0  0  0  0  0  0  0
   -2.1376    0.8486    2.8622 C   0  0  0  0  0  0  0  0  0  0  0  0
   -3.9899    1.9306    4.6722 N   0  0  1  0  0  0  0  0  0  0  0  0
   -2.1499   -0.2288    3.7742 C   0  0  0  0  0  0  0  0  0  0  0  0
   -1.5995    0.6891    1.5716 C   0  0  0  0  0  0  0  0  0  0  0  0
   -5.2490    1.3903    4.0832 C   0  0  0  0  0  0  0  0  0  0  0  0
   -3.2790    1.0203    5.6399 C   0  0  2  0  0  0  0  0  0  0  0  0
   -2.6650   -0.1364    5.0366 N   0  0  0  0  0  0  0  0  0  0  0  0
   -1.6138   -1.4664    3.3705 C   0  0  0  0  0  0  0  0  0  0  0  0
   -1.0710   -0.5559    1.1647 C   0  0  0  0  0  0  0  0  0  0  0  0
   -4.1591    0.5164    6.8191 C   0  0  2  0  0  0  0  0  0  0  0  0
   -1.0754   -1.6383    2.0796 C   0  0  0  0  0  0  0  0  0  0  0  0
   -0.4280   -0.7183   -0.4830 S   0  0  1  0  0  0  0  0  0  0  0  0
   -5.0510    1.8433    7.6962 S   0  0  0  0  0  0  0  0  0  0  0  0
   -0.4463   -3.1655    1.6912 Cl  0  0  0  0  0  0  0  0  0  0  0  0
    1.3193   -0.9036   -0.4261 N   0  0  2  0  0  0  0  0  0  0  0  0
   -1.0417   -2.0098   -1.2117 O   0  0  0  0  0  0  0  0  0  0  0  0
   -0.7507    0.5752   -1.3750 O   0  0  0  0  0  0  0  0  0  0  0  0
   -6.2502    0.9091    8.7085 C   0  0  2  0  0  0  0  0  0  0  0  0
   -7.2166    1.8197    9.4987 C   0  0  2  0  0  0  0  0  0  0  0  0
   -8.0740    1.0434   10.2401 F   0  0  0  0  0  0  0  0  0  0  0  0
   -7.9700    2.5969    8.6518 F   0  0  0  0  0  0  0  0  0  0  0  0
   -6.5315    2.6377   10.3635 F   0  0  0  0  0  0  0  0  0  0  0  0
   -1.6036    1.4855    0.9299 H   0  0  0  0  0  0  0  0  0  0  0  0
   -5.0826    0.4238    3.6044 H   0  0  0  0  0  0  0  0  0  0  0  0
   -6.0102    1.2709    4.8539 H   0  0  0  0  0  0  0  0  0  0  0  0
   -5.6621    2.0791    3.3441 H   0  0  0  0  0  0  0  0  0  0  0  0
   -2.4671    1.5958    6.0947 H   0  0  0  0  0  0  0  0  0  0  0  0
   -2.5931   -0.9303    5.5905 H   0  0  0  0  0  0  0  0  0  0  0  0
   -1.6221   -2.2522    4.0245 H   0  0  0  0  0  0  0  0  0  0  0  0
   -3.5396   -0.0030    7.5552 H   0  0  0  0  0  0  0  0  0  0  0  0
   -4.8929   -0.1957    6.4375 H   0  0  0  0  0  0  0  0  0  0  0  0
    1.6213   -1.0752   -1.3883 H   0  0  0  0  0  0  0  0  0  0  0  0
    1.5214   -1.7551    0.1039 H   0  0  0  0  0  0  0  0  0  0  0  0
   -5.6946    0.2726    9.4010 H   0  0  0  0  0  0  0  0  0  0  0  0
   -6.8286    0.2610    8.0457 H   0  0  0  0  0  0  0  0  0  0  0  0
  1  2  2  0  0  0  0 
  2  3  2  0  0  0  0 
  2  4  1  0  0  0  0 
  2  5  1  0  0  0  0 
  4  6  2  0  0  0  0 
  4  7  1  0  0  0  0 
  5  8  1  0  0  0  0 
  5  9  1  0  0  0  0 
  6 10  1  0  0  0  0 
  6 11  1  0  0  0  0 
  7 12  2  0  0  0  0 
  9 10  1  0  0  0  0 
  9 13  1  0  0  0  0 
 11 14  2  0  0  0  0 
 12 14  1  0  0  0  0 
 12 15  1  0  0  0  0 
 13 16  1  0  0  0  0 
 14 17  1  0  0  0  0 
 15 18  1  0  0  0  0 
 15 19  2  0  0  0  0 
 15 20  2  0  0  0  0 
 16 21  1  0  0  0  0 
 21 22  1  0  0  0  0 
 22 23  1  0  0  0  0 
 22 24  1  0  0  0  0 
 22 25  1  0  0  0  0 
  7 26  1  0  0  0  0 
  8 27  1  0  0  0  0 
  8 28  1  0  0  0  0 
  8 29  1  0  0  0  0 
  9 30  1  0  0  0  0 
 10 31  1  0  0  0  0 
 11 32  1  0  0  0  0 
 13 33  1  0  0  0  0 
 13 34  1  0  0  0  0 
 18 35  1  0  0  0  0 
 18 36  1  0  0  0  0 
 21 37  1  0  0  0  0 
 21 38  1  0  0  0  0 
M  END
> <cdk:Title>
polythiazide

> <Conformer>
1

> <SuperDrugID>
SD001998

$$$$
