azlocillin
  CDK     0628171801

 55 58  0  0  0  0  0  0  0  0999 V2000
   -1.4525   -0.7958    6.6847 C   0  0  0  0  0  0  0  0  0  0  0  0
   -1.2027   -0.2355    7.8917 O   0  0  0  0  0  0  0  0  0  0  0  0
   -0.7711   -1.7909    6.3506 O   0  0  0  0  0  0  0  0  0  0  0  0
   -2.5178   -0.2552    5.8082 C   0  0  2  0  0  0  0  0  0  0  0  0
   -3.4273   -1.2885    5.4403 N   0  0  0  0  0  0  0  0  0  0  0  0
   -2.0938    0.4071    4.4306 C   0  0  2  0  0  0  0  0  0  0  0  0
   -3.4604   -1.9685    4.2082 C   0  0  2  0  0  0  0  0  0  0  0  0
   -4.6384   -1.6675    5.8400 C   0  0  0  0  0  0  0  0  0  0  0  0
   -3.0573   -0.5283    3.1719 S   0  0  0  0  0  0  0  0  0  0  0  0
   -4.9252   -2.3578    4.5793 C   0  0  1  0  0  0  0  0  0  0  0  0
   -5.3362   -1.3951    6.8423 O   0  0  0  0  0  0  0  0  0  0  0  0
   -5.9213   -1.6564    3.8383 N   0  0  0  0  0  0  0  0  0  0  0  0
   -7.2627   -1.8421    3.9428 C   0  0  0  0  0  0  0  0  0  0  0  0
   -8.1960   -0.7742    3.4999 C   0  0  2  0  0  0  0  0  0  0  0  0
   -7.7239   -2.8415    4.5447 O   0  0  0  0  0  0  0  0  0  0  0  0
   -7.6731    0.0014    2.4083 N   0  0  0  0  0  0  0  0  0  0  0  0
   -8.4637    0.0596    4.7127 C   0  0  0  0  0  0  0  0  0  0  0  0
   -8.2953    1.0401    1.7805 C   0  0  0  0  0  0  0  0  0  0  0  0
   -7.4592    0.9081    5.2446 C   0  0  0  0  0  0  0  0  0  0  0  0
   -9.7064   -0.0121    5.3853 C   0  0  0  0  0  0  0  0  0  0  0  0
   -9.4568    1.3558    2.1344 O   0  0  0  0  0  0  0  0  0  0  0  0
   -7.6509    1.7400    0.7864 N   0  0  0  0  0  0  0  0  0  0  0  0
   -7.6758    1.6340    6.4286 C   0  0  0  0  0  0  0  0  0  0  0  0
   -9.9262    0.7189    6.5674 C   0  0  0  0  0  0  0  0  0  0  0  0
   -8.1449    2.7980    0.0961 C   0  0  0  0  0  0  0  0  0  0  0  0
   -6.3205    1.4661    0.3350 C   0  0  2  0  0  0  0  0  0  0  0  0
   -8.9079    1.5315    7.0953 C   0  0  0  0  0  0  0  0  0  0  0  0
   -9.2699    3.3296    0.2384 O   0  0  0  0  0  0  0  0  0  0  0  0
   -7.2541    3.2460   -0.7906 N   0  0  0  0  0  0  0  0  0  0  0  0
   -6.0615    2.4996   -0.7838 C   0  0  2  0  0  0  0  0  0  0  0  0
   -2.7327   -2.7852    4.1745 H   0  0  0  0  0  0  0  0  0  0  0  0
   -0.5925    0.2743    4.0307 C   0  0  0  0  0  0  0  0  0  0  0  0
   -2.5151    1.9048    4.3522 C   0  0  0  0  0  0  0  0  0  0  0  0
   -0.5108   -0.6109    8.4752 H   0  0  0  0  0  0  0  0  0  0  0  0
   -3.0779    0.4694    6.4088 H   0  0  0  0  0  0  0  0  0  0  0  0
   -5.0780   -3.4339    4.6972 H   0  0  0  0  0  0  0  0  0  0  0  0
   -5.6164   -0.9196    3.2913 H   0  0  0  0  0  0  0  0  0  0  0  0
   -9.1085   -1.2581    3.1367 H   0  0  0  0  0  0  0  0  0  0  0  0
   -6.7848   -0.2242    2.0933 H   0  0  0  0  0  0  0  0  0  0  0  0
   -6.5553    0.9975    4.7738 H   0  0  0  0  0  0  0  0  0  0  0  0
  -10.4566   -0.6072    5.0265 H   0  0  0  0  0  0  0  0  0  0  0  0
   -6.9358    2.2328    6.8032 H   0  0  0  0  0  0  0  0  0  0  0  0
  -10.8262    0.6560    7.0473 H   0  0  0  0  0  0  0  0  0  0  0  0
   -6.2381    0.4503   -0.0555 H   0  0  0  0  0  0  0  0  0  0  0  0
   -5.6084    1.5900    1.1546 H   0  0  0  0  0  0  0  0  0  0  0  0
   -9.0641    2.0494    7.9609 H   0  0  0  0  0  0  0  0  0  0  0  0
   -7.4080    4.0016   -1.3764 H   0  0  0  0  0  0  0  0  0  0  0  0
   -5.9153    2.0196   -1.7535 H   0  0  0  0  0  0  0  0  0  0  0  0
   -5.2083    3.1430   -0.5583 H   0  0  0  0  0  0  0  0  0  0  0  0
   -0.2870   -0.7714    3.9807 H   0  0  0  0  0  0  0  0  0  0  0  0
    0.0419    0.7887    4.7534 H   0  0  0  0  0  0  0  0  0  0  0  0
   -0.4131    0.7166    3.0474 H   0  0  0  0  0  0  0  0  0  0  0  0
   -3.5831    2.0187    4.5450 H   0  0  0  0  0  0  0  0  0  0  0  0
   -1.9695    2.4888    5.0950 H   0  0  0  0  0  0  0  0  0  0  0  0
   -2.3047    2.3245    3.3667 H   0  0  0  0  0  0  0  0  0  0  0  0
  1  2  1  0  0  0  0 
  1  3  2  0  0  0  0 
  4  1  1  0  0  0  0 
  4  5  1  0  0  0  0 
  4  6  1  0  0  0  0 
  7  5  1  0  0  0  0 
  5  8  1  0  0  0  0 
  6  9  1  0  0  0  0 
  7  9  1  0  0  0  0 
 10  7  1  0  0  0  0 
  7 31  1  0  0  0  0 
 10  8  1  0  0  0  0 
  8 11  2  0  0  0  0 
 10 12  1  0  0  0  0 
 12 13  1  0  0  0  0 
 14 13  1  0  0  0  0 
 13 15  2  0  0  0  0 
 14 16  1  0  0  0  0 
 14 17  1  0  0  0  0 
 16 18  1  0  0  0  0 
 17 19  2  0  0  0  0 
 17 20  1  0  0  0  0 
 18 21  2  0  0  0  0 
 18 22  1  0  0  0  0 
 19 23  1  0  0  0  0 
 20 24  2  0  0  0  0 
 22 25  1  0  0  0  0 
 22 26  1  0  0  0  0 
 23 27  2  0  0  0  0 
 24 27  1  0  0  0  0 
 25 28  2  0  0  0  0 
 25 29  1  0  0  0  0 
 26 30  1  0  0  0  0 
 29 30  1  0  0  0  0 
  6 32  1  0  0  0  0 
  6 33  1  0  0  0  0 
  2 34  1  0  0  0  0 
  4 35  1  0  0  0  0 
 10 36  1  0  0  0  0 
 12 37  1  0  0  0  0 
 14 38  1  0  0  0  0 
 16 39  1  0  0  0  0 
 19 40  1  0  0  0  0 
 20 41  1  0  0  0  0 
 23 42  1  0  0  0  0 
 24 43  1  0  0  0  0 
 26 44  1  0  0  0  0 
 26 45  1  0  0  0  0 
 27 46  1  0  0  0  0 
 29 47  1  0  0  0  0 
 30 48  1  0  0  0  0 
 30 49  1  0  0  0  0 
 32 50  1  0  0  0  0 
 32 51  1  0  0  0  0 
 32 52  1  0  0  0  0 
 33 53  1  0  0  0  0 
 33 54  1  0  0  0  0 
 33 55  1  0  0  0  0 
M  END
> <cdk:Title>
azlocillin

> <Conformer>
1

> <SuperDrugID>
SD000231

$$$$
