eicosapentaenoic acid
  CDK     0628171801

 52 51  0  0  0  0  0  0  0  0999 V2000
    0.2477   -5.0144   -1.2790 C   0  0  0  0  0  0  0  0  0  0  0  0
    0.2854   -3.7301   -0.8819 C   0  0  0  0  0  0  0  0  0  0  0  0
   -0.9042   -5.9051   -1.2346 C   0  0  2  0  0  0  0  0  0  0  0  0
   -0.7991   -2.9829   -0.2576 C   0  0  2  0  0  0  0  0  0  0  0  0
   -1.9783   -5.4885   -2.1294 C   0  0  0  0  0  0  0  0  0  0  0  0
   -0.3356   -2.0530    0.7637 C   0  0  0  0  0  0  0  0  0  0  0  0
   -1.9543   -5.5006   -3.4764 C   0  0  0  0  0  0  0  0  0  0  0  0
   -0.0338   -2.3420    2.0426 C   0  0  0  0  0  0  0  0  0  0  0  0
   -0.8568   -5.9518   -4.3220 C   0  0  2  0  0  0  0  0  0  0  0  0
   -0.0880   -3.6454    2.6898 C   0  0  1  0  0  0  0  0  0  0  0  0
   -0.8588   -7.4914   -4.5375 C   0  0  1  0  0  0  0  0  0  0  0  0
    0.8635   -4.6243    2.1824 C   0  0  0  0  0  0  0  0  0  0  0  0
    0.4650   -8.0044   -5.1587 C   0  0  1  0  0  0  0  0  0  0  0  0
    2.2076   -4.5680    2.2459 C   0  0  0  0  0  0  0  0  0  0  0  0
    0.4519   -9.4624   -5.3869 C   0  0  0  0  0  0  0  0  0  0  0  0
    3.0199   -3.5139    2.8405 C   0  0  1  0  0  0  0  0  0  0  0  0
    1.3379  -10.2656   -4.7515 O   0  0  0  0  0  0  0  0  0  0  0  0
   -0.3691   -9.9804   -6.1788 O   0  0  0  0  0  0  0  0  0  0  0  0
    3.2037   -2.3665    1.9610 C   0  0  0  0  0  0  0  0  0  0  0  0
    3.1871   -1.0677    2.3143 C   0  0  0  0  0  0  0  0  0  0  0  0
    3.0038   -0.5444    3.6632 C   0  0  2  0  0  0  0  0  0  0  0  0
    2.7911    0.9874    3.7014 C   0  0  0  0  0  0  0  0  0  0  0  0
    1.0833   -5.3897   -1.6675 H   0  0  0  0  0  0  0  0  0  0  0  0
    1.1386   -3.2395   -1.0431 H   0  0  0  0  0  0  0  0  0  0  0  0
   -1.2755   -5.9655   -0.2089 H   0  0  0  0  0  0  0  0  0  0  0  0
   -0.5975   -6.9191   -1.4966 H   0  0  0  0  0  0  0  0  0  0  0  0
   -1.5607   -3.6320    0.1765 H   0  0  0  0  0  0  0  0  0  0  0  0
   -1.2907   -2.4115   -1.0491 H   0  0  0  0  0  0  0  0  0  0  0  0
   -2.8109   -5.1504   -1.6995 H   0  0  0  0  0  0  0  0  0  0  0  0
   -0.2272   -1.1041    0.4826 H   0  0  0  0  0  0  0  0  0  0  0  0
   -2.7754   -5.1824   -3.9444 H   0  0  0  0  0  0  0  0  0  0  0  0
    0.2543   -1.5814    2.6126 H   0  0  0  0  0  0  0  0  0  0  0  0
    0.0997   -5.6269   -3.9107 H   0  0  0  0  0  0  0  0  0  0  0  0
   -0.9460   -5.4645   -5.2983 H   0  0  0  0  0  0  0  0  0  0  0  0
    0.0845   -3.5308    3.7631 H   0  0  0  0  0  0  0  0  0  0  0  0
   -1.1046   -4.0363    2.5873 H   0  0  0  0  0  0  0  0  0  0  0  0
   -1.0056   -8.0063   -3.5856 H   0  0  0  0  0  0  0  0  0  0  0  0
   -1.6981   -7.7480   -5.1909 H   0  0  0  0  0  0  0  0  0  0  0  0
    0.4737   -5.4296    1.7452 H   0  0  0  0  0  0  0  0  0  0  0  0
    0.6461   -7.5008   -6.1102 H   0  0  0  0  0  0  0  0  0  0  0  0
    1.2931   -7.7541   -4.4889 H   0  0  0  0  0  0  0  0  0  0  0  0
    2.7030   -5.3304    1.8383 H   0  0  0  0  0  0  0  0  0  0  0  0
    2.6049   -3.2467    3.8118 H   0  0  0  0  0  0  0  0  0  0  0  0
    4.0175   -3.9175    3.0320 H   0  0  0  0  0  0  0  0  0  0  0  0
    1.3319  -11.2352   -4.9036 H   0  0  0  0  0  0  0  0  0  0  0  0
    3.3754   -2.5628    0.9992 H   0  0  0  0  0  0  0  0  0  0  0  0
    3.3426   -0.4085    1.5829 H   0  0  0  0  0  0  0  0  0  0  0  0
    3.8868   -0.7929    4.2582 H   0  0  0  0  0  0  0  0  0  0  0  0
    2.1320   -1.0025    4.1363 H   0  0  0  0  0  0  0  0  0  0  0  0
    1.8570    1.2476    3.1986 H   0  0  0  0  0  0  0  0  0  0  0  0
    2.7376    1.3313    4.7359 H   0  0  0  0  0  0  0  0  0  0  0  0
    3.6173    1.5023    3.2070 H   0  0  0  0  0  0  0  0  0  0  0  0
  1  2  2  0  0  0  0 
  1  3  1  0  0  0  0 
  2  4  1  0  0  0  0 
  3  5  1  0  0  0  0 
  4  6  1  0  0  0  0 
  5  7  2  0  0  0  0 
  6  8  2  0  0  0  0 
  7  9  1  0  0  0  0 
  8 10  1  0  0  0  0 
  9 11  1  0  0  0  0 
 10 12  1  0  0  0  0 
 11 13  1  0  0  0  0 
 12 14  2  0  0  0  0 
 13 15  1  0  0  0  0 
 14 16  1  0  0  0  0 
 15 17  1  0  0  0  0 
 15 18  2  0  0  0  0 
 16 19  1  0  0  0  0 
 19 20  2  0  0  0  0 
 20 21  1  0  0  0  0 
 21 22  1  0  0  0  0 
  1 23  1  0  0  0  0 
  2 24  1  0  0  0  0 
  3 25  1  0  0  0  0 
  3 26  1  0  0  0  0 
  4 27  1  0  0  0  0 
  4 28  1  0  0  0  0 
  5 29  1  0  0  0  0 
  6 30  1  0  0  0  0 
  7 31  1  0  0  0  0 
  8 32  1  0  0  0  0 
  9 33  1  0  0  0  0 
  9 34  1  0  0  0  0 
 10 35  1  0  0  0  0 
 10 36  1  0  0  0  0 
 11 37  1  0  0  0  0 
 11 38  1  0  0  0  0 
 12 39  1  0  0  0  0 
 13 40  1  0  0  0  0 
 13 41  1  0  0  0  0 
 14 42  1  0  0  0  0 
 16 43  1  0  0  0  0 
 16 44  1  0  0  0  0 
 17 45  1  0  0  0  0 
 19 46  1  0  0  0  0 
 20 47  1  0  0  0  0 
 21 48  1  0  0  0  0 
 21 49  1  0  0  0  0 
 22 50  1  0  0  0  0 
 22 51  1  0  0  0  0 
 22 52  1  0  0  0  0 
M  END
> <cdk:Title>
eicosapentaenoic acid

> <Conformer>
1

> <SuperDrugID>
SD002748

$$$$
