rofecoxib
  CDK     0628171801

 36 38  0  0  0  0  0  0  0  0999 V2000
    8.2184   -0.8814   -2.2930 O   0  0  0  0  0  0  0  0  0  0  0  0
    7.1119   -0.5020   -1.8480 C   0  0  0  0  0  0  0  0  0  0  0  0
    5.9847   -1.2650   -1.6780 C   0  0  0  0  0  0  0  0  0  0  0  0
    6.8966    0.7577   -1.4405 O   0  0  0  0  0  0  0  0  0  0  0  0
    5.0375   -0.4720   -1.1382 C   0  0  0  0  0  0  0  0  0  0  0  0
    5.8997   -2.6236   -2.0026 C   0  0  0  0  0  0  0  0  0  0  0  0
    5.5794    0.8562   -0.9226 C   0  0  2  0  0  0  0  0  0  0  0  0
    3.7036   -0.7833   -0.8360 C   0  0  0  0  0  0  0  0  0  0  0  0
    5.3941   -3.5661   -1.0725 C   0  0  0  0  0  0  0  0  0  0  0  0
    6.3244   -3.0977   -3.2703 C   0  0  0  0  0  0  0  0  0  0  0  0
    3.1148   -0.3595    0.3831 C   0  0  0  0  0  0  0  0  0  0  0  0
    2.8897   -1.5018   -1.7473 C   0  0  0  0  0  0  0  0  0  0  0  0
    5.2959   -4.9308   -1.4059 C   0  0  0  0  0  0  0  0  0  0  0  0
    6.2342   -4.4634   -3.6012 C   0  0  0  0  0  0  0  0  0  0  0  0
    1.7681   -0.6399    0.6784 C   0  0  0  0  0  0  0  0  0  0  0  0
    1.5463   -1.7965   -1.4450 C   0  0  0  0  0  0  0  0  0  0  0  0
    5.7078   -5.3781   -2.6732 C   0  0  0  0  0  0  0  0  0  0  0  0
    0.9759   -1.3662   -0.2299 C   0  0  0  0  0  0  0  0  0  0  0  0
   -0.7084   -1.7339    0.1904 S   0  0  2  0  0  0  0  0  0  0  0  0
   -1.7497   -0.2305    0.0660 C   0  0  0  0  0  0  0  0  0  0  0  0
   -0.7884   -2.2697    1.7018 O   0  0  0  0  0  0  0  0  0  0  0  0
   -1.3122   -2.8606   -0.7796 O   0  0  0  0  0  0  0  0  0  0  0  0
    5.0114    1.6107   -1.4729 H   0  0  0  0  0  0  0  0  0  0  0  0
    5.6271    1.1138    0.1376 H   0  0  0  0  0  0  0  0  0  0  0  0
    5.0930   -3.2689   -0.1406 H   0  0  0  0  0  0  0  0  0  0  0  0
    6.6971   -2.4516   -3.9706 H   0  0  0  0  0  0  0  0  0  0  0  0
    3.6596    0.1532    1.0817 H   0  0  0  0  0  0  0  0  0  0  0  0
    3.2635   -1.8150   -2.6471 H   0  0  0  0  0  0  0  0  0  0  0  0
    4.9263   -5.5998   -0.7256 H   0  0  0  0  0  0  0  0  0  0  0  0
    6.5472   -4.7936   -4.5174 H   0  0  0  0  0  0  0  0  0  0  0  0
    1.3687   -0.3166    1.5638 H   0  0  0  0  0  0  0  0  0  0  0  0
    0.9882   -2.3256   -2.1179 H   0  0  0  0  0  0  0  0  0  0  0  0
    5.6273   -6.3688   -2.9172 H   0  0  0  0  0  0  0  0  0  0  0  0
   -1.3385    0.5576    0.6987 H   0  0  0  0  0  0  0  0  0  0  0  0
   -2.7668   -0.4574    0.3928 H   0  0  0  0  0  0  0  0  0  0  0  0
   -1.7696    0.1093   -0.9700 H   0  0  0  0  0  0  0  0  0  0  0  0
  1  2  2  0  0  0  0 
  2  3  1  0  0  0  0 
  2  4  1  0  0  0  0 
  3  5  2  0  0  0  0 
  3  6  1  0  0  0  0 
  4  7  1  0  0  0  0 
  5  7  1  0  0  0  0 
  5  8  1  0  0  0  0 
  6  9  2  0  0  0  0 
  6 10  1  0  0  0  0 
  8 11  2  0  0  0  0 
  8 12  1  0  0  0  0 
  9 13  1  0  0  0  0 
 10 14  2  0  0  0  0 
 11 15  1  0  0  0  0 
 12 16  2  0  0  0  0 
 13 17  2  0  0  0  0 
 14 17  1  0  0  0  0 
 15 18  2  0  0  0  0 
 16 18  1  0  0  0  0 
 18 19  1  0  0  0  0 
 19 20  1  0  0  0  0 
 19 21  2  0  0  0  0 
 19 22  2  0  0  0  0 
  7 23  1  0  0  0  0 
  7 24  1  0  0  0  0 
  9 25  1  0  0  0  0 
 10 26  1  0  0  0  0 
 11 27  1  0  0  0  0 
 12 28  1  0  0  0  0 
 13 29  1  0  0  0  0 
 14 30  1  0  0  0  0 
 15 31  1  0  0  0  0 
 16 32  1  0  0  0  0 
 17 33  1  0  0  0  0 
 20 34  1  0  0  0  0 
 20 35  1  0  0  0  0 
 20 36  1  0  0  0  0 
M  END
> <cdk:Title>
rofecoxib

> <Conformer>
1

> <SuperDrugID>
SD002157

$$$$
