plecanatide
  CDK     0628171802

217218  0  0  0  0  0  0  0  0999 V2000
    4.3764    6.2513  -10.3307 H   0  0  0  0  0  0  0  0  0  0  0  0
    4.9545    7.0925  -10.2964 N   0  0  1  0  0  0  0  0  0  0  0  0
    3.8224    6.3087   -7.6008 N   0  0  0  0  0  0  0  0  0  0  0  0
    2.6929    3.5778   -6.7412 N   0  0  0  0  0  0  0  0  0  0  0  0
   -0.5614    4.6396   -6.9655 N   0  0  0  0  0  0  0  0  0  0  0  0
   -2.8437    5.8998   -8.3781 N   0  0  0  0  0  0  0  0  0  0  0  0
   -5.6994    7.6151   -8.7759 N   0  0  0  0  0  0  0  0  0  0  0  0
   -6.9572    5.2676   -7.9566 N   0  0  0  0  0  0  0  0  0  0  0  0
   -7.5530    5.6583   -5.1504 N   0  0  0  0  0  0  0  0  0  0  0  0
   -9.1357    5.3989   -2.9496 N   0  0  0  0  0  0  0  0  0  0  0  0
   -8.0721    3.6413   -0.9921 N   0  0  0  0  0  0  0  0  0  0  0  0
   -5.5778    1.5263    0.6664 N   0  0  0  0  0  0  0  0  0  0  0  0
   -2.4125    1.5729   -0.1083 N   0  0  0  0  0  0  0  0  0  0  0  0
   -1.5434   -1.2142   -1.8533 N   0  0  0  0  0  0  0  0  0  0  0  0
   -2.9299   -3.6552   -3.3993 N   0  0  0  0  0  0  0  0  0  0  0  0
   -3.8297   -1.8971   -5.4941 N   0  0  0  0  0  0  0  0  0  0  0  0
   -1.2138   -1.4624   -7.4469 N   0  0  0  0  0  0  0  0  0  0  0  0
    0.6354   -3.1402   -8.9758 O   0  0  0  0  0  0  0  0  0  0  0  0
    4.3241    7.5947   -8.0123 C   0  0  0  0  0  0  0  0  0  0  0  0
    2.7667    8.2605   -9.8641 C   0  0  1  0  0  0  0  0  0  0  0  0
    2.5905    8.8895  -11.1888 C   0  0  0  0  0  0  0  0  0  0  0  0
    2.0624   10.1230  -11.3119 N   0  0  0  0  0  0  0  0  0  0  0  0
    2.9152    8.2711  -12.2281 O   0  0  0  0  0  0  0  0  0  0  0  0
    4.2569    8.0745   -9.4529 C   0  0  2  0  0  0  0  0  0  0  0  0
    4.8324    8.4619   -7.2254 O   0  0  0  0  0  0  0  0  0  0  0  0
    3.6059    4.4020   -6.1441 C   0  0  0  0  0  0  0  0  0  0  0  0
    2.4417    6.5985   -5.5799 C   0  0  2  0  0  0  0  0  0  0  0  0
    2.0665    6.2335   -4.1957 C   0  0  0  0  0  0  0  0  0  0  0  0
    0.9987    6.8288   -3.6188 O   0  0  0  0  0  0  0  0  0  0  0  0
    2.6956    5.3928   -3.5147 O   0  0  0  0  0  0  0  0  0  0  0  0
    3.6954    5.8950   -6.1959 C   0  0  2  0  0  0  0  0  0  0  0  0
    4.4508    3.7881   -5.4516 O   0  0  0  0  0  0  0  0  0  0  0  0
    0.3234    3.6159   -7.0922 C   0  0  0  0  0  0  0  0  0  0  0  0
    1.8968    3.0885   -8.9876 C   0  0  2  0  0  0  0  0  0  0  0  0
    0.8799    3.4336  -10.1116 C   0  0  1  0  0  0  0  0  0  0  0  0
    1.2345    2.8103  -11.3974 C   0  0  0  0  0  0  0  0  0  0  0  0
    0.4228    1.8853  -11.9588 O   0  0  0  0  0  0  0  0  0  0  0  0
    2.2860    3.1347  -11.9952 O   0  0  0  0  0  0  0  0  0  0  0  0
    1.6558    3.8956   -7.6798 C   0  0  2  0  0  0  0  0  0  0  0  0
    0.0214    2.4436   -6.7691 O   0  0  0  0  0  0  0  0  0  0  0  0
   -2.5545    5.8124   -7.0415 C   0  0  0  0  0  0  0  0  0  0  0  0
   -2.1461    2.6568   -4.4469 S   0  0  0  0  0  0  0  0  0  0  0  0
   -2.0033    4.3953   -4.9610 C   0  0  2  0  0  0  0  0  0  0  0  0
   -1.9189    4.5711   -6.5150 C   0  0  2  0  0  0  0  0  0  0  0  0
   -2.7725    6.7843   -6.2777 O   0  0  0  0  0  0  0  0  0  0  0  0
   -4.7611    6.8521   -9.4030 C   0  0  0  0  0  0  0  0  0  0  0  0
   -2.4635    7.3271  -10.3449 C   0  0  2  0  0  0  0  0  0  0  0  0
   -2.8374    8.6376  -11.0953 C   0  0  1  0  0  0  0  0  0  0  0  0
   -1.9746    8.9027  -12.2620 C   0  0  0  0  0  0  0  0  0  0  0  0
   -2.4914    8.9647  -13.5117 O   0  0  0  0  0  0  0  0  0  0  0  0
   -0.7474    9.0963  -12.1164 O   0  0  0  0  0  0  0  0  0  0  0  0
   -3.3302    7.0593   -9.0766 C   0  0  2  0  0  0  0  0  0  0  0  0
   -5.0877    5.9690  -10.2332 O   0  0  0  0  0  0  0  0  0  0  0  0
   -7.7349    6.3015   -8.4004 C   0  0  0  0  0  0  0  0  0  0  0  0
   -9.3300    8.8470  -12.0244 C   0  0  0  0  0  0  0  0  0  0  0  0
   -7.5688    7.9443  -10.3885 C   0  0  2  0  0  0  0  0  0  0  0  0
   -7.1246    7.5545   -8.9355 C   0  0  2  0  0  0  0  0  0  0  0  0
   -8.8530   10.1668   -9.9038 C   0  0  0  0  0  0  0  0  0  0  0  0
   -8.9121    8.7402  -10.5291 C   0  0  1  0  0  0  0  0  0  0  0  0
   -8.9816    6.2555   -8.2747 O   0  0  0  0  0  0  0  0  0  0  0  0
   -6.8491    4.6726   -5.7706 C   0  0  0  0  0  0  0  0  0  0  0  0
   -7.1445    1.5047   -6.4059 S   0  0  0  0  0  0  0  0  0  0  0  0
   -6.7381    2.8496   -7.5663 C   0  0  2  0  0  0  0  0  0  0  0  0
   -7.3458    4.1994   -7.0859 C   0  0  2  0  0  0  0  0  0  0  0  0
   -5.7619    4.2544   -5.3075 O   0  0  0  0  0  0  0  0  0  0  0  0
   -8.0641    6.2481   -2.8633 C   0  0  0  0  0  0  0  0  0  0  0  0
   -8.2806    8.6058   -4.9527 C   0  0  0  0  0  0  0  0  0  0  0  0
   -7.1415    6.4428   -4.0188 C   0  0  2  0  0  0  0  0  0  0  0  0
   -6.1671    8.8263   -3.5210 C   0  0  0  0  0  0  0  0  0  0  0  0
   -6.9541    7.9224   -4.5146 C   0  0  2  0  0  0  0  0  0  0  0  0
   -7.7854    6.8054   -1.7750 O   0  0  0  0  0  0  0  0  0  0  0  0
   -9.3610    3.6279   -1.4407 C   0  0  0  0  0  0  0  0  0  0  0  0
  -11.4346    4.8599   -2.3523 C   0  0  1  0  0  0  0  0  0  0  0  0
  -12.3985    4.4652   -1.2976 C   0  0  0  0  0  0  0  0  0  0  0  0
  -12.5575    5.2037   -0.1845 N   0  0  0  0  0  0  0  0  0  0  0  0
  -13.0999    3.4346   -1.4230 O   0  0  0  0  0  0  0  0  0  0  0  0
   -9.9532    4.9274   -1.8636 C   0  0  2  0  0  0  0  0  0  0  0  0
   -9.9925    2.5505   -1.5625 O   0  0  0  0  0  0  0  0  0  0  0  0
   -6.3827    2.5804    0.3828 C   0  0  0  0  0  0  0  0  0  0  0  0
   -5.1272    3.5890   -2.0874 C   0  0  0  0  0  0  0  0  0  0  0  0
   -7.1872    2.5157   -0.8705 C   0  0  2  0  0  0  0  0  0  0  0  0
   -5.7476    1.1490   -2.6016 C   0  0  0  0  0  0  0  0  0  0  0  0
   -6.2818    2.5426   -2.1660 C   0  0  2  0  0  0  0  0  0  0  0  0
   -6.3582    3.6156    1.0923 O   0  0  0  0  0  0  0  0  0  0  0  0
   -3.3968    0.8622    0.5229 C   0  0  0  0  0  0  0  0  0  0  0  0
   -4.5123    0.8351    2.7909 C   0  0  0  0  0  0  0  0  0  0  0  0
   -4.3600    1.5403    1.4235 C   0  0  2  0  0  0  0  0  0  0  0  0
   -3.5833   -0.3518    0.2626 O   0  0  0  0  0  0  0  0  0  0  0  0
   -1.0581   -0.1792   -1.1109 C   0  0  0  0  0  0  0  0  0  0  0  0
   -0.3127    2.1868   -3.5280 S   0  0  0  0  0  0  0  0  0  0  0  0
   -0.7274    2.2649   -1.7555 C   0  0  2  0  0  0  0  0  0  0  0  0
   -1.7081    1.1485   -1.2896 C   0  0  2  0  0  0  0  0  0  0  0  0
   -0.1672   -0.3102   -0.2391 O   0  0  0  0  0  0  0  0  0  0  0  0
   -2.7653   -3.0849   -2.1711 C   0  0  0  0  0  0  0  0  0  0  0  0
    0.3229   -2.9552   -0.0305 O   0  0  0  0  0  0  0  0  0  0  0  0
   -1.4213   -2.6427   -1.7124 C   0  0  2  0  0  0  0  0  0  0  0  0
   -1.2910   -4.7119   -0.0806 C   0  0  0  0  0  0  0  0  0  0  0  0
   -1.0594   -3.1916   -0.2898 C   0  0  1  0  0  0  0  0  0  0  0  0
   -3.7559   -2.8470   -1.4366 O   0  0  0  0  0  0  0  0  0  0  0  0
   -4.1193   -3.2260   -5.4027 C   0  0  0  0  0  0  0  0  0  0  0  0
   -4.1845   -3.8497   -4.0648 C   0  0  2  0  0  0  0  0  0  0  0  0
   -4.2889   -3.9350   -6.4230 O   0  0  0  0  0  0  0  0  0  0  0  0
   -2.0986   -0.8573   -6.6064 C   0  0  0  0  0  0  0  0  0  0  0  0
   -6.1346   -0.1684   -7.1764 S   0  0  0  0  0  0  0  0  0  0  0  0
   -4.3956    0.1550   -6.7435 C   0  0  2  0  0  0  0  0  0  0  0  0
   -3.5476   -1.1485   -6.6857 C   0  0  2  0  0  0  0  0  0  0  0  0
   -1.6882   -0.0872   -5.7065 O   0  0  0  0  0  0  0  0  0  0  0  0
    0.8147   -1.8517   -8.6016 C   0  0  0  0  0  0  0  0  0  0  0  0
    2.7278   -2.7899   -4.6100 C   0  0  0  0  0  0  0  0  0  0  0  0
    0.7597   -2.0773   -6.0945 C   0  0  2  0  0  0  0  0  0  0  0  0
    0.2107   -1.3326   -7.3558 C   0  0  2  0  0  0  0  0  0  0  0  0
    2.6585   -0.3993   -5.5128 C   0  0  0  0  0  0  0  0  0  0  0  0
    2.2816   -1.8833   -5.7931 C   0  0  1  0  0  0  0  0  0  0  0  0
    1.5190   -1.1179   -9.3312 O   0  0  0  0  0  0  0  0  0  0  0  0
    4.9839    7.4690  -11.2459 H   0  0  0  0  0  0  0  0  0  0  0  0
    3.5070    5.7100   -8.2941 H   0  0  0  0  0  0  0  0  0  0  0  0
    2.7829    2.6345   -6.5261 H   0  0  0  0  0  0  0  0  0  0  0  0
   -0.2377    5.5178   -7.2219 H   0  0  0  0  0  0  0  0  0  0  0  0
   -2.6963    5.1015   -8.9099 H   0  0  0  0  0  0  0  0  0  0  0  0
   -5.3710    8.2711   -8.1407 H   0  0  0  0  0  0  0  0  0  0  0  0
   -6.0132    5.3090   -8.1649 H   0  0  0  0  0  0  0  0  0  0  0  0
   -8.4093    5.8872   -5.5443 H   0  0  0  0  0  0  0  0  0  0  0  0
   -9.3273    5.0245   -3.8239 H   0  0  0  0  0  0  0  0  0  0  0  0
   -7.6778    4.5138   -0.8376 H   0  0  0  0  0  0  0  0  0  0  0  0
   -5.7862    0.6976    0.2078 H   0  0  0  0  0  0  0  0  0  0  0  0
   -2.2497    2.4793    0.1998 H   0  0  0  0  0  0  0  0  0  0  0  0
   -2.1359   -0.9357   -2.5695 H   0  0  0  0  0  0  0  0  0  0  0  0
   -2.1298   -3.9048   -3.8911 H   0  0  0  0  0  0  0  0  0  0  0  0
   -3.7451   -1.4147   -4.6557 H   0  0  0  0  0  0  0  0  0  0  0  0
   -1.5749   -2.0481   -8.1310 H   0  0  0  0  0  0  0  0  0  0  0  0
    0.0901   -3.7427   -8.4276 H   0  0  0  0  0  0  0  0  0  0  0  0
    2.2705    8.8801   -9.1096 H   0  0  0  0  0  0  0  0  0  0  0  0
    2.2555    7.2933   -9.8776 H   0  0  0  0  0  0  0  0  0  0  0  0
    1.9383   10.5161  -12.1906 H   0  0  0  0  0  0  0  0  0  0  0  0
    1.8063   10.6247  -10.5208 H   0  0  0  0  0  0  0  0  0  0  0  0
    4.7828    9.0297   -9.5673 H   0  0  0  0  0  0  0  0  0  0  0  0
    2.6282    7.6744   -5.5825 H   0  0  0  0  0  0  0  0  0  0  0  0
    1.5688    6.4313   -6.2091 H   0  0  0  0  0  0  0  0  0  0  0  0
    0.4835    7.5022   -4.1096 H   0  0  0  0  0  0  0  0  0  0  0  0
    4.5552    6.1872   -5.5171 H   0  0  0  0  0  0  0  0  0  0  0  0
    2.9082    3.3103   -9.3425 H   0  0  0  0  0  0  0  0  0  0  0  0
    1.8530    2.0156   -8.7769 H   0  0  0  0  0  0  0  0  0  0  0  0
   -0.1169    3.0950   -9.8132 H   0  0  0  0  0  0  0  0  0  0  0  0
    0.8338    4.5156  -10.2566 H   0  0  0  0  0  0  0  0  0  0  0  0
    0.6661    1.4753  -12.8146 H   0  0  0  0  0  0  0  0  0  0  0  0
    1.6968    4.9472   -7.9607 H   0  0  0  0  0  0  0  0  0  0  0  0
   -1.1497    4.8602   -4.4646 H   0  0  0  0  0  0  0  0  0  0  0  0
   -2.9043    4.8737   -4.5779 H   0  0  0  0  0  0  0  0  0  0  0  0
   -2.4259    3.7304   -7.0030 H   0  0  0  0  0  0  0  0  0  0  0  0
   -1.4164    7.3877  -10.0342 H   0  0  0  0  0  0  0  0  0  0  0  0
   -2.5514    6.4841  -11.0377 H   0  0  0  0  0  0  0  0  0  0  0  0
   -3.8744    8.5767  -11.4321 H   0  0  0  0  0  0  0  0  0  0  0  0
   -2.7549    9.4872  -10.4147 H   0  0  0  0  0  0  0  0  0  0  0  0
   -1.9109    9.1535  -14.2798 H   0  0  0  0  0  0  0  0  0  0  0  0
   -3.2324    7.9419   -8.4349 H   0  0  0  0  0  0  0  0  0  0  0  0
   -8.5831    9.3994  -12.5991 H   0  0  0  0  0  0  0  0  0  0  0  0
  -10.2882    9.3626  -12.1177 H   0  0  0  0  0  0  0  0  0  0  0  0
   -9.4397    7.8524  -12.4598 H   0  0  0  0  0  0  0  0  0  0  0  0
   -7.6409    7.0207  -10.9711 H   0  0  0  0  0  0  0  0  0  0  0  0
   -6.7866    8.5497  -10.8597 H   0  0  0  0  0  0  0  0  0  0  0  0
   -7.4621    8.3344   -8.2549 H   0  0  0  0  0  0  0  0  0  0  0  0
   -8.0454   10.7514  -10.3521 H   0  0  0  0  0  0  0  0  0  0  0  0
   -9.7959   10.6947  -10.0670 H   0  0  0  0  0  0  0  0  0  0  0  0
   -8.6927   10.1215   -8.8262 H   0  0  0  0  0  0  0  0  0  0  0  0
   -9.6981    8.1809  -10.0132 H   0  0  0  0  0  0  0  0  0  0  0  0
   -7.1413    2.5973   -8.5488 H   0  0  0  0  0  0  0  0  0  0  0  0
   -5.6519    2.9267   -7.6522 H   0  0  0  0  0  0  0  0  0  0  0  0
   -8.4344    4.0845   -7.0411 H   0  0  0  0  0  0  0  0  0  0  0  0
   -8.7766    8.0211   -5.7293 H   0  0  0  0  0  0  0  0  0  0  0  0
   -8.0770    9.5985   -5.3601 H   0  0  0  0  0  0  0  0  0  0  0  0
   -8.9597    8.7100   -4.1049 H   0  0  0  0  0  0  0  0  0  0  0  0
   -6.1610    6.0956   -3.6790 H   0  0  0  0  0  0  0  0  0  0  0  0
   -5.2676    8.3176   -3.1642 H   0  0  0  0  0  0  0  0  0  0  0  0
   -5.8532    9.7470   -4.0223 H   0  0  0  0  0  0  0  0  0  0  0  0
   -6.7825    9.0983   -2.6609 H   0  0  0  0  0  0  0  0  0  0  0  0
   -6.3219    7.8751   -5.4103 H   0  0  0  0  0  0  0  0  0  0  0  0
  -11.5034    4.1635   -3.1952 H   0  0  0  0  0  0  0  0  0  0  0  0
  -11.7373    5.8438   -2.7237 H   0  0  0  0  0  0  0  0  0  0  0  0
  -13.2030    4.9352    0.4886 H   0  0  0  0  0  0  0  0  0  0  0  0
  -12.0249    6.0042   -0.0535 H   0  0  0  0  0  0  0  0  0  0  0  0
   -9.9068    5.6202   -1.0179 H   0  0  0  0  0  0  0  0  0  0  0  0
   -5.5151    4.5576   -1.7665 H   0  0  0  0  0  0  0  0  0  0  0  0
   -4.6509    3.7191   -3.0577 H   0  0  0  0  0  0  0  0  0  0  0  0
   -4.3601    3.2748   -1.3785 H   0  0  0  0  0  0  0  0  0  0  0  0
   -7.7682    1.5874   -0.8486 H   0  0  0  0  0  0  0  0  0  0  0  0
   -6.5793    0.4725   -2.8118 H   0  0  0  0  0  0  0  0  0  0  0  0
   -5.1543    1.2453   -3.5120 H   0  0  0  0  0  0  0  0  0  0  0  0
   -5.1178    0.7004   -1.8370 H   0  0  0  0  0  0  0  0  0  0  0  0
   -6.9123    2.8570   -3.0052 H   0  0  0  0  0  0  0  0  0  0  0  0
   -3.5446    0.7807    3.2947 H   0  0  0  0  0  0  0  0  0  0  0  0
   -4.9051   -0.1767    2.6715 H   0  0  0  0  0  0  0  0  0  0  0  0
   -5.1983    1.4050    3.4194 H   0  0  0  0  0  0  0  0  0  0  0  0
   -4.0262    2.5674    1.6100 H   0  0  0  0  0  0  0  0  0  0  0  0
   -1.1707    3.2483   -1.5818 H   0  0  0  0  0  0  0  0  0  0  0  0
    0.2018    2.2168   -1.1847 H   0  0  0  0  0  0  0  0  0  0  0  0
   -2.4868    1.0664   -2.0550 H   0  0  0  0  0  0  0  0  0  0  0  0
    0.4342   -3.1709    0.9184 H   0  0  0  0  0  0  0  0  0  0  0  0
   -0.6651   -2.9857   -2.4249 H   0  0  0  0  0  0  0  0  0  0  0  0
   -0.7153   -5.2874   -0.8086 H   0  0  0  0  0  0  0  0  0  0  0  0
   -0.9719   -5.0030    0.9241 H   0  0  0  0  0  0  0  0  0  0  0  0
   -2.3471   -4.9674   -0.1798 H   0  0  0  0  0  0  0  0  0  0  0  0
   -1.6414   -2.6503    0.4617 H   0  0  0  0  0  0  0  0  0  0  0  0
   -5.0218   -3.4078   -3.5189 H   0  0  0  0  0  0  0  0  0  0  0  0
   -4.3694   -4.9227   -4.1467 H   0  0  0  0  0  0  0  0  0  0  0  0
   -4.3552    0.6645   -5.7804 H   0  0  0  0  0  0  0  0  0  0  0  0
   -3.9919    0.8317   -7.5024 H   0  0  0  0  0  0  0  0  0  0  0  0
   -3.7449   -1.7347   -7.5890 H   0  0  0  0  0  0  0  0  0  0  0  0
    2.2030   -2.5210   -3.6903 H   0  0  0  0  0  0  0  0  0  0  0  0
    3.8021   -2.6912   -4.4390 H   0  0  0  0  0  0  0  0  0  0  0  0
    2.5209   -3.8382   -4.8354 H   0  0  0  0  0  0  0  0  0  0  0  0
    0.5536   -3.1452   -6.2145 H   0  0  0  0  0  0  0  0  0  0  0  0
    0.2059   -1.7550   -5.2097 H   0  0  0  0  0  0  0  0  0  0  0  0
    0.4370   -0.2661   -7.2803 H   0  0  0  0  0  0  0  0  0  0  0  0
    2.0397    0.0149   -4.7137 H   0  0  0  0  0  0  0  0  0  0  0  0
    3.7070   -0.3170   -5.2196 H   0  0  0  0  0  0  0  0  0  0  0  0
    2.5267    0.2074   -6.4094 H   0  0  0  0  0  0  0  0  0  0  0  0
    2.8485   -2.2083   -6.6702 H   0  0  0  0  0  0  0  0  0  0  0  0
  1  2  1  0  0  0  0 
 19  3  1  0  0  0  0 
 26  4  1  0  0  0  0 
 33  5  1  0  0  0  0 
 41  6  1  0  0  0  0 
 46  7  1  0  0  0  0 
 54  8  1  0  0  0  0 
 61  9  1  0  0  0  0 
 66 10  1  0  0  0  0 
 72 11  1  0  0  0  0 
 79 12  1  0  0  0  0 
 85 13  1  0  0  0  0 
 89 14  1  0  0  0  0 
 94 15  1  0  0  0  0 
100 16  1  0  0  0  0 
103 17  1  0  0  0  0 
108 18  1  0  0  0  0 
 90 42  1  0  0  0  0 
 62104  1  0  0  0  0 
 24  2  1  0  0  0  0 
 24 20  1  0  0  0  0 
 20 21  1  0  0  0  0 
 21 22  1  0  0  0  0 
 21 23  2  0  0  0  0 
 24 19  1  0  0  0  0 
 19 25  2  0  0  0  0 
 31  3  1  0  0  0  0 
 31 27  1  0  0  0  0 
 27 28  1  0  0  0  0 
 28 29  1  0  0  0  0 
 28 30  2  0  0  0  0 
 31 26  1  0  0  0  0 
 26 32  2  0  0  0  0 
 39  4  1  0  0  0  0 
 39 34  1  0  0  0  0 
 34 35  1  0  0  0  0 
 35 36  1  0  0  0  0 
 36 37  1  0  0  0  0 
 36 38  2  0  0  0  0 
 39 33  1  0  0  0  0 
 33 40  2  0  0  0  0 
 44  5  1  0  0  0  0 
 44 43  1  0  0  0  0 
 43 42  1  0  0  0  0 
 44 41  1  0  0  0  0 
 41 45  2  0  0  0  0 
 52  6  1  0  0  0  0 
 52 47  1  0  0  0  0 
 47 48  1  0  0  0  0 
 48 49  1  0  0  0  0 
 49 50  1  0  0  0  0 
 49 51  2  0  0  0  0 
 52 46  1  0  0  0  0 
 46 53  2  0  0  0  0 
 58 59  1  0  0  0  0 
 59 55  1  0  0  0  0 
 59 56  1  0  0  0  0 
 56 57  1  0  0  0  0 
 57  7  1  0  0  0  0 
 57 54  1  0  0  0  0 
 54 60  2  0  0  0  0 
 64  8  1  0  0  0  0 
 64 63  1  0  0  0  0 
 63 62  1  0  0  0  0 
 64 61  1  0  0  0  0 
 61 65  2  0  0  0  0 
 69 70  1  0  0  0  0 
 70 67  1  0  0  0  0 
 70 68  1  0  0  0  0 
 68  9  1  0  0  0  0 
 68 66  1  0  0  0  0 
 66 71  2  0  0  0  0 
 77 10  1  0  0  0  0 
 77 73  1  0  0  0  0 
 73 74  1  0  0  0  0 
 74 75  1  0  0  0  0 
 74 76  2  0  0  0  0 
 77 72  1  0  0  0  0 
 72 78  2  0  0  0  0 
 82 83  1  0  0  0  0 
 83 80  1  0  0  0  0 
 83 81  1  0  0  0  0 
 81 11  1  0  0  0  0 
 81 79  1  0  0  0  0 
 79 84  2  0  0  0  0 
 86 87  1  0  0  0  0 
 87 12  1  0  0  0  0 
 87 85  1  0  0  0  0 
 85 88  2  0  0  0  0 
 92 13  1  0  0  0  0 
 92 91  1  0  0  0  0 
 91 90  1  0  0  0  0 
 92 89  1  0  0  0  0 
 89 93  2  0  0  0  0 
 97 98  1  0  0  0  0 
 98 95  1  0  0  0  0 
 98 96  1  0  0  0  0 
 96 14  1  0  0  0  0 
 96 94  1  0  0  0  0 
 94 99  2  0  0  0  0 
 15101  1  0  0  0  0 
101100  1  0  0  0  0 
100102  2  0  0  0  0 
106 16  1  0  0  0  0 
106105  1  0  0  0  0 
105104  1  0  0  0  0 
106103  1  0  0  0  0 
103107  2  0  0  0  0 
112113  1  0  0  0  0 
113109  1  0  0  0  0 
113110  1  0  0  0  0 
110111  1  0  0  0  0 
111 17  1  0  0  0  0 
111108  1  0  0  0  0 
108114  2  0  0  0  0 
  2115  1  0  0  0  0 
  3116  1  0  0  0  0 
  4117  1  0  0  0  0 
  5118  1  0  0  0  0 
  6119  1  0  0  0  0 
  7120  1  0  0  0  0 
  8121  1  0  0  0  0 
  9122  1  0  0  0  0 
 10123  1  0  0  0  0 
 11124  1  0  0  0  0 
 12125  1  0  0  0  0 
 13126  1  0  0  0  0 
 14127  1  0  0  0  0 
 15128  1  0  0  0  0 
 16129  1  0  0  0  0 
 17130  1  0  0  0  0 
 18131  1  0  0  0  0 
 20132  1  0  0  0  0 
 20133  1  0  0  0  0 
 22134  1  0  0  0  0 
 22135  1  0  0  0  0 
 24136  1  0  0  0  0 
 27137  1  0  0  0  0 
 27138  1  0  0  0  0 
 29139  1  0  0  0  0 
 31140  1  0  0  0  0 
 34141  1  0  0  0  0 
 34142  1  0  0  0  0 
 35143  1  0  0  0  0 
 35144  1  0  0  0  0 
 37145  1  0  0  0  0 
 39146  1  0  0  0  0 
 43147  1  0  0  0  0 
 43148  1  0  0  0  0 
 44149  1  0  0  0  0 
 47150  1  0  0  0  0 
 47151  1  0  0  0  0 
 48152  1  0  0  0  0 
 48153  1  0  0  0  0 
 50154  1  0  0  0  0 
 52155  1  0  0  0  0 
 55156  1  0  0  0  0 
 55157  1  0  0  0  0 
 55158  1  0  0  0  0 
 56159  1  0  0  0  0 
 56160  1  0  0  0  0 
 57161  1  0  0  0  0 
 58162  1  0  0  0  0 
 58163  1  0  0  0  0 
 58164  1  0  0  0  0 
 59165  1  0  0  0  0 
 63166  1  0  0  0  0 
 63167  1  0  0  0  0 
 64168  1  0  0  0  0 
 67169  1  0  0  0  0 
 67170  1  0  0  0  0 
 67171  1  0  0  0  0 
 68172  1  0  0  0  0 
 69173  1  0  0  0  0 
 69174  1  0  0  0  0 
 69175  1  0  0  0  0 
 70176  1  0  0  0  0 
 73177  1  0  0  0  0 
 73178  1  0  0  0  0 
 75179  1  0  0  0  0 
 75180  1  0  0  0  0 
 77181  1  0  0  0  0 
 80182  1  0  0  0  0 
 80183  1  0  0  0  0 
 80184  1  0  0  0  0 
 81185  1  0  0  0  0 
 82186  1  0  0  0  0 
 82187  1  0  0  0  0 
 82188  1  0  0  0  0 
 83189  1  0  0  0  0 
 86190  1  0  0  0  0 
 86191  1  0  0  0  0 
 86192  1  0  0  0  0 
 87193  1  0  0  0  0 
 91194  1  0  0  0  0 
 91195  1  0  0  0  0 
 92196  1  0  0  0  0 
 95197  1  0  0  0  0 
 96198  1  0  0  0  0 
 97199  1  0  0  0  0 
 97200  1  0  0  0  0 
 97201  1  0  0  0  0 
 98202  1  0  0  0  0 
101203  1  0  0  0  0 
101204  1  0  0  0  0 
105205  1  0  0  0  0 
105206  1  0  0  0  0 
106207  1  0  0  0  0 
109208  1  0  0  0  0 
109209  1  0  0  0  0 
109210  1  0  0  0  0 
110211  1  0  0  0  0 
110212  1  0  0  0  0 
111213  1  0  0  0  0 
112214  1  0  0  0  0 
112215  1  0  0  0  0 
112216  1  0  0  0  0 
113217  1  0  0  0  0 
M  END
> <cdk:Title>
plecanatide

> <Conformer>
1

> <SuperDrugID>
SD003938

$$$$
