propamidine
  CDK     0628171801

 43 44  0  0  0  0  0  0  0  0999 V2000
    2.3945   -2.8753    5.3531 O   0  0  0  0  0  0  0  0  0  0  0  0
    2.8088   -3.8513    4.3743 C   0  0  1  0  0  0  0  0  0  0  0  0
    3.4453   -2.4197    6.1055 C   0  0  0  0  0  0  0  0  0  0  0  0
    1.5848   -4.3512    3.5702 C   0  0  1  0  0  0  0  0  0  0  0  0
    3.7912   -3.0625    7.3090 C   0  0  0  0  0  0  0  0  0  0  0  0
    4.1886   -1.3006    5.6863 C   0  0  0  0  0  0  0  0  0  0  0  0
    1.9655   -5.4186    2.5145 C   0  0  1  0  0  0  0  0  0  0  0  0
    4.8889   -2.6122    8.0635 C   0  0  0  0  0  0  0  0  0  0  0  0
    5.2862   -0.8527    6.4418 C   0  0  0  0  0  0  0  0  0  0  0  0
    2.5651   -6.5596    3.1657 O   0  0  0  0  0  0  0  0  0  0  0  0
    5.6695   -1.5003    7.6463 C   0  0  0  0  0  0  0  0  0  0  0  0
    3.0197   -7.5092    2.2917 C   0  0  0  0  0  0  0  0  0  0  0  0
    6.7773   -1.0654    8.3883 C   0  0  0  0  0  0  0  0  0  0  0  0
    2.1826   -8.5715    1.9093 C   0  0  0  0  0  0  0  0  0  0  0  0
    4.3352   -7.4560    1.7942 C   0  0  0  0  0  0  0  0  0  0  0  0
    7.2403   -1.7430    9.3707 N   0  0  0  0  0  0  0  0  0  0  0  0
    7.4242    0.0589    8.1289 N   0  0  0  0  0  0  0  0  0  0  0  0
    2.6456   -9.5509    1.0138 C   0  0  0  0  0  0  0  0  0  0  0  0
    4.7949   -8.4365    0.8954 C   0  0  0  0  0  0  0  0  0  0  0  0
    3.9569   -9.5005    0.4672 C   0  0  0  0  0  0  0  0  0  0  0  0
    4.3962  -10.4554   -0.4618 C   0  0  0  0  0  0  0  0  0  0  0  0
    3.6135  -11.3119   -1.0016 N   0  0  0  0  0  0  0  0  0  0  0  0
    5.6475  -10.5518   -0.8745 N   0  0  0  0  0  0  0  0  0  0  0  0
    3.5287   -3.4080    3.6764 H   0  0  0  0  0  0  0  0  0  0  0  0
    3.2767   -4.7074    4.8737 H   0  0  0  0  0  0  0  0  0  0  0  0
    0.8475   -4.7737    4.2576 H   0  0  0  0  0  0  0  0  0  0  0  0
    1.1224   -3.5005    3.0621 H   0  0  0  0  0  0  0  0  0  0  0  0
    3.2485   -3.8652    7.6367 H   0  0  0  0  0  0  0  0  0  0  0  0
    3.9363   -0.8134    4.8235 H   0  0  0  0  0  0  0  0  0  0  0  0
    1.0594   -5.7236    1.9796 H   0  0  0  0  0  0  0  0  0  0  0  0
    2.6591   -4.9694    1.7942 H   0  0  0  0  0  0  0  0  0  0  0  0
    5.1093   -3.1166    8.9265 H   0  0  0  0  0  0  0  0  0  0  0  0
    5.8048   -0.0478    6.0851 H   0  0  0  0  0  0  0  0  0  0  0  0
    1.2314   -8.6344    2.2815 H   0  0  0  0  0  0  0  0  0  0  0  0
    4.9610   -6.7001    2.0829 H   0  0  0  0  0  0  0  0  0  0  0  0
    7.9830   -1.4402    9.8533 H   0  0  0  0  0  0  0  0  0  0  0  0
    7.1420    0.6368    7.4036 H   0  0  0  0  0  0  0  0  0  0  0  0
    8.1949    0.3100    8.6630 H   0  0  0  0  0  0  0  0  0  0  0  0
    2.0004  -10.3054    0.7698 H   0  0  0  0  0  0  0  0  0  0  0  0
    5.7541   -8.3501    0.5551 H   0  0  0  0  0  0  0  0  0  0  0  0
    2.7038  -11.3350   -0.7976 H   0  0  0  0  0  0  0  0  0  0  0  0
    5.8864  -11.2381   -1.5171 H   0  0  0  0  0  0  0  0  0  0  0  0
    6.3327   -9.9487   -0.5484 H   0  0  0  0  0  0  0  0  0  0  0  0
  1  2  1  0  0  0  0 
  1  3  1  0  0  0  0 
  2  4  1  0  0  0  0 
  3  5  2  0  0  0  0 
  3  6  1  0  0  0  0 
  4  7  1  0  0  0  0 
  5  8  1  0  0  0  0 
  6  9  2  0  0  0  0 
  7 10  1  0  0  0  0 
  8 11  2  0  0  0  0 
  9 11  1  0  0  0  0 
 10 12  1  0  0  0  0 
 11 13  1  0  0  0  0 
 12 14  2  0  0  0  0 
 12 15  1  0  0  0  0 
 13 16  2  0  0  0  0 
 13 17  1  0  0  0  0 
 14 18  1  0  0  0  0 
 15 19  2  0  0  0  0 
 18 20  2  0  0  0  0 
 19 20  1  0  0  0  0 
 20 21  1  0  0  0  0 
 21 22  2  0  0  0  0 
 21 23  1  0  0  0  0 
  2 24  1  0  0  0  0 
  2 25  1  0  0  0  0 
  4 26  1  0  0  0  0 
  4 27  1  0  0  0  0 
  5 28  1  0  0  0  0 
  6 29  1  0  0  0  0 
  7 30  1  0  0  0  0 
  7 31  1  0  0  0  0 
  8 32  1  0  0  0  0 
  9 33  1  0  0  0  0 
 14 34  1  0  0  0  0 
 15 35  1  0  0  0  0 
 16 36  1  0  0  0  0 
 17 37  1  0  0  0  0 
 17 38  1  0  0  0  0 
 18 39  1  0  0  0  0 
 19 40  1  0  0  0  0 
 22 41  1  0  0  0  0 
 23 42  1  0  0  0  0 
 23 43  1  0  0  0  0 
M  END
> <cdk:Title>
propamidine

> <Conformer>
1

> <SuperDrugID>
SD003010

$$$$
