protizinic acid
  CDK     0628171801

 39 41  0  0  0  0  0  0  0  0999 V2000
    1.6903   -0.2514    0.6672 C   0  0  0  0  0  0  0  0  0  0  0  0
    0.3105    0.0508    0.3879 O   0  0  0  0  0  0  0  0  0  0  0  0
   -0.3211    0.7237    1.4011 C   0  0  0  0  0  0  0  0  0  0  0  0
   -0.4054    2.1283    1.3701 C   0  0  0  0  0  0  0  0  0  0  0  0
   -1.0877    2.8211    2.3873 C   0  0  0  0  0  0  0  0  0  0  0  0
   -1.7073    2.1320    3.4603 C   0  0  0  0  0  0  0  0  0  0  0  0
   -2.4213    2.8068    4.4465 N   0  0  0  0  0  0  0  0  0  0  0  0
   -3.3090    3.8915    4.0780 C   0  0  0  0  0  0  0  0  0  0  0  0
   -2.3471    2.4161    5.7758 C   0  0  0  0  0  0  0  0  0  0  0  0
   -2.3196    3.3733    6.8204 C   0  0  0  0  0  0  0  0  0  0  0  0
   -2.2898    3.0015    8.1871 C   0  0  0  0  0  0  0  0  0  0  0  0
   -2.2888    1.6221    8.4987 C   0  0  0  0  0  0  0  0  0  0  0  0
   -2.3011    0.6523    7.4809 C   0  0  0  0  0  0  0  0  0  0  0  0
   -2.3112    1.0471    6.1309 C   0  0  0  0  0  0  0  0  0  0  0  0
   -2.2589   -0.1658    4.8562 S   0  0  0  0  0  0  0  0  0  0  0  0
   -1.5854    0.7194    3.4917 C   0  0  0  0  0  0  0  0  0  0  0  0
   -0.9200    0.0199    2.4649 C   0  0  0  0  0  0  0  0  0  0  0  0
   -2.2543    4.0453    9.2642 C   0  0  1  0  0  0  0  0  0  0  0  0
   -0.9169    4.8410    9.2123 C   0  0  0  0  0  0  0  0  0  0  0  0
   -3.4687    4.9016    9.2206 C   0  0  0  0  0  0  0  0  0  0  0  0
   -4.6931    4.3504    9.3972 O   0  0  0  0  0  0  0  0  0  0  0  0
   -3.4133    6.1373    9.0269 O   0  0  0  0  0  0  0  0  0  0  0  0
    1.7862   -0.9056    1.5374 H   0  0  0  0  0  0  0  0  0  0  0  0
    2.1078   -0.7729   -0.1949 H   0  0  0  0  0  0  0  0  0  0  0  0
    2.2735    0.6591    0.8279 H   0  0  0  0  0  0  0  0  0  0  0  0
    0.0295    2.6484    0.6042 H   0  0  0  0  0  0  0  0  0  0  0  0
   -1.1245    3.8412    2.3379 H   0  0  0  0  0  0  0  0  0  0  0  0
   -3.7730    3.7096    3.1065 H   0  0  0  0  0  0  0  0  0  0  0  0
   -2.7569    4.8306    4.0367 H   0  0  0  0  0  0  0  0  0  0  0  0
   -4.1311    4.0101    4.7918 H   0  0  0  0  0  0  0  0  0  0  0  0
   -2.3190    4.3682    6.5827 H   0  0  0  0  0  0  0  0  0  0  0  0
   -2.2692    1.3106    9.4732 H   0  0  0  0  0  0  0  0  0  0  0  0
   -2.2983   -0.3389    7.7301 H   0  0  0  0  0  0  0  0  0  0  0  0
   -0.8620   -1.0001    2.4877 H   0  0  0  0  0  0  0  0  0  0  0  0
   -2.2770    3.5649   10.2480 H   0  0  0  0  0  0  0  0  0  0  0  0
   -0.8592    5.5382   10.0524 H   0  0  0  0  0  0  0  0  0  0  0  0
   -0.0661    4.1566    9.2795 H   0  0  0  0  0  0  0  0  0  0  0  0
   -0.8304    5.4119    8.2850 H   0  0  0  0  0  0  0  0  0  0  0  0
   -5.4952    4.9144    9.3716 H   0  0  0  0  0  0  0  0  0  0  0  0
  1  2  1  0  0  0  0 
  2  3  1  0  0  0  0 
  3  4  2  0  0  0  0 
  4  5  1  0  0  0  0 
  5  6  2  0  0  0  0 
  6  7  1  0  0  0  0 
  7  8  1  0  0  0  0 
  7  9  1  0  0  0  0 
  9 10  2  0  0  0  0 
 10 11  1  0  0  0  0 
 11 12  2  0  0  0  0 
 12 13  1  0  0  0  0 
 13 14  2  0  0  0  0 
  9 14  1  0  0  0  0 
 14 15  1  0  0  0  0 
 15 16  1  0  0  0  0 
  6 16  1  0  0  0  0 
 16 17  2  0  0  0  0 
  3 17  1  0  0  0  0 
 18 11  1  0  0  0  0 
 18 19  1  0  0  0  0 
 18 20  1  0  0  0  0 
 20 21  1  0  0  0  0 
 20 22  2  0  0  0  0 
  1 23  1  0  0  0  0 
  1 24  1  0  0  0  0 
  1 25  1  0  0  0  0 
  4 26  1  0  0  0  0 
  5 27  1  0  0  0  0 
  8 28  1  0  0  0  0 
  8 29  1  0  0  0  0 
  8 30  1  0  0  0  0 
 10 31  1  0  0  0  0 
 12 32  1  0  0  0  0 
 13 33  1  0  0  0  0 
 17 34  1  0  0  0  0 
 18 35  1  0  0  0  0 
 19 36  1  0  0  0  0 
 19 37  1  0  0  0  0 
 19 38  1  0  0  0  0 
 21 39  1  0  0  0  0 
M  END
> <cdk:Title>
protizinic acid

> <Conformer>
1

> <SuperDrugID>
SD002081

$$$$
