benzpiperylone
  CDK     0628171801

 51 54  0  0  0  0  0  0  0  0999 V2000
    3.1470   -3.7488    5.4697 C   0  0  2  0  0  0  0  0  0  0  0  0
    1.8207   -3.2613    5.0135 C   0  0  0  0  0  0  0  0  0  0  0  0
    3.4803   -5.0865    4.9053 C   0  0  0  0  0  0  0  0  0  0  0  0
    0.6046   -3.3630    5.6895 C   0  0  0  0  0  0  0  0  0  0  0  0
    1.5140   -2.5737    3.8382 C   0  0  0  0  0  0  0  0  0  0  0  0
    3.7863   -5.2310    3.5302 C   0  0  0  0  0  0  0  0  0  0  0  0
    3.5025   -6.2415    5.7253 C   0  0  0  0  0  0  0  0  0  0  0  0
   -0.3195   -2.7483    4.9415 N   0  0  0  0  0  0  0  0  0  0  0  0
    0.3233   -3.9846    6.9170 C   0  0  0  0  0  0  0  0  0  0  0  0
    2.3273   -2.2440    2.9441 O   0  0  0  0  0  0  0  0  0  0  0  0
    0.1901   -2.2965    3.8372 N   0  0  0  0  0  0  0  0  0  0  0  0
    4.0864   -6.4928    2.9868 C   0  0  0  0  0  0  0  0  0  0  0  0
    3.7973   -7.5053    5.1810 C   0  0  0  0  0  0  0  0  0  0  0  0
   -0.0092   -3.2054    8.0465 C   0  0  0  0  0  0  0  0  0  0  0  0
    0.3390   -5.3929    7.0231 C   0  0  0  0  0  0  0  0  0  0  0  0
   -0.5432   -1.5733    2.8288 C   0  0  2  0  0  0  0  0  0  0  0  0
    4.0854   -7.6321    3.8104 C   0  0  0  0  0  0  0  0  0  0  0  0
   -0.3268   -3.8300    9.2672 C   0  0  0  0  0  0  0  0  0  0  0  0
    0.0264   -6.0151    8.2465 C   0  0  0  0  0  0  0  0  0  0  0  0
   -0.5615   -0.0584    3.1824 C   0  0  2  0  0  0  0  0  0  0  0  0
   -1.9825   -2.1352    2.6106 C   0  0  1  0  0  0  0  0  0  0  0  0
   -0.3109   -5.2335    9.3671 C   0  0  0  0  0  0  0  0  0  0  0  0
   -1.4581    0.7532    2.2121 C   0  0  1  0  0  0  0  0  0  0  0  0
   -2.8258   -1.2384    1.6676 C   0  0  1  0  0  0  0  0  0  0  0  0
   -2.8385    0.1899    2.1084 N   0  0  1  0  0  0  0  0  0  0  0  0
   -3.7364    0.4979    3.2632 C   0  0  0  0  0  0  0  0  0  0  0  0
    3.1419   -3.7815    6.5621 H   0  0  0  0  0  0  0  0  0  0  0  0
    3.9274   -3.0327    5.1966 H   0  0  0  0  0  0  0  0  0  0  0  0
    3.7920   -4.4186    2.9126 H   0  0  0  0  0  0  0  0  0  0  0  0
    3.2964   -6.1739    6.7244 H   0  0  0  0  0  0  0  0  0  0  0  0
   -1.2543   -2.6711    5.1908 H   0  0  0  0  0  0  0  0  0  0  0  0
    4.3063   -6.5806    1.9926 H   0  0  0  0  0  0  0  0  0  0  0  0
    3.7954   -8.3339    5.7802 H   0  0  0  0  0  0  0  0  0  0  0  0
   -0.0178   -2.1821    7.9893 H   0  0  0  0  0  0  0  0  0  0  0  0
    0.5654   -5.9734    6.2096 H   0  0  0  0  0  0  0  0  0  0  0  0
   -0.0205   -1.6823    1.8708 H   0  0  0  0  0  0  0  0  0  0  0  0
    4.2965   -8.5517    3.4136 H   0  0  0  0  0  0  0  0  0  0  0  0
   -0.5751   -3.2638   10.0797 H   0  0  0  0  0  0  0  0  0  0  0  0
    0.0427   -7.0349    8.3199 H   0  0  0  0  0  0  0  0  0  0  0  0
    0.4584    0.3341    3.1358 H   0  0  0  0  0  0  0  0  0  0  0  0
   -0.9247    0.0822    4.2038 H   0  0  0  0  0  0  0  0  0  0  0  0
   -1.9209   -3.1422    2.1913 H   0  0  0  0  0  0  0  0  0  0  0  0
   -2.5082   -2.2077    3.5641 H   0  0  0  0  0  0  0  0  0  0  0  0
   -0.5439   -5.6867   10.2557 H   0  0  0  0  0  0  0  0  0  0  0  0
   -1.4902    1.7974    2.5348 H   0  0  0  0  0  0  0  0  0  0  0  0
   -1.0025    0.7443    1.2171 H   0  0  0  0  0  0  0  0  0  0  0  0
   -2.4056   -1.2888    0.6597 H   0  0  0  0  0  0  0  0  0  0  0  0
   -3.8454   -1.6287    1.6023 H   0  0  0  0  0  0  0  0  0  0  0  0
   -3.3996    0.0261    4.1877 H   0  0  0  0  0  0  0  0  0  0  0  0
   -4.7520    0.1560    3.0566 H   0  0  0  0  0  0  0  0  0  0  0  0
   -3.7838    1.5762    3.4290 H   0  0  0  0  0  0  0  0  0  0  0  0
  1  2  1  0  0  0  0 
  1  3  1  0  0  0  0 
  2  4  2  0  0  0  0 
  2  5  1  0  0  0  0 
  3  6  2  0  0  0  0 
  3  7  1  0  0  0  0 
  4  8  1  0  0  0  0 
  4  9  1  0  0  0  0 
  5 10  2  0  0  0  0 
  5 11  1  0  0  0  0 
  6 12  1  0  0  0  0 
  7 13  2  0  0  0  0 
  8 11  1  0  0  0  0 
  9 14  2  0  0  0  0 
  9 15  1  0  0  0  0 
 11 16  1  0  0  0  0 
 12 17  2  0  0  0  0 
 13 17  1  0  0  0  0 
 14 18  1  0  0  0  0 
 15 19  2  0  0  0  0 
 16 20  1  0  0  0  0 
 16 21  1  0  0  0  0 
 18 22  2  0  0  0  0 
 19 22  1  0  0  0  0 
 20 23  1  0  0  0  0 
 21 24  1  0  0  0  0 
 23 25  1  0  0  0  0 
 24 25  1  0  0  0  0 
 25 26  1  0  0  0  0 
 27  1  1  0  0  0  0 
 28  1  1  0  0  0  0 
 29  6  1  0  0  0  0 
 30  7  1  0  0  0  0 
 31  8  1  0  0  0  0 
 32 12  1  0  0  0  0 
 33 13  1  0  0  0  0 
 34 14  1  0  0  0  0 
 35 15  1  0  0  0  0 
 36 16  1  0  0  0  0 
 37 17  1  0  0  0  0 
 38 18  1  0  0  0  0 
 39 19  1  0  0  0  0 
 40 20  1  0  0  0  0 
 41 20  1  0  0  0  0 
 42 21  1  0  0  0  0 
 43 21  1  0  0  0  0 
 44 22  1  0  0  0  0 
 45 23  1  0  0  0  0 
 46 23  1  0  0  0  0 
 47 24  1  0  0  0  0 
 48 24  1  0  0  0  0 
 49 26  1  0  0  0  0 
 50 26  1  0  0  0  0 
 51 26  1  0  0  0  0 
M  END
> <cdk:Title>
benzpiperylone

> <Conformer>
1

> <SuperDrugID>
SD003151

$$$$
