fesoterodine
  CDK     0628171801

 67 68  0  0  0  0  0  0  0  0999 V2000
   -1.1144    1.5587    1.6314 C   0  0  1  0  0  0  0  0  0  0  0  0
    0.2449    1.6616    0.8597 C   0  0  1  0  0  0  0  0  0  0  0  0
   -1.4236    2.8616    2.3205 C   0  0  0  0  0  0  0  0  0  0  0  0
   -2.3133    1.0873    0.8563 C   0  0  0  0  0  0  0  0  0  0  0  0
    0.6661    0.4103    0.0280 C   0  0  1  0  0  0  0  0  0  0  0  0
   -1.3749    3.0075    3.7362 C   0  0  0  0  0  0  0  0  0  0  0  0
   -1.7666    3.9984    1.5386 C   0  0  0  0  0  0  0  0  0  0  0  0
   -3.3028    0.3006    1.4996 C   0  0  0  0  0  0  0  0  0  0  0  0
   -2.5193    1.4251   -0.5061 C   0  0  0  0  0  0  0  0  0  0  0  0
    2.0181   -0.1264    0.4355 N   0  0  2  0  0  0  0  0  0  0  0  0
   -0.9764    1.9336    4.5008 O   0  0  0  0  0  0  0  0  0  0  0  0
   -1.6813    4.2619    4.3140 C   0  0  0  0  0  0  0  0  0  0  0  0
   -2.0710    5.2492    2.1145 C   0  0  0  0  0  0  0  0  0  0  0  0
   -4.4609   -0.1136    0.8145 C   0  0  0  0  0  0  0  0  0  0  0  0
   -3.6692    0.9991   -1.1968 C   0  0  0  0  0  0  0  0  0  0  0  0
    3.1705    0.2749   -0.4795 C   0  0  1  0  0  0  0  0  0  0  0  0
    1.9930   -1.5297    1.0068 C   0  0  1  0  0  0  0  0  0  0  0  0
   -1.1256    1.6261    5.8282 C   0  0  0  0  0  0  0  0  0  0  0  0
   -2.0379    5.3614    3.5179 C   0  0  0  0  0  0  0  0  0  0  0  0
   -2.3860    6.4107    1.2449 C   0  0  2  0  0  0  0  0  0  0  0  0
   -4.6445    0.2350   -0.5344 C   0  0  0  0  0  0  0  0  0  0  0  0
    3.3284    1.8639   -0.4668 C   0  0  0  0  0  0  0  0  0  0  0  0
    4.5965   -0.2553    0.0142 C   0  0  0  0  0  0  0  0  0  0  0  0
    1.0971   -1.6614    2.2723 C   0  0  0  0  0  0  0  0  0  0  0  0
    1.6642   -2.6264   -0.0461 C   0  0  0  0  0  0  0  0  0  0  0  0
   -0.4469    0.4273    6.3852 C   0  0  1  0  0  0  0  0  0  0  0  0
   -1.8861    2.2880    6.5707 O   0  0  0  0  0  0  0  0  0  0  0  0
   -3.5201    6.1437    0.4248 O   0  0  0  0  0  0  0  0  0  0  0  0
   -0.9955   -0.8672    5.7336 C   0  0  0  0  0  0  0  0  0  0  0  0
    1.0956    0.5402    6.2495 C   0  0  0  0  0  0  0  0  0  0  0  0
   -0.9213    0.7856    2.3801 H   0  0  0  0  0  0  0  0  0  0  0  0
    0.2202    2.5221    0.1872 H   0  0  0  0  0  0  0  0  0  0  0  0
    1.0213    1.8762    1.6012 H   0  0  0  0  0  0  0  0  0  0  0  0
   -0.1067   -0.3519    0.1055 H   0  0  0  0  0  0  0  0  0  0  0  0
    0.6598    0.6770   -1.0321 H   0  0  0  0  0  0  0  0  0  0  0  0
   -1.7916    3.9244    0.5198 H   0  0  0  0  0  0  0  0  0  0  0  0
   -3.1936    0.0221    2.4798 H   0  0  0  0  0  0  0  0  0  0  0  0
   -1.8335    1.9885   -1.0117 H   0  0  0  0  0  0  0  0  0  0  0  0
   -1.6289    4.3994    5.3240 H   0  0  0  0  0  0  0  0  0  0  0  0
   -5.1704   -0.6682    1.2997 H   0  0  0  0  0  0  0  0  0  0  0  0
   -3.7948    1.2491   -2.1809 H   0  0  0  0  0  0  0  0  0  0  0  0
    2.8657   -0.1588   -1.5112 H   0  0  0  0  0  0  0  0  0  0  0  0
    2.9855   -1.7641    1.3922 H   0  0  0  0  0  0  0  0  0  0  0  0
   -2.2612    6.2499    3.9723 H   0  0  0  0  0  0  0  0  0  0  0  0
   -1.5263    6.6141    0.6030 H   0  0  0  0  0  0  0  0  0  0  0  0
   -2.5962    7.3119    1.8259 H   0  0  0  0  0  0  0  0  0  0  0  0
   -5.4859   -0.0632   -1.0309 H   0  0  0  0  0  0  0  0  0  0  0  0
    4.1993    2.1741   -1.0473 H   0  0  0  0  0  0  0  0  0  0  0  0
    2.4650    2.3371   -0.9302 H   0  0  0  0  0  0  0  0  0  0  0  0
    3.4360    2.2417    0.5518 H   0  0  0  0  0  0  0  0  0  0  0  0
    5.4008    0.1721   -0.5891 H   0  0  0  0  0  0  0  0  0  0  0  0
    4.6607   -1.3366   -0.1110 H   0  0  0  0  0  0  0  0  0  0  0  0
    4.7733   -0.0026    1.0605 H   0  0  0  0  0  0  0  0  0  0  0  0
    1.2805   -2.6166    2.7689 H   0  0  0  0  0  0  0  0  0  0  0  0
    1.3323   -0.8639    2.9776 H   0  0  0  0  0  0  0  0  0  0  0  0
    0.0356   -1.6130    2.0324 H   0  0  0  0  0  0  0  0  0  0  0  0
    1.7756   -3.6198    0.3947 H   0  0  0  0  0  0  0  0  0  0  0  0
    2.3490   -2.5559   -0.8917 H   0  0  0  0  0  0  0  0  0  0  0  0
    0.6434   -2.5333   -0.4190 H   0  0  0  0  0  0  0  0  0  0  0  0
   -0.6653    0.3632    7.4565 H   0  0  0  0  0  0  0  0  0  0  0  0
   -3.6527    6.9639   -0.0978 H   0  0  0  0  0  0  0  0  0  0  0  0
   -0.5145   -1.7420    6.1750 H   0  0  0  0  0  0  0  0  0  0  0  0
   -0.8096   -0.8732    4.6587 H   0  0  0  0  0  0  0  0  0  0  0  0
   -2.0705   -0.9498    5.9035 H   0  0  0  0  0  0  0  0  0  0  0  0
    1.5791   -0.3445    6.6723 H   0  0  0  0  0  0  0  0  0  0  0  0
    1.3941    0.6297    5.2019 H   0  0  0  0  0  0  0  0  0  0  0  0
    1.4632    1.4144    6.7939 H   0  0  0  0  0  0  0  0  0  0  0  0
  1  2  1  0  0  0  0 
  1  3  1  0  0  0  0 
  1  4  1  0  0  0  0 
  2  5  1  0  0  0  0 
  3  6  2  0  0  0  0 
  3  7  1  0  0  0  0 
  4  8  2  0  0  0  0 
  4  9  1  0  0  0  0 
  5 10  1  0  0  0  0 
  6 11  1  0  0  0  0 
  6 12  1  0  0  0  0 
  7 13  2  0  0  0  0 
  8 14  1  0  0  0  0 
  9 15  2  0  0  0  0 
 10 16  1  0  0  0  0 
 10 17  1  0  0  0  0 
 11 18  1  0  0  0  0 
 12 19  2  0  0  0  0 
 13 19  1  0  0  0  0 
 13 20  1  0  0  0  0 
 14 21  2  0  0  0  0 
 15 21  1  0  0  0  0 
 16 22  1  0  0  0  0 
 16 23  1  0  0  0  0 
 17 24  1  0  0  0  0 
 17 25  1  0  0  0  0 
 18 26  1  0  0  0  0 
 18 27  2  0  0  0  0 
 20 28  1  0  0  0  0 
 26 29  1  0  0  0  0 
 26 30  1  0  0  0  0 
  1 31  1  0  0  0  0 
  2 32  1  0  0  0  0 
  2 33  1  0  0  0  0 
  5 34  1  0  0  0  0 
  5 35  1  0  0  0  0 
  7 36  1  0  0  0  0 
  8 37  1  0  0  0  0 
  9 38  1  0  0  0  0 
 12 39  1  0  0  0  0 
 14 40  1  0  0  0  0 
 15 41  1  0  0  0  0 
 16 42  1  0  0  0  0 
 17 43  1  0  0  0  0 
 19 44  1  0  0  0  0 
 20 45  1  0  0  0  0 
 20 46  1  0  0  0  0 
 21 47  1  0  0  0  0 
 22 48  1  0  0  0  0 
 22 49  1  0  0  0  0 
 22 50  1  0  0  0  0 
 23 51  1  0  0  0  0 
 23 52  1  0  0  0  0 
 23 53  1  0  0  0  0 
 24 54  1  0  0  0  0 
 24 55  1  0  0  0  0 
 24 56  1  0  0  0  0 
 25 57  1  0  0  0  0 
 25 58  1  0  0  0  0 
 25 59  1  0  0  0  0 
 26 60  1  0  0  0  0 
 28 61  1  0  0  0  0 
 29 62  1  0  0  0  0 
 29 63  1  0  0  0  0 
 29 64  1  0  0  0  0 
 30 65  1  0  0  0  0 
 30 66  1  0  0  0  0 
 30 67  1  0  0  0  0 
M  END
> <cdk:Title>
fesoterodine

> <Conformer>
1

> <SuperDrugID>
SD003421

$$$$
