halopredone acetate
  CDK     0628171801

 64 67  0  0  0  0  0  0  0  0999 V2000
   -3.1806   -8.8070   -0.5638 F   0  0  0  0  0  0  0  0  0  0  0  0
   -2.4559   -7.6476   -0.8158 C   0  0  2  0  0  0  0  0  0  0  0  0
   -3.4313   -6.6538   -1.5725 C   0  0  2  0  0  0  0  0  0  0  0  0
   -1.2370   -8.0922   -1.7565 C   0  0  2  0  0  0  0  0  0  0  0  0
   -2.1009   -7.1167    0.6338 C   0  0  1  0  0  0  0  0  0  0  0  0
   -4.6315   -6.2313   -0.6603 C   0  0  1  0  0  0  0  0  0  0  0  0
   -3.9221   -7.2826   -2.9144 C   0  0  2  0  0  0  0  0  0  0  0  0
   -0.2240   -6.9407   -2.1131 C   0  0  0  0  0  0  0  0  0  0  0  0
   -1.8064   -8.6085   -3.0508 C   0  0  0  0  0  0  0  0  0  0  0  0
   -0.4025   -9.1098   -1.0674 C   0  0  0  0  0  0  0  0  0  0  0  0
   -1.0818   -6.1221    0.6294 O   0  0  0  0  0  0  0  0  0  0  0  0
   -3.3312   -6.5843    1.4483 C   0  0  1  0  0  0  0  0  0  0  0  0
   -4.2218   -5.5357    0.6811 C   0  0  1  0  0  0  0  0  0  0  0  0
   -5.7189   -5.3090   -1.2432 C   0  0  1  0  0  0  0  0  0  0  0  0
   -2.7631   -7.7845   -3.8112 C   0  0  2  0  0  0  0  0  0  0  0  0
   -1.4839   -9.8380   -3.5141 C   0  0  0  0  0  0  0  0  0  0  0  0
   -0.1243  -10.3187   -1.5846 C   0  0  0  0  0  0  0  0  0  0  0  0
   -3.4173   -4.1860    0.4889 C   0  0  0  0  0  0  0  0  0  0  0  0
   -5.6617   -5.2294    1.2798 C   0  0  2  0  0  0  0  0  0  0  0  0
   -6.4475   -4.7493    0.0022 C   0  0  2  0  0  0  0  0  0  0  0  0
   -2.1300   -6.7262   -4.4209 F   0  0  0  0  0  0  0  0  0  0  0  0
   -0.6368  -10.6843   -2.8179 C   0  0  0  0  0  0  0  0  0  0  0  0
    0.9506  -11.4712   -0.6419 Br  0  0  0  0  0  0  0  0  0  0  0  0
   -5.6834   -4.2581    2.4303 C   0  0  0  0  0  0  0  0  0  0  0  0
   -6.2602   -6.4709    1.7385 O   0  0  0  0  0  0  0  0  0  0  0  0
   -0.3441  -11.7953   -3.3184 O   0  0  0  0  0  0  0  0  0  0  0  0
   -5.0991   -4.5589    3.7558 C   0  0  2  0  0  0  0  0  0  0  0  0
   -6.2106   -3.1263    2.3091 O   0  0  0  0  0  0  0  0  0  0  0  0
   -3.9206   -3.7571    3.9197 O   0  0  0  0  0  0  0  0  0  0  0  0
   -3.6351   -2.8430    4.8930 C   0  0  0  0  0  0  0  0  0  0  0  0
   -2.3759   -2.0850    4.8217 C   0  0  0  0  0  0  0  0  0  0  0  0
   -4.4180   -2.6367    5.8492 O   0  0  0  0  0  0  0  0  0  0  0  0
   -7.5112   -6.7278    2.2327 C   0  0  0  0  0  0  0  0  0  0  0  0
   -7.8620   -8.1179    2.5613 C   0  0  0  0  0  0  0  0  0  0  0  0
   -8.3459   -5.8087    2.4045 O   0  0  0  0  0  0  0  0  0  0  0  0
   -2.8901   -5.7482   -1.8413 H   0  0  0  0  0  0  0  0  0  0  0  0
   -1.6802   -7.9425    1.2153 H   0  0  0  0  0  0  0  0  0  0  0  0
   -5.1577   -7.1684   -0.4281 H   0  0  0  0  0  0  0  0  0  0  0  0
   -4.5053   -6.5497   -3.4792 H   0  0  0  0  0  0  0  0  0  0  0  0
   -4.5861   -8.1247   -2.7002 H   0  0  0  0  0  0  0  0  0  0  0  0
   -0.7278   -6.0399   -2.4575 H   0  0  0  0  0  0  0  0  0  0  0  0
    0.4557   -7.2607   -2.9081 H   0  0  0  0  0  0  0  0  0  0  0  0
    0.3983   -6.6488   -1.2655 H   0  0  0  0  0  0  0  0  0  0  0  0
   -0.0059   -8.8865   -0.1847 H   0  0  0  0  0  0  0  0  0  0  0  0
   -0.8769   -5.9634    1.5753 H   0  0  0  0  0  0  0  0  0  0  0  0
   -3.9379   -7.4507    1.7220 H   0  0  0  0  0  0  0  0  0  0  0  0
   -2.9708   -6.1564    2.3851 H   0  0  0  0  0  0  0  0  0  0  0  0
   -5.2641   -4.5014   -1.8248 H   0  0  0  0  0  0  0  0  0  0  0  0
   -6.4054   -5.8624   -1.8902 H   0  0  0  0  0  0  0  0  0  0  0  0
   -3.2268   -8.3431   -4.6309 H   0  0  0  0  0  0  0  0  0  0  0  0
   -1.8602  -10.1650   -4.3757 H   0  0  0  0  0  0  0  0  0  0  0  0
   -4.0301   -3.4002    0.0464 H   0  0  0  0  0  0  0  0  0  0  0  0
   -3.0609   -3.8111    1.4488 H   0  0  0  0  0  0  0  0  0  0  0  0
   -2.5489   -4.2968   -0.1525 H   0  0  0  0  0  0  0  0  0  0  0  0
   -7.4844   -5.0857    0.0094 H   0  0  0  0  0  0  0  0  0  0  0  0
   -6.4743   -3.6603   -0.0851 H   0  0  0  0  0  0  0  0  0  0  0  0
   -4.8126   -5.6091    3.8333 H   0  0  0  0  0  0  0  0  0  0  0  0
   -5.8442   -4.3643    4.5325 H   0  0  0  0  0  0  0  0  0  0  0  0
   -1.7736   -2.3938    5.7264 H   0  0  0  0  0  0  0  0  0  0  0  0
   -1.7852   -2.4770    3.9389 H   0  0  0  0  0  0  0  0  0  0  0  0
   -2.6793   -0.9555    4.7670 H   0  0  0  0  0  0  0  0  0  0  0  0
   -7.1893   -8.4918    3.3341 H   0  0  0  0  0  0  0  0  0  0  0  0
   -7.7553   -8.7475    1.6764 H   0  0  0  0  0  0  0  0  0  0  0  0
   -8.8896   -8.1885    2.9253 H   0  0  0  0  0  0  0  0  0  0  0  0
  2  1  1  0  0  0  0 
  2  3  1  0  0  0  0 
  2  4  1  0  0  0  0 
  2  5  1  0  0  0  0 
  3  6  1  0  0  0  0 
  3  7  1  0  0  0  0 
  4  8  1  0  0  0  0 
  4  9  1  0  0  0  0 
  4 10  1  0  0  0  0 
  5 11  1  0  0  0  0 
  5 12  1  0  0  0  0 
  6 13  1  0  0  0  0 
  6 14  1  0  0  0  0 
 15  7  1  0  0  0  0 
 15  9  1  0  0  0  0 
  9 16  2  0  0  0  0 
 10 17  2  0  0  0  0 
 13 12  1  0  0  0  0 
 13 18  1  0  0  0  0 
 13 19  1  0  0  0  0 
 14 20  1  0  0  0  0 
 15 21  1  0  0  0  0 
 16 22  1  0  0  0  0 
 17 22  1  0  0  0  0 
 17 23  1  0  0  0  0 
 19 20  1  0  0  0  0 
 19 24  1  0  0  0  0 
 19 25  1  0  0  0  0 
 22 26  2  0  0  0  0 
 24 27  1  0  0  0  0 
 24 28  2  0  0  0  0 
 27 29  1  0  0  0  0 
 29 30  1  0  0  0  0 
 30 31  1  0  0  0  0 
 30 32  2  0  0  0  0 
 25 33  1  0  0  0  0 
 33 34  1  0  0  0  0 
 33 35  2  0  0  0  0 
  3 36  1  0  0  0  0 
  5 37  1  0  0  0  0 
  6 38  1  0  0  0  0 
 39  7  1  0  0  0  0 
 40  7  1  0  0  0  0 
 41  8  1  0  0  0  0 
 42  8  1  0  0  0  0 
 43  8  1  0  0  0  0 
 44 10  1  0  0  0  0 
 45 11  1  0  0  0  0 
 46 12  1  0  0  0  0 
 47 12  1  0  0  0  0 
 48 14  1  0  0  0  0 
 49 14  1  0  0  0  0 
 15 50  1  0  0  0  0 
 51 16  1  0  0  0  0 
 52 18  1  0  0  0  0 
 53 18  1  0  0  0  0 
 54 18  1  0  0  0  0 
 55 20  1  0  0  0  0 
 56 20  1  0  0  0  0 
 57 27  1  0  0  0  0 
 58 27  1  0  0  0  0 
 59 31  1  0  0  0  0 
 60 31  1  0  0  0  0 
 61 31  1  0  0  0  0 
 62 34  1  0  0  0  0 
 63 34  1  0  0  0  0 
 64 34  1  0  0  0  0 
M  END
> <cdk:Title>
halopredone acetate

> <Conformer>
1

> <SuperDrugID>
SD001201

$$$$
