dimethyl fumarate
  CDK     0628171802

 18 17  0  0  0  0  0  0  0  0999 V2000
   -0.1572    0.4696    0.7425 C   0  0  0  0  0  0  0  0  0  0  0  0
   -1.4634    0.3458    0.2970 C   0  0  0  0  0  0  0  0  0  0  0  0
    0.1729    1.3180    1.7667 O   0  0  0  0  0  0  0  0  0  0  0  0
    0.7304   -0.2268    0.1944 O   0  0  0  0  0  0  0  0  0  0  0  0
   -2.5068    1.0289    0.8060 C   0  0  0  0  0  0  0  0  0  0  0  0
    1.4729    1.5115    2.3339 C   0  0  0  0  0  0  0  0  0  0  0  0
   -3.8203    0.8854    0.3868 C   0  0  0  0  0  0  0  0  0  0  0  0
   -4.7733    1.6981    0.9346 O   0  0  0  0  0  0  0  0  0  0  0  0
   -4.1538    0.0289   -0.4675 O   0  0  0  0  0  0  0  0  0  0  0  0
   -6.1778    1.6608    0.6552 C   0  0  0  0  0  0  0  0  0  0  0  0
   -1.6333   -0.2964   -0.4443 H   0  0  0  0  0  0  0  0  0  0  0  0
   -2.3431    1.6830    1.5363 H   0  0  0  0  0  0  0  0  0  0  0  0
    2.1664    1.8972    1.5837 H   0  0  0  0  0  0  0  0  0  0  0  0
    1.3938    2.2339    3.1470 H   0  0  0  0  0  0  0  0  0  0  0  0
    1.8573    0.5726    2.7360 H   0  0  0  0  0  0  0  0  0  0  0  0
   -6.6719    2.4486    1.2237 H   0  0  0  0  0  0  0  0  0  0  0  0
   -6.5939    0.6950    0.9493 H   0  0  0  0  0  0  0  0  0  0  0  0
   -6.3592    1.8268   -0.4094 H   0  0  0  0  0  0  0  0  0  0  0  0
  1  2  1  0  0  0  0 
  1  3  1  0  0  0  0 
  1  4  2  0  0  0  0 
  2  5  2  0  0  0  0 
  3  6  1  0  0  0  0 
  5  7  1  0  0  0  0 
  7  8  1  0  0  0  0 
  7  9  2  0  0  0  0 
  8 10  1  0  0  0  0 
  2 11  1  0  0  0  0 
  5 12  1  0  0  0  0 
  6 13  1  0  0  0  0 
  6 14  1  0  0  0  0 
  6 15  1  0  0  0  0 
 10 16  1  0  0  0  0 
 10 17  1  0  0  0  0 
 10 18  1  0  0  0  0 
M  END
> <cdk:Title>
dimethyl fumarate

> <Conformer>
1

> <SuperDrugID>
SD003748

$$$$
