pyrimethamine
  CDK     0628171801

 30 31  0  0  0  0  0  0  0  0999 V2000
    1.1360    4.9739   -0.9689 C   0  0  1  0  0  0  0  0  0  0  0  0
    1.1850    4.2973   -2.3574 C   0  0  0  0  0  0  0  0  0  0  0  0
    2.2469    4.5683   -0.0611 C   0  0  0  0  0  0  0  0  0  0  0  0
    2.4254    3.2636    0.4889 C   0  0  0  0  0  0  0  0  0  0  0  0
    3.1511    5.5411    0.2434 N   0  0  0  0  0  0  0  0  0  0  0  0
    3.5591    3.0708    1.3216 C   0  0  0  0  0  0  0  0  0  0  0  0
    1.5287    2.1887    0.2268 C   0  0  0  0  0  0  0  0  0  0  0  0
    4.2180    5.3260    1.0469 C   0  0  0  0  0  0  0  0  0  0  0  0
    3.8510    1.8979    1.9153 N   0  0  0  0  0  0  0  0  0  0  0  0
    4.4092    4.0961    1.5749 N   0  0  0  0  0  0  0  0  0  0  0  0
    1.9600    1.0623   -0.5153 C   0  0  0  0  0  0  0  0  0  0  0  0
    0.1940    2.2217    0.6966 C   0  0  0  0  0  0  0  0  0  0  0  0
    5.0723    6.3238    1.3175 N   0  0  0  0  0  0  0  0  0  0  0  0
    1.0681    0.0146   -0.8139 C   0  0  0  0  0  0  0  0  0  0  0  0
   -0.6994    1.1767    0.3916 C   0  0  0  0  0  0  0  0  0  0  0  0
   -0.2668    0.0724   -0.3687 C   0  0  0  0  0  0  0  0  0  0  0  0
   -1.3416   -1.1833   -0.7388 Cl  0  0  0  0  0  0  0  0  0  0  0  0
    1.1703    6.0549   -1.1351 H   0  0  0  0  0  0  0  0  0  0  0  0
    0.1736    4.7707   -0.4992 H   0  0  0  0  0  0  0  0  0  0  0  0
    0.4274    4.7448   -3.0039 H   0  0  0  0  0  0  0  0  0  0  0  0
    0.9754    3.2310   -2.2836 H   0  0  0  0  0  0  0  0  0  0  0  0
    2.1644    4.4355   -2.8208 H   0  0  0  0  0  0  0  0  0  0  0  0
    3.2945    1.1193    1.7655 H   0  0  0  0  0  0  0  0  0  0  0  0
    4.6253    1.8313    2.4939 H   0  0  0  0  0  0  0  0  0  0  0  0
    2.9259    0.9986   -0.8501 H   0  0  0  0  0  0  0  0  0  0  0  0
   -0.1370    3.0065    1.2647 H   0  0  0  0  0  0  0  0  0  0  0  0
    4.9425    7.1937    0.9095 H   0  0  0  0  0  0  0  0  0  0  0  0
    5.8163    6.1798    1.9236 H   0  0  0  0  0  0  0  0  0  0  0  0
    1.3966   -0.7851   -1.3586 H   0  0  0  0  0  0  0  0  0  0  0  0
   -1.6638    1.2274    0.7257 H   0  0  0  0  0  0  0  0  0  0  0  0
  1  2  1  0  0  0  0 
  1  3  1  0  0  0  0 
  3  4  2  0  0  0  0 
  3  5  1  0  0  0  0 
  4  6  1  0  0  0  0 
  4  7  1  0  0  0  0 
  5  8  2  0  0  0  0 
  6  9  1  0  0  0  0 
  6 10  2  0  0  0  0 
  7 11  2  0  0  0  0 
  7 12  1  0  0  0  0 
  8 10  1  0  0  0  0 
  8 13  1  0  0  0  0 
 11 14  1  0  0  0  0 
 12 15  2  0  0  0  0 
 14 16  2  0  0  0  0 
 15 16  1  0  0  0  0 
 16 17  1  0  0  0  0 
  1 18  1  0  0  0  0 
  1 19  1  0  0  0  0 
  2 20  1  0  0  0  0 
  2 21  1  0  0  0  0 
  2 22  1  0  0  0  0 
  9 23  1  0  0  0  0 
  9 24  1  0  0  0  0 
 11 25  1  0  0  0  0 
 12 26  1  0  0  0  0 
 13 27  1  0  0  0  0 
 13 28  1  0  0  0  0 
 14 29  1  0  0  0  0 
 15 30  1  0  0  0  0 
M  END
> <cdk:Title>
pyrimethamine

> <Conformer>
1

> <SuperDrugID>
SD002096

$$$$
