prucalopride
  CDK     0628171801

 51 53  0  0  0  0  0  0  0  0999 V2000
    1.9796   -0.5379    0.6433 C   0  0  0  0  0  0  0  0  0  0  0  0
    0.5831   -0.2049    0.6349 O   0  0  0  0  0  0  0  0  0  0  0  0
    0.1596    0.6396    1.7236 C   0  0  1  0  0  0  0  0  0  0  0  0
   -1.3385    0.9538    1.5161 C   0  0  1  0  0  0  0  0  0  0  0  0
   -1.9225    1.9543    2.5468 C   0  0  2  0  0  0  0  0  0  0  0  0
   -3.3879    2.1026    2.2874 N   0  0  2  0  0  0  0  0  0  0  0  0
   -3.7754    3.1614    1.3072 C   0  0  2  0  0  0  0  0  0  0  0  0
   -5.1844    2.8540    0.7493 C   0  0  1  0  0  0  0  0  0  0  0  0
   -6.2429    2.6614    1.8748 C   0  0  2  0  0  0  0  0  0  0  0  0
   -5.7372    1.7160    3.0047 C   0  0  2  0  0  0  0  0  0  0  0  0
   -4.2986    2.0585    3.4687 C   0  0  2  0  0  0  0  0  0  0  0  0
   -7.4265    2.1074    1.2727 N   0  0  0  0  0  0  0  0  0  0  0  0
   -8.5955    2.7616    1.0211 C   0  0  0  0  0  0  0  0  0  0  0  0
   -8.7451    3.9504    1.3922 O   0  0  0  0  0  0  0  0  0  0  0  0
   -9.6336    2.1304    0.2874 C   0  0  0  0  0  0  0  0  0  0  0  0
  -10.3916    2.8760   -0.6502 C   0  0  0  0  0  0  0  0  0  0  0  0
  -11.4396    2.2839   -1.3902 C   0  0  0  0  0  0  0  0  0  0  0  0
  -12.2871    3.2559   -2.4948 Cl  0  0  0  0  0  0  0  0  0  0  0  0
  -11.7568    0.9164   -1.2095 C   0  0  0  0  0  0  0  0  0  0  0  0
  -12.7592    0.3245   -1.8996 N   0  0  0  0  0  0  0  0  0  0  0  0
  -10.9963    0.1755   -0.2800 C   0  0  0  0  0  0  0  0  0  0  0  0
   -9.9576    0.7606    0.4477 C   0  0  0  0  0  0  0  0  0  0  0  0
   -9.3579   -0.0992    1.3156 O   0  0  0  0  0  0  0  0  0  0  0  0
   -9.9817   -1.3802    1.1032 C   0  0  1  0  0  0  0  0  0  0  0  0
  -11.1429   -1.2244    0.0966 C   0  0  2  0  0  0  0  0  0  0  0  0
    2.2634   -1.0487    1.5673 H   0  0  0  0  0  0  0  0  0  0  0  0
    2.1680   -1.2115   -0.1931 H   0  0  0  0  0  0  0  0  0  0  0  0
    2.5947    0.3554    0.5087 H   0  0  0  0  0  0  0  0  0  0  0  0
    0.2929    0.1262    2.6813 H   0  0  0  0  0  0  0  0  0  0  0  0
    0.7302    1.5738    1.7337 H   0  0  0  0  0  0  0  0  0  0  0  0
   -1.4671    1.3598    0.5097 H   0  0  0  0  0  0  0  0  0  0  0  0
   -1.9009    0.0160    1.5731 H   0  0  0  0  0  0  0  0  0  0  0  0
   -1.4062    2.9167    2.4727 H   0  0  0  0  0  0  0  0  0  0  0  0
   -1.7330    1.5573    3.5482 H   0  0  0  0  0  0  0  0  0  0  0  0
   -3.0794    3.1962    0.4662 H   0  0  0  0  0  0  0  0  0  0  0  0
   -3.7659    4.1469    1.7812 H   0  0  0  0  0  0  0  0  0  0  0  0
   -5.4968    3.6741    0.0967 H   0  0  0  0  0  0  0  0  0  0  0  0
   -5.1198    1.9485    0.1376 H   0  0  0  0  0  0  0  0  0  0  0  0
   -6.4431    3.6412    2.3252 H   0  0  0  0  0  0  0  0  0  0  0  0
   -5.7397    0.6819    2.6511 H   0  0  0  0  0  0  0  0  0  0  0  0
   -6.4134    1.7750    3.8613 H   0  0  0  0  0  0  0  0  0  0  0  0
   -4.2875    3.0140    4.0019 H   0  0  0  0  0  0  0  0  0  0  0  0
   -3.9770    1.2809    4.1659 H   0  0  0  0  0  0  0  0  0  0  0  0
   -7.3713    1.1844    0.9783 H   0  0  0  0  0  0  0  0  0  0  0  0
  -10.1711    3.8637   -0.8111 H   0  0  0  0  0  0  0  0  0  0  0  0
  -13.2787    0.8341   -2.5400 H   0  0  0  0  0  0  0  0  0  0  0  0
  -12.9690   -0.6114   -1.7582 H   0  0  0  0  0  0  0  0  0  0  0  0
   -9.2341   -2.0778    0.7166 H   0  0  0  0  0  0  0  0  0  0  0  0
  -10.3494   -1.7625    2.0584 H   0  0  0  0  0  0  0  0  0  0  0  0
  -11.0174   -1.8779   -0.7702 H   0  0  0  0  0  0  0  0  0  0  0  0
  -12.1160   -1.4012    0.5660 H   0  0  0  0  0  0  0  0  0  0  0  0
  1  2  1  0  0  0  0 
  2  3  1  0  0  0  0 
  3  4  1  0  0  0  0 
  4  5  1  0  0  0  0 
  5  6  1  0  0  0  0 
  6  7  1  0  0  0  0 
  7  8  1  0  0  0  0 
  8  9  1  0  0  0  0 
  9 10  1  0  0  0  0 
 10 11  1  0  0  0  0 
  6 11  1  0  0  0  0 
  9 12  1  0  0  0  0 
 12 13  1  0  0  0  0 
 13 14  2  0  0  0  0 
 13 15  1  0  0  0  0 
 15 16  2  0  0  0  0 
 16 17  1  0  0  0  0 
 17 18  1  0  0  0  0 
 17 19  2  0  0  0  0 
 19 20  1  0  0  0  0 
 19 21  1  0  0  0  0 
 21 22  2  0  0  0  0 
 15 22  1  0  0  0  0 
 22 23  1  0  0  0  0 
 23 24  1  0  0  0  0 
 24 25  1  0  0  0  0 
 21 25  1  0  0  0  0 
  1 26  1  0  0  0  0 
  1 27  1  0  0  0  0 
  1 28  1  0  0  0  0 
  3 29  1  0  0  0  0 
  3 30  1  0  0  0  0 
  4 31  1  0  0  0  0 
  4 32  1  0  0  0  0 
  5 33  1  0  0  0  0 
  5 34  1  0  0  0  0 
  7 35  1  0  0  0  0 
  7 36  1  0  0  0  0 
  8 37  1  0  0  0  0 
  8 38  1  0  0  0  0 
  9 39  1  0  0  0  0 
 10 40  1  0  0  0  0 
 10 41  1  0  0  0  0 
 11 42  1  0  0  0  0 
 11 43  1  0  0  0  0 
 12 44  1  0  0  0  0 
 16 45  1  0  0  0  0 
 20 46  1  0  0  0  0 
 20 47  1  0  0  0  0 
 24 48  1  0  0  0  0 
 24 49  1  0  0  0  0 
 25 50  1  0  0  0  0 
 25 51  1  0  0  0  0 
M  END
> <cdk:Title>
prucalopride

> <Conformer>
1

> <SuperDrugID>
SD003017

$$$$
