thymol
  CDK     0628171801

 25 25  0  0  0  0  0  0  0  0999 V2000
    1.1936   -1.4313    0.6030 C   0  0  2  0  0  0  0  0  0  0  0  0
   -0.1333   -1.0509    1.3146 C   0  0  0  0  0  0  0  0  0  0  0  0
    2.2520   -1.9762    1.6002 C   0  0  0  0  0  0  0  0  0  0  0  0
    1.7332   -0.2952   -0.2201 C   0  0  0  0  0  0  0  0  0  0  0  0
    1.8640   -0.3825   -1.6301 C   0  0  0  0  0  0  0  0  0  0  0  0
    2.1278    0.9149    0.4044 C   0  0  0  0  0  0  0  0  0  0  0  0
    1.5014   -1.4964   -2.3167 O   0  0  0  0  0  0  0  0  0  0  0  0
    2.3762    0.6988   -2.3768 C   0  0  0  0  0  0  0  0  0  0  0  0
    2.6366    1.9910   -0.3416 C   0  0  0  0  0  0  0  0  0  0  0  0
    2.7742    1.8976   -1.7420 C   0  0  0  0  0  0  0  0  0  0  0  0
    3.3065    3.0405   -2.5240 C   0  0  0  0  0  0  0  0  0  0  0  0
    0.9438   -2.2773   -0.0451 H   0  0  0  0  0  0  0  0  0  0  0  0
   -0.8714   -0.7189    0.5806 H   0  0  0  0  0  0  0  0  0  0  0  0
   -0.5422   -1.9185    1.8381 H   0  0  0  0  0  0  0  0  0  0  0  0
    0.0201   -0.2515    2.0429 H   0  0  0  0  0  0  0  0  0  0  0  0
    3.1536   -2.2804    1.0637 H   0  0  0  0  0  0  0  0  0  0  0  0
    1.8605   -2.8498    2.1264 H   0  0  0  0  0  0  0  0  0  0  0  0
    2.5248   -1.2233    2.3425 H   0  0  0  0  0  0  0  0  0  0  0  0
    2.0488    1.0275    1.4163 H   0  0  0  0  0  0  0  0  0  0  0  0
    2.2753   -2.0953   -2.2497 H   0  0  0  0  0  0  0  0  0  0  0  0
    2.4571    0.6045   -3.3932 H   0  0  0  0  0  0  0  0  0  0  0  0
    2.9077    2.8461    0.1495 H   0  0  0  0  0  0  0  0  0  0  0  0
    4.0144    3.6235   -1.9299 H   0  0  0  0  0  0  0  0  0  0  0  0
    3.8287    2.6982   -3.4204 H   0  0  0  0  0  0  0  0  0  0  0  0
    2.4825    3.6915   -2.8232 H   0  0  0  0  0  0  0  0  0  0  0  0
  1  2  1  0  0  0  0 
  1  3  1  0  0  0  0 
  1  4  1  0  0  0  0 
  4  5  2  0  0  0  0 
  4  6  1  0  0  0  0 
  5  7  1  0  0  0  0 
  5  8  1  0  0  0  0 
  6  9  2  0  0  0  0 
  8 10  2  0  0  0  0 
  9 10  1  0  0  0  0 
 10 11  1  0  0  0  0 
  1 12  1  0  0  0  0 
  2 13  1  0  0  0  0 
  2 14  1  0  0  0  0 
  2 15  1  0  0  0  0 
  3 16  1  0  0  0  0 
  3 17  1  0  0  0  0 
  3 18  1  0  0  0  0 
  6 19  1  0  0  0  0 
  7 20  1  0  0  0  0 
  8 21  1  0  0  0  0 
  9 22  1  0  0  0  0 
 11 23  1  0  0  0  0 
 11 24  1  0  0  0  0 
 11 25  1  0  0  0  0 
M  END
> <cdk:Title>
thymol

> <Conformer>
1

> <SuperDrugID>
SD003458

$$$$
