deferoxamine
  CDK     0628171802

 87 86  0  0  0  0  0  0  0  0999 V2000
  -13.3186    2.9911   -2.0891 C   0  0  0  0  0  0  0  0  0  0  0  0
  -14.7861    3.2516   -2.0449 C   0  0  2  0  0  0  0  0  0  0  0  0
  -12.3910    3.9297   -2.4839 N   0  0  0  0  0  0  0  0  0  0  0  0
  -12.9426    1.8348   -1.7858 O   0  0  0  0  0  0  0  0  0  0  0  0
  -15.2073    4.2502   -0.9314 C   0  0  2  0  0  0  0  0  0  0  0  0
  -10.9712    3.6804   -2.5933 C   0  0  2  0  0  0  0  0  0  0  0  0
  -12.8071    5.1175   -2.8567 O   0  0  0  0  0  0  0  0  0  0  0  0
  -16.6465    4.6018   -0.9577 C   0  0  0  0  0  0  0  0  0  0  0  0
  -10.2498    3.3467   -1.2571 C   0  0  2  0  0  0  0  0  0  0  0  0
  -17.4258    4.3893    0.1407 N   0  0  0  0  0  0  0  0  0  0  0  0
  -17.1189    5.1397   -1.9878 O   0  0  0  0  0  0  0  0  0  0  0  0
   -8.7001    3.3751   -1.3918 C   0  0  1  0  0  0  0  0  0  0  0  0
  -18.7901    4.7963    0.2817 C   0  0  1  0  0  0  0  0  0  0  0  0
   -7.9511    2.9464   -0.0998 C   0  0  2  0  0  0  0  0  0  0  0  0
  -19.3768    4.2723    1.6207 C   0  0  1  0  0  0  0  0  0  0  0  0
   -6.4403    3.2998   -0.1370 C   0  0  2  0  0  0  0  0  0  0  0  0
  -20.8347    4.7313    1.8978 C   0  0  2  0  0  0  0  0  0  0  0  0
   -5.8121    2.9877    1.1095 N   0  0  0  0  0  0  0  0  0  0  0  0
  -21.3892    4.1849    3.2466 C   0  0  1  0  0  0  0  0  0  0  0  0
   -4.7796    2.1188    1.2991 C   0  0  0  0  0  0  0  0  0  0  0  0
  -22.7903    4.7372    3.6296 C   0  0  2  0  0  0  0  0  0  0  0  0
   -4.2250    1.9085    2.6526 C   0  0  2  0  0  0  0  0  0  0  0  0
   -4.2908    1.4692    0.3449 O   0  0  0  0  0  0  0  0  0  0  0  0
  -23.3350    4.1005    4.8085 N   0  0  0  0  0  0  0  0  0  0  0  0
   -3.5078    3.1621    3.2316 C   0  0  1  0  0  0  0  0  0  0  0  0
  -23.6721    4.7064    6.0094 C   0  0  0  0  0  0  0  0  0  0  0  0
  -23.5539    2.8085    4.6867 O   0  0  0  0  0  0  0  0  0  0  0  0
   -2.7246    2.8156    4.4462 C   0  0  0  0  0  0  0  0  0  0  0  0
  -23.4955    6.2106    6.2235 C   0  0  0  0  0  0  0  0  0  0  0  0
  -24.1402    3.9110    6.8964 O   0  0  0  0  0  0  0  0  0  0  0  0
   -1.5665    2.0631    4.4579 N   0  0  0  0  0  0  0  0  0  0  0  0
   -3.1900    3.2155    5.5416 O   0  0  0  0  0  0  0  0  0  0  0  0
   -0.8126    1.6205    3.3077 C   0  0  1  0  0  0  0  0  0  0  0  0
   -1.1048    1.6822    5.6271 O   0  0  0  0  0  0  0  0  0  0  0  0
    0.6712    2.0777    3.3678 C   0  0  2  0  0  0  0  0  0  0  0  0
    1.4910    1.6773    2.1107 C   0  0  1  0  0  0  0  0  0  0  0  0
    2.9982    2.0260    2.2460 C   0  0  2  0  0  0  0  0  0  0  0  0
    3.8112    1.6519    0.9850 C   0  0  1  0  0  0  0  0  0  0  0  0
    5.2347    1.9558    1.1681 N   0  0  2  0  0  0  0  0  0  0  0  0
  -15.3276    2.3123   -1.8874 H   0  0  0  0  0  0  0  0  0  0  0  0
  -15.0869    3.6363   -3.0217 H   0  0  0  0  0  0  0  0  0  0  0  0
  -14.6543    5.1824   -1.0461 H   0  0  0  0  0  0  0  0  0  0  0  0
  -14.9435    3.8301    0.0433 H   0  0  0  0  0  0  0  0  0  0  0  0
  -10.4886    4.5620   -3.0260 H   0  0  0  0  0  0  0  0  0  0  0  0
  -10.8119    2.8634   -3.3015 H   0  0  0  0  0  0  0  0  0  0  0  0
  -12.8132    5.6587   -2.0384 H   0  0  0  0  0  0  0  0  0  0  0  0
  -10.5551    2.3566   -0.9177 H   0  0  0  0  0  0  0  0  0  0  0  0
  -10.5580    4.0717   -0.5012 H   0  0  0  0  0  0  0  0  0  0  0  0
  -17.0092    3.9583    0.9021 H   0  0  0  0  0  0  0  0  0  0  0  0
   -8.3966    2.7120   -2.2072 H   0  0  0  0  0  0  0  0  0  0  0  0
   -8.4012    4.3921   -1.6560 H   0  0  0  0  0  0  0  0  0  0  0  0
  -18.8311    5.8894    0.2641 H   0  0  0  0  0  0  0  0  0  0  0  0
  -19.3785    4.4091   -0.5542 H   0  0  0  0  0  0  0  0  0  0  0  0
   -8.0640    1.8666    0.0343 H   0  0  0  0  0  0  0  0  0  0  0  0
   -8.4010    3.4434    0.7624 H   0  0  0  0  0  0  0  0  0  0  0  0
  -19.3503    3.1799    1.6081 H   0  0  0  0  0  0  0  0  0  0  0  0
  -18.7413    4.6211    2.4390 H   0  0  0  0  0  0  0  0  0  0  0  0
   -6.3223    4.3744   -0.2918 H   0  0  0  0  0  0  0  0  0  0  0  0
   -5.9643    2.7930   -0.9802 H   0  0  0  0  0  0  0  0  0  0  0  0
  -21.4751    4.3808    1.0843 H   0  0  0  0  0  0  0  0  0  0  0  0
  -20.8655    5.8224    1.9082 H   0  0  0  0  0  0  0  0  0  0  0  0
   -6.1540    3.4446    1.8930 H   0  0  0  0  0  0  0  0  0  0  0  0
  -21.4392    3.0966    3.1788 H   0  0  0  0  0  0  0  0  0  0  0  0
  -20.7021    4.4349    4.0569 H   0  0  0  0  0  0  0  0  0  0  0  0
  -23.4831    4.5668    2.8008 H   0  0  0  0  0  0  0  0  0  0  0  0
  -22.7054    5.8169    3.7485 H   0  0  0  0  0  0  0  0  0  0  0  0
   -3.5336    1.0624    2.6244 H   0  0  0  0  0  0  0  0  0  0  0  0
   -5.0442    1.6253    3.3175 H   0  0  0  0  0  0  0  0  0  0  0  0
   -2.8488    3.6238    2.4935 H   0  0  0  0  0  0  0  0  0  0  0  0
   -4.2699    3.9073    3.4787 H   0  0  0  0  0  0  0  0  0  0  0  0
  -22.7392    2.3776    5.0258 H   0  0  0  0  0  0  0  0  0  0  0  0
  -24.0853    6.7691    5.4963 H   0  0  0  0  0  0  0  0  0  0  0  0
  -22.4431    6.4841    6.1438 H   0  0  0  0  0  0  0  0  0  0  0  0
  -23.8453    6.4789    7.2210 H   0  0  0  0  0  0  0  0  0  0  0  0
   -0.8508    0.5285    3.2668 H   0  0  0  0  0  0  0  0  0  0  0  0
   -1.2337    1.9858    2.3712 H   0  0  0  0  0  0  0  0  0  0  0  0
   -0.4624    2.3761    5.8850 H   0  0  0  0  0  0  0  0  0  0  0  0
    1.1426    1.6344    4.2491 H   0  0  0  0  0  0  0  0  0  0  0  0
    0.6987    3.1648    3.4825 H   0  0  0  0  0  0  0  0  0  0  0  0
    1.3977    0.6000    1.9502 H   0  0  0  0  0  0  0  0  0  0  0  0
    1.0798    2.1886    1.2355 H   0  0  0  0  0  0  0  0  0  0  0  0
    3.4126    1.4861    3.1018 H   0  0  0  0  0  0  0  0  0  0  0  0
    3.1071    3.0981    2.4315 H   0  0  0  0  0  0  0  0  0  0  0  0
    3.7165    0.5841    0.7796 H   0  0  0  0  0  0  0  0  0  0  0  0
    3.4429    2.2113    0.1227 H   0  0  0  0  0  0  0  0  0  0  0  0
    5.3147    2.9633    1.3236 H   0  0  0  0  0  0  0  0  0  0  0  0
    5.6981    1.7568    0.2781 H   0  0  0  0  0  0  0  0  0  0  0  0
  1  2  1  0  0  0  0 
  1  3  1  0  0  0  0 
  1  4  2  0  0  0  0 
  2  5  1  0  0  0  0 
  3  6  1  0  0  0  0 
  3  7  1  0  0  0  0 
  5  8  1  0  0  0  0 
  6  9  1  0  0  0  0 
  8 10  1  0  0  0  0 
  8 11  2  0  0  0  0 
  9 12  1  0  0  0  0 
 10 13  1  0  0  0  0 
 12 14  1  0  0  0  0 
 13 15  1  0  0  0  0 
 14 16  1  0  0  0  0 
 15 17  1  0  0  0  0 
 16 18  1  0  0  0  0 
 17 19  1  0  0  0  0 
 18 20  1  0  0  0  0 
 19 21  1  0  0  0  0 
 20 22  1  0  0  0  0 
 20 23  2  0  0  0  0 
 21 24  1  0  0  0  0 
 22 25  1  0  0  0  0 
 24 26  1  0  0  0  0 
 24 27  1  0  0  0  0 
 25 28  1  0  0  0  0 
 26 29  1  0  0  0  0 
 26 30  2  0  0  0  0 
 28 31  1  0  0  0  0 
 28 32  2  0  0  0  0 
 31 33  1  0  0  0  0 
 31 34  1  0  0  0  0 
 33 35  1  0  0  0  0 
 35 36  1  0  0  0  0 
 36 37  1  0  0  0  0 
 37 38  1  0  0  0  0 
 38 39  1  0  0  0  0 
  2 40  1  0  0  0  0 
  2 41  1  0  0  0  0 
  5 42  1  0  0  0  0 
  5 43  1  0  0  0  0 
  6 44  1  0  0  0  0 
  6 45  1  0  0  0  0 
  7 46  1  0  0  0  0 
  9 47  1  0  0  0  0 
  9 48  1  0  0  0  0 
 10 49  1  0  0  0  0 
 12 50  1  0  0  0  0 
 12 51  1  0  0  0  0 
 13 52  1  0  0  0  0 
 13 53  1  0  0  0  0 
 14 54  1  0  0  0  0 
 14 55  1  0  0  0  0 
 15 56  1  0  0  0  0 
 15 57  1  0  0  0  0 
 16 58  1  0  0  0  0 
 16 59  1  0  0  0  0 
 17 60  1  0  0  0  0 
 17 61  1  0  0  0  0 
 18 62  1  0  0  0  0 
 19 63  1  0  0  0  0 
 19 64  1  0  0  0  0 
 21 65  1  0  0  0  0 
 21 66  1  0  0  0  0 
 22 67  1  0  0  0  0 
 22 68  1  0  0  0  0 
 25 69  1  0  0  0  0 
 25 70  1  0  0  0  0 
 27 71  1  0  0  0  0 
 29 72  1  0  0  0  0 
 29 73  1  0  0  0  0 
 29 74  1  0  0  0  0 
 33 75  1  0  0  0  0 
 33 76  1  0  0  0  0 
 34 77  1  0  0  0  0 
 35 78  1  0  0  0  0 
 35 79  1  0  0  0  0 
 36 80  1  0  0  0  0 
 36 81  1  0  0  0  0 
 37 82  1  0  0  0  0 
 37 83  1  0  0  0  0 
 38 84  1  0  0  0  0 
 38 85  1  0  0  0  0 
 39 86  1  0  0  0  0 
 39 87  1  0  0  0  0 
M  END
> <cdk:Title>
deferoxamine

> <Conformer>
1

> <SuperDrugID>
SD000698

$$$$
