eosin
  CDK     0628171801

 37 41  0  0  0  0  0  0  0  0999 V2000
   -5.9187    1.8706    2.7658 O   0  0  0  0  0  0  0  0  0  0  0  0
   -4.7132    1.8791    2.4299 C   0  0  0  0  0  0  0  0  0  0  0  0
   -3.6650    2.0713    3.2754 O   0  0  0  0  0  0  0  0  0  0  0  0
   -4.2244    1.6975    1.1479 C   0  0  0  0  0  0  0  0  0  0  0  0
   -2.3909    2.0509    2.5936 C   0  0  2  0  0  0  0  0  0  0  0  0
   -2.8320    1.7704    1.2052 C   0  0  0  0  0  0  0  0  0  0  0  0
   -4.9000    1.4747   -0.0652 C   0  0  0  0  0  0  0  0  0  0  0  0
   -1.5351    0.9421    3.1284 C   0  0  0  0  0  0  0  0  0  0  0  0
   -1.7629    3.4089    2.6933 C   0  0  0  0  0  0  0  0  0  0  0  0
   -2.0626    1.5874    0.0381 C   0  0  0  0  0  0  0  0  0  0  0  0
   -4.1357    1.3016   -1.2380 C   0  0  0  0  0  0  0  0  0  0  0  0
   -0.2272    1.2225    3.6041 C   0  0  0  0  0  0  0  0  0  0  0  0
   -1.9890   -0.3986    3.1539 C   0  0  0  0  0  0  0  0  0  0  0  0
   -0.4436    3.5483    3.1958 C   0  0  0  0  0  0  0  0  0  0  0  0
   -2.4554    4.5754    2.2872 C   0  0  0  0  0  0  0  0  0  0  0  0
   -2.7245    1.3487   -1.1852 C   0  0  0  0  0  0  0  0  0  0  0  0
    0.3054    2.4854    3.6288 O   0  0  0  0  0  0  0  0  0  0  0  0
    0.6054    0.1799    4.0652 C   0  0  0  0  0  0  0  0  0  0  0  0
   -1.1511   -1.4401    3.5911 C   0  0  0  0  0  0  0  0  0  0  0  0
    0.1630    4.8212    3.2698 C   0  0  0  0  0  0  0  0  0  0  0  0
   -1.8516    5.8425    2.3592 C   0  0  0  0  0  0  0  0  0  0  0  0
    2.3247    0.5520    4.6863 Br  0  0  0  0  0  0  0  0  0  0  0  0
    0.1475   -1.1509    4.0498 C   0  0  0  0  0  0  0  0  0  0  0  0
   -1.7724   -3.1955    3.5410 Br  0  0  0  0  0  0  0  0  0  0  0  0
    1.9059    4.9950    3.9103 Br  0  0  0  0  0  0  0  0  0  0  0  0
   -0.5430    5.9695    2.8639 C   0  0  0  0  0  0  0  0  0  0  0  0
   -2.8013    7.3309    1.7649 Br  0  0  0  0  0  0  0  0  0  0  0  0
    0.9567   -2.1528    4.4697 O   0  0  0  0  0  0  0  0  0  0  0  0
    0.0402    7.1896    2.9673 O   0  0  0  0  0  0  0  0  0  0  0  0
   -5.9209    1.4380   -0.0982 H   0  0  0  0  0  0  0  0  0  0  0  0
   -1.0430    1.6249    0.0751 H   0  0  0  0  0  0  0  0  0  0  0  0
   -4.6086    1.1393   -2.1306 H   0  0  0  0  0  0  0  0  0  0  0  0
   -2.9322   -0.6280    2.8365 H   0  0  0  0  0  0  0  0  0  0  0  0
   -3.4090    4.5089    1.9284 H   0  0  0  0  0  0  0  0  0  0  0  0
   -2.1805    1.2110   -2.0400 H   0  0  0  0  0  0  0  0  0  0  0  0
    1.3484   -2.5096    3.6453 H   0  0  0  0  0  0  0  0  0  0  0  0
   -0.6834    7.7960    3.2286 H   0  0  0  0  0  0  0  0  0  0  0  0
  1  2  2  0  0  0  0 
  2  3  1  0  0  0  0 
  2  4  1  0  0  0  0 
  3  5  1  0  0  0  0 
  4  6  2  0  0  0  0 
  4  7  1  0  0  0  0 
  5  6  1  0  0  0  0 
  5  8  1  0  0  0  0 
  5  9  1  0  0  0  0 
  6 10  1  0  0  0  0 
  7 11  2  0  0  0  0 
  8 12  2  0  0  0  0 
  8 13  1  0  0  0  0 
  9 14  2  0  0  0  0 
  9 15  1  0  0  0  0 
 10 16  2  0  0  0  0 
 11 16  1  0  0  0  0 
 12 17  1  0  0  0  0 
 12 18  1  0  0  0  0 
 13 19  2  0  0  0  0 
 14 17  1  0  0  0  0 
 14 20  1  0  0  0  0 
 15 21  2  0  0  0  0 
 18 22  1  0  0  0  0 
 18 23  2  0  0  0  0 
 19 23  1  0  0  0  0 
 19 24  1  0  0  0  0 
 20 25  1  0  0  0  0 
 20 26  2  0  0  0  0 
 21 26  1  0  0  0  0 
 21 27  1  0  0  0  0 
 23 28  1  0  0  0  0 
 26 29  1  0  0  0  0 
  7 30  1  0  0  0  0 
 10 31  1  0  0  0  0 
 11 32  1  0  0  0  0 
 13 33  1  0  0  0  0 
 15 34  1  0  0  0  0 
 16 35  1  0  0  0  0 
 28 36  1  0  0  0  0 
 29 37  1  0  0  0  0 
M  END
> <cdk:Title>
eosin

> <Conformer>
1

> <SuperDrugID>
SD003582

$$$$
