lamivudine
  CDK     0628171801

 26 27  0  0  0  0  0  0  0  0999 V2000
   -3.6865   -6.8732   -1.8533 N   0  0  0  0  0  0  0  0  0  0  0  0
   -2.5161   -6.2568   -1.6164 C   0  0  0  0  0  0  0  0  0  0  0  0
   -1.9683   -6.3323   -0.3809 N   0  0  0  0  0  0  0  0  0  0  0  0
   -0.7993   -5.7171   -0.0726 C   0  0  0  0  0  0  0  0  0  0  0  0
   -0.3995   -5.8579    1.1067 O   0  0  0  0  0  0  0  0  0  0  0  0
   -0.1219   -4.9733   -1.0126 N   0  0  0  0  0  0  0  0  0  0  0  0
   -0.6424   -4.8981   -2.2813 C   0  0  0  0  0  0  0  0  0  0  0  0
   -1.8497   -5.5343   -2.6189 C   0  0  0  0  0  0  0  0  0  0  0  0
    1.0859   -4.2474   -0.6527 C   0  0  2  0  0  0  0  0  0  0  0  0
    0.7112   -2.9956    0.1816 C   0  0  2  0  0  0  0  0  0  0  0  0
    2.2345   -2.0156    0.0746 S   0  0  0  0  0  0  0  0  0  0  0  0
    2.8981   -2.8646   -1.3987 C   0  0  2  0  0  0  0  0  0  0  0  0
    3.1787   -1.8724   -2.5450 C   0  0  2  0  0  0  0  0  0  0  0  0
    1.9770   -1.2398   -2.9766 O   0  0  0  0  0  0  0  0  0  0  0  0
    1.8758   -3.8031   -1.7850 O   0  0  0  0  0  0  0  0  0  0  0  0
   -4.0885   -6.8381   -2.7357 H   0  0  0  0  0  0  0  0  0  0  0  0
   -4.1323   -7.3555   -1.1385 H   0  0  0  0  0  0  0  0  0  0  0  0
   -0.1725   -4.3644   -3.0164 H   0  0  0  0  0  0  0  0  0  0  0  0
   -2.2323   -5.4588   -3.5649 H   0  0  0  0  0  0  0  0  0  0  0  0
    1.7375   -4.9087   -0.0673 H   0  0  0  0  0  0  0  0  0  0  0  0
    0.4674   -3.2290    1.2195 H   0  0  0  0  0  0  0  0  0  0  0  0
   -0.1037   -2.4432   -0.2936 H   0  0  0  0  0  0  0  0  0  0  0  0
    3.8095   -3.4035   -1.1241 H   0  0  0  0  0  0  0  0  0  0  0  0
    3.6155   -2.4044   -3.3928 H   0  0  0  0  0  0  0  0  0  0  0  0
    3.8786   -1.1047   -2.2087 H   0  0  0  0  0  0  0  0  0  0  0  0
    2.2562   -0.6069   -3.6689 H   0  0  0  0  0  0  0  0  0  0  0  0
  1  2  1  0  0  0  0 
  2  3  2  0  0  0  0 
  3  4  1  0  0  0  0 
  4  5  2  0  0  0  0 
  4  6  1  0  0  0  0 
  6  7  1  0  0  0  0 
  7  8  2  0  0  0  0 
  2  8  1  0  0  0  0 
  9  6  1  0  0  0  0 
  9 10  1  0  0  0  0 
 10 11  1  0  0  0  0 
 11 12  1  0  0  0  0 
 12 13  1  0  0  0  0 
 13 14  1  0  0  0  0 
 12 15  1  0  0  0  0 
  9 15  1  0  0  0  0 
  1 16  1  0  0  0  0 
  1 17  1  0  0  0  0 
  7 18  1  0  0  0  0 
  8 19  1  0  0  0  0 
  9 20  1  0  0  0  0 
 10 21  1  0  0  0  0 
 10 22  1  0  0  0  0 
 12 23  1  0  0  0  0 
 13 24  1  0  0  0  0 
 13 25  1  0  0  0  0 
 14 26  1  0  0  0  0 
M  END
> <cdk:Title>
lamivudine

> <Conformer>
1

> <SuperDrugID>
SD001361

$$$$
