mifepristone
  CDK     0628171801

 67 71  0  0  0  0  0  0  0  0999 V2000
   -6.9420    0.1191   -0.1848 C   0  0  0  0  0  0  0  0  0  0  0  0
   -6.7827   -0.5576   -1.6061 C   0  0  1  0  0  0  0  0  0  0  0  0
   -5.3281   -0.9860   -1.9918 C   0  0  2  0  0  0  0  0  0  0  0  0
   -7.6332   -1.8825   -1.6354 C   0  0  2  0  0  0  0  0  0  0  0  0
   -7.0587    0.5518   -2.6987 C   0  0  1  0  0  0  0  0  0  0  0  0
   -4.7474   -2.0801   -1.0325 C   0  0  1  0  0  0  0  0  0  0  0  0
   -4.6013    0.3616   -2.1946 C   0  0  1  0  0  0  0  0  0  0  0  0
   -7.0712   -3.0416   -0.7144 C   0  0  1  0  0  0  0  0  0  0  0  0
   -7.5077    0.0600   -3.9106 C   0  0  0  0  0  0  0  0  0  0  0  0
   -8.0751    1.4846   -2.3056 O   0  0  0  0  0  0  0  0  0  0  0  0
   -5.6765    1.2780   -2.8391 C   0  0  1  0  0  0  0  0  0  0  0  0
   -5.6360   -3.2932   -1.0823 C   0  0  0  0  0  0  0  0  0  0  0  0
   -3.2367   -2.3868   -1.2728 C   0  0  1  0  0  0  0  0  0  0  0  0
   -7.3609   -2.9054    0.7638 C   0  0  0  0  0  0  0  0  0  0  0  0
   -7.9269   -0.3744   -4.9420 C   0  0  0  0  0  0  0  0  0  0  0  0
   -5.1481   -4.5193   -1.4646 C   0  0  0  0  0  0  0  0  0  0  0  0
   -3.0919   -3.4685   -2.3536 C   0  0  1  0  0  0  0  0  0  0  0  0
   -8.6782   -2.6076    1.1953 C   0  0  0  0  0  0  0  0  0  0  0  0
   -6.3810   -3.0755    1.7777 C   0  0  0  0  0  0  0  0  0  0  0  0
   -8.4319   -0.8863   -6.1005 C   0  0  0  0  0  0  0  0  0  0  0  0
   -3.8252   -4.6576   -1.9086 C   0  0  0  0  0  0  0  0  0  0  0  0
   -5.9712   -5.7529   -1.3604 C   0  0  2  0  0  0  0  0  0  0  0  0
   -8.9737   -2.3671    2.5470 C   0  0  0  0  0  0  0  0  0  0  0  0
   -6.6743   -2.8350    3.1334 C   0  0  0  0  0  0  0  0  0  0  0  0
   -3.1894   -5.8527   -1.9306 C   0  0  0  0  0  0  0  0  0  0  0  0
   -5.2997   -7.0872   -1.8006 C   0  0  1  0  0  0  0  0  0  0  0  0
   -7.9700   -2.4440    3.5373 C   0  0  0  0  0  0  0  0  0  0  0  0
   -3.8368   -7.0339   -1.6429 C   0  0  0  0  0  0  0  0  0  0  0  0
   -8.2513   -2.1472    4.8537 N   0  0  0  0  0  0  0  0  0  0  0  0
   -3.1871   -8.0632   -1.3429 O   0  0  0  0  0  0  0  0  0  0  0  0
   -9.3427   -2.7930    5.5379 C   0  0  0  0  0  0  0  0  0  0  0  0
   -7.4687   -1.1798    5.5886 C   0  0  0  0  0  0  0  0  0  0  0  0
   -6.4654   -0.4330    0.6139 H   0  0  0  0  0  0  0  0  0  0  0  0
   -7.9996    0.2113    0.0724 H   0  0  0  0  0  0  0  0  0  0  0  0
   -6.5103    1.1190   -0.1529 H   0  0  0  0  0  0  0  0  0  0  0  0
   -5.3439   -1.4505   -2.9875 H   0  0  0  0  0  0  0  0  0  0  0  0
   -7.6476   -2.2789   -2.6567 H   0  0  0  0  0  0  0  0  0  0  0  0
   -8.6749   -1.6502   -1.4093 H   0  0  0  0  0  0  0  0  0  0  0  0
   -4.7627   -1.6681   -0.0252 H   0  0  0  0  0  0  0  0  0  0  0  0
   -4.2623    0.7637   -1.2359 H   0  0  0  0  0  0  0  0  0  0  0  0
   -3.7366    0.2604   -2.8537 H   0  0  0  0  0  0  0  0  0  0  0  0
   -7.6981   -3.8871   -0.9922 H   0  0  0  0  0  0  0  0  0  0  0  0
   -8.0358    2.2117   -2.9633 H   0  0  0  0  0  0  0  0  0  0  0  0
   -5.4147    1.4876   -3.8841 H   0  0  0  0  0  0  0  0  0  0  0  0
   -5.6886    2.2361   -2.3103 H   0  0  0  0  0  0  0  0  0  0  0  0
   -2.6751   -1.4956   -1.5580 H   0  0  0  0  0  0  0  0  0  0  0  0
   -2.7871   -2.7579   -0.3442 H   0  0  0  0  0  0  0  0  0  0  0  0
   -3.5213   -3.1132   -3.2951 H   0  0  0  0  0  0  0  0  0  0  0  0
   -2.0264   -3.6486   -2.5322 H   0  0  0  0  0  0  0  0  0  0  0  0
   -9.4458   -2.5485    0.5248 H   0  0  0  0  0  0  0  0  0  0  0  0
   -5.4325   -3.3722    1.5463 H   0  0  0  0  0  0  0  0  0  0  0  0
   -9.4071   -1.3290   -5.8986 H   0  0  0  0  0  0  0  0  0  0  0  0
   -8.5426   -0.0931   -6.8393 H   0  0  0  0  0  0  0  0  0  0  0  0
   -7.7616   -1.6543   -6.4863 H   0  0  0  0  0  0  0  0  0  0  0  0
   -6.8744   -5.6607   -1.9689 H   0  0  0  0  0  0  0  0  0  0  0  0
   -6.2722   -5.8707   -0.3140 H   0  0  0  0  0  0  0  0  0  0  0  0
   -9.9312   -2.1214    2.8082 H   0  0  0  0  0  0  0  0  0  0  0  0
   -5.9305   -2.9513    3.8283 H   0  0  0  0  0  0  0  0  0  0  0  0
   -2.2255   -5.9057   -2.1758 H   0  0  0  0  0  0  0  0  0  0  0  0
   -5.7154   -7.9300   -1.2417 H   0  0  0  0  0  0  0  0  0  0  0  0
   -5.5057   -7.2624   -2.8610 H   0  0  0  0  0  0  0  0  0  0  0  0
   -8.9718   -3.2929    6.4352 H   0  0  0  0  0  0  0  0  0  0  0  0
   -9.8407   -3.5524    4.9265 H   0  0  0  0  0  0  0  0  0  0  0  0
  -10.0855   -2.0459    5.8281 H   0  0  0  0  0  0  0  0  0  0  0  0
   -8.0882   -0.3096    5.8170 H   0  0  0  0  0  0  0  0  0  0  0  0
   -7.1149   -1.6074    6.5294 H   0  0  0  0  0  0  0  0  0  0  0  0
   -6.5925   -0.8255    5.0378 H   0  0  0  0  0  0  0  0  0  0  0  0
  2  1  1  0  0  0  0 
  2  3  1  0  0  0  0 
  2  4  1  0  0  0  0 
  2  5  1  0  0  0  0 
  3  6  1  0  0  0  0 
  3  7  1  0  0  0  0 
  8  4  1  0  0  0  0 
  5  9  1  0  0  0  0 
  5 10  1  0  0  0  0 
  5 11  1  0  0  0  0 
  6 12  1  0  0  0  0 
  6 13  1  0  0  0  0 
  7 11  1  0  0  0  0 
  8 12  1  0  0  0  0 
  8 14  1  0  0  0  0 
  9 15  3  0  0  0  0 
 12 16  2  0  0  0  0 
 13 17  1  0  0  0  0 
 14 18  2  0  0  0  0 
 14 19  1  0  0  0  0 
 15 20  1  0  0  0  0 
 16 21  1  0  0  0  0 
 16 22  1  0  0  0  0 
 17 21  1  0  0  0  0 
 18 23  1  0  0  0  0 
 19 24  2  0  0  0  0 
 21 25  2  0  0  0  0 
 22 26  1  0  0  0  0 
 23 27  2  0  0  0  0 
 24 27  1  0  0  0  0 
 25 28  1  0  0  0  0 
 26 28  1  0  0  0  0 
 27 29  1  0  0  0  0 
 28 30  2  0  0  0  0 
 29 31  1  0  0  0  0 
 29 32  1  0  0  0  0 
 33  1  1  0  0  0  0 
 34  1  1  0  0  0  0 
 35  1  1  0  0  0  0 
  3 36  1  0  0  0  0 
 37  4  1  0  0  0  0 
 38  4  1  0  0  0  0 
  6 39  1  0  0  0  0 
 40  7  1  0  0  0  0 
 41  7  1  0  0  0  0 
  8 42  1  0  0  0  0 
 43 10  1  0  0  0  0 
 44 11  1  0  0  0  0 
 45 11  1  0  0  0  0 
 46 13  1  0  0  0  0 
 47 13  1  0  0  0  0 
 48 17  1  0  0  0  0 
 49 17  1  0  0  0  0 
 50 18  1  0  0  0  0 
 51 19  1  0  0  0  0 
 52 20  1  0  0  0  0 
 53 20  1  0  0  0  0 
 54 20  1  0  0  0  0 
 55 22  1  0  0  0  0 
 56 22  1  0  0  0  0 
 57 23  1  0  0  0  0 
 58 24  1  0  0  0  0 
 59 25  1  0  0  0  0 
 60 26  1  0  0  0  0 
 61 26  1  0  0  0  0 
 62 31  1  0  0  0  0 
 63 31  1  0  0  0  0 
 64 31  1  0  0  0  0 
 65 32  1  0  0  0  0 
 66 32  1  0  0  0  0 
 67 32  1  0  0  0  0 
M  END
> <cdk:Title>
mifepristone

> <Conformer>
1

> <SuperDrugID>
SD001604

$$$$
