lafutidine
  CDK     0628171801

 59 61  0  0  0  0  0  0  0  0999 V2000
    6.8129   -1.5072    1.1608 C   0  0  1  0  0  0  0  0  0  0  0  0
    7.2672   -2.4987    0.0580 C   0  0  2  0  0  0  0  0  0  0  0  0
    6.2937   -3.7019   -0.0522 C   0  0  2  0  0  0  0  0  0  0  0  0
    4.8843   -3.2446   -0.2516 N   0  0  0  0  0  0  0  0  0  0  0  0
    4.4179   -2.3273    0.8383 C   0  0  2  0  0  0  0  0  0  0  0  0
    5.3331   -1.0826    0.9811 C   0  0  1  0  0  0  0  0  0  0  0  0
    4.4168   -3.0750   -1.6747 C   0  0  1  0  0  0  0  0  0  0  0  0
    3.6858   -1.8226   -2.0150 C   0  0  0  0  0  0  0  0  0  0  0  0
    2.2997   -1.7135   -1.7629 C   0  0  0  0  0  0  0  0  0  0  0  0
    1.6364   -0.4917   -1.9873 C   0  0  0  0  0  0  0  0  0  0  0  0
    2.3248    0.5549   -2.5125 N   0  0  0  0  0  0  0  0  0  0  0  0
    3.6451    0.4786   -2.8190 C   0  0  0  0  0  0  0  0  0  0  0  0
    4.3565   -0.7095   -2.5726 C   0  0  0  0  0  0  0  0  0  0  0  0
    0.3142   -0.3580   -1.6600 O   0  0  0  0  0  0  0  0  0  0  0  0
    0.1322   -0.0061   -0.2706 C   0  0  1  0  0  0  0  0  0  0  0  0
   -0.6625   -3.0027    0.4567 N   0  0  0  0  0  0  0  0  0  0  0  0
   -0.2252   -4.2879    0.3505 C   0  0  0  0  0  0  0  0  0  0  0  0
    1.0591   -4.6856    0.9566 C   0  0  1  0  0  0  0  0  0  0  0  0
    1.1951   -4.3477    2.7515 S   0  0  1  0  0  0  0  0  0  0  0  0
    0.1586   -5.5836    3.6176 C   0  0  2  0  0  0  0  0  0  0  0  0
    0.3987   -5.4926    5.0684 C   0  0  0  0  0  0  0  0  0  0  0  0
    0.9102   -6.4917    5.8957 C   0  0  0  0  0  0  0  0  0  0  0  0
    0.9797   -5.9666    7.1760 C   0  0  0  0  0  0  0  0  0  0  0  0
    0.5091   -4.6636    7.0956 C   0  0  0  0  0  0  0  0  0  0  0  0
    0.1593   -4.3865    5.8169 O   0  0  0  0  0  0  0  0  0  0  0  0
   -1.2748   -0.0195    0.0912 C   0  0  0  0  0  0  0  0  0  0  0  0
   -2.0905   -1.0916    0.1084 C   0  0  0  0  0  0  0  0  0  0  0  0
   -1.7586   -2.4534   -0.2841 C   0  0  1  0  0  0  0  0  0  0  0  0
   -0.8663   -5.1373   -0.3133 O   0  0  0  0  0  0  0  0  0  0  0  0
    2.7044   -4.7508    3.1146 O   0  0  0  0  0  0  0  0  0  0  0  0
    6.9344   -1.9768    2.1408 H   0  0  0  0  0  0  0  0  0  0  0  0
    7.4509   -0.6210    1.1374 H   0  0  0  0  0  0  0  0  0  0  0  0
    8.2700   -2.8643    0.2917 H   0  0  0  0  0  0  0  0  0  0  0  0
    7.3126   -1.9760   -0.9019 H   0  0  0  0  0  0  0  0  0  0  0  0
    6.3415   -4.2905    0.8690 H   0  0  0  0  0  0  0  0  0  0  0  0
    6.6157   -4.3596   -0.8637 H   0  0  0  0  0  0  0  0  0  0  0  0
    4.4263   -2.8791    1.7816 H   0  0  0  0  0  0  0  0  0  0  0  0
    3.3876   -2.0112    0.6918 H   0  0  0  0  0  0  0  0  0  0  0  0
    5.0141   -0.4943    1.8456 H   0  0  0  0  0  0  0  0  0  0  0  0
    5.2440   -0.4465    0.0975 H   0  0  0  0  0  0  0  0  0  0  0  0
    5.2485   -3.1834   -2.3769 H   0  0  0  0  0  0  0  0  0  0  0  0
    3.7608   -3.9224   -1.8861 H   0  0  0  0  0  0  0  0  0  0  0  0
    1.7752   -2.5068   -1.3903 H   0  0  0  0  0  0  0  0  0  0  0  0
    4.1184    1.2894   -3.2205 H   0  0  0  0  0  0  0  0  0  0  0  0
    5.3546   -0.7507   -2.7890 H   0  0  0  0  0  0  0  0  0  0  0  0
    0.6662   -0.6886    0.3973 H   0  0  0  0  0  0  0  0  0  0  0  0
    0.5370    0.9972   -0.0920 H   0  0  0  0  0  0  0  0  0  0  0  0
   -0.1643   -2.4093    1.0429 H   0  0  0  0  0  0  0  0  0  0  0  0
    1.2553   -5.7468    0.7890 H   0  0  0  0  0  0  0  0  0  0  0  0
    1.8449   -4.1214    0.4558 H   0  0  0  0  0  0  0  0  0  0  0  0
    0.4093   -6.5805    3.2497 H   0  0  0  0  0  0  0  0  0  0  0  0
   -0.8940   -5.3821    3.4104 H   0  0  0  0  0  0  0  0  0  0  0  0
    1.1860   -7.4348    5.6184 H   0  0  0  0  0  0  0  0  0  0  0  0
    1.3131   -6.4445    8.0156 H   0  0  0  0  0  0  0  0  0  0  0  0
    0.4373   -4.0115    7.8778 H   0  0  0  0  0  0  0  0  0  0  0  0
   -1.6737    0.8506    0.3657 H   0  0  0  0  0  0  0  0  0  0  0  0
   -3.0279   -0.9302    0.4045 H   0  0  0  0  0  0  0  0  0  0  0  0
   -1.5232   -2.4674   -1.3525 H   0  0  0  0  0  0  0  0  0  0  0  0
   -2.6401   -3.0867   -0.1411 H   0  0  0  0  0  0  0  0  0  0  0  0
  1  2  1  0  0  0  0 
  2  3  1  0  0  0  0 
  3  4  1  0  0  0  0 
  4  5  1  0  0  0  0 
  5  6  1  0  0  0  0 
  6  1  1  0  0  0  0 
  4  7  1  0  0  0  0 
  7  8  1  0  0  0  0 
  8  9  2  0  0  0  0 
  9 10  1  0  0  0  0 
 10 11  2  0  0  0  0 
 11 12  1  0  0  0  0 
 12 13  2  0  0  0  0 
 13  8  1  0  0  0  0 
 10 14  1  0  0  0  0 
 14 15  1  0  0  0  0 
 16 17  1  0  0  0  0 
 17 18  1  0  0  0  0 
 19 18  1  0  0  0  0 
 19 20  1  0  0  0  0 
 20 21  1  0  0  0  0 
 21 22  2  0  0  0  0 
 22 23  1  0  0  0  0 
 23 24  2  0  0  0  0 
 24 25  1  0  0  0  0 
 25 21  1  0  0  0  0 
 15 26  1  0  0  0  0 
 26 27  2  0  0  0  0 
 27 28  1  0  0  0  0 
 16 28  1  0  0  0  0 
 17 29  2  0  0  0  0 
 19 30  2  0  0  0  0 
  1 31  1  0  0  0  0 
  1 32  1  0  0  0  0 
  2 33  1  0  0  0  0 
  2 34  1  0  0  0  0 
  3 35  1  0  0  0  0 
  3 36  1  0  0  0  0 
  5 37  1  0  0  0  0 
  5 38  1  0  0  0  0 
  6 39  1  0  0  0  0 
  6 40  1  0  0  0  0 
  7 41  1  0  0  0  0 
  7 42  1  0  0  0  0 
  9 43  1  0  0  0  0 
 12 44  1  0  0  0  0 
 13 45  1  0  0  0  0 
 15 46  1  0  0  0  0 
 15 47  1  0  0  0  0 
 16 48  1  0  0  0  0 
 18 49  1  0  0  0  0 
 18 50  1  0  0  0  0 
 20 51  1  0  0  0  0 
 20 52  1  0  0  0  0 
 22 53  1  0  0  0  0 
 23 54  1  0  0  0  0 
 24 55  1  0  0  0  0 
 26 56  1  0  0  0  0 
 27 57  1  0  0  0  0 
 28 58  1  0  0  0  0 
 28 59  1  0  0  0  0 
M  END
> <cdk:Title>
lafutidine

> <Conformer>
1

> <SuperDrugID>
SD001360

$$$$
