doxofylline
  CDK     0628171802

 33 35  0  0  0  0  0  0  0  0999 V2000
   -0.3962    1.2500   -1.4066 C   0  0  2  0  0  0  0  0  0  0  0  0
   -1.6102    1.0561   -2.1550 N   0  0  0  0  0  0  0  0  0  0  0  0
    0.0185   -0.0090   -0.6081 C   0  0  2  0  0  0  0  0  0  0  0  0
   -1.7783    0.5723   -3.4045 C   0  0  0  0  0  0  0  0  0  0  0  0
   -2.8483    1.3372   -1.6962 C   0  0  0  0  0  0  0  0  0  0  0  0
    0.2701   -1.1320   -1.4625 O   0  0  0  0  0  0  0  0  0  0  0  0
   -0.9959   -0.3612    0.3434 O   0  0  0  0  0  0  0  0  0  0  0  0
   -3.1405    0.5638   -3.6837 C   0  0  0  0  0  0  0  0  0  0  0  0
   -0.8905    0.1084   -4.3906 C   0  0  0  0  0  0  0  0  0  0  0  0
   -3.7875    1.0467   -2.6110 N   0  0  0  0  0  0  0  0  0  0  0  0
   -0.0208   -2.2566   -0.6408 C   0  0  2  0  0  0  0  0  0  0  0  0
   -1.2064   -1.7621    0.1894 C   0  0  2  0  0  0  0  0  0  0  0  0
   -3.6464    0.1113   -4.8666 N   0  0  0  0  0  0  0  0  0  0  0  0
    0.3375    0.1135   -4.1388 O   0  0  0  0  0  0  0  0  0  0  0  0
   -1.3883   -0.3403   -5.5950 N   0  0  0  0  0  0  0  0  0  0  0  0
   -5.0778    0.1065   -5.0741 C   0  0  0  0  0  0  0  0  0  0  0  0
   -2.7561   -0.3589   -5.8083 C   0  0  0  0  0  0  0  0  0  0  0  0
   -0.4703   -0.8159   -6.6134 C   0  0  0  0  0  0  0  0  0  0  0  0
   -3.2083   -0.8238   -6.8848 O   0  0  0  0  0  0  0  0  0  0  0  0
   -0.5334    2.0707   -0.6951 H   0  0  0  0  0  0  0  0  0  0  0  0
    0.4182    1.5560   -2.0682 H   0  0  0  0  0  0  0  0  0  0  0  0
    0.9354    0.2200   -0.0580 H   0  0  0  0  0  0  0  0  0  0  0  0
   -3.0603    1.7158   -0.7712 H   0  0  0  0  0  0  0  0  0  0  0  0
    0.8346   -2.5013   -0.0011 H   0  0  0  0  0  0  0  0  0  0  0  0
   -0.2836   -3.1266   -1.2456 H   0  0  0  0  0  0  0  0  0  0  0  0
   -2.1464   -1.9302   -0.3441 H   0  0  0  0  0  0  0  0  0  0  0  0
   -1.2484   -2.2535    1.1629 H   0  0  0  0  0  0  0  0  0  0  0  0
   -5.3390    0.2738   -6.1205 H   0  0  0  0  0  0  0  0  0  0  0  0
   -5.5828    0.8893   -4.5037 H   0  0  0  0  0  0  0  0  0  0  0  0
   -5.4785   -0.8600   -4.7642 H   0  0  0  0  0  0  0  0  0  0  0  0
   -0.3083   -1.8857   -6.4755 H   0  0  0  0  0  0  0  0  0  0  0  0
   -0.8471   -0.6483   -7.6238 H   0  0  0  0  0  0  0  0  0  0  0  0
    0.4974   -0.3130   -6.5726 H   0  0  0  0  0  0  0  0  0  0  0  0
  1  2  1  0  0  0  0 
  1  3  1  0  0  0  0 
  2  4  1  0  0  0  0 
  2  5  1  0  0  0  0 
  3  6  1  0  0  0  0 
  3  7  1  0  0  0  0 
  4  8  2  0  0  0  0 
  4  9  1  0  0  0  0 
  5 10  2  0  0  0  0 
  6 11  1  0  0  0  0 
  7 12  1  0  0  0  0 
  8 10  1  0  0  0  0 
  8 13  1  0  0  0  0 
  9 14  2  0  0  0  0 
  9 15  1  0  0  0  0 
 11 12  1  0  0  0  0 
 13 16  1  0  0  0  0 
 13 17  1  0  0  0  0 
 15 17  1  0  0  0  0 
 15 18  1  0  0  0  0 
 17 19  2  0  0  0  0 
  1 20  1  0  0  0  0 
  1 21  1  0  0  0  0 
  3 22  1  0  0  0  0 
  5 23  1  0  0  0  0 
 11 24  1  0  0  0  0 
 11 25  1  0  0  0  0 
 12 26  1  0  0  0  0 
 12 27  1  0  0  0  0 
 16 28  1  0  0  0  0 
 16 29  1  0  0  0  0 
 16 30  1  0  0  0  0 
 18 31  1  0  0  0  0 
 18 32  1  0  0  0  0 
 18 33  1  0  0  0  0 
M  END
> <cdk:Title>
doxofylline

> <Conformer>
1

> <SuperDrugID>
SD000851

$$$$
