benazepril
  CDK     0628171801

 59 61  0  0  0  0  0  0  0  0999 V2000
   -2.2217    3.3591    5.6393 C   0  0  1  0  0  0  0  0  0  0  0  0
   -1.9420    1.9073    5.5953 C   0  0  0  0  0  0  0  0  0  0  0  0
   -1.4791    4.0606    4.5955 N   0  0  0  0  0  0  0  0  0  0  0  0
   -2.8639    1.0167    5.1608 O   0  0  0  0  0  0  0  0  0  0  0  0
   -0.8245    1.4710    5.9522 O   0  0  0  0  0  0  0  0  0  0  0  0
   -0.4434    4.9157    4.9541 C   0  0  0  0  0  0  0  0  0  0  0  0
   -1.8330    3.8242    3.2745 C   0  0  0  0  0  0  0  0  0  0  0  0
    0.8971    4.8592    4.4567 C   0  0  0  0  0  0  0  0  0  0  0  0
   -0.7639    5.9305    5.8972 C   0  0  0  0  0  0  0  0  0  0  0  0
   -3.0009    3.4526    2.9972 O   0  0  0  0  0  0  0  0  0  0  0  0
   -0.8663    3.8042    2.1504 C   0  0  1  0  0  0  0  0  0  0  0  0
    1.4103    3.9108    3.4198 C   0  0  2  0  0  0  0  0  0  0  0  0
    1.8557    5.7735    4.9697 C   0  0  0  0  0  0  0  0  0  0  0  0
    0.1933    6.8379    6.3720 C   0  0  0  0  0  0  0  0  0  0  0  0
   -0.5706    5.1561    1.5889 N   0  0  2  0  0  0  0  0  0  0  0  0
    0.4107    3.0472    2.6125 C   0  0  1  0  0  0  0  0  0  0  0  0
    1.5127    6.7506    5.9167 C   0  0  0  0  0  0  0  0  0  0  0  0
   -1.4635    5.6396    0.4940 C   0  0  1  0  0  0  0  0  0  0  0  0
   -1.1980    7.1428    0.1649 C   0  0  2  0  0  0  0  0  0  0  0  0
   -1.3075    4.8433   -0.7517 C   0  0  0  0  0  0  0  0  0  0  0  0
   -1.3162    8.1374    1.3536 C   0  0  2  0  0  0  0  0  0  0  0  0
   -0.2096    4.0476   -0.9230 O   0  0  0  0  0  0  0  0  0  0  0  0
   -2.1873    4.9149   -1.6437 O   0  0  0  0  0  0  0  0  0  0  0  0
   -2.6246    8.0830    2.0619 C   0  0  0  0  0  0  0  0  0  0  0  0
    0.0517    3.1764   -2.0286 C   0  0  1  0  0  0  0  0  0  0  0  0
   -3.8229    8.4522    1.4067 C   0  0  0  0  0  0  0  0  0  0  0  0
   -2.6966    7.6553    3.4064 C   0  0  0  0  0  0  0  0  0  0  0  0
    1.3909    2.4487   -1.8176 C   0  0  0  0  0  0  0  0  0  0  0  0
   -5.0610    8.3613    2.0696 C   0  0  0  0  0  0  0  0  0  0  0  0
   -3.9317    7.5573    4.0707 C   0  0  0  0  0  0  0  0  0  0  0  0
   -5.1169    7.9070    3.3999 C   0  0  0  0  0  0  0  0  0  0  0  0
   -3.2932    3.5471    5.5330 H   0  0  0  0  0  0  0  0  0  0  0  0
   -1.9554    3.6813    6.6505 H   0  0  0  0  0  0  0  0  0  0  0  0
   -3.7375    1.3178    4.8345 H   0  0  0  0  0  0  0  0  0  0  0  0
   -1.7206    6.0310    6.2463 H   0  0  0  0  0  0  0  0  0  0  0  0
   -1.2884    3.1735    1.3607 H   0  0  0  0  0  0  0  0  0  0  0  0
    2.1311    3.2409    3.8964 H   0  0  0  0  0  0  0  0  0  0  0  0
    1.9665    4.4966    2.6801 H   0  0  0  0  0  0  0  0  0  0  0  0
    2.8266    5.7436    4.6477 H   0  0  0  0  0  0  0  0  0  0  0  0
   -0.0725    7.5583    7.0475 H   0  0  0  0  0  0  0  0  0  0  0  0
    0.3683    5.1108    1.1866 H   0  0  0  0  0  0  0  0  0  0  0  0
    0.1413    2.1664    3.2069 H   0  0  0  0  0  0  0  0  0  0  0  0
    0.9316    2.6651    1.7293 H   0  0  0  0  0  0  0  0  0  0  0  0
    2.2195    7.3995    6.2670 H   0  0  0  0  0  0  0  0  0  0  0  0
   -2.4987    5.5429    0.8335 H   0  0  0  0  0  0  0  0  0  0  0  0
   -1.9007    7.4626   -0.6118 H   0  0  0  0  0  0  0  0  0  0  0  0
   -0.1915    7.2459   -0.2553 H   0  0  0  0  0  0  0  0  0  0  0  0
   -1.1731    9.1524    0.9721 H   0  0  0  0  0  0  0  0  0  0  0  0
   -0.4883    7.9459    2.0424 H   0  0  0  0  0  0  0  0  0  0  0  0
   -0.7503    2.4384   -2.1037 H   0  0  0  0  0  0  0  0  0  0  0  0
    0.0946    3.7521   -2.9568 H   0  0  0  0  0  0  0  0  0  0  0  0
   -3.8036    8.7924    0.4432 H   0  0  0  0  0  0  0  0  0  0  0  0
   -1.8465    7.4151    3.9115 H   0  0  0  0  0  0  0  0  0  0  0  0
    1.5931    1.7947   -2.6680 H   0  0  0  0  0  0  0  0  0  0  0  0
    2.2053    3.1704   -1.7260 H   0  0  0  0  0  0  0  0  0  0  0  0
    1.3489    1.8438   -0.9102 H   0  0  0  0  0  0  0  0  0  0  0  0
   -5.9208    8.6265    1.5844 H   0  0  0  0  0  0  0  0  0  0  0  0
   -3.9665    7.2350    5.0405 H   0  0  0  0  0  0  0  0  0  0  0  0
   -6.0174    7.8379    3.8802 H   0  0  0  0  0  0  0  0  0  0  0  0
  1  2  1  0  0  0  0 
  1  3  1  0  0  0  0 
  2  4  1  0  0  0  0 
  2  5  2  0  0  0  0 
  3  6  1  0  0  0  0 
  3  7  1  0  0  0  0 
  6  8  2  0  0  0  0 
  6  9  1  0  0  0  0 
  7 10  2  0  0  0  0 
 11  7  1  0  0  0  0 
  8 12  1  0  0  0  0 
  8 13  1  0  0  0  0 
  9 14  2  0  0  0  0 
 11 15  1  0  0  0  0 
 11 16  1  0  0  0  0 
 12 16  1  0  0  0  0 
 13 17  2  0  0  0  0 
 14 17  1  0  0  0  0 
 18 15  1  0  0  0  0 
 18 19  1  0  0  0  0 
 18 20  1  0  0  0  0 
 19 21  1  0  0  0  0 
 20 22  1  0  0  0  0 
 20 23  2  0  0  0  0 
 21 24  1  0  0  0  0 
 22 25  1  0  0  0  0 
 24 26  2  0  0  0  0 
 24 27  1  0  0  0  0 
 25 28  1  0  0  0  0 
 26 29  1  0  0  0  0 
 27 30  2  0  0  0  0 
 29 31  2  0  0  0  0 
 30 31  1  0  0  0  0 
  1 32  1  0  0  0  0 
  1 33  1  0  0  0  0 
  4 34  1  0  0  0  0 
  9 35  1  0  0  0  0 
 11 36  1  0  0  0  0 
 12 37  1  0  0  0  0 
 12 38  1  0  0  0  0 
 13 39  1  0  0  0  0 
 14 40  1  0  0  0  0 
 15 41  1  0  0  0  0 
 16 42  1  0  0  0  0 
 16 43  1  0  0  0  0 
 17 44  1  0  0  0  0 
 18 45  1  0  0  0  0 
 19 46  1  0  0  0  0 
 19 47  1  0  0  0  0 
 21 48  1  0  0  0  0 
 21 49  1  0  0  0  0 
 25 50  1  0  0  0  0 
 25 51  1  0  0  0  0 
 26 52  1  0  0  0  0 
 27 53  1  0  0  0  0 
 28 54  1  0  0  0  0 
 28 55  1  0  0  0  0 
 28 56  1  0  0  0  0 
 29 57  1  0  0  0  0 
 30 58  1  0  0  0  0 
 31 59  1  0  0  0  0 
M  END
> <cdk:Title>
benazepril

> <Conformer>
1

> <SuperDrugID>
SD000251

$$$$
