stearic acid
  CDK     0628171802

 56 55  0  0  0  0  0  0  0  0999 V2000
    0.6864    2.4775   -3.5853 C   0  0  1  0  0  0  0  0  0  0  0  0
    1.0101    1.7317   -4.9074 C   0  0  2  0  0  0  0  0  0  0  0  0
    0.8645    1.5774   -2.3323 C   0  0  1  0  0  0  0  0  0  0  0  0
    0.8339    2.6289   -6.1613 C   0  0  1  0  0  0  0  0  0  0  0  0
    0.5418    2.3221   -1.0083 C   0  0  2  0  0  0  0  0  0  0  0  0
    1.1593    1.8795   -7.4809 C   0  0  2  0  0  0  0  0  0  0  0  0
    0.7147    1.4277    0.2497 C   0  0  2  0  0  0  0  0  0  0  0  0
    0.9832    2.7781   -8.7341 C   0  0  1  0  0  0  0  0  0  0  0  0
    0.3797    2.1784    1.5664 C   0  0  1  0  0  0  0  0  0  0  0  0
    1.3070    2.0356  -10.0579 C   0  0  2  0  0  0  0  0  0  0  0  0
    0.5284    1.2781    2.8216 C   0  0  2  0  0  0  0  0  0  0  0  0
    1.1298    2.9372  -11.3099 C   0  0  2  0  0  0  0  0  0  0  0  0
    0.2454    2.0072    4.0725 C   0  0  0  0  0  0  0  0  0  0  0  0
    1.4543    2.1920  -12.6326 C   0  0  2  0  0  0  0  0  0  0  0  0
    1.2320    2.2628    4.9610 O   0  0  0  0  0  0  0  0  0  0  0  0
   -0.9118    2.4007    4.3390 O   0  0  0  0  0  0  0  0  0  0  0  0
    1.2814    3.0815  -13.8935 C   0  0  1  0  0  0  0  0  0  0  0  0
    1.6095    2.3223  -15.2078 C   0  0  1  0  0  0  0  0  0  0  0  0
    1.4376    3.2090  -16.4713 C   0  0  2  0  0  0  0  0  0  0  0  0
    1.7631    2.4575  -17.7827 C   0  0  0  0  0  0  0  0  0  0  0  0
    1.3457    3.3460   -3.4964 H   0  0  0  0  0  0  0  0  0  0  0  0
   -0.3467    2.8353   -3.6232 H   0  0  0  0  0  0  0  0  0  0  0  0
    0.3499    0.8639   -4.9967 H   0  0  0  0  0  0  0  0  0  0  0  0
    2.0430    1.3734   -4.8698 H   0  0  0  0  0  0  0  0  0  0  0  0
    0.2054    0.7091   -2.4221 H   0  0  0  0  0  0  0  0  0  0  0  0
    1.8980    1.2204   -2.2953 H   0  0  0  0  0  0  0  0  0  0  0  0
   -0.1992    2.9869   -6.2005 H   0  0  0  0  0  0  0  0  0  0  0  0
    1.4934    3.4974   -6.0731 H   0  0  0  0  0  0  0  0  0  0  0  0
   -0.4907    2.6818   -1.0485 H   0  0  0  0  0  0  0  0  0  0  0  0
    1.2023    3.1900   -0.9211 H   0  0  0  0  0  0  0  0  0  0  0  0
    0.4996    1.0112   -7.5691 H   0  0  0  0  0  0  0  0  0  0  0  0
    2.1923    1.5213   -7.4413 H   0  0  0  0  0  0  0  0  0  0  0  0
    1.7473    1.0708    0.2924 H   0  0  0  0  0  0  0  0  0  0  0  0
    0.0570    0.5579    0.1611 H   0  0  0  0  0  0  0  0  0  0  0  0
   -0.0499    3.1359   -8.7709 H   0  0  0  0  0  0  0  0  0  0  0  0
    1.6428    3.6460   -8.6430 H   0  0  0  0  0  0  0  0  0  0  0  0
    1.0494    3.0375    1.6600 H   0  0  0  0  0  0  0  0  0  0  0  0
   -0.6473    2.5525    1.5060 H   0  0  0  0  0  0  0  0  0  0  0  0
    0.6477    1.1673  -10.1478 H   0  0  0  0  0  0  0  0  0  0  0  0
    2.3398    1.6773  -10.0200 H   0  0  0  0  0  0  0  0  0  0  0  0
    1.5483    0.8903    2.8622 H   0  0  0  0  0  0  0  0  0  0  0  0
   -0.1541    0.4268    2.7523 H   0  0  0  0  0  0  0  0  0  0  0  0
    1.7892    3.8053  -11.2191 H   0  0  0  0  0  0  0  0  0  0  0  0
    0.0968    3.2952  -11.3469 H   0  0  0  0  0  0  0  0  0  0  0  0
    0.7948    1.3236  -12.7195 H   0  0  0  0  0  0  0  0  0  0  0  0
    2.4869    1.8336  -12.5918 H   0  0  0  0  0  0  0  0  0  0  0  0
    1.0362    2.7532    5.7853 H   0  0  0  0  0  0  0  0  0  0  0  0
    0.2492    3.4396  -13.9398 H   0  0  0  0  0  0  0  0  0  0  0  0
    1.9414    3.9496  -13.8121 H   0  0  0  0  0  0  0  0  0  0  0  0
    2.6420    1.9629  -15.1621 H   0  0  0  0  0  0  0  0  0  0  0  0
    0.9500    1.4530  -15.2898 H   0  0  0  0  0  0  0  0  0  0  0  0
    2.0970    4.0784  -16.3956 H   0  0  0  0  0  0  0  0  0  0  0  0
    0.4060    3.5687  -16.5233 H   0  0  0  0  0  0  0  0  0  0  0  0
    1.6273    3.1224  -18.6383 H   0  0  0  0  0  0  0  0  0  0  0  0
    2.7984    2.1103  -17.7745 H   0  0  0  0  0  0  0  0  0  0  0  0
    1.0999    1.5984  -17.9028 H   0  0  0  0  0  0  0  0  0  0  0  0
  1  2  1  0  0  0  0 
  1  3  1  0  0  0  0 
  2  4  1  0  0  0  0 
  3  5  1  0  0  0  0 
  4  6  1  0  0  0  0 
  5  7  1  0  0  0  0 
  6  8  1  0  0  0  0 
  7  9  1  0  0  0  0 
  8 10  1  0  0  0  0 
  9 11  1  0  0  0  0 
 10 12  1  0  0  0  0 
 11 13  1  0  0  0  0 
 12 14  1  0  0  0  0 
 13 15  1  0  0  0  0 
 13 16  2  0  0  0  0 
 14 17  1  0  0  0  0 
 17 18  1  0  0  0  0 
 18 19  1  0  0  0  0 
 19 20  1  0  0  0  0 
  1 21  1  0  0  0  0 
  1 22  1  0  0  0  0 
  2 23  1  0  0  0  0 
  2 24  1  0  0  0  0 
  3 25  1  0  0  0  0 
  3 26  1  0  0  0  0 
  4 27  1  0  0  0  0 
  4 28  1  0  0  0  0 
  5 29  1  0  0  0  0 
  5 30  1  0  0  0  0 
  6 31  1  0  0  0  0 
  6 32  1  0  0  0  0 
  7 33  1  0  0  0  0 
  7 34  1  0  0  0  0 
  8 35  1  0  0  0  0 
  8 36  1  0  0  0  0 
  9 37  1  0  0  0  0 
  9 38  1  0  0  0  0 
 10 39  1  0  0  0  0 
 10 40  1  0  0  0  0 
 11 41  1  0  0  0  0 
 11 42  1  0  0  0  0 
 12 43  1  0  0  0  0 
 12 44  1  0  0  0  0 
 14 45  1  0  0  0  0 
 14 46  1  0  0  0  0 
 15 47  1  0  0  0  0 
 17 48  1  0  0  0  0 
 17 49  1  0  0  0  0 
 18 50  1  0  0  0  0 
 18 51  1  0  0  0  0 
 19 52  1  0  0  0  0 
 19 53  1  0  0  0  0 
 20 54  1  0  0  0  0 
 20 55  1  0  0  0  0 
 20 56  1  0  0  0  0 
M  END
> <cdk:Title>
stearic acid

> <Conformer>
1

> <SuperDrugID>
SD003656

$$$$
