cyclophosphamide
  CDK     0628171802

 29 29  0  0  0  0  0  0  0  0999 V2000
   -3.4344   -1.7330   -2.5726 N   0  0  2  0  0  0  0  0  0  0  0  0
   -2.3355   -2.6991   -2.2264 C   0  0  2  0  0  0  0  0  0  0  0  0
   -3.8780   -0.7912   -1.4841 C   0  0  2  0  0  0  0  0  0  0  0  0
   -4.6692   -2.4067   -3.4526 P   0  0  2  0  0  0  0  0  0  0  0  0
   -1.0329   -2.0541   -1.6884 C   0  0  1  0  0  0  0  0  0  0  0  0
   -4.4914   -1.4255   -0.2052 C   0  0  2  0  0  0  0  0  0  0  0  0
   -5.4392   -3.3517   -2.6339 O   0  0  0  0  0  0  0  0  0  0  0  0
   -4.1093   -3.1750   -4.7995 N   0  0  1  0  0  0  0  0  0  0  0  0
   -5.6495   -1.2513   -3.9829 O   0  0  0  0  0  0  0  0  0  0  0  0
   -0.3866   -0.8654   -2.8154 Cl  0  0  0  0  0  0  0  0  0  0  0  0
   -4.7825   -0.2032    1.0303 Cl  0  0  0  0  0  0  0  0  0  0  0  0
   -3.5485   -2.2612   -5.8173 C   0  0  1  0  0  0  0  0  0  0  0  0
   -5.0523   -0.3893   -4.9774 C   0  0  2  0  0  0  0  0  0  0  0  0
   -4.5517   -1.1554   -6.2315 C   0  0  2  0  0  0  0  0  0  0  0  0
   -2.0361   -3.2657   -3.1132 H   0  0  0  0  0  0  0  0  0  0  0  0
   -2.6929   -3.4262   -1.4928 H   0  0  0  0  0  0  0  0  0  0  0  0
   -4.5998   -0.0742   -1.8840 H   0  0  0  0  0  0  0  0  0  0  0  0
   -3.0207   -0.1883   -1.1840 H   0  0  0  0  0  0  0  0  0  0  0  0
   -1.2049   -1.5798   -0.7220 H   0  0  0  0  0  0  0  0  0  0  0  0
   -0.2791   -2.8291   -1.5435 H   0  0  0  0  0  0  0  0  0  0  0  0
   -3.8245   -2.1778    0.2168 H   0  0  0  0  0  0  0  0  0  0  0  0
   -5.4467   -1.8970   -0.4327 H   0  0  0  0  0  0  0  0  0  0  0  0
   -3.3730   -3.8242   -4.5165 H   0  0  0  0  0  0  0  0  0  0  0  0
   -2.6232   -1.8121   -5.4489 H   0  0  0  0  0  0  0  0  0  0  0  0
   -3.2958   -2.8548   -6.6968 H   0  0  0  0  0  0  0  0  0  0  0  0
   -4.2340    0.1972   -4.5451 H   0  0  0  0  0  0  0  0  0  0  0  0
   -5.8189    0.3206   -5.2928 H   0  0  0  0  0  0  0  0  0  0  0  0
   -5.4040   -1.6112   -6.7424 H   0  0  0  0  0  0  0  0  0  0  0  0
   -4.0681   -0.4598   -6.9206 H   0  0  0  0  0  0  0  0  0  0  0  0
  1  2  1  0  0  0  0 
  1  3  1  0  0  0  0 
  1  4  1  0  0  0  0 
  2  5  1  0  0  0  0 
  3  6  1  0  0  0  0 
  4  7  2  0  0  0  0 
  4  8  1  0  0  0  0 
  4  9  1  0  0  0  0 
  5 10  1  0  0  0  0 
  6 11  1  0  0  0  0 
  8 12  1  0  0  0  0 
  9 13  1  0  0  0  0 
 12 14  1  0  0  0  0 
 13 14  1  0  0  0  0 
 15  2  1  0  0  0  0 
 16  2  1  0  0  0  0 
 17  3  1  0  0  0  0 
 18  3  1  0  0  0  0 
 19  5  1  0  0  0  0 
 20  5  1  0  0  0  0 
 21  6  1  0  0  0  0 
 22  6  1  0  0  0  0 
 23  8  1  0  0  0  0 
 24 12  1  0  0  0  0 
 25 12  1  0  0  0  0 
 26 13  1  0  0  0  0 
 27 13  1  0  0  0  0 
 28 14  1  0  0  0  0 
 29 14  1  0  0  0  0 
M  END
> <cdk:Title>
cyclophosphamide

> <Conformer>
1

> <SuperDrugID>
SD000667

$$$$
