prenoxdiazine
  CDK     0628171801

 54 57  0  0  0  0  0  0  0  0999 V2000
    1.2002   -3.0367    0.0864 C   0  0  1  0  0  0  0  0  0  0  0  0
   -0.0850   -2.8340    0.9573 C   0  0  2  0  0  0  0  0  0  0  0  0
    0.9740   -3.7662   -1.2111 C   0  0  0  0  0  0  0  0  0  0  0  0
    1.9555   -1.7611   -0.1490 C   0  0  0  0  0  0  0  0  0  0  0  0
    0.1753   -2.2324    2.2814 C   0  0  0  0  0  0  0  0  0  0  0  0
   -0.1990   -3.6001   -1.9945 C   0  0  0  0  0  0  0  0  0  0  0  0
    1.9706   -4.6522   -1.6974 C   0  0  0  0  0  0  0  0  0  0  0  0
    3.2435   -1.5750    0.4134 C   0  0  0  0  0  0  0  0  0  0  0  0
    1.4016   -0.7043   -0.9141 C   0  0  0  0  0  0  0  0  0  0  0  0
    0.3322   -2.9035    3.4320 N   0  0  0  0  0  0  0  0  0  0  0  0
    0.3154   -0.9163    2.5057 N   0  0  0  0  0  0  0  0  0  0  0  0
   -0.3670   -4.2917   -3.2081 C   0  0  0  0  0  0  0  0  0  0  0  0
    1.8031   -5.3408   -2.9138 C   0  0  0  0  0  0  0  0  0  0  0  0
    3.9512   -0.3744    0.2234 C   0  0  0  0  0  0  0  0  0  0  0  0
    2.1125    0.4956   -1.1075 C   0  0  0  0  0  0  0  0  0  0  0  0
    0.5987   -1.9652    4.3525 C   0  0  0  0  0  0  0  0  0  0  0  0
    0.5776   -0.7474    3.7689 O   0  0  0  0  0  0  0  0  0  0  0  0
    0.6362   -5.1578   -3.6741 C   0  0  0  0  0  0  0  0  0  0  0  0
    3.3864    0.6630   -0.5373 C   0  0  0  0  0  0  0  0  0  0  0  0
    0.9266   -2.2153    5.7677 C   0  0  1  0  0  0  0  0  0  0  0  0
    2.4546   -2.1105    6.0151 C   0  0  2  0  0  0  0  0  0  0  0  0
    3.1142   -0.8336    5.5775 N   0  0  2  0  0  0  0  0  0  0  0  0
    4.6080   -0.9578    5.6245 C   0  0  2  0  0  0  0  0  0  0  0  0
    2.6099    0.3964    6.2750 C   0  0  1  0  0  0  0  0  0  0  0  0
    5.3355    0.3097    5.1169 C   0  0  2  0  0  0  0  0  0  0  0  0
    3.2997    1.6843    5.7586 C   0  0  1  0  0  0  0  0  0  0  0  0
    4.8386    1.5692    5.8644 C   0  0  1  0  0  0  0  0  0  0  0  0
    1.8219   -3.7020    0.6996 H   0  0  0  0  0  0  0  0  0  0  0  0
   -0.5571   -3.8094    1.1086 H   0  0  0  0  0  0  0  0  0  0  0  0
   -0.8031   -2.1912    0.4476 H   0  0  0  0  0  0  0  0  0  0  0  0
   -0.9475   -2.9730   -1.6972 H   0  0  0  0  0  0  0  0  0  0  0  0
    2.8333   -4.8025   -1.1667 H   0  0  0  0  0  0  0  0  0  0  0  0
    3.6755   -2.3136    0.9733 H   0  0  0  0  0  0  0  0  0  0  0  0
    0.4735   -0.8005   -1.3326 H   0  0  0  0  0  0  0  0  0  0  0  0
   -1.2208   -4.1624   -3.7533 H   0  0  0  0  0  0  0  0  0  0  0  0
    2.5302   -5.9750   -3.2475 H   0  0  0  0  0  0  0  0  0  0  0  0
    4.8753   -0.2540    0.6423 H   0  0  0  0  0  0  0  0  0  0  0  0
    1.7028    1.2509   -1.6588 H   0  0  0  0  0  0  0  0  0  0  0  0
    0.5168   -5.6522   -4.5635 H   0  0  0  0  0  0  0  0  0  0  0  0
    3.8996    1.5387   -0.6710 H   0  0  0  0  0  0  0  0  0  0  0  0
    0.3816   -1.5175    6.4083 H   0  0  0  0  0  0  0  0  0  0  0  0
    0.6041   -3.2255    6.0361 H   0  0  0  0  0  0  0  0  0  0  0  0
    2.9113   -2.9471    5.4741 H   0  0  0  0  0  0  0  0  0  0  0  0
    2.6452   -2.2751    7.0788 H   0  0  0  0  0  0  0  0  0  0  0  0
    4.9273   -1.7914    4.9917 H   0  0  0  0  0  0  0  0  0  0  0  0
    4.9320   -1.1682    6.6494 H   0  0  0  0  0  0  0  0  0  0  0  0
    1.5399    0.5228    6.0976 H   0  0  0  0  0  0  0  0  0  0  0  0
    2.7606    0.3111    7.3558 H   0  0  0  0  0  0  0  0  0  0  0  0
    5.1551    0.4227    4.0441 H   0  0  0  0  0  0  0  0  0  0  0  0
    6.4117    0.1948    5.2708 H   0  0  0  0  0  0  0  0  0  0  0  0
    3.0176    1.8493    4.7139 H   0  0  0  0  0  0  0  0  0  0  0  0
    2.9583    2.5453    6.3396 H   0  0  0  0  0  0  0  0  0  0  0  0
    5.1360    1.5178    6.9174 H   0  0  0  0  0  0  0  0  0  0  0  0
    5.3004    2.4578    5.4259 H   0  0  0  0  0  0  0  0  0  0  0  0
  1  2  1  0  0  0  0 
  1  3  1  0  0  0  0 
  1  4  1  0  0  0  0 
  2  5  1  0  0  0  0 
  3  6  2  0  0  0  0 
  3  7  1  0  0  0  0 
  4  8  2  0  0  0  0 
  4  9  1  0  0  0  0 
  5 10  1  0  0  0  0 
  5 11  2  0  0  0  0 
  6 12  1  0  0  0  0 
  7 13  2  0  0  0  0 
  8 14  1  0  0  0  0 
  9 15  2  0  0  0  0 
 10 16  2  0  0  0  0 
 11 17  1  0  0  0  0 
 12 18  2  0  0  0  0 
 13 18  1  0  0  0  0 
 14 19  2  0  0  0  0 
 15 19  1  0  0  0  0 
 16 17  1  0  0  0  0 
 16 20  1  0  0  0  0 
 20 21  1  0  0  0  0 
 21 22  1  0  0  0  0 
 22 23  1  0  0  0  0 
 22 24  1  0  0  0  0 
 23 25  1  0  0  0  0 
 24 26  1  0  0  0  0 
 25 27  1  0  0  0  0 
 26 27  1  0  0  0  0 
  1 28  1  0  0  0  0 
  2 29  1  0  0  0  0 
  2 30  1  0  0  0  0 
  6 31  1  0  0  0  0 
  7 32  1  0  0  0  0 
  8 33  1  0  0  0  0 
  9 34  1  0  0  0  0 
 12 35  1  0  0  0  0 
 13 36  1  0  0  0  0 
 14 37  1  0  0  0  0 
 15 38  1  0  0  0  0 
 18 39  1  0  0  0  0 
 19 40  1  0  0  0  0 
 20 41  1  0  0  0  0 
 20 42  1  0  0  0  0 
 21 43  1  0  0  0  0 
 21 44  1  0  0  0  0 
 23 45  1  0  0  0  0 
 23 46  1  0  0  0  0 
 24 47  1  0  0  0  0 
 24 48  1  0  0  0  0 
 25 49  1  0  0  0  0 
 25 50  1  0  0  0  0 
 26 51  1  0  0  0  0 
 26 52  1  0  0  0  0 
 27 53  1  0  0  0  0 
 27 54  1  0  0  0  0 
M  END
> <cdk:Title>
prenoxdiazine

> <Conformer>
1

> <SuperDrugID>
SD002027

$$$$
