thonzylamine
  CDK     0628171801

 43 44  0  0  0  0  0  0  0  0999 V2000
    5.8563    1.5131    1.3764 N   0  0  0  0  0  0  0  0  0  0  0  0
    5.4530    0.1142    1.4556 C   0  0  2  0  0  0  0  0  0  0  0  0
    6.2431    2.0689    0.0788 C   0  0  2  0  0  0  0  0  0  0  0  0
    5.8170    2.3066    2.5163 C   0  0  0  0  0  0  0  0  0  0  0  0
    4.0484   -0.0685    1.0055 C   0  0  0  0  0  0  0  0  0  0  0  0
    7.4638    1.3538   -0.5738 C   0  0  1  0  0  0  0  0  0  0  0  0
    5.9428    1.7708    3.7657 N   0  0  0  0  0  0  0  0  0  0  0  0
    5.6326    3.6563    2.4413 N   0  0  0  0  0  0  0  0  0  0  0  0
    3.7569   -0.3681   -0.3455 C   0  0  0  0  0  0  0  0  0  0  0  0
    2.9771    0.0602    1.9206 C   0  0  0  0  0  0  0  0  0  0  0  0
    8.1110    2.0928   -1.7081 N   0  0  1  0  0  0  0  0  0  0  0  0
    5.8889    2.5106    4.9025 C   0  0  0  0  0  0  0  0  0  0  0  0
    5.5703    4.4582    3.5348 C   0  0  0  0  0  0  0  0  0  0  0  0
    2.4269   -0.5285   -0.7727 C   0  0  0  0  0  0  0  0  0  0  0  0
    1.6477   -0.1098    1.4944 C   0  0  0  0  0  0  0  0  0  0  0  0
    9.4560    1.5356   -2.0423 C   0  0  0  0  0  0  0  0  0  0  0  0
    7.2583    2.2043   -2.9301 C   0  0  0  0  0  0  0  0  0  0  0  0
    5.6937    3.8979    4.8170 C   0  0  0  0  0  0  0  0  0  0  0  0
    1.3651   -0.4069    0.1469 C   0  0  0  0  0  0  0  0  0  0  0  0
    0.0641   -0.5472   -0.2565 O   0  0  0  0  0  0  0  0  0  0  0  0
   -0.3556   -1.9215   -0.3293 C   0  0  0  0  0  0  0  0  0  0  0  0
    5.5468   -0.2933    2.4645 H   0  0  0  0  0  0  0  0  0  0  0  0
    6.1154   -0.5244    0.8696 H   0  0  0  0  0  0  0  0  0  0  0  0
    6.4961    3.1305    0.1472 H   0  0  0  0  0  0  0  0  0  0  0  0
    5.3889    2.0024   -0.5972 H   0  0  0  0  0  0  0  0  0  0  0  0
    8.1971    1.2021    0.2242 H   0  0  0  0  0  0  0  0  0  0  0  0
    7.1622    0.3679   -0.9351 H   0  0  0  0  0  0  0  0  0  0  0  0
    4.5126   -0.4673   -1.0283 H   0  0  0  0  0  0  0  0  0  0  0  0
    3.1591    0.2758    2.9045 H   0  0  0  0  0  0  0  0  0  0  0  0
    5.9920    2.0579    5.8134 H   0  0  0  0  0  0  0  0  0  0  0  0
    5.4346    5.4636    3.4176 H   0  0  0  0  0  0  0  0  0  0  0  0
    2.2345   -0.7367   -1.7541 H   0  0  0  0  0  0  0  0  0  0  0  0
    0.8846   -0.0189    2.1682 H   0  0  0  0  0  0  0  0  0  0  0  0
    9.9369    2.1184   -2.8303 H   0  0  0  0  0  0  0  0  0  0  0  0
   10.1100    1.5734   -1.1705 H   0  0  0  0  0  0  0  0  0  0  0  0
    9.3790    0.4981   -2.3760 H   0  0  0  0  0  0  0  0  0  0  0  0
    6.3017    2.6743   -2.7012 H   0  0  0  0  0  0  0  0  0  0  0  0
    7.7475    2.8301   -3.6806 H   0  0  0  0  0  0  0  0  0  0  0  0
    7.0671    1.2217   -3.3702 H   0  0  0  0  0  0  0  0  0  0  0  0
    5.6421    4.4768    5.6601 H   0  0  0  0  0  0  0  0  0  0  0  0
   -1.4162   -1.9445   -0.5853 H   0  0  0  0  0  0  0  0  0  0  0  0
    0.1930   -2.4577   -1.1077 H   0  0  0  0  0  0  0  0  0  0  0  0
   -0.2269   -2.4339    0.6279 H   0  0  0  0  0  0  0  0  0  0  0  0
  1  2  1  0  0  0  0 
  1  3  1  0  0  0  0 
  1  4  1  0  0  0  0 
  2  5  1  0  0  0  0 
  3  6  1  0  0  0  0 
  4  7  2  0  0  0  0 
  4  8  1  0  0  0  0 
  5  9  2  0  0  0  0 
  5 10  1  0  0  0  0 
  6 11  1  0  0  0  0 
  7 12  1  0  0  0  0 
  8 13  2  0  0  0  0 
  9 14  1  0  0  0  0 
 10 15  2  0  0  0  0 
 11 16  1  0  0  0  0 
 11 17  1  0  0  0  0 
 12 18  2  0  0  0  0 
 13 18  1  0  0  0  0 
 14 19  2  0  0  0  0 
 15 19  1  0  0  0  0 
 19 20  1  0  0  0  0 
 20 21  1  0  0  0  0 
  2 22  1  0  0  0  0 
  2 23  1  0  0  0  0 
  3 24  1  0  0  0  0 
  3 25  1  0  0  0  0 
  6 26  1  0  0  0  0 
  6 27  1  0  0  0  0 
  9 28  1  0  0  0  0 
 10 29  1  0  0  0  0 
 12 30  1  0  0  0  0 
 13 31  1  0  0  0  0 
 14 32  1  0  0  0  0 
 15 33  1  0  0  0  0 
 16 34  1  0  0  0  0 
 16 35  1  0  0  0  0 
 16 36  1  0  0  0  0 
 17 37  1  0  0  0  0 
 17 38  1  0  0  0  0 
 17 39  1  0  0  0  0 
 18 40  1  0  0  0  0 
 21 41  1  0  0  0  0 
 21 42  1  0  0  0  0 
 21 43  1  0  0  0  0 
M  END
> <cdk:Title>
thonzylamine

> <Conformer>
1

> <SuperDrugID>
SD002376

$$$$
