fluorometholone
  CDK     0628171801

 56 59  0  0  0  0  0  0  0  0999 V2000
   -3.0388    0.6186    2.2374 F   0  0  0  0  0  0  0  0  0  0  0  0
   -3.7584    0.2071    1.1212 C   0  0  2  0  0  0  0  0  0  0  0  0
   -4.3525   -1.2198    1.4699 C   0  0  2  0  0  0  0  0  0  0  0  0
   -2.6907    0.1314   -0.0733 C   0  0  2  0  0  0  0  0  0  0  0  0
   -4.9071    1.2927    0.9975 C   0  0  1  0  0  0  0  0  0  0  0  0
   -5.3329   -1.1304    2.6873 C   0  0  1  0  0  0  0  0  0  0  0  0
   -3.2181   -2.2565    1.7177 C   0  0  1  0  0  0  0  0  0  0  0  0
   -3.3013   -0.1782   -1.4932 C   0  0  0  0  0  0  0  0  0  0  0  0
   -1.6972   -0.9626    0.2488 C   0  0  0  0  0  0  0  0  0  0  0  0
   -2.0432    1.4578   -0.2415 C   0  0  0  0  0  0  0  0  0  0  0  0
   -5.5466    1.2784   -0.2750 O   0  0  0  0  0  0  0  0  0  0  0  0
   -6.0018    1.2311    2.1217 C   0  0  1  0  0  0  0  0  0  0  0  0
   -6.5635   -0.2092    2.4088 C   0  0  1  0  0  0  0  0  0  0  0  0
   -5.9386   -2.4175    3.2940 C   0  0  2  0  0  0  0  0  0  0  0  0
   -2.2230   -2.3257    0.5227 C   0  0  1  0  0  0  0  0  0  0  0  0
   -0.3725   -0.6821    0.3110 C   0  0  0  0  0  0  0  0  0  0  0  0
   -0.7189    1.6493   -0.1501 C   0  0  0  0  0  0  0  0  0  0  0  0
   -7.4691   -0.6765    1.2007 C   0  0  0  0  0  0  0  0  0  0  0  0
   -7.3569   -0.4023    3.7601 C   0  0  2  0  0  0  0  0  0  0  0  0
   -7.2237   -1.9430    4.0224 C   0  0  1  0  0  0  0  0  0  0  0  0
   -1.2083   -3.4885    0.7591 C   0  0  0  0  0  0  0  0  0  0  0  0
    0.1280    0.5930    0.1134 C   0  0  0  0  0  0  0  0  0  0  0  0
   -8.7347    0.1859    3.7718 C   0  0  0  0  0  0  0  0  0  0  0  0
   -6.6815    0.2521    4.8458 O   0  0  0  0  0  0  0  0  0  0  0  0
    1.3632    0.7966    0.1887 O   0  0  0  0  0  0  0  0  0  0  0  0
   -9.9779   -0.6089    3.8466 C   0  0  0  0  0  0  0  0  0  0  0  0
   -8.8503    1.4322    3.6862 O   0  0  0  0  0  0  0  0  0  0  0  0
   -4.9128   -1.5938    0.6142 H   0  0  0  0  0  0  0  0  0  0  0  0
   -4.7400   -0.7007    3.5085 H   0  0  0  0  0  0  0  0  0  0  0  0
   -4.4553    2.2872    1.0674 H   0  0  0  0  0  0  0  0  0  0  0  0
   -2.6800   -2.0016    2.6366 H   0  0  0  0  0  0  0  0  0  0  0  0
   -3.6694   -3.2427    1.8626 H   0  0  0  0  0  0  0  0  0  0  0  0
   -2.5185   -0.4863   -2.1925 H   0  0  0  0  0  0  0  0  0  0  0  0
   -3.7934    0.6877   -1.9431 H   0  0  0  0  0  0  0  0  0  0  0  0
   -4.0414   -0.9749   -1.4527 H   0  0  0  0  0  0  0  0  0  0  0  0
   -2.6061    2.2526   -0.4450 H   0  0  0  0  0  0  0  0  0  0  0  0
   -6.0873    2.0967   -0.2989 H   0  0  0  0  0  0  0  0  0  0  0  0
   -5.5582    1.6386    3.0340 H   0  0  0  0  0  0  0  0  0  0  0  0
   -6.8252    1.9000    1.8553 H   0  0  0  0  0  0  0  0  0  0  0  0
   -5.2396   -2.8861    3.9939 H   0  0  0  0  0  0  0  0  0  0  0  0
   -6.1802   -3.1414    2.5120 H   0  0  0  0  0  0  0  0  0  0  0  0
   -2.7879   -2.6443   -0.3574 H   0  0  0  0  0  0  0  0  0  0  0  0
    0.2898   -1.3906    0.5142 H   0  0  0  0  0  0  0  0  0  0  0  0
   -0.3470    2.5628   -0.2763 H   0  0  0  0  0  0  0  0  0  0  0  0
   -6.9383   -0.6981    0.2545 H   0  0  0  0  0  0  0  0  0  0  0  0
   -7.8742   -1.6768    1.3515 H   0  0  0  0  0  0  0  0  0  0  0  0
   -8.3145    0.0006    1.0735 H   0  0  0  0  0  0  0  0  0  0  0  0
   -8.0700   -2.5003    3.6172 H   0  0  0  0  0  0  0  0  0  0  0  0
   -7.1727   -2.1612    5.0925 H   0  0  0  0  0  0  0  0  0  0  0  0
   -0.5315   -3.5794   -0.0925 H   0  0  0  0  0  0  0  0  0  0  0  0
   -0.6214   -3.3211    1.6649 H   0  0  0  0  0  0  0  0  0  0  0  0
   -1.7339   -4.4400    0.8654 H   0  0  0  0  0  0  0  0  0  0  0  0
   -7.1749    0.0020    5.6563 H   0  0  0  0  0  0  0  0  0  0  0  0
   -9.9592   -1.2384    4.7359 H   0  0  0  0  0  0  0  0  0  0  0  0
  -10.0626   -1.2382    2.9610 H   0  0  0  0  0  0  0  0  0  0  0  0
  -10.8609    0.0310    3.8962 H   0  0  0  0  0  0  0  0  0  0  0  0
  2  1  1  0  0  0  0 
  3  2  1  0  0  0  0 
  2  4  1  0  0  0  0 
  2  5  1  0  0  0  0 
  6  3  1  0  0  0  0 
  3  7  1  0  0  0  0 
  3 28  1  0  0  0  0 
  4  8  1  0  0  0  0 
  4  9  1  0  0  0  0 
  4 10  1  0  0  0  0 
  5 11  1  0  0  0  0 
  5 12  1  0  0  0  0 
 13  6  1  0  0  0  0 
  6 14  1  0  0  0  0 
  6 29  1  0  0  0  0 
 15  7  1  0  0  0  0 
 15  9  1  0  0  0  0 
  9 16  2  0  0  0  0 
 10 17  2  0  0  0  0 
 13 12  1  0  0  0  0 
 13 18  1  0  0  0  0 
 13 19  1  0  0  0  0 
 14 20  1  0  0  0  0 
 15 21  1  0  0  0  0 
 16 22  1  0  0  0  0 
 17 22  1  0  0  0  0 
 19 20  1  0  0  0  0 
 19 23  1  0  0  0  0 
 19 24  1  0  0  0  0 
 22 25  2  0  0  0  0 
 23 26  1  0  0  0  0 
 23 27  2  0  0  0  0 
  5 30  1  0  0  0  0 
  7 31  1  0  0  0  0 
  7 32  1  0  0  0  0 
  8 33  1  0  0  0  0 
  8 34  1  0  0  0  0 
  8 35  1  0  0  0  0 
 10 36  1  0  0  0  0 
 11 37  1  0  0  0  0 
 12 38  1  0  0  0  0 
 12 39  1  0  0  0  0 
 14 40  1  0  0  0  0 
 14 41  1  0  0  0  0 
 15 42  1  0  0  0  0 
 16 43  1  0  0  0  0 
 17 44  1  0  0  0  0 
 18 45  1  0  0  0  0 
 18 46  1  0  0  0  0 
 18 47  1  0  0  0  0 
 20 48  1  0  0  0  0 
 20 49  1  0  0  0  0 
 21 50  1  0  0  0  0 
 21 51  1  0  0  0  0 
 21 52  1  0  0  0  0 
 24 53  1  0  0  0  0 
 26 54  1  0  0  0  0 
 26 55  1  0  0  0  0 
 26 56  1  0  0  0  0 
M  END
> <cdk:Title>
fluorometholone

> <Conformer>
1

> <SuperDrugID>
SD001081

$$$$
