benzyl benzoate
  CDK     0628171801

 28 29  0  0  0  0  0  0  0  0999 V2000
   -0.8006   -1.1185   -0.3570 C   0  0  0  0  0  0  0  0  0  0  0  0
   -0.2108   -2.3571   -0.3930 O   0  0  0  0  0  0  0  0  0  0  0  0
   -2.0511   -1.0484   -0.4424 O   0  0  0  0  0  0  0  0  0  0  0  0
   -0.0280    0.0698   -0.2015 C   0  0  0  0  0  0  0  0  0  0  0  0
   -0.8962   -3.6115   -0.5397 C   0  0  2  0  0  0  0  0  0  0  0  0
    1.3887    0.0245   -0.1394 C   0  0  0  0  0  0  0  0  0  0  0  0
   -0.6545    1.3397   -0.0892 C   0  0  0  0  0  0  0  0  0  0  0  0
    0.0657   -4.7395   -0.4884 C   0  0  0  0  0  0  0  0  0  0  0  0
    2.1464    1.1985    0.0444 C   0  0  0  0  0  0  0  0  0  0  0  0
    0.1012    2.5131    0.0956 C   0  0  0  0  0  0  0  0  0  0  0  0
    1.0340   -4.8961   -1.5099 C   0  0  0  0  0  0  0  0  0  0  0  0
    0.0333   -5.6836    0.5674 C   0  0  0  0  0  0  0  0  0  0  0  0
    1.5024    2.4416    0.1678 C   0  0  0  0  0  0  0  0  0  0  0  0
    1.9451   -5.9693   -1.4749 C   0  0  0  0  0  0  0  0  0  0  0  0
    0.9463   -6.7542    0.6014 C   0  0  0  0  0  0  0  0  0  0  0  0
    1.9074   -6.8932   -0.4154 C   0  0  0  0  0  0  0  0  0  0  0  0
   -1.4218   -3.6332   -1.4976 H   0  0  0  0  0  0  0  0  0  0  0  0
   -1.6467   -3.6975    0.2502 H   0  0  0  0  0  0  0  0  0  0  0  0
    1.8885   -0.8651   -0.2241 H   0  0  0  0  0  0  0  0  0  0  0  0
   -1.6725    1.4274   -0.1341 H   0  0  0  0  0  0  0  0  0  0  0  0
    3.1664    1.1488    0.0931 H   0  0  0  0  0  0  0  0  0  0  0  0
   -0.3714    3.4173    0.1817 H   0  0  0  0  0  0  0  0  0  0  0  0
    1.0784   -4.2318   -2.2879 H   0  0  0  0  0  0  0  0  0  0  0  0
   -0.6552   -5.5985    1.3196 H   0  0  0  0  0  0  0  0  0  0  0  0
    2.0506    3.2951    0.3107 H   0  0  0  0  0  0  0  0  0  0  0  0
    2.6364   -6.0771   -2.2206 H   0  0  0  0  0  0  0  0  0  0  0  0
    0.9117   -7.4294    1.3666 H   0  0  0  0  0  0  0  0  0  0  0  0
    2.5784   -7.6658   -0.3848 H   0  0  0  0  0  0  0  0  0  0  0  0
  1  2  1  0  0  0  0 
  1  3  2  0  0  0  0 
  1  4  1  0  0  0  0 
  2  5  1  0  0  0  0 
  4  6  2  0  0  0  0 
  4  7  1  0  0  0  0 
  5  8  1  0  0  0  0 
  6  9  1  0  0  0  0 
  7 10  2  0  0  0  0 
  8 11  2  0  0  0  0 
  8 12  1  0  0  0  0 
  9 13  2  0  0  0  0 
 10 13  1  0  0  0  0 
 11 14  1  0  0  0  0 
 12 15  2  0  0  0  0 
 14 16  2  0  0  0  0 
 15 16  1  0  0  0  0 
  5 17  1  0  0  0  0 
  5 18  1  0  0  0  0 
  6 19  1  0  0  0  0 
  7 20  1  0  0  0  0 
  9 21  1  0  0  0  0 
 10 22  1  0  0  0  0 
 11 23  1  0  0  0  0 
 12 24  1  0  0  0  0 
 13 25  1  0  0  0  0 
 14 26  1  0  0  0  0 
 15 27  1  0  0  0  0 
 16 28  1  0  0  0  0 
M  END
> <cdk:Title>
benzyl benzoate

> <Conformer>
1

> <SuperDrugID>
SD000283

$$$$
