tacalcitol
  CDK     0628171802

 74 76  0  0  0  0  0  0  0  0999 V2000
    0.9627   -6.0497   -2.5708 C   0  0  0  0  0  0  0  0  0  0  0  0
    1.4325   -5.7641   -4.0506 C   0  0  2  0  0  0  0  0  0  0  0  0
    1.7385   -4.2414   -4.2891 C   0  0  2  0  0  0  0  0  0  0  0  0
    0.2683   -6.0257   -5.0963 C   0  0  1  0  0  0  0  0  0  0  0  0
    2.7768   -6.5306   -4.3374 C   0  0  1  0  0  0  0  0  0  0  0  0
    2.7866   -3.7551   -3.3546 C   0  0  0  0  0  0  0  0  0  0  0  0
    0.3335   -3.6028   -4.3974 C   0  0  1  0  0  0  0  0  0  0  0  0
   -0.6512   -7.3026   -4.9220 C   0  0  1  0  0  0  0  0  0  0  0  0
   -0.5311   -4.6829   -5.0871 C   0  0  1  0  0  0  0  0  0  0  0  0
    3.9807   -5.9744   -3.5176 C   0  0  1  0  0  0  0  0  0  0  0  0
    2.5317   -2.8384   -2.3869 C   0  0  0  0  0  0  0  0  0  0  0  0
    4.0874   -4.4251   -3.5723 C   0  0  2  0  0  0  0  0  0  0  0  0
   -1.8969   -7.3916   -5.8788 C   0  0  1  0  0  0  0  0  0  0  0  0
    0.1463   -8.6407   -4.9713 C   0  0  0  0  0  0  0  0  0  0  0  0
    3.3353   -2.4563   -1.3414 C   0  0  0  0  0  0  0  0  0  0  0  0
   -1.6271   -7.7062   -7.3777 C   0  0  2  0  0  0  0  0  0  0  0  0
    2.9522   -1.7517   -0.2467 C   0  0  0  0  0  0  0  0  0  0  0  0
   -2.9068   -7.8453   -8.2611 C   0  0  2  0  0  0  0  0  0  0  0  0
    1.6873   -1.2440   -0.0385 C   0  0  0  0  0  0  0  0  0  0  0  0
    3.9075   -1.4053    0.8190 C   0  0  2  0  0  0  0  0  0  0  0  0
   -3.8974   -9.0439   -7.7934 C   0  0  1  0  0  0  0  0  0  0  0  0
   -2.4100   -7.9671   -9.6225 O   0  0  0  0  0  0  0  0  0  0  0  0
    0.6330   -2.0581    0.1570 C   0  0  0  0  0  0  0  0  0  0  0  0
    1.6047    0.2245    0.0241 C   0  0  1  0  0  0  0  0  0  0  0  0
    3.9867    0.1372    1.0176 C   0  0  2  0  0  0  0  0  0  0  0  0
   -5.1085   -9.1990   -8.8887 C   0  0  0  0  0  0  0  0  0  0  0  0
   -3.1615  -10.5037   -7.6233 C   0  0  0  0  0  0  0  0  0  0  0  0
    0.2985    0.7482    0.2773 O   0  0  0  0  0  0  0  0  0  0  0  0
    2.5642    0.7638    1.1270 C   0  0  1  0  0  0  0  0  0  0  0  0
    4.6982    0.7307   -0.0679 O   0  0  0  0  0  0  0  0  0  0  0  0
    2.1581   -4.1175   -5.2981 H   0  0  0  0  0  0  0  0  0  0  0  0
    0.7281   -6.1102   -6.0881 H   0  0  0  0  0  0  0  0  0  0  0  0
    1.6770   -5.6780   -1.8357 H   0  0  0  0  0  0  0  0  0  0  0  0
    0.8538   -7.1177   -2.3884 H   0  0  0  0  0  0  0  0  0  0  0  0
    0.0059   -5.5763   -2.3523 H   0  0  0  0  0  0  0  0  0  0  0  0
    2.6822   -7.5912   -4.1116 H   0  0  0  0  0  0  0  0  0  0  0  0
    3.0243   -6.4494   -5.3991 H   0  0  0  0  0  0  0  0  0  0  0  0
   -0.0915   -3.3901   -3.4142 H   0  0  0  0  0  0  0  0  0  0  0  0
    0.3632   -2.6757   -4.9776 H   0  0  0  0  0  0  0  0  0  0  0  0
   -1.0902   -7.2436   -3.9213 H   0  0  0  0  0  0  0  0  0  0  0  0
   -0.7768   -4.3763   -6.1093 H   0  0  0  0  0  0  0  0  0  0  0  0
   -1.4638   -4.7820   -4.5248 H   0  0  0  0  0  0  0  0  0  0  0  0
    3.8937   -6.2885   -2.4742 H   0  0  0  0  0  0  0  0  0  0  0  0
    4.9054   -6.4075   -3.9083 H   0  0  0  0  0  0  0  0  0  0  0  0
    1.6433   -2.4082   -2.4126 H   0  0  0  0  0  0  0  0  0  0  0  0
    4.8724   -4.1268   -2.8797 H   0  0  0  0  0  0  0  0  0  0  0  0
    4.4500   -4.1415   -4.5652 H   0  0  0  0  0  0  0  0  0  0  0  0
   -2.5443   -8.1745   -5.4801 H   0  0  0  0  0  0  0  0  0  0  0  0
   -2.4748   -6.4691   -5.8264 H   0  0  0  0  0  0  0  0  0  0  0  0
    0.7379   -8.7742   -4.0701 H   0  0  0  0  0  0  0  0  0  0  0  0
    0.8122   -8.6581   -5.8360 H   0  0  0  0  0  0  0  0  0  0  0  0
   -0.5246   -9.4996   -5.0331 H   0  0  0  0  0  0  0  0  0  0  0  0
    4.2866   -2.7242   -1.3684 H   0  0  0  0  0  0  0  0  0  0  0  0
   -1.0427   -8.6234   -7.4633 H   0  0  0  0  0  0  0  0  0  0  0  0
   -1.0138   -6.8959   -7.7811 H   0  0  0  0  0  0  0  0  0  0  0  0
   -3.3801   -6.8248   -8.2518 H   0  0  0  0  0  0  0  0  0  0  0  0
    4.9155   -1.7853    0.6284 H   0  0  0  0  0  0  0  0  0  0  0  0
    3.5723   -1.8677    1.7524 H   0  0  0  0  0  0  0  0  0  0  0  0
   -4.3559   -8.7767   -6.8404 H   0  0  0  0  0  0  0  0  0  0  0  0
   -3.2103   -7.9285  -10.1874 H   0  0  0  0  0  0  0  0  0  0  0  0
    0.7343   -3.0461    0.1433 H   0  0  0  0  0  0  0  0  0  0  0  0
   -0.2745   -1.6965    0.3284 H   0  0  0  0  0  0  0  0  0  0  0  0
    1.9181    0.6290   -0.9436 H   0  0  0  0  0  0  0  0  0  0  0  0
    4.5431    0.3550    1.9333 H   0  0  0  0  0  0  0  0  0  0  0  0
   -5.6734   -8.2543   -9.0968 H   0  0  0  0  0  0  0  0  0  0  0  0
   -5.9075   -9.9295   -8.6005 H   0  0  0  0  0  0  0  0  0  0  0  0
   -4.7795   -9.5466   -9.9025 H   0  0  0  0  0  0  0  0  0  0  0  0
   -2.3908  -10.5517   -6.8142 H   0  0  0  0  0  0  0  0  0  0  0  0
   -3.8567  -11.3444   -7.3656 H   0  0  0  0  0  0  0  0  0  0  0  0
   -2.6240  -10.8624   -8.5381 H   0  0  0  0  0  0  0  0  0  0  0  0
   -0.2487    0.4497   -0.4793 H   0  0  0  0  0  0  0  0  0  0  0  0
    2.6319    1.8531    1.0559 H   0  0  0  0  0  0  0  0  0  0  0  0
    2.1485    0.5209    2.1098 H   0  0  0  0  0  0  0  0  0  0  0  0
    5.5915    0.3270   -0.0347 H   0  0  0  0  0  0  0  0  0  0  0  0
  2  1  1  0  0  0  0 
  2  3  1  0  0  0  0 
  4  2  1  0  0  0  0 
  2  5  1  0  0  0  0 
  3  6  1  0  0  0  0 
  3  7  1  0  0  0  0 
  3 31  1  0  0  0  0 
  8  4  1  0  0  0  0 
  4  9  1  0  0  0  0 
  4 32  1  0  0  0  0 
  5 10  1  0  0  0  0 
  6 11  2  0  0  0  0 
  6 12  1  0  0  0  0 
  7  9  1  0  0  0  0 
  8 13  1  0  0  0  0 
  8 14  1  0  0  0  0 
 10 12  1  0  0  0  0 
 11 15  1  0  0  0  0 
 13 16  1  0  0  0  0 
 15 17  2  0  0  0  0 
 18 16  1  0  0  0  0 
 17 19  1  0  0  0  0 
 17 20  1  0  0  0  0 
 18 21  1  0  0  0  0 
 18 22  1  0  0  0  0 
 19 23  2  0  0  0  0 
 24 19  1  0  0  0  0 
 25 20  1  0  0  0  0 
 21 26  1  0  0  0  0 
 21 27  1  0  0  0  0 
 24 28  1  0  0  0  0 
 24 29  1  0  0  0  0 
 25 29  1  0  0  0  0 
 25 30  1  0  0  0  0 
  1 33  1  0  0  0  0 
  1 34  1  0  0  0  0 
  1 35  1  0  0  0  0 
  5 36  1  0  0  0  0 
  5 37  1  0  0  0  0 
  7 38  1  0  0  0  0 
  7 39  1  0  0  0  0 
  8 40  1  0  0  0  0 
  9 41  1  0  0  0  0 
  9 42  1  0  0  0  0 
 10 43  1  0  0  0  0 
 10 44  1  0  0  0  0 
 11 45  1  0  0  0  0 
 12 46  1  0  0  0  0 
 12 47  1  0  0  0  0 
 13 48  1  0  0  0  0 
 13 49  1  0  0  0  0 
 14 50  1  0  0  0  0 
 14 51  1  0  0  0  0 
 14 52  1  0  0  0  0 
 15 53  1  0  0  0  0 
 16 54  1  0  0  0  0 
 16 55  1  0  0  0  0 
 18 56  1  0  0  0  0 
 20 57  1  0  0  0  0 
 20 58  1  0  0  0  0 
 21 59  1  0  0  0  0 
 22 60  1  0  0  0  0 
 23 61  1  0  0  0  0 
 23 62  1  0  0  0  0 
 24 63  1  0  0  0  0 
 25 64  1  0  0  0  0 
 26 65  1  0  0  0  0 
 26 66  1  0  0  0  0 
 26 67  1  0  0  0  0 
 27 68  1  0  0  0  0 
 27 69  1  0  0  0  0 
 27 70  1  0  0  0  0 
 28 71  1  0  0  0  0 
 29 72  1  0  0  0  0 
 29 73  1  0  0  0  0 
 30 74  1  0  0  0  0 
M  END
> <cdk:Title>
tacalcitol

> <Conformer>
1

> <SuperDrugID>
SD003731

$$$$
