glutaral
  CDK     0628171801

 15 14  0  0  0  0  0  0  0  0999 V2000
   -4.4921    3.0718    3.3361 O   0  0  0  0  0  0  0  0  0  0  0  0
   -4.1385    2.5402    2.2596 C   0  0  0  0  0  0  0  0  0  0  0  0
   -2.8507    2.8789    1.6258 C   0  0  1  0  0  0  0  0  0  0  0  0
   -1.8267    1.7185    1.7338 C   0  0  1  0  0  0  0  0  0  0  0  0
   -0.4336    2.0763    1.1524 C   0  0  2  0  0  0  0  0  0  0  0  0
   -0.4207    2.1699   -0.3185 C   0  0  0  0  0  0  0  0  0  0  0  0
   -0.1067    3.2310   -0.9022 O   0  0  0  0  0  0  0  0  0  0  0  0
   -4.7649    1.8650    1.8159 H   0  0  0  0  0  0  0  0  0  0  0  0
   -3.0317    3.1192    0.5761 H   0  0  0  0  0  0  0  0  0  0  0  0
   -2.4338    3.7684    2.1050 H   0  0  0  0  0  0  0  0  0  0  0  0
   -1.6960    1.4725    2.7919 H   0  0  0  0  0  0  0  0  0  0  0  0
   -2.2159    0.8276    1.2300 H   0  0  0  0  0  0  0  0  0  0  0  0
    0.2760    1.2989    1.4369 H   0  0  0  0  0  0  0  0  0  0  0  0
   -0.0858    3.0130    1.5955 H   0  0  0  0  0  0  0  0  0  0  0  0
   -0.6555    1.3513   -0.8825 H   0  0  0  0  0  0  0  0  0  0  0  0
  1  2  2  0  0  0  0 
  2  3  1  0  0  0  0 
  3  4  1  0  0  0  0 
  4  5  1  0  0  0  0 
  5  6  1  0  0  0  0 
  6  7  2  0  0  0  0 
  2  8  1  0  0  0  0 
  3  9  1  0  0  0  0 
  3 10  1  0  0  0  0 
  4 11  1  0  0  0  0 
  4 12  1  0  0  0  0 
  5 13  1  0  0  0  0 
  5 14  1  0  0  0  0 
  6 15  1  0  0  0  0 
M  END
> <cdk:Title>
glutaral

> <Conformer>
1

> <SuperDrugID>
SD002822

$$$$
