lormetazepam
  CDK     0628171801

 34 36  0  0  0  0  0  0  0  0999 V2000
   -5.4500   -0.0835   -2.7972 C   0  0  0  0  0  0  0  0  0  0  0  0
   -5.3579    0.1180   -1.3633 N   0  0  0  0  0  0  0  0  0  0  0  0
   -4.6638    1.2215   -0.8599 C   0  0  0  0  0  0  0  0  0  0  0  0
   -5.9579   -0.8236   -0.5329 C   0  0  0  0  0  0  0  0  0  0  0  0
   -3.7266    1.1327    0.2187 C   0  0  0  0  0  0  0  0  0  0  0  0
   -4.8869    2.4950   -1.4481 C   0  0  0  0  0  0  0  0  0  0  0  0
   -6.6499   -1.7575   -1.0110 O   0  0  0  0  0  0  0  0  0  0  0  0
   -5.7760   -0.8062    0.9388 C   0  0  1  0  0  0  0  0  0  0  0  0
   -3.4667   -0.0770    0.8868 C   0  0  0  0  0  0  0  0  0  0  0  0
   -3.0378    2.3016    0.6376 C   0  0  0  0  0  0  0  0  0  0  0  0
   -4.1780    3.6342   -1.0367 C   0  0  0  0  0  0  0  0  0  0  0  0
   -6.4288   -1.9003    1.5836 O   0  0  0  0  0  0  0  0  0  0  0  0
   -4.4116   -0.8995    1.2011 N   0  0  0  0  0  0  0  0  0  0  0  0
   -2.1688   -0.4472    1.2616 C   0  0  0  0  0  0  0  0  0  0  0  0
   -3.2472    3.5389    0.0083 C   0  0  0  0  0  0  0  0  0  0  0  0
   -1.0821   -0.4888    0.3390 C   0  0  0  0  0  0  0  0  0  0  0  0
   -1.9147   -0.7803    2.6169 C   0  0  0  0  0  0  0  0  0  0  0  0
   -2.3843    4.9067    0.5100 Cl  0  0  0  0  0  0  0  0  0  0  0  0
   -1.2530   -0.1580   -1.3205 Cl  0  0  0  0  0  0  0  0  0  0  0  0
    0.2106   -0.8356    0.7862 C   0  0  0  0  0  0  0  0  0  0  0  0
   -0.6244   -1.1337    3.0494 C   0  0  0  0  0  0  0  0  0  0  0  0
    0.4398   -1.1559    2.1347 C   0  0  0  0  0  0  0  0  0  0  0  0
   -4.8444    0.6204   -3.3713 H   0  0  0  0  0  0  0  0  0  0  0  0
   -6.4874    0.0167   -3.1248 H   0  0  0  0  0  0  0  0  0  0  0  0
   -5.0939   -1.0835   -3.0576 H   0  0  0  0  0  0  0  0  0  0  0  0
   -5.5739    2.6058   -2.1968 H   0  0  0  0  0  0  0  0  0  0  0  0
   -6.1907    0.1148    1.3545 H   0  0  0  0  0  0  0  0  0  0  0  0
   -2.3703    2.2630    1.4130 H   0  0  0  0  0  0  0  0  0  0  0  0
   -4.3440    4.5289   -1.5038 H   0  0  0  0  0  0  0  0  0  0  0  0
   -6.2696   -1.7721    2.5420 H   0  0  0  0  0  0  0  0  0  0  0  0
   -2.6705   -0.7639    3.3083 H   0  0  0  0  0  0  0  0  0  0  0  0
    0.9978   -0.8668    0.1330 H   0  0  0  0  0  0  0  0  0  0  0  0
   -0.4583   -1.3690    4.0312 H   0  0  0  0  0  0  0  0  0  0  0  0
    1.3801   -1.4066    2.4502 H   0  0  0  0  0  0  0  0  0  0  0  0
  1  2  1  0  0  0  0 
  2  3  1  0  0  0  0 
  2  4  1  0  0  0  0 
  3  5  2  0  0  0  0 
  3  6  1  0  0  0  0 
  4  7  2  0  0  0  0 
  8  4  1  0  0  0  0 
  5  9  1  0  0  0  0 
  5 10  1  0  0  0  0 
  6 11  2  0  0  0  0 
  8 12  1  0  0  0  0 
  8 13  1  0  0  0  0 
  9 13  2  0  0  0  0 
  9 14  1  0  0  0  0 
 10 15  2  0  0  0  0 
 11 15  1  0  0  0  0 
 14 16  2  0  0  0  0 
 14 17  1  0  0  0  0 
 15 18  1  0  0  0  0 
 16 19  1  0  0  0  0 
 16 20  1  0  0  0  0 
 17 21  2  0  0  0  0 
 20 22  2  0  0  0  0 
 21 22  1  0  0  0  0 
  1 23  1  0  0  0  0 
  1 24  1  0  0  0  0 
  1 25  1  0  0  0  0 
  6 26  1  0  0  0  0 
  8 27  1  0  0  0  0 
 10 28  1  0  0  0  0 
 11 29  1  0  0  0  0 
 12 30  1  0  0  0  0 
 17 31  1  0  0  0  0 
 20 32  1  0  0  0  0 
 21 33  1  0  0  0  0 
 22 34  1  0  0  0  0 
M  END
> <cdk:Title>
lormetazepam

> <Conformer>
1

> <SuperDrugID>
SD001422

$$$$
