physostigmine
  CDK     0628171801

 41 43  0  0  0  0  0  0  0  0999 V2000
    3.1227   -0.5896   -4.8687 C   0  0  0  0  0  0  0  0  0  0  0  0
    2.4152    0.7687   -4.5622 C   0  0  2  0  0  0  0  0  0  0  0  0
    1.2871    0.5521   -3.6351 C   0  0  0  0  0  0  0  0  0  0  0  0
    1.6636    1.3518   -5.7989 C   0  0  1  0  0  0  0  0  0  0  0  0
    3.4016    1.8935   -4.1389 C   0  0  1  0  0  0  0  0  0  0  0  0
    0.0635    0.6870   -4.2902 C   0  0  0  0  0  0  0  0  0  0  0  0
    1.3398    0.2298   -2.2647 C   0  0  0  0  0  0  0  0  0  0  0  0
    0.2686    1.0876   -5.5674 N   0  0  0  0  0  0  0  0  0  0  0  0
    2.0710    2.7876   -5.9348 N   0  0  2  0  0  0  0  0  0  0  0  0
    3.4370    2.8322   -5.3565 C   0  0  2  0  0  0  0  0  0  0  0  0
   -1.1422    0.4315   -3.6057 C   0  0  0  0  0  0  0  0  0  0  0  0
    0.1351    0.0451   -1.5444 C   0  0  0  0  0  0  0  0  0  0  0  0
   -0.7465    1.2156   -6.5715 C   0  0  0  0  0  0  0  0  0  0  0  0
    1.1559    3.8165   -5.3516 C   0  0  0  0  0  0  0  0  0  0  0  0
   -1.0965    0.1065   -2.2353 C   0  0  0  0  0  0  0  0  0  0  0  0
    0.0847   -0.1957   -0.1946 O   0  0  0  0  0  0  0  0  0  0  0  0
    0.9545    0.1602    0.7988 C   0  0  0  0  0  0  0  0  0  0  0  0
    0.6841   -0.3062    2.0433 N   0  0  0  0  0  0  0  0  0  0  0  0
    1.9259    0.9237    0.5797 O   0  0  0  0  0  0  0  0  0  0  0  0
    1.4240   -0.0259    3.2304 C   0  0  0  0  0  0  0  0  0  0  0  0
    3.5878   -0.9939   -3.9673 H   0  0  0  0  0  0  0  0  0  0  0  0
    3.9000   -0.4567   -5.6232 H   0  0  0  0  0  0  0  0  0  0  0  0
    2.4076   -1.3253   -5.2471 H   0  0  0  0  0  0  0  0  0  0  0  0
    1.9760    0.8387   -6.7152 H   0  0  0  0  0  0  0  0  0  0  0  0
    3.0359    2.4463   -3.2676 H   0  0  0  0  0  0  0  0  0  0  0  0
    4.4048    1.5206   -3.9130 H   0  0  0  0  0  0  0  0  0  0  0  0
    2.2460    0.1289   -1.8061 H   0  0  0  0  0  0  0  0  0  0  0  0
    4.1492    2.4545   -6.0969 H   0  0  0  0  0  0  0  0  0  0  0  0
    3.7556    3.8403   -5.0745 H   0  0  0  0  0  0  0  0  0  0  0  0
   -2.0411    0.4919   -4.0863 H   0  0  0  0  0  0  0  0  0  0  0  0
   -0.3468    1.6598   -7.4860 H   0  0  0  0  0  0  0  0  0  0  0  0
   -1.1542    0.2338   -6.8154 H   0  0  0  0  0  0  0  0  0  0  0  0
   -1.5527    1.8557   -6.2099 H   0  0  0  0  0  0  0  0  0  0  0  0
    0.9641    3.6347   -4.2912 H   0  0  0  0  0  0  0  0  0  0  0  0
    0.2065    3.8207   -5.8870 H   0  0  0  0  0  0  0  0  0  0  0  0
    1.5871    4.8141   -5.4596 H   0  0  0  0  0  0  0  0  0  0  0  0
   -1.9713   -0.0706   -1.7356 H   0  0  0  0  0  0  0  0  0  0  0  0
   -0.0908   -0.8827    2.1352 H   0  0  0  0  0  0  0  0  0  0  0  0
    0.7467    0.4083    3.9662 H   0  0  0  0  0  0  0  0  0  0  0  0
    1.8229   -0.9611    3.6264 H   0  0  0  0  0  0  0  0  0  0  0  0
    2.2525    0.6688    3.0720 H   0  0  0  0  0  0  0  0  0  0  0  0
  2  1  1  0  0  0  0 
  2  3  1  0  0  0  0 
  2  4  1  0  0  0  0 
  2  5  1  0  0  0  0 
  3  6  2  0  0  0  0 
  3  7  1  0  0  0  0 
  4  8  1  0  0  0  0 
  4  9  1  0  0  0  0 
  5 10  1  0  0  0  0 
  6  8  1  0  0  0  0 
  6 11  1  0  0  0  0 
  7 12  2  0  0  0  0 
  8 13  1  0  0  0  0 
  9 10  1  0  0  0  0 
  9 14  1  0  0  0  0 
 11 15  2  0  0  0  0 
 12 15  1  0  0  0  0 
 12 16  1  0  0  0  0 
 16 17  1  0  0  0  0 
 17 18  1  0  0  0  0 
 17 19  2  0  0  0  0 
 18 20  1  0  0  0  0 
 21  1  1  0  0  0  0 
 22  1  1  0  0  0  0 
 23  1  1  0  0  0  0 
  4 24  1  0  0  0  0 
 25  5  1  0  0  0  0 
 26  5  1  0  0  0  0 
 27  7  1  0  0  0  0 
 28 10  1  0  0  0  0 
 29 10  1  0  0  0  0 
 30 11  1  0  0  0  0 
 31 13  1  0  0  0  0 
 32 13  1  0  0  0  0 
 33 13  1  0  0  0  0 
 34 14  1  0  0  0  0 
 35 14  1  0  0  0  0 
 36 14  1  0  0  0  0 
 37 15  1  0  0  0  0 
 38 18  1  0  0  0  0 
 39 20  1  0  0  0  0 
 40 20  1  0  0  0  0 
 41 20  1  0  0  0  0 
M  END
> <cdk:Title>
physostigmine

> <Conformer>
1

> <SuperDrugID>
SD001938

$$$$
