aminoquinuride
  CDK     0628171801

 48 51  0  0  0  0  0  0  0  0999 V2000
    4.4467    6.8402   -3.0293 N   0  0  0  0  0  0  0  0  0  0  0  0
    4.3714    6.0436   -4.1171 C   0  0  0  0  0  0  0  0  0  0  0  0
    3.9994    4.6762   -4.0414 C   0  0  0  0  0  0  0  0  0  0  0  0
    4.6892    6.6172   -5.3641 C   0  0  0  0  0  0  0  0  0  0  0  0
    3.9629    3.9255   -5.2493 C   0  0  0  0  0  0  0  0  0  0  0  0
    3.6740    4.0212   -2.8289 C   0  0  0  0  0  0  0  0  0  0  0  0
    4.6314    5.8304   -6.5326 C   0  0  0  0  0  0  0  0  0  0  0  0
    4.2756    4.5237   -6.4277 N   0  0  0  0  0  0  0  0  0  0  0  0
    3.6118    2.5622   -5.2318 C   0  0  0  0  0  0  0  0  0  0  0  0
    3.2918    2.6586   -2.8040 C   0  0  0  0  0  0  0  0  0  0  0  0
    4.9474    6.4051   -7.8543 C   0  0  0  0  0  0  0  0  0  0  0  0
    3.2844    1.9377   -4.0171 C   0  0  0  0  0  0  0  0  0  0  0  0
    2.9578    1.9576   -1.6765 N   0  0  0  0  0  0  0  0  0  0  0  0
    2.4907    2.4123   -0.4800 C   0  0  0  0  0  0  0  0  0  0  0  0
    2.3299    1.4581    0.4780 N   0  0  0  0  0  0  0  0  0  0  0  0
    2.2207    3.6203   -0.2902 O   0  0  0  0  0  0  0  0  0  0  0  0
    1.9347    1.5516    1.7886 C   0  0  0  0  0  0  0  0  0  0  0  0
    1.5234    2.7254    2.4702 C   0  0  0  0  0  0  0  0  0  0  0  0
    1.9587    0.3359    2.5065 C   0  0  0  0  0  0  0  0  0  0  0  0
    1.1587    2.6988    3.8393 C   0  0  0  0  0  0  0  0  0  0  0  0
    1.6035    0.2838    3.8629 C   0  0  0  0  0  0  0  0  0  0  0  0
    1.2102    1.4574    4.5314 C   0  0  0  0  0  0  0  0  0  0  0  0
    0.7397    3.8452    4.5658 C   0  0  0  0  0  0  0  0  0  0  0  0
    0.8775    1.3968    5.8459 N   0  0  0  0  0  0  0  0  0  0  0  0
    0.6398    5.0695    4.0043 N   0  0  0  0  0  0  0  0  0  0  0  0
    0.3986    3.7296    5.9286 C   0  0  0  0  0  0  0  0  0  0  0  0
    0.4833    2.4763    6.5691 C   0  0  0  0  0  0  0  0  0  0  0  0
    0.1560    2.3212    7.9994 C   0  0  0  0  0  0  0  0  0  0  0  0
    4.2839    6.4821   -2.1448 H   0  0  0  0  0  0  0  0  0  0  0  0
    4.6637    7.7802   -3.1324 H   0  0  0  0  0  0  0  0  0  0  0  0
    4.9609    7.6023   -5.4226 H   0  0  0  0  0  0  0  0  0  0  0  0
    3.7385    4.5360   -1.9522 H   0  0  0  0  0  0  0  0  0  0  0  0
    3.5950    2.0172   -6.0988 H   0  0  0  0  0  0  0  0  0  0  0  0
    4.2499    7.2144   -8.0796 H   0  0  0  0  0  0  0  0  0  0  0  0
    4.8657    5.6494   -8.6381 H   0  0  0  0  0  0  0  0  0  0  0  0
    5.9669    6.8002   -7.8578 H   0  0  0  0  0  0  0  0  0  0  0  0
    3.0317    0.9460   -4.0253 H   0  0  0  0  0  0  0  0  0  0  0  0
    3.0548    0.9935   -1.7430 H   0  0  0  0  0  0  0  0  0  0  0  0
    2.5477    0.5576    0.1841 H   0  0  0  0  0  0  0  0  0  0  0  0
    1.4818    3.6108    1.9717 H   0  0  0  0  0  0  0  0  0  0  0  0
    2.2453   -0.5322    2.0442 H   0  0  0  0  0  0  0  0  0  0  0  0
    1.6319   -0.6124    4.3574 H   0  0  0  0  0  0  0  0  0  0  0  0
    0.3951    5.8331    4.5506 H   0  0  0  0  0  0  0  0  0  0  0  0
    0.8113    5.1953    3.0598 H   0  0  0  0  0  0  0  0  0  0  0  0
    0.0924    4.5531    6.4540 H   0  0  0  0  0  0  0  0  0  0  0  0
   -0.8832    2.6097    8.1784 H   0  0  0  0  0  0  0  0  0  0  0  0
    0.2895    1.2853    8.3194 H   0  0  0  0  0  0  0  0  0  0  0  0
    0.8123    2.9550    8.5997 H   0  0  0  0  0  0  0  0  0  0  0  0
  1  2  1  0  0  0  0 
  2  3  2  0  0  0  0 
  2  4  1  0  0  0  0 
  3  5  1  0  0  0  0 
  3  6  1  0  0  0  0 
  4  7  2  0  0  0  0 
  5  8  2  0  0  0  0 
  5  9  1  0  0  0  0 
  6 10  2  0  0  0  0 
  7  8  1  0  0  0  0 
  7 11  1  0  0  0  0 
  9 12  2  0  0  0  0 
 10 12  1  0  0  0  0 
 10 13  1  0  0  0  0 
 13 14  1  0  0  0  0 
 14 15  1  0  0  0  0 
 14 16  2  0  0  0  0 
 15 17  1  0  0  0  0 
 17 18  1  0  0  0  0 
 17 19  2  0  0  0  0 
 18 20  2  0  0  0  0 
 19 21  1  0  0  0  0 
 20 22  1  0  0  0  0 
 20 23  1  0  0  0  0 
 21 22  2  0  0  0  0 
 22 24  1  0  0  0  0 
 23 25  1  0  0  0  0 
 23 26  2  0  0  0  0 
 24 27  2  0  0  0  0 
 26 27  1  0  0  0  0 
 27 28  1  0  0  0  0 
  1 29  1  0  0  0  0 
  1 30  1  0  0  0  0 
  4 31  1  0  0  0  0 
  6 32  1  0  0  0  0 
  9 33  1  0  0  0  0 
 11 34  1  0  0  0  0 
 11 35  1  0  0  0  0 
 11 36  1  0  0  0  0 
 12 37  1  0  0  0  0 
 13 38  1  0  0  0  0 
 15 39  1  0  0  0  0 
 18 40  1  0  0  0  0 
 19 41  1  0  0  0  0 
 21 42  1  0  0  0  0 
 25 43  1  0  0  0  0 
 25 44  1  0  0  0  0 
 26 45  1  0  0  0  0 
 28 46  1  0  0  0  0 
 28 47  1  0  0  0  0 
 28 48  1  0  0  0  0 
M  END
> <cdk:Title>
aminoquinuride

> <Conformer>
1

> <SuperDrugID>
SD000140

$$$$
