bisorcic
  CDK     0628171801

 31 30  0  0  0  0  0  0  0  0999 V2000
    0.9752   -2.5928    0.0098 C   0  0  2  0  0  0  0  0  0  0  0  0
    0.1166   -3.5496    0.8912 C   0  0  1  0  0  0  0  0  0  0  0  0
    0.4233   -1.2669    0.0228 N   0  0  0  0  0  0  0  0  0  0  0  0
    1.0450   -3.0792   -1.3894 C   0  0  0  0  0  0  0  0  0  0  0  0
    0.2770   -3.3179    2.4205 C   0  0  1  0  0  0  0  0  0  0  0  0
    1.0514   -0.1420   -0.4200 C   0  0  0  0  0  0  0  0  0  0  0  0
   -0.0709   -3.2185   -2.1413 O   0  0  0  0  0  0  0  0  0  0  0  0
    2.1440   -3.3644   -1.9170 O   0  0  0  0  0  0  0  0  0  0  0  0
   -0.7080   -4.1643    3.2722 C   0  0  2  0  0  0  0  0  0  0  0  0
    0.3131    1.1321   -0.4297 C   0  0  0  0  0  0  0  0  0  0  0  0
    2.2360   -0.1716   -0.8305 O   0  0  0  0  0  0  0  0  0  0  0  0
   -0.3127   -4.2039    4.6465 N   0  0  0  0  0  0  0  0  0  0  0  0
   -1.0316   -4.7952    5.6404 C   0  0  0  0  0  0  0  0  0  0  0  0
   -0.4648   -4.9316    6.9934 C   0  0  0  0  0  0  0  0  0  0  0  0
   -2.1777   -5.2593    5.4295 O   0  0  0  0  0  0  0  0  0  0  0  0
    1.9898   -2.5740    0.4217 H   0  0  0  0  0  0  0  0  0  0  0  0
   -0.9373   -3.4493    0.6126 H   0  0  0  0  0  0  0  0  0  0  0  0
    0.4192   -4.5815    0.6893 H   0  0  0  0  0  0  0  0  0  0  0  0
   -0.4865   -1.1639    0.3472 H   0  0  0  0  0  0  0  0  0  0  0  0
    1.3035   -3.5735    2.6947 H   0  0  0  0  0  0  0  0  0  0  0  0
    0.1171   -2.2614    2.6528 H   0  0  0  0  0  0  0  0  0  0  0  0
    0.0105   -3.5161   -3.0713 H   0  0  0  0  0  0  0  0  0  0  0  0
   -0.7443   -5.1919    2.8981 H   0  0  0  0  0  0  0  0  0  0  0  0
   -1.7084   -3.7319    3.1867 H   0  0  0  0  0  0  0  0  0  0  0  0
    0.9365    1.9440   -0.8113 H   0  0  0  0  0  0  0  0  0  0  0  0
   -0.5677    1.0444   -1.0687 H   0  0  0  0  0  0  0  0  0  0  0  0
   -0.0060    1.3814    0.5833 H   0  0  0  0  0  0  0  0  0  0  0  0
    0.5470   -3.8177    4.8817 H   0  0  0  0  0  0  0  0  0  0  0  0
   -1.0734   -4.3824    7.7132 H   0  0  0  0  0  0  0  0  0  0  0  0
    0.5570   -4.5506    7.0408 H   0  0  0  0  0  0  0  0  0  0  0  0
   -0.4504   -5.9871    7.2737 H   0  0  0  0  0  0  0  0  0  0  0  0
  1  2  1  0  0  0  0 
  1  3  1  0  0  0  0 
  1  4  1  0  0  0  0 
  2  5  1  0  0  0  0 
  3  6  1  0  0  0  0 
  4  7  1  0  0  0  0 
  4  8  2  0  0  0  0 
  5  9  1  0  0  0  0 
  6 10  1  0  0  0  0 
  6 11  2  0  0  0  0 
  9 12  1  0  0  0  0 
 12 13  1  0  0  0  0 
 13 14  1  0  0  0  0 
 13 15  2  0  0  0  0 
  1 16  1  0  0  0  0 
  2 17  1  0  0  0  0 
  2 18  1  0  0  0  0 
  3 19  1  0  0  0  0 
  5 20  1  0  0  0  0 
  5 21  1  0  0  0  0 
  7 22  1  0  0  0  0 
  9 23  1  0  0  0  0 
  9 24  1  0  0  0  0 
 10 25  1  0  0  0  0 
 10 26  1  0  0  0  0 
 10 27  1  0  0  0  0 
 12 28  1  0  0  0  0 
 14 29  1  0  0  0  0 
 14 30  1  0  0  0  0 
 14 31  1  0  0  0  0 
M  END
> <cdk:Title>
bisorcic

> <Conformer>
1

> <SuperDrugID>
SD000325

$$$$
