aminoxytriphene
  CDK     0628171801

 59 61  0  0  0  0  0  0  0  0999 V2000
    0.3361    3.9169   -1.7706 C   0  0  0  0  0  0  0  0  0  0  0  0
    1.2998    4.7703   -2.2214 C   0  0  0  0  0  0  0  0  0  0  0  0
   -0.7729    3.5236   -2.5362 C   0  0  0  0  0  0  0  0  0  0  0  0
    0.4018    3.3240   -0.5095 C   0  0  0  0  0  0  0  0  0  0  0  0
    2.5320    5.0457   -1.4540 C   0  0  2  0  0  0  0  0  0  0  0  0
    1.1560    5.4520   -3.4366 C   0  0  0  0  0  0  0  0  0  0  0  0
   -2.0898    3.8674   -2.1479 C   0  0  0  0  0  0  0  0  0  0  0  0
   -0.5992    2.7411   -3.7049 C   0  0  0  0  0  0  0  0  0  0  0  0
    1.0182    2.0623   -0.3513 C   0  0  0  0  0  0  0  0  0  0  0  0
   -0.1589    3.9616    0.6235 C   0  0  0  0  0  0  0  0  0  0  0  0
    2.2291    5.7968   -0.1937 N   0  0  2  0  0  0  0  0  0  0  0  0
    2.0574    5.2270   -4.5035 C   0  0  0  0  0  0  0  0  0  0  0  0
    0.1176    6.4006   -3.6083 C   0  0  0  0  0  0  0  0  0  0  0  0
   -3.1998    3.4306   -2.8897 C   0  0  0  0  0  0  0  0  0  0  0  0
   -1.7127    2.3169   -4.4569 C   0  0  0  0  0  0  0  0  0  0  0  0
    1.0787    1.4502    0.9120 C   0  0  0  0  0  0  0  0  0  0  0  0
   -0.1061    3.3437    1.8853 C   0  0  0  0  0  0  0  0  0  0  0  0
    2.0117    7.2595   -0.3918 C   0  0  0  0  0  0  0  0  0  0  0  0
    3.1505    5.4810    0.9314 C   0  0  0  0  0  0  0  0  0  0  0  0
    1.9386    5.9529   -5.7027 C   0  0  0  0  0  0  0  0  0  0  0  0
    0.0027    7.1252   -4.8064 C   0  0  0  0  0  0  0  0  0  0  0  0
   -3.0196    2.6690   -4.0631 C   0  0  0  0  0  0  0  0  0  0  0  0
    0.5183    2.0882    2.0347 C   0  0  0  0  0  0  0  0  0  0  0  0
    0.9231    6.9197   -5.8526 C   0  0  0  0  0  0  0  0  0  0  0  0
   -4.0786    2.2137   -4.8083 O   0  0  0  0  0  0  0  0  0  0  0  0
    0.5645    1.4723    3.2542 O   0  0  0  0  0  0  0  0  0  0  0  0
    0.8135    7.6372   -7.0141 O   0  0  0  0  0  0  0  0  0  0  0  0
   -4.8545    3.2413   -5.4526 C   0  0  0  0  0  0  0  0  0  0  0  0
    1.6315    1.9623    4.0836 C   0  0  0  0  0  0  0  0  0  0  0  0
    1.5517    8.8739   -6.9763 C   0  0  0  0  0  0  0  0  0  0  0  0
    3.2736    5.6147   -2.0282 H   0  0  0  0  0  0  0  0  0  0  0  0
    3.0159    4.0832   -1.2462 H   0  0  0  0  0  0  0  0  0  0  0  0
   -2.2539    4.4375   -1.3175 H   0  0  0  0  0  0  0  0  0  0  0  0
    0.3380    2.4624   -4.0130 H   0  0  0  0  0  0  0  0  0  0  0  0
    1.4276    1.5800   -1.1534 H   0  0  0  0  0  0  0  0  0  0  0  0
   -0.6092    4.8786    0.5419 H   0  0  0  0  0  0  0  0  0  0  0  0
    2.8073    4.5360   -4.4115 H   0  0  0  0  0  0  0  0  0  0  0  0
   -0.5568    6.5790   -2.8585 H   0  0  0  0  0  0  0  0  0  0  0  0
   -4.1391    3.6709   -2.5699 H   0  0  0  0  0  0  0  0  0  0  0  0
   -1.5691    1.7425   -5.2924 H   0  0  0  0  0  0  0  0  0  0  0  0
    1.5267    0.5378    1.0145 H   0  0  0  0  0  0  0  0  0  0  0  0
   -0.5220    3.8098    2.6965 H   0  0  0  0  0  0  0  0  0  0  0  0
    1.6511    7.7149    0.5319 H   0  0  0  0  0  0  0  0  0  0  0  0
    1.2542    7.4373   -1.1558 H   0  0  0  0  0  0  0  0  0  0  0  0
    2.9363    7.7572   -0.6940 H   0  0  0  0  0  0  0  0  0  0  0  0
    3.0597    4.4260    1.1947 H   0  0  0  0  0  0  0  0  0  0  0  0
    2.8958    6.0614    1.8193 H   0  0  0  0  0  0  0  0  0  0  0  0
    4.1858    5.6899    0.6572 H   0  0  0  0  0  0  0  0  0  0  0  0
    2.5993    5.7823   -6.4647 H   0  0  0  0  0  0  0  0  0  0  0  0
   -0.7467    7.8123   -4.9109 H   0  0  0  0  0  0  0  0  0  0  0  0
   -5.5652    2.7568   -6.1221 H   0  0  0  0  0  0  0  0  0  0  0  0
   -5.4230    3.8211   -4.7209 H   0  0  0  0  0  0  0  0  0  0  0  0
   -4.2304    3.9125   -6.0489 H   0  0  0  0  0  0  0  0  0  0  0  0
    1.5972    1.4161    5.0250 H   0  0  0  0  0  0  0  0  0  0  0  0
    2.6102    1.7939    3.6245 H   0  0  0  0  0  0  0  0  0  0  0  0
    1.5092    3.0269    4.3020 H   0  0  0  0  0  0  0  0  0  0  0  0
    1.4319    9.3736   -7.9375 H   0  0  0  0  0  0  0  0  0  0  0  0
    1.1766    9.5447   -6.1973 H   0  0  0  0  0  0  0  0  0  0  0  0
    2.6195    8.6968   -6.8216 H   0  0  0  0  0  0  0  0  0  0  0  0
  1  2  2  0  0  0  0 
  1  3  1  0  0  0  0 
  1  4  1  0  0  0  0 
  2  5  1  0  0  0  0 
  2  6  1  0  0  0  0 
  3  7  2  0  0  0  0 
  3  8  1  0  0  0  0 
  4  9  2  0  0  0  0 
  4 10  1  0  0  0  0 
  5 11  1  0  0  0  0 
  6 12  2  0  0  0  0 
  6 13  1  0  0  0  0 
  7 14  1  0  0  0  0 
  8 15  2  0  0  0  0 
  9 16  1  0  0  0  0 
 10 17  2  0  0  0  0 
 11 18  1  0  0  0  0 
 11 19  1  0  0  0  0 
 12 20  1  0  0  0  0 
 13 21  2  0  0  0  0 
 14 22  2  0  0  0  0 
 15 22  1  0  0  0  0 
 16 23  2  0  0  0  0 
 17 23  1  0  0  0  0 
 20 24  2  0  0  0  0 
 21 24  1  0  0  0  0 
 22 25  1  0  0  0  0 
 23 26  1  0  0  0  0 
 24 27  1  0  0  0  0 
 25 28  1  0  0  0  0 
 26 29  1  0  0  0  0 
 27 30  1  0  0  0  0 
  5 31  1  0  0  0  0 
  5 32  1  0  0  0  0 
  7 33  1  0  0  0  0 
  8 34  1  0  0  0  0 
  9 35  1  0  0  0  0 
 10 36  1  0  0  0  0 
 12 37  1  0  0  0  0 
 13 38  1  0  0  0  0 
 14 39  1  0  0  0  0 
 15 40  1  0  0  0  0 
 16 41  1  0  0  0  0 
 17 42  1  0  0  0  0 
 18 43  1  0  0  0  0 
 18 44  1  0  0  0  0 
 18 45  1  0  0  0  0 
 19 46  1  0  0  0  0 
 19 47  1  0  0  0  0 
 19 48  1  0  0  0  0 
 20 49  1  0  0  0  0 
 21 50  1  0  0  0  0 
 28 51  1  0  0  0  0 
 28 52  1  0  0  0  0 
 28 53  1  0  0  0  0 
 29 54  1  0  0  0  0 
 29 55  1  0  0  0  0 
 29 56  1  0  0  0  0 
 30 57  1  0  0  0  0 
 30 58  1  0  0  0  0 
 30 59  1  0  0  0  0 
M  END
> <cdk:Title>
aminoxytriphene

> <Conformer>
1

> <SuperDrugID>
SD003142

$$$$
