diiodohydroxyquinoline
  CDK     0628171801

 18 19  0  0  0  0  0  0  0  0999 V2000
    0.9611   -0.2191   -0.2511 O   0  0  0  0  0  0  0  0  0  0  0  0
    0.2545    0.2098    0.8260 C   0  0  0  0  0  0  0  0  0  0  0  0
    0.8929    0.5556    2.0378 C   0  0  0  0  0  0  0  0  0  0  0  0
   -1.1459    0.3081    0.7232 C   0  0  0  0  0  0  0  0  0  0  0  0
    0.1284    0.9986    3.1564 C   0  0  0  0  0  0  0  0  0  0  0  0
    2.2466    0.4700    2.1421 N   0  0  0  0  0  0  0  0  0  0  0  0
   -2.1216   -0.1835   -1.0192 I   0  0  0  0  0  0  0  0  0  0  0  0
   -1.9043    0.7423    1.8236 C   0  0  0  0  0  0  0  0  0  0  0  0
   -1.2806    1.0870    3.0358 C   0  0  0  0  0  0  0  0  0  0  0  0
    0.8224    1.3319    4.3428 C   0  0  0  0  0  0  0  0  0  0  0  0
    2.9259    0.7858    3.2721 C   0  0  0  0  0  0  0  0  0  0  0  0
   -2.5123    1.7072    4.5644 I   0  0  0  0  0  0  0  0  0  0  0  0
    2.2227    1.2257    4.4043 C   0  0  0  0  0  0  0  0  0  0  0  0
    1.7714   -0.6383    0.1030 H   0  0  0  0  0  0  0  0  0  0  0  0
   -2.9202    0.8058    1.7395 H   0  0  0  0  0  0  0  0  0  0  0  0
    0.3263    1.6544    5.1759 H   0  0  0  0  0  0  0  0  0  0  0  0
    3.9436    0.7030    3.2963 H   0  0  0  0  0  0  0  0  0  0  0  0
    2.7236    1.4672    5.2623 H   0  0  0  0  0  0  0  0  0  0  0  0
  1  2  1  0  0  0  0 
  2  3  2  0  0  0  0 
  2  4  1  0  0  0  0 
  3  5  1  0  0  0  0 
  3  6  1  0  0  0  0 
  4  7  1  0  0  0  0 
  4  8  2  0  0  0  0 
  5  9  2  0  0  0  0 
  5 10  1  0  0  0  0 
  6 11  2  0  0  0  0 
  8  9  1  0  0  0  0 
  9 12  1  0  0  0  0 
 10 13  2  0  0  0  0 
 11 13  1  0  0  0  0 
  1 14  1  0  0  0  0 
  8 15  1  0  0  0  0 
 10 16  1  0  0  0  0 
 11 17  1  0  0  0  0 
 13 18  1  0  0  0  0 
M  END
> <cdk:Title>
diiodohydroxyquinoline

> <Conformer>
1

> <SuperDrugID>
SD001290

$$$$
