tilbroquinol
  CDK     0628171801

 21 22  0  0  0  0  0  0  0  0999 V2000
   -4.1558    0.4103   -0.2540 O   0  0  0  0  0  0  0  0  0  0  0  0
   -2.8184    0.1746   -0.3090 C   0  0  0  0  0  0  0  0  0  0  0  0
   -2.3062   -1.1382   -0.2707 C   0  0  0  0  0  0  0  0  0  0  0  0
   -1.9359    1.2631   -0.4138 C   0  0  0  0  0  0  0  0  0  0  0  0
   -0.8995   -1.3714   -0.2986 C   0  0  0  0  0  0  0  0  0  0  0  0
   -3.1685   -2.1887   -0.2190 N   0  0  0  0  0  0  0  0  0  0  0  0
   -2.5808    3.0063   -0.5399 Br  0  0  0  0  0  0  0  0  0  0  0  0
   -0.5478    1.0445   -0.4257 C   0  0  0  0  0  0  0  0  0  0  0  0
   -0.0065   -0.2616   -0.3509 C   0  0  0  0  0  0  0  0  0  0  0  0
   -0.4671   -2.7217   -0.2724 C   0  0  0  0  0  0  0  0  0  0  0  0
   -2.7622   -3.4798   -0.1913 C   0  0  0  0  0  0  0  0  0  0  0  0
    1.4721   -0.4317   -0.3215 C   0  0  0  0  0  0  0  0  0  0  0  0
   -1.3926   -3.7794   -0.2153 C   0  0  0  0  0  0  0  0  0  0  0  0
   -4.5481   -0.3663    0.1986 H   0  0  0  0  0  0  0  0  0  0  0  0
    0.0732    1.8546   -0.4876 H   0  0  0  0  0  0  0  0  0  0  0  0
    0.5270   -2.9584   -0.2977 H   0  0  0  0  0  0  0  0  0  0  0  0
   -3.4558   -4.2272   -0.1533 H   0  0  0  0  0  0  0  0  0  0  0  0
    1.7963   -1.0213   -1.1792 H   0  0  0  0  0  0  0  0  0  0  0  0
    1.7637   -0.9489    0.5948 H   0  0  0  0  0  0  0  0  0  0  0  0
    2.0024    0.5215   -0.3527 H   0  0  0  0  0  0  0  0  0  0  0  0
   -1.0737   -4.7502   -0.1913 H   0  0  0  0  0  0  0  0  0  0  0  0
  1  2  1  0  0  0  0 
  2  3  2  0  0  0  0 
  2  4  1  0  0  0  0 
  3  5  1  0  0  0  0 
  3  6  1  0  0  0  0 
  4  7  1  0  0  0  0 
  4  8  2  0  0  0  0 
  5  9  2  0  0  0  0 
  5 10  1  0  0  0  0 
  6 11  2  0  0  0  0 
  8  9  1  0  0  0  0 
  9 12  1  0  0  0  0 
 10 13  2  0  0  0  0 
 11 13  1  0  0  0  0 
  1 14  1  0  0  0  0 
  8 15  1  0  0  0  0 
 10 16  1  0  0  0  0 
 11 17  1  0  0  0  0 
 12 18  1  0  0  0  0 
 12 19  1  0  0  0  0 
 12 20  1  0  0  0  0 
 13 21  1  0  0  0  0 
M  END
> <cdk:Title>
tilbroquinol

> <Conformer>
1

> <SuperDrugID>
SD002395

$$$$
