sulprostone
  CDK     0628171801

 63 64  0  0  0  0  0  0  0  0999 V2000
   -8.0856   -1.0439    0.2876 C   0  0  0  0  0  0  0  0  0  0  0  0
   -7.3241    0.0275    0.5662 C   0  0  0  0  0  0  0  0  0  0  0  0
   -8.2517   -2.1674    1.2013 C   0  0  2  0  0  0  0  0  0  0  0  0
   -7.1425    1.1385   -0.3544 C   0  0  2  0  0  0  0  0  0  0  0  0
   -8.5330   -3.5273    0.4902 C   0  0  1  0  0  0  0  0  0  0  0  0
   -9.4432   -1.9713    2.1697 C   0  0  2  0  0  0  0  0  0  0  0  0
   -5.7112    1.1364   -0.9406 C   0  0  2  0  0  0  0  0  0  0  0  0
   -7.4004    2.3532    0.3463 O   0  0  0  0  0  0  0  0  0  0  0  0
   -7.2446   -4.3079    0.0755 C   0  0  2  0  0  0  0  0  0  0  0  0
   -9.3704   -4.2287    1.4785 C   0  0  0  0  0  0  0  0  0  0  0  0
   -9.0889   -1.1596    3.2883 O   0  0  0  0  0  0  0  0  0  0  0  0
   -9.8262   -3.4007    2.5965 C   0  0  2  0  0  0  0  0  0  0  0  0
   -5.6006    2.1781   -1.9312 O   0  0  0  0  0  0  0  0  0  0  0  0
   -6.4746   -3.6141   -0.9525 C   0  0  0  0  0  0  0  0  0  0  0  0
   -9.6968   -5.4332    1.3721 O   0  0  0  0  0  0  0  0  0  0  0  0
   -4.3614    2.2326   -2.5076 C   0  0  0  0  0  0  0  0  0  0  0  0
   -5.2385   -3.0884   -0.8474 C   0  0  0  0  0  0  0  0  0  0  0  0
   -3.4202    3.1801   -2.0541 C   0  0  0  0  0  0  0  0  0  0  0  0
   -4.0197    1.3653   -3.5678 C   0  0  0  0  0  0  0  0  0  0  0  0
   -4.3923   -3.0840    0.3415 C   0  0  2  0  0  0  0  0  0  0  0  0
   -2.1417    3.2425   -2.6372 C   0  0  0  0  0  0  0  0  0  0  0  0
   -2.7425    1.4295   -4.1524 C   0  0  0  0  0  0  0  0  0  0  0  0
   -3.2896   -1.9809    0.3190 C   0  0  1  0  0  0  0  0  0  0  0  0
   -1.7995    2.3632   -3.6820 C   0  0  0  0  0  0  0  0  0  0  0  0
   -2.6572   -1.7084    1.7117 C   0  0  2  0  0  0  0  0  0  0  0  0
   -1.7122   -0.5667    1.6962 C   0  0  0  0  0  0  0  0  0  0  0  0
   -0.4819   -0.7101    1.1401 N   0  0  0  0  0  0  0  0  0  0  0  0
   -2.0654    0.5208    2.2123 O   0  0  0  0  0  0  0  0  0  0  0  0
    0.7190    0.5145    1.0853 S   0  0  2  0  0  0  0  0  0  0  0  0
    0.2106    1.8932   -0.0037 C   0  0  0  0  0  0  0  0  0  0  0  0
    2.0778   -0.1218    0.5203 O   0  0  0  0  0  0  0  0  0  0  0  0
    0.9891    1.0769    2.5637 O   0  0  0  0  0  0  0  0  0  0  0  0
   -8.5656   -1.0748   -0.5821 H   0  0  0  0  0  0  0  0  0  0  0  0
   -6.8508    0.0688    1.4405 H   0  0  0  0  0  0  0  0  0  0  0  0
   -7.3461   -2.2825    1.8094 H   0  0  0  0  0  0  0  0  0  0  0  0
   -7.8523    1.0906   -1.1862 H   0  0  0  0  0  0  0  0  0  0  0  0
   -9.1629   -3.3876   -0.3954 H   0  0  0  0  0  0  0  0  0  0  0  0
  -10.2917   -1.5057    1.6556 H   0  0  0  0  0  0  0  0  0  0  0  0
   -5.5215    0.1605   -1.4033 H   0  0  0  0  0  0  0  0  0  0  0  0
   -4.9891    1.2941   -0.1312 H   0  0  0  0  0  0  0  0  0  0  0  0
   -7.3059    3.0592   -0.3269 H   0  0  0  0  0  0  0  0  0  0  0  0
   -7.5387   -5.2740   -0.3448 H   0  0  0  0  0  0  0  0  0  0  0  0
   -6.6491   -4.5285    0.9623 H   0  0  0  0  0  0  0  0  0  0  0  0
   -9.9091   -1.0916    3.8198 H   0  0  0  0  0  0  0  0  0  0  0  0
  -10.9024   -3.4908    2.7565 H   0  0  0  0  0  0  0  0  0  0  0  0
   -9.2978   -3.7015    3.5023 H   0  0  0  0  0  0  0  0  0  0  0  0
   -6.9220   -3.5239   -1.8388 H   0  0  0  0  0  0  0  0  0  0  0  0
   -4.8629   -2.6729   -1.6713 H   0  0  0  0  0  0  0  0  0  0  0  0
   -3.6662    3.8250   -1.2998 H   0  0  0  0  0  0  0  0  0  0  0  0
   -4.6999    0.6834   -3.9114 H   0  0  0  0  0  0  0  0  0  0  0  0
   -3.9209   -4.0671    0.4354 H   0  0  0  0  0  0  0  0  0  0  0  0
   -5.0107   -2.9189    1.2239 H   0  0  0  0  0  0  0  0  0  0  0  0
   -1.4605    3.9271   -2.3017 H   0  0  0  0  0  0  0  0  0  0  0  0
   -2.4993    0.7981   -4.9190 H   0  0  0  0  0  0  0  0  0  0  0  0
   -2.5076   -2.2785   -0.3851 H   0  0  0  0  0  0  0  0  0  0  0  0
   -3.7277   -1.0450   -0.0399 H   0  0  0  0  0  0  0  0  0  0  0  0
   -0.8673    2.4024   -4.0990 H   0  0  0  0  0  0  0  0  0  0  0  0
   -2.1387   -2.6026    2.0675 H   0  0  0  0  0  0  0  0  0  0  0  0
   -3.4606   -1.4943    2.4238 H   0  0  0  0  0  0  0  0  0  0  0  0
   -0.2552   -1.5719    0.7588 H   0  0  0  0  0  0  0  0  0  0  0  0
   -0.6883    2.3699    0.3869 H   0  0  0  0  0  0  0  0  0  0  0  0
    0.0148    1.5107   -1.0045 H   0  0  0  0  0  0  0  0  0  0  0  0
    1.0145    2.6287   -0.0498 H   0  0  0  0  0  0  0  0  0  0  0  0
  1  2  2  0  0  0  0 
  4  2  1  0  0  0  0 
  3  1  1  0  0  0  0 
  3  5  1  0  0  0  0 
  6  3  1  0  0  0  0 
  4  7  1  0  0  0  0 
  4  8  1  0  0  0  0 
  5  9  1  0  0  0  0 
  5 10  1  0  0  0  0 
  6 11  1  0  0  0  0 
  6 12  1  0  0  0  0 
  7 13  1  0  0  0  0 
  9 14  1  0  0  0  0 
 10 12  1  0  0  0  0 
 10 15  2  0  0  0  0 
 13 16  1  0  0  0  0 
 14 17  2  0  0  0  0 
 16 18  2  0  0  0  0 
 16 19  1  0  0  0  0 
 17 20  1  0  0  0  0 
 18 21  1  0  0  0  0 
 19 22  2  0  0  0  0 
 20 23  1  0  0  0  0 
 21 24  2  0  0  0  0 
 22 24  1  0  0  0  0 
 23 25  1  0  0  0  0 
 25 26  1  0  0  0  0 
 26 27  1  0  0  0  0 
 26 28  2  0  0  0  0 
 27 29  1  0  0  0  0 
 29 30  1  0  0  0  0 
 29 31  2  0  0  0  0 
 29 32  2  0  0  0  0 
  1 33  1  0  0  0  0 
  2 34  1  0  0  0  0 
  3 35  1  0  0  0  0 
  4 36  1  0  0  0  0 
  5 37  1  0  0  0  0 
  6 38  1  0  0  0  0 
  7 39  1  0  0  0  0 
  7 40  1  0  0  0  0 
  8 41  1  0  0  0  0 
  9 42  1  0  0  0  0 
  9 43  1  0  0  0  0 
 11 44  1  0  0  0  0 
 12 45  1  0  0  0  0 
 12 46  1  0  0  0  0 
 14 47  1  0  0  0  0 
 17 48  1  0  0  0  0 
 18 49  1  0  0  0  0 
 19 50  1  0  0  0  0 
 20 51  1  0  0  0  0 
 20 52  1  0  0  0  0 
 21 53  1  0  0  0  0 
 22 54  1  0  0  0  0 
 23 55  1  0  0  0  0 
 23 56  1  0  0  0  0 
 24 57  1  0  0  0  0 
 25 58  1  0  0  0  0 
 25 59  1  0  0  0  0 
 27 60  1  0  0  0  0 
 30 61  1  0  0  0  0 
 30 62  1  0  0  0  0 
 30 63  1  0  0  0  0 
M  END
> <cdk:Title>
sulprostone

> <Conformer>
1

> <SuperDrugID>
SD002283

$$$$
