pemetrexed
  CDK     0628171801

 52 54  0  0  0  0  0  0  0  0999 V2000
    5.7978   -3.9111   -1.5872 C   0  0  2  0  0  0  0  0  0  0  0  0
    5.5606   -3.3908   -0.1433 C   0  0  1  0  0  0  0  0  0  0  0  0
    6.0948   -2.8099   -2.5329 C   0  0  0  0  0  0  0  0  0  0  0  0
    4.3870   -2.4806   -0.0615 C   0  0  0  0  0  0  0  0  0  0  0  0
    7.3148   -2.1766   -2.7734 C   0  0  0  0  0  0  0  0  0  0  0  0
    5.1655   -2.1467   -3.3414 C   0  0  0  0  0  0  0  0  0  0  0  0
    3.0816   -3.0076    0.0318 C   0  0  0  0  0  0  0  0  0  0  0  0
    4.5491   -1.0794   -0.1301 C   0  0  0  0  0  0  0  0  0  0  0  0
    7.0806   -1.1635   -3.7004 C   0  0  0  0  0  0  0  0  0  0  0  0
    8.6244   -2.3546   -2.2888 C   0  0  0  0  0  0  0  0  0  0  0  0
    5.7801   -1.1639   -4.0223 N   0  0  0  0  0  0  0  0  0  0  0  0
    1.9646   -2.1548    0.0388 C   0  0  0  0  0  0  0  0  0  0  0  0
    3.4307   -0.2293   -0.1328 C   0  0  0  0  0  0  0  0  0  0  0  0
    8.0796   -0.3599   -4.1389 N   0  0  0  0  0  0  0  0  0  0  0  0
    8.9120   -3.2380   -1.4516 O   0  0  0  0  0  0  0  0  0  0  0  0
    9.6025   -1.5298   -2.7558 N   0  0  0  0  0  0  0  0  0  0  0  0
    2.1140   -0.7476   -0.0492 C   0  0  0  0  0  0  0  0  0  0  0  0
    9.3425   -0.5476   -3.6664 C   0  0  0  0  0  0  0  0  0  0  0  0
    0.9921    0.1304   -0.0413 C   0  0  0  0  0  0  0  0  0  0  0  0
   10.3395    0.2331   -4.1071 N   0  0  0  0  0  0  0  0  0  0  0  0
   -0.2836   -0.3322    0.1303 N   0  0  0  0  0  0  0  0  0  0  0  0
    1.1665    1.3672   -0.1718 O   0  0  0  0  0  0  0  0  0  0  0  0
   -1.4494    0.4881    0.2676 C   0  0  1  0  0  0  0  0  0  0  0  0
   -2.7502   -0.3298    0.0278 C   0  0  2  0  0  0  0  0  0  0  0  0
   -1.4348    1.0822    1.6253 C   0  0  0  0  0  0  0  0  0  0  0  0
   -2.8478   -0.9500   -1.3929 C   0  0  2  0  0  0  0  0  0  0  0  0
   -1.3742    0.2850    2.7199 O   0  0  0  0  0  0  0  0  0  0  0  0
   -1.4347    2.3241    1.7834 O   0  0  0  0  0  0  0  0  0  0  0  0
   -4.1576   -1.5907   -1.6278 C   0  0  0  0  0  0  0  0  0  0  0  0
   -5.2836   -0.8421   -1.6699 O   0  0  0  0  0  0  0  0  0  0  0  0
   -4.2549   -2.8286   -1.7907 O   0  0  0  0  0  0  0  0  0  0  0  0
    4.9126   -4.4560   -1.9288 H   0  0  0  0  0  0  0  0  0  0  0  0
    6.6278   -4.6219   -1.5861 H   0  0  0  0  0  0  0  0  0  0  0  0
    5.4031   -4.2456    0.5187 H   0  0  0  0  0  0  0  0  0  0  0  0
    6.4618   -2.8848    0.2128 H   0  0  0  0  0  0  0  0  0  0  0  0
    4.1667   -2.3583   -3.3983 H   0  0  0  0  0  0  0  0  0  0  0  0
    2.9362   -4.0192    0.0899 H   0  0  0  0  0  0  0  0  0  0  0  0
    5.4843   -0.6686   -0.1952 H   0  0  0  0  0  0  0  0  0  0  0  0
    5.3500   -0.5526   -4.6407 H   0  0  0  0  0  0  0  0  0  0  0  0
    1.0424   -2.5886    0.1059 H   0  0  0  0  0  0  0  0  0  0  0  0
    3.5940    0.7789   -0.1979 H   0  0  0  0  0  0  0  0  0  0  0  0
   10.5103   -1.6502   -2.4365 H   0  0  0  0  0  0  0  0  0  0  0  0
   11.2426    0.0987   -3.7786 H   0  0  0  0  0  0  0  0  0  0  0  0
   10.1580    0.9363   -4.7506 H   0  0  0  0  0  0  0  0  0  0  0  0
   -0.4093   -1.2914    0.2089 H   0  0  0  0  0  0  0  0  0  0  0  0
   -1.4197    1.2848   -0.4830 H   0  0  0  0  0  0  0  0  0  0  0  0
   -3.6007    0.3411    0.1759 H   0  0  0  0  0  0  0  0  0  0  0  0
   -2.8212   -1.1342    0.7679 H   0  0  0  0  0  0  0  0  0  0  0  0
   -2.0568   -1.6947   -1.5094 H   0  0  0  0  0  0  0  0  0  0  0  0
   -2.7002   -0.1764   -2.1517 H   0  0  0  0  0  0  0  0  0  0  0  0
   -1.3180    0.6731    3.6185 H   0  0  0  0  0  0  0  0  0  0  0  0
   -6.1522   -1.2668   -1.8297 H   0  0  0  0  0  0  0  0  0  0  0  0
  1  2  1  0  0  0  0 
  1  3  1  0  0  0  0 
  2  4  1  0  0  0  0 
  3  5  1  0  0  0  0 
  3  6  2  0  0  0  0 
  4  7  2  0  0  0  0 
  4  8  1  0  0  0  0 
  5  9  2  0  0  0  0 
  5 10  1  0  0  0  0 
  6 11  1  0  0  0  0 
  7 12  1  0  0  0  0 
  8 13  2  0  0  0  0 
  9 11  1  0  0  0  0 
  9 14  1  0  0  0  0 
 10 15  2  0  0  0  0 
 10 16  1  0  0  0  0 
 12 17  2  0  0  0  0 
 13 17  1  0  0  0  0 
 14 18  2  0  0  0  0 
 16 18  1  0  0  0  0 
 17 19  1  0  0  0  0 
 18 20  1  0  0  0  0 
 19 21  1  0  0  0  0 
 19 22  2  0  0  0  0 
 23 21  1  0  0  0  0 
 23 24  1  0  0  0  0 
 23 25  1  0  0  0  0 
 24 26  1  0  0  0  0 
 25 27  1  0  0  0  0 
 25 28  2  0  0  0  0 
 26 29  1  0  0  0  0 
 29 30  1  0  0  0  0 
 29 31  2  0  0  0  0 
 32  1  1  0  0  0  0 
 33  1  1  0  0  0  0 
 34  2  1  0  0  0  0 
 35  2  1  0  0  0  0 
 36  6  1  0  0  0  0 
 37  7  1  0  0  0  0 
 38  8  1  0  0  0  0 
 39 11  1  0  0  0  0 
 40 12  1  0  0  0  0 
 41 13  1  0  0  0  0 
 42 16  1  0  0  0  0 
 43 20  1  0  0  0  0 
 44 20  1  0  0  0  0 
 45 21  1  0  0  0  0 
 23 46  1  0  0  0  0 
 47 24  1  0  0  0  0 
 48 24  1  0  0  0  0 
 49 26  1  0  0  0  0 
 50 26  1  0  0  0  0 
 51 27  1  0  0  0  0 
 52 30  1  0  0  0  0 
M  END
> <cdk:Title>
pemetrexed

> <Conformer>
1

> <SuperDrugID>
SD001858

$$$$
