phenacaine
  CDK     0628171801

 44 45  0  0  0  0  0  0  0  0999 V2000
    1.0320   -5.2208   -4.4552 N   0  0  0  0  0  0  0  0  0  0  0  0
    2.1001   -4.9024   -5.1090 C   0  0  0  0  0  0  0  0  0  0  0  0
    0.2341   -6.2758   -4.2581 C   0  0  0  0  0  0  0  0  0  0  0  0
    2.6098   -3.6634   -4.9935 N   0  0  0  0  0  0  0  0  0  0  0  0
    2.8346   -5.8113   -5.9732 C   0  0  0  0  0  0  0  0  0  0  0  0
    0.4491   -7.6121   -4.6805 C   0  0  0  0  0  0  0  0  0  0  0  0
   -0.9423   -5.9969   -3.5249 C   0  0  0  0  0  0  0  0  0  0  0  0
    2.1885   -2.6131   -4.2215 C   0  0  0  0  0  0  0  0  0  0  0  0
   -0.4735   -8.6302   -4.3629 C   0  0  0  0  0  0  0  0  0  0  0  0
   -1.8749   -7.0081   -3.2250 C   0  0  0  0  0  0  0  0  0  0  0  0
    0.8343   -2.2946   -3.9593 C   0  0  0  0  0  0  0  0  0  0  0  0
    3.1903   -1.7893   -3.6626 C   0  0  0  0  0  0  0  0  0  0  0  0
   -1.6482   -8.3330   -3.6446 C   0  0  0  0  0  0  0  0  0  0  0  0
    0.5012   -1.2665   -3.0577 C   0  0  0  0  0  0  0  0  0  0  0  0
    2.8592   -0.7540   -2.7680 C   0  0  0  0  0  0  0  0  0  0  0  0
   -2.5413   -9.3270   -3.3322 O   0  0  0  0  0  0  0  0  0  0  0  0
    1.5134   -0.5262   -2.4153 C   0  0  0  0  0  0  0  0  0  0  0  0
   -3.6065   -9.4606   -4.2966 C   0  0  1  0  0  0  0  0  0  0  0  0
    1.1826    0.3967   -1.4534 O   0  0  0  0  0  0  0  0  0  0  0  0
   -4.5740  -10.5708   -3.8436 C   0  0  0  0  0  0  0  0  0  0  0  0
    1.2891   -0.1474   -0.1169 C   0  0  1  0  0  0  0  0  0  0  0  0
    0.7937    0.8652    0.9339 C   0  0  0  0  0  0  0  0  0  0  0  0
    3.4409   -3.5143   -5.4699 H   0  0  0  0  0  0  0  0  0  0  0  0
    3.6816   -5.3241   -6.4647 H   0  0  0  0  0  0  0  0  0  0  0  0
    3.2306   -6.6428   -5.3874 H   0  0  0  0  0  0  0  0  0  0  0  0
    2.1790   -6.1909   -6.7571 H   0  0  0  0  0  0  0  0  0  0  0  0
    1.2768   -7.8736   -5.2098 H   0  0  0  0  0  0  0  0  0  0  0  0
   -1.1374   -5.0448   -3.2017 H   0  0  0  0  0  0  0  0  0  0  0  0
   -0.2917   -9.5923   -4.6600 H   0  0  0  0  0  0  0  0  0  0  0  0
   -2.7189   -6.7802   -2.6946 H   0  0  0  0  0  0  0  0  0  0  0  0
    0.0793   -2.8030   -4.4215 H   0  0  0  0  0  0  0  0  0  0  0  0
    4.1750   -1.9560   -3.8845 H   0  0  0  0  0  0  0  0  0  0  0  0
   -0.4810   -1.0717   -2.8546 H   0  0  0  0  0  0  0  0  0  0  0  0
    3.5997   -0.1817   -2.3562 H   0  0  0  0  0  0  0  0  0  0  0  0
   -4.1729   -8.5267   -4.3870 H   0  0  0  0  0  0  0  0  0  0  0  0
   -3.2028   -9.7309   -5.2779 H   0  0  0  0  0  0  0  0  0  0  0  0
   -5.4071  -10.6460   -4.5433 H   0  0  0  0  0  0  0  0  0  0  0  0
   -4.9689  -10.3488   -2.8509 H   0  0  0  0  0  0  0  0  0  0  0  0
   -4.0614  -11.5329   -3.8085 H   0  0  0  0  0  0  0  0  0  0  0  0
    0.6847   -1.0563   -0.0176 H   0  0  0  0  0  0  0  0  0  0  0  0
    2.3330   -0.3893    0.1110 H   0  0  0  0  0  0  0  0  0  0  0  0
    1.3941    1.7761    0.8961 H   0  0  0  0  0  0  0  0  0  0  0  0
   -0.2529    1.1176    0.7532 H   0  0  0  0  0  0  0  0  0  0  0  0
    0.8808    0.4285    1.9323 H   0  0  0  0  0  0  0  0  0  0  0  0
  1  2  2  0  0  0  0 
  1  3  1  0  0  0  0 
  2  4  1  0  0  0  0 
  2  5  1  0  0  0  0 
  3  6  2  0  0  0  0 
  3  7  1  0  0  0  0 
  4  8  1  0  0  0  0 
  6  9  1  0  0  0  0 
  7 10  2  0  0  0  0 
  8 11  2  0  0  0  0 
  8 12  1  0  0  0  0 
  9 13  2  0  0  0  0 
 10 13  1  0  0  0  0 
 11 14  1  0  0  0  0 
 12 15  2  0  0  0  0 
 13 16  1  0  0  0  0 
 14 17  2  0  0  0  0 
 15 17  1  0  0  0  0 
 16 18  1  0  0  0  0 
 17 19  1  0  0  0  0 
 18 20  1  0  0  0  0 
 19 21  1  0  0  0  0 
 21 22  1  0  0  0  0 
 23  4  1  0  0  0  0 
 24  5  1  0  0  0  0 
 25  5  1  0  0  0  0 
 26  5  1  0  0  0  0 
 27  6  1  0  0  0  0 
 28  7  1  0  0  0  0 
 29  9  1  0  0  0  0 
 30 10  1  0  0  0  0 
 31 11  1  0  0  0  0 
 32 12  1  0  0  0  0 
 33 14  1  0  0  0  0 
 34 15  1  0  0  0  0 
 35 18  1  0  0  0  0 
 36 18  1  0  0  0  0 
 37 20  1  0  0  0  0 
 38 20  1  0  0  0  0 
 39 20  1  0  0  0  0 
 40 21  1  0  0  0  0 
 41 21  1  0  0  0  0 
 42 22  1  0  0  0  0 
 43 22  1  0  0  0  0 
 44 22  1  0  0  0  0 
M  END
> <cdk:Title>
phenacaine

> <Conformer>
1

> <SuperDrugID>
SD002958

$$$$
