benzphetamine
  CDK     0628171801

 39 40  0  0  0  0  0  0  0  0999 V2000
   -2.8214   -0.1550   -1.6820 C   0  0  2  0  0  0  0  0  0  0  0  0
   -1.4611   -0.9298   -1.7430 C   0  0  1  0  0  0  0  0  0  0  0  0
   -2.6765    1.3218   -1.5304 C   0  0  0  0  0  0  0  0  0  0  0  0
   -1.5852   -2.4237   -1.5482 N   0  0  1  0  0  0  0  0  0  0  0  0
   -0.6698   -0.6099   -3.0418 C   0  0  0  0  0  0  0  0  0  0  0  0
   -2.2016    1.8727   -0.3156 C   0  0  0  0  0  0  0  0  0  0  0  0
   -3.0158    2.2042   -2.5844 C   0  0  0  0  0  0  0  0  0  0  0  0
   -1.6537   -2.8811   -0.1187 C   0  0  2  0  0  0  0  0  0  0  0  0
   -2.5672   -3.1285   -2.4312 C   0  0  0  0  0  0  0  0  0  0  0  0
   -2.0776    3.2658   -0.1558 C   0  0  0  0  0  0  0  0  0  0  0  0
   -2.8928    3.5975   -2.4243 C   0  0  0  0  0  0  0  0  0  0  0  0
   -0.3652   -2.7454    0.6152 C   0  0  0  0  0  0  0  0  0  0  0  0
   -2.4235    4.1286   -1.2101 C   0  0  0  0  0  0  0  0  0  0  0  0
    0.7891   -3.4278    0.1619 C   0  0  0  0  0  0  0  0  0  0  0  0
   -0.2692   -1.9683    1.7940 C   0  0  0  0  0  0  0  0  0  0  0  0
    1.9979   -3.3571    0.8787 C   0  0  0  0  0  0  0  0  0  0  0  0
    0.9401   -1.8939    2.5102 C   0  0  0  0  0  0  0  0  0  0  0  0
    2.0723   -2.5913    2.0547 C   0  0  0  0  0  0  0  0  0  0  0  0
   -3.4150   -0.5190   -0.8402 H   0  0  0  0  0  0  0  0  0  0  0  0
   -3.3970   -0.3892   -2.5824 H   0  0  0  0  0  0  0  0  0  0  0  0
   -0.8287   -0.5480   -0.9365 H   0  0  0  0  0  0  0  0  0  0  0  0
   -0.3645    0.4389   -3.0493 H   0  0  0  0  0  0  0  0  0  0  0  0
   -1.2742   -0.7983   -3.9302 H   0  0  0  0  0  0  0  0  0  0  0  0
    0.2307   -1.2242   -3.0962 H   0  0  0  0  0  0  0  0  0  0  0  0
   -1.9471    1.2621    0.4648 H   0  0  0  0  0  0  0  0  0  0  0  0
   -3.3543    1.8417   -3.4788 H   0  0  0  0  0  0  0  0  0  0  0  0
   -1.9177   -3.9409   -0.0638 H   0  0  0  0  0  0  0  0  0  0  0  0
   -2.4562   -2.3419    0.3899 H   0  0  0  0  0  0  0  0  0  0  0  0
   -2.4608   -2.8264   -3.4724 H   0  0  0  0  0  0  0  0  0  0  0  0
   -2.3996   -4.2067   -2.3947 H   0  0  0  0  0  0  0  0  0  0  0  0
   -3.5943   -2.9307   -2.1168 H   0  0  0  0  0  0  0  0  0  0  0  0
   -1.7364    3.6512    0.7281 H   0  0  0  0  0  0  0  0  0  0  0  0
   -3.1436    4.2259   -3.1919 H   0  0  0  0  0  0  0  0  0  0  0  0
   -2.3346    5.1407   -1.0926 H   0  0  0  0  0  0  0  0  0  0  0  0
    0.7565   -3.9888   -0.6920 H   0  0  0  0  0  0  0  0  0  0  0  0
   -1.0807   -1.4558    2.1451 H   0  0  0  0  0  0  0  0  0  0  0  0
    2.8204   -3.8688    0.5504 H   0  0  0  0  0  0  0  0  0  0  0  0
    0.9939   -1.3372    3.3669 H   0  0  0  0  0  0  0  0  0  0  0  0
    2.9476   -2.5431    2.5792 H   0  0  0  0  0  0  0  0  0  0  0  0
  2  1  1  0  0  0  0 
  1  3  1  0  0  0  0 
  2  4  1  0  0  0  0 
  2  5  1  0  0  0  0 
  3  6  2  0  0  0  0 
  3  7  1  0  0  0  0 
  4  8  1  0  0  0  0 
  4  9  1  0  0  0  0 
  6 10  1  0  0  0  0 
  7 11  2  0  0  0  0 
  8 12  1  0  0  0  0 
 10 13  2  0  0  0  0 
 11 13  1  0  0  0  0 
 12 14  2  0  0  0  0 
 12 15  1  0  0  0  0 
 14 16  1  0  0  0  0 
 15 17  2  0  0  0  0 
 16 18  2  0  0  0  0 
 17 18  1  0  0  0  0 
  1 19  1  0  0  0  0 
  1 20  1  0  0  0  0 
  2 21  1  0  0  0  0 
  5 22  1  0  0  0  0 
  5 23  1  0  0  0  0 
  5 24  1  0  0  0  0 
  6 25  1  0  0  0  0 
  7 26  1  0  0  0  0 
  8 27  1  0  0  0  0 
  8 28  1  0  0  0  0 
  9 29  1  0  0  0  0 
  9 30  1  0  0  0  0 
  9 31  1  0  0  0  0 
 10 32  1  0  0  0  0 
 11 33  1  0  0  0  0 
 13 34  1  0  0  0  0 
 14 35  1  0  0  0  0 
 15 36  1  0  0  0  0 
 16 37  1  0  0  0  0 
 17 38  1  0  0  0  0 
 18 39  1  0  0  0  0 
M  END
> <cdk:Title>
benzphetamine

> <Conformer>
1

> <SuperDrugID>
SD000277

$$$$
