bunamiodyl
  CDK     0628171801

 38 38  0  0  0  0  0  0  0  0999 V2000
   -5.5234   -0.1501   -0.5076 C   0  0  0  0  0  0  0  0  0  0  0  0
   -4.2965   -0.2908    0.1604 C   0  0  0  0  0  0  0  0  0  0  0  0
   -3.7351   -1.5632    0.3578 C   0  0  0  0  0  0  0  0  0  0  0  0
   -4.3967   -2.7154   -0.1189 C   0  0  0  0  0  0  0  0  0  0  0  0
   -5.6385   -2.5812   -0.7913 C   0  0  0  0  0  0  0  0  0  0  0  0
   -6.1980   -1.2925   -1.0007 C   0  0  0  0  0  0  0  0  0  0  0  0
   -3.8247   -3.9265    0.1296 N   0  0  0  0  0  0  0  0  0  0  0  0
   -7.4205   -1.1405   -1.6271 C   0  0  0  0  0  0  0  0  0  0  0  0
   -6.2742    1.7543   -0.7266 I   0  0  0  0  0  0  0  0  0  0  0  0
   -7.6649   -1.2370   -2.9574 C   0  0  0  0  0  0  0  0  0  0  0  0
   -8.9829   -1.1202   -3.4195 C   0  0  0  0  0  0  0  0  0  0  0  0
   -6.5874   -1.4498   -3.9429 C   0  0  1  0  0  0  0  0  0  0  0  0
   -5.7671   -0.1756   -4.2501 C   0  0  0  0  0  0  0  0  0  0  0  0
   -9.2571   -0.7628   -4.6979 O   0  0  0  0  0  0  0  0  0  0  0  0
   -9.9782   -1.3379   -2.6879 O   0  0  0  0  0  0  0  0  0  0  0  0
   -6.6619   -4.2712   -1.3971 I   0  0  0  0  0  0  0  0  0  0  0  0
   -1.9260   -1.6869    1.3287 I   0  0  0  0  0  0  0  0  0  0  0  0
   -3.3718   -4.8006   -0.8129 C   0  0  0  0  0  0  0  0  0  0  0  0
   -3.4319   -4.5269   -2.0357 O   0  0  0  0  0  0  0  0  0  0  0  0
   -2.7866   -6.0931   -0.3958 C   0  0  1  0  0  0  0  0  0  0  0  0
   -1.3128   -5.9559    0.0690 C   0  0  1  0  0  0  0  0  0  0  0  0
   -0.6569   -7.3317    0.3298 C   0  0  0  0  0  0  0  0  0  0  0  0
   -3.8068    0.5377    0.5064 H   0  0  0  0  0  0  0  0  0  0  0  0
   -3.6949   -4.1685    1.0605 H   0  0  0  0  0  0  0  0  0  0  0  0
   -8.1691   -0.9342   -1.0053 H   0  0  0  0  0  0  0  0  0  0  0  0
   -5.9048   -2.2315   -3.6093 H   0  0  0  0  0  0  0  0  0  0  0  0
   -6.9919   -1.8157   -4.8906 H   0  0  0  0  0  0  0  0  0  0  0  0
   -5.0586   -0.3892   -5.0528 H   0  0  0  0  0  0  0  0  0  0  0  0
   -6.4222    0.6363   -4.5704 H   0  0  0  0  0  0  0  0  0  0  0  0
   -5.2025    0.1504   -3.3762 H   0  0  0  0  0  0  0  0  0  0  0  0
  -10.1835   -0.6970   -5.0121 H   0  0  0  0  0  0  0  0  0  0  0  0
   -3.3893   -6.5113    0.4152 H   0  0  0  0  0  0  0  0  0  0  0  0
   -2.8340   -6.7944   -1.2338 H   0  0  0  0  0  0  0  0  0  0  0  0
   -0.7306   -5.4345   -0.6958 H   0  0  0  0  0  0  0  0  0  0  0  0
   -1.2738   -5.3603    0.9848 H   0  0  0  0  0  0  0  0  0  0  0  0
   -0.6119   -7.9038   -0.5989 H   0  0  0  0  0  0  0  0  0  0  0  0
   -1.2332   -7.8965    1.0651 H   0  0  0  0  0  0  0  0  0  0  0  0
    0.3592   -7.2044    0.7074 H   0  0  0  0  0  0  0  0  0  0  0  0
  1  2  2  0  0  0  0 
  2  3  1  0  0  0  0 
  3  4  2  0  0  0  0 
  4  5  1  0  0  0  0 
  5  6  2  0  0  0  0 
  1  6  1  0  0  0  0 
  4  7  1  0  0  0  0 
  6  8  1  0  0  0  0 
  1  9  1  0  0  0  0 
  8 10  2  0  0  0  0 
 10 11  1  0  0  0  0 
 10 12  1  0  0  0  0 
 12 13  1  0  0  0  0 
 11 14  1  0  0  0  0 
 11 15  2  0  0  0  0 
  5 16  1  0  0  0  0 
  3 17  1  0  0  0  0 
  7 18  1  0  0  0  0 
 18 19  2  0  0  0  0 
 18 20  1  0  0  0  0 
 20 21  1  0  0  0  0 
 21 22  1  0  0  0  0 
  2 23  1  0  0  0  0 
  7 24  1  0  0  0  0 
  8 25  1  0  0  0  0 
 12 26  1  0  0  0  0 
 12 27  1  0  0  0  0 
 13 28  1  0  0  0  0 
 13 29  1  0  0  0  0 
 13 30  1  0  0  0  0 
 14 31  1  0  0  0  0 
 20 32  1  0  0  0  0 
 20 33  1  0  0  0  0 
 21 34  1  0  0  0  0 
 21 35  1  0  0  0  0 
 22 36  1  0  0  0  0 
 22 37  1  0  0  0  0 
 22 38  1  0  0  0  0 
M  END
> <cdk:Title>
bunamiodyl

> <Conformer>
1

> <SuperDrugID>
SD002647

$$$$
