rimiterol
  CDK     0628171801

 33 34  0  0  0  0  0  0  0  0999 V2000
    0.2185    3.8059   -1.6918 O   0  0  0  0  0  0  0  0  0  0  0  0
    1.2758    3.4302   -0.8073 C   0  0  1  0  0  0  0  0  0  0  0  0
    1.0154    1.9973   -0.2446 C   0  0  1  0  0  0  0  0  0  0  0  0
    2.2080    1.3999    0.5676 C   0  0  1  0  0  0  0  0  0  0  0  0
    1.8209    0.0434    1.2155 C   0  0  1  0  0  0  0  0  0  0  0  0
    0.5256    0.1659    2.0562 C   0  0  1  0  0  0  0  0  0  0  0  0
   -0.6152    0.7857    1.2169 C   0  0  1  0  0  0  0  0  0  0  0  0
   -0.1945    2.0716    0.6203 N   0  0  2  0  0  0  0  0  0  0  0  0
    2.5595    3.5998   -1.5482 C   0  0  0  0  0  0  0  0  0  0  0  0
    3.5454    4.5091   -1.0943 C   0  0  0  0  0  0  0  0  0  0  0  0
    4.7609    4.6742   -1.7864 C   0  0  0  0  0  0  0  0  0  0  0  0
    5.6738    5.5550   -1.3000 O   0  0  0  0  0  0  0  0  0  0  0  0
    5.0063    3.9299   -2.9580 C   0  0  0  0  0  0  0  0  0  0  0  0
    6.1774    4.0823   -3.6274 O   0  0  0  0  0  0  0  0  0  0  0  0
    4.0310    3.0271   -3.4257 C   0  0  0  0  0  0  0  0  0  0  0  0
    2.8201    2.8650   -2.7302 C   0  0  0  0  0  0  0  0  0  0  0  0
   -0.6049    3.7382   -1.1640 H   0  0  0  0  0  0  0  0  0  0  0  0
    1.2379    4.1299    0.0331 H   0  0  0  0  0  0  0  0  0  0  0  0
    0.8005    1.3264   -1.0829 H   0  0  0  0  0  0  0  0  0  0  0  0
    3.0672    1.2337   -0.0877 H   0  0  0  0  0  0  0  0  0  0  0  0
    2.5122    2.1013    1.3512 H   0  0  0  0  0  0  0  0  0  0  0  0
    1.6698   -0.7022    0.4282 H   0  0  0  0  0  0  0  0  0  0  0  0
    2.6381   -0.3048    1.8535 H   0  0  0  0  0  0  0  0  0  0  0  0
    0.2188   -0.8215    2.4056 H   0  0  0  0  0  0  0  0  0  0  0  0
    0.7196    0.7924    2.9316 H   0  0  0  0  0  0  0  0  0  0  0  0
   -0.9244    0.0959    0.4284 H   0  0  0  0  0  0  0  0  0  0  0  0
   -1.4772    0.9730    1.8598 H   0  0  0  0  0  0  0  0  0  0  0  0
   -0.9656    2.3970    0.0348 H   0  0  0  0  0  0  0  0  0  0  0  0
    3.3831    5.0589   -0.2461 H   0  0  0  0  0  0  0  0  0  0  0  0
    6.5020    5.3950   -1.7968 H   0  0  0  0  0  0  0  0  0  0  0  0
    6.1033    3.5216   -4.4290 H   0  0  0  0  0  0  0  0  0  0  0  0
    4.2008    2.4822   -4.2742 H   0  0  0  0  0  0  0  0  0  0  0  0
    2.1302    2.2061   -3.0934 H   0  0  0  0  0  0  0  0  0  0  0  0
  2  1  1  0  0  0  0 
  3  2  1  0  0  0  0 
  3  4  1  0  0  0  0 
  4  5  1  0  0  0  0 
  5  6  1  0  0  0  0 
  6  7  1  0  0  0  0 
  7  8  1  0  0  0  0 
  3  8  1  0  0  0  0 
  2  9  1  0  0  0  0 
  9 10  2  0  0  0  0 
 10 11  1  0  0  0  0 
 11 12  1  0  0  0  0 
 11 13  2  0  0  0  0 
 13 14  1  0  0  0  0 
 13 15  1  0  0  0  0 
 15 16  2  0  0  0  0 
  9 16  1  0  0  0  0 
  1 17  1  0  0  0  0 
  2 18  1  0  0  0  0 
  3 19  1  0  0  0  0 
  4 20  1  0  0  0  0 
  4 21  1  0  0  0  0 
  5 22  1  0  0  0  0 
  5 23  1  0  0  0  0 
  6 24  1  0  0  0  0 
  6 25  1  0  0  0  0 
  7 26  1  0  0  0  0 
  7 27  1  0  0  0  0 
  8 28  1  0  0  0  0 
 10 29  1  0  0  0  0 
 12 30  1  0  0  0  0 
 14 31  1  0  0  0  0 
 15 32  1  0  0  0  0 
 16 33  1  0  0  0  0 
M  END
> <cdk:Title>
rimiterol

> <Conformer>
1

> <SuperDrugID>
SD002146

$$$$
