suvorexant
  CDK     0628171802

 55 59  0  0  0  0  0  0  0  0999 V2000
   -4.4606    7.4534    5.7743 C   0  0  0  0  0  0  0  0  0  0  0  0
   -5.6981    7.6720    6.4173 C   0  0  0  0  0  0  0  0  0  0  0  0
   -6.8794    7.0633    5.9298 C   0  0  0  0  0  0  0  0  0  0  0  0
   -6.8307    6.2343    4.7856 C   0  0  0  0  0  0  0  0  0  0  0  0
   -5.5900    6.0220    4.1610 C   0  0  0  0  0  0  0  0  0  0  0  0
   -4.4338    6.6212    4.6425 C   0  0  0  0  0  0  0  0  0  0  0  0
   -5.2690    5.2865    3.0888 N   0  0  0  0  0  0  0  0  0  0  0  0
   -3.9371    5.4324    2.8970 C   0  0  0  0  0  0  0  0  0  0  0  0
   -3.4103    6.2505    3.8496 O   0  0  0  0  0  0  0  0  0  0  0  0
   -3.2026    4.8543    1.8845 N   0  0  0  0  0  0  0  0  0  0  0  0
   -1.8499    5.2995    1.6094 C   0  0  2  0  0  0  0  0  0  0  0  0
   -0.7699    4.3036    2.1004 C   0  0  1  0  0  0  0  0  0  0  0  0
   -1.0055    2.9476    1.6061 N   0  0  0  0  0  0  0  0  0  0  0  0
   -2.0545    2.1807    2.3003 C   0  0  1  0  0  0  0  0  0  0  0  0
   -3.4604    2.3613    1.6422 C   0  0  1  0  0  0  0  0  0  0  0  0
   -3.7531    3.7810    1.0752 C   0  0  2  0  0  0  0  0  0  0  0  0
   -0.2814    2.5056    0.4972 C   0  0  0  0  0  0  0  0  0  0  0  0
    0.4899    3.2752   -0.1264 O   0  0  0  0  0  0  0  0  0  0  0  0
   -0.2764    1.1999   -0.0364 C   0  0  0  0  0  0  0  0  0  0  0  0
   -1.3551    0.8051   -0.8613 C   0  0  0  0  0  0  0  0  0  0  0  0
   -1.4284   -0.5024   -1.3893 C   0  0  0  0  0  0  0  0  0  0  0  0
   -0.3606   -1.3920   -1.1471 C   0  0  0  0  0  0  0  0  0  0  0  0
    0.7416   -0.9904   -0.3749 C   0  0  0  0  0  0  0  0  0  0  0  0
    0.8043    0.3000    0.2047 C   0  0  0  0  0  0  0  0  0  0  0  0
    1.9066    0.6266    0.9672 N   0  0  0  0  0  0  0  0  0  0  0  0
   -2.6206   -0.9229   -2.1639 C   0  0  0  0  0  0  0  0  0  0  0  0
    1.9060    1.4243    1.9983 N   0  0  0  0  0  0  0  0  0  0  0  0
    3.1566    1.5143    2.4613 C   0  0  0  0  0  0  0  0  0  0  0  0
    3.9326    0.7104    1.6526 C   0  0  0  0  0  0  0  0  0  0  0  0
    3.1103    0.1772    0.7435 N   0  0  0  0  0  0  0  0  0  0  0  0
   -1.7523    0.6886    2.6281 C   0  0  0  0  0  0  0  0  0  0  0  0
   -8.3550    7.3218    6.7192 Cl  0  0  0  0  0  0  0  0  0  0  0  0
   -3.6057    7.8881    6.1250 H   0  0  0  0  0  0  0  0  0  0  0  0
   -5.7336    8.2770    7.2415 H   0  0  0  0  0  0  0  0  0  0  0  0
   -7.6737    5.7950    4.4131 H   0  0  0  0  0  0  0  0  0  0  0  0
   -1.6407    6.2746    2.0605 H   0  0  0  0  0  0  0  0  0  0  0  0
   -1.7275    5.4406    0.5319 H   0  0  0  0  0  0  0  0  0  0  0  0
    0.2057    4.6972    1.8045 H   0  0  0  0  0  0  0  0  0  0  0  0
   -0.7378    4.3163    3.1932 H   0  0  0  0  0  0  0  0  0  0  0  0
   -2.1745    2.6083    3.3035 H   0  0  0  0  0  0  0  0  0  0  0  0
   -3.5882    1.6372    0.8342 H   0  0  0  0  0  0  0  0  0  0  0  0
   -4.2286    2.1297    2.3857 H   0  0  0  0  0  0  0  0  0  0  0  0
   -3.3347    3.8219    0.0664 H   0  0  0  0  0  0  0  0  0  0  0  0
   -4.8341    3.8960    0.9334 H   0  0  0  0  0  0  0  0  0  0  0  0
   -2.1053    1.4701   -1.0737 H   0  0  0  0  0  0  0  0  0  0  0  0
   -0.3766   -2.3412   -1.5256 H   0  0  0  0  0  0  0  0  0  0  0  0
    1.4991   -1.6629   -0.2302 H   0  0  0  0  0  0  0  0  0  0  0  0
   -2.5590   -1.9657   -2.4842 H   0  0  0  0  0  0  0  0  0  0  0  0
   -3.5114   -0.8144   -1.5439 H   0  0  0  0  0  0  0  0  0  0  0  0
   -2.7295   -0.2959   -3.0494 H   0  0  0  0  0  0  0  0  0  0  0  0
    3.4746    2.0709    3.2567 H   0  0  0  0  0  0  0  0  0  0  0  0
    4.9386    0.5536    1.7290 H   0  0  0  0  0  0  0  0  0  0  0  0
   -1.9006    0.0427    1.7648 H   0  0  0  0  0  0  0  0  0  0  0  0
   -2.4213    0.3314    3.4132 H   0  0  0  0  0  0  0  0  0  0  0  0
   -0.7288    0.5774    2.9872 H   0  0  0  0  0  0  0  0  0  0  0  0
  1  2  1  0  0  0  0 
  1  6  2  0  0  0  0 
  2  3  2  0  0  0  0 
  3  4  1  0  0  0  0 
  4  5  2  0  0  0  0 
  5  6  1  0  0  0  0 
  7  8  2  0  0  0  0 
  8  9  1  0  0  0  0 
  5  7  1  0  0  0  0 
  6  9  1  0  0  0  0 
  8 10  1  0  0  0  0 
 11 12  1  0  0  0  0 
 12 13  1  0  0  0  0 
 13 14  1  0  0  0  0 
 14 15  1  0  0  0  0 
 15 16  1  0  0  0  0 
 10 11  1  0  0  0  0 
 16 10  1  0  0  0  0 
 13 17  1  0  0  0  0 
 17 18  2  0  0  0  0 
 17 19  1  0  0  0  0 
 20 21  1  0  0  0  0 
 21 22  2  0  0  0  0 
 22 23  1  0  0  0  0 
 23 24  2  0  0  0  0 
 19 20  2  0  0  0  0 
 19 24  1  0  0  0  0 
 24 25  1  0  0  0  0 
 21 26  1  0  0  0  0 
 27 28  2  0  0  0  0 
 28 29  1  0  0  0  0 
 29 30  2  0  0  0  0 
 25 27  1  0  0  0  0 
 25 30  1  0  0  0  0 
 14 31  1  0  0  0  0 
  3 32  1  0  0  0  0 
  1 33  1  0  0  0  0 
  2 34  1  0  0  0  0 
  4 35  1  0  0  0  0 
 11 36  1  0  0  0  0 
 11 37  1  0  0  0  0 
 12 38  1  0  0  0  0 
 12 39  1  0  0  0  0 
 14 40  1  0  0  0  0 
 15 41  1  0  0  0  0 
 15 42  1  0  0  0  0 
 16 43  1  0  0  0  0 
 16 44  1  0  0  0  0 
 20 45  1  0  0  0  0 
 22 46  1  0  0  0  0 
 23 47  1  0  0  0  0 
 26 48  1  0  0  0  0 
 26 49  1  0  0  0  0 
 26 50  1  0  0  0  0 
 28 51  1  0  0  0  0 
 29 52  1  0  0  0  0 
 31 53  1  0  0  0  0 
 31 54  1  0  0  0  0 
 31 55  1  0  0  0  0 
M  END
> <cdk:Title>
suvorexant

> <Conformer>
1

> <SuperDrugID>
SD003821

$$$$
