roquinimex
  CDK     0628171801

 39 41  0  0  0  0  0  0  0  0999 V2000
   -1.7258   -2.0627   -0.8654 O   0  0  0  0  0  0  0  0  0  0  0  0
   -1.4899   -2.0546    0.4754 C   0  0  0  0  0  0  0  0  0  0  0  0
   -1.9588   -3.1296    1.2623 C   0  0  0  0  0  0  0  0  0  0  0  0
   -0.7874   -0.9855    1.0711 C   0  0  0  0  0  0  0  0  0  0  0  0
   -1.6042   -3.1845    2.6469 C   0  0  0  0  0  0  0  0  0  0  0  0
   -2.7780   -4.1390    0.6930 C   0  0  0  0  0  0  0  0  0  0  0  0
   -0.4330    0.1876    0.3350 C   0  0  0  0  0  0  0  0  0  0  0  0
   -0.4539   -1.0934    2.4451 C   0  0  0  0  0  0  0  0  0  0  0  0
   -0.8119   -2.1900    3.2011 N   0  0  0  0  0  0  0  0  0  0  0  0
   -2.1039   -4.2858    3.3999 C   0  0  0  0  0  0  0  0  0  0  0  0
   -3.2585   -5.2008    1.4723 C   0  0  0  0  0  0  0  0  0  0  0  0
   -1.3285    1.0264   -0.3216 N   0  0  0  0  0  0  0  0  0  0  0  0
    0.7912    0.4696    0.3371 O   0  0  0  0  0  0  0  0  0  0  0  0
    0.1680   -0.1323    2.9670 O   0  0  0  0  0  0  0  0  0  0  0  0
   -0.3555   -2.2874    4.5831 C   0  0  0  0  0  0  0  0  0  0  0  0
   -2.9191   -5.2742    2.8272 C   0  0  0  0  0  0  0  0  0  0  0  0
   -0.8533    2.2645   -0.8988 C   0  0  0  0  0  0  0  0  0  0  0  0
   -2.6707    0.7447   -0.4277 C   0  0  0  0  0  0  0  0  0  0  0  0
   -3.5101    0.6689    0.7089 C   0  0  0  0  0  0  0  0  0  0  0  0
   -3.2293    0.5184   -1.7070 C   0  0  0  0  0  0  0  0  0  0  0  0
   -4.8801    0.3764    0.5627 C   0  0  0  0  0  0  0  0  0  0  0  0
   -4.5956    0.2241   -1.8523 C   0  0  0  0  0  0  0  0  0  0  0  0
   -5.4215    0.1496   -0.7171 C   0  0  0  0  0  0  0  0  0  0  0  0
   -1.0182   -1.5181   -1.2666 H   0  0  0  0  0  0  0  0  0  0  0  0
   -3.0506   -4.1097   -0.2927 H   0  0  0  0  0  0  0  0  0  0  0  0
   -1.8911   -4.3915    4.3904 H   0  0  0  0  0  0  0  0  0  0  0  0
   -3.8593   -5.9177    1.0575 H   0  0  0  0  0  0  0  0  0  0  0  0
    0.1842   -3.2256    4.7285 H   0  0  0  0  0  0  0  0  0  0  0  0
    0.3288   -1.4976    4.8949 H   0  0  0  0  0  0  0  0  0  0  0  0
   -1.2092   -2.2518    5.2621 H   0  0  0  0  0  0  0  0  0  0  0  0
   -3.2676   -6.0473    3.3980 H   0  0  0  0  0  0  0  0  0  0  0  0
   -1.6305    2.8399   -1.4133 H   0  0  0  0  0  0  0  0  0  0  0  0
   -0.0564    2.0669   -1.6197 H   0  0  0  0  0  0  0  0  0  0  0  0
   -0.4573    2.8960   -0.1003 H   0  0  0  0  0  0  0  0  0  0  0  0
   -3.1272    0.8267    1.6450 H   0  0  0  0  0  0  0  0  0  0  0  0
   -2.6381    0.5619   -2.5401 H   0  0  0  0  0  0  0  0  0  0  0  0
   -5.4825    0.3309    1.3878 H   0  0  0  0  0  0  0  0  0  0  0  0
   -4.9858    0.0668   -2.7846 H   0  0  0  0  0  0  0  0  0  0  0  0
   -6.4156   -0.0637   -0.8243 H   0  0  0  0  0  0  0  0  0  0  0  0
  1  2  1  0  0  0  0 
  2  3  1  0  0  0  0 
  2  4  2  0  0  0  0 
  3  5  1  0  0  0  0 
  3  6  2  0  0  0  0 
  4  7  1  0  0  0  0 
  4  8  1  0  0  0  0 
  5  9  1  0  0  0  0 
  5 10  2  0  0  0  0 
  6 11  1  0  0  0  0 
  7 12  1  0  0  0  0 
  7 13  2  0  0  0  0 
  8  9  1  0  0  0  0 
  8 14  2  0  0  0  0 
  9 15  1  0  0  0  0 
 10 16  1  0  0  0  0 
 11 16  2  0  0  0  0 
 12 17  1  0  0  0  0 
 12 18  1  0  0  0  0 
 18 19  2  0  0  0  0 
 18 20  1  0  0  0  0 
 19 21  1  0  0  0  0 
 20 22  2  0  0  0  0 
 21 23  2  0  0  0  0 
 22 23  1  0  0  0  0 
  1 24  1  0  0  0  0 
  6 25  1  0  0  0  0 
 10 26  1  0  0  0  0 
 11 27  1  0  0  0  0 
 15 28  1  0  0  0  0 
 15 29  1  0  0  0  0 
 15 30  1  0  0  0  0 
 16 31  1  0  0  0  0 
 17 32  1  0  0  0  0 
 17 33  1  0  0  0  0 
 17 34  1  0  0  0  0 
 19 35  1  0  0  0  0 
 20 36  1  0  0  0  0 
 21 37  1  0  0  0  0 
 22 38  1  0  0  0  0 
 23 39  1  0  0  0  0 
M  END
> <cdk:Title>
roquinimex

> <Conformer>
1

> <SuperDrugID>
SD003039

$$$$
