bufogenin
  CDK     0628171801

 60 65  0  0  0  0  0  0  0  0999 V2000
    2.9032   -2.5881   -4.6546 C   0  0  0  0  0  0  0  0  0  0  0  0
    1.7735   -1.9890   -3.7507 C   0  0  2  0  0  0  0  0  0  0  0  0
    0.6045   -3.0097   -3.6108 C   0  0  2  0  0  0  0  0  0  0  0  0
    1.1362   -0.6480   -4.3114 C   0  0  2  0  0  0  0  0  0  0  0  0
    2.3223   -1.7374   -2.2945 C   0  0  2  0  0  0  0  0  0  0  0  0
   -0.6763   -2.2105   -3.6575 C   0  0  2  0  0  0  0  0  0  0  0  0
    0.7800   -4.2926   -2.7251 C   0  0  1  0  0  0  0  0  0  0  0  0
   -0.3377   -3.1472   -4.6877 O   0  0  0  0  0  0  0  0  0  0  0  0
   -0.3764   -0.7376   -3.9583 C   0  0  1  0  0  0  0  0  0  0  0  0
    1.3899   -0.2822   -5.7539 C   0  0  0  0  0  0  0  0  0  0  0  0
    2.5734   -3.0049   -1.4336 C   0  0  2  0  0  0  0  0  0  0  0  0
    1.3046   -3.9159   -1.2900 C   0  0  2  0  0  0  0  0  0  0  0  0
   -0.4565   -5.2451   -2.7079 C   0  0  1  0  0  0  0  0  0  0  0  0
    0.9062   -1.0499   -6.8424 C   0  0  0  0  0  0  0  0  0  0  0  0
    2.1420    0.8727   -6.0830 C   0  0  0  0  0  0  0  0  0  0  0  0
    1.4936   -5.1708   -0.3194 C   0  0  2  0  0  0  0  0  0  0  0  0
   -0.2408   -6.4685   -1.7876 C   0  0  2  0  0  0  0  0  0  0  0  0
    1.1871   -0.7074   -8.1760 C   0  0  0  0  0  0  0  0  0  0  0  0
    2.3892    1.1951   -7.3873 O   0  0  0  0  0  0  0  0  0  0  0  0
    2.7373   -6.0433   -0.7485 C   0  0  0  0  0  0  0  0  0  0  0  0
    0.1841   -6.0690   -0.3407 C   0  0  2  0  0  0  0  0  0  0  0  0
    1.7700   -4.7580    1.1844 C   0  0  2  0  0  0  0  0  0  0  0  0
    1.9435    0.4449   -8.4347 C   0  0  0  0  0  0  0  0  0  0  0  0
   -1.0233   -5.4593    0.4567 C   0  0  1  0  0  0  0  0  0  0  0  0
    0.5631   -4.1497    1.9456 C   0  0  1  0  0  0  0  0  0  0  0  0
    2.2124    0.7958   -9.6055 O   0  0  0  0  0  0  0  0  0  0  0  0
   -0.6582   -5.0993    1.9176 C   0  0  2  0  0  0  0  0  0  0  0  0
   -0.3945   -6.2892    2.6638 O   0  0  0  0  0  0  0  0  0  0  0  0
    1.5665   -4.8625   -3.2225 H   0  0  0  0  0  0  0  0  0  0  0  0
    0.5286   -3.2843   -0.8522 H   0  0  0  0  0  0  0  0  0  0  0  0
    0.4141   -7.0127    0.1678 H   0  0  0  0  0  0  0  0  0  0  0  0
    3.3479   -3.4800   -4.2124 H   0  0  0  0  0  0  0  0  0  0  0  0
    3.6988   -1.8560   -4.8074 H   0  0  0  0  0  0  0  0  0  0  0  0
    2.5145   -2.8796   -5.6299 H   0  0  0  0  0  0  0  0  0  0  0  0
    1.5327    0.1855   -3.7193 H   0  0  0  0  0  0  0  0  0  0  0  0
    1.6107   -1.1206   -1.7356 H   0  0  0  0  0  0  0  0  0  0  0  0
    3.2539   -1.1667   -2.3527 H   0  0  0  0  0  0  0  0  0  0  0  0
   -1.4655   -2.4888   -2.9615 H   0  0  0  0  0  0  0  0  0  0  0  0
   -0.5972   -0.1480   -3.0642 H   0  0  0  0  0  0  0  0  0  0  0  0
   -1.0247   -0.3868   -4.7642 H   0  0  0  0  0  0  0  0  0  0  0  0
    2.8958   -2.6558   -0.4524 H   0  0  0  0  0  0  0  0  0  0  0  0
    3.4006   -3.5680   -1.8673 H   0  0  0  0  0  0  0  0  0  0  0  0
   -1.3473   -4.7137   -2.3759 H   0  0  0  0  0  0  0  0  0  0  0  0
   -0.6559   -5.6078   -3.7223 H   0  0  0  0  0  0  0  0  0  0  0  0
    0.3432   -1.8839   -6.6803 H   0  0  0  0  0  0  0  0  0  0  0  0
    2.5176    1.4866   -5.3546 H   0  0  0  0  0  0  0  0  0  0  0  0
    0.5218   -7.1146   -2.2300 H   0  0  0  0  0  0  0  0  0  0  0  0
   -1.1625   -7.0554   -1.7542 H   0  0  0  0  0  0  0  0  0  0  0  0
    0.8457   -1.2918   -8.9420 H   0  0  0  0  0  0  0  0  0  0  0  0
    2.7253   -6.2880   -1.8097 H   0  0  0  0  0  0  0  0  0  0  0  0
    3.6800   -5.5299   -0.5391 H   0  0  0  0  0  0  0  0  0  0  0  0
    2.7608   -6.9888   -0.1999 H   0  0  0  0  0  0  0  0  0  0  0  0
    2.6024   -4.0572    1.2536 H   0  0  0  0  0  0  0  0  0  0  0  0
    2.0837   -5.6406    1.7523 H   0  0  0  0  0  0  0  0  0  0  0  0
   -1.3990   -4.5560   -0.0294 H   0  0  0  0  0  0  0  0  0  0  0  0
   -1.8468   -6.1782    0.4799 H   0  0  0  0  0  0  0  0  0  0  0  0
    0.8488   -3.9655    2.9851 H   0  0  0  0  0  0  0  0  0  0  0  0
    0.2915   -3.1862    1.5082 H   0  0  0  0  0  0  0  0  0  0  0  0
   -1.5078   -4.5979    2.3903 H   0  0  0  0  0  0  0  0  0  0  0  0
   -0.1565   -5.9837    3.5644 H   0  0  0  0  0  0  0  0  0  0  0  0
  2  1  1  0  0  0  0 
  3  2  1  0  0  0  0 
  2  4  1  0  0  0  0 
  2  5  1  0  0  0  0 
  3  6  1  0  0  0  0 
  7  3  1  0  0  0  0 
  3  8  1  0  0  0  0 
  4  9  1  0  0  0  0 
  4 10  1  0  0  0  0 
  5 11  1  0  0  0  0 
  6  8  1  0  0  0  0 
  6  9  1  0  0  0  0 
 12  7  1  0  0  0  0 
  7 13  1  0  0  0  0 
  7 29  1  0  0  0  0 
 10 14  1  0  0  0  0 
 10 15  2  0  0  0  0 
 12 11  1  0  0  0  0 
 12 16  1  0  0  0  0 
 12 30  1  0  0  0  0 
 13 17  1  0  0  0  0 
 14 18  2  0  0  0  0 
 15 19  1  0  0  0  0 
 16 20  1  0  0  0  0 
 16 21  1  0  0  0  0 
 16 22  1  0  0  0  0 
 21 17  1  0  0  0  0 
 18 23  1  0  0  0  0 
 19 23  1  0  0  0  0 
 21 24  1  0  0  0  0 
 21 31  1  0  0  0  0 
 22 25  1  0  0  0  0 
 23 26  2  0  0  0  0 
 27 24  1  0  0  0  0 
 27 25  1  0  0  0  0 
 27 28  1  0  0  0  0 
  1 32  1  0  0  0  0 
  1 33  1  0  0  0  0 
  1 34  1  0  0  0  0 
  4 35  1  0  0  0  0 
  5 36  1  0  0  0  0 
  5 37  1  0  0  0  0 
  6 38  1  0  0  0  0 
  9 39  1  0  0  0  0 
  9 40  1  0  0  0  0 
 11 41  1  0  0  0  0 
 11 42  1  0  0  0  0 
 13 43  1  0  0  0  0 
 13 44  1  0  0  0  0 
 14 45  1  0  0  0  0 
 15 46  1  0  0  0  0 
 17 47  1  0  0  0  0 
 17 48  1  0  0  0  0 
 18 49  1  0  0  0  0 
 20 50  1  0  0  0  0 
 20 51  1  0  0  0  0 
 20 52  1  0  0  0  0 
 22 53  1  0  0  0  0 
 22 54  1  0  0  0  0 
 24 55  1  0  0  0  0 
 24 56  1  0  0  0  0 
 25 57  1  0  0  0  0 
 25 58  1  0  0  0  0 
 27 59  1  0  0  0  0 
 28 60  1  0  0  0  0 
M  END
> <cdk:Title>
bufogenin

> <Conformer>
1

> <SuperDrugID>
SD003032

$$$$
