zomepirac
  CDK     0628171801

 34 35  0  0  0  0  0  0  0  0999 V2000
    0.1673   -0.1910   -1.0976 C   0  0  0  0  0  0  0  0  0  0  0  0
   -1.0839   -0.2653   -1.0413 O   0  0  0  0  0  0  0  0  0  0  0  0
    0.7241    0.8857   -1.8456 C   0  0  0  0  0  0  0  0  0  0  0  0
    0.9378   -1.1865   -0.4263 C   0  0  0  0  0  0  0  0  0  0  0  0
    1.7713    1.6925   -1.4967 N   0  0  0  0  0  0  0  0  0  0  0  0
    0.2677    1.2770   -3.1138 C   0  0  0  0  0  0  0  0  0  0  0  0
    0.4326   -1.8301    0.7321 C   0  0  0  0  0  0  0  0  0  0  0  0
    2.2231   -1.5674   -0.8879 C   0  0  0  0  0  0  0  0  0  0  0  0
    2.4982    1.7010   -0.2493 C   0  0  0  0  0  0  0  0  0  0  0  0
    2.0273    2.5445   -2.5252 C   0  0  0  0  0  0  0  0  0  0  0  0
   -0.8375    0.7089   -3.9161 C   0  0  0  0  0  0  0  0  0  0  0  0
    1.0920    2.3110   -3.5261 C   0  0  0  0  0  0  0  0  0  0  0  0
    1.1975   -2.7846    1.4283 C   0  0  0  0  0  0  0  0  0  0  0  0
    2.9921   -2.5185   -0.1918 C   0  0  0  0  0  0  0  0  0  0  0  0
    3.1042    3.5604   -2.6372 C   0  0  1  0  0  0  0  0  0  0  0  0
    2.4874   -3.1195    0.9759 C   0  0  0  0  0  0  0  0  0  0  0  0
    4.4110    2.9245   -2.8797 C   0  0  0  0  0  0  0  0  0  0  0  0
    3.4337   -4.2337    1.8298 Cl  0  0  0  0  0  0  0  0  0  0  0  0
    5.4298    3.0796   -2.0058 O   0  0  0  0  0  0  0  0  0  0  0  0
    4.6064    2.2360   -3.9073 O   0  0  0  0  0  0  0  0  0  0  0  0
   -0.4980   -1.6010    1.0916 H   0  0  0  0  0  0  0  0  0  0  0  0
    2.6149   -1.1586   -1.7397 H   0  0  0  0  0  0  0  0  0  0  0  0
    3.5175    1.3454   -0.4093 H   0  0  0  0  0  0  0  0  0  0  0  0
    2.5440    2.7119    0.1607 H   0  0  0  0  0  0  0  0  0  0  0  0
    2.0380    1.0779    0.5172 H   0  0  0  0  0  0  0  0  0  0  0  0
   -0.9174    1.2111   -4.8823 H   0  0  0  0  0  0  0  0  0  0  0  0
   -0.6601   -0.3534   -4.0951 H   0  0  0  0  0  0  0  0  0  0  0  0
   -1.7846    0.8338   -3.3896 H   0  0  0  0  0  0  0  0  0  0  0  0
    1.0322    2.8021   -4.4196 H   0  0  0  0  0  0  0  0  0  0  0  0
    0.8111   -3.2256    2.2675 H   0  0  0  0  0  0  0  0  0  0  0  0
    3.9207   -2.7691   -0.5396 H   0  0  0  0  0  0  0  0  0  0  0  0
    2.9013    4.2385   -3.4722 H   0  0  0  0  0  0  0  0  0  0  0  0
    3.1325    4.1634   -1.7256 H   0  0  0  0  0  0  0  0  0  0  0  0
    6.2931    2.6493   -2.1780 H   0  0  0  0  0  0  0  0  0  0  0  0
  1  2  2  0  0  0  0 
  1  3  1  0  0  0  0 
  1  4  1  0  0  0  0 
  3  5  1  0  0  0  0 
  3  6  2  0  0  0  0 
  4  7  2  0  0  0  0 
  4  8  1  0  0  0  0 
  5  9  1  0  0  0  0 
  5 10  1  0  0  0  0 
  6 11  1  0  0  0  0 
  6 12  1  0  0  0  0 
  7 13  1  0  0  0  0 
  8 14  2  0  0  0  0 
 10 12  2  0  0  0  0 
 10 15  1  0  0  0  0 
 13 16  2  0  0  0  0 
 14 16  1  0  0  0  0 
 15 17  1  0  0  0  0 
 16 18  1  0  0  0  0 
 17 19  1  0  0  0  0 
 17 20  2  0  0  0  0 
 21  7  1  0  0  0  0 
 22  8  1  0  0  0  0 
 23  9  1  0  0  0  0 
 24  9  1  0  0  0  0 
 25  9  1  0  0  0  0 
 26 11  1  0  0  0  0 
 27 11  1  0  0  0  0 
 28 11  1  0  0  0  0 
 29 12  1  0  0  0  0 
 30 13  1  0  0  0  0 
 31 14  1  0  0  0  0 
 32 15  1  0  0  0  0 
 33 15  1  0  0  0  0 
 34 19  1  0  0  0  0 
M  END
> <cdk:Title>
zomepirac

> <Conformer>
1

> <SuperDrugID>
SD002587

$$$$
