nandrolone
  CDK     0628171801

 46 49  0  0  0  0  0  0  0  0999 V2000
   -6.4091   -1.2041    4.4746 C   0  0  0  0  0  0  0  0  0  0  0  0
   -4.9795   -0.9386    5.0838 C   0  0  1  0  0  0  0  0  0  0  0  0
   -3.8594   -1.9299    4.6319 C   0  0  2  0  0  0  0  0  0  0  0  0
   -4.5097    0.5094    4.7087 C   0  0  2  0  0  0  0  0  0  0  0  0
   -4.9941   -1.2730    6.6114 C   0  0  1  0  0  0  0  0  0  0  0  0
   -3.5824   -1.8869    3.0950 C   0  0  1  0  0  0  0  0  0  0  0  0
   -4.2181   -3.2629    5.3248 C   0  0  1  0  0  0  0  0  0  0  0  0
   -4.1122    0.6433    3.2021 C   0  0  2  0  0  0  0  0  0  0  0  0
   -6.1589   -0.8278    7.3044 O   0  0  0  0  0  0  0  0  0  0  0  0
   -4.8147   -2.8168    6.6872 C   0  0  1  0  0  0  0  0  0  0  0  0
   -3.0827   -0.4411    2.7183 C   0  0  2  0  0  0  0  0  0  0  0  0
   -2.5323   -2.9451    2.6514 C   0  0  1  0  0  0  0  0  0  0  0  0
   -2.6870   -0.3340    1.1941 C   0  0  2  0  0  0  0  0  0  0  0  0
   -2.2227   -2.8202    1.1414 C   0  0  2  0  0  0  0  0  0  0  0  0
   -1.8099   -1.4624    0.7763 C   0  0  0  0  0  0  0  0  0  0  0  0
   -2.0714    1.0755    0.8672 C   0  0  1  0  0  0  0  0  0  0  0  0
   -0.6820   -1.2769    0.0534 C   0  0  0  0  0  0  0  0  0  0  0  0
   -1.2771    1.0700   -0.4588 C   0  0  1  0  0  0  0  0  0  0  0  0
   -0.2995   -0.0378   -0.4270 C   0  0  0  0  0  0  0  0  0  0  0  0
    0.8673    0.1400   -0.8483 O   0  0  0  0  0  0  0  0  0  0  0  0
   -6.4306   -1.0862    3.3918 H   0  0  0  0  0  0  0  0  0  0  0  0
   -7.1298   -0.4980    4.8918 H   0  0  0  0  0  0  0  0  0  0  0  0
   -6.7707   -2.2071    4.7050 H   0  0  0  0  0  0  0  0  0  0  0  0
   -2.9115   -1.6223    5.1010 H   0  0  0  0  0  0  0  0  0  0  0  0
   -3.6431    0.7856    5.3153 H   0  0  0  0  0  0  0  0  0  0  0  0
   -5.2979    1.2319    4.9380 H   0  0  0  0  0  0  0  0  0  0  0  0
   -4.1370   -0.8010    7.1051 H   0  0  0  0  0  0  0  0  0  0  0  0
   -4.5090   -2.1056    2.5566 H   0  0  0  0  0  0  0  0  0  0  0  0
   -4.9484   -3.8299    4.7381 H   0  0  0  0  0  0  0  0  0  0  0  0
   -3.3272   -3.8820    5.4705 H   0  0  0  0  0  0  0  0  0  0  0  0
   -3.6868    1.6401    3.0681 H   0  0  0  0  0  0  0  0  0  0  0  0
   -5.0076    0.5930    2.5791 H   0  0  0  0  0  0  0  0  0  0  0  0
   -6.1329    0.1475    7.2168 H   0  0  0  0  0  0  0  0  0  0  0  0
   -4.1376   -3.0770    7.5064 H   0  0  0  0  0  0  0  0  0  0  0  0
   -5.7710   -3.3185    6.8627 H   0  0  0  0  0  0  0  0  0  0  0  0
   -2.1604   -0.2612    3.2847 H   0  0  0  0  0  0  0  0  0  0  0  0
   -1.6077   -2.8203    3.2234 H   0  0  0  0  0  0  0  0  0  0  0  0
   -2.9171   -3.9500    2.8449 H   0  0  0  0  0  0  0  0  0  0  0  0
   -3.6035   -0.4266    0.6031 H   0  0  0  0  0  0  0  0  0  0  0  0
   -3.1207   -3.0656    0.5682 H   0  0  0  0  0  0  0  0  0  0  0  0
   -1.4699   -3.5736    0.8896 H   0  0  0  0  0  0  0  0  0  0  0  0
   -2.8650    1.8243    0.7926 H   0  0  0  0  0  0  0  0  0  0  0  0
   -1.3914    1.3874    1.6666 H   0  0  0  0  0  0  0  0  0  0  0  0
   -0.0973   -2.0526   -0.1654 H   0  0  0  0  0  0  0  0  0  0  0  0
   -1.9701    0.9042   -1.2876 H   0  0  0  0  0  0  0  0  0  0  0  0
   -0.7828    2.0332   -0.6120 H   0  0  0  0  0  0  0  0  0  0  0  0
  2  1  1  0  0  0  0 
  2  3  1  0  0  0  0 
  2  4  1  0  0  0  0 
  2  5  1  0  0  0  0 
  3  6  1  0  0  0  0 
  3  7  1  0  0  0  0 
  4  8  1  0  0  0  0 
  5  9  1  0  0  0  0 
  5 10  1  0  0  0  0 
  6 11  1  0  0  0  0 
  6 12  1  0  0  0  0 
  7 10  1  0  0  0  0 
 11  8  1  0  0  0  0 
 11 13  1  0  0  0  0 
 12 14  1  0  0  0  0 
 13 15  1  0  0  0  0 
 13 16  1  0  0  0  0 
 14 15  1  0  0  0  0 
 15 17  2  0  0  0  0 
 16 18  1  0  0  0  0 
 17 19  1  0  0  0  0 
 18 19  1  0  0  0  0 
 19 20  2  0  0  0  0 
 21  1  1  0  0  0  0 
 22  1  1  0  0  0  0 
 23  1  1  0  0  0  0 
  3 24  1  0  0  0  0 
 25  4  1  0  0  0  0 
 26  4  1  0  0  0  0 
  5 27  1  0  0  0  0 
  6 28  1  0  0  0  0 
 29  7  1  0  0  0  0 
 30  7  1  0  0  0  0 
 31  8  1  0  0  0  0 
 32  8  1  0  0  0  0 
 33  9  1  0  0  0  0 
 34 10  1  0  0  0  0 
 35 10  1  0  0  0  0 
 11 36  1  0  0  0  0 
 37 12  1  0  0  0  0 
 38 12  1  0  0  0  0 
 13 39  1  0  0  0  0 
 40 14  1  0  0  0  0 
 41 14  1  0  0  0  0 
 42 16  1  0  0  0  0 
 43 16  1  0  0  0  0 
 44 17  1  0  0  0  0 
 45 18  1  0  0  0  0 
 46 18  1  0  0  0  0 
M  END
> <cdk:Title>
nandrolone

> <Conformer>
1

> <SuperDrugID>
SD001675

$$$$
