sulbentine
  CDK     0628171801

 39 41  0  0  0  0  0  0  0  0999 V2000
    2.9044   -2.7546   -1.2344 C   0  0  1  0  0  0  0  0  0  0  0  0
    1.5472   -3.1654   -0.8923 N   0  0  0  0  0  0  0  0  0  0  0  0
    3.9395   -3.3497   -0.3415 C   0  0  0  0  0  0  0  0  0  0  0  0
    0.9686   -2.5679    0.3054 C   0  0  1  0  0  0  0  0  0  0  0  0
    0.8142   -4.0082   -1.6793 C   0  0  0  0  0  0  0  0  0  0  0  0
    4.0593   -4.7557   -0.2285 C   0  0  0  0  0  0  0  0  0  0  0  0
    4.8351   -2.5365    0.3967 C   0  0  0  0  0  0  0  0  0  0  0  0
   -0.1034   -3.3576    0.9900 N   0  0  2  0  0  0  0  0  0  0  0  0
    1.4327   -4.9443   -2.9640 S   0  0  0  0  0  0  0  0  0  0  0  0
   -0.8721   -4.3224   -1.4527 S   0  0  0  0  0  0  0  0  0  0  0  0
    5.0473   -5.3339    0.5891 C   0  0  0  0  0  0  0  0  0  0  0  0
    5.8215   -3.1142    1.2190 C   0  0  0  0  0  0  0  0  0  0  0  0
    0.3911   -4.6176    1.6380 C   0  0  2  0  0  0  0  0  0  0  0  0
   -1.2986   -3.4929    0.1104 C   0  0  2  0  0  0  0  0  0  0  0  0
    5.9310   -4.5131    1.3111 C   0  0  0  0  0  0  0  0  0  0  0  0
   -0.6078   -5.2489    2.5441 C   0  0  0  0  0  0  0  0  0  0  0  0
   -1.1926   -6.5006    2.2320 C   0  0  0  0  0  0  0  0  0  0  0  0
   -0.9922   -4.6027    3.7437 C   0  0  0  0  0  0  0  0  0  0  0  0
   -2.1315   -7.0917    3.0984 C   0  0  0  0  0  0  0  0  0  0  0  0
   -1.9319   -5.1947    4.6092 C   0  0  0  0  0  0  0  0  0  0  0  0
   -2.5031   -6.4385    4.2868 C   0  0  0  0  0  0  0  0  0  0  0  0
    3.1807   -3.0130   -2.2578 H   0  0  0  0  0  0  0  0  0  0  0  0
    2.9505   -1.6614   -1.2094 H   0  0  0  0  0  0  0  0  0  0  0  0
    1.7405   -2.3597    1.0524 H   0  0  0  0  0  0  0  0  0  0  0  0
    0.5635   -1.5896    0.0293 H   0  0  0  0  0  0  0  0  0  0  0  0
    3.4301   -5.3746   -0.7421 H   0  0  0  0  0  0  0  0  0  0  0  0
    4.7782   -1.5166    0.3385 H   0  0  0  0  0  0  0  0  0  0  0  0
    5.1247   -6.3517    0.6573 H   0  0  0  0  0  0  0  0  0  0  0  0
    6.4627   -2.5155    1.7453 H   0  0  0  0  0  0  0  0  0  0  0  0
    1.2742   -4.3942    2.2438 H   0  0  0  0  0  0  0  0  0  0  0  0
    0.7174   -5.3258    0.8717 H   0  0  0  0  0  0  0  0  0  0  0  0
   -1.6903   -2.5010   -0.1260 H   0  0  0  0  0  0  0  0  0  0  0  0
   -2.1043   -4.0471    0.5951 H   0  0  0  0  0  0  0  0  0  0  0  0
    6.6518   -4.9326    1.9027 H   0  0  0  0  0  0  0  0  0  0  0  0
   -0.9442   -6.9890    1.3681 H   0  0  0  0  0  0  0  0  0  0  0  0
   -0.5875   -3.6968    3.9944 H   0  0  0  0  0  0  0  0  0  0  0  0
   -2.5461   -7.9962    2.8630 H   0  0  0  0  0  0  0  0  0  0  0  0
   -2.2005   -4.7207    5.4740 H   0  0  0  0  0  0  0  0  0  0  0  0
   -3.1893   -6.8660    4.9143 H   0  0  0  0  0  0  0  0  0  0  0  0
  1  2  1  0  0  0  0 
  1  3  1  0  0  0  0 
  2  4  1  0  0  0  0 
  2  5  1  0  0  0  0 
  3  6  2  0  0  0  0 
  3  7  1  0  0  0  0 
  4  8  1  0  0  0  0 
  5  9  2  0  0  0  0 
  5 10  1  0  0  0  0 
  6 11  1  0  0  0  0 
  7 12  2  0  0  0  0 
  8 13  1  0  0  0  0 
  8 14  1  0  0  0  0 
 10 14  1  0  0  0  0 
 11 15  2  0  0  0  0 
 12 15  1  0  0  0  0 
 13 16  1  0  0  0  0 
 16 17  2  0  0  0  0 
 16 18  1  0  0  0  0 
 17 19  1  0  0  0  0 
 18 20  2  0  0  0  0 
 19 21  2  0  0  0  0 
 20 21  1  0  0  0  0 
  1 22  1  0  0  0  0 
  1 23  1  0  0  0  0 
  4 24  1  0  0  0  0 
  4 25  1  0  0  0  0 
  6 26  1  0  0  0  0 
  7 27  1  0  0  0  0 
 11 28  1  0  0  0  0 
 12 29  1  0  0  0  0 
 13 30  1  0  0  0  0 
 13 31  1  0  0  0  0 
 14 32  1  0  0  0  0 
 14 33  1  0  0  0  0 
 15 34  1  0  0  0  0 
 17 35  1  0  0  0  0 
 18 36  1  0  0  0  0 
 19 37  1  0  0  0  0 
 20 38  1  0  0  0  0 
 21 39  1  0  0  0  0 
M  END
> <cdk:Title>
sulbentine

> <Conformer>
1

> <SuperDrugID>
SD003058

$$$$
