ticlopidine
  CDK     0628171801

 31 33  0  0  0  0  0  0  0  0999 V2000
    1.9625    5.8659    1.0824 C   0  0  1  0  0  0  0  0  0  0  0  0
    1.6373    4.5640    0.4136 N   0  0  1  0  0  0  0  0  0  0  0  0
    2.9362    6.7010    0.3163 C   0  0  0  0  0  0  0  0  0  0  0  0
    2.8215    3.6423    0.2997 C   0  0  2  0  0  0  0  0  0  0  0  0
    0.4055    3.9016    0.9600 C   0  0  1  0  0  0  0  0  0  0  0  0
    2.6145    7.2509   -0.9548 C   0  0  0  0  0  0  0  0  0  0  0  0
    4.2161    6.9723    0.8627 C   0  0  0  0  0  0  0  0  0  0  0  0
    2.4811    2.2699   -0.1391 C   0  0  0  0  0  0  0  0  0  0  0  0
   -0.0209    2.6889    0.0856 C   0  0  1  0  0  0  0  0  0  0  0  0
    1.1315    6.9615   -1.7250 Cl  0  0  0  0  0  0  0  0  0  0  0  0
    3.5372    8.0803   -1.6256 C   0  0  0  0  0  0  0  0  0  0  0  0
    5.1391    7.7877    0.1833 C   0  0  0  0  0  0  0  0  0  0  0  0
    1.1468    1.8513   -0.2377 C   0  0  0  0  0  0  0  0  0  0  0  0
    3.4387    1.2852   -0.4587 C   0  0  0  0  0  0  0  0  0  0  0  0
    4.7936    8.3497   -1.0559 C   0  0  0  0  0  0  0  0  0  0  0  0
    1.1708    0.1805   -0.7753 S   0  0  0  0  0  0  0  0  0  0  0  0
    2.9188    0.0476   -0.8443 C   0  0  0  0  0  0  0  0  0  0  0  0
    1.0552    6.4633    1.1999 H   0  0  0  0  0  0  0  0  0  0  0  0
    2.3221    5.6680    2.0963 H   0  0  0  0  0  0  0  0  0  0  0  0
    3.3416    3.5662    1.2588 H   0  0  0  0  0  0  0  0  0  0  0  0
    3.5139    4.0650   -0.4325 H   0  0  0  0  0  0  0  0  0  0  0  0
    0.5893    3.5639    1.9851 H   0  0  0  0  0  0  0  0  0  0  0  0
   -0.4266    4.6095    0.9919 H   0  0  0  0  0  0  0  0  0  0  0  0
    4.4915    6.5770    1.7632 H   0  0  0  0  0  0  0  0  0  0  0  0
   -0.7633    2.0911    0.6189 H   0  0  0  0  0  0  0  0  0  0  0  0
   -0.4684    3.0381   -0.8480 H   0  0  0  0  0  0  0  0  0  0  0  0
    3.3009    8.4935   -2.5319 H   0  0  0  0  0  0  0  0  0  0  0  0
    6.0613    7.9749    0.5878 H   0  0  0  0  0  0  0  0  0  0  0  0
    4.4442    1.4584   -0.4118 H   0  0  0  0  0  0  0  0  0  0  0  0
    5.4574    8.9567   -1.5392 H   0  0  0  0  0  0  0  0  0  0  0  0
    3.4564   -0.7765   -1.1137 H   0  0  0  0  0  0  0  0  0  0  0  0
  1  2  1  0  0  0  0 
  1  3  1  0  0  0  0 
  2  4  1  0  0  0  0 
  2  5  1  0  0  0  0 
  3  6  2  0  0  0  0 
  3  7  1  0  0  0  0 
  4  8  1  0  0  0  0 
  5  9  1  0  0  0  0 
  6 10  1  0  0  0  0 
  6 11  1  0  0  0  0 
  7 12  2  0  0  0  0 
  8 13  2  0  0  0  0 
  8 14  1  0  0  0  0 
  9 13  1  0  0  0  0 
 11 15  2  0  0  0  0 
 12 15  1  0  0  0  0 
 13 16  1  0  0  0  0 
 14 17  2  0  0  0  0 
 16 17  1  0  0  0  0 
  1 18  1  0  0  0  0 
  1 19  1  0  0  0  0 
  4 20  1  0  0  0  0 
  4 21  1  0  0  0  0 
  5 22  1  0  0  0  0 
  5 23  1  0  0  0  0 
  7 24  1  0  0  0  0 
  9 25  1  0  0  0  0 
  9 26  1  0  0  0  0 
 11 27  1  0  0  0  0 
 12 28  1  0  0  0  0 
 14 29  1  0  0  0  0 
 15 30  1  0  0  0  0 
 17 31  1  0  0  0  0 
M  END
> <cdk:Title>
ticlopidine

> <Conformer>
1

> <SuperDrugID>
SD002390

$$$$
