heptabarb
  CDK     0628171801

 36 37  0  0  0  0  0  0  0  0999 V2000
   -2.4470   -2.4102    0.7183 C   0  0  1  0  0  0  0  0  0  0  0  0
   -1.6799   -1.1394    0.2622 C   0  0  0  0  0  0  0  0  0  0  0  0
   -1.5814   -3.7046    1.0055 C   0  0  1  0  0  0  0  0  0  0  0  0
   -0.8778   -4.0659   -0.2800 C   0  0  0  0  0  0  0  0  0  0  0  0
   -0.5748   -3.3228    2.0633 C   0  0  0  0  0  0  0  0  0  0  0  0
   -2.3162   -4.9262    1.4995 C   0  0  0  0  0  0  0  0  0  0  0  0
   -1.5292   -4.4064   -1.2948 O   0  0  0  0  0  0  0  0  0  0  0  0
    0.4785   -4.0398   -0.4034 N   0  0  0  0  0  0  0  0  0  0  0  0
   -0.9498   -2.9962    3.2139 O   0  0  0  0  0  0  0  0  0  0  0  0
    0.7675   -3.3392    1.8340 N   0  0  0  0  0  0  0  0  0  0  0  0
   -3.7857   -4.9760    1.6540 C   0  0  1  0  0  0  0  0  0  0  0  0
   -1.6045   -6.0397    1.8197 C   0  0  0  0  0  0  0  0  0  0  0  0
    1.2835   -3.6917    0.6307 C   0  0  0  0  0  0  0  0  0  0  0  0
   -4.4694   -5.9933    0.6967 C   0  0  2  0  0  0  0  0  0  0  0  0
   -2.1261   -7.2879    2.3688 C   0  0  2  0  0  0  0  0  0  0  0  0
    2.5247   -3.6938    0.4747 O   0  0  0  0  0  0  0  0  0  0  0  0
   -4.4630   -7.4516    1.2246 C   0  0  1  0  0  0  0  0  0  0  0  0
   -3.0587   -8.0766    1.4121 C   0  0  2  0  0  0  0  0  0  0  0  0
   -2.9945   -2.1257    1.6224 H   0  0  0  0  0  0  0  0  0  0  0  0
   -3.1920   -2.6318   -0.0532 H   0  0  0  0  0  0  0  0  0  0  0  0
   -2.3907   -0.3425    0.0297 H   0  0  0  0  0  0  0  0  0  0  0  0
   -1.0871   -1.3449   -0.6304 H   0  0  0  0  0  0  0  0  0  0  0  0
   -1.0191   -0.7853    1.0566 H   0  0  0  0  0  0  0  0  0  0  0  0
    0.8837   -4.2793   -1.2532 H   0  0  0  0  0  0  0  0  0  0  0  0
    1.3750   -3.0929    2.5517 H   0  0  0  0  0  0  0  0  0  0  0  0
   -4.0302   -5.2179    2.6913 H   0  0  0  0  0  0  0  0  0  0  0  0
   -4.2670   -4.0178    1.4831 H   0  0  0  0  0  0  0  0  0  0  0  0
   -0.6168   -6.0214    1.6867 H   0  0  0  0  0  0  0  0  0  0  0  0
   -4.0064   -5.9531   -0.2941 H   0  0  0  0  0  0  0  0  0  0  0  0
   -5.5145   -5.6969    0.5714 H   0  0  0  0  0  0  0  0  0  0  0  0
   -2.6384   -7.0856    3.3127 H   0  0  0  0  0  0  0  0  0  0  0  0
   -1.2820   -7.9394    2.6106 H   0  0  0  0  0  0  0  0  0  0  0  0
   -4.9961   -7.4909    2.1784 H   0  0  0  0  0  0  0  0  0  0  0  0
   -5.0168   -8.0714    0.5148 H   0  0  0  0  0  0  0  0  0  0  0  0
   -3.2006   -9.0788    1.8290 H   0  0  0  0  0  0  0  0  0  0  0  0
   -2.5781   -8.1971    0.4381 H   0  0  0  0  0  0  0  0  0  0  0  0
  1  2  1  0  0  0  0 
  1  3  1  0  0  0  0 
  3  4  1  0  0  0  0 
  3  5  1  0  0  0  0 
  3  6  1  0  0  0  0 
  4  7  2  0  0  0  0 
  4  8  1  0  0  0  0 
  5  9  2  0  0  0  0 
  5 10  1  0  0  0  0 
  6 11  1  0  0  0  0 
  6 12  2  0  0  0  0 
  8 13  1  0  0  0  0 
 10 13  1  0  0  0  0 
 11 14  1  0  0  0  0 
 12 15  1  0  0  0  0 
 13 16  2  0  0  0  0 
 14 17  1  0  0  0  0 
 15 18  1  0  0  0  0 
 17 18  1  0  0  0  0 
 19  1  1  0  0  0  0 
 20  1  1  0  0  0  0 
 21  2  1  0  0  0  0 
 22  2  1  0  0  0  0 
 23  2  1  0  0  0  0 
 24  8  1  0  0  0  0 
 25 10  1  0  0  0  0 
 26 11  1  0  0  0  0 
 27 11  1  0  0  0  0 
 28 12  1  0  0  0  0 
 29 14  1  0  0  0  0 
 30 14  1  0  0  0  0 
 31 15  1  0  0  0  0 
 32 15  1  0  0  0  0 
 33 17  1  0  0  0  0 
 34 17  1  0  0  0  0 
 35 18  1  0  0  0  0 
 36 18  1  0  0  0  0 
M  END
> <cdk:Title>
heptabarb

> <Conformer>
1

> <SuperDrugID>
SD001206

$$$$
