celecoxib
  CDK     0628171802

 40 42  0  0  0  0  0  0  0  0999 V2000
    1.0841    7.3492   -1.4581 C   0  0  1  0  0  0  0  0  0  0  0  0
    1.7864    6.8789   -2.5405 F   0  0  0  0  0  0  0  0  0  0  0  0
    1.9668    7.9943   -0.6281 F   0  0  0  0  0  0  0  0  0  0  0  0
    0.1565    8.2564   -1.9072 F   0  0  0  0  0  0  0  0  0  0  0  0
    0.4236    6.2528   -0.7267 C   0  0  0  0  0  0  0  0  0  0  0  0
    0.5501    4.9385   -0.9794 N   0  0  0  0  0  0  0  0  0  0  0  0
   -0.4264    6.3802    0.3627 C   0  0  0  0  0  0  0  0  0  0  0  0
   -0.1449    4.2531   -0.1168 N   0  0  0  0  0  0  0  0  0  0  0  0
   -0.7979    5.0921    0.7250 C   0  0  0  0  0  0  0  0  0  0  0  0
   -0.1579    2.8841   -0.0919 C   0  0  0  0  0  0  0  0  0  0  0  0
   -1.7139    4.7604    1.7539 C   0  0  0  0  0  0  0  0  0  0  0  0
    0.0892    2.1747    1.1067 C   0  0  0  0  0  0  0  0  0  0  0  0
   -0.4495    2.1520   -1.2637 C   0  0  0  0  0  0  0  0  0  0  0  0
   -2.7462    3.8251    1.5150 C   0  0  0  0  0  0  0  0  0  0  0  0
   -1.6122    5.3506    3.0337 C   0  0  0  0  0  0  0  0  0  0  0  0
    0.0236    0.7728    1.1392 C   0  0  0  0  0  0  0  0  0  0  0  0
   -0.5152    0.7468   -1.2353 C   0  0  0  0  0  0  0  0  0  0  0  0
   -3.6409    3.4694    2.5381 C   0  0  0  0  0  0  0  0  0  0  0  0
   -2.5116    4.9951    4.0568 C   0  0  0  0  0  0  0  0  0  0  0  0
   -0.2759    0.0504   -0.0317 C   0  0  0  0  0  0  0  0  0  0  0  0
   -3.5400    4.0538    3.8194 C   0  0  0  0  0  0  0  0  0  0  0  0
   -0.3161   -1.7156    0.0469 S   0  0  1  0  0  0  0  0  0  0  0  0
   -4.5121    3.6711    4.8683 C   0  0  0  0  0  0  0  0  0  0  0  0
   -0.6419   -2.4192   -1.5280 N   0  0  2  0  0  0  0  0  0  0  0  0
    1.1013   -2.2583    0.5670 O   0  0  0  0  0  0  0  0  0  0  0  0
   -1.4549   -2.2063    1.0651 O   0  0  0  0  0  0  0  0  0  0  0  0
   -0.7356    7.2530    0.7953 H   0  0  0  0  0  0  0  0  0  0  0  0
    0.3176    2.6759    1.9689 H   0  0  0  0  0  0  0  0  0  0  0  0
   -0.6317    2.6426   -2.1419 H   0  0  0  0  0  0  0  0  0  0  0  0
   -2.8604    3.3986    0.5917 H   0  0  0  0  0  0  0  0  0  0  0  0
   -0.8763    6.0333    3.2341 H   0  0  0  0  0  0  0  0  0  0  0  0
    0.1971    0.2820    2.0206 H   0  0  0  0  0  0  0  0  0  0  0  0
   -0.7388    0.2433   -2.0950 H   0  0  0  0  0  0  0  0  0  0  0  0
   -4.3709    2.7810    2.3370 H   0  0  0  0  0  0  0  0  0  0  0  0
   -2.4061    5.4286    4.9773 H   0  0  0  0  0  0  0  0  0  0  0  0
   -4.4233    2.6022    5.0712 H   0  0  0  0  0  0  0  0  0  0  0  0
   -5.5282    3.8823    4.5254 H   0  0  0  0  0  0  0  0  0  0  0  0
   -4.3478    4.2138    5.8020 H   0  0  0  0  0  0  0  0  0  0  0  0
    0.0020   -1.9780   -2.1869 H   0  0  0  0  0  0  0  0  0  0  0  0
   -1.5810   -2.1224   -1.7943 H   0  0  0  0  0  0  0  0  0  0  0  0
  1  2  1  0  0  0  0 
  1  3  1  0  0  0  0 
  1  4  1  0  0  0  0 
  1  5  1  0  0  0  0 
  5  6  2  0  0  0  0 
  5  7  1  0  0  0  0 
  6  8  1  0  0  0  0 
  7  9  2  0  0  0  0 
  8  9  1  0  0  0  0 
  8 10  1  0  0  0  0 
  9 11  1  0  0  0  0 
 10 12  2  0  0  0  0 
 10 13  1  0  0  0  0 
 11 14  2  0  0  0  0 
 11 15  1  0  0  0  0 
 12 16  1  0  0  0  0 
 13 17  2  0  0  0  0 
 14 18  1  0  0  0  0 
 15 19  2  0  0  0  0 
 16 20  2  0  0  0  0 
 17 20  1  0  0  0  0 
 18 21  2  0  0  0  0 
 19 21  1  0  0  0  0 
 20 22  1  0  0  0  0 
 21 23  1  0  0  0  0 
 22 24  1  0  0  0  0 
 22 25  2  0  0  0  0 
 22 26  2  0  0  0  0 
  7 27  1  0  0  0  0 
 12 28  1  0  0  0  0 
 13 29  1  0  0  0  0 
 14 30  1  0  0  0  0 
 15 31  1  0  0  0  0 
 16 32  1  0  0  0  0 
 17 33  1  0  0  0  0 
 18 34  1  0  0  0  0 
 19 35  1  0  0  0  0 
 23 36  1  0  0  0  0 
 23 37  1  0  0  0  0 
 23 38  1  0  0  0  0 
 24 39  1  0  0  0  0 
 24 40  1  0  0  0  0 
M  END
> <cdk:Title>
celecoxib

> <Conformer>
1

> <SuperDrugID>
SD000495

$$$$
