guabenxan
  CDK     0628171801

 28 29  0  0  0  0  0  0  0  0999 V2000
   -1.7921   -1.6967   -0.0137 C   0  0  2  0  0  0  0  0  0  0  0  0
   -2.6297   -2.5511   -0.7302 N   0  0  0  0  0  0  0  0  0  0  0  0
   -2.4154   -1.2966    1.2754 C   0  0  0  0  0  0  0  0  0  0  0  0
   -2.4041   -3.0974   -1.8731 C   0  0  0  0  0  0  0  0  0  0  0  0
   -1.9968   -1.8778    2.4966 C   0  0  0  0  0  0  0  0  0  0  0  0
   -3.4230   -0.3045    1.3083 C   0  0  0  0  0  0  0  0  0  0  0  0
   -1.2980   -2.9024   -2.5637 N   0  0  0  0  0  0  0  0  0  0  0  0
   -3.3105   -3.8952   -2.3890 N   0  0  0  0  0  0  0  0  0  0  0  0
   -2.5615   -1.4789    3.7224 C   0  0  0  0  0  0  0  0  0  0  0  0
   -3.9889    0.1032    2.5288 C   0  0  0  0  0  0  0  0  0  0  0  0
   -3.5703   -0.4814    3.7378 C   0  0  0  0  0  0  0  0  0  0  0  0
   -2.1397   -2.0949    4.8830 O   0  0  0  0  0  0  0  0  0  0  0  0
   -4.1170   -0.0266    4.9194 O   0  0  0  0  0  0  0  0  0  0  0  0
   -2.4537   -1.3942    6.1065 C   0  0  2  0  0  0  0  0  0  0  0  0
   -3.9151   -0.8783    6.0685 C   0  0  2  0  0  0  0  0  0  0  0  0
   -1.5742   -0.8043   -0.6050 H   0  0  0  0  0  0  0  0  0  0  0  0
   -0.8417   -2.2087    0.1673 H   0  0  0  0  0  0  0  0  0  0  0  0
   -1.2737   -2.6002    2.4984 H   0  0  0  0  0  0  0  0  0  0  0  0
   -3.7427    0.1346    0.4411 H   0  0  0  0  0  0  0  0  0  0  0  0
   -1.1768   -3.3452   -3.4190 H   0  0  0  0  0  0  0  0  0  0  0  0
   -0.6059   -2.3160   -2.2202 H   0  0  0  0  0  0  0  0  0  0  0  0
   -3.1558   -4.3089   -3.2553 H   0  0  0  0  0  0  0  0  0  0  0  0
   -4.1315   -4.0798   -1.9050 H   0  0  0  0  0  0  0  0  0  0  0  0
   -4.7017    0.8348    2.5381 H   0  0  0  0  0  0  0  0  0  0  0  0
   -1.7699   -0.5505    6.2361 H   0  0  0  0  0  0  0  0  0  0  0  0
   -2.3178   -2.0742    6.9494 H   0  0  0  0  0  0  0  0  0  0  0  0
   -4.6015   -1.7281    6.0164 H   0  0  0  0  0  0  0  0  0  0  0  0
   -4.1359   -0.3098    6.9742 H   0  0  0  0  0  0  0  0  0  0  0  0
  1  2  1  0  0  0  0 
  1  3  1  0  0  0  0 
  2  4  2  0  0  0  0 
  3  5  2  0  0  0  0 
  3  6  1  0  0  0  0 
  4  7  1  0  0  0  0 
  4  8  1  0  0  0  0 
  5  9  1  0  0  0  0 
  6 10  2  0  0  0  0 
  9 11  2  0  0  0  0 
  9 12  1  0  0  0  0 
 10 11  1  0  0  0  0 
 11 13  1  0  0  0  0 
 12 14  1  0  0  0  0 
 13 15  1  0  0  0  0 
 14 15  1  0  0  0  0 
 16  1  1  0  0  0  0 
 17  1  1  0  0  0  0 
 18  5  1  0  0  0  0 
 19  6  1  0  0  0  0 
 20  7  1  0  0  0  0 
 21  7  1  0  0  0  0 
 22  8  1  0  0  0  0 
 23  8  1  0  0  0  0 
 24 10  1  0  0  0  0 
 25 14  1  0  0  0  0 
 26 14  1  0  0  0  0 
 27 15  1  0  0  0  0 
 28 15  1  0  0  0  0 
M  END
> <cdk:Title>
guabenxan

> <Conformer>
1

> <SuperDrugID>
SD001183

$$$$
