biotin
  CDK     0628171801

 32 33  0  0  0  0  0  0  0  0999 V2000
   -8.4714   -1.9747   -3.0621 O   0  0  0  0  0  0  0  0  0  0  0  0
   -8.1980   -1.6048   -1.7890 C   0  0  0  0  0  0  0  0  0  0  0  0
   -8.9851   -1.9739   -0.8884 O   0  0  0  0  0  0  0  0  0  0  0  0
   -7.0150   -0.7758   -1.4734 C   0  0  2  0  0  0  0  0  0  0  0  0
   -5.6803   -1.4569   -1.8824 C   0  0  2  0  0  0  0  0  0  0  0  0
   -4.4254   -0.6423   -1.4590 C   0  0  2  0  0  0  0  0  0  0  0  0
   -3.0980   -1.3587   -1.8389 C   0  0  2  0  0  0  0  0  0  0  0  0
   -1.8055   -0.6249   -1.3748 C   0  0  2  0  0  0  0  0  0  0  0  0
   -0.3236   -1.5607   -1.8823 S   0  0  0  0  0  0  0  0  0  0  0  0
    0.8113   -0.9113   -0.6222 C   0  0  1  0  0  0  0  0  0  0  0  0
   -0.1060   -0.5689    0.5778 C   0  0  2  0  0  0  0  0  0  0  0  0
   -0.1497   -1.6205    1.5300 N   0  0  0  0  0  0  0  0  0  0  0  0
   -1.3847   -2.0758    1.7325 C   0  0  0  0  0  0  0  0  0  0  0  0
   -1.6989   -2.9963    2.5179 O   0  0  0  0  0  0  0  0  0  0  0  0
   -2.2393   -1.4096    0.9630 N   0  0  0  0  0  0  0  0  0  0  0  0
   -1.6066   -0.4240    0.1593 C   0  0  2  0  0  0  0  0  0  0  0  0
   -9.2722   -2.5059   -3.2638 H   0  0  0  0  0  0  0  0  0  0  0  0
   -6.9945   -0.5670   -0.3996 H   0  0  0  0  0  0  0  0  0  0  0  0
   -7.1201    0.1780   -1.9961 H   0  0  0  0  0  0  0  0  0  0  0  0
   -5.6661   -1.5874   -2.9672 H   0  0  0  0  0  0  0  0  0  0  0  0
   -5.6318   -2.4492   -1.4235 H   0  0  0  0  0  0  0  0  0  0  0  0
   -4.4602   -0.4849   -0.3797 H   0  0  0  0  0  0  0  0  0  0  0  0
   -4.4510    0.3392   -1.9384 H   0  0  0  0  0  0  0  0  0  0  0  0
   -3.0594   -1.4600   -2.9275 H   0  0  0  0  0  0  0  0  0  0  0  0
   -3.1005   -2.3680   -1.4181 H   0  0  0  0  0  0  0  0  0  0  0  0
   -1.7451    0.3537   -1.8629 H   0  0  0  0  0  0  0  0  0  0  0  0
    1.5793   -1.6475   -0.3766 H   0  0  0  0  0  0  0  0  0  0  0  0
    1.2898   -0.0095   -1.0121 H   0  0  0  0  0  0  0  0  0  0  0  0
    0.2527    0.3389    1.0727 H   0  0  0  0  0  0  0  0  0  0  0  0
    0.6319   -1.9656    1.9881 H   0  0  0  0  0  0  0  0  0  0  0  0
   -3.1940   -1.5798    0.9554 H   0  0  0  0  0  0  0  0  0  0  0  0
   -2.0014    0.5518    0.4609 H   0  0  0  0  0  0  0  0  0  0  0  0
  1  2  1  0  0  0  0 
  2  3  2  0  0  0  0 
  2  4  1  0  0  0  0 
  4  5  1  0  0  0  0 
  5  6  1  0  0  0  0 
  6  7  1  0  0  0  0 
  8  7  1  0  0  0  0 
  8  9  1  0  0  0  0 
  9 10  1  0  0  0  0 
 11 10  1  0  0  0  0 
 11 12  1  0  0  0  0 
 12 13  1  0  0  0  0 
 13 14  2  0  0  0  0 
 13 15  1  0  0  0  0 
 16 15  1  0  0  0  0 
 16  8  1  0  0  0  0 
 16 11  1  0  0  0  0 
 17  1  1  0  0  0  0 
 18  4  1  0  0  0  0 
 19  4  1  0  0  0  0 
 20  5  1  0  0  0  0 
 21  5  1  0  0  0  0 
 22  6  1  0  0  0  0 
 23  6  1  0  0  0  0 
 24  7  1  0  0  0  0 
 25  7  1  0  0  0  0 
  8 26  1  0  0  0  0 
 27 10  1  0  0  0  0 
 28 10  1  0  0  0  0 
 11 29  1  0  0  0  0 
 30 12  1  0  0  0  0 
 31 15  1  0  0  0  0 
 16 32  1  0  0  0  0 
M  END
> <cdk:Title>
biotin

> <Conformer>
1

> <SuperDrugID>
SD000318

$$$$
