clevudine
  CDK     0628171801

 31 32  0  0  0  0  0  0  0  0999 V2000
    4.1343   -3.6708   -1.1031 F   0  0  0  0  0  0  0  0  0  0  0  0
    2.7943   -3.6302   -1.4242 C   0  0  1  0  0  0  0  0  0  0  0  0
    1.9142   -4.0393   -0.2221 C   0  0  2  0  0  0  0  0  0  0  0  0
    2.3469   -2.1852   -1.6939 C   0  0  1  0  0  0  0  0  0  0  0  0
    1.8720   -2.8447    0.5777 O   0  0  0  0  0  0  0  0  0  0  0  0
    2.3823   -5.2552    0.4321 N   0  0  0  0  0  0  0  0  0  0  0  0
    1.2722   -2.1722   -2.6366 O   0  0  0  0  0  0  0  0  0  0  0  0
    1.8676   -1.7025   -0.2996 C   0  0  1  0  0  0  0  0  0  0  0  0
    2.9752   -5.2755    1.6723 C   0  0  0  0  0  0  0  0  0  0  0  0
    2.2332   -6.4472   -0.2359 C   0  0  0  0  0  0  0  0  0  0  0  0
    2.7400   -0.5871    0.3261 C   0  0  2  0  0  0  0  0  0  0  0  0
    3.1689   -4.2530    2.3689 O   0  0  0  0  0  0  0  0  0  0  0  0
    3.4065   -6.4398    2.2196 N   0  0  0  0  0  0  0  0  0  0  0  0
    2.6659   -7.6771    0.3059 C   0  0  0  0  0  0  0  0  0  0  0  0
    4.0542   -1.0543    0.6154 O   0  0  0  0  0  0  0  0  0  0  0  0
    3.2707   -7.6235    1.5777 C   0  0  0  0  0  0  0  0  0  0  0  0
    2.4952   -8.9616   -0.4183 C   0  0  0  0  0  0  0  0  0  0  0  0
    3.7000   -8.6523    2.1502 O   0  0  0  0  0  0  0  0  0  0  0  0
    2.6227   -4.2758   -2.2882 H   0  0  0  0  0  0  0  0  0  0  0  0
    0.8841   -4.2122   -0.5605 H   0  0  0  0  0  0  0  0  0  0  0  0
    3.1636   -1.5806   -2.1013 H   0  0  0  0  0  0  0  0  0  0  0  0
    0.9847   -1.2356   -2.6844 H   0  0  0  0  0  0  0  0  0  0  0  0
    0.8423   -1.3262   -0.3684 H   0  0  0  0  0  0  0  0  0  0  0  0
    1.7950   -6.4558   -1.1616 H   0  0  0  0  0  0  0  0  0  0  0  0
    2.2834   -0.2536    1.2594 H   0  0  0  0  0  0  0  0  0  0  0  0
    2.8020    0.2672   -0.3520 H   0  0  0  0  0  0  0  0  0  0  0  0
    3.8266   -6.4245    3.0952 H   0  0  0  0  0  0  0  0  0  0  0  0
    4.5062   -0.2923    1.0370 H   0  0  0  0  0  0  0  0  0  0  0  0
    1.8934   -9.6479    0.1797 H   0  0  0  0  0  0  0  0  0  0  0  0
    1.9983   -8.8284   -1.3811 H   0  0  0  0  0  0  0  0  0  0  0  0
    3.4710   -9.4152   -0.5985 H   0  0  0  0  0  0  0  0  0  0  0  0
  2  1  1  0  0  0  0 
  2  3  1  0  0  0  0 
  2  4  1  0  0  0  0 
  3  5  1  0  0  0  0 
  3  6  1  0  0  0  0 
  4  7  1  0  0  0  0 
  4  8  1  0  0  0  0 
  8  5  1  0  0  0  0 
  6  9  1  0  0  0  0 
  6 10  1  0  0  0  0 
  8 11  1  0  0  0  0 
  9 12  2  0  0  0  0 
  9 13  1  0  0  0  0 
 10 14  2  0  0  0  0 
 11 15  1  0  0  0  0 
 13 16  1  0  0  0  0 
 14 16  1  0  0  0  0 
 14 17  1  0  0  0  0 
 16 18  2  0  0  0  0 
  2 19  1  0  0  0  0 
  3 20  1  0  0  0  0 
  4 21  1  0  0  0  0 
 22  7  1  0  0  0  0 
  8 23  1  0  0  0  0 
 24 10  1  0  0  0  0 
 25 11  1  0  0  0  0 
 26 11  1  0  0  0  0 
 27 13  1  0  0  0  0 
 28 15  1  0  0  0  0 
 29 17  1  0  0  0  0 
 30 17  1  0  0  0  0 
 31 17  1  0  0  0  0 
M  END
> <cdk:Title>
clevudine

> <Conformer>
1

> <SuperDrugID>
SD003538

$$$$
