clefamide
  CDK     0628171801

 42 43  0  0  0  0  0  0  0  0999 V2000
   15.6163   -4.9358    2.7997 O   0  0  0  0  0  0  0  0  0  0  0  0
   14.6542   -4.1582    3.3976 C   0  0  0  0  0  0  0  0  0  0  0  0
   16.4335   -4.1923    1.9893 C   0  0  0  0  0  0  0  0  0  0  0  0
   13.3144   -4.2737    2.9773 C   0  0  0  0  0  0  0  0  0  0  0  0
   14.9685   -3.2615    4.4423 C   0  0  0  0  0  0  0  0  0  0  0  0
   16.0291   -3.8062    0.6959 C   0  0  0  0  0  0  0  0  0  0  0  0
   17.7066   -3.8084    2.4521 C   0  0  0  0  0  0  0  0  0  0  0  0
   12.3085   -3.4907    3.5734 C   0  0  0  0  0  0  0  0  0  0  0  0
   13.9622   -2.4868    5.0447 C   0  0  0  0  0  0  0  0  0  0  0  0
   16.8656   -3.0005   -0.0985 C   0  0  0  0  0  0  0  0  0  0  0  0
   18.5372   -2.9959    1.6588 C   0  0  0  0  0  0  0  0  0  0  0  0
   12.6150   -2.5991    4.6269 C   0  0  0  0  0  0  0  0  0  0  0  0
   18.1354   -2.5655    0.3674 C   0  0  0  0  0  0  0  0  0  0  0  0
   11.5385   -1.7918    5.2720 C   0  0  1  0  0  0  0  0  0  0  0  0
   18.9308   -1.7760   -0.3815 N   0  0  0  0  0  0  0  0  0  0  0  0
   10.4776   -2.5561    5.9215 N   0  0  0  0  0  0  0  0  0  0  0  0
   18.6673   -1.4624   -1.4760 O   0  0  0  0  0  0  0  0  0  0  0  0
   20.0348   -1.3085    0.0466 O   0  0  0  0  0  0  0  0  0  0  0  0
    9.1111   -2.3523    5.6715 C   0  0  0  0  0  0  0  0  0  0  0  0
   10.8741   -3.5389    6.9281 C   0  0  1  0  0  0  0  0  0  0  0  0
    8.4893   -1.3713    4.7365 C   0  0  2  0  0  0  0  0  0  0  0  0
    8.2673   -3.0447    6.2941 O   0  0  0  0  0  0  0  0  0  0  0  0
   10.7958   -5.0032    6.4299 C   0  0  2  0  0  0  0  0  0  0  0  0
    8.8442   -1.7585    3.0560 Cl  0  0  0  0  0  0  0  0  0  0  0  0
    8.9078    0.3022    5.0976 Cl  0  0  0  0  0  0  0  0  0  0  0  0
   11.0683   -5.9007    7.4998 O   0  0  0  0  0  0  0  0  0  0  0  0
   13.0681   -4.9294    2.2326 H   0  0  0  0  0  0  0  0  0  0  0  0
   15.9339   -3.1663    4.7639 H   0  0  0  0  0  0  0  0  0  0  0  0
   15.1204   -4.1031    0.3347 H   0  0  0  0  0  0  0  0  0  0  0  0
   18.0285   -4.1113    3.3742 H   0  0  0  0  0  0  0  0  0  0  0  0
   11.3471   -3.5804    3.2378 H   0  0  0  0  0  0  0  0  0  0  0  0
   14.2228   -1.8376    5.7908 H   0  0  0  0  0  0  0  0  0  0  0  0
   16.5313   -2.7264   -1.0257 H   0  0  0  0  0  0  0  0  0  0  0  0
   19.4442   -2.7182    2.0416 H   0  0  0  0  0  0  0  0  0  0  0  0
   11.9595   -1.1310    6.0369 H   0  0  0  0  0  0  0  0  0  0  0  0
   11.1682   -1.1333    4.4925 H   0  0  0  0  0  0  0  0  0  0  0  0
   11.8966   -3.3620    7.2789 H   0  0  0  0  0  0  0  0  0  0  0  0
   10.2428   -3.4364    7.8173 H   0  0  0  0  0  0  0  0  0  0  0  0
    7.3999   -1.4093    4.8186 H   0  0  0  0  0  0  0  0  0  0  0  0
   11.5332   -5.1784    5.6489 H   0  0  0  0  0  0  0  0  0  0  0  0
    9.8044   -5.2284    6.0320 H   0  0  0  0  0  0  0  0  0  0  0  0
   11.0379   -6.7958    7.1009 H   0  0  0  0  0  0  0  0  0  0  0  0
  1  2  1  0  0  0  0 
  1  3  1  0  0  0  0 
  2  4  2  0  0  0  0 
  2  5  1  0  0  0  0 
  3  6  2  0  0  0  0 
  3  7  1  0  0  0  0 
  4  8  1  0  0  0  0 
  5  9  2  0  0  0  0 
  6 10  1  0  0  0  0 
  7 11  2  0  0  0  0 
  8 12  2  0  0  0  0 
  9 12  1  0  0  0  0 
 10 13  2  0  0  0  0 
 11 13  1  0  0  0  0 
 12 14  1  0  0  0  0 
 13 15  1  0  0  0  0 
 14 16  1  0  0  0  0 
 15 17  2  0  0  0  0 
 15 18  1  0  0  0  0 
 16 19  1  0  0  0  0 
 16 20  1  0  0  0  0 
 19 21  1  0  0  0  0 
 19 22  2  0  0  0  0 
 20 23  1  0  0  0  0 
 21 24  1  0  0  0  0 
 21 25  1  0  0  0  0 
 23 26  1  0  0  0  0 
  4 27  1  0  0  0  0 
  5 28  1  0  0  0  0 
  6 29  1  0  0  0  0 
  7 30  1  0  0  0  0 
  8 31  1  0  0  0  0 
  9 32  1  0  0  0  0 
 10 33  1  0  0  0  0 
 11 34  1  0  0  0  0 
 14 35  1  0  0  0  0 
 14 36  1  0  0  0  0 
 20 37  1  0  0  0  0 
 20 38  1  0  0  0  0 
 21 39  1  0  0  0  0 
 23 40  1  0  0  0  0 
 23 41  1  0  0  0  0 
 26 42  1  0  0  0  0 
M  CHG  1  15   1
M  CHG  1  18  -1
M  END
> <cdk:Title>
clefamide

> <Conformer>
1

> <SuperDrugID>
SD003537

$$$$
