mannomustine
  CDK     0628171801

 40 39  0  0  0  0  0  0  0  0999 V2000
   -4.7529    0.7704    2.1923 C   0  0  1  0  0  0  0  0  0  0  0  0
   -3.7765    1.9324    2.5762 C   0  0  1  0  0  0  0  0  0  0  0  0
   -5.9495    0.5644    3.1797 C   0  0  1  0  0  0  0  0  0  0  0  0
   -5.2712    0.9950    0.8821 O   0  0  0  0  0  0  0  0  0  0  0  0
   -2.5282    2.1203    1.6552 C   0  0  1  0  0  0  0  0  0  0  0  0
   -4.4850    3.1708    2.6129 O   0  0  0  0  0  0  0  0  0  0  0  0
   -6.7231   -0.7664    2.9554 C   0  0  1  0  0  0  0  0  0  0  0  0
   -5.4907    0.5489    4.5334 O   0  0  0  0  0  0  0  0  0  0  0  0
   -1.5815    0.8913    1.5926 C   0  0  2  0  0  0  0  0  0  0  0  0
   -2.9110    2.4950    0.3322 O   0  0  0  0  0  0  0  0  0  0  0  0
   -7.4632   -0.7784    1.6691 N   0  0  2  0  0  0  0  0  0  0  0  0
   -0.3847    1.1995    0.7756 N   0  0  1  0  0  0  0  0  0  0  0  0
   -8.1174   -2.0579    1.3038 C   0  0  1  0  0  0  0  0  0  0  0  0
    0.5861    0.0867    0.6685 C   0  0  1  0  0  0  0  0  0  0  0  0
   -9.3923   -2.3588    2.1237 C   0  0  1  0  0  0  0  0  0  0  0  0
    1.6837    0.4470   -0.3545 C   0  0  1  0  0  0  0  0  0  0  0  0
  -10.2185   -3.7899    1.5113 Cl  0  0  0  0  0  0  0  0  0  0  0  0
    2.8389   -0.8686   -0.5379 Cl  0  0  0  0  0  0  0  0  0  0  0  0
   -4.1862   -0.1627    2.1732 H   0  0  0  0  0  0  0  0  0  0  0  0
   -3.3992    1.7497    3.5862 H   0  0  0  0  0  0  0  0  0  0  0  0
   -6.6523    1.3960    3.0821 H   0  0  0  0  0  0  0  0  0  0  0  0
   -4.5057    0.9039    0.2780 H   0  0  0  0  0  0  0  0  0  0  0  0
   -1.9461    2.9556    2.0586 H   0  0  0  0  0  0  0  0  0  0  0  0
   -5.1741    3.0605    3.3008 H   0  0  0  0  0  0  0  0  0  0  0  0
   -6.0140   -1.5987    2.9882 H   0  0  0  0  0  0  0  0  0  0  0  0
   -7.4384   -0.8949    3.7730 H   0  0  0  0  0  0  0  0  0  0  0  0
   -5.1419    1.4492    4.7025 H   0  0  0  0  0  0  0  0  0  0  0  0
   -2.1053    0.0433    1.1467 H   0  0  0  0  0  0  0  0  0  0  0  0
   -1.2705    0.6219    2.6066 H   0  0  0  0  0  0  0  0  0  0  0  0
   -3.4315    3.3176    0.4407 H   0  0  0  0  0  0  0  0  0  0  0  0
   -6.7717   -0.6081    0.9377 H   0  0  0  0  0  0  0  0  0  0  0  0
   -0.7204    1.3919   -0.1709 H   0  0  0  0  0  0  0  0  0  0  0  0
   -8.3958   -1.9720    0.2514 H   0  0  0  0  0  0  0  0  0  0  0  0
   -7.4104   -2.8882    1.3894 H   0  0  0  0  0  0  0  0  0  0  0  0
    1.0423   -0.0917    1.6460 H   0  0  0  0  0  0  0  0  0  0  0  0
    0.0791   -0.8255    0.3415 H   0  0  0  0  0  0  0  0  0  0  0  0
   -9.1403   -2.5354    3.1702 H   0  0  0  0  0  0  0  0  0  0  0  0
  -10.0810   -1.5136    2.0635 H   0  0  0  0  0  0  0  0  0  0  0  0
    1.2330    0.6460   -1.3287 H   0  0  0  0  0  0  0  0  0  0  0  0
    2.2213    1.3381   -0.0275 H   0  0  0  0  0  0  0  0  0  0  0  0
  2  1  1  0  0  0  0 
  1  3  1  0  0  0  0 
  1  4  1  0  0  0  0 
  5  2  1  0  0  0  0 
  2  6  1  0  0  0  0 
  3  7  1  0  0  0  0 
  3  8  1  0  0  0  0 
  5  9  1  0  0  0  0 
  5 10  1  0  0  0  0 
  7 11  1  0  0  0  0 
  9 12  1  0  0  0  0 
 11 13  1  0  0  0  0 
 12 14  1  0  0  0  0 
 13 15  1  0  0  0  0 
 14 16  1  0  0  0  0 
 15 17  1  0  0  0  0 
 16 18  1  0  0  0  0 
  1 19  1  0  0  0  0 
  2 20  1  0  0  0  0 
  3 21  1  0  0  0  0 
  4 22  1  0  0  0  0 
  5 23  1  0  0  0  0 
  6 24  1  0  0  0  0 
  7 25  1  0  0  0  0 
  7 26  1  0  0  0  0 
  8 27  1  0  0  0  0 
  9 28  1  0  0  0  0 
  9 29  1  0  0  0  0 
 10 30  1  0  0  0  0 
 11 31  1  0  0  0  0 
 12 32  1  0  0  0  0 
 13 33  1  0  0  0  0 
 13 34  1  0  0  0  0 
 14 35  1  0  0  0  0 
 14 36  1  0  0  0  0 
 15 37  1  0  0  0  0 
 15 38  1  0  0  0  0 
 16 39  1  0  0  0  0 
 16 40  1  0  0  0  0 
M  END
> <cdk:Title>
mannomustine

> <Conformer>
1

> <SuperDrugID>
SD001444

$$$$
