halocarban
  CDK     0628171801

 31 32  0  0  0  0  0  0  0  0999 V2000
    0.4804    0.9859    1.3811 N   0  0  0  0  0  0  0  0  0  0  0  0
   -0.1583    2.0686    0.8604 C   0  0  0  0  0  0  0  0  0  0  0  0
    0.5406    0.5199    2.6675 C   0  0  0  0  0  0  0  0  0  0  0  0
   -0.0240    2.2007   -0.4831 N   0  0  0  0  0  0  0  0  0  0  0  0
   -0.8183    2.8777    1.5507 O   0  0  0  0  0  0  0  0  0  0  0  0
   -0.2775    0.9354    3.7455 C   0  0  0  0  0  0  0  0  0  0  0  0
    1.5126   -0.4704    2.9133 C   0  0  0  0  0  0  0  0  0  0  0  0
   -0.5123    3.1574   -1.3275 C   0  0  0  0  0  0  0  0  0  0  0  0
   -0.0993    0.4422    5.0649 C   0  0  0  0  0  0  0  0  0  0  0  0
    1.6998   -0.9896    4.2030 C   0  0  0  0  0  0  0  0  0  0  0  0
   -0.9634    4.4519   -0.9665 C   0  0  0  0  0  0  0  0  0  0  0  0
   -0.5382    2.7939   -2.6912 C   0  0  0  0  0  0  0  0  0  0  0  0
   -0.9587    0.9327    6.1875 C   0  0  1  0  0  0  0  0  0  0  0  0
    0.9163   -0.5320    5.2797 C   0  0  0  0  0  0  0  0  0  0  0  0
   -1.4561    5.3374   -1.9446 C   0  0  0  0  0  0  0  0  0  0  0  0
   -1.0257    3.6764   -3.6696 C   0  0  0  0  0  0  0  0  0  0  0  0
   -1.9289    1.8419    5.8335 F   0  0  0  0  0  0  0  0  0  0  0  0
   -1.6286   -0.1129    6.7733 F   0  0  0  0  0  0  0  0  0  0  0  0
   -0.1810    1.5504    7.1357 F   0  0  0  0  0  0  0  0  0  0  0  0
    1.2540   -1.2041    6.8050 Cl  0  0  0  0  0  0  0  0  0  0  0  0
   -1.4990    4.9486   -3.2977 C   0  0  0  0  0  0  0  0  0  0  0  0
   -2.1152    6.0042   -4.4696 Cl  0  0  0  0  0  0  0  0  0  0  0  0
    0.9907    0.4716    0.7341 H   0  0  0  0  0  0  0  0  0  0  0  0
    0.4742    1.4887   -0.9166 H   0  0  0  0  0  0  0  0  0  0  0  0
   -1.0210    1.6057    3.5682 H   0  0  0  0  0  0  0  0  0  0  0  0
    2.1044   -0.8183    2.1529 H   0  0  0  0  0  0  0  0  0  0  0  0
    2.4193   -1.7028    4.3482 H   0  0  0  0  0  0  0  0  0  0  0  0
   -0.9324    4.7749    0.0004 H   0  0  0  0  0  0  0  0  0  0  0  0
   -0.2048    1.8713   -2.9824 H   0  0  0  0  0  0  0  0  0  0  0  0
   -1.7825    6.2646   -1.6649 H   0  0  0  0  0  0  0  0  0  0  0  0
   -1.0333    3.3800   -4.6482 H   0  0  0  0  0  0  0  0  0  0  0  0
  1  2  1  0  0  0  0 
  1  3  1  0  0  0  0 
  2  4  1  0  0  0  0 
  2  5  2  0  0  0  0 
  3  6  2  0  0  0  0 
  3  7  1  0  0  0  0 
  4  8  1  0  0  0  0 
  6  9  1  0  0  0  0 
  7 10  2  0  0  0  0 
  8 11  2  0  0  0  0 
  8 12  1  0  0  0  0 
  9 13  1  0  0  0  0 
  9 14  2  0  0  0  0 
 10 14  1  0  0  0  0 
 11 15  1  0  0  0  0 
 12 16  2  0  0  0  0 
 13 17  1  0  0  0  0 
 13 18  1  0  0  0  0 
 13 19  1  0  0  0  0 
 14 20  1  0  0  0  0 
 15 21  2  0  0  0  0 
 16 21  1  0  0  0  0 
 21 22  1  0  0  0  0 
  1 23  1  0  0  0  0 
  4 24  1  0  0  0  0 
  6 25  1  0  0  0  0 
  7 26  1  0  0  0  0 
 10 27  1  0  0  0  0 
 11 28  1  0  0  0  0 
 12 29  1  0  0  0  0 
 15 30  1  0  0  0  0 
 16 31  1  0  0  0  0 
M  END
> <cdk:Title>
halocarban

> <Conformer>
1

> <SuperDrugID>
SD002695

$$$$
