sulfameter
  CDK     0628171801

 31 32  0  0  0  0  0  0  0  0999 V2000
   -0.1776    2.8506    4.7420 S   0  0  1  0  0  0  0  0  0  0  0  0
    0.7448    2.0310    3.5434 N   0  0  0  0  0  0  0  0  0  0  0  0
   -1.1243    3.9130    3.9998 O   0  0  0  0  0  0  0  0  0  0  0  0
   -1.1048    1.7658    5.4784 O   0  0  0  0  0  0  0  0  0  0  0  0
    0.8521    3.6394    5.9493 C   0  0  0  0  0  0  0  0  0  0  0  0
    1.9113    2.4656    3.0151 C   0  0  0  0  0  0  0  0  0  0  0  0
    0.7047    5.0109    6.2465 C   0  0  0  0  0  0  0  0  0  0  0  0
    1.8409    2.8859    6.6142 C   0  0  0  0  0  0  0  0  0  0  0  0
    2.4891    1.7134    2.0435 N   0  0  0  0  0  0  0  0  0  0  0  0
    2.5203    3.6200    3.3977 N   0  0  0  0  0  0  0  0  0  0  0  0
    1.5688    5.6325    7.1678 C   0  0  0  0  0  0  0  0  0  0  0  0
    2.7063    3.5065    7.5324 C   0  0  0  0  0  0  0  0  0  0  0  0
    3.6498    2.0820    1.4441 C   0  0  0  0  0  0  0  0  0  0  0  0
    3.6839    4.0399    2.8417 C   0  0  0  0  0  0  0  0  0  0  0  0
    2.5838    4.8852    7.7992 C   0  0  0  0  0  0  0  0  0  0  0  0
    4.2955    3.2709    1.8337 C   0  0  0  0  0  0  0  0  0  0  0  0
    3.4366    5.4888    8.6508 N   0  0  0  0  0  0  0  0  0  0  0  0
    5.4460    3.6863    1.2267 O   0  0  0  0  0  0  0  0  0  0  0  0
    6.6333    3.1975    1.8726 C   0  0  0  0  0  0  0  0  0  0  0  0
    0.3795    1.2040    3.1937 H   0  0  0  0  0  0  0  0  0  0  0  0
   -0.0277    5.5645    5.7953 H   0  0  0  0  0  0  0  0  0  0  0  0
    1.9372    1.8859    6.4281 H   0  0  0  0  0  0  0  0  0  0  0  0
    1.4560    6.6301    7.3735 H   0  0  0  0  0  0  0  0  0  0  0  0
    3.4266    2.9509    8.0010 H   0  0  0  0  0  0  0  0  0  0  0  0
    4.0449    1.4945    0.7081 H   0  0  0  0  0  0  0  0  0  0  0  0
    4.1050    4.9150    3.1584 H   0  0  0  0  0  0  0  0  0  0  0  0
    4.1375    4.9763    9.0805 H   0  0  0  0  0  0  0  0  0  0  0  0
    3.3525    6.4375    8.8319 H   0  0  0  0  0  0  0  0  0  0  0  0
    7.4955    3.5932    1.3348 H   0  0  0  0  0  0  0  0  0  0  0  0
    6.6966    3.5373    2.9097 H   0  0  0  0  0  0  0  0  0  0  0  0
    6.6863    2.1059    1.8415 H   0  0  0  0  0  0  0  0  0  0  0  0
  1  2  1  0  0  0  0 
  1  3  2  0  0  0  0 
  1  4  2  0  0  0  0 
  1  5  1  0  0  0  0 
  2  6  1  0  0  0  0 
  5  7  2  0  0  0  0 
  5  8  1  0  0  0  0 
  6  9  2  0  0  0  0 
  6 10  1  0  0  0  0 
  7 11  1  0  0  0  0 
  8 12  2  0  0  0  0 
  9 13  1  0  0  0  0 
 10 14  2  0  0  0  0 
 11 15  2  0  0  0  0 
 12 15  1  0  0  0  0 
 13 16  2  0  0  0  0 
 14 16  1  0  0  0  0 
 15 17  1  0  0  0  0 
 16 18  1  0  0  0  0 
 18 19  1  0  0  0  0 
  2 20  1  0  0  0  0 
  7 21  1  0  0  0  0 
  8 22  1  0  0  0  0 
 11 23  1  0  0  0  0 
 12 24  1  0  0  0  0 
 13 25  1  0  0  0  0 
 14 26  1  0  0  0  0 
 17 27  1  0  0  0  0 
 17 28  1  0  0  0  0 
 19 29  1  0  0  0  0 
 19 30  1  0  0  0  0 
 19 31  1  0  0  0  0 
M  END
> <cdk:Title>
sulfameter

> <Conformer>
1

> <SuperDrugID>
SD002257

$$$$
