octyltriethoxysilane
  CDK     0628171802

 50 49  0  0  0  0  0  0  0  0999 V2000
   -0.7190    1.5573   -1.2533 Si  0  0  2  0  0  0  0  0  0  0  0  0
   -2.3827    2.0563   -1.0838 C   0  0  1  0  0  0  0  0  0  0  0  0
    0.2239    2.8815   -1.4395 O   0  0  0  0  0  0  0  0  0  0  0  0
   -0.5703    0.6416   -2.5982 O   0  0  0  0  0  0  0  0  0  0  0  0
   -0.2212    0.6668    0.0212 O   0  0  0  0  0  0  0  0  0  0  0  0
   -2.9292    2.6933   -2.3872 C   0  0  2  0  0  0  0  0  0  0  0  0
    1.0465    3.2637   -0.3181 C   0  0  1  0  0  0  0  0  0  0  0  0
    0.7884    0.3534   -2.9755 C   0  0  2  0  0  0  0  0  0  0  0  0
   -0.8225   -0.6398    0.1489 C   0  0  2  0  0  0  0  0  0  0  0  0
   -4.4145    3.1228   -2.2721 C   0  0  2  0  0  0  0  0  0  0  0  0
    1.9113    4.4634   -0.7542 C   0  0  0  0  0  0  0  0  0  0  0  0
    0.7714   -0.7413   -4.0565 C   0  0  0  0  0  0  0  0  0  0  0  0
   -0.0971   -1.3912    1.2789 C   0  0  0  0  0  0  0  0  0  0  0  0
   -4.8964    3.7792   -3.5907 C   0  0  1  0  0  0  0  0  0  0  0  0
   -6.3758    4.2392   -3.5570 C   0  0  1  0  0  0  0  0  0  0  0  0
   -6.7283    5.0942   -4.8048 C   0  0  1  0  0  0  0  0  0  0  0  0
   -8.2135    5.5365   -4.8474 C   0  0  1  0  0  0  0  0  0  0  0  0
   -8.5037    6.5480   -5.9804 C   0  0  0  0  0  0  0  0  0  0  0  0
   -2.9944    1.1888   -0.8316 H   0  0  0  0  0  0  0  0  0  0  0  0
   -2.4507    2.7766   -0.2657 H   0  0  0  0  0  0  0  0  0  0  0  0
   -2.8443    1.9748   -3.2098 H   0  0  0  0  0  0  0  0  0  0  0  0
   -2.3253    3.5716   -2.6396 H   0  0  0  0  0  0  0  0  0  0  0  0
    0.4372    3.5578    0.5418 H   0  0  0  0  0  0  0  0  0  0  0  0
    1.7183    2.4542   -0.0127 H   0  0  0  0  0  0  0  0  0  0  0  0
    1.3825   -0.0183   -2.1336 H   0  0  0  0  0  0  0  0  0  0  0  0
    1.2642    1.2519   -3.3834 H   0  0  0  0  0  0  0  0  0  0  0  0
   -0.7203   -1.2389   -0.7616 H   0  0  0  0  0  0  0  0  0  0  0  0
   -1.8842   -0.5658    0.3999 H   0  0  0  0  0  0  0  0  0  0  0  0
   -4.5188    3.8380   -1.4517 H   0  0  0  0  0  0  0  0  0  0  0  0
   -5.0331    2.2488   -2.0490 H   0  0  0  0  0  0  0  0  0  0  0  0
    2.6319    4.7188    0.0260 H   0  0  0  0  0  0  0  0  0  0  0  0
    2.4605    4.2158   -1.6663 H   0  0  0  0  0  0  0  0  0  0  0  0
    1.2760    5.3317   -0.9453 H   0  0  0  0  0  0  0  0  0  0  0  0
    1.7851   -0.9253   -4.4150 H   0  0  0  0  0  0  0  0  0  0  0  0
    0.3687   -1.6685   -3.6433 H   0  0  0  0  0  0  0  0  0  0  0  0
    0.1523   -0.4306   -4.8990 H   0  0  0  0  0  0  0  0  0  0  0  0
   -0.5677   -2.3636    1.4416 H   0  0  0  0  0  0  0  0  0  0  0  0
    0.9547   -1.5375    1.0154 H   0  0  0  0  0  0  0  0  0  0  0  0
   -0.1503   -0.8156    2.2036 H   0  0  0  0  0  0  0  0  0  0  0  0
   -4.2588    4.6446   -3.7924 H   0  0  0  0  0  0  0  0  0  0  0  0
   -4.7698    3.0669   -4.4116 H   0  0  0  0  0  0  0  0  0  0  0  0
   -7.0247    3.3593   -3.5122 H   0  0  0  0  0  0  0  0  0  0  0  0
   -6.5475    4.8371   -2.6575 H   0  0  0  0  0  0  0  0  0  0  0  0
   -6.0926    5.9842   -4.8023 H   0  0  0  0  0  0  0  0  0  0  0  0
   -6.5047    4.5203   -5.7088 H   0  0  0  0  0  0  0  0  0  0  0  0
   -8.8450    4.6568   -4.9945 H   0  0  0  0  0  0  0  0  0  0  0  0
   -8.4873    5.9976   -3.8951 H   0  0  0  0  0  0  0  0  0  0  0  0
   -9.5644    6.8073   -5.9814 H   0  0  0  0  0  0  0  0  0  0  0  0
   -7.9245    7.4630   -5.8354 H   0  0  0  0  0  0  0  0  0  0  0  0
   -8.2497    6.1187   -6.9518 H   0  0  0  0  0  0  0  0  0  0  0  0
  1  2  1  0  0  0  0 
  1  3  1  0  0  0  0 
  1  4  1  0  0  0  0 
  1  5  1  0  0  0  0 
  2  6  1  0  0  0  0 
  3  7  1  0  0  0  0 
  4  8  1  0  0  0  0 
  5  9  1  0  0  0  0 
  6 10  1  0  0  0  0 
  7 11  1  0  0  0  0 
  8 12  1  0  0  0  0 
  9 13  1  0  0  0  0 
 10 14  1  0  0  0  0 
 14 15  1  0  0  0  0 
 15 16  1  0  0  0  0 
 16 17  1  0  0  0  0 
 17 18  1  0  0  0  0 
  2 19  1  0  0  0  0 
  2 20  1  0  0  0  0 
  6 21  1  0  0  0  0 
  6 22  1  0  0  0  0 
  7 23  1  0  0  0  0 
  7 24  1  0  0  0  0 
  8 25  1  0  0  0  0 
  8 26  1  0  0  0  0 
  9 27  1  0  0  0  0 
  9 28  1  0  0  0  0 
 10 29  1  0  0  0  0 
 10 30  1  0  0  0  0 
 11 31  1  0  0  0  0 
 11 32  1  0  0  0  0 
 11 33  1  0  0  0  0 
 12 34  1  0  0  0  0 
 12 35  1  0  0  0  0 
 12 36  1  0  0  0  0 
 13 37  1  0  0  0  0 
 13 38  1  0  0  0  0 
 13 39  1  0  0  0  0 
 14 40  1  0  0  0  0 
 14 41  1  0  0  0  0 
 15 42  1  0  0  0  0 
 15 43  1  0  0  0  0 
 16 44  1  0  0  0  0 
 16 45  1  0  0  0  0 
 17 46  1  0  0  0  0 
 17 47  1  0  0  0  0 
 18 48  1  0  0  0  0 
 18 49  1  0  0  0  0 
 18 50  1  0  0  0  0 
M  END
> <cdk:Title>
octyltriethoxysilane

> <Conformer>
1

> <SuperDrugID>
SD003677

$$$$
