histapyrrodine
  CDK     0628171801

 45 47  0  0  0  0  0  0  0  0999 V2000
   -1.3039    3.9704    1.6304 N   0  0  0  0  0  0  0  0  0  0  0  0
   -0.6466    5.2264    1.9465 C   0  0  2  0  0  0  0  0  0  0  0  0
   -0.5774    2.7998    1.1608 C   0  0  2  0  0  0  0  0  0  0  0  0
   -2.6826    3.9066    1.6983 C   0  0  0  0  0  0  0  0  0  0  0  0
    0.6958    5.1067    2.5798 C   0  0  0  0  0  0  0  0  0  0  0  0
   -0.9472    2.3816   -0.2902 C   0  0  2  0  0  0  0  0  0  0  0  0
   -3.4837    4.7504    0.8891 C   0  0  0  0  0  0  0  0  0  0  0  0
   -3.3297    2.9724    2.5425 C   0  0  0  0  0  0  0  0  0  0  0  0
    0.8467    4.3921    3.7912 C   0  0  0  0  0  0  0  0  0  0  0  0
    1.8430    5.6731    1.9746 C   0  0  0  0  0  0  0  0  0  0  0  0
   -0.2104    1.1681   -0.7501 N   0  0  1  0  0  0  0  0  0  0  0  0
   -4.8884    4.6526    0.9121 C   0  0  0  0  0  0  0  0  0  0  0  0
   -4.7334    2.8691    2.5611 C   0  0  0  0  0  0  0  0  0  0  0  0
    2.1154    4.2433    4.3797 C   0  0  0  0  0  0  0  0  0  0  0  0
    3.1107    5.5257    2.5666 C   0  0  0  0  0  0  0  0  0  0  0  0
   -0.3697   -0.0741    0.0531 C   0  0  2  0  0  0  0  0  0  0  0  0
   -0.4457    0.7903   -2.1621 C   0  0  2  0  0  0  0  0  0  0  0  0
   -5.5122    3.7065    1.7436 C   0  0  0  0  0  0  0  0  0  0  0  0
    3.2474    4.8148    3.7719 C   0  0  0  0  0  0  0  0  0  0  0  0
   -0.2398   -1.2584   -0.9268 C   0  0  2  0  0  0  0  0  0  0  0  0
    0.1747   -0.6100   -2.2573 C   0  0  2  0  0  0  0  0  0  0  0  0
   -1.2599    5.8204    2.6369 H   0  0  0  0  0  0  0  0  0  0  0  0
   -0.5795    5.7866    1.0097 H   0  0  0  0  0  0  0  0  0  0  0  0
   -0.7820    1.9708    1.8411 H   0  0  0  0  0  0  0  0  0  0  0  0
    0.5046    2.9487    1.1831 H   0  0  0  0  0  0  0  0  0  0  0  0
   -0.7021    3.2156   -0.9568 H   0  0  0  0  0  0  0  0  0  0  0  0
   -2.0217    2.1925   -0.3606 H   0  0  0  0  0  0  0  0  0  0  0  0
   -3.0484    5.4315    0.2628 H   0  0  0  0  0  0  0  0  0  0  0  0
   -2.7803    2.3578    3.1476 H   0  0  0  0  0  0  0  0  0  0  0  0
    0.0350    3.9671    4.2460 H   0  0  0  0  0  0  0  0  0  0  0  0
    1.7663    6.1959    1.0981 H   0  0  0  0  0  0  0  0  0  0  0  0
   -5.4567    5.2624    0.3185 H   0  0  0  0  0  0  0  0  0  0  0  0
   -5.1887    2.1819    3.1667 H   0  0  0  0  0  0  0  0  0  0  0  0
    2.2172    3.7146    5.2477 H   0  0  0  0  0  0  0  0  0  0  0  0
    3.9343    5.9328    2.1182 H   0  0  0  0  0  0  0  0  0  0  0  0
   -1.3367   -0.1159    0.5675 H   0  0  0  0  0  0  0  0  0  0  0  0
    0.4301   -0.1104    0.7980 H   0  0  0  0  0  0  0  0  0  0  0  0
    0.0450    1.4871   -2.8445 H   0  0  0  0  0  0  0  0  0  0  0  0
   -1.5154    0.7433   -2.3980 H   0  0  0  0  0  0  0  0  0  0  0  0
   -6.5312    3.6255    1.7524 H   0  0  0  0  0  0  0  0  0  0  0  0
    4.1688    4.7088    4.2037 H   0  0  0  0  0  0  0  0  0  0  0  0
   -1.2084   -1.7580   -1.0376 H   0  0  0  0  0  0  0  0  0  0  0  0
    0.5024   -1.9843   -0.5824 H   0  0  0  0  0  0  0  0  0  0  0  0
    1.2648   -0.5342   -2.3182 H   0  0  0  0  0  0  0  0  0  0  0  0
   -0.2013   -1.1677   -3.1182 H   0  0  0  0  0  0  0  0  0  0  0  0
  1  2  1  0  0  0  0 
  1  3  1  0  0  0  0 
  1  4  1  0  0  0  0 
  2  5  1  0  0  0  0 
  3  6  1  0  0  0  0 
  4  7  2  0  0  0  0 
  4  8  1  0  0  0  0 
  5  9  2  0  0  0  0 
  5 10  1  0  0  0  0 
  6 11  1  0  0  0  0 
  7 12  1  0  0  0  0 
  8 13  2  0  0  0  0 
  9 14  1  0  0  0  0 
 10 15  2  0  0  0  0 
 11 16  1  0  0  0  0 
 11 17  1  0  0  0  0 
 12 18  2  0  0  0  0 
 13 18  1  0  0  0  0 
 14 19  2  0  0  0  0 
 15 19  1  0  0  0  0 
 16 20  1  0  0  0  0 
 17 21  1  0  0  0  0 
 20 21  1  0  0  0  0 
  2 22  1  0  0  0  0 
  2 23  1  0  0  0  0 
  3 24  1  0  0  0  0 
  3 25  1  0  0  0  0 
  6 26  1  0  0  0  0 
  6 27  1  0  0  0  0 
  7 28  1  0  0  0  0 
  8 29  1  0  0  0  0 
  9 30  1  0  0  0  0 
 10 31  1  0  0  0  0 
 12 32  1  0  0  0  0 
 13 33  1  0  0  0  0 
 14 34  1  0  0  0  0 
 15 35  1  0  0  0  0 
 16 36  1  0  0  0  0 
 16 37  1  0  0  0  0 
 17 38  1  0  0  0  0 
 17 39  1  0  0  0  0 
 18 40  1  0  0  0  0 
 19 41  1  0  0  0  0 
 20 42  1  0  0  0  0 
 20 43  1  0  0  0  0 
 21 44  1  0  0  0  0 
 21 45  1  0  0  0  0 
M  END
> <cdk:Title>
histapyrrodine

> <Conformer>
1

> <SuperDrugID>
SD001222

$$$$
