octabenzone
  CDK     0628171801

 50 51  0  0  0  0  0  0  0  0999 V2000
   -0.3903   -0.8388   -0.2239 C   0  0  0  0  0  0  0  0  0  0  0  0
   -1.4869   -1.3311    0.1399 O   0  0  0  0  0  0  0  0  0  0  0  0
    0.5358   -1.7442   -0.8298 C   0  0  0  0  0  0  0  0  0  0  0  0
   -0.1890    0.5620   -0.0097 C   0  0  0  0  0  0  0  0  0  0  0  0
    0.7235   -3.0545   -0.3114 C   0  0  0  0  0  0  0  0  0  0  0  0
    1.2566   -1.3841   -1.9957 C   0  0  0  0  0  0  0  0  0  0  0  0
    1.1055    1.1314    0.1025 C   0  0  0  0  0  0  0  0  0  0  0  0
   -1.3019    1.4312    0.1436 C   0  0  0  0  0  0  0  0  0  0  0  0
    0.0735   -3.4648    0.8100 O   0  0  0  0  0  0  0  0  0  0  0  0
    1.5907   -3.9661   -0.9475 C   0  0  0  0  0  0  0  0  0  0  0  0
    2.1297   -2.2967   -2.6201 C   0  0  0  0  0  0  0  0  0  0  0  0
    1.2778    2.5091    0.3422 C   0  0  0  0  0  0  0  0  0  0  0  0
   -1.1332    2.8070    0.3790 C   0  0  0  0  0  0  0  0  0  0  0  0
    2.3037   -3.5935   -2.1020 C   0  0  0  0  0  0  0  0  0  0  0  0
    0.1582    3.3481    0.4760 C   0  0  0  0  0  0  0  0  0  0  0  0
    3.1153   -4.4806   -2.7639 O   0  0  0  0  0  0  0  0  0  0  0  0
    4.3758   -4.7533   -2.1189 C   0  0  2  0  0  0  0  0  0  0  0  0
    5.2682   -5.6352   -3.0272 C   0  0  2  0  0  0  0  0  0  0  0  0
    4.6419   -7.0048   -3.4164 C   0  0  1  0  0  0  0  0  0  0  0  0
    5.6485   -7.9043   -4.1864 C   0  0  2  0  0  0  0  0  0  0  0  0
    5.0773   -9.2948   -4.5801 C   0  0  1  0  0  0  0  0  0  0  0  0
    6.1182  -10.1591   -5.3456 C   0  0  1  0  0  0  0  0  0  0  0  0
    5.5741  -11.5469   -5.7813 C   0  0  2  0  0  0  0  0  0  0  0  0
    6.6119  -12.3736   -6.5777 C   0  0  0  0  0  0  0  0  0  0  0  0
    1.1437   -0.4567   -2.4126 H   0  0  0  0  0  0  0  0  0  0  0  0
    1.9417    0.5485    0.0306 H   0  0  0  0  0  0  0  0  0  0  0  0
   -2.2567    1.0714    0.0902 H   0  0  0  0  0  0  0  0  0  0  0  0
    0.3631   -4.3874    0.9658 H   0  0  0  0  0  0  0  0  0  0  0  0
    1.7007   -4.9097   -0.5705 H   0  0  0  0  0  0  0  0  0  0  0  0
    2.6341   -2.0175   -3.4650 H   0  0  0  0  0  0  0  0  0  0  0  0
    2.2185    2.9028    0.4247 H   0  0  0  0  0  0  0  0  0  0  0  0
   -1.9498    3.4129    0.4830 H   0  0  0  0  0  0  0  0  0  0  0  0
    0.2819    4.3494    0.6423 H   0  0  0  0  0  0  0  0  0  0  0  0
    4.2177   -5.2695   -1.1682 H   0  0  0  0  0  0  0  0  0  0  0  0
    4.9129   -3.8215   -1.9168 H   0  0  0  0  0  0  0  0  0  0  0  0
    6.2125   -5.8068   -2.5023 H   0  0  0  0  0  0  0  0  0  0  0  0
    5.4937   -5.0756   -3.9388 H   0  0  0  0  0  0  0  0  0  0  0  0
    4.3165   -7.5236   -2.5107 H   0  0  0  0  0  0  0  0  0  0  0  0
    3.7640   -6.8286   -4.0445 H   0  0  0  0  0  0  0  0  0  0  0  0
    6.5336   -8.0549   -3.5608 H   0  0  0  0  0  0  0  0  0  0  0  0
    5.9591   -7.3796   -5.0949 H   0  0  0  0  0  0  0  0  0  0  0  0
    4.7684   -9.8256   -3.6751 H   0  0  0  0  0  0  0  0  0  0  0  0
    4.1958   -9.1533   -5.2122 H   0  0  0  0  0  0  0  0  0  0  0  0
    6.4406   -9.6135   -6.2370 H   0  0  0  0  0  0  0  0  0  0  0  0
    6.9920  -10.3104   -4.7057 H   0  0  0  0  0  0  0  0  0  0  0  0
    4.6884  -11.4099   -6.4075 H   0  0  0  0  0  0  0  0  0  0  0  0
    5.2798  -12.1190   -4.8966 H   0  0  0  0  0  0  0  0  0  0  0  0
    6.1768  -13.3323   -6.8729 H   0  0  0  0  0  0  0  0  0  0  0  0
    6.9142  -11.8384   -7.4811 H   0  0  0  0  0  0  0  0  0  0  0  0
    7.4969  -12.5678   -5.9670 H   0  0  0  0  0  0  0  0  0  0  0  0
  1  2  2  0  0  0  0 
  1  3  1  0  0  0  0 
  1  4  1  0  0  0  0 
  3  5  2  0  0  0  0 
  3  6  1  0  0  0  0 
  4  7  2  0  0  0  0 
  4  8  1  0  0  0  0 
  5  9  1  0  0  0  0 
  5 10  1  0  0  0  0 
  6 11  2  0  0  0  0 
  7 12  1  0  0  0  0 
  8 13  2  0  0  0  0 
 10 14  2  0  0  0  0 
 11 14  1  0  0  0  0 
 12 15  2  0  0  0  0 
 13 15  1  0  0  0  0 
 14 16  1  0  0  0  0 
 16 17  1  0  0  0  0 
 17 18  1  0  0  0  0 
 18 19  1  0  0  0  0 
 19 20  1  0  0  0  0 
 20 21  1  0  0  0  0 
 21 22  1  0  0  0  0 
 22 23  1  0  0  0  0 
 23 24  1  0  0  0  0 
  6 25  1  0  0  0  0 
  7 26  1  0  0  0  0 
  8 27  1  0  0  0  0 
  9 28  1  0  0  0  0 
 10 29  1  0  0  0  0 
 11 30  1  0  0  0  0 
 12 31  1  0  0  0  0 
 13 32  1  0  0  0  0 
 15 33  1  0  0  0  0 
 17 34  1  0  0  0  0 
 17 35  1  0  0  0  0 
 18 36  1  0  0  0  0 
 18 37  1  0  0  0  0 
 19 38  1  0  0  0  0 
 19 39  1  0  0  0  0 
 20 40  1  0  0  0  0 
 20 41  1  0  0  0  0 
 21 42  1  0  0  0  0 
 21 43  1  0  0  0  0 
 22 44  1  0  0  0  0 
 22 45  1  0  0  0  0 
 23 46  1  0  0  0  0 
 23 47  1  0  0  0  0 
 24 48  1  0  0  0  0 
 24 49  1  0  0  0  0 
 24 50  1  0  0  0  0 
M  END
> <cdk:Title>
octabenzone

> <Conformer>
1

> <SuperDrugID>
SD002920

$$$$
