memantine
  CDK     0628171801

 34 36  0  0  0  0  0  0  0  0999 V2000
    2.5773    1.8008   -2.1048 C   0  0  2  0  0  0  0  0  0  0  0  0
    1.2071    1.1869   -2.5664 C   0  0  1  0  0  0  0  0  0  0  0  0
    0.7102    0.1887   -1.4600 C   0  0  1  0  0  0  0  0  0  0  0  0
    0.5327    0.9142   -0.0789 C   0  0  1  0  0  0  0  0  0  0  0  0
    1.9134    1.5327    0.3421 C   0  0  2  0  0  0  0  0  0  0  0  0
    2.4112    2.5461   -0.7402 C   0  0  2  0  0  0  0  0  0  0  0  0
    1.3595    3.6928   -0.8998 C   0  0  1  0  0  0  0  0  0  0  0  0
   -0.0099    3.0868   -1.3377 C   0  0  2  0  0  0  0  0  0  0  0  0
   -0.5077    2.0785   -0.2552 C   0  0  1  0  0  0  0  0  0  0  0  0
    0.1552    2.3466   -2.7012 C   0  0  1  0  0  0  0  0  0  0  0  0
    3.7022    3.1169   -0.3181 N   0  0  1  0  0  0  0  0  0  0  0  0
    1.3716    0.4439   -3.9268 C   0  0  0  0  0  0  0  0  0  0  0  0
    0.0394   -0.0972    1.0007 C   0  0  0  0  0  0  0  0  0  0  0  0
    2.9524    2.4994   -2.8596 H   0  0  0  0  0  0  0  0  0  0  0  0
    3.3277    1.0107   -1.9990 H   0  0  0  0  0  0  0  0  0  0  0  0
   -0.2414   -0.2574   -1.7672 H   0  0  0  0  0  0  0  0  0  0  0  0
    1.4277   -0.6321   -1.3560 H   0  0  0  0  0  0  0  0  0  0  0  0
    2.6574    0.7396    0.4681 H   0  0  0  0  0  0  0  0  0  0  0  0
    1.8212    2.0404    1.3074 H   0  0  0  0  0  0  0  0  0  0  0  0
    1.2405    4.2348    0.0432 H   0  0  0  0  0  0  0  0  0  0  0  0
    1.6993    4.4171   -1.6464 H   0  0  0  0  0  0  0  0  0  0  0  0
   -0.7427    3.8911   -1.4481 H   0  0  0  0  0  0  0  0  0  0  0  0
   -1.4815    1.6778   -0.5540 H   0  0  0  0  0  0  0  0  0  0  0  0
   -0.6551    2.6061    0.6919 H   0  0  0  0  0  0  0  0  0  0  0  0
    0.4707    3.0616   -3.4675 H   0  0  0  0  0  0  0  0  0  0  0  0
   -0.8138    1.9470   -3.0163 H   0  0  0  0  0  0  0  0  0  0  0  0
    4.3722    2.3461   -0.2611 H   0  0  0  0  0  0  0  0  0  0  0  0
    4.0217    3.7385   -1.0645 H   0  0  0  0  0  0  0  0  0  0  0  0
    1.7164    1.1315   -4.7029 H   0  0  0  0  0  0  0  0  0  0  0  0
    2.0997   -0.3663   -3.8381 H   0  0  0  0  0  0  0  0  0  0  0  0
    0.4196    0.0139   -4.2478 H   0  0  0  0  0  0  0  0  0  0  0  0
   -0.0857    0.3994    1.9655 H   0  0  0  0  0  0  0  0  0  0  0  0
    0.7598   -0.9097    1.1239 H   0  0  0  0  0  0  0  0  0  0  0  0
   -0.9201   -0.5318    0.7108 H   0  0  0  0  0  0  0  0  0  0  0  0
  1  2  1  0  0  0  0 
  2  3  1  0  0  0  0 
  3  4  1  0  0  0  0 
  4  5  1  0  0  0  0 
  5  6  1  0  0  0  0 
  1  6  1  0  0  0  0 
  6  7  1  0  0  0  0 
  7  8  1  0  0  0  0 
  4  9  1  0  0  0  0 
  8  9  1  0  0  0  0 
  2 10  1  0  0  0  0 
 10  8  1  0  0  0  0 
  6 11  1  0  0  0  0 
  2 12  1  0  0  0  0 
  4 13  1  0  0  0  0 
  1 14  1  0  0  0  0 
  1 15  1  0  0  0  0 
  3 16  1  0  0  0  0 
  3 17  1  0  0  0  0 
  5 18  1  0  0  0  0 
  5 19  1  0  0  0  0 
  7 20  1  0  0  0  0 
  7 21  1  0  0  0  0 
  8 22  1  0  0  0  0 
  9 23  1  0  0  0  0 
  9 24  1  0  0  0  0 
 10 25  1  0  0  0  0 
 10 26  1  0  0  0  0 
 11 27  1  0  0  0  0 
 11 28  1  0  0  0  0 
 12 29  1  0  0  0  0 
 12 30  1  0  0  0  0 
 12 31  1  0  0  0  0 
 13 32  1  0  0  0  0 
 13 33  1  0  0  0  0 
 13 34  1  0  0  0  0 
M  END
> <cdk:Title>
memantine

> <Conformer>
1

> <SuperDrugID>
SD001485

$$$$
