parethoxycaine
  CDK     0628171801

 42 42  0  0  0  0  0  0  0  0999 V2000
    0.5468    2.7903   -6.2077 C   0  0  0  0  0  0  0  0  0  0  0  0
   -0.5829    2.0417   -6.3654 O   0  0  0  0  0  0  0  0  0  0  0  0
    1.4543    2.7216   -7.0715 O   0  0  0  0  0  0  0  0  0  0  0  0
    0.6843    3.6020   -5.0499 C   0  0  0  0  0  0  0  0  0  0  0  0
   -0.8860    1.1234   -7.4176 C   0  0  2  0  0  0  0  0  0  0  0  0
    1.9102    4.2406   -4.7385 C   0  0  0  0  0  0  0  0  0  0  0  0
   -0.4031    3.7745   -4.1566 C   0  0  0  0  0  0  0  0  0  0  0  0
   -2.2247    0.4378   -7.0684 C   0  0  2  0  0  0  0  0  0  0  0  0
    2.0567    4.9859   -3.5546 C   0  0  0  0  0  0  0  0  0  0  0  0
   -0.2600    4.5245   -2.9763 C   0  0  0  0  0  0  0  0  0  0  0  0
   -2.5188   -0.7243   -7.9749 N   0  0  1  0  0  0  0  0  0  0  0  0
    0.9798    5.1114   -2.6574 C   0  0  0  0  0  0  0  0  0  0  0  0
   -1.9062   -2.0082   -7.4785 C   0  0  1  0  0  0  0  0  0  0  0  0
   -3.9701   -0.8343   -8.3419 C   0  0  1  0  0  0  0  0  0  0  0  0
    1.1285    5.8225   -1.4985 O   0  0  0  0  0  0  0  0  0  0  0  0
   -1.7514   -3.1058   -8.5558 C   0  0  0  0  0  0  0  0  0  0  0  0
   -4.4183    0.2536   -9.3481 C   0  0  0  0  0  0  0  0  0  0  0  0
    1.5037    5.0021   -0.3736 C   0  0  1  0  0  0  0  0  0  0  0  0
    1.6556    5.9122    0.8582 C   0  0  0  0  0  0  0  0  0  0  0  0
   -0.0831    0.3880   -7.4977 H   0  0  0  0  0  0  0  0  0  0  0  0
   -0.9715    1.6616   -8.3645 H   0  0  0  0  0  0  0  0  0  0  0  0
    2.7152    4.1607   -5.3628 H   0  0  0  0  0  0  0  0  0  0  0  0
   -1.3157    3.3513   -4.3489 H   0  0  0  0  0  0  0  0  0  0  0  0
   -2.9916    1.2133   -7.1312 H   0  0  0  0  0  0  0  0  0  0  0  0
   -2.2104    0.1093   -6.0239 H   0  0  0  0  0  0  0  0  0  0  0  0
    2.9508    5.4323   -3.3411 H   0  0  0  0  0  0  0  0  0  0  0  0
   -1.0575    4.6364   -2.3447 H   0  0  0  0  0  0  0  0  0  0  0  0
   -0.8975   -1.8194   -7.1001 H   0  0  0  0  0  0  0  0  0  0  0  0
   -2.4922   -2.4075   -6.6453 H   0  0  0  0  0  0  0  0  0  0  0  0
   -4.1746   -1.7913   -8.8234 H   0  0  0  0  0  0  0  0  0  0  0  0
   -4.5938   -0.7829   -7.4444 H   0  0  0  0  0  0  0  0  0  0  0  0
   -2.7090   -3.5843   -8.7620 H   0  0  0  0  0  0  0  0  0  0  0  0
   -1.3568   -2.6762   -9.4777 H   0  0  0  0  0  0  0  0  0  0  0  0
   -1.0622   -3.8778   -8.2058 H   0  0  0  0  0  0  0  0  0  0  0  0
   -5.4084    0.0132   -9.7375 H   0  0  0  0  0  0  0  0  0  0  0  0
   -3.7180    0.3065  -10.1842 H   0  0  0  0  0  0  0  0  0  0  0  0
   -4.4767    1.2334   -8.8732 H   0  0  0  0  0  0  0  0  0  0  0  0
    0.7373    4.2496   -0.1626 H   0  0  0  0  0  0  0  0  0  0  0  0
    2.4554    4.4925   -0.5561 H   0  0  0  0  0  0  0  0  0  0  0  0
    2.4154    6.6729    0.6667 H   0  0  0  0  0  0  0  0  0  0  0  0
    0.7055    6.4055    1.0739 H   0  0  0  0  0  0  0  0  0  0  0  0
    1.9546    5.3254    1.7294 H   0  0  0  0  0  0  0  0  0  0  0  0
  1  2  1  0  0  0  0 
  1  3  2  0  0  0  0 
  1  4  1  0  0  0  0 
  2  5  1  0  0  0  0 
  4  6  2  0  0  0  0 
  4  7  1  0  0  0  0 
  5  8  1  0  0  0  0 
  6  9  1  0  0  0  0 
  7 10  2  0  0  0  0 
  8 11  1  0  0  0  0 
  9 12  2  0  0  0  0 
 10 12  1  0  0  0  0 
 11 13  1  0  0  0  0 
 11 14  1  0  0  0  0 
 12 15  1  0  0  0  0 
 13 16  1  0  0  0  0 
 14 17  1  0  0  0  0 
 15 18  1  0  0  0  0 
 18 19  1  0  0  0  0 
  5 20  1  0  0  0  0 
  5 21  1  0  0  0  0 
  6 22  1  0  0  0  0 
  7 23  1  0  0  0  0 
  8 24  1  0  0  0  0 
  8 25  1  0  0  0  0 
  9 26  1  0  0  0  0 
 10 27  1  0  0  0  0 
 13 28  1  0  0  0  0 
 13 29  1  0  0  0  0 
 14 30  1  0  0  0  0 
 14 31  1  0  0  0  0 
 16 32  1  0  0  0  0 
 16 33  1  0  0  0  0 
 16 34  1  0  0  0  0 
 17 35  1  0  0  0  0 
 17 36  1  0  0  0  0 
 17 37  1  0  0  0  0 
 18 38  1  0  0  0  0 
 18 39  1  0  0  0  0 
 19 40  1  0  0  0  0 
 19 41  1  0  0  0  0 
 19 42  1  0  0  0  0 
M  END
> <cdk:Title>
parethoxycaine

> <Conformer>
1

> <SuperDrugID>
SD003244

$$$$
