medroxyprogesterone
  CDK     0628171801

 62 65  0  0  0  0  0  0  0  0999 V2000
   -0.0939   -0.8561    2.1281 C   0  0  0  0  0  0  0  0  0  0  0  0
   -1.3328   -1.2020    1.2059 C   0  0  2  0  0  0  0  0  0  0  0  0
   -1.6925   -2.7256    1.1668 C   0  0  2  0  0  0  0  0  0  0  0  0
   -0.9727   -0.9588   -0.3186 C   0  0  2  0  0  0  0  0  0  0  0  0
   -2.6044   -0.4581    1.7592 C   0  0  2  0  0  0  0  0  0  0  0  0
   -2.0403   -3.3232    2.5690 C   0  0  1  0  0  0  0  0  0  0  0  0
   -0.5543   -3.3592    0.3423 C   0  0  1  0  0  0  0  0  0  0  0  0
   -0.2869    0.3472   -0.6058 C   0  0  0  0  0  0  0  0  0  0  0  0
   -2.2150   -0.9316   -1.0632 O   0  0  0  0  0  0  0  0  0  0  0  0
   -0.1808   -2.2656   -0.6879 C   0  0  1  0  0  0  0  0  0  0  0  0
   -3.1083   -1.0278    3.1219 C   0  0  2  0  0  0  0  0  0  0  0  0
   -3.2934   -2.5912    3.1683 C   0  0  2  0  0  0  0  0  0  0  0  0
   -2.3255   -4.8467    2.5082 C   0  0  1  0  0  0  0  0  0  0  0  0
    0.9458    0.4984   -1.4081 C   0  0  0  0  0  0  0  0  0  0  0  0
   -0.8386    1.4006   -0.2072 O   0  0  0  0  0  0  0  0  0  0  0  0
   -3.7572   -3.1882    4.5774 C   0  0  2  0  0  0  0  0  0  0  0  0
   -2.6291   -5.4147    3.9240 C   0  0  1  0  0  0  0  0  0  0  0  0
   -2.8048   -2.7443    5.7470 C   0  0  0  0  0  0  0  0  0  0  0  0
   -3.7625   -4.6944    4.5742 C   0  0  0  0  0  0  0  0  0  0  0  0
   -5.2103   -2.6311    4.8760 C   0  0  1  0  0  0  0  0  0  0  0  0
   -2.6787   -6.9748    3.8280 C   0  0  0  0  0  0  0  0  0  0  0  0
   -4.7255   -5.3788    5.2425 C   0  0  0  0  0  0  0  0  0  0  0  0
   -5.9270   -3.3357    6.0515 C   0  0  1  0  0  0  0  0  0  0  0  0
   -5.7324   -4.7943    5.9924 C   0  0  0  0  0  0  0  0  0  0  0  0
   -6.4765   -5.5171    6.6987 O   0  0  0  0  0  0  0  0  0  0  0  0
   -2.4745   -0.8592   -2.4022 C   0  0  0  0  0  0  0  0  0  0  0  0
   -3.8777   -0.8701   -2.8290 C   0  0  0  0  0  0  0  0  0  0  0  0
   -1.5589   -0.7997   -3.2541 O   0  0  0  0  0  0  0  0  0  0  0  0
    0.0987    0.2189    2.1281 H   0  0  0  0  0  0  0  0  0  0  0  0
    0.8178   -1.3529    1.7909 H   0  0  0  0  0  0  0  0  0  0  0  0
   -0.2496   -1.1452    3.1671 H   0  0  0  0  0  0  0  0  0  0  0  0
   -2.5976   -2.8647    0.5587 H   0  0  0  0  0  0  0  0  0  0  0  0
   -3.4318   -0.5301    1.0500 H   0  0  0  0  0  0  0  0  0  0  0  0
   -2.3898    0.6068    1.8832 H   0  0  0  0  0  0  0  0  0  0  0  0
   -1.1811   -3.1882    3.2253 H   0  0  0  0  0  0  0  0  0  0  0  0
    0.3004   -3.5980    0.9834 H   0  0  0  0  0  0  0  0  0  0  0  0
   -0.8842   -4.2775   -0.1520 H   0  0  0  0  0  0  0  0  0  0  0  0
   -0.4224   -2.6114   -1.6937 H   0  0  0  0  0  0  0  0  0  0  0  0
    0.8981   -2.1114   -0.6399 H   0  0  0  0  0  0  0  0  0  0  0  0
   -4.0597   -0.5396    3.3383 H   0  0  0  0  0  0  0  0  0  0  0  0
   -2.4091   -0.7163    3.8956 H   0  0  0  0  0  0  0  0  0  0  0  0
   -4.1076   -2.7984    2.4625 H   0  0  0  0  0  0  0  0  0  0  0  0
   -3.1637   -5.0539    1.8352 H   0  0  0  0  0  0  0  0  0  0  0  0
   -1.4412   -5.3471    2.1043 H   0  0  0  0  0  0  0  0  0  0  0  0
    1.1071    1.5400   -1.6951 H   0  0  0  0  0  0  0  0  0  0  0  0
    0.8796   -0.0937   -2.3211 H   0  0  0  0  0  0  0  0  0  0  0  0
    1.8035    0.1672   -0.8230 H   0  0  0  0  0  0  0  0  0  0  0  0
   -1.7513   -5.2080    4.5460 H   0  0  0  0  0  0  0  0  0  0  0  0
   -3.0251   -3.2877    6.6689 H   0  0  0  0  0  0  0  0  0  0  0  0
   -1.7582   -2.9250    5.5034 H   0  0  0  0  0  0  0  0  0  0  0  0
   -2.9145   -1.6821    5.9684 H   0  0  0  0  0  0  0  0  0  0  0  0
   -5.1904   -1.5612    5.0917 H   0  0  0  0  0  0  0  0  0  0  0  0
   -5.8480   -2.7626    3.9958 H   0  0  0  0  0  0  0  0  0  0  0  0
   -1.7994   -7.3642    3.3103 H   0  0  0  0  0  0  0  0  0  0  0  0
   -3.5686   -7.2998    3.2837 H   0  0  0  0  0  0  0  0  0  0  0  0
   -2.6847   -7.4196    4.8249 H   0  0  0  0  0  0  0  0  0  0  0  0
   -4.7221   -6.3694    5.2454 H   0  0  0  0  0  0  0  0  0  0  0  0
   -5.5404   -2.9656    7.0047 H   0  0  0  0  0  0  0  0  0  0  0  0
   -6.9963   -3.1065    6.0072 H   0  0  0  0  0  0  0  0  0  0  0  0
   -3.9540   -0.8235   -3.9174 H   0  0  0  0  0  0  0  0  0  0  0  0
   -4.3544   -1.7857   -2.4769 H   0  0  0  0  0  0  0  0  0  0  0  0
   -4.4094   -0.0210   -2.3949 H   0  0  0  0  0  0  0  0  0  0  0  0
  2  1  1  0  0  0  0 
  2  3  1  0  0  0  0 
  2  4  1  0  0  0  0 
  2  5  1  0  0  0  0 
  3  6  1  0  0  0  0 
  3  7  1  0  0  0  0 
  4  8  1  0  0  0  0 
  4  9  1  0  0  0  0 
  4 10  1  0  0  0  0 
  5 11  1  0  0  0  0 
  6 12  1  0  0  0  0 
  6 13  1  0  0  0  0 
  7 10  1  0  0  0  0 
  8 14  1  0  0  0  0 
  8 15  2  0  0  0  0 
 12 11  1  0  0  0  0 
 12 16  1  0  0  0  0 
 17 13  1  0  0  0  0 
 16 18  1  0  0  0  0 
 16 19  1  0  0  0  0 
 16 20  1  0  0  0  0 
 17 19  1  0  0  0  0 
 17 21  1  0  0  0  0 
 19 22  2  0  0  0  0 
 20 23  1  0  0  0  0 
 22 24  1  0  0  0  0 
 23 24  1  0  0  0  0 
 24 25  2  0  0  0  0 
  9 26  1  0  0  0  0 
 26 27  1  0  0  0  0 
 26 28  2  0  0  0  0 
 29  1  1  0  0  0  0 
 30  1  1  0  0  0  0 
 31  1  1  0  0  0  0 
  3 32  1  0  0  0  0 
 33  5  1  0  0  0  0 
 34  5  1  0  0  0  0 
  6 35  1  0  0  0  0 
 36  7  1  0  0  0  0 
 37  7  1  0  0  0  0 
 38 10  1  0  0  0  0 
 39 10  1  0  0  0  0 
 40 11  1  0  0  0  0 
 41 11  1  0  0  0  0 
 12 42  1  0  0  0  0 
 43 13  1  0  0  0  0 
 44 13  1  0  0  0  0 
 45 14  1  0  0  0  0 
 46 14  1  0  0  0  0 
 47 14  1  0  0  0  0 
 17 48  1  0  0  0  0 
 49 18  1  0  0  0  0 
 50 18  1  0  0  0  0 
 51 18  1  0  0  0  0 
 52 20  1  0  0  0  0 
 53 20  1  0  0  0  0 
 54 21  1  0  0  0  0 
 55 21  1  0  0  0  0 
 56 21  1  0  0  0  0 
 57 22  1  0  0  0  0 
 58 23  1  0  0  0  0 
 59 23  1  0  0  0  0 
 60 27  1  0  0  0  0 
 61 27  1  0  0  0  0 
 62 27  1  0  0  0  0 
M  END
> <cdk:Title>
medroxyprogesterone

> <Conformer>
1

> <SuperDrugID>
SD001469

$$$$
