maprotiline
  CDK     0628171801

 44 47  0  0  0  0  0  0  0  0999 V2000
   -1.6330   -2.3047    2.0832 C   0  0  1  0  0  0  0  0  0  0  0  0
   -1.6125   -1.8468    0.5860 C   0  0  2  0  0  0  0  0  0  0  0  0
   -2.9650   -2.9778    2.5796 C   0  0  1  0  0  0  0  0  0  0  0  0
   -0.2759   -1.2074    0.1507 C   0  0  2  0  0  0  0  0  0  0  0  0
   -4.1930   -2.0595    2.5637 C   0  0  0  0  0  0  0  0  0  0  0  0
   -3.3253   -4.2961    1.8863 C   0  0  0  0  0  0  0  0  0  0  0  0
   -2.8717   -3.4114    4.1002 C   0  0  1  0  0  0  0  0  0  0  0  0
   -0.0172    0.0800    0.8358 N   0  0  1  0  0  0  0  0  0  0  0  0
   -5.4135   -2.6989    2.9329 C   0  0  0  0  0  0  0  0  0  0  0  0
   -4.2344   -0.6645    2.3160 C   0  0  0  0  0  0  0  0  0  0  0  0
   -4.5848   -4.8417    2.2757 C   0  0  0  0  0  0  0  0  0  0  0  0
   -2.5250   -5.0617    1.0017 C   0  0  0  0  0  0  0  0  0  0  0  0
   -4.2309   -4.0721    4.5811 C   0  0  1  0  0  0  0  0  0  0  0  0
    1.2114    0.7501    0.3647 C   0  0  0  0  0  0  0  0  0  0  0  0
   -5.2609   -4.1119    3.3902 C   0  0  1  0  0  0  0  0  0  0  0  0
   -6.6400   -2.0044    2.9166 C   0  0  0  0  0  0  0  0  0  0  0  0
   -5.4562    0.0371    2.3225 C   0  0  0  0  0  0  0  0  0  0  0  0
   -5.0916   -6.0142    1.6795 C   0  0  0  0  0  0  0  0  0  0  0  0
   -3.0126   -6.2545    0.4341 C   0  0  0  0  0  0  0  0  0  0  0  0
   -6.6578   -0.6352    2.6042 C   0  0  0  0  0  0  0  0  0  0  0  0
   -4.3023   -6.7149    0.7523 C   0  0  0  0  0  0  0  0  0  0  0  0
   -0.8057   -2.9991    2.2494 H   0  0  0  0  0  0  0  0  0  0  0  0
   -1.4264   -1.4371    2.7135 H   0  0  0  0  0  0  0  0  0  0  0  0
   -2.4080   -1.1345    0.3734 H   0  0  0  0  0  0  0  0  0  0  0  0
   -1.7876   -2.6943   -0.0733 H   0  0  0  0  0  0  0  0  0  0  0  0
   -0.3205   -1.0393   -0.9291 H   0  0  0  0  0  0  0  0  0  0  0  0
    0.5346   -1.9098    0.3579 H   0  0  0  0  0  0  0  0  0  0  0  0
   -2.0523   -4.1238    4.2392 H   0  0  0  0  0  0  0  0  0  0  0  0
   -2.6453   -2.5427    4.7253 H   0  0  0  0  0  0  0  0  0  0  0  0
   -0.7992    0.7050    0.6242 H   0  0  0  0  0  0  0  0  0  0  0  0
   -3.3797   -0.1354    2.1520 H   0  0  0  0  0  0  0  0  0  0  0  0
   -1.5714   -4.7818    0.7782 H   0  0  0  0  0  0  0  0  0  0  0  0
   -4.0486   -5.0881    4.9432 H   0  0  0  0  0  0  0  0  0  0  0  0
   -4.6563   -3.4985    5.4101 H   0  0  0  0  0  0  0  0  0  0  0  0
    1.3550    1.6713    0.9266 H   0  0  0  0  0  0  0  0  0  0  0  0
    2.0825    0.1121    0.5193 H   0  0  0  0  0  0  0  0  0  0  0  0
    1.1304    0.9970   -0.6950 H   0  0  0  0  0  0  0  0  0  0  0  0
   -6.2082   -4.5709    3.6875 H   0  0  0  0  0  0  0  0  0  0  0  0
   -7.5130   -2.4823    3.1476 H   0  0  0  0  0  0  0  0  0  0  0  0
   -5.4725    1.0426    2.1343 H   0  0  0  0  0  0  0  0  0  0  0  0
   -6.0167   -6.3699    1.9302 H   0  0  0  0  0  0  0  0  0  0  0  0
   -2.4241   -6.7946   -0.2052 H   0  0  0  0  0  0  0  0  0  0  0  0
   -7.5428   -0.1227    2.6020 H   0  0  0  0  0  0  0  0  0  0  0  0
   -4.6578   -7.5731    0.3250 H   0  0  0  0  0  0  0  0  0  0  0  0
  1  2  1  0  0  0  0 
  1  3  1  0  0  0  0 
  2  4  1  0  0  0  0 
  3  5  1  0  0  0  0 
  3  6  1  0  0  0  0 
  3  7  1  0  0  0  0 
  4  8  1  0  0  0  0 
  5  9  2  0  0  0  0 
  5 10  1  0  0  0  0 
  6 11  2  0  0  0  0 
  6 12  1  0  0  0  0 
  7 13  1  0  0  0  0 
  8 14  1  0  0  0  0 
  9 15  1  0  0  0  0 
  9 16  1  0  0  0  0 
 10 17  2  0  0  0  0 
 11 15  1  0  0  0  0 
 11 18  1  0  0  0  0 
 12 19  2  0  0  0  0 
 13 15  1  0  0  0  0 
 16 20  2  0  0  0  0 
 17 20  1  0  0  0  0 
 18 21  2  0  0  0  0 
 19 21  1  0  0  0  0 
  1 22  1  0  0  0  0 
  1 23  1  0  0  0  0 
  2 24  1  0  0  0  0 
  2 25  1  0  0  0  0 
  4 26  1  0  0  0  0 
  4 27  1  0  0  0  0 
  7 28  1  0  0  0  0 
  7 29  1  0  0  0  0 
  8 30  1  0  0  0  0 
 10 31  1  0  0  0  0 
 12 32  1  0  0  0  0 
 13 33  1  0  0  0  0 
 13 34  1  0  0  0  0 
 14 35  1  0  0  0  0 
 14 36  1  0  0  0  0 
 14 37  1  0  0  0  0 
 15 38  1  0  0  0  0 
 16 39  1  0  0  0  0 
 17 40  1  0  0  0  0 
 18 41  1  0  0  0  0 
 19 42  1  0  0  0  0 
 20 43  1  0  0  0  0 
 21 44  1  0  0  0  0 
M  END
> <cdk:Title>
maprotiline

> <Conformer>
1

> <SuperDrugID>
SD001445

$$$$
