tapentadol
  CDK     0628171801

 39 39  0  0  0  0  0  0  0  0999 V2000
    4.7518   -0.1265   -3.9055 C   0  0  1  0  0  0  0  0  0  0  0  0
    5.6970    0.3522   -5.0803 C   0  0  2  0  0  0  0  0  0  0  0  0
    5.3488    0.1166   -2.4726 C   0  0  2  0  0  0  0  0  0  0  0  0
    3.3752    0.4693   -4.0209 C   0  0  0  0  0  0  0  0  0  0  0  0
    5.0998    0.0666   -6.5081 C   0  0  2  0  0  0  0  0  0  0  0  0
    7.1241   -0.2803   -4.9857 C   0  0  0  0  0  0  0  0  0  0  0  0
    4.4396   -0.3052   -1.2914 C   0  0  0  0  0  0  0  0  0  0  0  0
    3.1561    1.8568   -3.8193 C   0  0  0  0  0  0  0  0  0  0  0  0
    2.2564   -0.3411   -4.3404 C   0  0  0  0  0  0  0  0  0  0  0  0
    3.9376    0.9379   -6.9075 N   0  0  1  0  0  0  0  0  0  0  0  0
    1.8664    2.4119   -3.9090 C   0  0  0  0  0  0  0  0  0  0  0  0
    0.9677    0.2133   -4.4489 C   0  0  0  0  0  0  0  0  0  0  0  0
    4.3267    2.3025   -7.3750 C   0  0  0  0  0  0  0  0  0  0  0  0
    2.9935    0.2880   -7.8650 C   0  0  0  0  0  0  0  0  0  0  0  0
    1.6962    3.7389   -3.6848 O   0  0  0  0  0  0  0  0  0  0  0  0
    0.7717    1.5873   -4.2288 C   0  0  0  0  0  0  0  0  0  0  0  0
    4.6757   -1.2153   -4.0044 H   0  0  0  0  0  0  0  0  0  0  0  0
    5.8444    1.4300   -4.9792 H   0  0  0  0  0  0  0  0  0  0  0  0
    5.6119    1.1709   -2.3519 H   0  0  0  0  0  0  0  0  0  0  0  0
    6.2677   -0.4614   -2.3600 H   0  0  0  0  0  0  0  0  0  0  0  0
    4.8114   -0.9896   -6.5236 H   0  0  0  0  0  0  0  0  0  0  0  0
    5.8761    0.1765   -7.2707 H   0  0  0  0  0  0  0  0  0  0  0  0
    7.6634    0.0996   -4.1163 H   0  0  0  0  0  0  0  0  0  0  0  0
    7.0584   -1.3678   -4.9135 H   0  0  0  0  0  0  0  0  0  0  0  0
    7.7299   -0.0292   -5.8588 H   0  0  0  0  0  0  0  0  0  0  0  0
    3.5415    0.3132   -1.2507 H   0  0  0  0  0  0  0  0  0  0  0  0
    4.1477   -1.3528   -1.3900 H   0  0  0  0  0  0  0  0  0  0  0  0
    4.9796   -0.1831   -0.3493 H   0  0  0  0  0  0  0  0  0  0  0  0
    3.9370    2.4783   -3.5981 H   0  0  0  0  0  0  0  0  0  0  0  0
    2.3678   -1.3438   -4.5079 H   0  0  0  0  0  0  0  0  0  0  0  0
    0.1714   -0.3831   -4.6887 H   0  0  0  0  0  0  0  0  0  0  0  0
    3.4423    2.8884   -7.6401 H   0  0  0  0  0  0  0  0  0  0  0  0
    4.8504    2.8433   -6.5879 H   0  0  0  0  0  0  0  0  0  0  0  0
    4.9761    2.2433   -8.2534 H   0  0  0  0  0  0  0  0  0  0  0  0
    3.4633    0.1368   -8.8405 H   0  0  0  0  0  0  0  0  0  0  0  0
    2.6559   -0.6776   -7.4827 H   0  0  0  0  0  0  0  0  0  0  0  0
    2.1016    0.9062   -7.9975 H   0  0  0  0  0  0  0  0  0  0  0  0
    0.7637    3.9330   -3.9207 H   0  0  0  0  0  0  0  0  0  0  0  0
   -0.1681    1.9838   -4.2991 H   0  0  0  0  0  0  0  0  0  0  0  0
  2  1  1  0  0  0  0 
  1  3  1  0  0  0  0 
  1  4  1  0  0  0  0 
  2  5  1  0  0  0  0 
  2  6  1  0  0  0  0 
  3  7  1  0  0  0  0 
  4  8  2  0  0  0  0 
  4  9  1  0  0  0  0 
  5 10  1  0  0  0  0 
  8 11  1  0  0  0  0 
  9 12  2  0  0  0  0 
 10 13  1  0  0  0  0 
 10 14  1  0  0  0  0 
 11 15  1  0  0  0  0 
 11 16  2  0  0  0  0 
 12 16  1  0  0  0  0 
  1 17  1  0  0  0  0 
  2 18  1  0  0  0  0 
  3 19  1  0  0  0  0 
  3 20  1  0  0  0  0 
  5 21  1  0  0  0  0 
  5 22  1  0  0  0  0 
  6 23  1  0  0  0  0 
  6 24  1  0  0  0  0 
  6 25  1  0  0  0  0 
  7 26  1  0  0  0  0 
  7 27  1  0  0  0  0 
  7 28  1  0  0  0  0 
  8 29  1  0  0  0  0 
  9 30  1  0  0  0  0 
 12 31  1  0  0  0  0 
 13 32  1  0  0  0  0 
 13 33  1  0  0  0  0 
 13 34  1  0  0  0  0 
 14 35  1  0  0  0  0 
 14 36  1  0  0  0  0 
 14 37  1  0  0  0  0 
 15 38  1  0  0  0  0 
 16 39  1  0  0  0  0 
M  END
> <cdk:Title>
tapentadol

> <Conformer>
1

> <SuperDrugID>
SD003473

$$$$
