methyltestosterone
  CDK     0628171801

 52 55  0  0  0  0  0  0  0  0999 V2000
   -4.0176   -0.4561   -0.0505 C   0  0  0  0  0  0  0  0  0  0  0  0
   -2.8558   -0.3333    1.0010 C   0  0  1  0  0  0  0  0  0  0  0  0
   -3.3871   -0.4026    2.5047 C   0  0  2  0  0  0  0  0  0  0  0  0
   -1.9018   -1.4610    0.7464 C   0  0  0  0  0  0  0  0  0  0  0  0
   -2.1381    1.0639    0.7883 C   0  0  1  0  0  0  0  0  0  0  0  0
   -3.8391   -1.8464    2.9529 C   0  0  2  0  0  0  0  0  0  0  0  0
   -4.4625    0.6766    2.8954 C   0  0  1  0  0  0  0  0  0  0  0  0
   -2.2610   -2.8183    1.1931 C   0  0  2  0  0  0  0  0  0  0  0  0
   -0.7346   -1.2870    0.0796 C   0  0  0  0  0  0  0  0  0  0  0  0
   -1.2245    1.0973   -0.4598 C   0  0  1  0  0  0  0  0  0  0  0  0
   -4.2461   -1.8286    4.4641 C   0  0  1  0  0  0  0  0  0  0  0  0
   -2.6893   -2.8571    2.6759 C   0  0  2  0  0  0  0  0  0  0  0  0
   -4.9439    0.5881    4.3788 C   0  0  1  0  0  0  0  0  0  0  0  0
   -0.3283   -0.0763   -0.4597 C   0  0  0  0  0  0  0  0  0  0  0  0
   -5.4210   -0.8499    4.7938 C   0  0  1  0  0  0  0  0  0  0  0  0
   -4.6532   -3.1451    5.1556 C   0  0  1  0  0  0  0  0  0  0  0  0
    0.8038    0.0216   -0.9881 O   0  0  0  0  0  0  0  0  0  0  0  0
   -6.7716   -1.1615    4.0306 C   0  0  0  0  0  0  0  0  0  0  0  0
   -5.6178   -1.1414    6.3381 C   0  0  1  0  0  0  0  0  0  0  0  0
   -5.3526   -2.6822    6.4587 C   0  0  2  0  0  0  0  0  0  0  0  0
   -4.7042   -0.3360    7.3173 C   0  0  0  0  0  0  0  0  0  0  0  0
   -6.9500   -0.8580    6.7827 O   0  0  0  0  0  0  0  0  0  0  0  0
   -4.6544    0.4304   -0.0465 H   0  0  0  0  0  0  0  0  0  0  0  0
   -4.6530   -1.3195    0.1498 H   0  0  0  0  0  0  0  0  0  0  0  0
   -3.6196   -0.5654   -1.0633 H   0  0  0  0  0  0  0  0  0  0  0  0
   -2.5217   -0.1689    3.1375 H   0  0  0  0  0  0  0  0  0  0  0  0
   -2.8652    1.8764    0.7019 H   0  0  0  0  0  0  0  0  0  0  0  0
   -1.5046    1.2969    1.6507 H   0  0  0  0  0  0  0  0  0  0  0  0
   -4.6988   -2.1638    2.3596 H   0  0  0  0  0  0  0  0  0  0  0  0
   -4.0442    1.6767    2.7574 H   0  0  0  0  0  0  0  0  0  0  0  0
   -5.3259    0.6006    2.2339 H   0  0  0  0  0  0  0  0  0  0  0  0
   -1.4432   -3.5368    1.0728 H   0  0  0  0  0  0  0  0  0  0  0  0
   -3.0846   -3.1828    0.5740 H   0  0  0  0  0  0  0  0  0  0  0  0
   -0.1256   -2.0641   -0.0531 H   0  0  0  0  0  0  0  0  0  0  0  0
   -1.8297    1.0813   -1.3703 H   0  0  0  0  0  0  0  0  0  0  0  0
   -0.6430    2.0238   -0.4601 H   0  0  0  0  0  0  0  0  0  0  0  0
   -3.3462   -1.4918    4.9960 H   0  0  0  0  0  0  0  0  0  0  0  0
   -3.0222   -3.8716    2.9116 H   0  0  0  0  0  0  0  0  0  0  0  0
   -1.8227   -2.6350    3.3080 H   0  0  0  0  0  0  0  0  0  0  0  0
   -4.1055    0.9052    5.0026 H   0  0  0  0  0  0  0  0  0  0  0  0
   -5.7515    1.3084    4.5391 H   0  0  0  0  0  0  0  0  0  0  0  0
   -5.3406   -3.7153    4.5232 H   0  0  0  0  0  0  0  0  0  0  0  0
   -3.7824   -3.7686    5.3748 H   0  0  0  0  0  0  0  0  0  0  0  0
   -6.6626   -1.1583    2.9489 H   0  0  0  0  0  0  0  0  0  0  0  0
   -7.1849   -2.1311    4.3089 H   0  0  0  0  0  0  0  0  0  0  0  0
   -7.5223   -0.4065    4.2725 H   0  0  0  0  0  0  0  0  0  0  0  0
   -4.7232   -2.9241    7.3227 H   0  0  0  0  0  0  0  0  0  0  0  0
   -6.2908   -3.2339    6.5753 H   0  0  0  0  0  0  0  0  0  0  0  0
   -4.9437    0.7280    7.2777 H   0  0  0  0  0  0  0  0  0  0  0  0
   -4.8629   -0.6727    8.3442 H   0  0  0  0  0  0  0  0  0  0  0  0
   -3.6464   -0.4635    7.0825 H   0  0  0  0  0  0  0  0  0  0  0  0
   -7.0728    0.1035    6.6290 H   0  0  0  0  0  0  0  0  0  0  0  0
  2  1  1  0  0  0  0 
  3  2  1  0  0  0  0 
  2  4  1  0  0  0  0 
  2  5  1  0  0  0  0 
  3  6  1  0  0  0  0 
  3  7  1  0  0  0  0 
  4  8  1  0  0  0  0 
  4  9  2  0  0  0  0 
  5 10  1  0  0  0  0 
  6 11  1  0  0  0  0 
  6 12  1  0  0  0  0 
  7 13  1  0  0  0  0 
  8 12  1  0  0  0  0 
  9 14  1  0  0  0  0 
 10 14  1  0  0  0  0 
 11 15  1  0  0  0  0 
 11 16  1  0  0  0  0 
 15 13  1  0  0  0  0 
 14 17  2  0  0  0  0 
 15 18  1  0  0  0  0 
 15 19  1  0  0  0  0 
 16 20  1  0  0  0  0 
 19 20  1  0  0  0  0 
 19 21  1  0  0  0  0 
 19 22  1  0  0  0  0 
 23  1  1  0  0  0  0 
 24  1  1  0  0  0  0 
 25  1  1  0  0  0  0 
  3 26  1  0  0  0  0 
 27  5  1  0  0  0  0 
 28  5  1  0  0  0  0 
  6 29  1  0  0  0  0 
 30  7  1  0  0  0  0 
 31  7  1  0  0  0  0 
 32  8  1  0  0  0  0 
 33  8  1  0  0  0  0 
 34  9  1  0  0  0  0 
 35 10  1  0  0  0  0 
 36 10  1  0  0  0  0 
 11 37  1  0  0  0  0 
 38 12  1  0  0  0  0 
 39 12  1  0  0  0  0 
 40 13  1  0  0  0  0 
 41 13  1  0  0  0  0 
 42 16  1  0  0  0  0 
 43 16  1  0  0  0  0 
 44 18  1  0  0  0  0 
 45 18  1  0  0  0  0 
 46 18  1  0  0  0  0 
 47 20  1  0  0  0  0 
 48 20  1  0  0  0  0 
 49 21  1  0  0  0  0 
 50 21  1  0  0  0  0 
 51 21  1  0  0  0  0 
 52 22  1  0  0  0  0 
M  END
> <cdk:Title>
methyltestosterone

> <Conformer>
1

> <SuperDrugID>
SD002895

$$$$
