betaine
  CDK     0628171801

 19 18  0  0  0  0  0  0  0  0999 V2000
    0.1851   -2.9829   -0.7701 C   0  0  0  0  0  0  0  0  0  0  0  0
   -0.3587   -1.5950   -0.5276 N   0  0  1  0  0  0  0  0  0  0  0  0
   -1.8140   -1.7287   -0.1298 C   0  0  0  0  0  0  0  0  0  0  0  0
    0.3887   -0.9450    0.6127 C   0  0  0  0  0  0  0  0  0  0  0  0
   -0.2659   -0.7313   -1.7775 C   0  0  2  0  0  0  0  0  0  0  0  0
    1.0865   -0.4293   -2.3104 C   0  0  0  0  0  0  0  0  0  0  0  0
    1.5963    0.8208   -2.2306 O   0  0  0  0  0  0  0  0  0  0  0  0
    1.7744   -1.3088   -2.8746 O   0  0  0  0  0  0  0  0  0  0  0  0
    1.2588   -2.9712   -0.9596 H   0  0  0  0  0  0  0  0  0  0  0  0
   -0.2984   -3.4557   -1.6288 H   0  0  0  0  0  0  0  0  0  0  0  0
    0.0271   -3.6352    0.0928 H   0  0  0  0  0  0  0  0  0  0  0  0
   -1.9341   -2.3402    0.7700 H   0  0  0  0  0  0  0  0  0  0  0  0
   -2.2668   -0.7562    0.0815 H   0  0  0  0  0  0  0  0  0  0  0  0
   -2.4056   -2.1978   -0.9208 H   0  0  0  0  0  0  0  0  0  0  0  0
    1.4489   -0.8247    0.3793 H   0  0  0  0  0  0  0  0  0  0  0  0
   -0.0113    0.0486    0.8354 H   0  0  0  0  0  0  0  0  0  0  0  0
    0.3258   -1.5384    1.5289 H   0  0  0  0  0  0  0  0  0  0  0  0
   -0.7526    0.2312   -1.5867 H   0  0  0  0  0  0  0  0  0  0  0  0
   -0.8250   -1.1924   -2.5965 H   0  0  0  0  0  0  0  0  0  0  0  0
  1  2  1  0  0  0  0 
  2  3  1  0  0  0  0 
  2  4  1  0  0  0  0 
  2  5  1  0  0  0  0 
  5  6  1  0  0  0  0 
  6  7  1  0  0  0  0 
  6  8  2  0  0  0  0 
  1  9  1  0  0  0  0 
  1 10  1  0  0  0  0 
  1 11  1  0  0  0  0 
  3 12  1  0  0  0  0 
  3 13  1  0  0  0  0 
  3 14  1  0  0  0  0 
  4 15  1  0  0  0  0 
  4 16  1  0  0  0  0 
  4 17  1  0  0  0  0 
  5 18  1  0  0  0  0 
  5 19  1  0  0  0  0 
M  CHG  1   2   1
M  CHG  1   7  -1
M  END
> <cdk:Title>
betaine

> <Conformer>
1

> <SuperDrugID>
SD000292

$$$$
