olodaterol
  CDK     0628171802

 54 56  0  0  0  0  0  0  0  0999 V2000
   -2.1120   -0.5456   -1.4446 C   0  0  0  0  0  0  0  0  0  0  0  0
   -3.4862   -0.7586   -1.6449 C   0  0  0  0  0  0  0  0  0  0  0  0
   -4.3109   -1.0743   -0.5557 C   0  0  0  0  0  0  0  0  0  0  0  0
   -3.7587   -1.1906    0.7318 C   0  0  0  0  0  0  0  0  0  0  0  0
   -2.3697   -0.9796    0.9383 C   0  0  0  0  0  0  0  0  0  0  0  0
   -1.5269   -0.6519   -0.1594 C   0  0  0  0  0  0  0  0  0  0  0  0
   -4.5631   -1.5450    1.7659 N   0  0  0  0  0  0  0  0  0  0  0  0
   -4.0755   -1.7978    3.0011 C   0  0  0  0  0  0  0  0  0  0  0  0
   -2.6283   -1.6497    3.2776 C   0  0  1  0  0  0  0  0  0  0  0  0
   -1.8361   -1.0758    2.2079 O   0  0  0  0  0  0  0  0  0  0  0  0
   -4.8568   -2.1800    3.9013 O   0  0  0  0  0  0  0  0  0  0  0  0
   -0.0490   -0.4349   -0.0204 C   0  0  1  0  0  0  0  0  0  0  0  0
   -4.0165   -0.6699   -2.8875 O   0  0  0  0  0  0  0  0  0  0  0  0
    0.2634    0.2805    1.1772 O   0  0  0  0  0  0  0  0  0  0  0  0
    0.7712   -1.7515   -0.0649 C   0  0  2  0  0  0  0  0  0  0  0  0
    0.5599   -2.4859   -1.3418 N   0  0  1  0  0  0  0  0  0  0  0  0
    1.1966   -3.8217   -1.5763 C   0  0  1  0  0  0  0  0  0  0  0  0
    0.5879   -4.9492   -0.6658 C   0  0  2  0  0  0  0  0  0  0  0  0
   -0.8779   -5.1687   -0.8168 C   0  0  0  0  0  0  0  0  0  0  0  0
   -1.3681   -6.1342   -1.7274 C   0  0  0  0  0  0  0  0  0  0  0  0
   -2.7500   -6.3234   -1.9030 C   0  0  0  0  0  0  0  0  0  0  0  0
   -3.6710   -5.5509   -1.1690 C   0  0  0  0  0  0  0  0  0  0  0  0
   -3.1920   -4.6057   -0.2402 C   0  0  0  0  0  0  0  0  0  0  0  0
   -1.8102   -4.4201   -0.0629 C   0  0  0  0  0  0  0  0  0  0  0  0
    0.9288   -4.1210   -3.0876 C   0  0  0  0  0  0  0  0  0  0  0  0
    2.7439   -3.7701   -1.3658 C   0  0  0  0  0  0  0  0  0  0  0  0
   -5.0143   -5.6894   -1.3956 O   0  0  0  0  0  0  0  0  0  0  0  0
   -5.6801   -6.5246   -0.4328 C   0  0  0  0  0  0  0  0  0  0  0  0
   -1.5324   -0.3156   -2.2532 H   0  0  0  0  0  0  0  0  0  0  0  0
   -5.3100   -1.2319   -0.7080 H   0  0  0  0  0  0  0  0  0  0  0  0
   -5.5181   -1.6418    1.6097 H   0  0  0  0  0  0  0  0  0  0  0  0
   -2.5123   -0.9953    4.1433 H   0  0  0  0  0  0  0  0  0  0  0  0
   -2.2116   -2.6276    3.5293 H   0  0  0  0  0  0  0  0  0  0  0  0
    0.3026    0.2014   -0.8383 H   0  0  0  0  0  0  0  0  0  0  0  0
   -3.8787   -1.5572   -3.2827 H   0  0  0  0  0  0  0  0  0  0  0  0
    1.2382    0.3863    1.1765 H   0  0  0  0  0  0  0  0  0  0  0  0
    0.5003   -2.3634    0.7964 H   0  0  0  0  0  0  0  0  0  0  0  0
    1.8277   -1.4879    0.0245 H   0  0  0  0  0  0  0  0  0  0  0  0
   -0.4483   -2.6150   -1.4500 H   0  0  0  0  0  0  0  0  0  0  0  0
    0.8044   -4.7249    0.3808 H   0  0  0  0  0  0  0  0  0  0  0  0
    1.1061   -5.8924   -0.8686 H   0  0  0  0  0  0  0  0  0  0  0  0
   -0.7195   -6.6999   -2.2814 H   0  0  0  0  0  0  0  0  0  0  0  0
   -3.0815   -7.0196   -2.5745 H   0  0  0  0  0  0  0  0  0  0  0  0
   -3.8490   -4.0487    0.3072 H   0  0  0  0  0  0  0  0  0  0  0  0
   -1.4920   -3.7317    0.6191 H   0  0  0  0  0  0  0  0  0  0  0  0
    1.2765   -5.1192   -3.3614 H   0  0  0  0  0  0  0  0  0  0  0  0
   -0.1377   -4.0571   -3.3138 H   0  0  0  0  0  0  0  0  0  0  0  0
    1.4437   -3.3978   -3.7237 H   0  0  0  0  0  0  0  0  0  0  0  0
    2.9894   -3.6149   -0.3135 H   0  0  0  0  0  0  0  0  0  0  0  0
    3.2161   -4.7035   -1.6845 H   0  0  0  0  0  0  0  0  0  0  0  0
    3.1804   -2.9529   -1.9424 H   0  0  0  0  0  0  0  0  0  0  0  0
   -6.7387   -6.5624   -0.6949 H   0  0  0  0  0  0  0  0  0  0  0  0
   -5.2871   -7.5445   -0.4506 H   0  0  0  0  0  0  0  0  0  0  0  0
   -5.5960   -6.1168    0.5779 H   0  0  0  0  0  0  0  0  0  0  0  0
  1  2  2  0  0  0  0 
  1  6  1  0  0  0  0 
  2  3  1  0  0  0  0 
  3  4  2  0  0  0  0 
  4  5  1  0  0  0  0 
  5  6  2  0  0  0  0 
  7  8  1  0  0  0  0 
  8  9  1  0  0  0  0 
  9 10  1  0  0  0  0 
  4  7  1  0  0  0  0 
  5 10  1  0  0  0  0 
  8 11  2  0  0  0  0 
  6 12  1  0  0  0  0 
  2 13  1  0  0  0  0 
 12 14  1  0  0  0  0 
 12 15  1  0  0  0  0 
 15 16  1  0  0  0  0 
 16 17  1  0  0  0  0 
 17 18  1  0  0  0  0 
 18 19  1  0  0  0  0 
 20 21  1  0  0  0  0 
 21 22  2  0  0  0  0 
 22 23  1  0  0  0  0 
 23 24  2  0  0  0  0 
 19 20  2  0  0  0  0 
 19 24  1  0  0  0  0 
 17 25  1  0  0  0  0 
 17 26  1  0  0  0  0 
 22 27  1  0  0  0  0 
 27 28  1  0  0  0  0 
  1 29  1  0  0  0  0 
  3 30  1  0  0  0  0 
  7 31  1  0  0  0  0 
  9 32  1  0  0  0  0 
  9 33  1  0  0  0  0 
 12 34  1  0  0  0  0 
 13 35  1  0  0  0  0 
 14 36  1  0  0  0  0 
 15 37  1  0  0  0  0 
 15 38  1  0  0  0  0 
 16 39  1  0  0  0  0 
 18 40  1  0  0  0  0 
 18 41  1  0  0  0  0 
 20 42  1  0  0  0  0 
 21 43  1  0  0  0  0 
 23 44  1  0  0  0  0 
 24 45  1  0  0  0  0 
 25 46  1  0  0  0  0 
 25 47  1  0  0  0  0 
 25 48  1  0  0  0  0 
 26 49  1  0  0  0  0 
 26 50  1  0  0  0  0 
 26 51  1  0  0  0  0 
 28 52  1  0  0  0  0 
 28 53  1  0  0  0  0 
 28 54  1  0  0  0  0 
M  END
> <cdk:Title>
olodaterol

> <Conformer>
1

> <SuperDrugID>
SD003776

$$$$
