estriol succinate
  CDK     0628171801

 67 70  0  0  0  0  0  0  0  0999 V2000
    3.4176    1.9554   -1.8764 C   0  0  0  0  0  0  0  0  0  0  0  0
    1.9640    2.2045   -2.4424 C   0  0  2  0  0  0  0  0  0  0  0  0
    1.0935    0.9272   -2.6586 C   0  0  2  0  0  0  0  0  0  0  0  0
    2.0597    2.7232   -3.9134 C   0  0  1  0  0  0  0  0  0  0  0  0
    1.1740    3.1318   -1.4636 C   0  0  2  0  0  0  0  0  0  0  0  0
    0.8678    0.1194   -1.3363 C   0  0  1  0  0  0  0  0  0  0  0  0
    1.7574    0.2499   -3.8793 C   0  0  1  0  0  0  0  0  0  0  0  0
    3.1222    3.6757   -4.0620 O   0  0  0  0  0  0  0  0  0  0  0  0
    2.2318    1.4331   -4.7719 C   0  0  1  0  0  0  0  0  0  0  0  0
    0.8558    2.4280   -0.1079 C   0  0  2  0  0  0  0  0  0  0  0  0
    0.1724    1.0178   -0.2387 C   0  0  2  0  0  0  0  0  0  0  0  0
   -0.0015   -1.1546   -1.5360 C   0  0  1  0  0  0  0  0  0  0  0  0
    3.5181    4.3519   -5.1745 C   0  0  0  0  0  0  0  0  0  0  0  0
    1.4247    1.5204   -5.9589 O   0  0  0  0  0  0  0  0  0  0  0  0
   -0.0236    0.2522    1.0530 C   0  0  0  0  0  0  0  0  0  0  0  0
   -0.1020   -1.9725   -0.2213 C   0  0  2  0  0  0  0  0  0  0  0  0
    4.6181    5.3243   -5.0446 C   0  0  2  0  0  0  0  0  0  0  0  0
    2.9670    4.1725   -6.2849 O   0  0  0  0  0  0  0  0  0  0  0  0
    1.7759    1.3242   -7.2650 C   0  0  0  0  0  0  0  0  0  0  0  0
   -0.1780   -1.1689    1.0344 C   0  0  0  0  0  0  0  0  0  0  0  0
   -0.1021    0.9036    2.3155 C   0  0  0  0  0  0  0  0  0  0  0  0
    4.1571    6.7625   -5.3921 C   0  0  2  0  0  0  0  0  0  0  0  0
    0.7281    1.5231   -8.2895 C   0  0  1  0  0  0  0  0  0  0  0  0
    2.9356    0.9704   -7.5864 O   0  0  0  0  0  0  0  0  0  0  0  0
   -0.3762   -1.8780    2.2446 C   0  0  0  0  0  0  0  0  0  0  0  0
   -0.3062    0.1873    3.5084 C   0  0  0  0  0  0  0  0  0  0  0  0
    5.2064    7.7617   -5.1209 C   0  0  0  0  0  0  0  0  0  0  0  0
    0.4161    3.0731   -8.4434 C   0  0  1  0  0  0  0  0  0  0  0  0
   -0.4424   -1.2093    3.4775 C   0  0  0  0  0  0  0  0  0  0  0  0
    5.0157    8.7185   -4.1836 O   0  0  0  0  0  0  0  0  0  0  0  0
    6.2902    7.7383   -5.7478 O   0  0  0  0  0  0  0  0  0  0  0  0
   -0.9444    3.3137   -8.9584 C   0  0  0  0  0  0  0  0  0  0  0  0
   -0.6367   -1.9225    4.6178 O   0  0  0  0  0  0  0  0  0  0  0  0
   -1.8255    4.0300   -8.2178 O   0  0  0  0  0  0  0  0  0  0  0  0
   -1.2998    2.8790  -10.0781 O   0  0  0  0  0  0  0  0  0  0  0  0
    1.8409   -0.2172   -0.9697 H   0  0  0  0  0  0  0  0  0  0  0  0
   -0.8434    1.2297   -0.5917 H   0  0  0  0  0  0  0  0  0  0  0  0
    0.0902    1.2250   -2.9998 H   0  0  0  0  0  0  0  0  0  0  0  0
    4.0317    1.3793   -2.5693 H   0  0  0  0  0  0  0  0  0  0  0  0
    3.9204    2.9105   -1.7060 H   0  0  0  0  0  0  0  0  0  0  0  0
    3.4137    1.4185   -0.9309 H   0  0  0  0  0  0  0  0  0  0  0  0
    1.1248    3.2248   -4.1901 H   0  0  0  0  0  0  0  0  0  0  0  0
    0.2298    3.4421   -1.9220 H   0  0  0  0  0  0  0  0  0  0  0  0
    1.7469    4.0417   -1.2721 H   0  0  0  0  0  0  0  0  0  0  0  0
    2.6078   -0.3620   -3.5645 H   0  0  0  0  0  0  0  0  0  0  0  0
    1.0494   -0.3934   -4.4083 H   0  0  0  0  0  0  0  0  0  0  0  0
    3.2872    1.2939   -5.0268 H   0  0  0  0  0  0  0  0  0  0  0  0
    0.1900    3.0998    0.4400 H   0  0  0  0  0  0  0  0  0  0  0  0
    1.7721    2.3349    0.4798 H   0  0  0  0  0  0  0  0  0  0  0  0
   -1.0073   -0.8707   -1.8617 H   0  0  0  0  0  0  0  0  0  0  0  0
    0.4265   -1.7925   -2.3135 H   0  0  0  0  0  0  0  0  0  0  0  0
    0.7772   -2.6216   -0.1487 H   0  0  0  0  0  0  0  0  0  0  0  0
   -0.9829   -2.6173   -0.2918 H   0  0  0  0  0  0  0  0  0  0  0  0
    5.4394    5.0223   -5.7001 H   0  0  0  0  0  0  0  0  0  0  0  0
    4.9867    5.3094   -4.0146 H   0  0  0  0  0  0  0  0  0  0  0  0
   -0.0162    1.9170    2.3932 H   0  0  0  0  0  0  0  0  0  0  0  0
    3.2715    7.0064   -4.7992 H   0  0  0  0  0  0  0  0  0  0  0  0
    3.8834    6.8236   -6.4487 H   0  0  0  0  0  0  0  0  0  0  0  0
    1.1657    1.2087   -9.2906 H   0  0  0  0  0  0  0  0  0  0  0  0
   -0.1562    0.8690   -7.9079 H   0  0  0  0  0  0  0  0  0  0  0  0
   -0.4782   -2.8976    2.2370 H   0  0  0  0  0  0  0  0  0  0  0  0
   -0.3530    0.6847    4.4018 H   0  0  0  0  0  0  0  0  0  0  0  0
    0.5110    3.5840   -7.4805 H   0  0  0  0  0  0  0  0  0  0  0  0
    1.1351    3.5292   -9.1283 H   0  0  0  0  0  0  0  0  0  0  0  0
    5.7110    9.3866   -4.0105 H   0  0  0  0  0  0  0  0  0  0  0  0
   -0.7480   -1.2639    5.3363 H   0  0  0  0  0  0  0  0  0  0  0  0
   -2.7287    4.2139   -8.5503 H   0  0  0  0  0  0  0  0  0  0  0  0
  2  1  1  0  0  0  0 
  3  2  1  0  0  0  0 
  2  4  1  0  0  0  0 
  2  5  1  0  0  0  0 
  6  3  1  0  0  0  0 
  3  7  1  0  0  0  0 
  3 38  1  0  0  0  0 
  4  8  1  0  0  0  0 
  4  9  1  0  0  0  0 
  5 10  1  0  0  0  0 
 11  6  1  0  0  0  0 
  6 12  1  0  0  0  0 
  6 36  1  0  0  0  0 
  9  7  1  0  0  0  0 
  8 13  1  0  0  0  0 
  9 14  1  0  0  0  0 
 11 10  1  0  0  0  0 
 11 15  1  0  0  0  0 
 11 37  1  0  0  0  0 
 12 16  1  0  0  0  0 
 13 17  1  0  0  0  0 
 13 18  2  0  0  0  0 
 14 19  1  0  0  0  0 
 15 20  2  0  0  0  0 
 15 21  1  0  0  0  0 
 16 20  1  0  0  0  0 
 17 22  1  0  0  0  0 
 19 23  1  0  0  0  0 
 19 24  2  0  0  0  0 
 20 25  1  0  0  0  0 
 21 26  2  0  0  0  0 
 22 27  1  0  0  0  0 
 23 28  1  0  0  0  0 
 25 29  2  0  0  0  0 
 26 29  1  0  0  0  0 
 27 30  1  0  0  0  0 
 27 31  2  0  0  0  0 
 28 32  1  0  0  0  0 
 29 33  1  0  0  0  0 
 32 34  1  0  0  0  0 
 32 35  2  0  0  0  0 
  1 39  1  0  0  0  0 
  1 40  1  0  0  0  0 
  1 41  1  0  0  0  0 
  4 42  1  0  0  0  0 
  5 43  1  0  0  0  0 
  5 44  1  0  0  0  0 
  7 45  1  0  0  0  0 
  7 46  1  0  0  0  0 
  9 47  1  0  0  0  0 
 10 48  1  0  0  0  0 
 10 49  1  0  0  0  0 
 12 50  1  0  0  0  0 
 12 51  1  0  0  0  0 
 16 52  1  0  0  0  0 
 16 53  1  0  0  0  0 
 17 54  1  0  0  0  0 
 17 55  1  0  0  0  0 
 21 56  1  0  0  0  0 
 22 57  1  0  0  0  0 
 22 58  1  0  0  0  0 
 23 59  1  0  0  0  0 
 23 60  1  0  0  0  0 
 25 61  1  0  0  0  0 
 26 62  1  0  0  0  0 
 28 63  1  0  0  0  0 
 28 64  1  0  0  0  0 
 30 65  1  0  0  0  0 
 33 66  1  0  0  0  0 
 34 67  1  0  0  0  0 
M  END
> <cdk:Title>
estriol succinate

> <Conformer>
1

> <SuperDrugID>
SD000952

$$$$
