hydroxystilbamidine
  CDK     0628171801

 37 38  0  0  0  0  0  0  0  0999 V2000
    5.0456  -10.1289   -5.7969 N   0  0  0  0  0  0  0  0  0  0  0  0
    5.7621   -9.1815   -5.2164 C   0  0  0  0  0  0  0  0  0  0  0  0
    7.0246   -9.3595   -5.3251 N   0  0  0  0  0  0  0  0  0  0  0  0
    5.1907   -8.0794   -4.5538 C   0  0  0  0  0  0  0  0  0  0  0  0
    5.9732   -6.9863   -4.1035 C   0  0  0  0  0  0  0  0  0  0  0  0
    5.3895   -5.8733   -3.4679 C   0  0  0  0  0  0  0  0  0  0  0  0
    3.9909   -5.7849   -3.2434 C   0  0  0  0  0  0  0  0  0  0  0  0
    3.4646   -4.6302   -2.6216 C   0  0  0  0  0  0  0  0  0  0  0  0
    2.1678   -4.3523   -2.3566 C   0  0  0  0  0  0  0  0  0  0  0  0
    1.6274   -3.2023   -1.7344 C   0  0  0  0  0  0  0  0  0  0  0  0
    2.4079   -2.1015   -1.2944 C   0  0  0  0  0  0  0  0  0  0  0  0
    1.8305   -0.9795   -0.6686 C   0  0  0  0  0  0  0  0  0  0  0  0
    0.4353   -0.8853   -0.4437 C   0  0  0  0  0  0  0  0  0  0  0  0
   -0.3489   -1.9784   -0.8881 C   0  0  0  0  0  0  0  0  0  0  0  0
    0.2241   -3.1022   -1.5169 C   0  0  0  0  0  0  0  0  0  0  0  0
   -0.6398   -4.0763   -1.9064 O   0  0  0  0  0  0  0  0  0  0  0  0
   -0.1410    0.2323    0.1890 C   0  0  0  0  0  0  0  0  0  0  0  0
    0.5650    1.1839    0.7712 N   0  0  0  0  0  0  0  0  0  0  0  0
   -1.4043    0.4264    0.2610 N   0  0  0  0  0  0  0  0  0  0  0  0
    3.2153   -6.8926   -3.6721 C   0  0  0  0  0  0  0  0  0  0  0  0
    3.7972   -8.0036   -4.3109 C   0  0  0  0  0  0  0  0  0  0  0  0
    4.0786  -10.0890   -5.7900 H   0  0  0  0  0  0  0  0  0  0  0  0
    5.4900  -10.8720   -6.2378 H   0  0  0  0  0  0  0  0  0  0  0  0
    7.6381   -8.7589   -4.9594 H   0  0  0  0  0  0  0  0  0  0  0  0
    6.9868   -6.9790   -4.2357 H   0  0  0  0  0  0  0  0  0  0  0  0
    6.0121   -5.1166   -3.1683 H   0  0  0  0  0  0  0  0  0  0  0  0
    4.1310   -3.9491   -2.3538 H   0  0  0  0  0  0  0  0  0  0  0  0
    1.5103   -5.0381   -2.6291 H   0  0  0  0  0  0  0  0  0  0  0  0
    3.4192   -2.0840   -1.4230 H   0  0  0  0  0  0  0  0  0  0  0  0
    2.4583   -0.2232   -0.3887 H   0  0  0  0  0  0  0  0  0  0  0  0
   -1.3625   -1.9746   -0.7559 H   0  0  0  0  0  0  0  0  0  0  0  0
   -0.4968   -4.8076   -1.2708 H   0  0  0  0  0  0  0  0  0  0  0  0
    0.1055    1.9505    1.1536 H   0  0  0  0  0  0  0  0  0  0  0  0
    1.5316    1.1267    0.8237 H   0  0  0  0  0  0  0  0  0  0  0  0
   -2.0129   -0.1741   -0.1132 H   0  0  0  0  0  0  0  0  0  0  0  0
    2.2066   -6.9221   -3.5303 H   0  0  0  0  0  0  0  0  0  0  0  0
    3.1740   -8.7618   -4.5939 H   0  0  0  0  0  0  0  0  0  0  0  0
  1  2  1  0  0  0  0 
  2  3  2  0  0  0  0 
  2  4  1  0  0  0  0 
  4  5  2  0  0  0  0 
  5  6  1  0  0  0  0 
  6  7  2  0  0  0  0 
  8  7  1  0  0  0  0 
  8  9  2  0  0  0  0 
  9 10  1  0  0  0  0 
 10 11  2  0  0  0  0 
 11 12  1  0  0  0  0 
 12 13  2  0  0  0  0 
 13 14  1  0  0  0  0 
 14 15  2  0  0  0  0 
 10 15  1  0  0  0  0 
 15 16  1  0  0  0  0 
 13 17  1  0  0  0  0 
 17 18  1  0  0  0  0 
 17 19  2  0  0  0  0 
  7 20  1  0  0  0  0 
 20 21  2  0  0  0  0 
  4 21  1  0  0  0  0 
  1 22  1  0  0  0  0 
  1 23  1  0  0  0  0 
  3 24  1  0  0  0  0 
  5 25  1  0  0  0  0 
  6 26  1  0  0  0  0 
  8 27  1  0  0  0  0 
  9 28  1  0  0  0  0 
 11 29  1  0  0  0  0 
 12 30  1  0  0  0  0 
 14 31  1  0  0  0  0 
 16 32  1  0  0  0  0 
 18 33  1  0  0  0  0 
 18 34  1  0  0  0  0 
 19 35  1  0  0  0  0 
 20 36  1  0  0  0  0 
 21 37  1  0  0  0  0 
M  END
> <cdk:Title>
hydroxystilbamidine

> <Conformer>
1

> <SuperDrugID>
SD001242

$$$$
