diltiazem
  CDK     0628171802

 55 57  0  0  0  0  0  0  0  0999 V2000
    4.6018   -0.4859   -1.0894 O   0  0  0  0  0  0  0  0  0  0  0  0
    4.1671   -1.7470   -1.3722 C   0  0  0  0  0  0  0  0  0  0  0  0
    5.9123    0.0676   -1.2928 C   0  0  2  0  0  0  0  0  0  0  0  0
    2.7568   -2.0767   -1.1287 C   0  0  0  0  0  0  0  0  0  0  0  0
    4.9393   -2.6133   -1.8439 O   0  0  0  0  0  0  0  0  0  0  0  0
    6.0726    1.4971   -0.6834 C   0  0  1  0  0  0  0  0  0  0  0  0
    6.2753    0.1418   -2.7338 C   0  0  0  0  0  0  0  0  0  0  0  0
    4.9661    2.7928   -1.3469 S   0  0  0  0  0  0  0  0  0  0  0  0
    6.0611    1.5250    0.8134 C   0  0  0  0  0  0  0  0  0  0  0  0
    7.4360   -0.2572   -2.9991 O   0  0  0  0  0  0  0  0  0  0  0  0
    5.4749    0.7096   -3.7174 N   0  0  0  0  0  0  0  0  0  0  0  0
    3.8147    2.0431   -2.4415 C   0  0  0  0  0  0  0  0  0  0  0  0
    4.9600    1.0422    1.5626 C   0  0  0  0  0  0  0  0  0  0  0  0
    7.1728    2.0415    1.5269 C   0  0  0  0  0  0  0  0  0  0  0  0
    6.0277    0.9693   -5.0443 C   0  0  2  0  0  0  0  0  0  0  0  0
    4.1694    1.1031   -3.4530 C   0  0  0  0  0  0  0  0  0  0  0  0
    2.4685    2.4478   -2.2914 C   0  0  0  0  0  0  0  0  0  0  0  0
    4.9830    1.0472    2.9690 C   0  0  0  0  0  0  0  0  0  0  0  0
    7.1802    2.0849    2.9315 C   0  0  0  0  0  0  0  0  0  0  0  0
    6.0723   -0.2330   -6.0297 C   0  0  1  0  0  0  0  0  0  0  0  0
    3.1263    0.5413   -4.2288 C   0  0  0  0  0  0  0  0  0  0  0  0
    1.4626    1.9123   -3.1117 C   0  0  0  0  0  0  0  0  0  0  0  0
    6.0936    1.5649    3.6600 C   0  0  0  0  0  0  0  0  0  0  0  0
    6.7861   -1.4158   -5.4539 N   0  0  2  0  0  0  0  0  0  0  0  0
    1.7918    0.9507   -4.0781 C   0  0  0  0  0  0  0  0  0  0  0  0
    6.0891    1.5827    5.0274 O   0  0  0  0  0  0  0  0  0  0  0  0
    8.1778   -1.6122   -5.9430 C   0  0  0  0  0  0  0  0  0  0  0  0
    5.9882   -2.6686   -5.3595 C   0  0  0  0  0  0  0  0  0  0  0  0
    6.8311    0.4924    5.6010 C   0  0  0  0  0  0  0  0  0  0  0  0
    6.6199   -0.5859   -0.7689 H   0  0  0  0  0  0  0  0  0  0  0  0
    2.6149   -3.1584   -1.0565 H   0  0  0  0  0  0  0  0  0  0  0  0
    2.4181   -1.6163   -0.1979 H   0  0  0  0  0  0  0  0  0  0  0  0
    2.1558   -1.6932   -1.9544 H   0  0  0  0  0  0  0  0  0  0  0  0
    7.0609    1.8449   -1.0059 H   0  0  0  0  0  0  0  0  0  0  0  0
    4.1286    0.6781    1.0962 H   0  0  0  0  0  0  0  0  0  0  0  0
    7.9908    2.3990    1.0286 H   0  0  0  0  0  0  0  0  0  0  0  0
    7.0431    1.3621   -4.9379 H   0  0  0  0  0  0  0  0  0  0  0  0
    5.4680    1.7739   -5.5322 H   0  0  0  0  0  0  0  0  0  0  0  0
    2.2040    3.1402   -1.5843 H   0  0  0  0  0  0  0  0  0  0  0  0
    4.1873    0.6748    3.4926 H   0  0  0  0  0  0  0  0  0  0  0  0
    7.9789    2.4929    3.4230 H   0  0  0  0  0  0  0  0  0  0  0  0
    5.0582   -0.4908   -6.3344 H   0  0  0  0  0  0  0  0  0  0  0  0
    6.5604    0.1109   -6.9476 H   0  0  0  0  0  0  0  0  0  0  0  0
    3.3261   -0.1791   -4.9199 H   0  0  0  0  0  0  0  0  0  0  0  0
    0.4910    2.2136   -3.0021 H   0  0  0  0  0  0  0  0  0  0  0  0
    1.0625    0.5483   -4.6710 H   0  0  0  0  0  0  0  0  0  0  0  0
    8.7417   -0.6793   -5.8797 H   0  0  0  0  0  0  0  0  0  0  0  0
    8.6931   -2.3482   -5.3250 H   0  0  0  0  0  0  0  0  0  0  0  0
    8.1811   -1.9552   -6.9797 H   0  0  0  0  0  0  0  0  0  0  0  0
    5.0737   -2.4876   -4.7923 H   0  0  0  0  0  0  0  0  0  0  0  0
    6.5503   -3.4417   -4.8335 H   0  0  0  0  0  0  0  0  0  0  0  0
    5.7220   -3.0408   -6.3504 H   0  0  0  0  0  0  0  0  0  0  0  0
    6.7025    0.5353    6.6809 H   0  0  0  0  0  0  0  0  0  0  0  0
    6.4688   -0.4784    5.2523 H   0  0  0  0  0  0  0  0  0  0  0  0
    7.8972    0.5825    5.3821 H   0  0  0  0  0  0  0  0  0  0  0  0
  1  2  1  0  0  0  0 
  2  4  1  0  0  0  0 
  2  5  2  0  0  0  0 
  3  1  1  0  0  0  0 
  6  3  1  0  0  0  0 
  3  7  1  0  0  0  0 
  6  8  1  0  0  0  0 
  6  9  1  0  0  0  0 
  7 10  2  0  0  0  0 
  7 11  1  0  0  0  0 
  8 12  1  0  0  0  0 
  9 13  2  0  0  0  0 
  9 14  1  0  0  0  0 
 11 15  1  0  0  0  0 
 11 16  1  0  0  0  0 
 12 16  2  0  0  0  0 
 12 17  1  0  0  0  0 
 13 18  1  0  0  0  0 
 14 19  2  0  0  0  0 
 15 20  1  0  0  0  0 
 16 21  1  0  0  0  0 
 17 22  2  0  0  0  0 
 18 23  2  0  0  0  0 
 19 23  1  0  0  0  0 
 20 24  1  0  0  0  0 
 21 25  2  0  0  0  0 
 22 25  1  0  0  0  0 
 23 26  1  0  0  0  0 
 24 27  1  0  0  0  0 
 24 28  1  0  0  0  0 
 26 29  1  0  0  0  0 
  3 30  1  0  0  0  0 
  4 31  1  0  0  0  0 
  4 32  1  0  0  0  0 
  4 33  1  0  0  0  0 
  6 34  1  0  0  0  0 
 13 35  1  0  0  0  0 
 14 36  1  0  0  0  0 
 15 37  1  0  0  0  0 
 15 38  1  0  0  0  0 
 17 39  1  0  0  0  0 
 18 40  1  0  0  0  0 
 19 41  1  0  0  0  0 
 20 42  1  0  0  0  0 
 20 43  1  0  0  0  0 
 21 44  1  0  0  0  0 
 22 45  1  0  0  0  0 
 25 46  1  0  0  0  0 
 27 47  1  0  0  0  0 
 27 48  1  0  0  0  0 
 27 49  1  0  0  0  0 
 28 50  1  0  0  0  0 
 28 51  1  0  0  0  0 
 28 52  1  0  0  0  0 
 29 53  1  0  0  0  0 
 29 54  1  0  0  0  0 
 29 55  1  0  0  0  0 
M  END
> <cdk:Title>
diltiazem

> <Conformer>
1

> <SuperDrugID>
SD000798

$$$$
