elvitegravir
  CDK     0628171801

 54 56  0  0  0  0  0  0  0  0999 V2000
   -0.3969    0.5354    1.3798 C   0  0  1  0  0  0  0  0  0  0  0  0
    0.0297   -0.1851    2.7197 C   0  0  1  0  0  0  0  0  0  0  0  0
    0.1496   -0.1427    0.0812 C   0  0  2  0  0  0  0  0  0  0  0  0
   -1.8607    0.7547    1.2816 N   0  0  0  0  0  0  0  0  0  0  0  0
    1.5744   -0.2737    2.9132 C   0  0  0  0  0  0  0  0  0  0  0  0
   -0.6003    0.5123    3.9623 C   0  0  0  0  0  0  0  0  0  0  0  0
   -0.3032    0.5570   -1.0744 O   0  0  0  0  0  0  0  0  0  0  0  0
   -2.4889    1.9991    1.2607 C   0  0  0  0  0  0  0  0  0  0  0  0
   -2.6323   -0.3837    1.2072 C   0  0  0  0  0  0  0  0  0  0  0  0
   -3.9162    2.0772    1.1695 C   0  0  0  0  0  0  0  0  0  0  0  0
   -1.7998    3.2433    1.3231 C   0  0  0  0  0  0  0  0  0  0  0  0
   -4.0368   -0.3847    1.1067 C   0  0  0  0  0  0  0  0  0  0  0  0
   -4.5715    3.3386    1.1628 C   0  0  0  0  0  0  0  0  0  0  0  0
   -4.6695    0.8792    1.0915 C   0  0  0  0  0  0  0  0  0  0  0  0
   -2.4505    4.4903    1.2775 C   0  0  0  0  0  0  0  0  0  0  0  0
   -4.7463   -1.6247    1.0237 C   0  0  0  0  0  0  0  0  0  0  0  0
   -3.8604    4.5552    1.2331 C   0  0  0  0  0  0  0  0  0  0  0  0
   -5.9208    0.9423    1.0031 O   0  0  0  0  0  0  0  0  0  0  0  0
   -1.6805    5.6236    1.3147 O   0  0  0  0  0  0  0  0  0  0  0  0
   -4.1151   -2.8258    1.0300 O   0  0  0  0  0  0  0  0  0  0  0  0
   -5.9935   -1.6900    0.9370 O   0  0  0  0  0  0  0  0  0  0  0  0
   -4.5978    5.8536    1.2824 C   0  0  2  0  0  0  0  0  0  0  0  0
   -1.1596    6.0060    0.0283 C   0  0  0  0  0  0  0  0  0  0  0  0
   -4.8979    6.2490    2.6912 C   0  0  0  0  0  0  0  0  0  0  0  0
   -4.0012    7.0421    3.4552 C   0  0  0  0  0  0  0  0  0  0  0  0
   -6.1026    5.8198    3.3010 C   0  0  0  0  0  0  0  0  0  0  0  0
   -2.9077    7.5135    2.9157 F   0  0  0  0  0  0  0  0  0  0  0  0
   -4.2783    7.3425    4.8080 C   0  0  0  0  0  0  0  0  0  0  0  0
   -6.3905    6.1407    4.6401 C   0  0  0  0  0  0  0  0  0  0  0  0
   -3.1951    8.2451    5.7507 Cl  0  0  0  0  0  0  0  0  0  0  0  0
   -5.4716    6.8854    5.3970 C   0  0  0  0  0  0  0  0  0  0  0  0
    0.1547    1.4684    1.4081 H   0  0  0  0  0  0  0  0  0  0  0  0
   -0.3396   -1.2137    2.6994 H   0  0  0  0  0  0  0  0  0  0  0  0
   -0.1660   -1.1852    0.0122 H   0  0  0  0  0  0  0  0  0  0  0  0
    1.2401   -0.1224    0.0600 H   0  0  0  0  0  0  0  0  0  0  0  0
    1.8184   -0.7364    3.8731 H   0  0  0  0  0  0  0  0  0  0  0  0
    2.0226    0.7223    2.8886 H   0  0  0  0  0  0  0  0  0  0  0  0
    2.0309   -0.8839    2.1326 H   0  0  0  0  0  0  0  0  0  0  0  0
   -0.2905    0.0178    4.8861 H   0  0  0  0  0  0  0  0  0  0  0  0
   -1.6898    0.4718    3.9191 H   0  0  0  0  0  0  0  0  0  0  0  0
   -0.2911    1.5595    4.0063 H   0  0  0  0  0  0  0  0  0  0  0  0
    0.1263    0.1005   -1.8274 H   0  0  0  0  0  0  0  0  0  0  0  0
   -2.1705   -1.2952    1.2246 H   0  0  0  0  0  0  0  0  0  0  0  0
   -0.7908    3.2979    1.4019 H   0  0  0  0  0  0  0  0  0  0  0  0
   -5.5942    3.3830    1.1072 H   0  0  0  0  0  0  0  0  0  0  0  0
   -4.6332   -3.6570    0.9768 H   0  0  0  0  0  0  0  0  0  0  0  0
   -5.5264    5.7750    0.7106 H   0  0  0  0  0  0  0  0  0  0  0  0
   -4.0324    6.6376    0.7757 H   0  0  0  0  0  0  0  0  0  0  0  0
   -0.5691    6.9134    0.1554 H   0  0  0  0  0  0  0  0  0  0  0  0
   -0.5056    5.2321   -0.3780 H   0  0  0  0  0  0  0  0  0  0  0  0
   -1.9579    6.2193   -0.6869 H   0  0  0  0  0  0  0  0  0  0  0  0
   -6.7837    5.2681    2.7729 H   0  0  0  0  0  0  0  0  0  0  0  0
   -7.2660    5.8292    5.0683 H   0  0  0  0  0  0  0  0  0  0  0  0
   -5.6787    7.0934    6.3773 H   0  0  0  0  0  0  0  0  0  0  0  0
  1  2  1  0  0  0  0 
  1  3  1  0  0  0  0 
  1  4  1  0  0  0  0 
  2  5  1  0  0  0  0 
  2  6  1  0  0  0  0 
  3  7  1  0  0  0  0 
  4  8  1  0  0  0  0 
  4  9  1  0  0  0  0 
  8 10  1  0  0  0  0 
  8 11  2  0  0  0  0 
  9 12  2  0  0  0  0 
 10 13  2  0  0  0  0 
 10 14  1  0  0  0  0 
 11 15  1  0  0  0  0 
 12 14  1  0  0  0  0 
 12 16  1  0  0  0  0 
 13 17  1  0  0  0  0 
 14 18  2  0  0  0  0 
 15 17  2  0  0  0  0 
 15 19  1  0  0  0  0 
 16 20  1  0  0  0  0 
 16 21  2  0  0  0  0 
 17 22  1  0  0  0  0 
 19 23  1  0  0  0  0 
 22 24  1  0  0  0  0 
 24 25  2  0  0  0  0 
 24 26  1  0  0  0  0 
 25 27  1  0  0  0  0 
 25 28  1  0  0  0  0 
 26 29  2  0  0  0  0 
 28 30  1  0  0  0  0 
 28 31  2  0  0  0  0 
 29 31  1  0  0  0  0 
  1 32  1  0  0  0  0 
  2 33  1  0  0  0  0 
  3 34  1  0  0  0  0 
  3 35  1  0  0  0  0 
  5 36  1  0  0  0  0 
  5 37  1  0  0  0  0 
  5 38  1  0  0  0  0 
  6 39  1  0  0  0  0 
  6 40  1  0  0  0  0 
  6 41  1  0  0  0  0 
  7 42  1  0  0  0  0 
  9 43  1  0  0  0  0 
 11 44  1  0  0  0  0 
 13 45  1  0  0  0  0 
 20 46  1  0  0  0  0 
 22 47  1  0  0  0  0 
 22 48  1  0  0  0  0 
 23 49  1  0  0  0  0 
 23 50  1  0  0  0  0 
 23 51  1  0  0  0  0 
 26 52  1  0  0  0  0 
 29 53  1  0  0  0  0 
 31 54  1  0  0  0  0 
M  END
> <cdk:Title>
elvitegravir

> <Conformer>
1

> <SuperDrugID>
SD003483

$$$$
