meclocycline
  CDK     0628171801

 54 57  0  0  0  0  0  0  0  0999 V2000
   -3.8244   -2.2092    1.5756 O   0  0  0  0  0  0  0  0  0  0  0  0
   -3.0464   -2.2999    0.3778 C   0  0  1  0  0  0  0  0  0  0  0  0
   -2.0252   -3.4982    0.5755 C   0  0  2  0  0  0  0  0  0  0  0  0
   -4.0050   -2.5472   -0.7470 C   0  0  0  0  0  0  0  0  0  0  0  0
   -2.3881   -0.9927    0.1774 C   0  0  0  0  0  0  0  0  0  0  0  0
   -0.7369   -3.2988   -0.2985 C   0  0  2  0  0  0  0  0  0  0  0  0
   -2.7209   -4.8843    0.3196 C   0  0  1  0  0  0  0  0  0  0  0  0
   -5.0165   -1.8230   -0.9156 O   0  0  0  0  0  0  0  0  0  0  0  0
   -3.7658   -3.6027   -1.6116 C   0  0  0  0  0  0  0  0  0  0  0  0
   -3.1983    0.0702    0.1322 O   0  0  0  0  0  0  0  0  0  0  0  0
   -1.0501   -0.8208    0.0157 C   0  0  0  0  0  0  0  0  0  0  0  0
    0.2444   -4.4491   -0.2322 N   0  0  1  0  0  0  0  0  0  0  0  0
   -0.1999   -1.9417    0.0033 C   0  0  0  0  0  0  0  0  0  0  0  0
   -3.5075   -5.2160    1.4683 O   0  0  0  0  0  0  0  0  0  0  0  0
   -3.6353   -4.9152   -0.9672 C   0  0  1  0  0  0  0  0  0  0  0  0
   -3.5541   -3.4088   -2.9309 C   0  0  0  0  0  0  0  0  0  0  0  0
   -0.4945    0.4593   -0.1376 C   0  0  0  0  0  0  0  0  0  0  0  0
    1.2193   -4.5388   -1.3588 C   0  0  0  0  0  0  0  0  0  0  0  0
    0.8549   -4.7907    1.0867 C   0  0  0  0  0  0  0  0  0  0  0  0
    1.0203   -1.8116    0.2681 O   0  0  0  0  0  0  0  0  0  0  0  0
   -3.2971   -6.0126   -1.8977 C   0  0  0  0  0  0  0  0  0  0  0  0
   -3.7880   -2.1997   -3.4489 O   0  0  0  0  0  0  0  0  0  0  0  0
   -2.9748   -4.4214   -3.7220 C   0  0  0  0  0  0  0  0  0  0  0  0
    0.5597    0.6900   -0.9458 N   0  0  0  0  0  0  0  0  0  0  0  0
   -0.9419    1.4591    0.4713 O   0  0  0  0  0  0  0  0  0  0  0  0
   -3.6746   -7.2611   -1.5492 C   0  0  0  0  0  0  0  0  0  0  0  0
   -2.6960   -5.7058   -3.1442 C   0  0  0  0  0  0  0  0  0  0  0  0
   -2.5688   -4.1576   -5.0622 C   0  0  0  0  0  0  0  0  0  0  0  0
   -1.8149   -6.5862   -3.8448 C   0  0  0  0  0  0  0  0  0  0  0  0
   -2.8601   -2.9915   -5.7062 O   0  0  0  0  0  0  0  0  0  0  0  0
   -1.8121   -5.1026   -5.7735 C   0  0  0  0  0  0  0  0  0  0  0  0
   -1.1042   -7.9806   -3.1793 Cl  0  0  0  0  0  0  0  0  0  0  0  0
   -1.4131   -6.2927   -5.1593 C   0  0  0  0  0  0  0  0  0  0  0  0
   -3.1953   -1.9332    2.2772 H   0  0  0  0  0  0  0  0  0  0  0  0
   -1.6981   -3.4768    1.6200 H   0  0  0  0  0  0  0  0  0  0  0  0
   -1.0704   -3.2469   -1.3382 H   0  0  0  0  0  0  0  0  0  0  0  0
   -1.9633   -5.6704    0.2681 H   0  0  0  0  0  0  0  0  0  0  0  0
   -3.6716    0.0762    0.9891 H   0  0  0  0  0  0  0  0  0  0  0  0
   -2.8744   -5.2498    2.2171 H   0  0  0  0  0  0  0  0  0  0  0  0
   -4.6683   -5.1031   -0.6379 H   0  0  0  0  0  0  0  0  0  0  0  0
    0.7120   -4.4330   -2.3186 H   0  0  0  0  0  0  0  0  0  0  0  0
    1.7098   -5.5148   -1.3596 H   0  0  0  0  0  0  0  0  0  0  0  0
    1.9847   -3.7651   -1.2761 H   0  0  0  0  0  0  0  0  0  0  0  0
    0.1108   -4.8402    1.8782 H   0  0  0  0  0  0  0  0  0  0  0  0
    1.3181   -5.7769    1.0355 H   0  0  0  0  0  0  0  0  0  0  0  0
    1.6190   -4.0677    1.3720 H   0  0  0  0  0  0  0  0  0  0  0  0
   -4.6791   -1.9410   -3.1333 H   0  0  0  0  0  0  0  0  0  0  0  0
    0.9356    1.5801   -1.0139 H   0  0  0  0  0  0  0  0  0  0  0  0
    0.9468   -0.0343   -1.4604 H   0  0  0  0  0  0  0  0  0  0  0  0
   -4.0952   -7.4450   -0.6699 H   0  0  0  0  0  0  0  0  0  0  0  0
   -3.5733   -8.0331   -2.1575 H   0  0  0  0  0  0  0  0  0  0  0  0
   -2.4125   -3.0283   -6.5764 H   0  0  0  0  0  0  0  0  0  0  0  0
   -1.5270   -4.9140   -6.7375 H   0  0  0  0  0  0  0  0  0  0  0  0
   -0.8170   -6.9408   -5.6805 H   0  0  0  0  0  0  0  0  0  0  0  0
  2  1  1  0  0  0  0 
  3  2  1  0  0  0  0 
  2  4  1  0  0  0  0 
  2  5  1  0  0  0  0 
  3  6  1  0  0  0  0 
  3  7  1  0  0  0  0 
  4  8  2  0  0  0  0 
  4  9  1  0  0  0  0 
  5 10  1  0  0  0  0 
  5 11  2  0  0  0  0 
  6 12  1  0  0  0  0 
  6 13  1  0  0  0  0 
  7 14  1  0  0  0  0 
  7 15  1  0  0  0  0 
 15  9  1  0  0  0  0 
  9 16  2  0  0  0  0 
 11 13  1  0  0  0  0 
 11 17  1  0  0  0  0 
 12 18  1  0  0  0  0 
 12 19  1  0  0  0  0 
 13 20  2  0  0  0  0 
 15 21  1  0  0  0  0 
 16 22  1  0  0  0  0 
 16 23  1  0  0  0  0 
 17 24  1  0  0  0  0 
 17 25  2  0  0  0  0 
 21 26  2  0  0  0  0 
 21 27  1  0  0  0  0 
 23 27  2  0  0  0  0 
 23 28  1  0  0  0  0 
 27 29  1  0  0  0  0 
 28 30  1  0  0  0  0 
 28 31  2  0  0  0  0 
 29 32  1  0  0  0  0 
 29 33  2  0  0  0  0 
 31 33  1  0  0  0  0 
 34  1  1  0  0  0  0 
  3 35  1  0  0  0  0 
  6 36  1  0  0  0  0 
  7 37  1  0  0  0  0 
 38 10  1  0  0  0  0 
 39 14  1  0  0  0  0 
 15 40  1  0  0  0  0 
 41 18  1  0  0  0  0 
 42 18  1  0  0  0  0 
 43 18  1  0  0  0  0 
 44 19  1  0  0  0  0 
 45 19  1  0  0  0  0 
 46 19  1  0  0  0  0 
 47 22  1  0  0  0  0 
 48 24  1  0  0  0  0 
 49 24  1  0  0  0  0 
 50 26  1  0  0  0  0 
 51 26  1  0  0  0  0 
 52 30  1  0  0  0  0 
 53 31  1  0  0  0  0 
 54 33  1  0  0  0  0 
M  END
> <cdk:Title>
meclocycline

> <Conformer>
1

> <SuperDrugID>
SD002877

$$$$
