tandospirone
  CDK     0628171801

 57 61  0  0  0  0  0  0  0  0999 V2000
   -0.4852    2.1248   -1.6189 O   0  0  0  0  0  0  0  0  0  0  0  0
   -1.2689    1.8634   -0.6768 C   0  0  0  0  0  0  0  0  0  0  0  0
   -2.7020    2.1686   -0.7506 C   0  0  1  0  0  0  0  0  0  0  0  0
   -0.9168    1.3158    0.5131 N   0  0  0  0  0  0  0  0  0  0  0  0
   -3.2425    1.6414    0.5977 C   0  0  1  0  0  0  0  0  0  0  0  0
   -3.0645    3.6898   -0.6907 C   0  0  2  0  0  0  0  0  0  0  0  0
    0.4309    1.0088    0.9165 C   0  0  1  0  0  0  0  0  0  0  0  0
   -2.0290    1.1583    1.2749 C   0  0  0  0  0  0  0  0  0  0  0  0
   -3.8901    2.9220    1.2127 C   0  0  1  0  0  0  0  0  0  0  0  0
   -2.9235    4.0493    0.8008 C   0  0  1  0  0  0  0  0  0  0  0  0
   -4.5926    3.8731   -0.9022 C   0  0  1  0  0  0  0  0  0  0  0  0
    1.2557    2.3113    1.0936 C   0  0  1  0  0  0  0  0  0  0  0  0
   -2.0537    0.6920    2.4380 O   0  0  0  0  0  0  0  0  0  0  0  0
   -5.1735    3.3020    0.4188 C   0  0  1  0  0  0  0  0  0  0  0  0
    2.6642    2.0918    1.7039 C   0  0  2  0  0  0  0  0  0  0  0  0
    3.5466    3.3656    1.5713 C   0  0  2  0  0  0  0  0  0  0  0  0
    4.8045    3.3842    2.3885 N   0  0  1  0  0  0  0  0  0  0  0  0
    5.7434    2.2529    2.1119 C   0  0  1  0  0  0  0  0  0  0  0  0
    5.4893    4.7175    2.2920 C   0  0  1  0  0  0  0  0  0  0  0  0
    7.0185    2.3513    2.9833 C   0  0  1  0  0  0  0  0  0  0  0  0
    6.8030    4.7799    3.1123 C   0  0  2  0  0  0  0  0  0  0  0  0
    7.6477    3.6440    2.7981 N   0  0  0  0  0  0  0  0  0  0  0  0
    8.9534    3.7758    2.3530 C   0  0  0  0  0  0  0  0  0  0  0  0
    9.6892    2.6943    1.9629 N   0  0  0  0  0  0  0  0  0  0  0  0
    9.5673    4.9921    2.2883 N   0  0  0  0  0  0  0  0  0  0  0  0
   10.9771    2.7817    1.5458 C   0  0  0  0  0  0  0  0  0  0  0  0
   10.8520    5.1536    1.8809 C   0  0  0  0  0  0  0  0  0  0  0  0
   11.6095    4.0339    1.5020 C   0  0  0  0  0  0  0  0  0  0  0  0
   -3.1563    1.6577   -1.6060 H   0  0  0  0  0  0  0  0  0  0  0  0
   -3.9585    0.8234    0.4758 H   0  0  0  0  0  0  0  0  0  0  0  0
   -2.4573    4.3163   -1.3507 H   0  0  0  0  0  0  0  0  0  0  0  0
   -4.0598    2.8561    2.2922 H   0  0  0  0  0  0  0  0  0  0  0  0
    0.4422    0.4560    1.8619 H   0  0  0  0  0  0  0  0  0  0  0  0
    0.8942    0.3716    0.1597 H   0  0  0  0  0  0  0  0  0  0  0  0
   -1.9078    3.9254    1.1904 H   0  0  0  0  0  0  0  0  0  0  0  0
   -3.2820    5.0542    1.0549 H   0  0  0  0  0  0  0  0  0  0  0  0
   -4.8417    4.9326   -1.0131 H   0  0  0  0  0  0  0  0  0  0  0  0
   -4.9517    3.3297   -1.7819 H   0  0  0  0  0  0  0  0  0  0  0  0
    1.3658    2.7895    0.1170 H   0  0  0  0  0  0  0  0  0  0  0  0
    0.6994    2.9962    1.7426 H   0  0  0  0  0  0  0  0  0  0  0  0
   -5.8102    2.4324    0.2321 H   0  0  0  0  0  0  0  0  0  0  0  0
   -5.7558    4.0608    0.9522 H   0  0  0  0  0  0  0  0  0  0  0  0
    3.1511    1.2657    1.1796 H   0  0  0  0  0  0  0  0  0  0  0  0
    2.5584    1.8197    2.7587 H   0  0  0  0  0  0  0  0  0  0  0  0
    2.9317    4.2148    1.8843 H   0  0  0  0  0  0  0  0  0  0  0  0
    3.7913    3.5084    0.5117 H   0  0  0  0  0  0  0  0  0  0  0  0
    5.2634    1.2992    2.3412 H   0  0  0  0  0  0  0  0  0  0  0  0
    6.0322    2.2502    1.0569 H   0  0  0  0  0  0  0  0  0  0  0  0
    5.7273    4.9440    1.2470 H   0  0  0  0  0  0  0  0  0  0  0  0
    4.8263    5.5043    2.6664 H   0  0  0  0  0  0  0  0  0  0  0  0
    6.7385    2.2406    4.0346 H   0  0  0  0  0  0  0  0  0  0  0  0
    7.6636    1.5031    2.7388 H   0  0  0  0  0  0  0  0  0  0  0  0
    6.5627    4.7617    4.1787 H   0  0  0  0  0  0  0  0  0  0  0  0
    7.2782    5.7433    2.9111 H   0  0  0  0  0  0  0  0  0  0  0  0
   11.4823    1.9360    1.2737 H   0  0  0  0  0  0  0  0  0  0  0  0
   11.2667    6.0871    1.8585 H   0  0  0  0  0  0  0  0  0  0  0  0
   12.5858    4.1248    1.2103 H   0  0  0  0  0  0  0  0  0  0  0  0
  1  2  2  0  0  0  0 
  3  2  1  0  0  0  0 
  2  4  1  0  0  0  0 
  5  3  1  0  0  0  0 
  3  6  1  0  0  0  0 
  3 29  1  0  0  0  0 
  4  7  1  0  0  0  0 
  4  8  1  0  0  0  0 
  5  8  1  0  0  0  0 
  9  5  1  0  0  0  0 
  5 30  1  0  0  0  0 
  6 10  1  0  0  0  0 
  6 11  1  0  0  0  0 
  6 31  1  0  0  0  0 
  7 12  1  0  0  0  0 
  8 13  2  0  0  0  0 
  9 10  1  0  0  0  0 
  9 14  1  0  0  0  0 
  9 32  1  0  0  0  0 
 11 14  1  0  0  0  0 
 12 15  1  0  0  0  0 
 15 16  1  0  0  0  0 
 16 17  1  0  0  0  0 
 17 18  1  0  0  0  0 
 17 19  1  0  0  0  0 
 18 20  1  0  0  0  0 
 19 21  1  0  0  0  0 
 20 22  1  0  0  0  0 
 21 22  1  0  0  0  0 
 22 23  1  0  0  0  0 
 23 24  2  0  0  0  0 
 23 25  1  0  0  0  0 
 24 26  1  0  0  0  0 
 25 27  2  0  0  0  0 
 26 28  2  0  0  0  0 
 27 28  1  0  0  0  0 
  7 33  1  0  0  0  0 
  7 34  1  0  0  0  0 
 10 35  1  0  0  0  0 
 10 36  1  0  0  0  0 
 11 37  1  0  0  0  0 
 11 38  1  0  0  0  0 
 12 39  1  0  0  0  0 
 12 40  1  0  0  0  0 
 14 41  1  0  0  0  0 
 14 42  1  0  0  0  0 
 15 43  1  0  0  0  0 
 15 44  1  0  0  0  0 
 16 45  1  0  0  0  0 
 16 46  1  0  0  0  0 
 18 47  1  0  0  0  0 
 18 48  1  0  0  0  0 
 19 49  1  0  0  0  0 
 19 50  1  0  0  0  0 
 20 51  1  0  0  0  0 
 20 52  1  0  0  0  0 
 21 53  1  0  0  0  0 
 21 54  1  0  0  0  0 
 26 55  1  0  0  0  0 
 27 56  1  0  0  0  0 
 28 57  1  0  0  0  0 
M  END
> <cdk:Title>
tandospirone

> <Conformer>
1

> <SuperDrugID>
SD002307

$$$$
