micronomicin
  CDK     0628171801

 73 75  0  0  0  0  0  0  0  0999 V2000
   -1.8665    1.2649    4.2423 C   0  0  1  0  0  0  0  0  0  0  0  0
   -1.0732    1.3719    2.9782 O   0  0  0  0  0  0  0  0  0  0  0  0
   -1.7865    0.7240    1.8362 C   0  0  1  0  0  0  0  0  0  0  0  0
   -3.2490    1.2666    1.5933 C   0  0  1  0  0  0  0  0  0  0  0  0
   -4.0810    1.0789    2.8854 C   0  0  1  0  0  0  0  0  0  0  0  0
   -3.3893    1.6905    4.1357 C   0  0  1  0  0  0  0  0  0  0  0  0
   -0.9044    0.9569    0.5866 C   0  0  2  0  0  0  0  0  0  0  0  0
    0.3839    0.2512    0.7633 N   0  0  1  0  0  0  0  0  0  0  0  0
    1.3177    0.4047   -0.3658 C   0  0  0  0  0  0  0  0  0  0  0  0
   -1.7922   -0.0830    4.7530 O   0  0  0  0  0  0  0  0  0  0  0  0
   -0.5066   -0.7474    4.9149 C   0  0  1  0  0  0  0  0  0  0  0  0
    0.5551    0.0285    5.7786 C   0  0  1  0  0  0  0  0  0  0  0  0
    1.7487   -0.8218    6.3440 C   0  0  2  0  0  0  0  0  0  0  0  0
    1.2669   -2.1868    6.9155 C   0  0  1  0  0  0  0  0  0  0  0  0
    0.3663   -2.9571    5.9183 C   0  0  2  0  0  0  0  0  0  0  0  0
   -0.8825   -2.1226    5.5419 C   0  0  2  0  0  0  0  0  0  0  0  0
    2.4672   -0.1895    7.4420 O   0  0  0  0  0  0  0  0  0  0  0  0
    3.0810    1.1062    7.2558 C   0  0  1  0  0  0  0  0  0  0  0  0
    2.0718    2.1202    7.4673 O   0  0  0  0  0  0  0  0  0  0  0  0
    2.5393    3.4754    7.3074 C   0  0  2  0  0  0  0  0  0  0  0  0
    3.6475    3.8230    8.3490 C   0  0  1  0  0  0  0  0  0  0  0  0
    4.7948    2.7479    8.2806 C   0  0  1  0  0  0  0  0  0  0  0  0
    4.2339    1.2858    8.2864 C   0  0  1  0  0  0  0  0  0  0  0  0
    3.7906    0.9392    9.5977 O   0  0  0  0  0  0  0  0  0  0  0  0
    5.6262    3.0073    7.0701 N   0  0  1  0  0  0  0  0  0  0  0  0
    4.1772    5.1151    8.0260 O   0  0  0  0  0  0  0  0  0  0  0  0
    3.0477    3.9900    9.7792 C   0  0  0  0  0  0  0  0  0  0  0  0
    7.0089    2.4865    7.0519 C   0  0  0  0  0  0  0  0  0  0  0  0
    2.4095   -3.0388    7.2834 N   0  0  2  0  0  0  0  0  0  0  0  0
    1.1496    1.0531    4.9777 O   0  0  0  0  0  0  0  0  0  0  0  0
   -1.7240   -2.9032    4.6185 N   0  0  1  0  0  0  0  0  0  0  0  0
   -4.1530    1.3405    5.3473 N   0  0  1  0  0  0  0  0  0  0  0  0
   -1.4811    1.9106    5.0699 H   0  0  0  0  0  0  0  0  0  0  0  0
   -1.8915   -0.3890    1.9297 H   0  0  0  0  0  0  0  0  0  0  0  0
   -3.2117    2.3303    1.3410 H   0  0  0  0  0  0  0  0  0  0  0  0
   -3.7236    0.7301    0.7668 H   0  0  0  0  0  0  0  0  0  0  0  0
   -5.0599    1.5459    2.7449 H   0  0  0  0  0  0  0  0  0  0  0  0
   -4.2408    0.0090    3.0457 H   0  0  0  0  0  0  0  0  0  0  0  0
   -3.4171    2.7795    4.0415 H   0  0  0  0  0  0  0  0  0  0  0  0
   -0.7325    2.0284    0.4519 H   0  0  0  0  0  0  0  0  0  0  0  0
   -1.4124    0.5675   -0.3006 H   0  0  0  0  0  0  0  0  0  0  0  0
    0.8365    0.6556    1.5863 H   0  0  0  0  0  0  0  0  0  0  0  0
    1.5875    1.4541   -0.5030 H   0  0  0  0  0  0  0  0  0  0  0  0
    0.8758    0.0158   -1.2859 H   0  0  0  0  0  0  0  0  0  0  0  0
    2.2221   -0.1636   -0.1472 H   0  0  0  0  0  0  0  0  0  0  0  0
   -0.0770   -0.9387    3.9254 H   0  0  0  0  0  0  0  0  0  0  0  0
    0.0404    0.4945    6.6206 H   0  0  0  0  0  0  0  0  0  0  0  0
    2.4533   -1.0348    5.5295 H   0  0  0  0  0  0  0  0  0  0  0  0
    0.6990   -2.0076    7.8333 H   0  0  0  0  0  0  0  0  0  0  0  0
    0.0420   -3.8942    6.3815 H   0  0  0  0  0  0  0  0  0  0  0  0
    0.9359   -3.2031    5.0166 H   0  0  0  0  0  0  0  0  0  0  0  0
   -1.4715   -1.9524    6.4503 H   0  0  0  0  0  0  0  0  0  0  0  0
    3.5019    1.1778    6.2459 H   0  0  0  0  0  0  0  0  0  0  0  0
    1.6819    4.1434    7.4279 H   0  0  0  0  0  0  0  0  0  0  0  0
    2.9144    3.6202    6.2892 H   0  0  0  0  0  0  0  0  0  0  0  0
    5.4386    2.8824    9.1559 H   0  0  0  0  0  0  0  0  0  0  0  0
    5.0327    0.5809    8.0479 H   0  0  0  0  0  0  0  0  0  0  0  0
    3.5519   -0.0103    9.5443 H   0  0  0  0  0  0  0  0  0  0  0  0
    5.1331    2.6391    6.2548 H   0  0  0  0  0  0  0  0  0  0  0  0
    4.4707    5.0564    7.0927 H   0  0  0  0  0  0  0  0  0  0  0  0
    2.5258    3.0907   10.1055 H   0  0  0  0  0  0  0  0  0  0  0  0
    3.8358    4.2153   10.5019 H   0  0  0  0  0  0  0  0  0  0  0  0
    2.3313    4.8155    9.7974 H   0  0  0  0  0  0  0  0  0  0  0  0
    7.5178    2.9001    6.1799 H   0  0  0  0  0  0  0  0  0  0  0  0
    7.0130    1.3993    6.9725 H   0  0  0  0  0  0  0  0  0  0  0  0
    7.5565    2.7913    7.9466 H   0  0  0  0  0  0  0  0  0  0  0  0
    2.0238   -3.8692    7.7381 H   0  0  0  0  0  0  0  0  0  0  0  0
    2.9466   -2.5424    7.9969 H   0  0  0  0  0  0  0  0  0  0  0  0
    0.4452    1.6999    4.7887 H   0  0  0  0  0  0  0  0  0  0  0  0
   -2.0064   -3.7497    5.1171 H   0  0  0  0  0  0  0  0  0  0  0  0
   -2.5758   -2.3613    4.4573 H   0  0  0  0  0  0  0  0  0  0  0  0
   -4.1749    0.3196    5.4081 H   0  0  0  0  0  0  0  0  0  0  0  0
   -3.6199    1.6754    6.1530 H   0  0  0  0  0  0  0  0  0  0  0  0
  1  2  1  0  0  0  0 
  2  3  1  0  0  0  0 
  3  4  1  0  0  0  0 
  4  5  1  0  0  0  0 
  5  6  1  0  0  0  0 
  1  6  1  0  0  0  0 
  3  7  1  0  0  0  0 
  7  8  1  0  0  0  0 
  8  9  1  0  0  0  0 
  1 10  1  0  0  0  0 
 11 10  1  0  0  0  0 
 12 13  1  0  0  0  0 
 13 14  1  0  0  0  0 
 14 15  1  0  0  0  0 
 15 16  1  0  0  0  0 
 11 12  1  0  0  0  0 
 11 16  1  0  0  0  0 
 13 17  1  0  0  0  0 
 18 17  1  0  0  0  0 
 19 20  1  0  0  0  0 
 20 21  1  0  0  0  0 
 21 22  1  0  0  0  0 
 22 23  1  0  0  0  0 
 18 19  1  0  0  0  0 
 18 23  1  0  0  0  0 
 23 24  1  0  0  0  0 
 22 25  1  0  0  0  0 
 21 26  1  0  0  0  0 
 21 27  1  0  0  0  0 
 25 28  1  0  0  0  0 
 14 29  1  0  0  0  0 
 12 30  1  0  0  0  0 
 16 31  1  0  0  0  0 
  6 32  1  0  0  0  0 
  1 33  1  0  0  0  0 
  3 34  1  0  0  0  0 
  4 35  1  0  0  0  0 
  4 36  1  0  0  0  0 
  5 37  1  0  0  0  0 
  5 38  1  0  0  0  0 
  6 39  1  0  0  0  0 
  7 40  1  0  0  0  0 
  7 41  1  0  0  0  0 
  8 42  1  0  0  0  0 
  9 43  1  0  0  0  0 
  9 44  1  0  0  0  0 
  9 45  1  0  0  0  0 
 11 46  1  0  0  0  0 
 12 47  1  0  0  0  0 
 13 48  1  0  0  0  0 
 14 49  1  0  0  0  0 
 15 50  1  0  0  0  0 
 15 51  1  0  0  0  0 
 16 52  1  0  0  0  0 
 18 53  1  0  0  0  0 
 20 54  1  0  0  0  0 
 20 55  1  0  0  0  0 
 22 56  1  0  0  0  0 
 23 57  1  0  0  0  0 
 24 58  1  0  0  0  0 
 25 59  1  0  0  0  0 
 26 60  1  0  0  0  0 
 27 61  1  0  0  0  0 
 27 62  1  0  0  0  0 
 27 63  1  0  0  0  0 
 28 64  1  0  0  0  0 
 28 65  1  0  0  0  0 
 28 66  1  0  0  0  0 
 29 67  1  0  0  0  0 
 29 68  1  0  0  0  0 
 30 69  1  0  0  0  0 
 31 70  1  0  0  0  0 
 31 71  1  0  0  0  0 
 32 72  1  0  0  0  0 
 32 73  1  0  0  0  0 
M  END
> <cdk:Title>
micronomicin

> <Conformer>
1

> <SuperDrugID>
SD001601

$$$$
