lenampicillin
  CDK     0628171801

 55 58  0  0  0  0  0  0  0  0999 V2000
   -2.7254    0.7048   -1.4599 C   0  0  0  0  0  0  0  0  0  0  0  0
   -1.9361    1.5927   -0.7784 O   0  0  0  0  0  0  0  0  0  0  0  0
   -3.3406    1.0735   -2.4903 O   0  0  0  0  0  0  0  0  0  0  0  0
   -2.8722   -0.6885   -0.9619 C   0  0  2  0  0  0  0  0  0  0  0  0
   -1.7956    2.9849   -1.0993 C   0  0  2  0  0  0  0  0  0  0  0  0
   -2.6341   -1.6109   -2.0161 N   0  0  0  0  0  0  0  0  0  0  0  0
   -4.3022   -1.1301   -0.4423 C   0  0  2  0  0  0  0  0  0  0  0  0
   -0.9564    3.7256   -0.1400 C   0  0  0  0  0  0  0  0  0  0  0  0
   -3.5894   -2.0460   -2.9536 C   0  0  2  0  0  0  0  0  0  0  0  0
   -1.7268   -2.5467   -2.2788 C   0  0  0  0  0  0  0  0  0  0  0  0
   -4.9744   -2.1994   -1.7832 S   0  0  0  0  0  0  0  0  0  0  0  0
   -0.0926    4.7021   -0.4999 O   0  0  0  0  0  0  0  0  0  0  0  0
   -0.9375    3.6362    1.2553 C   0  0  0  0  0  0  0  0  0  0  0  0
   -2.5788   -3.1950   -3.2742 C   0  0  1  0  0  0  0  0  0  0  0  0
   -0.6176   -2.8370   -1.7782 O   0  0  0  0  0  0  0  0  0  0  0  0
    0.4329    5.1961    0.6434 C   0  0  0  0  0  0  0  0  0  0  0  0
   -1.7038    2.7243    2.1169 C   0  0  0  0  0  0  0  0  0  0  0  0
   -0.0688    4.5591    1.7244 O   0  0  0  0  0  0  0  0  0  0  0  0
   -2.9488   -4.5285   -2.9237 N   0  0  0  0  0  0  0  0  0  0  0  0
    1.2686    6.1254    0.6962 O   0  0  0  0  0  0  0  0  0  0  0  0
   -3.9593   -5.2250   -3.5135 C   0  0  0  0  0  0  0  0  0  0  0  0
   -4.1348   -6.6665   -3.2258 C   0  0  2  0  0  0  0  0  0  0  0  0
   -4.7296   -4.6695   -4.3338 O   0  0  0  0  0  0  0  0  0  0  0  0
   -4.3260   -6.8852   -1.7825 N   0  0  1  0  0  0  0  0  0  0  0  0
   -3.0032   -7.4437   -3.8133 C   0  0  0  0  0  0  0  0  0  0  0  0
   -1.8334   -7.7368   -3.0692 C   0  0  0  0  0  0  0  0  0  0  0  0
   -3.0710   -7.8890   -5.1580 C   0  0  0  0  0  0  0  0  0  0  0  0
   -0.7780   -8.4679   -3.6438 C   0  0  0  0  0  0  0  0  0  0  0  0
   -2.0143   -8.6175   -5.7345 C   0  0  0  0  0  0  0  0  0  0  0  0
   -0.8680   -8.9090   -4.9757 C   0  0  0  0  0  0  0  0  0  0  0  0
   -3.7543   -1.3197   -3.7553 H   0  0  0  0  0  0  0  0  0  0  0  0
   -5.3115    0.0293   -0.1758 C   0  0  0  0  0  0  0  0  0  0  0  0
   -4.1870   -2.0188    0.8353 C   0  0  0  0  0  0  0  0  0  0  0  0
   -2.1190   -0.8411   -0.1837 H   0  0  0  0  0  0  0  0  0  0  0  0
   -2.7843    3.4473   -1.0938 H   0  0  0  0  0  0  0  0  0  0  0  0
   -1.3698    3.0877   -2.0989 H   0  0  0  0  0  0  0  0  0  0  0  0
   -2.1435   -3.1200   -4.2756 H   0  0  0  0  0  0  0  0  0  0  0  0
   -2.7618    2.7575    1.8587 H   0  0  0  0  0  0  0  0  0  0  0  0
   -1.5868    3.0183    3.1602 H   0  0  0  0  0  0  0  0  0  0  0  0
   -1.3339    1.7061    1.9972 H   0  0  0  0  0  0  0  0  0  0  0  0
   -2.4124   -4.9857   -2.2546 H   0  0  0  0  0  0  0  0  0  0  0  0
   -5.0655   -7.0171   -3.6812 H   0  0  0  0  0  0  0  0  0  0  0  0
   -4.3902   -7.8949   -1.6303 H   0  0  0  0  0  0  0  0  0  0  0  0
   -3.4819   -6.5673   -1.3025 H   0  0  0  0  0  0  0  0  0  0  0  0
   -1.7333   -7.4195   -2.1027 H   0  0  0  0  0  0  0  0  0  0  0  0
   -3.8914   -7.6809   -5.7309 H   0  0  0  0  0  0  0  0  0  0  0  0
    0.0537   -8.6835   -3.0900 H   0  0  0  0  0  0  0  0  0  0  0  0
   -2.0826   -8.9385   -6.7027 H   0  0  0  0  0  0  0  0  0  0  0  0
   -0.1009   -9.4418   -5.3911 H   0  0  0  0  0  0  0  0  0  0  0  0
   -5.5294    0.5796   -1.0922 H   0  0  0  0  0  0  0  0  0  0  0  0
   -4.9030    0.7250    0.5601 H   0  0  0  0  0  0  0  0  0  0  0  0
   -6.2591   -0.3602    0.2019 H   0  0  0  0  0  0  0  0  0  0  0  0
   -3.5264   -2.8731    0.6619 H   0  0  0  0  0  0  0  0  0  0  0  0
   -3.7802   -1.4301    1.6614 H   0  0  0  0  0  0  0  0  0  0  0  0
   -5.1663   -2.4021    1.1370 H   0  0  0  0  0  0  0  0  0  0  0  0
  1  2  1  0  0  0  0 
  1  3  2  0  0  0  0 
  2  5  1  0  0  0  0 
  4  1  1  0  0  0  0 
  4  6  1  0  0  0  0 
  4  7  1  0  0  0  0 
  5  8  1  0  0  0  0 
  9  6  1  0  0  0  0 
  6 10  1  0  0  0  0 
  7 11  1  0  0  0  0 
  8 12  1  0  0  0  0 
  8 13  2  0  0  0  0 
  9 11  1  0  0  0  0 
  9 14  1  0  0  0  0 
  9 31  1  0  0  0  0 
 14 10  1  0  0  0  0 
 10 15  2  0  0  0  0 
 12 16  1  0  0  0  0 
 13 17  1  0  0  0  0 
 13 18  1  0  0  0  0 
 14 19  1  0  0  0  0 
 16 18  1  0  0  0  0 
 16 20  2  0  0  0  0 
 19 21  1  0  0  0  0 
 22 21  1  0  0  0  0 
 21 23  2  0  0  0  0 
 22 24  1  0  0  0  0 
 22 25  1  0  0  0  0 
 25 26  2  0  0  0  0 
 25 27  1  0  0  0  0 
 26 28  1  0  0  0  0 
 27 29  2  0  0  0  0 
 28 30  2  0  0  0  0 
 29 30  1  0  0  0  0 
  7 32  1  0  0  0  0 
  7 33  1  0  0  0  0 
  4 34  1  0  0  0  0 
  5 35  1  0  0  0  0 
  5 36  1  0  0  0  0 
 14 37  1  0  0  0  0 
 17 38  1  0  0  0  0 
 17 39  1  0  0  0  0 
 17 40  1  0  0  0  0 
 19 41  1  0  0  0  0 
 22 42  1  0  0  0  0 
 24 43  1  0  0  0  0 
 24 44  1  0  0  0  0 
 26 45  1  0  0  0  0 
 27 46  1  0  0  0  0 
 28 47  1  0  0  0  0 
 29 48  1  0  0  0  0 
 30 49  1  0  0  0  0 
 32 50  1  0  0  0  0 
 32 51  1  0  0  0  0 
 32 52  1  0  0  0  0 
 33 53  1  0  0  0  0 
 33 54  1  0  0  0  0 
 33 55  1  0  0  0  0 
M  END
> <cdk:Title>
lenampicillin

> <Conformer>
1

> <SuperDrugID>
SD001372

$$$$
