rivaroxaban
  CDK     0628171801

 47 50  0  0  0  0  0  0  0  0999 V2000
   12.9318    2.7459   -3.4311 C   0  0  2  0  0  0  0  0  0  0  0  0
   11.7938    1.8417   -2.8867 C   0  0  1  0  0  0  0  0  0  0  0  0
   10.4743    2.2160   -3.3516 N   0  0  0  0  0  0  0  0  0  0  0  0
   10.3177    3.0893   -4.4168 C   0  0  0  0  0  0  0  0  0  0  0  0
   11.4861    3.6618   -5.1287 C   0  0  1  0  0  0  0  0  0  0  0  0
   12.7288    2.9945   -4.8321 O   0  0  0  0  0  0  0  0  0  0  0  0
    9.3676    1.6681   -2.7345 C   0  0  0  0  0  0  0  0  0  0  0  0
    9.1847    3.4565   -4.8149 O   0  0  0  0  0  0  0  0  0  0  0  0
    9.0405    1.9956   -1.3997 C   0  0  0  0  0  0  0  0  0  0  0  0
    7.8441    1.5354   -0.8177 C   0  0  0  0  0  0  0  0  0  0  0  0
    6.9244    0.7439   -1.5480 C   0  0  0  0  0  0  0  0  0  0  0  0
    7.3050    0.3444   -2.8531 C   0  0  0  0  0  0  0  0  0  0  0  0
    8.5042    0.7977   -3.4362 C   0  0  0  0  0  0  0  0  0  0  0  0
    5.6852    0.4199   -1.0237 N   0  0  0  0  0  0  0  0  0  0  0  0
    5.0406   -0.8575   -1.1053 C   0  0  2  0  0  0  0  0  0  0  0  0
    3.5983   -0.6035   -0.5759 C   0  0  1  0  0  0  0  0  0  0  0  0
    3.6899    0.7179   -0.0567 O   0  0  0  0  0  0  0  0  0  0  0  0
    4.8642    1.2849   -0.3779 C   0  0  0  0  0  0  0  0  0  0  0  0
    5.0918    2.4899   -0.1262 O   0  0  0  0  0  0  0  0  0  0  0  0
    2.4966   -0.6722   -1.6683 C   0  0  2  0  0  0  0  0  0  0  0  0
    1.2675   -0.0787   -1.2389 N   0  0  0  0  0  0  0  0  0  0  0  0
    0.1898   -0.7284   -0.7134 C   0  0  0  0  0  0  0  0  0  0  0  0
   -0.9809    0.0046   -0.4221 C   0  0  0  0  0  0  0  0  0  0  0  0
    0.2177   -1.9652   -0.5019 O   0  0  0  0  0  0  0  0  0  0  0  0
   -1.1719    1.7480   -0.5322 S   0  0  0  0  0  0  0  0  0  0  0  0
   -2.8591    1.7902   -0.0641 C   0  0  0  0  0  0  0  0  0  0  0  0
   -3.2430    0.4693    0.1750 C   0  0  0  0  0  0  0  0  0  0  0  0
   -2.2304   -0.4896   -0.0162 C   0  0  0  0  0  0  0  0  0  0  0  0
   -3.8227    3.1725    0.0613 Cl  0  0  0  0  0  0  0  0  0  0  0  0
   13.8929    2.2428   -3.3050 H   0  0  0  0  0  0  0  0  0  0  0  0
   12.9739    3.6901   -2.8776 H   0  0  0  0  0  0  0  0  0  0  0  0
   11.9812    0.8142   -3.2140 H   0  0  0  0  0  0  0  0  0  0  0  0
   11.8517    1.8676   -1.7937 H   0  0  0  0  0  0  0  0  0  0  0  0
   11.3312    3.5659   -6.2060 H   0  0  0  0  0  0  0  0  0  0  0  0
   11.5712    4.7264   -4.8906 H   0  0  0  0  0  0  0  0  0  0  0  0
    9.6598    2.5918   -0.8454 H   0  0  0  0  0  0  0  0  0  0  0  0
    7.6374    1.8037    0.1460 H   0  0  0  0  0  0  0  0  0  0  0  0
    6.6978   -0.2550   -3.4122 H   0  0  0  0  0  0  0  0  0  0  0  0
    8.7321    0.5110   -4.3918 H   0  0  0  0  0  0  0  0  0  0  0  0
    5.5630   -1.5762   -0.4667 H   0  0  0  0  0  0  0  0  0  0  0  0
    5.0248   -1.2482   -2.1248 H   0  0  0  0  0  0  0  0  0  0  0  0
    3.3538   -1.2984    0.2331 H   0  0  0  0  0  0  0  0  0  0  0  0
    2.3538   -1.7111   -1.9808 H   0  0  0  0  0  0  0  0  0  0  0  0
    2.8257   -0.1075   -2.5449 H   0  0  0  0  0  0  0  0  0  0  0  0
    1.1969    0.8841   -1.3498 H   0  0  0  0  0  0  0  0  0  0  0  0
   -4.1905    0.2168    0.4636 H   0  0  0  0  0  0  0  0  0  0  0  0
   -2.4055   -1.4859    0.1218 H   0  0  0  0  0  0  0  0  0  0  0  0
  1  2  1  0  0  0  0 
  1  6  1  0  0  0  0 
  2  3  1  0  0  0  0 
  3  4  1  0  0  0  0 
  4  5  1  0  0  0  0 
  5  6  1  0  0  0  0 
  3  7  1  0  0  0  0 
  4  8  2  0  0  0  0 
 13  7  2  0  0  0  0 
  9  7  1  0  0  0  0 
  9 10  2  0  0  0  0 
 10 11  1  0  0  0  0 
 11 12  2  0  0  0  0 
 12 13  1  0  0  0  0 
 11 14  1  0  0  0  0 
 18 14  1  0  0  0  0 
 15 14  1  0  0  0  0 
 15 16  1  0  0  0  0 
 16 17  1  0  0  0  0 
 17 18  1  0  0  0  0 
 18 19  2  0  0  0  0 
 16 20  1  0  0  0  0 
 20 21  1  0  0  0  0 
 21 22  1  0  0  0  0 
 22 23  1  0  0  0  0 
 22 24  2  0  0  0  0 
 28 23  2  0  0  0  0 
 25 23  1  0  0  0  0 
 25 26  1  0  0  0  0 
 26 27  2  0  0  0  0 
 27 28  1  0  0  0  0 
 26 29  1  0  0  0  0 
  1 30  1  0  0  0  0 
  1 31  1  0  0  0  0 
  2 32  1  0  0  0  0 
  2 33  1  0  0  0  0 
  5 34  1  0  0  0  0 
  5 35  1  0  0  0  0 
  9 36  1  0  0  0  0 
 10 37  1  0  0  0  0 
 12 38  1  0  0  0  0 
 13 39  1  0  0  0  0 
 15 40  1  0  0  0  0 
 15 41  1  0  0  0  0 
 16 42  1  0  0  0  0 
 20 43  1  0  0  0  0 
 20 44  1  0  0  0  0 
 21 45  1  0  0  0  0 
 27 46  1  0  0  0  0 
 28 47  1  0  0  0  0 
M  END
> <cdk:Title>
rivaroxaban

> <Conformer>
1

> <SuperDrugID>
SD003412

$$$$
