methiosulfonium chloride
  CDK     0628171801

 24 23  0  0  0  0  0  0  0  0999 V2000
   -1.5547    2.0866   -2.1513 C   0  0  0  0  0  0  0  0  0  0  0  0
   -1.3732    1.2315   -0.5450 S   0  0  2  0  0  0  0  0  0  0  0  0
   -1.0832    2.5545    0.6827 C   0  0  0  0  0  0  0  0  0  0  0  0
    0.1988    0.2964   -0.6631 C   0  0  1  0  0  0  0  0  0  0  0  0
    0.4825   -0.5099    0.6287 C   0  0  1  0  0  0  0  0  0  0  0  0
    1.7540   -1.4038    0.5448 C   0  0  2  0  0  0  0  0  0  0  0  0
    1.5800   -2.4886   -0.4295 N   0  0  1  0  0  0  0  0  0  0  0  0
    2.0760   -2.0065    1.8566 C   0  0  0  0  0  0  0  0  0  0  0  0
    1.1805   -2.8033    2.4886 O   0  0  0  0  0  0  0  0  0  0  0  0
    3.1775   -1.7908    2.4106 O   0  0  0  0  0  0  0  0  0  0  0  0
   -1.6242    1.3457   -2.9479 H   0  0  0  0  0  0  0  0  0  0  0  0
   -2.4638    2.6891   -2.1410 H   0  0  0  0  0  0  0  0  0  0  0  0
   -0.6943    2.7313   -2.3291 H   0  0  0  0  0  0  0  0  0  0  0  0
   -1.9157    3.2582    0.6747 H   0  0  0  0  0  0  0  0  0  0  0  0
   -1.0003    2.1164    1.6773 H   0  0  0  0  0  0  0  0  0  0  0  0
   -0.1613    3.0849    0.4433 H   0  0  0  0  0  0  0  0  0  0  0  0
    0.1256   -0.3800   -1.5155 H   0  0  0  0  0  0  0  0  0  0  0  0
    1.0149    0.9996   -0.8503 H   0  0  0  0  0  0  0  0  0  0  0  0
    0.6053    0.1973    1.4536 H   0  0  0  0  0  0  0  0  0  0  0  0
   -0.3840   -1.1398    0.8501 H   0  0  0  0  0  0  0  0  0  0  0  0
    2.5965   -0.7915    0.2103 H   0  0  0  0  0  0  0  0  0  0  0  0
    2.4267   -3.0621   -0.3881 H   0  0  0  0  0  0  0  0  0  0  0  0
    0.8100   -3.0727   -0.0988 H   0  0  0  0  0  0  0  0  0  0  0  0
    1.3933   -3.1904    3.3631 H   0  0  0  0  0  0  0  0  0  0  0  0
  1  2  1  0  0  0  0 
  2  3  1  0  0  0  0 
  2  4  1  0  0  0  0 
  4  5  1  0  0  0  0 
  5  6  1  0  0  0  0 
  6  7  1  0  0  0  0 
  6  8  1  0  0  0  0 
  8  9  1  0  0  0  0 
  8 10  2  0  0  0  0 
  1 11  1  0  0  0  0 
  1 12  1  0  0  0  0 
  1 13  1  0  0  0  0 
  3 14  1  0  0  0  0 
  3 15  1  0  0  0  0 
  3 16  1  0  0  0  0 
  4 17  1  0  0  0  0 
  4 18  1  0  0  0  0 
  5 19  1  0  0  0  0 
  5 20  1  0  0  0  0 
  6 21  1  0  0  0  0 
  7 22  1  0  0  0  0 
  7 23  1  0  0  0  0 
  9 24  1  0  0  0  0 
M  CHG  1   2   1
M  END
> <cdk:Title>
methiosulfonium chloride

> <Conformer>
1

> <SuperDrugID>
SD002893

$$$$
