zuclopenthixol
  CDK     0628171801

 52 55  0  0  0  0  0  0  0  0999 V2000
    4.9168    9.6676   -1.9585 O   0  0  0  0  0  0  0  0  0  0  0  0
    4.3564    8.4751   -2.4964 C   0  0  2  0  0  0  0  0  0  0  0  0
    2.9695    8.1840   -1.8739 C   0  0  2  0  0  0  0  0  0  0  0  0
    2.1962    7.1177   -2.5944 N   0  0  1  0  0  0  0  0  0  0  0  0
    2.8060    5.7502   -2.5364 C   0  0  2  0  0  0  0  0  0  0  0  0
    1.9908    4.7295   -3.3710 C   0  0  2  0  0  0  0  0  0  0  0  0
    0.5559    4.7216   -2.9474 N   0  0  2  0  0  0  0  0  0  0  0  0
   -0.2804    3.6695   -3.6079 C   0  0  2  0  0  0  0  0  0  0  0  0
   -0.0198    2.2368   -3.0727 C   0  0  1  0  0  0  0  0  0  0  0  0
   -0.0493    2.0946   -1.6157 C   0  0  0  0  0  0  0  0  0  0  0  0
    0.5348    1.1105   -0.8833 C   0  0  0  0  0  0  0  0  0  0  0  0
    0.5216    1.1815    0.5295 C   0  0  0  0  0  0  0  0  0  0  0  0
   -0.6614    1.4807    1.2542 C   0  0  0  0  0  0  0  0  0  0  0  0
   -0.6430    1.5884    2.6579 C   0  0  0  0  0  0  0  0  0  0  0  0
    0.5539    1.3862    3.3680 C   0  0  0  0  0  0  0  0  0  0  0  0
    1.7331    1.0651    2.6747 C   0  0  0  0  0  0  0  0  0  0  0  0
    1.7141    0.9561    1.2706 C   0  0  0  0  0  0  0  0  0  0  0  0
    3.1909    0.4966    0.4204 S   0  0  0  0  0  0  0  0  0  0  0  0
    2.5523   -0.2850   -1.0253 C   0  0  0  0  0  0  0  0  0  0  0  0
    3.3193   -1.2684   -1.6785 C   0  0  0  0  0  0  0  0  0  0  0  0
    2.7811   -1.9625   -2.7758 C   0  0  0  0  0  0  0  0  0  0  0  0
    1.4631   -1.7013   -3.1953 C   0  0  0  0  0  0  0  0  0  0  0  0
    0.7949   -2.5481   -4.5006 Cl  0  0  0  0  0  0  0  0  0  0  0  0
    0.6965   -0.7258   -2.5298 C   0  0  0  0  0  0  0  0  0  0  0  0
    1.2486    0.0482   -1.4783 C   0  0  0  0  0  0  0  0  0  0  0  0
   -0.0433    6.0861   -3.0387 C   0  0  1  0  0  0  0  0  0  0  0  0
    0.7600    7.0862   -2.1763 C   0  0  2  0  0  0  0  0  0  0  0  0
    5.7894    9.7539   -2.3993 H   0  0  0  0  0  0  0  0  0  0  0  0
    5.0454    7.6565   -2.2846 H   0  0  0  0  0  0  0  0  0  0  0  0
    4.2620    8.5892   -3.5783 H   0  0  0  0  0  0  0  0  0  0  0  0
    2.4071    9.1235   -1.9130 H   0  0  0  0  0  0  0  0  0  0  0  0
    3.0952    7.9185   -0.8181 H   0  0  0  0  0  0  0  0  0  0  0  0
    2.8625    5.4022   -1.4997 H   0  0  0  0  0  0  0  0  0  0  0  0
    3.8191    5.7675   -2.9440 H   0  0  0  0  0  0  0  0  0  0  0  0
    2.4393    3.7438   -3.2264 H   0  0  0  0  0  0  0  0  0  0  0  0
    2.0754    4.9852   -4.4327 H   0  0  0  0  0  0  0  0  0  0  0  0
   -0.1184    3.6770   -4.6904 H   0  0  0  0  0  0  0  0  0  0  0  0
   -1.3422    3.8742   -3.4456 H   0  0  0  0  0  0  0  0  0  0  0  0
   -0.7854    1.5865   -3.5019 H   0  0  0  0  0  0  0  0  0  0  0  0
    0.9457    1.9079   -3.4629 H   0  0  0  0  0  0  0  0  0  0  0  0
   -0.5369    2.8139   -1.1325 H   0  0  0  0  0  0  0  0  0  0  0  0
   -1.5497    1.6198    0.7650 H   0  0  0  0  0  0  0  0  0  0  0  0
   -1.5015    1.8183    3.1628 H   0  0  0  0  0  0  0  0  0  0  0  0
    0.5651    1.4701    4.3860 H   0  0  0  0  0  0  0  0  0  0  0  0
    2.6005    0.9087    3.1974 H   0  0  0  0  0  0  0  0  0  0  0  0
    4.2644   -1.4903   -1.3545 H   0  0  0  0  0  0  0  0  0  0  0  0
    3.3484   -2.6661   -3.2552 H   0  0  0  0  0  0  0  0  0  0  0  0
   -0.2742   -0.5806   -2.8189 H   0  0  0  0  0  0  0  0  0  0  0  0
   -0.0635    6.4283   -4.0785 H   0  0  0  0  0  0  0  0  0  0  0  0
   -1.0684    6.0770   -2.6614 H   0  0  0  0  0  0  0  0  0  0  0  0
    0.3044    8.0732   -2.2965 H   0  0  0  0  0  0  0  0  0  0  0  0
    0.6799    6.7984   -1.1224 H   0  0  0  0  0  0  0  0  0  0  0  0
  1  2  1  0  0  0  0 
  2  3  1  0  0  0  0 
  3  4  1  0  0  0  0 
  4  5  1  0  0  0  0 
  5  6  1  0  0  0  0 
  6  7  1  0  0  0  0 
  7  8  1  0  0  0  0 
  8  9  1  0  0  0  0 
  9 10  1  0  0  0  0 
 10 11  2  0  0  0  0 
 11 12  1  0  0  0  0 
 12 13  2  0  0  0  0 
 13 14  1  0  0  0  0 
 14 15  2  0  0  0  0 
 15 16  1  0  0  0  0 
 16 17  2  0  0  0  0 
 12 17  1  0  0  0  0 
 17 18  1  0  0  0  0 
 18 19  1  0  0  0  0 
 19 20  2  0  0  0  0 
 20 21  1  0  0  0  0 
 21 22  2  0  0  0  0 
 22 23  1  0  0  0  0 
 22 24  1  0  0  0  0 
 24 25  2  0  0  0  0 
 11 25  1  0  0  0  0 
 19 25  1  0  0  0  0 
  7 26  1  0  0  0  0 
 26 27  1  0  0  0  0 
  4 27  1  0  0  0  0 
  1 28  1  0  0  0  0 
  2 29  1  0  0  0  0 
  2 30  1  0  0  0  0 
  3 31  1  0  0  0  0 
  3 32  1  0  0  0  0 
  5 33  1  0  0  0  0 
  5 34  1  0  0  0  0 
  6 35  1  0  0  0  0 
  6 36  1  0  0  0  0 
  8 37  1  0  0  0  0 
  8 38  1  0  0  0  0 
  9 39  1  0  0  0  0 
  9 40  1  0  0  0  0 
 10 41  1  0  0  0  0 
 13 42  1  0  0  0  0 
 14 43  1  0  0  0  0 
 15 44  1  0  0  0  0 
 16 45  1  0  0  0  0 
 20 46  1  0  0  0  0 
 21 47  1  0  0  0  0 
 24 48  1  0  0  0  0 
 26 49  1  0  0  0  0 
 26 50  1  0  0  0  0 
 27 51  1  0  0  0  0 
 27 52  1  0  0  0  0 
M  END
> <cdk:Title>
zuclopenthixol

> <Conformer>
1

> <SuperDrugID>
SD002593

$$$$
