oxacillin
  CDK     0628171801

 47 50  0  0  0  0  0  0  0  0999 V2000
   -5.0914    0.4877   -3.6342 C   0  0  0  0  0  0  0  0  0  0  0  0
   -6.2753    0.8581   -4.1753 O   0  0  0  0  0  0  0  0  0  0  0  0
   -4.0484    0.7770   -4.2634 O   0  0  0  0  0  0  0  0  0  0  0  0
   -5.0524   -0.2438   -2.3419 C   0  0  2  0  0  0  0  0  0  0  0  0
   -4.1963    0.4309   -1.4280 N   0  0  0  0  0  0  0  0  0  0  0  0
   -4.4428   -1.7013   -2.3352 C   0  0  2  0  0  0  0  0  0  0  0  0
   -2.7940    0.3068   -1.3645 C   0  0  2  0  0  0  0  0  0  0  0  0
   -4.3434    1.0370   -0.2523 C   0  0  0  0  0  0  0  0  0  0  0  0
   -2.7442   -1.4916   -1.6486 S   0  0  0  0  0  0  0  0  0  0  0  0
   -2.9134    0.9722    0.0435 C   0  0  1  0  0  0  0  0  0  0  0  0
   -5.3370    1.4125    0.4090 O   0  0  0  0  0  0  0  0  0  0  0  0
   -2.6104    0.1539    1.1724 N   0  0  0  0  0  0  0  0  0  0  0  0
   -1.3865    0.0742    1.7537 C   0  0  0  0  0  0  0  0  0  0  0  0
   -0.4035    0.6499    1.2309 O   0  0  0  0  0  0  0  0  0  0  0  0
   -1.1989   -0.6605    2.9460 C   0  0  0  0  0  0  0  0  0  0  0  0
   -2.1063   -0.8782    3.9900 C   0  0  0  0  0  0  0  0  0  0  0  0
   -0.0486   -1.3562    3.3316 C   0  0  0  0  0  0  0  0  0  0  0  0
   -1.4989   -1.6583    4.9025 N   0  0  0  0  0  0  0  0  0  0  0  0
   -3.4292   -0.4024    4.1744 C   0  0  0  0  0  0  0  0  0  0  0  0
    1.2235   -1.5000    2.6063 C   0  0  0  0  0  0  0  0  0  0  0  0
   -0.2871   -1.9437    4.5235 O   0  0  0  0  0  0  0  0  0  0  0  0
   -4.4244   -1.2899    4.6478 C   0  0  0  0  0  0  0  0  0  0  0  0
   -3.7824    0.9494    3.9435 C   0  0  0  0  0  0  0  0  0  0  0  0
   -5.7358   -0.8428    4.8852 C   0  0  0  0  0  0  0  0  0  0  0  0
   -5.0932    1.4004    4.1924 C   0  0  0  0  0  0  0  0  0  0  0  0
   -6.0681    0.5044    4.6651 C   0  0  0  0  0  0  0  0  0  0  0  0
   -2.2931    0.9090   -2.1275 H   0  0  0  0  0  0  0  0  0  0  0  0
   -4.3516   -2.3935   -3.7282 C   0  0  0  0  0  0  0  0  0  0  0  0
   -5.2260   -2.6224   -1.3493 C   0  0  0  0  0  0  0  0  0  0  0  0
   -6.2988    1.3247   -5.0357 H   0  0  0  0  0  0  0  0  0  0  0  0
   -6.0728   -0.2520   -1.9447 H   0  0  0  0  0  0  0  0  0  0  0  0
   -2.4738    1.9722    0.0922 H   0  0  0  0  0  0  0  0  0  0  0  0
   -3.3271   -0.3759    1.5555 H   0  0  0  0  0  0  0  0  0  0  0  0
    1.7230   -0.5343    2.5263 H   0  0  0  0  0  0  0  0  0  0  0  0
    1.8805   -2.1916    3.1357 H   0  0  0  0  0  0  0  0  0  0  0  0
    1.0322   -1.8981    1.6106 H   0  0  0  0  0  0  0  0  0  0  0  0
   -4.2041   -2.2734    4.8207 H   0  0  0  0  0  0  0  0  0  0  0  0
   -3.0876    1.6224    3.6094 H   0  0  0  0  0  0  0  0  0  0  0  0
   -6.4462   -1.4988    5.2167 H   0  0  0  0  0  0  0  0  0  0  0  0
   -5.3371    2.3823    4.0376 H   0  0  0  0  0  0  0  0  0  0  0  0
   -7.0173    0.8321    4.8514 H   0  0  0  0  0  0  0  0  0  0  0  0
   -3.9574   -3.4086   -3.6373 H   0  0  0  0  0  0  0  0  0  0  0  0
   -5.3417   -2.4478   -4.1835 H   0  0  0  0  0  0  0  0  0  0  0  0
   -3.6904   -1.8425   -4.3989 H   0  0  0  0  0  0  0  0  0  0  0  0
   -4.7826   -3.6204   -1.3046 H   0  0  0  0  0  0  0  0  0  0  0  0
   -6.2632   -2.7260   -1.6751 H   0  0  0  0  0  0  0  0  0  0  0  0
   -5.2251   -2.2038   -0.3396 H   0  0  0  0  0  0  0  0  0  0  0  0
  1  2  1  0  0  0  0 
  1  3  2  0  0  0  0 
  4  1  1  0  0  0  0 
  4  5  1  0  0  0  0 
  4  6  1  0  0  0  0 
  7  5  1  0  0  0  0 
  5  8  1  0  0  0  0 
  6  9  1  0  0  0  0 
  7  9  1  0  0  0  0 
 10  7  1  0  0  0  0 
  7 27  1  0  0  0  0 
 10  8  1  0  0  0  0 
  8 11  2  0  0  0  0 
 10 12  1  0  0  0  0 
 12 13  1  0  0  0  0 
 13 14  2  0  0  0  0 
 13 15  1  0  0  0  0 
 15 16  1  0  0  0  0 
 15 17  2  0  0  0  0 
 16 18  2  0  0  0  0 
 16 19  1  0  0  0  0 
 17 20  1  0  0  0  0 
 17 21  1  0  0  0  0 
 18 21  1  0  0  0  0 
 19 22  2  0  0  0  0 
 19 23  1  0  0  0  0 
 22 24  1  0  0  0  0 
 23 25  2  0  0  0  0 
 24 26  2  0  0  0  0 
 25 26  1  0  0  0  0 
  6 28  1  0  0  0  0 
  6 29  1  0  0  0  0 
  2 30  1  0  0  0  0 
  4 31  1  0  0  0  0 
 10 32  1  0  0  0  0 
 12 33  1  0  0  0  0 
 20 34  1  0  0  0  0 
 20 35  1  0  0  0  0 
 20 36  1  0  0  0  0 
 22 37  1  0  0  0  0 
 23 38  1  0  0  0  0 
 24 39  1  0  0  0  0 
 25 40  1  0  0  0  0 
 26 41  1  0  0  0  0 
 28 42  1  0  0  0  0 
 28 43  1  0  0  0  0 
 28 44  1  0  0  0  0 
 29 45  1  0  0  0  0 
 29 46  1  0  0  0  0 
 29 47  1  0  0  0  0 
M  END
> <cdk:Title>
oxacillin

> <Conformer>
1

> <SuperDrugID>
SD001795

$$$$
