troxipide
  CDK     0628171801

 43 44  0  0  0  0  0  0  0  0999 V2000
    1.5707   -2.6332   -1.6413 C   0  0  0  0  0  0  0  0  0  0  0  0
    0.6363   -2.0490   -0.8259 N   0  0  0  0  0  0  0  0  0  0  0  0
    1.4477   -2.4895   -2.8831 O   0  0  0  0  0  0  0  0  0  0  0  0
    2.6895   -3.3649   -1.1325 C   0  0  0  0  0  0  0  0  0  0  0  0
   -0.4329   -1.1999   -1.2690 C   0  0  1  0  0  0  0  0  0  0  0  0
    2.8818   -3.5697    0.2554 C   0  0  0  0  0  0  0  0  0  0  0  0
    3.6716   -3.8882   -2.0114 C   0  0  0  0  0  0  0  0  0  0  0  0
   -1.5808   -1.1571   -0.2197 C   0  0  2  0  0  0  0  0  0  0  0  0
    0.0970    0.2402   -1.5336 C   0  0  1  0  0  0  0  0  0  0  0  0
    4.0260   -4.2287    0.7517 C   0  0  0  0  0  0  0  0  0  0  0  0
    4.8190   -4.5514   -1.5315 C   0  0  0  0  0  0  0  0  0  0  0  0
   -2.6890   -0.1557   -0.6443 C   0  0  2  0  0  0  0  0  0  0  0  0
   -0.9997    1.1455   -1.9528 N   0  0  1  0  0  0  0  0  0  0  0  0
    4.1813   -4.3971    2.1009 O   0  0  0  0  0  0  0  0  0  0  0  0
    5.0181   -4.6868   -0.1413 C   0  0  0  0  0  0  0  0  0  0  0  0
    5.7473   -5.0359   -2.4129 O   0  0  0  0  0  0  0  0  0  0  0  0
   -2.0921    1.2401   -0.9537 C   0  0  2  0  0  0  0  0  0  0  0  0
    3.5901   -5.6192    2.5770 C   0  0  0  0  0  0  0  0  0  0  0  0
    6.1559   -5.2843    0.3373 O   0  0  0  0  0  0  0  0  0  0  0  0
    5.4370   -6.3639   -2.8721 C   0  0  0  0  0  0  0  0  0  0  0  0
    7.2315   -4.3540    0.5646 C   0  0  0  0  0  0  0  0  0  0  0  0
    0.7257   -2.1773    0.1314 H   0  0  0  0  0  0  0  0  0  0  0  0
   -0.8569   -1.6050   -2.1949 H   0  0  0  0  0  0  0  0  0  0  0  0
    2.1914   -3.2400    0.9318 H   0  0  0  0  0  0  0  0  0  0  0  0
    3.5673   -3.7903   -3.0242 H   0  0  0  0  0  0  0  0  0  0  0  0
   -1.1845   -0.8630    0.7572 H   0  0  0  0  0  0  0  0  0  0  0  0
   -2.0192   -2.1534   -0.1115 H   0  0  0  0  0  0  0  0  0  0  0  0
    0.5864    0.6418   -0.6388 H   0  0  0  0  0  0  0  0  0  0  0  0
    0.8393    0.2169   -2.3336 H   0  0  0  0  0  0  0  0  0  0  0  0
   -3.4322   -0.0696    0.1522 H   0  0  0  0  0  0  0  0  0  0  0  0
   -3.1973   -0.5320   -1.5359 H   0  0  0  0  0  0  0  0  0  0  0  0
   -0.5964    2.0806   -2.0625 H   0  0  0  0  0  0  0  0  0  0  0  0
   -1.7143    1.6966   -0.0350 H   0  0  0  0  0  0  0  0  0  0  0  0
   -2.8732    1.8889   -1.3553 H   0  0  0  0  0  0  0  0  0  0  0  0
    3.7716   -5.6844    3.6493 H   0  0  0  0  0  0  0  0  0  0  0  0
    2.5089   -5.6327    2.4148 H   0  0  0  0  0  0  0  0  0  0  0  0
    4.0421   -6.4930    2.1001 H   0  0  0  0  0  0  0  0  0  0  0  0
    6.2156   -6.6672   -3.5714 H   0  0  0  0  0  0  0  0  0  0  0  0
    5.4213   -7.0799   -2.0461 H   0  0  0  0  0  0  0  0  0  0  0  0
    4.4789   -6.3931   -3.3981 H   0  0  0  0  0  0  0  0  0  0  0  0
    8.0911   -4.9156    0.9291 H   0  0  0  0  0  0  0  0  0  0  0  0
    7.5247   -3.8471   -0.3577 H   0  0  0  0  0  0  0  0  0  0  0  0
    6.9682   -3.6102    1.3205 H   0  0  0  0  0  0  0  0  0  0  0  0
  1  2  1  0  0  0  0 
  1  3  2  0  0  0  0 
  1  4  1  0  0  0  0 
  5  2  1  0  0  0  0 
  4  6  2  0  0  0  0 
  4  7  1  0  0  0  0 
  5  8  1  0  0  0  0 
  5  9  1  0  0  0  0 
  6 10  1  0  0  0  0 
  7 11  2  0  0  0  0 
  8 12  1  0  0  0  0 
  9 13  1  0  0  0  0 
 10 14  1  0  0  0  0 
 10 15  2  0  0  0  0 
 11 15  1  0  0  0  0 
 11 16  1  0  0  0  0 
 12 17  1  0  0  0  0 
 13 17  1  0  0  0  0 
 14 18  1  0  0  0  0 
 15 19  1  0  0  0  0 
 16 20  1  0  0  0  0 
 19 21  1  0  0  0  0 
  2 22  1  0  0  0  0 
  5 23  1  0  0  0  0 
  6 24  1  0  0  0  0 
  7 25  1  0  0  0  0 
  8 26  1  0  0  0  0 
  8 27  1  0  0  0  0 
  9 28  1  0  0  0  0 
  9 29  1  0  0  0  0 
 12 30  1  0  0  0  0 
 12 31  1  0  0  0  0 
 13 32  1  0  0  0  0 
 17 33  1  0  0  0  0 
 17 34  1  0  0  0  0 
 18 35  1  0  0  0  0 
 18 36  1  0  0  0  0 
 18 37  1  0  0  0  0 
 20 38  1  0  0  0  0 
 20 39  1  0  0  0  0 
 20 40  1  0  0  0  0 
 21 41  1  0  0  0  0 
 21 42  1  0  0  0  0 
 21 43  1  0  0  0  0 
M  END
> <cdk:Title>
troxipide

> <Conformer>
1

> <SuperDrugID>
SD002508

$$$$
