phenylbutazone
  CDK     0628171801

 43 45  0  0  0  0  0  0  0  0999 V2000
   -0.3319    1.5793   -2.9098 O   0  0  0  0  0  0  0  0  0  0  0  0
    0.2803    0.3827   -3.0944 C   0  0  0  0  0  0  0  0  0  0  0  0
   -0.1247   -0.6087   -3.9179 N   0  0  0  0  0  0  0  0  0  0  0  0
    1.4542   -0.0182   -2.4711 C   0  0  0  0  0  0  0  0  0  0  0  0
    0.7253   -1.6090   -3.8423 N   0  0  0  0  0  0  0  0  0  0  0  0
   -1.2304   -0.5300   -4.7255 C   0  0  0  0  0  0  0  0  0  0  0  0
    2.2341    0.7290   -1.4578 C   0  0  2  0  0  0  0  0  0  0  0  0
    1.7053   -1.2907   -2.9680 C   0  0  0  0  0  0  0  0  0  0  0  0
    0.6456   -2.8036   -4.5122 C   0  0  0  0  0  0  0  0  0  0  0  0
   -1.0933   -0.6479   -6.1269 C   0  0  0  0  0  0  0  0  0  0  0  0
   -2.5218   -0.3623   -4.1745 C   0  0  0  0  0  0  0  0  0  0  0  0
    1.7053    0.4208   -0.0329 C   0  0  2  0  0  0  0  0  0  0  0  0
    2.6680   -2.0193   -2.6302 O   0  0  0  0  0  0  0  0  0  0  0  0
   -0.4914   -3.6317   -4.3750 C   0  0  0  0  0  0  0  0  0  0  0  0
    1.6900   -3.2128   -5.3740 C   0  0  0  0  0  0  0  0  0  0  0  0
   -2.2244   -0.6193   -6.9614 C   0  0  0  0  0  0  0  0  0  0  0  0
   -3.6544   -0.3318   -5.0090 C   0  0  0  0  0  0  0  0  0  0  0  0
    2.4871    1.1719    1.0750 C   0  0  2  0  0  0  0  0  0  0  0  0
   -0.5955   -4.8312   -5.1031 C   0  0  0  0  0  0  0  0  0  0  0  0
    1.5874   -4.4129   -6.1014 C   0  0  0  0  0  0  0  0  0  0  0  0
   -3.5049   -0.4647   -6.4011 C   0  0  0  0  0  0  0  0  0  0  0  0
    1.9568    0.8610    2.4929 C   0  0  0  0  0  0  0  0  0  0  0  0
    0.4425   -5.2180   -5.9697 C   0  0  0  0  0  0  0  0  0  0  0  0
   -1.0009    1.4110   -2.2136 H   0  0  0  0  0  0  0  0  0  0  0  0
    2.1601    1.8032   -1.6536 H   0  0  0  0  0  0  0  0  0  0  0  0
    3.2892    0.4516   -1.5267 H   0  0  0  0  0  0  0  0  0  0  0  0
   -0.1662   -0.7528   -6.5454 H   0  0  0  0  0  0  0  0  0  0  0  0
   -2.6446   -0.2722   -3.1630 H   0  0  0  0  0  0  0  0  0  0  0  0
    1.7829   -0.6569    0.1498 H   0  0  0  0  0  0  0  0  0  0  0  0
    0.6496    0.7050    0.0249 H   0  0  0  0  0  0  0  0  0  0  0  0
   -1.2486   -3.3652   -3.7409 H   0  0  0  0  0  0  0  0  0  0  0  0
    2.5254   -2.6324   -5.4832 H   0  0  0  0  0  0  0  0  0  0  0  0
   -2.1138   -0.7108   -7.9755 H   0  0  0  0  0  0  0  0  0  0  0  0
   -4.5871   -0.2164   -4.6026 H   0  0  0  0  0  0  0  0  0  0  0  0
    2.4127    2.2504    0.9044 H   0  0  0  0  0  0  0  0  0  0  0  0
    3.5435    0.8903    1.0293 H   0  0  0  0  0  0  0  0  0  0  0  0
   -1.4249   -5.4201   -5.0010 H   0  0  0  0  0  0  0  0  0  0  0  0
    2.3449   -4.6959   -6.7277 H   0  0  0  0  0  0  0  0  0  0  0  0
   -4.3272   -0.4470   -7.0078 H   0  0  0  0  0  0  0  0  0  0  0  0
    2.5417    1.4155    3.2298 H   0  0  0  0  0  0  0  0  0  0  0  0
    2.0445   -0.2070    2.7082 H   0  0  0  0  0  0  0  0  0  0  0  0
    0.9086    1.1579    2.5829 H   0  0  0  0  0  0  0  0  0  0  0  0
    0.3664   -6.0862   -6.4999 H   0  0  0  0  0  0  0  0  0  0  0  0
  1  2  1  0  0  0  0 
  2  3  1  0  0  0  0 
  2  4  2  0  0  0  0 
  3  5  1  0  0  0  0 
  3  6  1  0  0  0  0 
  4  7  1  0  0  0  0 
  4  8  1  0  0  0  0 
  5  8  1  0  0  0  0 
  5  9  1  0  0  0  0 
  6 10  2  0  0  0  0 
  6 11  1  0  0  0  0 
  7 12  1  0  0  0  0 
  8 13  2  0  0  0  0 
  9 14  2  0  0  0  0 
  9 15  1  0  0  0  0 
 10 16  1  0  0  0  0 
 11 17  2  0  0  0  0 
 12 18  1  0  0  0  0 
 14 19  1  0  0  0  0 
 15 20  2  0  0  0  0 
 16 21  2  0  0  0  0 
 17 21  1  0  0  0  0 
 18 22  1  0  0  0  0 
 19 23  2  0  0  0  0 
 20 23  1  0  0  0  0 
 24  1  1  0  0  0  0 
 25  7  1  0  0  0  0 
 26  7  1  0  0  0  0 
 27 10  1  0  0  0  0 
 28 11  1  0  0  0  0 
 29 12  1  0  0  0  0 
 30 12  1  0  0  0  0 
 31 14  1  0  0  0  0 
 32 15  1  0  0  0  0 
 33 16  1  0  0  0  0 
 34 17  1  0  0  0  0 
 35 18  1  0  0  0  0 
 36 18  1  0  0  0  0 
 37 19  1  0  0  0  0 
 38 20  1  0  0  0  0 
 39 21  1  0  0  0  0 
 40 22  1  0  0  0  0 
 41 22  1  0  0  0  0 
 42 22  1  0  0  0  0 
 43 23  1  0  0  0  0 
M  END
> <cdk:Title>
phenylbutazone

> <Conformer>
1

> <SuperDrugID>
SD001925

$$$$
