bisoxatin acetate
  CDK     0628171801

 50 53  0  0  0  0  0  0  0  0999 V2000
    2.4484    5.0649   -3.6106 O   0  0  0  0  0  0  0  0  0  0  0  0
    2.8487    5.2731   -2.4410 C   0  0  0  0  0  0  0  0  0  0  0  0
    2.6638    6.6042   -1.7627 C   0  0  1  0  0  0  0  0  0  0  0  0
    3.4297    4.2304   -1.8067 N   0  0  0  0  0  0  0  0  0  0  0  0
    3.3200    6.6692   -0.4525 O   0  0  0  0  0  0  0  0  0  0  0  0
    3.2959    7.7770   -2.4915 C   0  0  0  0  0  0  0  0  0  0  0  0
    1.1641    6.7624   -1.6290 C   0  0  0  0  0  0  0  0  0  0  0  0
    3.8319    4.2927   -0.5181 C   0  0  0  0  0  0  0  0  0  0  0  0
    3.7523    5.5203    0.1784 C   0  0  0  0  0  0  0  0  0  0  0  0
    3.0450    9.0967   -2.0341 C   0  0  0  0  0  0  0  0  0  0  0  0
    4.1365    7.6517   -3.6312 C   0  0  0  0  0  0  0  0  0  0  0  0
    0.4768    6.4689   -0.4232 C   0  0  0  0  0  0  0  0  0  0  0  0
    0.3742    7.1749   -2.7341 C   0  0  0  0  0  0  0  0  0  0  0  0
    4.3204    3.1393    0.1275 C   0  0  0  0  0  0  0  0  0  0  0  0
    4.1515    5.5763    1.5305 C   0  0  0  0  0  0  0  0  0  0  0  0
    3.5543   10.2269   -2.7025 C   0  0  0  0  0  0  0  0  0  0  0  0
    4.6351    8.7806   -4.3097 C   0  0  0  0  0  0  0  0  0  0  0  0
   -0.9240    6.5894   -0.3288 C   0  0  0  0  0  0  0  0  0  0  0  0
   -1.0224    7.3033   -2.6381 C   0  0  0  0  0  0  0  0  0  0  0  0
    4.7280    3.2063    1.4719 C   0  0  0  0  0  0  0  0  0  0  0  0
    4.6419    4.4227    2.1742 C   0  0  0  0  0  0  0  0  0  0  0  0
    4.3396   10.0828   -3.8666 C   0  0  0  0  0  0  0  0  0  0  0  0
   -1.6922    7.0186   -1.4290 C   0  0  0  0  0  0  0  0  0  0  0  0
    4.8264   11.1100   -4.6363 O   0  0  0  0  0  0  0  0  0  0  0  0
   -3.0480    7.1391   -1.2289 O   0  0  0  0  0  0  0  0  0  0  0  0
    4.8240   12.4699   -4.4928 C   0  0  0  0  0  0  0  0  0  0  0  0
   -4.0901    7.5023   -2.0464 C   0  0  0  0  0  0  0  0  0  0  0  0
    5.3680   13.2792   -5.5924 C   0  0  0  0  0  0  0  0  0  0  0  0
    4.4048   13.0480   -3.4643 O   0  0  0  0  0  0  0  0  0  0  0  0
   -5.4472    7.5848   -1.4894 C   0  0  0  0  0  0  0  0  0  0  0  0
   -3.9550    7.7666   -3.2633 O   0  0  0  0  0  0  0  0  0  0  0  0
    3.5454    3.4000   -2.2923 H   0  0  0  0  0  0  0  0  0  0  0  0
    2.4650    9.2467   -1.2051 H   0  0  0  0  0  0  0  0  0  0  0  0
    4.3996    6.7355   -3.9982 H   0  0  0  0  0  0  0  0  0  0  0  0
    0.9841    6.1501    0.4036 H   0  0  0  0  0  0  0  0  0  0  0  0
    0.8125    7.3875   -3.6336 H   0  0  0  0  0  0  0  0  0  0  0  0
    4.3811    2.2505   -0.3762 H   0  0  0  0  0  0  0  0  0  0  0  0
    4.0905    6.4543    2.0511 H   0  0  0  0  0  0  0  0  0  0  0  0
    3.3256   11.1497   -2.3353 H   0  0  0  0  0  0  0  0  0  0  0  0
    5.2141    8.6469   -5.1442 H   0  0  0  0  0  0  0  0  0  0  0  0
   -1.3909    6.3609    0.5530 H   0  0  0  0  0  0  0  0  0  0  0  0
   -1.5345    7.6079   -3.4648 H   0  0  0  0  0  0  0  0  0  0  0  0
    5.0842    2.3688    1.9390 H   0  0  0  0  0  0  0  0  0  0  0  0
    4.9355    4.4636    3.1542 H   0  0  0  0  0  0  0  0  0  0  0  0
    5.4082   14.3360   -5.3259 H   0  0  0  0  0  0  0  0  0  0  0  0
    6.3780   12.9429   -5.8276 H   0  0  0  0  0  0  0  0  0  0  0  0
    4.7422   13.1688   -6.4768 H   0  0  0  0  0  0  0  0  0  0  0  0
   -5.8534    8.5832   -1.6594 H   0  0  0  0  0  0  0  0  0  0  0  0
   -5.4394    7.3878   -0.4153 H   0  0  0  0  0  0  0  0  0  0  0  0
   -6.0916    6.8516   -1.9789 H   0  0  0  0  0  0  0  0  0  0  0  0
  1  2  2  0  0  0  0 
  2  3  1  0  0  0  0 
  2  4  1  0  0  0  0 
  3  5  1  0  0  0  0 
  3  6  1  0  0  0  0 
  3  7  1  0  0  0  0 
  4  8  1  0  0  0  0 
  5  9  1  0  0  0  0 
  6 10  2  0  0  0  0 
  6 11  1  0  0  0  0 
  7 12  2  0  0  0  0 
  7 13  1  0  0  0  0 
  8  9  2  0  0  0  0 
  8 14  1  0  0  0  0 
  9 15  1  0  0  0  0 
 10 16  1  0  0  0  0 
 11 17  2  0  0  0  0 
 12 18  1  0  0  0  0 
 13 19  2  0  0  0  0 
 14 20  2  0  0  0  0 
 15 21  2  0  0  0  0 
 16 22  2  0  0  0  0 
 17 22  1  0  0  0  0 
 18 23  2  0  0  0  0 
 19 23  1  0  0  0  0 
 20 21  1  0  0  0  0 
 22 24  1  0  0  0  0 
 23 25  1  0  0  0  0 
 24 26  1  0  0  0  0 
 25 27  1  0  0  0  0 
 26 28  1  0  0  0  0 
 26 29  2  0  0  0  0 
 27 30  1  0  0  0  0 
 27 31  2  0  0  0  0 
  4 32  1  0  0  0  0 
 10 33  1  0  0  0  0 
 11 34  1  0  0  0  0 
 12 35  1  0  0  0  0 
 13 36  1  0  0  0  0 
 14 37  1  0  0  0  0 
 15 38  1  0  0  0  0 
 16 39  1  0  0  0  0 
 17 40  1  0  0  0  0 
 18 41  1  0  0  0  0 
 19 42  1  0  0  0  0 
 20 43  1  0  0  0  0 
 21 44  1  0  0  0  0 
 28 45  1  0  0  0  0 
 28 46  1  0  0  0  0 
 28 47  1  0  0  0  0 
 30 48  1  0  0  0  0 
 30 49  1  0  0  0  0 
 30 50  1  0  0  0  0 
M  END
> <cdk:Title>
bisoxatin acetate

> <Conformer>
1

> <SuperDrugID>
SD000326

$$$$
