tigloidine
  CDK     0628171801

 37 38  0  0  0  0  0  0  0  0999 V2000
   -0.4792   -3.0230   -0.3703 C   0  0  0  0  0  0  0  0  0  0  0  0
   -0.3195   -1.7387    0.2900 C   0  0  0  0  0  0  0  0  0  0  0  0
   -1.3097   -0.8566    0.5801 C   0  0  0  0  0  0  0  0  0  0  0  0
   -2.6995   -1.1778    0.2301 C   0  0  0  0  0  0  0  0  0  0  0  0
   -1.0128    0.3629    1.2187 C   0  0  0  0  0  0  0  0  0  0  0  0
    0.1727    0.7482    1.3650 O   0  0  0  0  0  0  0  0  0  0  0  0
   -2.0077    1.1858    1.6848 O   0  0  0  0  0  0  0  0  0  0  0  0
   -1.8640    2.4268    2.4001 C   0  0  1  0  0  0  0  0  0  0  0  0
   -3.2489    3.1424    2.4677 C   0  0  2  0  0  0  0  0  0  0  0  0
   -3.3110    4.2260    3.5926 C   0  0  2  0  0  0  0  0  0  0  0  0
   -2.2180    5.3200    3.4669 C   0  0  2  0  0  0  0  0  0  0  0  0
   -1.0183    4.7513    4.2608 C   0  0  2  0  0  0  0  0  0  0  0  0
   -1.5229    3.3830    4.7931 C   0  0  2  0  0  0  0  0  0  0  0  0
   -1.2416    2.1980    3.8164 C   0  0  1  0  0  0  0  0  0  0  0  0
   -3.0008    3.5323    4.8710 N   0  0  1  0  0  0  0  0  0  0  0  0
   -3.5140    4.1855    6.1094 C   0  0  0  0  0  0  0  0  0  0  0  0
   -0.8936   -2.8896   -1.3705 H   0  0  0  0  0  0  0  0  0  0  0  0
   -1.1317   -3.6772    0.2102 H   0  0  0  0  0  0  0  0  0  0  0  0
    0.4865   -3.5226   -0.4719 H   0  0  0  0  0  0  0  0  0  0  0  0
    0.6158   -1.5169    0.5467 H   0  0  0  0  0  0  0  0  0  0  0  0
   -2.7844   -1.3479   -0.8447 H   0  0  0  0  0  0  0  0  0  0  0  0
   -3.0149   -2.0803    0.7582 H   0  0  0  0  0  0  0  0  0  0  0  0
   -3.4122   -0.3898    0.4776 H   0  0  0  0  0  0  0  0  0  0  0  0
   -1.1930    3.0747    1.8258 H   0  0  0  0  0  0  0  0  0  0  0  0
   -4.0310    2.4018    2.6541 H   0  0  0  0  0  0  0  0  0  0  0  0
   -3.4662    3.6065    1.5013 H   0  0  0  0  0  0  0  0  0  0  0  0
   -4.3082    4.6757    3.5951 H   0  0  0  0  0  0  0  0  0  0  0  0
   -2.5660    6.2519    3.9235 H   0  0  0  0  0  0  0  0  0  0  0  0
   -1.9592    5.5247    2.4250 H   0  0  0  0  0  0  0  0  0  0  0  0
   -0.7690    5.4113    5.0969 H   0  0  0  0  0  0  0  0  0  0  0  0
   -0.1311    4.6424    3.6321 H   0  0  0  0  0  0  0  0  0  0  0  0
   -1.0763    3.1482    5.7656 H   0  0  0  0  0  0  0  0  0  0  0  0
   -1.6592    1.2873    4.2545 H   0  0  0  0  0  0  0  0  0  0  0  0
   -0.1624    2.0485    3.7237 H   0  0  0  0  0  0  0  0  0  0  0  0
   -3.0640    5.1676    6.2713 H   0  0  0  0  0  0  0  0  0  0  0  0
   -3.2955    3.5523    6.9717 H   0  0  0  0  0  0  0  0  0  0  0  0
   -4.5974    4.3038    6.0458 H   0  0  0  0  0  0  0  0  0  0  0  0
  1  2  1  0  0  0  0 
  2  3  2  0  0  0  0 
  3  4  1  0  0  0  0 
  3  5  1  0  0  0  0 
  5  6  2  0  0  0  0 
  5  7  1  0  0  0  0 
  8  7  1  0  0  0  0 
  8  9  1  0  0  0  0 
  9 10  1  0  0  0  0 
 10 11  1  0  0  0  0 
 11 12  1  0  0  0  0 
 12 13  1  0  0  0  0 
 13 14  1  0  0  0  0 
  8 14  1  0  0  0  0 
 13 15  1  0  0  0  0 
 10 15  1  0  0  0  0 
 15 16  1  0  0  0  0 
  1 17  1  0  0  0  0 
  1 18  1  0  0  0  0 
  1 19  1  0  0  0  0 
  2 20  1  0  0  0  0 
  4 21  1  0  0  0  0 
  4 22  1  0  0  0  0 
  4 23  1  0  0  0  0 
  8 24  1  0  0  0  0 
  9 25  1  0  0  0  0 
  9 26  1  0  0  0  0 
 10 27  1  0  0  0  0 
 11 28  1  0  0  0  0 
 11 29  1  0  0  0  0 
 12 30  1  0  0  0  0 
 12 31  1  0  0  0  0 
 13 32  1  0  0  0  0 
 14 33  1  0  0  0  0 
 14 34  1  0  0  0  0 
 16 35  1  0  0  0  0 
 16 36  1  0  0  0  0 
 16 37  1  0  0  0  0 
M  END
> <cdk:Title>
tigloidine

> <Conformer>
1

> <SuperDrugID>
SD003091

$$$$
