sulfacetamide
  CDK     0628171801

 24 24  0  0  0  0  0  0  0  0999 V2000
   -1.7823   -1.7093    0.1477 S   0  0  1  0  0  0  0  0  0  0  0  0
   -0.0983   -1.4086   -0.0123 N   0  0  0  0  0  0  0  0  0  0  0  0
   -2.4502   -1.6702   -1.3112 O   0  0  0  0  0  0  0  0  0  0  0  0
   -1.9807   -3.1810    0.7568 O   0  0  0  0  0  0  0  0  0  0  0  0
   -2.5345   -0.5187    1.2272 C   0  0  0  0  0  0  0  0  0  0  0  0
    0.4323   -0.1887   -0.2783 C   0  0  0  0  0  0  0  0  0  0  0  0
   -1.8477   -0.0791    2.3787 C   0  0  0  0  0  0  0  0  0  0  0  0
   -3.8150    0.0028    0.9481 C   0  0  0  0  0  0  0  0  0  0  0  0
    1.8936   -0.0375   -0.3376 C   0  0  0  0  0  0  0  0  0  0  0  0
   -0.2955    0.8143   -0.4670 O   0  0  0  0  0  0  0  0  0  0  0  0
   -2.4276    0.8764    3.2330 C   0  0  0  0  0  0  0  0  0  0  0  0
   -4.3988    0.9537    1.8065 C   0  0  0  0  0  0  0  0  0  0  0  0
   -3.7022    1.4037    2.9458 C   0  0  0  0  0  0  0  0  0  0  0  0
   -4.2566    2.3312    3.7537 N   0  0  0  0  0  0  0  0  0  0  0  0
    0.5069   -2.1592    0.0944 H   0  0  0  0  0  0  0  0  0  0  0  0
   -0.9194   -0.4460    2.5984 H   0  0  0  0  0  0  0  0  0  0  0  0
   -4.3297   -0.3017    0.1193 H   0  0  0  0  0  0  0  0  0  0  0  0
    2.1762    1.0054   -0.4918 H   0  0  0  0  0  0  0  0  0  0  0  0
    2.3352   -0.3753    0.6005 H   0  0  0  0  0  0  0  0  0  0  0  0
    2.2939   -0.6338   -1.1585 H   0  0  0  0  0  0  0  0  0  0  0  0
   -1.9177    1.1844    4.0635 H   0  0  0  0  0  0  0  0  0  0  0  0
   -5.3319    1.3152    1.5977 H   0  0  0  0  0  0  0  0  0  0  0  0
   -5.1365    2.6900    3.5524 H   0  0  0  0  0  0  0  0  0  0  0  0
   -3.7793    2.6466    4.5386 H   0  0  0  0  0  0  0  0  0  0  0  0
  1  2  1  0  0  0  0 
  1  3  2  0  0  0  0 
  1  4  2  0  0  0  0 
  1  5  1  0  0  0  0 
  2  6  1  0  0  0  0 
  5  7  2  0  0  0  0 
  5  8  1  0  0  0  0 
  6  9  1  0  0  0  0 
  6 10  2  0  0  0  0 
  7 11  1  0  0  0  0 
  8 12  2  0  0  0  0 
 11 13  2  0  0  0  0 
 12 13  1  0  0  0  0 
 13 14  1  0  0  0  0 
  2 15  1  0  0  0  0 
  7 16  1  0  0  0  0 
  8 17  1  0  0  0  0 
  9 18  1  0  0  0  0 
  9 19  1  0  0  0  0 
  9 20  1  0  0  0  0 
 11 21  1  0  0  0  0 
 12 22  1  0  0  0  0 
 14 23  1  0  0  0  0 
 14 24  1  0  0  0  0 
M  END
> <cdk:Title>
sulfacetamide

> <Conformer>
1

> <SuperDrugID>
SD002244

$$$$
