@<TRIPOS>MOLECULE
ZINC000003881797
55    57    1     0     0
SMALL
USER_CHARGES
@<TRIPOS>ATOM
1      C1     -1.0275    1.6160   -0.1507 C.2      1 ZINC000003881797   -0.2000
2      C2     -0.7536    0.3363   -0.2090 C.2      1 ZINC000003881797   -0.1300
3      C3     -1.8565   -0.6894   -0.3534 C.3      1 ZINC000003881797   -0.0800
4      C4     -1.6801   -1.7437    0.7432 C.3      1 ZINC000003881797   -0.1200
5      C5     -0.2682   -2.3321    0.6684 C.3      1 ZINC000003881797   -0.0600
6      H6     -0.0996   -2.7476   -0.3251 H        1 ZINC000003881797    0.0800
7      C7     -0.1425   -3.4428    1.7147 C.3      1 ZINC000003881797   -0.0400
8      C8     -1.1700   -4.5376    1.4204 C.3      1 ZINC000003881797   -0.1400
9      C9     -0.4018   -2.8625    3.1064 C.3      1 ZINC000003881797    0.0600
10     O10    -0.4704   -3.9245    4.0601 O.3      1 ZINC000003881797   -0.5500
11     C11     1.2643   -4.0402    1.6684 C.3      1 ZINC000003881797    0.1200
12     H12     1.4535   -4.4497    0.6761 H        1 ZINC000003881797    0.0500
13     O13     1.3737   -5.0798    2.6426 O.3      1 ZINC000003881797   -0.5400
14     C14     2.2877   -2.9434    1.9725 C.3      1 ZINC000003881797   -0.1600
15     C15     2.1732   -1.8418    0.9182 C.3      1 ZINC000003881797   -0.1100
16     C16     0.7657   -1.2400    0.9469 C.3      1 ZINC000003881797   -0.0400
17     C17     0.4998   -0.6238    2.3219 C.3      1 ZINC000003881797   -0.1700
18     C18     0.6736   -0.1570   -0.1404 C.3      1 ZINC000003881797   -0.0300
19     H19     0.9661   -0.5790   -1.1019 H        1 ZINC000003881797    0.0800
20     C20     1.6034    1.0053    0.2136 C.3      1 ZINC000003881797   -0.1200
21     C21     1.6333    1.9899   -0.9268 C.2      1 ZINC000003881797    0.0200
22     C22     1.5902    3.2968   -0.6790 C.2      1 ZINC000003881797   -0.2600
23     C23     1.4402    4.3741   -1.6652 C.2      1 ZINC000003881797    0.5200
24     O24     1.3342    4.1962   -2.8627 O.2      1 ZINC000003881797   -0.4600
25     O25     1.4350    5.5772   -1.0783 O.3      1 ZINC000003881797   -0.3300
26     C26     1.5789    5.4677    0.3609 C.3      1 ZINC000003881797    0.0200
27     C27     1.6796    3.9662    0.6771 C.3      1 ZINC000003881797    0.1100
28     H28     2.6365    3.7382    1.1464 H        1 ZINC000003881797    0.0900
29     O29     0.6002    3.5588    1.5203 O.3      1 ZINC000003881797   -0.5400
30     H30    -0.2342    2.3312    0.0092 H        1 ZINC000003881797    0.1300
31     H31    -2.0459    1.9562   -0.2668 H        1 ZINC000003881797    0.0900
32     H32    -2.8263   -0.2040   -0.2435 H        1 ZINC000003881797    0.0700
33     H33    -1.7914   -1.1636   -1.3327 H        1 ZINC000003881797    0.0700
34     H34    -1.8292   -1.2811    1.7188 H        1 ZINC000003881797    0.0700
35     H35    -2.4124   -2.5388    0.6034 H        1 ZINC000003881797    0.0700
36     H36    -0.9873   -4.9501    0.4281 H        1 ZINC000003881797    0.0500
37     H37    -1.0811   -5.3288    2.1648 H        1 ZINC000003881797    0.0700
38     H38    -2.1735   -4.1138    1.4586 H        1 ZINC000003881797    0.0500
39     H39     0.4090   -2.1852    3.3745 H        1 ZINC000003881797    0.0700
40     H40    -1.3452   -2.3164    3.1023 H        1 ZINC000003881797    0.0400
41     H41    -0.6331   -3.6293    4.9664 H        1 ZINC000003881797    0.3700
42     H42     2.2421   -5.5044    2.6690 H        1 ZINC000003881797    0.3700
43     H43     2.0903   -2.5248    2.9593 H        1 ZINC000003881797    0.0800
44     H44     3.2921   -3.3662    1.9497 H        1 ZINC000003881797    0.0600
45     H45     2.9052   -1.0619    1.1280 H        1 ZINC000003881797    0.0700
46     H46     2.3663   -2.2629   -0.0684 H        1 ZINC000003881797    0.0700
47     H47     0.6105    0.4589    2.2623 H        1 ZINC000003881797    0.0600
48     H48    -0.5137   -0.8685    2.6399 H        1 ZINC000003881797    0.0700
49     H49     1.2132   -1.0228    3.0430 H        1 ZINC000003881797    0.0700
50     H50     1.2384    1.5017    1.1128 H        1 ZINC000003881797    0.1100
51     H51     2.6092    0.6248    0.3916 H        1 ZINC000003881797    0.0900
52     H52     1.6897    1.6351   -1.9453 H        1 ZINC000003881797    0.1400
53     H53     2.4824    5.9834    0.6864 H        1 ZINC000003881797    0.1000
54     H54     0.7063    5.8925    0.8572 H        1 ZINC000003881797    0.1100
55     H55     0.5832    4.0024    2.3794 H        1 ZINC000003881797    0.3900
@<TRIPOS>BOND
1     1     2     2
2     1     30    1
3     1     31    1
4     2     18    1
5     2     3     1
6     3     4     1
7     3     32    1
8     3     33    1
9     4     5     1
10    4     34    1
11    4     35    1
12    5     6     1
13    5     16    1
14    5     7     1
15    7     8     1
16    7     9     1
17    7     11    1
18    8     36    1
19    8     37    1
20    8     38    1
21    9     10    1
22    9     39    1
23    9     40    1
24    10    41    1
25    11    12    1
26    11    13    1
27    11    14    1
28    13    42    1
29    14    15    1
30    14    43    1
31    14    44    1
32    15    16    1
33    15    45    1
34    15    46    1
35    16    17    1
36    16    18    1
37    17    47    1
38    17    48    1
39    17    49    1
40    18    19    1
41    18    20    1
42    20    21    1
43    20    50    1
44    20    51    1
45    21    22    2
46    21    52    1
47    22    27    1
48    22    23    1
49    23    24    2
50    23    25    1
51    25    26    1
52    26    27    1
53    26    53    1
54    26    54    1
55    27    28    1
56    27    29    1
57    29    55    1
@<TRIPOS>SUBSTRUCTURE
1   ZINC000003881797 1     RESIDUE    1   A     ZIN   1
