@<TRIPOS>MOLECULE
ZINC000014974132
43    46    1     0     0
SMALL
USER_CHARGES
@<TRIPOS>ATOM
1      C1     -1.3266   -5.8125   -7.0113 C.3      1 ZINC000014974132   -0.1700
2      C2     -1.0445   -5.8430   -5.5313 C.2      1 ZINC000014974132    0.5100
3      O3      0.0672   -6.1168   -5.1315 O.2      1 ZINC000014974132   -0.5000
4      N4     -2.0277   -5.5661   -4.6520 N.am     1 ZINC000014974132   -0.6300
5      C5     -1.7682   -5.5941   -3.2907 C.2      1 ZINC000014974132    0.3200
6      N6     -2.6363   -5.3508   -2.3718 N.2      1 ZINC000014974132   -0.5000
7      C7     -2.2316   -5.4180   -1.0877 C.ar     1 ZINC000014974132    0.1200
8      C8     -2.9832   -5.1966    0.0907 C.ar     1 ZINC000014974132    0.1300
9      O9     -4.2991   -4.8679    0.0016 O.3      1 ZINC000014974132   -0.2300
10     C10    -5.2006   -5.8743   -0.1036 C.ar     1 ZINC000014974132    0.3700
11     C11    -6.5599   -5.5958   -0.2107 C.ar     1 ZINC000014974132   -0.2300
12     C12    -7.4460   -6.6665   -0.3170 C.ar     1 ZINC000014974132    0.2400
13     C13    -8.9052   -6.4278   -0.4342 C.ar     1 ZINC000014974132   -0.0300
14     C14    -9.4024   -5.1258   -0.4447 C.ar     1 ZINC000014974132   -0.0900
15     C15   -10.7610   -4.9097   -0.5545 C.ar     1 ZINC000014974132   -0.0700
16     C16   -11.6288   -5.9823   -0.6539 C.ar     1 ZINC000014974132   -0.1700
17     C17   -13.1113   -5.7397   -0.7741 C.3      1 ZINC000014974132    0.5100
18     F18   -13.4585   -5.6332   -2.1251 F        1 ZINC000014974132   -0.1700
19     F19   -13.8068   -6.8075   -0.1967 F        1 ZINC000014974132   -0.1700
20     F20   -13.4449   -4.5534   -0.1119 F        1 ZINC000014974132   -0.1800
21     C21   -11.1410   -7.2766   -0.6440 C.ar     1 ZINC000014974132   -0.0800
22     C22    -9.7838   -7.5045   -0.5400 C.ar     1 ZINC000014974132   -0.0700
23     N23    -6.9614   -7.9084   -0.3121 N.ar     1 ZINC000014974132   -0.5300
24     C24    -5.6673   -8.1275   -0.2088 C.ar     1 ZINC000014974132    0.3400
25     N25    -4.7986   -7.1413   -0.1115 N.ar     1 ZINC000014974132   -0.5600
26     C26    -2.3884   -5.3129    1.3271 C.ar     1 ZINC000014974132   -0.0900
27     C27    -1.0469   -5.6470    1.4351 C.ar     1 ZINC000014974132   -0.1000
28     C28    -0.2979   -5.8661    0.3005 C.ar     1 ZINC000014974132   -0.0500
29     C29    -0.8817   -5.7542   -0.9602 C.ar     1 ZINC000014974132   -0.2100
30     S30    -0.2087   -5.9744   -2.5737 S.3      1 ZINC000014974132    0.1900
31     H31    -0.4179   -6.0610   -7.5596 H        1 ZINC000014974132    0.1100
32     H32    -2.1040   -6.5390   -7.2481 H        1 ZINC000014974132    0.1000
33     H33    -1.6620   -4.8155   -7.2968 H        1 ZINC000014974132    0.1000
34     H34    -2.9169   -5.3471   -4.9719 H        1 ZINC000014974132    0.4300
35     H35    -6.9188   -4.5772   -0.2111 H        1 ZINC000014974132    0.1600
36     H36    -8.7258   -4.2877   -0.3668 H        1 ZINC000014974132    0.1400
37     H37   -11.1474   -3.9012   -0.5624 H        1 ZINC000014974132    0.1400
38     H38   -11.8231   -8.1103   -0.7216 H        1 ZINC000014974132    0.1400
39     H39    -9.4040   -8.5155   -0.5323 H        1 ZINC000014974132    0.1500
40     H40    -5.3066   -9.1455   -0.2078 H        1 ZINC000014974132    0.2000
41     H41    -2.9713   -5.1421    2.2201 H        1 ZINC000014974132    0.1400
42     H42    -0.5893   -5.7351    2.4094 H        1 ZINC000014974132    0.1500
43     H43     0.7467   -6.1262    0.3880 H        1 ZINC000014974132    0.1400
@<TRIPOS>BOND
1     1     2     1
2     1     31    1
3     1     32    1
4     1     33    1
5     2     3     2
6     2     4     am
7     4     5     1
8     4     34    1
9     5     30    1
10    5     6     2
11    6     7     1
12    7     29    ar
13    7     8     ar
14    8     9     1
15    8     26    ar
16    9     10    1
17    10    25    ar
18    10    11    ar
19    11    12    ar
20    11    35    1
21    12    13    1
22    12    23    ar
23    13    22    ar
24    13    14    ar
25    14    15    ar
26    14    36    1
27    15    16    ar
28    15    37    1
29    16    17    1
30    16    21    ar
31    17    18    1
32    17    19    1
33    17    20    1
34    21    22    ar
35    21    38    1
36    22    39    1
37    23    24    ar
38    24    25    ar
39    24    40    1
40    26    27    ar
41    26    41    1
42    27    28    ar
43    27    42    1
44    28    29    ar
45    28    43    1
46    29    30    1
@<TRIPOS>SUBSTRUCTURE
1   ZINC000014974132 1     RESIDUE    1   A     ZIN   1
