@<TRIPOS>MOLECULE
ZINC000000169811
23    24    1     0     0
SMALL
USER_CHARGES
@<TRIPOS>ATOM
1      C1     -0.0161    1.3371    0.0094 C.2      1 ZINC000000169811    0.0000
2      C2      1.2587    1.7711   -0.0004 C.2      1 ZINC000000169811    0.0300
3      N3      2.0558    0.6583   -0.0140 N.pl3    1 ZINC000000169811   -0.4000
4      C4      3.5206    0.6384   -0.0281 C.3      1 ZINC000000169811    0.1400
5      C5      4.0364    0.6240    1.3878 C.ar     1 ZINC000000169811   -0.1500
6      C6      4.2840    1.8144    2.0454 C.ar     1 ZINC000000169811   -0.0900
7      C7      4.7571    1.8012    3.3442 C.ar     1 ZINC000000169811   -0.1200
8      C8      4.9823    0.5975    3.9855 C.ar     1 ZINC000000169811   -0.0900
9      C9      4.7339   -0.5930    3.3282 C.ar     1 ZINC000000169811   -0.1200
10     C10     4.2566   -0.5797    2.0309 C.ar     1 ZINC000000169811   -0.1000
11     C11     1.2397   -0.4176   -0.0120 C.cat    1 ZINC000000169811    0.2900
12     N12     0.0021   -0.0041    0.0020 N.pl3    1 ZINC000000169811   -0.4800
13     H13    -0.7811   -0.5763    0.0069 H        1 ZINC000000169811    0.4600
14     H14    -0.8984    1.9597    0.0252 H        1 ZINC000000169811    0.2200
15     H15     1.5887    2.7994    0.0016 H        1 ZINC000000169811    0.2200
16     H16     3.8668   -0.2536   -0.5501 H        1 ZINC000000169811    0.1300
17     H17     3.8911    1.5261   -0.5408 H        1 ZINC000000169811    0.1300
18     H18     4.1080    2.7548    1.5443 H        1 ZINC000000169811    0.1300
19     H19     4.9512    2.7312    3.8577 H        1 ZINC000000169811    0.1300
20     H20     5.3526    0.5871    4.9999 H        1 ZINC000000169811    0.1300
21     H21     4.9101   -1.5334    3.8291 H        1 ZINC000000169811    0.1300
22     H22     4.0625   -1.5097    1.5174 H        1 ZINC000000169811    0.1300
23     H23     1.5585   -1.4495   -0.0206 H        1 ZINC000000169811    0.2600
@<TRIPOS>BOND
1     1     12    1
2     1     2     2
3     1     14    1
4     2     3     1
5     2     15    1
6     3     4     1
7     3     11    ar
8     4     5     1
9     4     16    1
10    4     17    1
11    5     10    ar
12    5     6     ar
13    6     7     ar
14    6     18    1
15    7     8     ar
16    7     19    1
17    8     9     ar
18    8     20    1
19    9     10    ar
20    9     21    1
21    10    22    1
22    11    12    ar
23    11    23    1
24    12    13    1
@<TRIPOS>SUBSTRUCTURE
1   ZINC000000169811 1     RESIDUE    1   A     ZIN   1
