@<TRIPOS>MOLECULE
ZINC000002016021
50    51    1     0     0
SMALL
USER_CHARGES
@<TRIPOS>ATOM
1      C1     -0.0187    1.5258    0.0104 C.3      1 ZINC000002016021   -0.1500
2      C2      0.0021   -0.0041    0.0020 C.3      1 ZINC000002016021    0.0700
3      O3      0.6932   -0.4774    1.1597 O.3      1 ZINC000002016021   -0.4000
4      C4      0.7699   -1.9016    1.2491 C.3      1 ZINC000002016021    0.2900
5      N5      1.4943   -2.2762    2.4660 N.pl3    1 ZINC000002016021   -0.4200
6      C6      2.0133   -1.4345    3.3811 C.2      1 ZINC000002016021    0.2900
7      N7      2.5897   -2.1203    4.3351 N.2      1 ZINC000002016021   -0.5000
8      C8      2.4731   -3.4273    4.0866 C.2      1 ZINC000002016021    0.3300
9      C9      1.7696   -3.5589    2.8959 C.2      1 ZINC000002016021   -0.1600
10     C10     1.5024   -4.8509    2.3942 C.2      1 ZINC000002016021    0.6000
11     O11     0.8878   -4.9923    1.3522 O.2      1 ZINC000002016021   -0.5100
12     N12     1.9362   -5.9276    3.0823 N.am     1 ZINC000002016021   -0.5500
13     C13     1.6627   -7.2714    2.5669 C.3      1 ZINC000002016021    0.1200
14     C14     2.8079   -7.7095    1.6519 C.3      1 ZINC000002016021   -0.1300
15     C15     2.5223   -9.1130    1.1137 C.3      1 ZINC000002016021   -0.1100
16     C16     3.6675   -9.5511    0.1986 C.3      1 ZINC000002016021   -0.1400
17     C17     3.3819  -10.9546   -0.3396 C.3      1 ZINC000002016021    0.1300
18     C18     2.0730  -10.9404   -1.1318 C.3      1 ZINC000002016021   -0.1400
19     C19     4.5271  -11.3927   -1.2546 C.3      1 ZINC000002016021   -0.1800
20     O20     3.2679  -11.8694    0.7523 O.3      1 ZINC000002016021   -0.5600
21     C21     2.6158   -5.7856    4.2332 C.2      1 ZINC000002016021    0.7100
22     O22     2.9915   -6.7786    4.8260 O.2      1 ZINC000002016021   -0.5300
23     N23     2.8879   -4.5717    4.7483 N.am     1 ZINC000002016021   -0.5100
24     C24     3.6320   -4.4607    6.0053 C.3      1 ZINC000002016021    0.0900
25     H25     1.0039    1.9031    0.0027 H        1 ZINC000002016021    0.0700
26     H26    -0.5459    1.8868   -0.8726 H        1 ZINC000002016021    0.0800
27     H27    -0.5289    1.8773    0.9072 H        1 ZINC000002016021    0.0700
28     H28    -1.0205   -0.3814    0.0098 H        1 ZINC000002016021    0.0600
29     H29     0.5123   -0.3556   -0.8948 H        1 ZINC000002016021    0.0600
30     H30    -0.2368   -2.3182    1.2827 H        1 ZINC000002016021    0.0900
31     H31     1.2960   -2.2925    0.3781 H        1 ZINC000002016021    0.0900
32     H32     1.9620   -0.3567    3.3341 H        1 ZINC000002016021    0.2300
33     H33     1.5757   -7.9692    3.3998 H        1 ZINC000002016021    0.1000
34     H34     0.7302   -7.2613    2.0026 H        1 ZINC000002016021    0.1000
35     H35     2.8948   -7.0117    0.8190 H        1 ZINC000002016021    0.0700
36     H36     3.7404   -7.7197    2.2163 H        1 ZINC000002016021    0.0700
37     H37     2.4353   -9.8108    1.9465 H        1 ZINC000002016021    0.0700
38     H38     1.5898   -9.1029    0.5493 H        1 ZINC000002016021    0.0700
39     H39     3.7545   -8.8533   -0.6342 H        1 ZINC000002016021    0.0700
40     H40     4.6000   -9.5613    0.7630 H        1 ZINC000002016021    0.0700
41     H41     2.1600  -10.2426   -1.9646 H        1 ZINC000002016021    0.0700
42     H42     1.8695  -11.9402   -1.5152 H        1 ZINC000002016021    0.0600
43     H43     1.2571  -10.6282   -0.4799 H        1 ZINC000002016021    0.0700
44     H44     5.4596  -11.4029   -0.6903 H        1 ZINC000002016021    0.0600
45     H45     4.3236  -12.3926   -1.6381 H        1 ZINC000002016021    0.0600
46     H46     4.6141  -10.6949   -2.0875 H        1 ZINC000002016021    0.0700
47     H47     4.0630  -11.9299    1.2993 H        1 ZINC000002016021    0.3800
48     H48     3.8776   -5.4575    6.3715 H        1 ZINC000002016021    0.1000
49     H49     4.5508   -3.8994    5.8353 H        1 ZINC000002016021    0.0800
50     H50     3.0212   -3.9424    6.7445 H        1 ZINC000002016021    0.0800
@<TRIPOS>BOND
1     1     2     1
2     1     25    1
3     1     26    1
4     1     27    1
5     2     3     1
6     2     28    1
7     2     29    1
8     3     4     1
9     4     5     1
10    4     30    1
11    4     31    1
12    5     9     1
13    5     6     1
14    6     7     2
15    6     32    1
16    7     8     1
17    8     23    1
18    8     9     2
19    9     10    1
20    10    11    2
21    10    12    am
22    12    13    1
23    12    21    am
24    13    14    1
25    13    33    1
26    13    34    1
27    14    15    1
28    14    35    1
29    14    36    1
30    15    16    1
31    15    37    1
32    15    38    1
33    16    17    1
34    16    39    1
35    16    40    1
36    17    18    1
37    17    19    1
38    17    20    1
39    18    41    1
40    18    42    1
41    18    43    1
42    19    44    1
43    19    45    1
44    19    46    1
45    20    47    1
46    21    22    2
47    21    23    am
48    23    24    1
49    24    48    1
50    24    49    1
51    24    50    1
@<TRIPOS>SUBSTRUCTURE
1   ZINC000002016021 1     RESIDUE    1   A     ZIN   1
