@<TRIPOS>MOLECULE
ZINC000027080761
66    66    1     0     0
SMALL
USER_CHARGES
@<TRIPOS>ATOM
1      C1      0.5821   -2.2435    0.4634 C.3      1 ZINC000027080761   -0.1500
2      C2      1.6553   -1.2647    0.9441 C.3      1 ZINC000027080761   -0.1100
3      C3      2.7361   -1.1251   -0.1298 C.3      1 ZINC000027080761   -0.1400
4      C4      1.0185    0.1013    1.2075 C.3      1 ZINC000027080761   -0.1200
5      C5      0.0457   -0.0076    2.3834 C.3      1 ZINC000027080761    0.1500
6      H6     -0.7044   -0.7677    2.1651 H        1 ZINC000027080761    0.1200
7      N7     -0.6139    1.2836    2.5928 N.am     1 ZINC000027080761   -0.7000
8      C8     -1.6805    1.6248    1.8429 C.2      1 ZINC000027080761    0.6500
9      O9     -2.1528    0.8256    1.0590 O.2      1 ZINC000027080761   -0.5700
10     O10    -2.2228    2.8514    1.9625 O.3      1 ZINC000027080761   -0.3600
11     C11    -3.3698    3.1496    1.1236 C.3      1 ZINC000027080761    0.1300
12     C12    -3.8370    4.5568    1.3933 C.ar     1 ZINC000027080761   -0.1000
13     C13    -4.7788    4.7958    2.3765 C.ar     1 ZINC000027080761   -0.0900
14     C14    -5.2074    6.0866    2.6239 C.ar     1 ZINC000027080761   -0.1200
15     C15    -4.6938    7.1383    1.8883 C.ar     1 ZINC000027080761   -0.1100
16     C16    -3.7513    6.8993    0.9057 C.ar     1 ZINC000027080761   -0.1200
17     C17    -3.3196    5.6091    0.6613 C.ar     1 ZINC000027080761   -0.0900
18     C18     0.8033   -0.3924    3.6281 C.2      1 ZINC000027080761    0.5200
19     O19     1.1235    0.4588    4.4305 O.2      1 ZINC000027080761   -0.5200
20     N20     1.1249   -1.6823    3.8495 N.am     1 ZINC000027080761   -0.7100
21     C21     1.7476   -2.0750    5.1161 C.3      1 ZINC000027080761    0.1300
22     H22     2.4098   -1.2794    5.4574 H        1 ZINC000027080761    0.1300
23     C23     0.6605   -2.3187    6.1648 C.3      1 ZINC000027080761   -0.1200
24     C24    -0.0661   -1.0052    6.4610 C.3      1 ZINC000027080761   -0.0900
25     C25    -1.2325   -1.2714    7.4147 C.3      1 ZINC000027080761   -0.1500
26     C26     0.9076   -0.0187    7.1090 C.3      1 ZINC000027080761   -0.1500
27     C27     2.5432   -3.3388    4.9142 C.2      1 ZINC000027080761    0.5200
28     O28     2.5859   -3.8602    3.8200 O.2      1 ZINC000027080761   -0.5200
29     N29     3.2072   -3.8897    5.9496 N.am     1 ZINC000027080761   -0.7200
30     C30     3.9807   -5.1184    5.7533 C.3      1 ZINC000027080761    0.0800
31     H31     3.4744   -5.7543    5.0272 H        1 ZINC000027080761    0.1100
32     C32     5.3766   -4.7651    5.2361 C.3      1 ZINC000027080761   -0.1600
33     C33     4.1013   -5.8509    7.0648 C.2      1 ZINC000027080761    0.3400
34     O34     3.7463   -7.0021    7.1483 O.2      1 ZINC000027080761   -0.4400
35     H35     0.0651   -1.8213   -0.3984 H        1 ZINC000027080761    0.0600
36     H36     1.0506   -3.1860    0.1802 H        1 ZINC000027080761    0.0600
37     H37    -0.1340   -2.4204    1.2659 H        1 ZINC000027080761    0.0500
38     H38     2.1036   -1.6401    1.8641 H        1 ZINC000027080761    0.0800
39     H39     2.2878   -0.7497   -1.0497 H        1 ZINC000027080761    0.0600
40     H40     3.5006   -0.4278    0.2127 H        1 ZINC000027080761    0.0500
41     H41     3.1897   -2.0983   -0.3175 H        1 ZINC000027080761    0.0600
42     H42     1.7976    0.8254    1.4464 H        1 ZINC000027080761    0.0800
43     H43     0.4789    0.4281    0.3187 H        1 ZINC000027080761    0.0900
44     H44    -0.2829    1.8930    3.2711 H        1 ZINC000027080761    0.4200
45     H45    -3.0874    3.0553    0.0751 H        1 ZINC000027080761    0.0800
46     H46    -4.1753    2.4502    1.3473 H        1 ZINC000027080761    0.0800
47     H47    -5.1801    3.9742    2.9511 H        1 ZINC000027080761    0.1200
48     H48    -5.9438    6.2733    3.3915 H        1 ZINC000027080761    0.1300
49     H49    -5.0292    8.1467    2.0811 H        1 ZINC000027080761    0.1300
50     H50    -3.3503    7.7210    0.3309 H        1 ZINC000027080761    0.1300
51     H51    -2.5832    5.4224   -0.1064 H        1 ZINC000027080761    0.1300
52     H52     0.9441   -2.3507    3.1702 H        1 ZINC000027080761    0.4100
53     H53    -0.0525   -3.0508    5.7857 H        1 ZINC000027080761    0.0700
54     H54     1.1167   -2.6960    7.0801 H        1 ZINC000027080761    0.0800
55     H55    -0.4463   -0.5826    5.5310 H        1 ZINC000027080761    0.0700
56     H56    -0.8523   -1.6940    8.3447 H        1 ZINC000027080761    0.0500
57     H57    -1.7501   -0.3357    7.6257 H        1 ZINC000027080761    0.0600
58     H58    -1.9261   -1.9742    6.9531 H        1 ZINC000027080761    0.0500
59     H59     1.7385    0.1709    6.4296 H        1 ZINC000027080761    0.0700
60     H60     0.3899    0.9170    7.3200 H        1 ZINC000027080761    0.0500
61     H61     1.2878   -0.4414    8.0390 H        1 ZINC000027080761    0.0500
62     H62     3.1731   -3.4727    6.8247 H        1 ZINC000027080761    0.4100
63     H63     5.9521   -5.6792    5.0901 H        1 ZINC000027080761    0.0700
64     H64     5.2893   -4.2353    4.2876 H        1 ZINC000027080761    0.0800
65     H65     5.8829   -4.1291    5.9623 H        1 ZINC000027080761    0.0700
66     H66     4.5054   -5.3463    7.9300 H        1 ZINC000027080761    0.1100
@<TRIPOS>BOND
1     1     2     1
2     1     35    1
3     1     36    1
4     1     37    1
5     2     3     1
6     2     4     1
7     2     38    1
8     3     39    1
9     3     40    1
10    3     41    1
11    4     5     1
12    4     42    1
13    4     43    1
14    5     6     1
15    5     7     1
16    5     18    1
17    7     8     am
18    7     44    1
19    8     9     2
20    8     10    1
21    10    11    1
22    11    12    1
23    11    45    1
24    11    46    1
25    12    17    ar
26    12    13    ar
27    13    14    ar
28    13    47    1
29    14    15    ar
30    14    48    1
31    15    16    ar
32    15    49    1
33    16    17    ar
34    16    50    1
35    17    51    1
36    18    19    2
37    18    20    am
38    20    21    1
39    20    52    1
40    21    22    1
41    21    23    1
42    21    27    1
43    23    24    1
44    23    53    1
45    23    54    1
46    24    25    1
47    24    26    1
48    24    55    1
49    25    56    1
50    25    57    1
51    25    58    1
52    26    59    1
53    26    60    1
54    26    61    1
55    27    28    2
56    27    29    am
57    29    30    1
58    29    62    1
59    30    31    1
60    30    32    1
61    30    33    1
62    32    63    1
63    32    64    1
64    32    65    1
65    33    34    2
66    33    66    1
@<TRIPOS>SUBSTRUCTURE
1   ZINC000027080761 1     RESIDUE    1   A     ZIN   1
