@<TRIPOS>MOLECULE
ZINC000003781393
34    36    1     0     0
SMALL
USER_CHARGES
@<TRIPOS>ATOM
1      N1     -0.0165    1.3681    0.0096 N.pl3    1 ZINC000003781393   -0.8200
2      C2      0.0021   -0.0041    0.0020 C.2      1 ZINC000003781393    0.6600
3      N3     -1.1382   -0.6578    0.0040 N.2      1 ZINC000003781393   -0.5800
4      C4     -1.1685   -1.9955   -0.0031 C.2      1 ZINC000003781393    0.3100
5      C5      0.0312   -2.7162   -0.0129 C.2      1 ZINC000003781393   -0.1500
6      N6     -0.2906   -4.0328   -0.0184 N.2      1 ZINC000003781393   -0.4200
7      C7     -1.5853   -4.1598   -0.0128 C.2      1 ZINC000003781393    0.2100
8      N8     -2.1710   -2.9271   -0.0033 N.pl3    1 ZINC000003781393   -0.4400
9      C9     -3.6099   -2.6516    0.0052 C.3      1 ZINC000003781393    0.1200
10     H10    -3.8385   -1.6004    0.1812 H        1 ZINC000003781393    0.1300
11     C11    -4.4162   -3.6143    0.8928 C.3      1 ZINC000003781393   -0.1400
12     C12    -5.4872   -3.6096   -0.2107 C.3      1 ZINC000003781393   -0.0900
13     H13    -6.2301   -2.8205   -0.0949 H        1 ZINC000003781393    0.1100
14     C14    -6.1133   -4.9827   -0.4629 C.3      1 ZINC000003781393    0.0900
15     O15    -7.1766   -5.1994    0.4669 O.3      1 ZINC000003781393   -0.5700
16     C16    -4.3592   -3.2523   -1.1958 C.3      1 ZINC000003781393   -0.1100
17     H17    -3.8646   -4.1225   -1.6274 H        1 ZINC000003781393    0.1100
18     C18    -4.7683   -2.2190   -2.2473 C.3      1 ZINC000003781393    0.0900
19     O19    -5.4129   -2.8793   -3.3384 O.3      1 ZINC000003781393   -0.5700
20     C20     1.2511   -2.0002   -0.0145 C.2      1 ZINC000003781393    0.6000
21     O21     2.3198   -2.5868   -0.0229 O.2      1 ZINC000003781393   -0.5100
22     N22     1.2025   -0.6496   -0.0129 N.am     1 ZINC000003781393   -0.6600
23     H23     0.8168    1.8644    0.0043 H        1 ZINC000003781393    0.4200
24     H24    -0.8631    1.8416    0.0162 H        1 ZINC000003781393    0.4300
25     H25    -2.1170   -5.0999   -0.0150 H        1 ZINC000003781393    0.2200
26     H26    -3.9376   -4.5836    1.0327 H        1 ZINC000003781393    0.1000
27     H27    -4.7518   -3.1677    1.8288 H        1 ZINC000003781393    0.0900
28     H28    -6.5057   -5.0220   -1.4791 H        1 ZINC000003781393    0.0600
29     H29    -5.3561   -5.7563   -0.3356 H        1 ZINC000003781393    0.0500
30     H30    -7.6203   -6.0525    0.3651 H        1 ZINC000003781393    0.3800
31     H31    -5.4548   -1.4992   -1.8016 H        1 ZINC000003781393    0.0500
32     H32    -3.8816   -1.6991   -2.6100 H        1 ZINC000003781393    0.0500
33     H33    -5.7000   -2.2839   -4.0443 H        1 ZINC000003781393    0.3800
34     H34     2.0260   -0.1371   -0.0140 H        1 ZINC000003781393    0.4200
@<TRIPOS>BOND
1     1     2     1
2     1     23    1
3     1     24    1
4     2     22    1
5     2     3     2
6     3     4     1
7     4     8     1
8     4     5     2
9     5     6     1
10    5     20    1
11    6     7     2
12    7     8     1
13    7     25    1
14    8     9     1
15    9     10    1
16    9     16    1
17    9     11    1
18    11    12    1
19    11    26    1
20    11    27    1
21    12    13    1
22    12    14    1
23    12    16    1
24    14    15    1
25    14    28    1
26    14    29    1
27    15    30    1
28    16    17    1
29    16    18    1
30    18    19    1
31    18    31    1
32    18    32    1
33    19    33    1
34    20    21    2
35    20    22    am
36    22    34    1
@<TRIPOS>SUBSTRUCTURE
1   ZINC000003781393 1     RESIDUE    1   A     ZIN   1
