@<TRIPOS>MOLECULE
ZINC000029136020
73    78    1     0     0
SMALL
USER_CHARGES
@<TRIPOS>ATOM
1      C1     -0.9418    1.3014   -0.0614 C.3      1 ZINC000029136020   -0.1100
2      C2     -0.5785   -0.1611   -0.0502 C.ar     1 ZINC000029136020   -0.0700
3      C3     -0.4362   -0.8594   -1.2599 C.ar     1 ZINC000029136020    0.1900
4      N4     -0.6150   -0.2585   -2.4427 N.ar     1 ZINC000029136020   -0.5000
5      C5     -0.4678   -0.9643   -3.5497 C.ar     1 ZINC000029136020    0.4900
6      N6     -0.6518   -0.3467   -4.7746 N.pl3    1 ZINC000029136020   -0.6300
7      C7     -0.6150   -1.1029   -5.9524 C.ar     1 ZINC000029136020    0.1400
8      C8     -1.1827   -2.3699   -5.9826 C.ar     1 ZINC000029136020   -0.0700
9      C9     -1.1463   -3.1149   -7.1448 C.ar     1 ZINC000029136020   -0.1200
10     C10    -0.5428   -2.5980   -8.2818 C.ar     1 ZINC000029136020    0.1000
11     O11    -0.5074   -3.3322   -9.4259 O.3      1 ZINC000029136020   -0.3300
12     C12     0.1298   -2.7381  -10.5586 C.3      1 ZINC000029136020    0.0300
13     C13     0.0716   -3.7058  -11.7423 C.3      1 ZINC000029136020    0.0000
14     N14    -1.3274   -3.9051  -12.1435 N.4      1 ZINC000029136020   -0.4000
15     H15    -1.8786   -4.1990  -11.3511 H        1 ZINC000029136020    0.4300
16     C16    -1.8801   -2.6503  -12.7147 C.3      1 ZINC000029136020   -0.0100
17     C17    -3.0738   -3.1455  -13.5693 C.3      1 ZINC000029136020   -0.1400
18     C18    -2.5457   -4.4701  -14.1663 C.3      1 ZINC000029136020   -0.1500
19     C19    -1.4096   -4.9121  -13.2237 C.3      1 ZINC000029136020   -0.0100
20     C20     0.0241   -1.3323   -8.2527 C.ar     1 ZINC000029136020   -0.1800
21     C21    -0.0157   -0.5841   -7.0927 C.ar     1 ZINC000029136020   -0.1000
22     N22    -0.1452   -2.2594   -3.5142 N.ar     1 ZINC000029136020   -0.2900
23     N23     0.0386   -2.8876   -2.4039 N.ar     1 ZINC000029136020   -0.1000
24     C24    -0.0938   -2.2377   -1.2416 C.ar     1 ZINC000029136020   -0.0200
25     C25     0.0981   -2.8841   -0.0124 C.ar     1 ZINC000029136020   -0.0300
26     C26    -0.0499   -2.1686    1.1618 C.ar     1 ZINC000029136020   -0.0400
27     C27     0.1522   -2.8463    2.4657 C.ar     1 ZINC000029136020   -0.0300
28     C28    -0.4879   -4.0542    2.7317 C.ar     1 ZINC000029136020   -0.0900
29     C29    -0.2948   -4.6825    3.9511 C.ar     1 ZINC000029136020    0.0900
30     O30    -0.9177   -5.8618    4.2138 O.3      1 ZINC000029136020   -0.2900
31     C31    -0.3886   -6.9697    3.6592 C.2      1 ZINC000029136020    0.5100
32     O32     0.5471   -6.8766    2.8901 O.2      1 ZINC000029136020   -0.4800
33     C33    -0.9463   -8.2978    3.9864 C.ar     1 ZINC000029136020   -0.1300
34     C34    -2.0255   -8.4081    4.8656 C.ar     1 ZINC000029136020   -0.0600
35     C35    -2.5414   -9.6515    5.1667 C.ar     1 ZINC000029136020   -0.1300
36     C36    -1.9916  -10.7879    4.6001 C.ar     1 ZINC000029136020   -0.0800
37     C37    -0.9222  -10.6858    3.7281 C.ar     1 ZINC000029136020   -0.1300
38     C38    -0.4004   -9.4482    3.4134 C.ar     1 ZINC000029136020   -0.0500
39     C39     0.5348   -4.1087    4.9047 C.ar     1 ZINC000029136020   -0.1000
40     C40     1.1706   -2.9095    4.6424 C.ar     1 ZINC000029136020   -0.0900
41     C41     0.9886   -2.2785    3.4272 C.ar     1 ZINC000029136020   -0.0200
42     Cl42    1.7889   -0.7727    3.1020 Cl       1 ZINC000029136020   -0.0500
43     C43    -0.3828   -0.8047    1.1309 C.ar     1 ZINC000029136020   -0.0400
44     H44    -0.0324    1.9014   -0.0945 H        1 ZINC000029136020    0.0800
45     H45    -1.5518    1.5175   -0.9385 H        1 ZINC000029136020    0.0800
46     H46    -1.5039    1.5431    0.8407 H        1 ZINC000029136020    0.0700
47     H47    -0.8064    0.6100   -4.8172 H        1 ZINC000029136020    0.4300
48     H48    -1.6522   -2.7726   -5.0973 H        1 ZINC000029136020    0.1400
49     H49    -1.5875   -4.1004   -7.1684 H        1 ZINC000029136020    0.1400
50     H50    -0.3833   -1.8128  -10.8203 H        1 ZINC000029136020    0.0800
51     H51     1.1704   -2.5210  -10.3176 H        1 ZINC000029136020    0.1100
52     H52     0.6340   -3.2909  -12.5788 H        1 ZINC000029136020    0.1500
53     H53     0.5059   -4.6623  -11.4513 H        1 ZINC000029136020    0.1400
54     H54    -2.2238   -1.9856  -11.9222 H        1 ZINC000029136020    0.1300
55     H55    -1.1389   -2.1534  -13.3406 H        1 ZINC000029136020    0.1300
56     H56    -3.9477   -3.3259  -12.9434 H        1 ZINC000029136020    0.1000
57     H57    -3.3049   -2.4313  -14.3596 H        1 ZINC000029136020    0.1200
58     H58    -3.3365   -5.2201  -14.1818 H        1 ZINC000029136020    0.1100
59     H59    -2.1605   -4.3046  -15.1725 H        1 ZINC000029136020    0.1000
60     H60    -0.4669   -4.9477  -13.7696 H        1 ZINC000029136020    0.1300
61     H61    -1.6358   -5.8921  -12.8036 H        1 ZINC000029136020    0.1300
62     H62     0.4934   -0.9304   -9.1385 H        1 ZINC000029136020    0.1300
63     H63     0.4255    0.4015   -7.0702 H        1 ZINC000029136020    0.1400
64     H64     0.3589   -3.9317    0.0173 H        1 ZINC000029136020    0.1500
65     H65    -1.1335   -4.4998    1.9893 H        1 ZINC000029136020    0.1400
66     H66    -2.4551   -7.5220    5.3090 H        1 ZINC000029136020    0.1400
67     H67    -3.3761   -9.7382    5.8466 H        1 ZINC000029136020    0.1400
68     H68    -2.3989  -11.7589    4.8399 H        1 ZINC000029136020    0.1300
69     H69    -0.4978  -11.5768    3.2894 H        1 ZINC000029136020    0.1400
70     H70     0.4341   -9.3700    2.7323 H        1 ZINC000029136020    0.1400
71     H71     0.6837   -4.6005    5.8546 H        1 ZINC000029136020    0.1500
72     H72     1.8147   -2.4671    5.3879 H        1 ZINC000029136020    0.1500
73     H73    -0.4942   -0.2622    2.0581 H        1 ZINC000029136020    0.1500
@<TRIPOS>BOND
1     1     2     1
2     1     44    1
3     1     45    1
4     1     46    1
5     2     43    ar
6     2     3     ar
7     3     24    ar
8     3     4     ar
9     4     5     ar
10    5     6     1
11    5     22    ar
12    6     7     1
13    6     47    1
14    7     21    ar
15    7     8     ar
16    8     9     ar
17    8     48    1
18    9     10    ar
19    9     49    1
20    10    11    1
21    10    20    ar
22    11    12    1
23    12    13    1
24    12    50    1
25    12    51    1
26    13    14    1
27    13    52    1
28    13    53    1
29    14    15    1
30    14    19    1
31    14    16    1
32    16    17    1
33    16    54    1
34    16    55    1
35    17    18    1
36    17    56    1
37    17    57    1
38    18    19    1
39    18    58    1
40    18    59    1
41    19    60    1
42    19    61    1
43    20    21    ar
44    20    62    1
45    21    63    1
46    22    23    ar
47    23    24    ar
48    24    25    ar
49    25    26    ar
50    25    64    1
51    26    27    1
52    26    43    ar
53    27    41    ar
54    27    28    ar
55    28    29    ar
56    28    65    1
57    29    30    1
58    29    39    ar
59    30    31    1
60    31    32    2
61    31    33    1
62    33    38    ar
63    33    34    ar
64    34    35    ar
65    34    66    1
66    35    36    ar
67    35    67    1
68    36    37    ar
69    36    68    1
70    37    38    ar
71    37    69    1
72    38    70    1
73    39    40    ar
74    39    71    1
75    40    41    ar
76    40    72    1
77    41    42    1
78    43    73    1
@<TRIPOS>SUBSTRUCTURE
1   ZINC000029136020 1     RESIDUE    1   A     ZIN   1
