@<TRIPOS>MOLECULE
ZINC000003993833
53    55    1     0     0
SMALL
USER_CHARGES
@<TRIPOS>ATOM
1      C1     -0.1144    1.1131    0.2953 C.3      1 ZINC000003993833    0.0200
2      O2     -0.0376   -0.3037    0.1259 O.3      1 ZINC000003993833   -0.3100
3      C3      0.5872   -0.7587   -0.9928 C.ar     1 ZINC000003993833    0.1200
4      C4      1.1188    0.1444   -1.9030 C.ar     1 ZINC000003993833   -0.2000
5      C5      1.7607   -0.3118   -3.0351 C.ar     1 ZINC000003993833   -0.0200
6      C6      1.8821   -1.6824   -3.2618 C.ar     1 ZINC000003993833   -0.0700
7      C7      2.6121   -2.1452   -4.4655 C.ar     1 ZINC000003993833   -0.0600
8      C8      2.0664   -3.1046   -5.3116 C.ar     1 ZINC000003993833   -0.0700
9      C9      2.7624   -3.4987   -6.4371 C.ar     1 ZINC000003993833   -0.1400
10     C10     3.9994   -2.9374   -6.7220 C.ar     1 ZINC000003993833    0.1600
11     O11     4.6759   -3.3210   -7.8365 O.3      1 ZINC000003993833   -0.6600
12     P12     4.3413   -2.4395   -9.1415 P.3      1 ZINC000003993833    2.1700
13     O13     4.5868   -0.9461   -8.8311 O.2      1 ZINC000003993833   -1.0800
14     O14     2.8623   -2.6468   -9.5376 O.3      1 ZINC000003993833   -1.0800
15     O15     5.2918   -2.8983  -10.3572 O.3      1 ZINC000003993833   -0.8900
16     C16     4.5487   -1.9850   -5.8730 C.ar     1 ZINC000003993833   -0.1200
17     C17     3.8644   -1.5967   -4.7420 C.ar     1 ZINC000003993833   -0.0700
18     C18     4.4666   -0.6115   -3.7782 C.3      1 ZINC000003993833    0.1900
19     H19     4.3103   -0.9665   -2.7596 H        1 ZINC000003993833    0.1000
20     N20     5.9052   -0.5063   -4.0347 N.am     1 ZINC000003993833   -0.7300
21     C21     6.7562   -1.3867   -3.4715 C.2      1 ZINC000003993833    0.5100
22     C22     8.2360   -1.2785   -3.7354 C.3      1 ZINC000003993833   -0.1800
23     O23     6.3311   -2.2660   -2.7524 O.2      1 ZINC000003993833   -0.5400
24     C24     3.8304    0.7663   -3.9310 C.3      1 ZINC000003993833   -0.1100
25     C25     2.3141    0.6543   -4.0467 C.3      1 ZINC000003993833   -0.0800
26     C26     1.3372   -2.5935   -2.3571 C.ar     1 ZINC000003993833    0.1400
27     O27     1.4387   -3.9297   -2.5867 O.3      1 ZINC000003993833   -0.3200
28     C28     2.6462   -4.5698   -2.1694 C.3      1 ZINC000003993833    0.0400
29     C29     0.6956   -2.1269   -1.2172 C.ar     1 ZINC000003993833    0.0400
30     O30     0.1643   -3.0075   -0.3258 O.3      1 ZINC000003993833   -0.3100
31     C31     0.9696   -3.3538    0.8027 C.3      1 ZINC000003993833    0.0300
32     H32     0.8922    1.5298    0.3320 H        1 ZINC000003993833    0.0600
33     H33    -0.6582    1.5502   -0.5421 H        1 ZINC000003993833    0.0600
34     H34    -0.6357    1.3401    1.2253 H        1 ZINC000003993833    0.1000
35     H35     1.0294    1.2058   -1.7245 H        1 ZINC000003993833    0.1400
36     H36     1.1032   -3.5396   -5.0891 H        1 ZINC000003993833    0.1300
37     H37     2.3439   -4.2448   -7.0964 H        1 ZINC000003993833    0.1300
38     H38     5.1448   -2.4084  -11.1779 H        1 ZINC000003993833    0.4200
39     H39     5.5108   -1.5495   -6.0992 H        1 ZINC000003993833    0.1300
40     H40     6.2451    0.1969   -4.6098 H        1 ZINC000003993833    0.4000
41     H41     8.5961   -0.3084   -3.3931 H        1 ZINC000003993833    0.0900
42     H42     8.7594   -2.0702   -3.1993 H        1 ZINC000003993833    0.0900
43     H43     8.4227   -1.3789   -4.8046 H        1 ZINC000003993833    0.0900
44     H44     4.0793    1.3745   -3.0614 H        1 ZINC000003993833    0.0700
45     H45     4.2241    1.2456   -4.8273 H        1 ZINC000003993833    0.0800
46     H46     2.0567    0.3089   -5.0479 H        1 ZINC000003993833    0.0900
47     H47     1.8698    1.6362   -3.8834 H        1 ZINC000003993833    0.0800
48     H48     3.5003   -4.0615   -2.6169 H        1 ZINC000003993833    0.0600
49     H49     2.7248   -4.5246   -1.0832 H        1 ZINC000003993833    0.0400
50     H50     2.6347   -5.6116   -2.4898 H        1 ZINC000003993833    0.1000
51     H51     0.3966   -3.9912    1.4761 H        1 ZINC000003993833    0.0900
52     H52     1.8578   -3.8878    0.4650 H        1 ZINC000003993833    0.0400
53     H53     1.2687   -2.4467    1.3277 H        1 ZINC000003993833    0.0500
@<TRIPOS>BOND
1     1     2     1
2     1     32    1
3     1     33    1
4     1     34    1
5     2     3     1
6     3     29    ar
7     3     4     ar
8     4     5     ar
9     4     35    1
10    5     25    1
11    5     6     ar
12    6     7     1
13    6     26    ar
14    7     17    ar
15    7     8     ar
16    8     9     ar
17    8     36    1
18    9     10    ar
19    9     37    1
20    10    11    1
21    10    16    ar
22    11    12    1
23    12    13    2
24    12    14    1
25    12    15    1
26    15    38    1
27    16    17    ar
28    16    39    1
29    17    18    1
30    18    19    1
31    18    20    1
32    18    24    1
33    20    21    am
34    20    40    1
35    21    22    1
36    21    23    2
37    22    41    1
38    22    42    1
39    22    43    1
40    24    25    1
41    24    44    1
42    24    45    1
43    25    46    1
44    25    47    1
45    26    27    1
46    26    29    ar
47    27    28    1
48    28    48    1
49    28    49    1
50    28    50    1
51    29    30    1
52    30    31    1
53    31    51    1
54    31    52    1
55    31    53    1
@<TRIPOS>SUBSTRUCTURE
1   ZINC000003993833 1     RESIDUE    1   A     ZIN   1
