@<TRIPOS>MOLECULE
ZINC000014128264
68    69    1     0     0
SMALL
USER_CHARGES
@<TRIPOS>ATOM
1      C1     -0.0187    1.5258    0.0104 C.3      1 ZINC000014128264   -0.1500
2      C2      0.0021   -0.0041    0.0020 C.3      1 ZINC000014128264   -0.1300
3      C3     -1.4333   -0.5336    0.0129 C.3      1 ZINC000014128264   -0.1200
4      C4     -1.4126   -2.0635    0.0045 C.3      1 ZINC000014128264   -0.1200
5      C5     -2.8479   -2.5931    0.0153 C.3      1 ZINC000014128264   -0.1200
6      C6     -2.8272   -4.1229    0.0069 C.3      1 ZINC000014128264   -0.1200
7      C7     -4.2626   -4.6525    0.0178 C.3      1 ZINC000014128264   -0.1200
8      C8     -4.2418   -6.1823    0.0094 C.3      1 ZINC000014128264   -0.1200
9      C9     -5.6772   -6.7119    0.0202 C.3      1 ZINC000014128264   -0.1200
10     C10    -5.6565   -8.2417    0.0118 C.3      1 ZINC000014128264   -0.1200
11     C11    -7.0918   -8.7713    0.0227 C.3      1 ZINC000014128264   -0.1200
12     C12    -7.0711  -10.3012    0.0143 C.3      1 ZINC000014128264   -0.1200
13     C13    -8.5065  -10.8307    0.0251 C.3      1 ZINC000014128264   -0.1200
14     C14    -8.4857  -12.3606    0.0167 C.3      1 ZINC000014128264   -0.1100
15     C15    -9.9211  -12.8902    0.0276 C.3      1 ZINC000014128264   -0.1200
16     C16    -9.9004  -14.4200    0.0191 C.3      1 ZINC000014128264    0.0800
17     O17   -11.2410  -14.9146    0.0293 O.3      1 ZINC000014128264   -0.2800
18     C18   -11.3996  -16.2544    0.0236 C.2      1 ZINC000014128264    0.5400
19     N19   -10.3316  -17.0095    0.0147 N.2      1 ZINC000014128264   -0.5700
20     C20   -10.4344  -18.3623   -0.0205 C.ar     1 ZINC000014128264    0.1700
21     C21    -9.3479  -19.2043    0.2086 C.ar     1 ZINC000014128264   -0.1100
22     C22    -9.5226  -20.5700    0.1495 C.ar     1 ZINC000014128264   -0.0600
23     C23   -10.7657  -21.1192   -0.1352 C.ar     1 ZINC000014128264   -0.1100
24     C24   -10.9242  -22.6166   -0.1962 C.3      1 ZINC000014128264   -0.1200
25     C25   -11.8571  -20.3066   -0.3623 C.ar     1 ZINC000014128264   -0.0200
26     C26   -11.7014  -18.9271   -0.3046 C.ar     1 ZINC000014128264   -0.2400
27     C27   -12.8127  -17.9855   -0.5219 C.2      1 ZINC000014128264    0.5400
28     O28   -13.8088  -18.2896   -1.1503 O.2      1 ZINC000014128264   -0.4100
29     O29   -12.6490  -16.7532    0.0329 O.3      1 ZINC000014128264   -0.3000
30     H30     1.0039    1.9031    0.0027 H        1 ZINC000014128264    0.0500
31     H31    -0.5459    1.8868   -0.8726 H        1 ZINC000014128264    0.0500
32     H32    -0.5289    1.8773    0.9072 H        1 ZINC000014128264    0.0500
33     H33     0.5123   -0.3556   -0.8948 H        1 ZINC000014128264    0.0600
34     H34     0.5293   -0.3651    0.8851 H        1 ZINC000014128264    0.0600
35     H35    -1.9435   -0.1821    0.9097 H        1 ZINC000014128264    0.0600
36     H36    -1.9605   -0.1726   -0.8702 H        1 ZINC000014128264    0.0600
37     H37    -0.9024   -2.4150   -0.8923 H        1 ZINC000014128264    0.0600
38     H38    -0.8854   -2.4246    0.8875 H        1 ZINC000014128264    0.0600
39     H39    -3.3581   -2.2415    0.9121 H        1 ZINC000014128264    0.0600
40     H40    -3.3751   -2.2320   -0.8677 H        1 ZINC000014128264    0.0600
41     H41    -2.3170   -4.4744   -0.8899 H        1 ZINC000014128264    0.0600
42     H42    -2.3000   -4.4840    0.8900 H        1 ZINC000014128264    0.0600
43     H43    -4.7728   -4.3010    0.9146 H        1 ZINC000014128264    0.0600
44     H44    -4.7898   -4.2914   -0.8653 H        1 ZINC000014128264    0.0600
45     H45    -3.7316   -6.5338   -0.8874 H        1 ZINC000014128264    0.0600
46     H46    -3.7146   -6.5434    0.8924 H        1 ZINC000014128264    0.0600
47     H47    -6.1874   -6.3604    0.9170 H        1 ZINC000014128264    0.0600
48     H48    -6.2044   -6.3508   -0.8628 H        1 ZINC000014128264    0.0600
49     H49    -5.1463   -8.5933   -0.8850 H        1 ZINC000014128264    0.0600
50     H50    -5.1293   -8.6028    0.8949 H        1 ZINC000014128264    0.0600
51     H51    -7.6020   -8.4198    0.9195 H        1 ZINC000014128264    0.0600
52     H52    -7.6190   -8.4102   -0.8604 H        1 ZINC000014128264    0.0600
53     H53    -6.5609  -10.6527   -0.8825 H        1 ZINC000014128264    0.0600
54     H54    -6.5439  -10.6622    0.8973 H        1 ZINC000014128264    0.0600
55     H55    -9.0167  -10.4792    0.9219 H        1 ZINC000014128264    0.0600
56     H56    -9.0337  -10.4697   -0.8579 H        1 ZINC000014128264    0.0600
57     H57    -7.9755  -12.7121   -0.8801 H        1 ZINC000014128264    0.0700
58     H58    -7.9586  -12.7217    0.8998 H        1 ZINC000014128264    0.0700
59     H59   -10.4313  -12.5386    0.9244 H        1 ZINC000014128264    0.0800
60     H60   -10.4483  -12.5291   -0.8555 H        1 ZINC000014128264    0.0800
61     H61    -9.3902  -14.7715   -0.8776 H        1 ZINC000014128264    0.0800
62     H62    -9.3732  -14.7811    0.9022 H        1 ZINC000014128264    0.0800
63     H63    -8.3757  -18.7895    0.4306 H        1 ZINC000014128264    0.1400
64     H64    -8.6804  -21.2225    0.3268 H        1 ZINC000014128264    0.1400
65     H65   -11.1844  -22.9949    0.7923 H        1 ZINC000014128264    0.0800
66     H66   -11.7152  -22.8698   -0.9020 H        1 ZINC000014128264    0.0700
67     H67    -9.9874  -23.0680   -0.5230 H        1 ZINC000014128264    0.0700
68     H68   -12.8222  -20.7381   -0.5832 H        1 ZINC000014128264    0.1400
@<TRIPOS>BOND
1     1     2     1
2     1     30    1
3     1     31    1
4     1     32    1
5     2     3     1
6     2     33    1
7     2     34    1
8     3     4     1
9     3     35    1
10    3     36    1
11    4     5     1
12    4     37    1
13    4     38    1
14    5     6     1
15    5     39    1
16    5     40    1
17    6     7     1
18    6     41    1
19    6     42    1
20    7     8     1
21    7     43    1
22    7     44    1
23    8     9     1
24    8     45    1
25    8     46    1
26    9     10    1
27    9     47    1
28    9     48    1
29    10    11    1
30    10    49    1
31    10    50    1
32    11    12    1
33    11    51    1
34    11    52    1
35    12    13    1
36    12    53    1
37    12    54    1
38    13    14    1
39    13    55    1
40    13    56    1
41    14    15    1
42    14    57    1
43    14    58    1
44    15    16    1
45    15    59    1
46    15    60    1
47    16    17    1
48    16    61    1
49    16    62    1
50    17    18    1
51    18    29    1
52    18    19    2
53    19    20    1
54    20    26    ar
55    20    21    ar
56    21    22    ar
57    21    63    1
58    22    23    ar
59    22    64    1
60    23    24    1
61    23    25    ar
62    24    65    1
63    24    66    1
64    24    67    1
65    25    26    ar
66    25    68    1
67    26    27    1
68    27    28    2
69    27    29    1
@<TRIPOS>SUBSTRUCTURE
1   ZINC000014128264 1     RESIDUE    1   A     ZIN   1
