@<TRIPOS>MOLECULE
ZINC000299888869
71    76    1     0     0
SMALL
USER_CHARGES
@<TRIPOS>ATOM
1      C1     -1.3517    1.6799    2.2767 C.3      1 ZINC000299888869   -0.1500
2      C2     -1.3697    0.1762    2.3746 C.2      1 ZINC000299888869    0.4600
3      O3     -0.9342   -0.3703    3.3602 O.2      1 ZINC000299888869   -0.5100
4      O4     -1.8697   -0.5560    1.3668 O.3      1 ZINC000299888869   -0.3400
5      C5     -1.8550   -1.9988    1.5297 C.3      1 ZINC000299888869    0.0200
6      C6     -2.4512   -2.6484    0.3076 C.2      1 ZINC000299888869    0.3900
7      O7     -2.8476   -1.9659   -0.6063 O.2      1 ZINC000299888869   -0.4000
8      C8     -2.5527   -4.1498    0.2261 C.3      1 ZINC000299888869    0.0500
9      O9     -1.4974   -4.8341    0.9318 O.3      1 ZINC000299888869   -0.3500
10     C10    -1.1653   -6.0025    0.1797 C.3      1 ZINC000299888869    0.2600
11     C11     0.3165   -5.9646   -0.2350 C.3      1 ZINC000299888869   -0.1500
12     C12     1.0337   -6.8147    0.8441 C.3      1 ZINC000299888869   -0.1200
13     C13     0.0199   -7.9550    1.1120 C.3      1 ZINC000299888869   -0.1300
14     C14    -1.3573   -7.2621    1.0373 C.3      1 ZINC000299888869   -0.1300
15     O15    -1.9977   -6.0693   -0.9848 O.3      1 ZINC000299888869   -0.3500
16     C16    -2.4164   -4.7093   -1.2272 C.3      1 ZINC000299888869    0.0700
17     H17    -1.7201   -4.1466   -1.8489 H        1 ZINC000299888869    0.1100
18     C18    -3.8580   -4.7133   -1.7747 C.3      1 ZINC000299888869   -0.1200
19     C19    -4.7634   -5.0059   -0.5500 C.3      1 ZINC000299888869   -0.0600
20     H20    -5.0380   -6.0607   -0.5569 H        1 ZINC000299888869    0.1000
21     C21    -6.0183   -4.1674   -0.6891 C.3      1 ZINC000299888869   -0.1100
22     H22    -5.7603   -3.2330   -1.1875 H        1 ZINC000299888869    0.1000
23     C23    -7.0594   -4.9062   -1.5409 C.3      1 ZINC000299888869   -0.1200
24     C24    -8.1011   -3.8814   -1.9935 C.3      1 ZINC000299888869   -0.0900
25     C25    -8.5854   -3.0735   -0.8257 C.2      1 ZINC000299888869   -0.0500
26     C26    -9.6929   -2.3128   -0.9853 C.2      1 ZINC000299888869   -0.2300
27     C27   -10.0690   -1.5025    0.2056 C.2      1 ZINC000299888869    0.4100
28     O28   -11.2217   -1.3744    0.5740 O.2      1 ZINC000299888869   -0.4500
29     C29    -8.9252   -0.8611    0.9116 C.2      1 ZINC000299888869   -0.2300
30     C30    -7.8307   -1.6410    1.0508 C.2      1 ZINC000299888869   -0.0600
31     C31    -7.9213   -3.0394    0.5090 C.3      1 ZINC000299888869   -0.0300
32     C32    -8.9032   -3.7464    1.4454 C.3      1 ZINC000299888869   -0.1500
33     C33    -6.6620   -3.8434    0.6479 C.3      1 ZINC000299888869    0.1700
34     F34    -6.9722   -5.0354    1.3113 F        1 ZINC000299888869   -0.1900
35     C35    -5.6171   -3.0994    1.4879 C.3      1 ZINC000299888869    0.0800
36     H36    -5.1898   -2.2815    0.9076 H        1 ZINC000299888869    0.0700
37     O37    -6.2246   -2.5862    2.6751 O.3      1 ZINC000299888869   -0.5500
38     C38    -4.5252   -4.1012    1.8538 C.3      1 ZINC000299888869   -0.1300
39     C39    -3.9105   -4.6934    0.6857 C.3      1 ZINC000299888869   -0.0600
40     C40    -3.5767   -6.1239    1.1137 C.3      1 ZINC000299888869   -0.2100
41     H41    -0.9124    2.0977    3.1825 H        1 ZINC000299888869    0.1100
42     H42    -0.7584    1.9807    1.4131 H        1 ZINC000299888869    0.1000
43     H43    -2.3710    2.0489    2.1635 H        1 ZINC000299888869    0.1000
44     H44    -0.8275   -2.3395    1.6576 H        1 ZINC000299888869    0.1200
45     H45    -2.4401   -2.2712    2.4081 H        1 ZINC000299888869    0.1100
46     H46     0.4483   -6.4096   -1.2213 H        1 ZINC000299888869    0.0900
47     H47     0.6898   -4.9405   -0.2244 H        1 ZINC000299888869    0.0800
48     H48     1.9721   -7.2146    0.4599 H        1 ZINC000299888869    0.0700
49     H49     1.2034   -6.2287    1.7474 H        1 ZINC000299888869    0.0700
50     H50     0.1013   -8.7258    0.3457 H        1 ZINC000299888869    0.0700
51     H51     0.1789   -8.3819    2.1023 H        1 ZINC000299888869    0.0700
52     H52    -1.6917   -6.9861    2.0373 H        1 ZINC000299888869    0.1000
53     H53    -2.0846   -7.9256    0.5693 H        1 ZINC000299888869    0.0900
54     H54    -4.1025   -3.7403   -2.2008 H        1 ZINC000299888869    0.1000
55     H55    -3.9745   -5.4949   -2.5254 H        1 ZINC000299888869    0.0900
56     H56    -6.5766   -5.3513   -2.4109 H        1 ZINC000299888869    0.0800
57     H57    -7.5396   -5.6832   -0.9460 H        1 ZINC000299888869    0.0800
58     H58    -7.6535   -3.2151   -2.7309 H        1 ZINC000299888869    0.0900
59     H59    -8.9453   -4.4021   -2.4454 H        1 ZINC000299888869    0.0900
60     H60   -10.2595   -2.2947   -1.9045 H        1 ZINC000299888869    0.1500
61     H61    -8.9674    0.1518    1.2841 H        1 ZINC000299888869    0.1500
62     H62    -6.9335   -1.2766    1.5291 H        1 ZINC000299888869    0.1600
63     H63    -9.8652   -3.2349    1.4164 H        1 ZINC000299888869    0.0600
64     H64    -9.0314   -4.7801    1.1242 H        1 ZINC000299888869    0.0700
65     H65    -8.5123   -3.7279    2.4628 H        1 ZINC000299888869    0.0800
66     H66    -5.6161   -2.1038    3.2514 H        1 ZINC000299888869    0.3800
67     H67    -3.7232   -3.5719    2.3684 H        1 ZINC000299888869    0.0700
68     H68    -4.9444   -4.8423    2.5343 H        1 ZINC000299888869    0.1000
69     H69    -4.4808   -6.6165    1.4716 H        1 ZINC000299888869    0.0600
70     H70    -3.1762   -6.6739    0.2620 H        1 ZINC000299888869    0.1000
71     H71    -2.8352   -6.1006    1.9123 H        1 ZINC000299888869    0.0800
@<TRIPOS>BOND
1     1     2     1
2     1     41    1
3     1     42    1
4     1     43    1
5     2     3     2
6     2     4     1
7     4     5     1
8     5     6     1
9     5     44    1
10    5     45    1
11    6     7     2
12    6     8     1
13    8     16    1
14    8     39    1
15    8     9     1
16    9     10    1
17    10    14    1
18    10    11    1
19    10    15    1
20    11    12    1
21    11    46    1
22    11    47    1
23    12    13    1
24    12    48    1
25    12    49    1
26    13    14    1
27    13    50    1
28    13    51    1
29    14    52    1
30    14    53    1
31    15    16    1
32    16    17    1
33    16    18    1
34    18    19    1
35    18    54    1
36    18    55    1
37    19    20    1
38    19    39    1
39    19    21    1
40    21    22    1
41    21    33    1
42    21    23    1
43    23    24    1
44    23    56    1
45    23    57    1
46    24    25    1
47    24    58    1
48    24    59    1
49    25    31    1
50    25    26    2
51    26    27    1
52    26    60    1
53    27    28    2
54    27    29    1
55    29    30    2
56    29    61    1
57    30    31    1
58    30    62    1
59    31    32    1
60    31    33    1
61    32    63    1
62    32    64    1
63    32    65    1
64    33    34    1
65    33    35    1
66    35    36    1
67    35    37    1
68    35    38    1
69    37    66    1
70    38    39    1
71    38    67    1
72    38    68    1
73    39    40    1
74    40    69    1
75    40    70    1
76    40    71    1
@<TRIPOS>SUBSTRUCTURE
1   ZINC000299888869 1     RESIDUE    1   A     ZIN   1
