@<TRIPOS>MOLECULE
ZINC000005962605
  63   62    0    0    0
SMALL
USER_CHARGES
NO_NAME
@<TRIPOS>ATOM
    1 C1       -0.0187     1.5258     0.0104 C.3    1 <0>      -0.1500
    2 C2        0.0021    -0.0041     0.0020 C.3    1 <0>      -0.1000
    3 C3        0.7182    -0.4975    -1.2568 C.3    1 <0>      -0.1500
    4 C4        0.7421    -0.5109     1.2415 C.3    1 <0>      -0.1200
    5 C5       -0.0416    -0.1236     2.4973 C.3    1 <0>      -0.1200
    6 C6        0.6984    -0.6305     3.7368 C.3    1 <0>      -0.1200
    7 C7       -0.0853    -0.2432     4.9925 C.3    1 <0>      -0.0900
    8 H8       -1.1063    -0.6163     4.9130 H      1 <0>       0.0700
    9 C9       -0.1083     1.2805     5.1296 C.3    1 <0>      -0.1500
   10 C10       0.5873    -0.8559     6.2226 C.3    1 <0>      -0.1200
   11 C11      -0.2635    -0.5739     7.4626 C.3    1 <0>      -0.1200
   12 C12       0.4091    -1.1866     8.6927 C.3    1 <0>      -0.1200
   13 C13      -0.4417    -0.9046     9.9326 C.3    1 <0>      -0.0900
   14 H14      -1.4565    -1.2661     9.7669 H      1 <0>       0.0700
   15 C15      -0.4739     0.6020    10.1972 C.3    1 <0>      -0.1500
   16 C16       0.1643    -1.6217    11.1408 C.3    1 <0>      -0.1200
   17 C17      -0.7526    -1.4430    12.3525 C.3    1 <0>      -0.1200
   18 C18      -0.1467    -2.1601    13.5606 C.3    1 <0>      -0.1100
   19 C19      -1.0635    -1.9815    14.7724 C.3    1 <0>      -0.0900
   20 H20      -2.0675    -2.3242    14.5221 H      1 <0>       0.0700
   21 C21      -1.1118    -0.5026    15.1618 C.3    1 <0>      -0.1500
   22 C22      -0.5229    -2.8006    15.9462 C.3    1 <0>      -0.1200
   23 C23      -1.5040    -2.7222    17.1175 C.3    1 <0>       0.0700
   24 O24      -0.9991    -3.4872    18.2138 O.3    1 <0>      -0.5800
   25 H25       1.0039     1.9031     0.0027 H      1 <0>       0.0500
   26 H26      -0.5459     1.8868    -0.8726 H      1 <0>       0.0500
   27 H27      -0.5289     1.8773     0.9072 H      1 <0>       0.0600
   28 H28      -1.0205    -0.3814     0.0098 H      1 <0>       0.0700
   29 H29       1.7408    -0.1202    -1.2645 H      1 <0>       0.0500
   30 H30       0.7330    -1.5874    -1.2628 H      1 <0>       0.0500
   31 H31       0.1910    -0.1364    -2.1398 H      1 <0>       0.0500
   32 H32       0.8346    -1.5958     1.1912 H      1 <0>       0.0600
   33 H33       1.7350    -0.0630     1.2804 H      1 <0>       0.0600
   34 H34      -0.1341     0.9613     2.5476 H      1 <0>       0.0700
   35 H35      -1.0345    -0.5716     2.4584 H      1 <0>       0.0600
   36 H36       0.7909    -1.7154     3.6864 H      1 <0>       0.0600
   37 H37       1.6914    -0.1825     3.7756 H      1 <0>       0.0600
   38 H38      -0.5874     1.7170     4.2533 H      1 <0>       0.0500
   39 H39      -0.6665     1.5564     6.0242 H      1 <0>       0.0500
   40 H40       0.9128     1.6536     5.2091 H      1 <0>       0.0500
   41 H41       0.6837    -1.9329     6.0854 H      1 <0>       0.0600
   42 H42       1.5762    -0.4162     6.3528 H      1 <0>       0.0600
   43 H43      -0.3599     0.5031     7.5998 H      1 <0>       0.0700
   44 H44      -1.2523    -1.0135     7.3324 H      1 <0>       0.0600
   45 H45       0.5055    -2.2636     8.5554 H      1 <0>       0.0600
   46 H46       1.3980    -0.7469     8.8229 H      1 <0>       0.0600
   47 H47      -1.0800     0.8029    11.0806 H      1 <0>       0.0500
   48 H48       0.5410     0.9636    10.3630 H      1 <0>       0.0500
   49 H49      -0.9055     1.1129     9.3365 H      1 <0>       0.0500
   50 H50       0.2692    -2.6835    10.9180 H      1 <0>       0.0600
   51 H51       1.1441    -1.1980    11.3609 H      1 <0>       0.0600
   52 H52      -0.8575    -0.3812    12.5753 H      1 <0>       0.0700
   53 H53      -1.7325    -1.8667    12.1323 H      1 <0>       0.0600
   54 H54      -0.0417    -3.2220    13.3378 H      1 <0>       0.0600
   55 H55       0.8332    -1.7365    13.7808 H      1 <0>       0.0600
   56 H56      -1.4969     0.0809    14.3256 H      1 <0>       0.0600
   57 H57      -1.7649    -0.3754    16.0251 H      1 <0>       0.0500
   58 H58      -0.1078    -0.1599    15.4121 H      1 <0>       0.0600
   59 H59      -0.4048    -3.8400    15.6400 H      1 <0>       0.0700
   60 H60       0.4432    -2.4004    16.2540 H      1 <0>       0.0700
   61 H61      -1.6221    -1.6828    17.4237 H      1 <0>       0.0500
   62 H62      -2.4701    -3.1223    16.8097 H      1 <0>       0.0400
   63 H63      -1.5713    -3.4826    18.9933 H      1 <0>       0.3800
@<TRIPOS>BOND
   1    1    2 1
   2    1   25 1
   3    1   26 1
   4    1   27 1
   5    2    3 1
   6    2    4 1
   7    2   28 1
   8    3   29 1
   9    3   30 1
  10    3   31 1
  11    4    5 1
  12    4   32 1
  13    4   33 1
  14    5    6 1
  15    5   34 1
  16    5   35 1
  17    6    7 1
  18    6   36 1
  19    6   37 1
  20    7    8 1
  21    7    9 1
  22    7   10 1
  23    9   38 1
  24    9   39 1
  25    9   40 1
  26   10   11 1
  27   10   41 1
  28   10   42 1
  29   11   12 1
  30   11   43 1
  31   11   44 1
  32   12   13 1
  33   12   45 1
  34   12   46 1
  35   13   14 1
  36   13   15 1
  37   13   16 1
  38   15   47 1
  39   15   48 1
  40   15   49 1
  41   16   17 1
  42   16   50 1
  43   16   51 1
  44   17   18 1
  45   17   52 1
  46   17   53 1
  47   18   19 1
  48   18   54 1
  49   18   55 1
  50   19   20 1
  51   19   21 1
  52   19   22 1
  53   21   56 1
  54   21   57 1
  55   21   58 1
  56   22   23 1
  57   22   59 1
  58   22   60 1
  59   23   24 1
  60   23   61 1
  61   23   62 1
  62   24   63 1
