@<TRIPOS>MOLECULE
ZINC000003834191
57    59    1     0     0
SMALL
USER_CHARGES
@<TRIPOS>ATOM
1      N1     -0.0162    1.3436    0.0094 N.am     1 ZINC000003834191   -0.8400
2      C2      0.0021   -0.0041    0.0020 C.2      1 ZINC000003834191    0.6000
3      O3      1.0641   -0.5981   -0.0113 O.2      1 ZINC000003834191   -0.5200
4      C4     -1.2579   -0.7546    0.0100 C.2      1 ZINC000003834191   -0.2800
5      C5     -1.9208   -1.1430   -1.1482 C.2      1 ZINC000003834191    0.1100
6      N6     -1.5339   -0.9055   -2.4568 N.am     1 ZINC000003834191   -0.6300
7      C7     -2.2941   -1.3525   -3.4760 C.2      1 ZINC000003834191    0.7000
8      O8     -3.3194   -1.9642   -3.2467 O.2      1 ZINC000003834191   -0.5500
9      N9     -1.9176   -1.1215   -4.7493 N.am     1 ZINC000003834191   -0.7300
10     C10    -2.7439   -1.6074   -5.8571 C.3      1 ZINC000003834191    0.1400
11     C11    -2.0965   -1.2148   -7.1866 C.3      1 ZINC000003834191   -0.1300
12     C12    -2.9595   -1.7222   -8.3436 C.3      1 ZINC000003834191   -0.1400
13     C13    -2.3121   -1.3296   -9.6731 C.3      1 ZINC000003834191    0.0000
14     N14    -3.1406   -1.8169  -10.7840 N.4      1 ZINC000003834191   -0.4000
15     H15    -3.3033   -2.8081  -10.6885 H        1 ZINC000003834191    0.4300
16     C16    -4.4335   -1.0865  -10.8173 C.3      1 ZINC000003834191   -0.0100
17     C17    -4.9105   -1.2765  -12.2791 C.3      1 ZINC000003834191   -0.1500
18     C18    -3.5944   -1.1920  -13.0859 C.3      1 ZINC000003834191   -0.1500
19     C19    -2.4807   -1.5305  -12.0763 C.3      1 ZINC000003834191   -0.0100
20     S20    -3.3231   -1.9819   -0.6116 S.3      1 ZINC000003834191    0.4400
21     N21    -3.0163   -1.8087    1.0457 N.2      1 ZINC000003834191   -0.5600
22     C22    -1.9049   -1.1535    1.1833 C.2      1 ZINC000003834191    0.3700
23     O23    -1.3988   -0.8611    2.4091 O.3      1 ZINC000003834191   -0.2800
24     C24    -2.1459   -1.3073    3.5426 C.3      1 ZINC000003834191    0.1100
25     C25    -1.4358   -0.8948    4.8062 C.ar     1 ZINC000003834191   -0.1600
26     C26    -0.4966   -1.7353    5.3786 C.ar     1 ZINC000003834191    0.1700
27     F27    -0.2159   -2.9255    4.8043 F        1 ZINC000003834191   -0.1100
28     C28     0.1554   -1.3557    6.5396 C.ar     1 ZINC000003834191   -0.1400
29     C29    -0.1318   -0.1374    7.1276 C.ar     1 ZINC000003834191   -0.0300
30     Br30    0.7592    0.3801    8.7132 Br       1 ZINC000003834191   -0.0100
31     C31    -1.0701    0.7028    6.5563 C.ar     1 ZINC000003834191   -0.1400
32     C32    -1.7183    0.3272    5.3920 C.ar     1 ZINC000003834191    0.1700
33     F33    -2.6346    1.1483    4.8338 F        1 ZINC000003834191   -0.1200
34     H34     0.8172    1.8399    0.0041 H        1 ZINC000003834191    0.4100
35     H35    -0.8627    1.8171    0.0160 H        1 ZINC000003834191    0.4000
36     H36    -0.7158   -0.4174   -2.6397 H        1 ZINC000003834191    0.4200
37     H37    -1.0995   -0.6334   -4.9322 H        1 ZINC000003834191    0.4000
38     H38    -2.8266   -2.6927   -5.7998 H        1 ZINC000003834191    0.0800
39     H39    -3.7372   -1.1633   -5.7915 H        1 ZINC000003834191    0.0800
40     H40    -2.0138   -0.1294   -7.2439 H        1 ZINC000003834191    0.0800
41     H41    -1.1032   -1.6588   -7.2522 H        1 ZINC000003834191    0.0800
42     H42    -3.0422   -2.8076   -8.2863 H        1 ZINC000003834191    0.0900
43     H43    -3.9527   -1.2782   -8.2780 H        1 ZINC000003834191    0.0900
44     H44    -2.2293   -0.2443   -9.7304 H        1 ZINC000003834191    0.1300
45     H45    -1.3188   -1.7737   -9.7387 H        1 ZINC000003834191    0.1300
46     H46    -5.1442   -1.5303  -10.1200 H        1 ZINC000003834191    0.1400
47     H47    -4.2843   -0.0298  -10.5956 H        1 ZINC000003834191    0.1300
48     H48    -5.3800   -2.2517  -12.4080 H        1 ZINC000003834191    0.1000
49     H49    -5.5927   -0.4774  -12.5692 H        1 ZINC000003834191    0.1200
50     H50    -3.6012   -1.9190  -13.8981 H        1 ZINC000003834191    0.1100
51     H51    -3.4560   -0.1851  -13.4796 H        1 ZINC000003834191    0.1000
52     H52    -1.8069   -0.6805  -11.9678 H        1 ZINC000003834191    0.1300
53     H53    -1.9266   -2.4062  -12.4143 H        1 ZINC000003834191    0.1300
54     H54    -3.1397   -0.8600    3.5218 H        1 ZINC000003834191    0.0900
55     H55    -2.2356   -2.3932    3.5142 H        1 ZINC000003834191    0.0900
56     H56     0.8882   -2.0114    6.9862 H        1 ZINC000003834191    0.1600
57     H57    -1.2942    1.6539    7.0162 H        1 ZINC000003834191    0.1600
@<TRIPOS>BOND
1     1     2     am
2     1     34    1
3     1     35    1
4     2     3     2
5     2     4     1
6     4     22    1
7     4     5     2
8     5     6     1
9     5     20    1
10    6     7     am
11    6     36    1
12    7     8     2
13    7     9     am
14    9     10    1
15    9     37    1
16    10    11    1
17    10    38    1
18    10    39    1
19    11    12    1
20    11    40    1
21    11    41    1
22    12    13    1
23    12    42    1
24    12    43    1
25    13    14    1
26    13    44    1
27    13    45    1
28    14    15    1
29    14    19    1
30    14    16    1
31    16    17    1
32    16    46    1
33    16    47    1
34    17    18    1
35    17    48    1
36    17    49    1
37    18    19    1
38    18    50    1
39    18    51    1
40    19    52    1
41    19    53    1
42    20    21    1
43    21    22    2
44    22    23    1
45    23    24    1
46    24    25    1
47    24    54    1
48    24    55    1
49    25    32    ar
50    25    26    ar
51    26    27    1
52    26    28    ar
53    28    29    ar
54    28    56    1
55    29    30    1
56    29    31    ar
57    31    32    ar
58    31    57    1
59    32    33    1
@<TRIPOS>SUBSTRUCTURE
1   ZINC000003834191 1     RESIDUE    1   A     ZIN   1
