@<TRIPOS>MOLECULE
ZINC000003985629
46    46    1     0     0
SMALL
USER_CHARGES
@<TRIPOS>ATOM
1      C1      0.8474    1.3378    0.3020 C.3      1 ZINC000003985629    0.0300
2      O2      0.2659    0.0749   -0.0280 O.3      1 ZINC000003985629   -0.3600
3      C3      0.7132   -0.4631   -1.2740 C.3      1 ZINC000003985629    0.0800
4      H4      1.4753    0.1901   -1.6992 H        1 ZINC000003985629    0.0800
5      C5     -0.4690   -0.5636   -2.2400 C.3      1 ZINC000003985629    0.1000
6      H6     -1.2698   -1.1390   -1.7756 H        1 ZINC000003985629    0.1300
7      O7     -0.0491   -1.2147   -3.4407 O.3      1 ZINC000003985629   -0.5300
8      C8     -0.9768    0.8409   -2.5723 C.3      1 ZINC000003985629    0.0500
9      O9     -2.1548    0.7439   -3.3755 O.3      1 ZINC000003985629   -0.5600
10     C10     1.3047   -1.8555   -1.0454 C.3      1 ZINC000003985629    0.0800
11     H11     1.6958   -2.2471   -1.9844 H        1 ZINC000003985629    0.1000
12     O12     0.2931   -2.7321   -0.5415 O.3      1 ZINC000003985629   -0.2600
13     C13     0.6912   -3.9269   -0.0406 C.2      1 ZINC000003985629    0.1100
14     C14    -0.3159   -4.9849    0.1356 C.2      1 ZINC000003985629    0.5200
15     O15     0.0132   -6.0740    0.5856 O.co2    1 ZINC000003985629   -0.6600
16     O16    -1.4827   -4.7756   -0.1678 O.co2    1 ZINC000003985629   -0.6400
17     C17     1.9471   -4.1861    0.2975 C.2      1 ZINC000003985629   -0.3500
18     C18     3.0462   -3.1700    0.1445 C.3      1 ZINC000003985629    0.1800
19     H19     3.6383   -3.4056   -0.7399 H        1 ZINC000003985629    0.0900
20     N20     3.9064   -3.1987    1.3300 N.pl3    1 ZINC000003985629   -0.6700
21     C21     4.9310   -4.1014    1.4099 C.cat    1 ZINC000003985629    0.7400
22     N22     5.1466   -4.9544    0.4098 N.pl3    1 ZINC000003985629   -0.8000
23     N23     5.7131   -4.1275    2.4877 N.pl3    1 ZINC000003985629   -0.8000
24     H24     5.5561   -3.5063    3.2160 H        1 ZINC000003985629    0.4400
25     H25     6.4396   -4.7677    2.5444 H        1 ZINC000003985629    0.4400
26     C26     2.4337   -1.7740   -0.0090 C.3      1 ZINC000003985629    0.1000
27     H27     2.0299   -1.4426    0.9477 H        1 ZINC000003985629    0.1200
28     N28     3.4588   -0.8321   -0.4652 N.am     1 ZINC000003985629   -0.7300
29     C29     4.2701   -0.2336    0.4292 C.2      1 ZINC000003985629    0.5200
30     C30     5.3246    0.7352   -0.0401 C.3      1 ZINC000003985629   -0.1800
31     O31     4.1514   -0.4747    1.6119 O.2      1 ZINC000003985629   -0.5500
32     H32     1.9339    1.2515    0.2912 H        1 ZINC000003985629    0.0400
33     H33     0.5349    2.0838   -0.4287 H        1 ZINC000003985629    0.0400
34     H34     0.5169    1.6415    1.2954 H        1 ZINC000003985629    0.0900
35     H35     0.6631   -0.7569   -3.9080 H        1 ZINC000003985629    0.3600
36     H36    -1.2094    1.3711   -1.6488 H        1 ZINC000003985629    0.0600
37     H37    -0.2075    1.3853   -3.1200 H        1 ZINC000003985629    0.0400
38     H38    -2.5326    1.5985   -3.6245 H        1 ZINC000003985629    0.3800
39     H39     2.1892   -5.1600    0.6968 H        1 ZINC000003985629    0.1500
40     H40     3.7494   -2.5775    2.0582 H        1 ZINC000003985629    0.4400
41     H41     4.5770   -4.9354   -0.3751 H        1 ZINC000003985629    0.4400
42     H42     5.8731   -5.5946    0.4665 H        1 ZINC000003985629    0.4300
43     H43     3.5538   -0.6393   -1.4111 H        1 ZINC000003985629    0.4100
44     H44     4.9084    1.7424   -0.0628 H        1 ZINC000003985629    0.1000
45     H45     6.1731    0.7081    0.6436 H        1 ZINC000003985629    0.1000
46     H46     5.6551    0.4560   -1.0406 H        1 ZINC000003985629    0.0800
@<TRIPOS>BOND
1     1     2     1
2     1     32    1
3     1     33    1
4     1     34    1
5     2     3     1
6     3     4     1
7     3     5     1
8     3     10    1
9     5     6     1
10    5     7     1
11    5     8     1
12    7     35    1
13    8     9     1
14    8     36    1
15    8     37    1
16    9     38    1
17    10    11    1
18    10    26    1
19    10    12    1
20    12    13    1
21    13    14    1
22    13    17    2
23    14    15    ar
24    14    16    ar
25    17    18    1
26    17    39    1
27    18    19    1
28    18    20    1
29    18    26    1
30    20    21    ar
31    20    40    1
32    21    22    ar
33    21    23    ar
34    22    41    1
35    22    42    1
36    23    24    1
37    23    25    1
38    26    27    1
39    26    28    1
40    28    29    am
41    28    43    1
42    29    30    1
43    29    31    2
44    30    44    1
45    30    45    1
46    30    46    1
@<TRIPOS>SUBSTRUCTURE
1   ZINC000003985629 1     RESIDUE    1   A     ZIN   1
