@<TRIPOS>MOLECULE
ZINC000003794361
  51   55    0    0    0
SMALL
USER_CHARGES
NO_NAME
@<TRIPOS>ATOM
    1 C1       -0.6384     0.7390    -0.9331 C.ar   1 <0>      -0.1000
    2 C2        0.4539     1.5821    -0.8508 C.ar   1 <0>      -0.1100
    3 C3        1.7219     1.0566    -0.6863 C.ar   1 <0>      -0.1000
    4 C4        1.8974    -0.3120    -0.6037 C.ar   1 <0>      -0.1000
    5 C5        3.2798    -0.8849    -0.4248 C.3    1 <0>      -0.0600
    6 H6        4.0213    -0.0881    -0.3674 H      1 <0>       0.1100
    7 C7        3.3418    -1.7840     0.8380 C.3    1 <0>      -0.1400
    8 C8        4.5003    -2.7477     0.4794 C.3    1 <0>      -0.0200
    9 N9        4.3486    -2.9978    -0.9698 N.4    1 <0>      -0.3900
   10 H10       3.8313    -3.8520    -1.1147 H      1 <0>       0.4300
   11 C11       5.6738    -3.1092    -1.5937 C.3    1 <0>      -0.0100
   12 C12       6.3460    -4.4050    -1.1353 C.3    1 <0>      -0.0500
   13 H13       5.6636    -5.2398    -1.2951 H      1 <0>       0.1000
   14 C14       6.6763    -4.3021     0.3523 C.3    1 <0>      -0.1500
   15 C15       7.5357    -5.5109     0.7411 C.3    1 <0>      -0.1200
   16 C16       8.9108    -5.3517     0.0959 C.3    1 <0>      -0.0900
   17 C17       8.7754    -5.0665    -1.3771 C.ar   1 <0>      -0.0400
   18 C18       7.5994    -4.6266    -1.9414 C.ar   1 <0>      -0.0900
   19 C19       7.5408    -4.3734    -3.3062 C.ar   1 <0>      -0.1100
   20 C20       8.6488    -4.5621    -4.1060 C.ar   1 <0>      -0.1000
   21 C21       9.8339    -5.0093    -3.5455 C.ar   1 <0>       0.0500
   22 C22       9.8958    -5.2610    -2.1798 C.ar   1 <0>       0.0400
   23 O23      11.1556    -5.6864    -1.8702 O.3    1 <0>      -0.3000
   24 C24      11.7459    -6.0812    -3.1230 C.3    1 <0>       0.2100
   25 O25      11.0540    -5.2760    -4.0963 O.3    1 <0>      -0.3000
   26 C26       3.6174    -1.8629    -1.5698 C.3    1 <0>      -0.0100
   27 C27       0.8050    -1.1551    -0.6846 C.ar   1 <0>      -0.1200
   28 C28      -0.4628    -0.6297    -0.8510 C.ar   1 <0>      -0.1100
   29 H29      -1.6295     1.1497    -1.0571 H      1 <0>       0.1300
   30 H30       0.3168     2.6514    -0.9153 H      1 <0>       0.1300
   31 H31       2.5754     1.7154    -0.6227 H      1 <0>       0.1300
   32 H32       3.5826    -1.1966     1.7240 H      1 <0>       0.1200
   33 H33       2.4082    -2.3297     0.9750 H      1 <0>       0.1000
   34 H34       5.4622    -2.2778     0.6847 H      1 <0>       0.1400
   35 H35       4.4055    -3.6793     1.0372 H      1 <0>       0.1400
   36 H36       5.5651    -3.1203    -2.6782 H      1 <0>       0.1400
   37 H37       6.2870    -2.2578    -1.2987 H      1 <0>       0.1400
   38 H38       7.2289    -3.3821     0.5429 H      1 <0>       0.0800
   39 H39       5.7545    -4.3045     0.9340 H      1 <0>       0.0800
   40 H40       7.6415    -5.5526     1.8252 H      1 <0>       0.0800
   41 H41       7.0654    -6.4263     0.3821 H      1 <0>       0.0700
   42 H42       9.4390    -4.5271     0.5745 H      1 <0>       0.0800
   43 H43       9.4807    -6.2707     0.2331 H      1 <0>       0.0900
   44 H44       6.6177    -4.0253    -3.7458 H      1 <0>       0.1400
   45 H45       8.5922    -4.3622    -5.1659 H      1 <0>       0.1400
   46 H46      12.8129    -5.8586    -3.1306 H      1 <0>       0.1400
   47 H47      11.5734    -7.1409    -3.3106 H      1 <0>       0.0900
   48 H48       2.6976    -2.2183    -2.0342 H      1 <0>       0.1300
   49 H49       4.2439    -1.3694    -2.3129 H      1 <0>       0.1400
   50 H50       0.9421    -2.2245    -0.6201 H      1 <0>       0.1200
   51 H51      -1.3162    -1.2885    -0.9146 H      1 <0>       0.1300
@<TRIPOS>BOND
   1    1   28 ar
   2    1    2 ar
   3    1   29 1
   4    2    3 ar
   5    2   30 1
   6    3    4 ar
   7    3   31 1
   8    4    5 1
   9    4   27 ar
  10    5    6 1
  11    5   26 1
  12    5    7 1
  13    7    8 1
  14    7   32 1
  15    7   33 1
  16    8    9 1
  17    8   34 1
  18    8   35 1
  19    9   10 1
  20    9   11 1
  21    9   26 1
  22   11   12 1
  23   11   36 1
  24   11   37 1
  25   12   13 1
  26   12   18 1
  27   12   14 1
  28   14   15 1
  29   14   38 1
  30   14   39 1
  31   15   16 1
  32   15   40 1
  33   15   41 1
  34   16   17 1
  35   16   42 1
  36   16   43 1
  37   17   22 ar
  38   17   18 ar
  39   18   19 ar
  40   19   20 ar
  41   19   44 1
  42   20   21 ar
  43   20   45 1
  44   21   25 1
  45   21   22 ar
  46   22   23 1
  47   23   24 1
  48   24   25 1
  49   24   46 1
  50   24   47 1
  51   26   48 1
  52   26   49 1
  53   27   28 ar
  54   27   50 1
  55   28   51 1
