@<TRIPOS>MOLECULE
ZINC000000013635
47    49    1     0     0
SMALL
USER_CHARGES
@<TRIPOS>ATOM
1      O1     -0.0173    1.4248    0.0099 O.3      1 ZINC000000013635   -0.5500
2      C2      0.0021   -0.0041    0.0020 C.3      1 ZINC000000013635    0.1500
3      H3     -1.0205   -0.3814    0.0098 H        1 ZINC000000013635    0.1100
4      C4      0.7182   -0.4975   -1.2568 C.3      1 ZINC000000013635   -0.1500
5      C5     -0.0892   -0.0968   -2.4931 C.3      1 ZINC000000013635   -0.1200
6      C6      0.6269   -0.5903   -3.7519 C.3      1 ZINC000000013635    0.0600
7      N7     -0.1484   -0.2056   -4.9389 N.3      1 ZINC000000013635   -0.5400
8      C8     -1.5749   -0.5082   -4.7570 C.3      1 ZINC000000013635    0.0500
9      C9     -2.3568   -0.0213   -5.9793 C.3      1 ZINC000000013635    0.0700
10     N10    -1.8322   -0.6759   -7.1859 N.3      1 ZINC000000013635   -0.4600
11     C11    -2.5633   -0.3131   -8.3053 C.ar     1 ZINC000000013635    0.4900
12     N12    -3.5773    0.5282   -8.1698 N.ar     1 ZINC000000013635   -0.5300
13     C13    -4.2964    0.8957   -9.2177 C.ar     1 ZINC000000013635    0.1600
14     C14    -3.9765    0.3881  -10.4691 C.ar     1 ZINC000000013635   -0.0400
15     F15    -4.6893    0.7423  -11.5608 F        1 ZINC000000013635   -0.1200
16     C16    -2.9078   -0.4910  -10.5740 C.ar     1 ZINC000000013635    0.1600
17     N17    -2.2277   -0.8120   -9.4855 N.ar     1 ZINC000000013635   -0.5100
18     C18    -0.4056   -0.3733   -7.3677 C.3      1 ZINC000000013635    0.0700
19     C19     0.3763   -0.8602   -6.1454 C.3      1 ZINC000000013635    0.0600
20     C20     0.7309   -0.5033    1.2229 C.ar     1 ZINC000000013635   -0.1300
21     C21     1.8066    0.2064    1.7235 C.ar     1 ZINC000000013635   -0.0800
22     C22     2.4757   -0.2504    2.8430 C.ar     1 ZINC000000013635   -0.1500
23     C23     2.0682   -1.4191    3.4636 C.ar     1 ZINC000000013635    0.1000
24     F24     2.7214   -1.8664    4.5584 F        1 ZINC000000013635   -0.1400
25     C25     0.9905   -2.1288    2.9617 C.ar     1 ZINC000000013635   -0.1500
26     C26     0.3199   -1.6675    1.8448 C.ar     1 ZINC000000013635   -0.0800
27     H27     0.8606    1.8301    0.0037 H        1 ZINC000000013635    0.3700
28     H28     1.7103   -0.0491   -1.3098 H        1 ZINC000000013635    0.0700
29     H29     0.8116   -1.5829   -1.2198 H        1 ZINC000000013635    0.0700
30     H30    -1.0813   -0.5452   -2.4401 H        1 ZINC000000013635    0.0700
31     H31    -0.1826    0.9885   -2.5300 H        1 ZINC000000013635    0.0800
32     H32     1.6190   -0.1418   -3.8049 H        1 ZINC000000013635    0.0800
33     H33     0.7203   -1.6756   -3.7149 H        1 ZINC000000013635    0.0400
34     H34    -1.7070   -1.5845   -4.6459 H        1 ZINC000000013635    0.0400
35     H35    -1.9431   -0.0022   -3.8645 H        1 ZINC000000013635    0.1000
36     H36    -3.4111   -0.2706   -5.8595 H        1 ZINC000000013635    0.0900
37     H37    -2.2468    1.0590   -6.0746 H        1 ZINC000000013635    0.0700
38     H38    -5.1223    1.5818   -9.1006 H        1 ZINC000000013635    0.1800
39     H39    -2.6323   -0.9048  -11.5328 H        1 ZINC000000013635    0.1800
40     H40    -0.0374   -0.8792   -8.2602 H        1 ZINC000000013635    0.1000
41     H41    -0.2735    0.7030   -7.4788 H        1 ZINC000000013635    0.0600
42     H42     1.4306   -0.6108   -6.2652 H        1 ZINC000000013635    0.0900
43     H43     0.2663   -1.9404   -6.0501 H        1 ZINC000000013635    0.0500
44     H44     2.1243    1.1180    1.2392 H        1 ZINC000000013635    0.1300
45     H45     3.3165    0.3038    3.2335 H        1 ZINC000000013635    0.1400
46     H46     0.6719   -3.0407    3.4447 H        1 ZINC000000013635    0.1400
47     H47    -0.5210   -2.2207    1.4533 H        1 ZINC000000013635    0.1300
@<TRIPOS>BOND
1     1     2     1
2     1     27    1
3     2     3     1
4     2     4     1
5     2     20    1
6     4     5     1
7     4     28    1
8     4     29    1
9     5     6     1
10    5     30    1
11    5     31    1
12    6     7     1
13    6     32    1
14    6     33    1
15    7     19    1
16    7     8     1
17    8     9     1
18    8     34    1
19    8     35    1
20    9     10    1
21    9     36    1
22    9     37    1
23    10    11    1
24    10    18    1
25    11    17    ar
26    11    12    ar
27    12    13    ar
28    13    14    ar
29    13    38    1
30    14    15    1
31    14    16    ar
32    16    17    ar
33    16    39    1
34    18    19    1
35    18    40    1
36    18    41    1
37    19    42    1
38    19    43    1
39    20    26    ar
40    20    21    ar
41    21    22    ar
42    21    44    1
43    22    23    ar
44    22    45    1
45    23    24    1
46    23    25    ar
47    25    26    ar
48    25    46    1
49    26    47    1
@<TRIPOS>SUBSTRUCTURE
1   ZINC000000013635 1     RESIDUE    1   A     ZIN   1
