@<TRIPOS>MOLECULE
ZINC000008234271
  50   56    0    0    0
SMALL
USER_CHARGES
NO_NAME
@<TRIPOS>ATOM
    1 C1       -0.0187     1.5258     0.0104 C.3    1 <0>      -0.1600
    2 C2        0.0021    -0.0041     0.0020 C.3    1 <0>      -0.0800
    3 C3        0.7421    -0.5109     1.2415 C.3    1 <0>      -0.1400
    4 C4       -1.4333    -0.5336     0.0129 C.3    1 <0>       0.0100
    5 O5       -1.8224    -1.2367     1.1705 O.3    1 <0>      -0.3100
    6 C6       -1.5673    -2.0537     0.0060 C.3    1 <0>       0.0000
    7 H7       -0.6563    -2.6515    -0.0214 H      1 <0>       0.1500
    8 C8       -2.8273    -2.7216    -0.5494 C.3    1 <0>       0.0100
    9 H9       -3.0589    -3.7062    -0.1432 H      1 <0>       0.1500
   10 O10      -3.1383    -2.4770    -1.9265 O.3    1 <0>      -0.2900
   11 C11      -3.9988    -1.8262    -0.9610 C.3    1 <0>       0.0600
   12 C12      -3.8740    -0.3263    -0.6962 C.3    1 <0>       0.0600
   13 O13      -4.9320     0.5181    -1.1699 O.3    1 <0>      -0.3300
   14 C14      -4.8799     0.3136     0.2502 C.3    1 <0>       0.0400
   15 H15      -4.5330     1.1449     0.8641 H      1 <0>       0.1400
   16 C16      -6.0221    -0.5043     0.8391 C.3    1 <0>      -0.1100
   17 C17      -5.7814    -1.9991     0.7352 C.3    1 <0>      -0.0200
   18 H18      -4.9733    -2.2754     1.4125 H      1 <0>       0.1100
   19 C19      -7.0161    -2.7711     1.1085 C.2    1 <0>      -0.0900
   20 C20      -7.4610    -3.8525     0.4632 C.2    1 <0>      -0.1900
   21 C21      -6.7786    -4.4527    -0.7436 C.3    1 <0>      -0.0600
   22 C22      -5.3476    -3.9081    -0.8210 C.3    1 <0>      -0.1200
   23 C23      -5.4021    -2.3848    -0.6927 C.3    1 <0>      -0.0300
   24 C24      -6.4074    -1.8186    -1.6975 C.3    1 <0>      -0.1600
   25 C25      -8.6813    -4.3324     1.1124 C.2    1 <0>       0.5000
   26 O26      -9.3237    -5.3018     0.7594 O.2    1 <0>      -0.4500
   27 O27      -8.9879    -3.5414     2.1591 O.3    1 <0>      -0.3200
   28 C28      -7.9712    -2.5009     2.2393 C.3    1 <0>       0.0700
   29 C29      -2.4063     0.2668    -0.8319 C.3    1 <0>       0.1600
   30 H30      -2.4067     1.2997    -0.4835 H      1 <0>       0.0900
   31 O31      -2.0177     0.2391    -2.2067 O.3    1 <0>      -0.5300
   32 H32       1.0039     1.9031     0.0027 H      1 <0>       0.0700
   33 H33      -0.5459     1.8868    -0.8726 H      1 <0>       0.0600
   34 H34      -0.5289     1.8773     0.9072 H      1 <0>       0.0600
   35 H35       0.5123    -0.3556    -0.8948 H      1 <0>       0.0900
   36 H36       0.2319    -0.1594     2.1383 H      1 <0>       0.0600
   37 H37       0.7568    -1.6008     1.2356 H      1 <0>       0.0600
   38 H38       1.7647    -0.1336     1.2338 H      1 <0>       0.0600
   39 H39      -6.1409    -0.2386     1.8895 H      1 <0>       0.1000
   40 H40      -6.9420    -0.2577     0.3089 H      1 <0>       0.0900
   41 H41      -6.7519    -5.5380    -0.6465 H      1 <0>       0.0900
   42 H42      -7.3238    -4.1774    -1.6464 H      1 <0>       0.0900
   43 H43      -4.7533    -4.3330    -0.0120 H      1 <0>       0.0700
   44 H44      -4.9058    -4.1831    -1.7787 H      1 <0>       0.0900
   45 H45      -7.3950    -2.2337    -1.4966 H      1 <0>       0.0700
   46 H46      -6.4434    -0.7332    -1.6031 H      1 <0>       0.0800
   47 H47      -6.1000    -2.0853    -2.7086 H      1 <0>       0.0600
   48 H48      -7.4489    -2.5585     3.1943 H      1 <0>       0.1200
   49 H49      -8.4282    -1.5187     2.1188 H      1 <0>       0.1200
   50 H50      -1.1304     0.5863    -2.3717 H      1 <0>       0.3800
@<TRIPOS>BOND
   1    1    2 1
   2    1   32 1
   3    1   33 1
   4    1   34 1
   5    2    3 1
   6    2    4 1
   7    2   35 1
   8    3   36 1
   9    3   37 1
  10    3   38 1
  11    4    6 1
  12    4   29 1
  13    4    5 1
  14    5    6 1
  15    6    7 1
  16    6    8 1
  17    8    9 1
  18    8   11 1
  19    8   10 1
  20   10   11 1
  21   11   23 1
  22   11   12 1
  23   12   14 1
  24   12   13 1
  25   12   29 1
  26   13   14 1
  27   14   15 1
  28   14   16 1
  29   16   17 1
  30   16   39 1
  31   16   40 1
  32   17   18 1
  33   17   23 1
  34   17   19 1
  35   19   28 1
  36   19   20 2
  37   20   21 1
  38   20   25 1
  39   21   22 1
  40   21   41 1
  41   21   42 1
  42   22   23 1
  43   22   43 1
  44   22   44 1
  45   23   24 1
  46   24   45 1
  47   24   46 1
  48   24   47 1
  49   25   26 2
  50   25   27 1
  51   27   28 1
  52   28   48 1
  53   28   49 1
  54   29   30 1
  55   29   31 1
  56   31   50 1
