@<TRIPOS>MOLECULE
ZINC000002379515
  32   33    0    0    0
SMALL
USER_CHARGES
NO_NAME
@<TRIPOS>ATOM
    1 C1        1.4108     0.0898    -2.0643 C.3    1 <0>      -0.0700
    2 C2        0.6813    -0.6762    -0.9910 C.2    1 <0>      -0.2300
    3 C3       -0.2313    -1.6070    -1.2218 C.2    1 <0>      -0.0300
    4 C4       -0.6602    -2.0232    -2.6052 C.3    1 <0>      -0.1000
    5 C5       -0.7752    -2.1853    -0.0110 C.2    1 <0>      -0.3000
    6 C6       -1.7964    -3.2322    -0.0003 C.2    1 <0>       0.4800
    7 O7       -2.9725    -2.9344     0.1048 O.2    1 <0>      -0.4400
    8 C8       -1.4006    -4.6528    -0.1172 C.ar   1 <0>      -0.1600
    9 C9       -0.0506    -5.0062    -0.1194 C.ar   1 <0>      -0.0300
   10 C10       0.3118    -6.3330    -0.2288 C.ar   1 <0>      -0.1300
   11 C11      -0.6597    -7.3120    -0.3364 C.ar   1 <0>      -0.0400
   12 C12      -2.0002    -6.9682    -0.3348 C.ar   1 <0>      -0.2000
   13 C13      -3.0517    -8.0413    -0.4526 C.3    1 <0>       0.5100
   14 F14      -2.4327    -9.2921    -0.5501 F      1 <0>      -0.1800
   15 F15      -3.8738    -8.0148     0.6791 F      1 <0>      -0.1700
   16 F16      -3.8248    -7.8131    -1.5960 F      1 <0>      -0.1700
   17 C17      -2.3761    -5.6460    -0.2199 C.ar   1 <0>      -0.0100
   18 C18      -0.2267    -1.6433     1.1284 C.2    1 <0>       0.1300
   19 N19      -0.5640    -2.0123     2.4147 N.pl3  1 <0>      -0.8300
   20 S20       0.9332    -0.4591     0.7316 S.3    1 <0>       0.1600
   21 H21       2.1079     0.7887    -1.6019 H      1 <0>       0.0700
   22 H22       1.9607    -0.6064    -2.6976 H      1 <0>       0.0700
   23 H23       0.6915     0.6412    -2.6698 H      1 <0>       0.0700
   24 H24      -0.0281    -2.8412    -2.9508 H      1 <0>       0.0800
   25 H25      -1.6990    -2.3525    -2.5799 H      1 <0>       0.0600
   26 H26      -0.5637    -1.1771    -3.2855 H      1 <0>       0.0700
   27 H27       0.7088    -4.2428    -0.0361 H      1 <0>       0.1400
   28 H28       1.3563    -6.6079    -0.2306 H      1 <0>       0.1400
   29 H29      -0.3707    -8.3490    -0.4225 H      1 <0>       0.1500
   30 H30      -3.4225    -5.3790    -0.2184 H      1 <0>       0.1400
   31 H31      -1.1770    -2.7493     2.5628 H      1 <0>       0.4100
   32 H32      -0.1880    -1.5347     3.1707 H      1 <0>       0.4100
@<TRIPOS>BOND
   1    1    2 1
   2    1   21 1
   3    1   22 1
   4    1   23 1
   5    2   20 1
   6    2    3 2
   7    3    4 1
   8    3    5 1
   9    4   24 1
  10    4   25 1
  11    4   26 1
  12    5    6 1
  13    5   18 2
  14    6    7 2
  15    6    8 1
  16    8   17 ar
  17    8    9 ar
  18    9   10 ar
  19    9   27 1
  20   10   11 ar
  21   10   28 1
  22   11   12 ar
  23   11   29 1
  24   12   13 1
  25   12   17 ar
  26   13   14 1
  27   13   15 1
  28   13   16 1
  29   17   30 1
  30   18   19 1
  31   18   20 1
  32   19   31 1
  33   19   32 1
