@<TRIPOS>MOLECULE
ZINC000000597915
49    50    1     0     0
SMALL
USER_CHARGES
@<TRIPOS>ATOM
1      C1     -0.0187    1.5258    0.0104 C.3      1 ZINC000000597915   -0.1600
2      C2      0.0021   -0.0041    0.0020 C.3      1 ZINC000000597915    0.1200
3      N3      0.6878   -0.4765   -1.2033 N.am     1 ZINC000000597915   -0.6900
4      C4      0.8268   -1.7986   -1.4250 C.2      1 ZINC000000597915    0.6300
5      S5      0.2022   -2.9259   -0.2981 S.2      1 ZINC000000597915   -0.8300
6      N6      1.4577   -2.2333   -2.5339 N.pl3    1 ZINC000000597915   -1.0900
7      S7      1.6285   -3.8578   -2.8063 S.o2     1 ZINC000000597915    2.6800
8      O8      2.4962   -4.3456   -1.7922 O.2      1 ZINC000000597915   -0.9900
9      O9      0.3200   -4.3684   -3.0214 O.2      1 ZINC000000597915   -0.9900
10     C10     2.4917   -4.0429   -4.3312 C.ar     1 ZINC000000597915   -0.7700
11     C11     3.7476   -4.6112   -4.3590 C.ar     1 ZINC000000597915    0.2300
12     N12     4.4010   -4.7535   -5.4972 N.ar     1 ZINC000000597915   -0.5400
13     C13     3.8888   -4.3630   -6.6492 C.ar     1 ZINC000000597915    0.1700
14     C14     2.6379   -3.7853   -6.7073 C.ar     1 ZINC000000597915   -0.2800
15     C15     1.9117   -3.6219   -5.5279 C.ar     1 ZINC000000597915    0.3500
16     N16     0.6458   -3.0439   -5.5432 N.pl3    1 ZINC000000597915   -0.7200
17     C17     0.0594   -2.5980   -6.8096 C.3      1 ZINC000000597915    0.1400
18     C18    -0.6309   -3.7785   -7.4954 C.3      1 ZINC000000597915   -0.1400
19     C19    -1.5669   -3.2572   -8.5878 C.3      1 ZINC000000597915   -0.1400
20     C20    -0.7425   -2.8257   -9.8025 C.3      1 ZINC000000597915   -0.1200
21     C21    -0.0712   -1.4821   -9.5117 C.3      1 ZINC000000597915   -0.1300
22     C22    -1.0767   -0.5428   -8.8430 C.3      1 ZINC000000597915   -0.1300
23     C23    -0.6431   -0.2743   -7.4005 C.3      1 ZINC000000597915   -0.1200
24     C24    -0.9653   -1.4953   -6.5365 C.3      1 ZINC000000597915   -0.1400
25     H25     1.0039    1.9031    0.0027 H        1 ZINC000000597915    0.0600
26     H26    -0.5459    1.8868   -0.8726 H        1 ZINC000000597915    0.0600
27     H27    -0.5289    1.8773    0.9072 H        1 ZINC000000597915    0.0700
28     H28     0.5293   -0.3651    0.8851 H        1 ZINC000000597915    0.0700
29     H29    -1.0205   -0.3814    0.0098 H        1 ZINC000000597915    0.0700
30     H30     1.0417    0.1622   -1.8418 H        1 ZINC000000597915    0.3900
31     H31     4.2028   -4.9438   -3.4378 H        1 ZINC000000597915    0.1700
32     H32     4.4567   -4.4973   -7.5580 H        1 ZINC000000597915    0.1500
33     H33     2.2246   -3.4680   -7.6533 H        1 ZINC000000597915    0.1300
34     H34     0.1517   -2.9363   -4.7155 H        1 ZINC000000597915    0.4100
35     H35     0.8457   -2.2108   -7.4575 H        1 ZINC000000597915    0.0900
36     H36     0.1207   -4.4299   -7.9414 H        1 ZINC000000597915    0.0700
37     H37    -1.2076   -4.3394   -6.7600 H        1 ZINC000000597915    0.0700
38     H38    -2.2592   -4.0467   -8.8804 H        1 ZINC000000597915    0.0600
39     H39    -2.1286   -2.4037   -8.2082 H        1 ZINC000000597915    0.0900
40     H40     0.0206   -3.5762  -10.0088 H        1 ZINC000000597915    0.0600
41     H41    -1.3967   -2.7252  -10.6685 H        1 ZINC000000597915    0.0600
42     H42     0.7787   -1.6370   -8.8470 H        1 ZINC000000597915    0.0700
43     H43     0.2744   -1.0390  -10.4456 H        1 ZINC000000597915    0.0600
44     H44    -1.1154    0.3982   -9.3919 H        1 ZINC000000597915    0.0600
45     H45    -2.0635   -1.0057   -8.8456 H        1 ZINC000000597915    0.0700
46     H46     0.4296   -0.0826   -7.3731 H        1 ZINC000000597915    0.0700
47     H47    -1.1776    0.5943   -7.0159 H        1 ZINC000000597915    0.0600
48     H48    -1.9637   -1.8590   -6.7794 H        1 ZINC000000597915    0.0800
49     H49    -0.9265   -1.2159   -5.4837 H        1 ZINC000000597915    0.0800
@<TRIPOS>BOND
1     1     2     1
2     1     25    1
3     1     26    1
4     1     27    1
5     2     3     1
6     2     28    1
7     2     29    1
8     3     4     am
9     3     30    1
10    4     5     2
11    4     6     1
12    6     7     1
13    7     8     2
14    7     9     2
15    7     10    1
16    10    15    ar
17    10    11    ar
18    11    12    ar
19    11    31    1
20    12    13    ar
21    13    14    ar
22    13    32    1
23    14    15    ar
24    14    33    1
25    15    16    1
26    16    17    1
27    16    34    1
28    17    24    1
29    17    18    1
30    17    35    1
31    18    19    1
32    18    36    1
33    18    37    1
34    19    20    1
35    19    38    1
36    19    39    1
37    20    21    1
38    20    40    1
39    20    41    1
40    21    22    1
41    21    42    1
42    21    43    1
43    22    23    1
44    22    44    1
45    22    45    1
46    23    24    1
47    23    46    1
48    23    47    1
49    24    48    1
50    24    49    1
@<TRIPOS>SUBSTRUCTURE
1   ZINC000000597915 1     RESIDUE    1   A     ZIN   1
