@<TRIPOS>MOLECULE
ZINC000001486728
49    52    1     0     0
SMALL
USER_CHARGES
@<TRIPOS>ATOM
1      C1     -0.0173    1.4248    0.0099 C.3      1 ZINC000001486728    0.0200
2      O2      0.0021   -0.0041    0.0020 O.3      1 ZINC000001486728   -0.2900
3      C3      0.6060   -0.6073   -1.0561 C.ar     1 ZINC000001486728    0.1600
4      C4      1.1719    0.1657   -2.0605 C.ar     1 ZINC000001486728   -0.2300
5      C5      1.7884   -0.4368   -3.1396 C.ar     1 ZINC000001486728   -0.0200
6      C6      2.4022    0.4055   -4.2282 C.3      1 ZINC000001486728   -0.0300
7      C7      1.4108    0.5767   -5.3502 C.ar     1 ZINC000001486728   -0.2200
8      C8      1.4303   -0.2655   -6.4443 C.ar     1 ZINC000001486728    0.2100
9      N9      0.5450   -0.0888   -7.4144 N.ar     1 ZINC000001486728   -0.5700
10     H10     0.5553   -0.6786   -8.1844 H        1 ZINC000001486728    0.4400
11     C11    -0.3541    0.8817   -7.3472 C.ar     1 ZINC000001486728    0.6600
12     N12    -1.2619    1.0331   -8.3808 N.pl3    1 ZINC000001486728   -0.7900
13     N13    -0.4063    1.7106   -6.3153 N.ar     1 ZINC000001486728   -0.5700
14     C14     0.4476    1.5873   -5.3043 C.ar     1 ZINC000001486728    0.5400
15     N15     0.3904    2.4553   -4.2262 N.pl3    1 ZINC000001486728   -0.7800
16     C16     1.8406   -1.8247   -3.2168 C.ar     1 ZINC000001486728   -0.1500
17     C17     2.4916   -2.5101   -4.3539 C.2      1 ZINC000001486728   -0.1100
18     C18     2.2257   -3.8009   -4.5430 C.2      1 ZINC000001486728   -0.1700
19     C19     1.2751   -4.5179   -3.6211 C.3      1 ZINC000001486728    0.1500
20     H20     1.5440   -5.5733   -3.5775 H        1 ZINC000001486728    0.1300
21     C21    -0.1501   -4.3822   -4.1608 C.3      1 ZINC000001486728   -0.1900
22     C22    -0.8258   -5.6459   -4.6969 C.3      1 ZINC000001486728   -0.1700
23     C23    -1.2740   -5.0460   -3.3626 C.3      1 ZINC000001486728   -0.1600
24     O24     1.3353   -3.9620   -2.3069 O.3      1 ZINC000001486728   -0.2800
25     C25     1.2698   -2.6088   -2.2041 C.ar     1 ZINC000001486728    0.1600
26     C26     0.6585   -1.9968   -1.1233 C.ar     1 ZINC000001486728    0.0500
27     O27     0.1071   -2.7503   -0.1330 O.3      1 ZINC000001486728   -0.3100
28     C28     0.9543   -3.1021    0.9627 C.3      1 ZINC000001486728    0.0300
29     H29     1.0053    1.8021    0.0021 H        1 ZINC000001486728    0.0600
30     H30    -0.5445    1.7859   -0.8732 H        1 ZINC000001486728    0.0600
31     H31    -0.5275    1.7763    0.9067 H        1 ZINC000001486728    0.1100
32     H32     1.1296    1.2430   -1.9981 H        1 ZINC000001486728    0.1300
33     H33     2.6673    1.3830   -3.8253 H        1 ZINC000001486728    0.1000
34     H34     3.2980   -0.0865   -4.6068 H        1 ZINC000001486728    0.1100
35     H35     2.1594   -1.0596   -6.5088 H        1 ZINC000001486728    0.2100
36     H36    -1.2347    0.4326   -9.1421 H        1 ZINC000001486728    0.4300
37     H37    -1.9254    1.7398   -8.3439 H        1 ZINC000001486728    0.4500
38     H38    -0.2763    3.1595   -4.2054 H        1 ZINC000001486728    0.4300
39     H39     1.0171    2.3588   -3.4921 H        1 ZINC000001486728    0.4300
40     H40     3.1630   -1.9789   -5.0122 H        1 ZINC000001486728    0.1300
41     H41     2.6918   -4.3341   -5.3584 H        1 ZINC000001486728    0.1400
42     H42    -0.3760   -3.4399   -4.6599 H        1 ZINC000001486728    0.1000
43     H43    -1.4964   -5.5351   -5.5490 H        1 ZINC000001486728    0.1000
44     H44    -0.2550   -6.5739   -4.6651 H        1 ZINC000001486728    0.1000
45     H45    -0.9980   -5.5795   -2.4530 H        1 ZINC000001486728    0.1000
46     H46    -2.2394   -4.5407   -3.3370 H        1 ZINC000001486728    0.1000
47     H47     0.3920   -3.7012    1.6789 H        1 ZINC000001486728    0.1000
48     H48     1.8036   -3.6779    0.5949 H        1 ZINC000001486728    0.0500
49     H49     1.3135   -2.1957    1.4499 H        1 ZINC000001486728    0.0500
@<TRIPOS>BOND
1     1     2     1
2     1     29    1
3     1     30    1
4     1     31    1
5     2     3     1
6     3     26    ar
7     3     4     ar
8     4     5     ar
9     4     32    1
10    5     6     1
11    5     16    ar
12    6     7     1
13    6     33    1
14    6     34    1
15    7     14    ar
16    7     8     ar
17    8     9     ar
18    8     35    1
19    9     10    1
20    9     11    ar
21    11    12    1
22    11    13    ar
23    12    36    1
24    12    37    1
25    13    14    ar
26    14    15    1
27    15    38    1
28    15    39    1
29    16    25    ar
30    16    17    1
31    17    18    2
32    17    40    1
33    18    19    1
34    18    41    1
35    19    20    1
36    19    21    1
37    19    24    1
38    21    23    1
39    21    22    1
40    21    42    1
41    22    23    1
42    22    43    1
43    22    44    1
44    23    45    1
45    23    46    1
46    24    25    1
47    25    26    ar
48    26    27    1
49    27    28    1
50    28    47    1
51    28    48    1
52    28    49    1
@<TRIPOS>SUBSTRUCTURE
1   ZINC000001486728 1     RESIDUE    1   A     ZIN   1
