@<TRIPOS>MOLECULE
ZINC000026976815
54    58    1     0     0
SMALL
USER_CHARGES
@<TRIPOS>ATOM
1      C1     -0.0264    1.5247   -0.0010 C.3      1 ZINC000026976815   -0.1600
2      C2     -0.0047   -0.0052   -0.0085 C.3      1 ZINC000026976815   -0.1400
3      C3      0.7326   -0.5109    1.2331 C.3      1 ZINC000026976815    0.1400
4      O4      2.0720   -0.0130    1.2295 O.3      1 ZINC000026976815   -0.5200
5      C5      0.0171   -0.0329    2.4756 C.2      1 ZINC000026976815    0.4700
6      O6      0.4186    0.9101    3.1155 O.2      1 ZINC000026976815   -0.4200
7      O7     -1.0950   -0.7137    2.8359 O.3      1 ZINC000026976815   -0.3700
8      C8     -0.8782   -2.1177    3.1341 C.3      1 ZINC000026976815    0.1400
9      C9      0.0055   -2.7517    2.0929 C.2      1 ZINC000026976815   -0.2300
10     C10     0.7549   -2.0187    1.2273 C.2      1 ZINC000026976815    0.0400
11     C11     1.5713   -2.6747    0.2961 C.2      1 ZINC000026976815   -0.1400
12     C12     1.6059   -4.0517    0.2531 C.2      1 ZINC000026976815    0.1900
13     C13     2.3766   -4.9644   -0.6262 C.ar     1 ZINC000026976815    0.1800
14     C14     2.0577   -6.2826   -0.2707 C.ar     1 ZINC000026976815   -0.1200
15     C15     1.0633   -6.2061    0.8581 C.3      1 ZINC000026976815    0.1500
16     N16     0.8407   -4.7780    1.1202 N.am     1 ZINC000026976815   -0.5000
17     C17     0.0534   -4.1597    2.0210 C.2      1 ZINC000026976815    0.5500
18     O18    -0.6269   -4.8256    2.7845 O.2      1 ZINC000026976815   -0.5300
19     C19     2.6425   -7.3465   -0.9389 C.ar     1 ZINC000026976815    0.0300
20     C20     2.3259   -8.7427   -0.5870 C.2      1 ZINC000026976815    0.1400
21     N21     1.5638   -8.9974    0.4275 N.2      1 ZINC000026976815   -0.3100
22     O22     1.2597  -10.3384    0.7655 O.3      1 ZINC000026976815   -0.2300
23     C23     0.4091  -10.4718    1.9060 C.3      1 ZINC000026976815    0.0700
24     C24     0.1487  -11.9548    2.1774 C.3      1 ZINC000026976815    0.0700
25     N25     1.4076  -12.6124    2.5525 N.3      1 ZINC000026976815   -0.8500
26     C26     3.5881   -7.0247   -2.0098 C.ar     1 ZINC000026976815   -0.0600
27     C27     4.2325   -8.0254   -2.7436 C.ar     1 ZINC000026976815   -0.1100
28     C28     5.1055   -7.6789   -3.7323 C.ar     1 ZINC000026976815   -0.0900
29     C29     5.3624   -6.3401   -4.0202 C.ar     1 ZINC000026976815   -0.1000
30     C30     4.7526   -5.3417   -3.3254 C.ar     1 ZINC000026976815   -0.0800
31     C31     3.8453   -5.6599   -2.2964 C.ar     1 ZINC000026976815    0.1400
32     N32     3.2351   -4.7027   -1.5997 N.ar     1 ZINC000026976815   -0.4200
33     H33     0.9960    1.9026   -0.0064 H        1 ZINC000026976815    0.0600
34     H34    -0.5517    1.8849   -0.8855 H        1 ZINC000026976815    0.0700
35     H35    -0.5390    1.8764    0.8944 H        1 ZINC000026976815    0.0600
36     H36    -1.0271   -0.3831   -0.0030 H        1 ZINC000026976815    0.0900
37     H37     0.5079   -0.3569   -0.9038 H        1 ZINC000026976815    0.1000
38     H38     2.1329    0.9521    1.2356 H        1 ZINC000026976815    0.3900
39     H39    -0.4037   -2.2082    4.1112 H        1 ZINC000026976815    0.1000
40     H40    -1.8383   -2.6333    3.1526 H        1 ZINC000026976815    0.1400
41     H41     2.1751   -2.0993   -0.3900 H        1 ZINC000026976815    0.1600
42     H42     0.1279   -6.6828    0.5652 H        1 ZINC000026976815    0.1200
43     H43     1.4683   -6.6907    1.7465 H        1 ZINC000026976815    0.1200
44     H44     2.7298   -9.5530   -1.1758 H        1 ZINC000026976815    0.1400
45     H45     0.8921  -10.0230    2.7740 H        1 ZINC000026976815    0.0700
46     H46    -0.5372   -9.9658    1.7147 H        1 ZINC000026976815    0.0700
47     H47    -0.5698  -12.0546    2.9910 H        1 ZINC000026976815    0.1000
48     H48    -0.2524  -12.4237    1.2789 H        1 ZINC000026976815    0.0400
49     H49     1.2620  -13.5937    2.7370 H        1 ZINC000026976815    0.3500
50     H50     2.1112  -12.4787    1.8417 H        1 ZINC000026976815    0.3500
51     H51     4.0398   -9.0662   -2.5290 H        1 ZINC000026976815    0.1400
52     H52     5.6035   -8.4515   -4.2993 H        1 ZINC000026976815    0.1400
53     H53     6.0577   -6.0905   -4.8080 H        1 ZINC000026976815    0.1400
54     H54     4.9638   -4.3093   -3.5619 H        1 ZINC000026976815    0.1500
@<TRIPOS>BOND
1     1     2     1
2     1     33    1
3     1     34    1
4     1     35    1
5     2     3     1
6     2     36    1
7     2     37    1
8     3     10    1
9     3     4     1
10    3     5     1
11    4     38    1
12    5     6     2
13    5     7     1
14    7     8     1
15    8     9     1
16    8     39    1
17    8     40    1
18    9     17    1
19    9     10    2
20    10    11    1
21    11    12    2
22    11    41    1
23    12    16    1
24    12    13    1
25    13    32    ar
26    13    14    ar
27    14    15    1
28    14    19    ar
29    15    16    1
30    15    42    1
31    15    43    1
32    16    17    am
33    17    18    2
34    19    20    1
35    19    26    ar
36    20    21    2
37    20    44    1
38    21    22    1
39    22    23    1
40    23    24    1
41    23    45    1
42    23    46    1
43    24    25    1
44    24    47    1
45    24    48    1
46    25    49    1
47    25    50    1
48    26    31    ar
49    26    27    ar
50    27    28    ar
51    27    51    1
52    28    29    ar
53    28    52    1
54    29    30    ar
55    29    53    1
56    30    31    ar
57    30    54    1
58    31    32    ar
@<TRIPOS>SUBSTRUCTURE
1   ZINC000026976815 1     RESIDUE    1   A     ZIN   1
