@<TRIPOS>MOLECULE
ZINC000001687057
26    27    1     0     0
SMALL
USER_CHARGES
@<TRIPOS>ATOM
1      O1      0.0021   -0.0041    0.0020 O.2      1 ZINC000001687057   -0.9200
2      S2     -0.0172    1.4168    0.0098 S.o2     1 ZINC000001687057    2.6800
3      O3      1.1617    2.2101    0.0028 O.2      1 ZINC000001687057   -0.9400
4      O4     -0.8288    1.8423   -1.2054 O.3      1 ZINC000001687057   -0.6500
5      C5     -0.7944    3.1783   -1.4529 C.ar     1 ZINC000001687057    0.0600
6      C6     -1.7382    4.0159   -0.8766 C.ar     1 ZINC000001687057   -0.1100
7      C7     -1.7017    5.3735   -1.1294 C.ar     1 ZINC000001687057   -0.0900
8      C8     -0.7249    5.8980   -1.9572 C.ar     1 ZINC000001687057   -0.0200
9      Cl9    -0.6814    7.6043   -2.2739 Cl       1 ZINC000001687057   -0.0500
10     C10     0.2176    5.0642   -2.5326 C.ar     1 ZINC000001687057   -0.0900
11     C11     0.1879    3.7068   -2.2777 C.ar     1 ZINC000001687057   -0.0800
12     C12    -0.9297    1.8941    1.4396 C.ar     1 ZINC000001687057   -0.7000
13     C13    -0.7360    3.1442    1.9973 C.ar     1 ZINC000001687057    0.0000
14     C14    -1.4515    3.5192    3.1188 C.ar     1 ZINC000001687057   -0.1300
15     C15    -2.3616    2.6433    3.6833 C.ar     1 ZINC000001687057    0.0200
16     Cl16   -3.2610    3.1138    5.0916 Cl       1 ZINC000001687057   -0.0500
17     C17    -2.5549    1.3924    3.1247 C.ar     1 ZINC000001687057   -0.1300
18     C18    -1.8430    1.0206    1.9998 C.ar     1 ZINC000001687057    0.0000
19     H19    -2.5012    3.6068   -0.2310 H        1 ZINC000001687057    0.1500
20     H20    -2.4363    6.0259   -0.6809 H        1 ZINC000001687057    0.1500
21     H21     0.9795    5.4755   -3.1782 H        1 ZINC000001687057    0.1500
22     H22     0.9237    3.0564   -2.7270 H        1 ZINC000001687057    0.1500
23     H23    -0.0253    3.8277    1.5567 H        1 ZINC000001687057    0.1500
24     H24    -1.2999    4.4957    3.5546 H        1 ZINC000001687057    0.1500
25     H25    -3.2650    0.7081    3.5651 H        1 ZINC000001687057    0.1500
26     H26    -1.9941    0.0443    1.5635 H        1 ZINC000001687057    0.1500
@<TRIPOS>BOND
1     1     2     2
2     2     3     2
3     2     4     1
4     2     12    1
5     4     5     1
6     5     11    ar
7     5     6     ar
8     6     7     ar
9     6     19    1
10    7     8     ar
11    7     20    1
12    8     9     1
13    8     10    ar
14    10    11    ar
15    10    21    1
16    11    22    1
17    12    18    ar
18    12    13    ar
19    13    14    ar
20    13    23    1
21    14    15    ar
22    14    24    1
23    15    16    1
24    15    17    ar
25    17    18    ar
26    17    25    1
27    18    26    1
@<TRIPOS>SUBSTRUCTURE
1   ZINC000001687057 1     RESIDUE    1   A     ZIN   1
