@<TRIPOS>MOLECULE
ZINC000072316409
65    69    1     0     0
SMALL
USER_CHARGES
@<TRIPOS>ATOM
1      C1      1.6436    1.4178    0.5818 C.3      1 ZINC000072316409    0.0200
2      O2      1.7405   -0.0079    0.5691 O.3      1 ZINC000072316409   -0.3000
3      C3      1.7399   -0.6153   -0.6460 C.ar     1 ZINC000072316409    0.1400
4      C4      1.6538    0.1445   -1.8015 C.ar     1 ZINC000072316409   -0.1800
5      C5      1.6526   -0.4672   -3.0430 C.ar     1 ZINC000072316409   -0.0800
6      C6      1.7376   -1.8404   -3.1464 C.ar     1 ZINC000072316409   -0.1200
7      C7      1.8251   -2.6244   -1.9955 C.ar     1 ZINC000072316409   -0.0900
8      C8      1.9160   -4.0936   -2.1035 C.2      1 ZINC000072316409    0.5600
9      O9      1.9921   -4.7735   -1.0984 O.2      1 ZINC000072316409   -0.4900
10     N10     1.9147   -4.6815   -3.3163 N.am     1 ZINC000072316409   -0.6700
11     C11     2.0886   -6.0650   -3.4228 C.ar     1 ZINC000072316409    0.1500
12     C12     1.5591   -6.9113   -2.4574 C.ar     1 ZINC000072316409   -0.1100
13     C13     1.7413   -8.2732   -2.5704 C.ar     1 ZINC000072316409   -0.0900
14     C14     2.4498   -8.8054   -3.6395 C.ar     1 ZINC000072316409   -0.1100
15     C15     2.6335  -10.3019   -3.6845 C.3      1 ZINC000072316409    0.1500
16     N16     3.1680  -10.6951   -4.9926 N.am     1 ZINC000072316409   -0.5900
17     C17     2.6727  -11.7547   -5.6622 C.2      1 ZINC000072316409    0.6500
18     O18     3.1337  -12.0591   -6.7445 O.2      1 ZINC000072316409   -0.5500
19     O19     1.6667  -12.4762   -5.1318 O.3      1 ZINC000072316409   -0.3000
20     C20     1.2873  -13.5943   -5.8053 C.ar     1 ZINC000072316409    0.1000
21     C21     2.1555  -14.6714   -5.9086 C.ar     1 ZINC000072316409   -0.1200
22     C22     1.7676  -15.8066   -6.5936 C.ar     1 ZINC000072316409   -0.1000
23     C23     0.5152  -15.8699   -7.1761 C.ar     1 ZINC000072316409   -0.1200
24     C24    -0.3517  -14.7976   -7.0749 C.ar     1 ZINC000072316409   -0.1000
25     C25     0.0291  -13.6625   -6.3857 C.ar     1 ZINC000072316409   -0.1200
26     C26     4.2675   -9.8865   -5.5446 C.3      1 ZINC000072316409    0.1300
27     C27     3.7326   -8.4783   -5.7996 C.3      1 ZINC000072316409   -0.1000
28     C28     2.9688   -7.9704   -4.6049 C.ar     1 ZINC000072316409   -0.0500
29     C29     2.7855   -6.5988   -4.4955 C.ar     1 ZINC000072316409   -0.1400
30     C30     1.8319   -2.0066   -0.7326 C.ar     1 ZINC000072316409   -0.0300
31     C31     1.9243   -2.8258    0.4979 C.ar     1 ZINC000072316409    0.0000
32     C32     0.8957   -3.7067    0.8314 C.ar     1 ZINC000072316409   -0.0600
33     C33     0.9878   -4.4676    1.9788 C.ar     1 ZINC000072316409   -0.0700
34     C34     2.0973   -4.3577    2.7979 C.ar     1 ZINC000072316409   -0.1800
35     C35     2.1913   -5.1913    4.0498 C.3      1 ZINC000072316409    0.5100
36     F36     2.8188   -6.4064    3.7550 F        1 ZINC000072316409   -0.1800
37     F37     2.9366   -4.5033    5.0133 F        1 ZINC000072316409   -0.1800
38     F38     0.9057   -5.4381    4.5434 F        1 ZINC000072316409   -0.1800
39     C39     3.1210   -3.4861    2.4722 C.ar     1 ZINC000072316409   -0.0700
40     C40     3.0429   -2.7238    1.3247 C.ar     1 ZINC000072316409   -0.0900
41     H41     2.4883    1.8442    0.0407 H        1 ZINC000072316409    0.0600
42     H42     0.7136    1.7230    0.1022 H        1 ZINC000072316409    0.0600
43     H43     1.6550    1.7736    1.6120 H        1 ZINC000072316409    0.1100
44     H44     1.5869    1.2203   -1.7330 H        1 ZINC000072316409    0.1400
45     H45     1.5844    0.1345   -3.9372 H        1 ZINC000072316409    0.1400
46     H46     1.7360   -2.3091   -4.1194 H        1 ZINC000072316409    0.1300
47     H47     1.7931   -4.1450   -4.1152 H        1 ZINC000072316409    0.4100
48     H48     1.0078   -6.5048   -1.6224 H        1 ZINC000072316409    0.1400
49     H49     1.3295   -8.9321   -1.8203 H        1 ZINC000072316409    0.1300
50     H50     3.3291  -10.6056   -2.9023 H        1 ZINC000072316409    0.0900
51     H51     1.6723  -10.7902   -3.5238 H        1 ZINC000072316409    0.1000
52     H52     3.1340  -14.6222   -5.4541 H        1 ZINC000072316409    0.1300
53     H53     2.4434  -16.6452   -6.6746 H        1 ZINC000072316409    0.1300
54     H54     0.2138  -16.7582   -7.7112 H        1 ZINC000072316409    0.1300
55     H55    -1.3293  -14.8492   -7.5310 H        1 ZINC000072316409    0.1300
56     H56    -0.6484  -12.8252   -6.3070 H        1 ZINC000072316409    0.1300
57     H57     5.0896   -9.8450   -4.8301 H        1 ZINC000072316409    0.0800
58     H58     4.6135  -10.3247   -6.4808 H        1 ZINC000072316409    0.1000
59     H59     4.5683   -7.8085   -6.0019 H        1 ZINC000072316409    0.0900
60     H60     3.0715   -8.4973   -6.6660 H        1 ZINC000072316409    0.0800
61     H61     3.1928   -5.9420   -5.2499 H        1 ZINC000072316409    0.1300
62     H62     0.0288   -3.7928    0.1932 H        1 ZINC000072316409    0.1200
63     H63     0.1920   -5.1501    2.2382 H        1 ZINC000072316409    0.1300
64     H64     3.9848   -3.4049    3.1153 H        1 ZINC000072316409    0.1300
65     H65     3.8429   -2.0439    1.0712 H        1 ZINC000072316409    0.1300
@<TRIPOS>BOND
1     1     2     1
2     1     41    1
3     1     42    1
4     1     43    1
5     2     3     1
6     3     30    ar
7     3     4     ar
8     4     5     ar
9     4     44    1
10    5     6     ar
11    5     45    1
12    6     7     ar
13    6     46    1
14    7     8     1
15    7     30    ar
16    8     9     2
17    8     10    am
18    10    11    1
19    10    47    1
20    11    29    ar
21    11    12    ar
22    12    13    ar
23    12    48    1
24    13    14    ar
25    13    49    1
26    14    28    ar
27    14    15    1
28    15    16    1
29    15    50    1
30    15    51    1
31    16    17    am
32    16    26    1
33    17    18    2
34    17    19    1
35    19    20    1
36    20    25    ar
37    20    21    ar
38    21    22    ar
39    21    52    1
40    22    23    ar
41    22    53    1
42    23    24    ar
43    23    54    1
44    24    25    ar
45    24    55    1
46    25    56    1
47    26    27    1
48    26    57    1
49    26    58    1
50    27    28    1
51    27    59    1
52    27    60    1
53    28    29    ar
54    29    61    1
55    30    31    1
56    31    40    ar
57    31    32    ar
58    32    33    ar
59    32    62    1
60    33    34    ar
61    33    63    1
62    34    35    1
63    34    39    ar
64    35    36    1
65    35    37    1
66    35    38    1
67    39    40    ar
68    39    64    1
69    40    65    1
@<TRIPOS>SUBSTRUCTURE
1   ZINC000072316409 1     RESIDUE    1   A     ZIN   1
