@<TRIPOS>MOLECULE
ZINC000257838187
47    49    1     0     0
SMALL
USER_CHARGES
@<TRIPOS>ATOM
1      C1     -2.1522    0.3424   -0.4448 C.3      1 ZINC000257838187   -0.1400
2      C2     -1.9078   -1.1651   -0.5384 C.3      1 ZINC000257838187   -0.0500
3      C3     -1.3327   -1.6717    0.7858 C.3      1 ZINC000257838187   -0.1500
4      C4     -3.2299   -1.8792   -0.8267 C.3      1 ZINC000257838187   -0.1500
5      C5     -0.9313   -1.4475   -1.6509 C.2      1 ZINC000257838187    0.4600
6      O6     -0.4760   -0.5337   -2.3043 O.2      1 ZINC000257838187   -0.4700
7      O7     -0.5658   -2.7110   -1.9184 O.3      1 ZINC000257838187   -0.2300
8      C8      0.3177   -2.8957   -2.9341 C.2      1 ZINC000257838187   -0.0500
9      C9      0.7865   -4.0781   -3.3418 C.2      1 ZINC000257838187   -0.1300
10     C10     1.6846   -4.0331   -4.4026 C.2      1 ZINC000257838187   -0.1000
11     C11     1.9332   -2.7860   -4.8486 C.2      1 ZINC000257838187   -0.2000
12     C12     2.8727   -2.4747   -5.9948 C.3      1 ZINC000257838187   -0.0400
13     C13     3.1476   -3.7829   -6.7472 C.3      1 ZINC000257838187    0.0200
14     N14     3.5242   -4.8242   -5.7816 N.4      1 ZINC000257838187   -0.1100
15     O15     4.5262   -4.2909   -4.8586 O.3      1 ZINC000257838187   -0.6200
16     C16     4.0874   -5.9748   -6.5006 C.3      1 ZINC000257838187    0.0600
17     C17     4.5070   -7.0299   -5.5098 C.ar     1 ZINC000257838187   -0.1000
18     C18     3.6612   -8.0846   -5.2235 C.ar     1 ZINC000257838187   -0.1000
19     C19     4.0460   -9.0527   -4.3145 C.ar     1 ZINC000257838187   -0.1300
20     C20     5.2767   -8.9660   -3.6912 C.ar     1 ZINC000257838187   -0.0900
21     C21     6.1236   -7.9114   -3.9767 C.ar     1 ZINC000257838187   -0.1200
22     C22     5.7417   -6.9459   -4.8907 C.ar     1 ZINC000257838187    0.0200
23     Cl23    6.8048   -5.6213   -5.2499 Cl       1 ZINC000257838187   -0.0300
24     C24     2.3436   -5.2572   -5.0230 C.3      1 ZINC000257838187    0.0900
25     S25     1.0133   -1.6158   -3.9181 S.3      1 ZINC000257838187    0.2200
26     H26    -1.2104    0.8511   -0.2394 H        1 ZINC000257838187    0.0700
27     H27    -2.5619    0.7033   -1.3882 H        1 ZINC000257838187    0.0700
28     H28    -2.8585    0.5467    0.3598 H        1 ZINC000257838187    0.0800
29     H29    -2.0390   -1.4674    1.5905 H        1 ZINC000257838187    0.0800
30     H30    -1.1586   -2.7456    0.7191 H        1 ZINC000257838187    0.0700
31     H31    -0.3909   -1.1629    0.9912 H        1 ZINC000257838187    0.0600
32     H32    -3.6396   -1.5183   -1.7701 H        1 ZINC000257838187    0.0600
33     H33    -3.0558   -2.9531   -0.8934 H        1 ZINC000257838187    0.0700
34     H34    -3.9362   -1.6749   -0.0220 H        1 ZINC000257838187    0.0800
35     H35     0.4883   -5.0069   -2.8784 H        1 ZINC000257838187    0.1500
36     H36     2.4082   -1.7533   -6.6670 H        1 ZINC000257838187    0.0900
37     H37     3.8070   -2.0694   -5.6062 H        1 ZINC000257838187    0.1100
38     H38     2.2497   -4.0905   -7.2831 H        1 ZINC000257838187    0.0900
39     H39     3.9620   -3.6314   -7.4557 H        1 ZINC000257838187    0.1100
40     H40     3.3350   -6.3867   -7.1732 H        1 ZINC000257838187    0.1000
41     H41     4.9541   -5.6535   -7.0782 H        1 ZINC000257838187    0.1200
42     H42     2.6992   -8.1525   -5.7097 H        1 ZINC000257838187    0.1300
43     H43     3.3847   -9.8767   -4.0911 H        1 ZINC000257838187    0.1300
44     H44     5.5764   -9.7221   -2.9807 H        1 ZINC000257838187    0.1300
45     H45     7.0852   -7.8438   -3.4896 H        1 ZINC000257838187    0.1300
46     H46     2.6480   -5.9464   -4.2352 H        1 ZINC000257838187    0.1100
47     H47     1.6402   -5.7520   -5.6926 H        1 ZINC000257838187    0.0900
@<TRIPOS>BOND
1     1     2     1
2     1     26    1
3     1     27    1
4     1     28    1
5     2     3     1
6     2     4     1
7     2     5     1
8     3     29    1
9     3     30    1
10    3     31    1
11    4     32    1
12    4     33    1
13    4     34    1
14    5     6     2
15    5     7     1
16    7     8     1
17    8     25    1
18    8     9     2
19    9     10    1
20    9     35    1
21    10    24    1
22    10    11    2
23    11    12    1
24    11    25    1
25    12    13    1
26    12    36    1
27    12    37    1
28    13    14    1
29    13    38    1
30    13    39    1
31    14    15    1
32    14    16    1
33    14    24    1
34    16    17    1
35    16    40    1
36    16    41    1
37    17    22    ar
38    17    18    ar
39    18    19    ar
40    18    42    1
41    19    20    ar
42    19    43    1
43    20    21    ar
44    20    44    1
45    21    22    ar
46    21    45    1
47    22    23    1
48    24    46    1
49    24    47    1
@<TRIPOS>SUBSTRUCTURE
1   ZINC000257838187 1     RESIDUE    1   A     ZIN   1
