@<TRIPOS>MOLECULE
ZINC000003824390
  23   24    0    0    0
SMALL
USER_CHARGES
NO_NAME
@<TRIPOS>ATOM
    1 N1       -0.0116     1.0048     0.0076 N.4    1 <0>      -0.6100
    2 H2        0.0021    -0.0041     0.0020 H      1 <0>       0.4100
    3 H3        0.9350     1.3541     0.0004 H      1 <0>       0.4300
    4 H4       -0.4996     1.3391    -0.8099 H      1 <0>       0.4200
    5 C5       -0.6992     1.4786     1.2162 C.3    1 <0>       0.0000
    6 C6       -0.7868     2.9830     1.2161 C.2    1 <0>       0.5100
    7 O7       -0.3064     3.6216     0.2953 O.co2  1 <0>      -0.6800
    8 O8       -1.3381     3.5616     2.1369 O.co2  1 <0>      -0.6300
    9 C9       -2.1114     0.8505     1.3179 C.3    1 <0>      -0.1100
   10 C10      -1.8196    -0.5537     1.9028 C.3    1 <0>      -0.1100
   11 C11      -0.6838    -0.3120     2.9183 C.3    1 <0>      -0.1400
   12 H12      -0.8975    -0.5146     3.9678 H      1 <0>       0.1200
   13 C13       0.7606    -0.3900     2.4198 C.3    1 <0>      -0.1800
   14 H14       0.9307    -0.8365     1.4401 H      1 <0>       0.0800
   15 C15       1.8367    -0.6421     3.4442 C.2    1 <0>       0.5200
   16 O16       2.4401    -1.7016     3.4464 O.co2  1 <0>      -0.6900
   17 O17       2.1040     0.2134     4.2707 O.co2  1 <0>      -0.6800
   18 C18       0.0286     0.9802     2.4818 C.3    1 <0>      -0.1500
   19 H19       0.3521     1.7254     3.2085 H      1 <0>       0.1400
   20 H20      -2.7428     1.4270     1.9939 H      1 <0>       0.1100
   21 H21      -2.5705     0.7707     0.3325 H      1 <0>       0.0800
   22 H22      -2.7026    -0.9489     2.4050 H      1 <0>       0.0800
   23 H23      -1.4903    -1.2335     1.1169 H      1 <0>       0.0600
@<TRIPOS>BOND
   1    1    2 1
   2    1    3 1
   3    1    4 1
   4    1    5 1
   5    5   18 1
   6    5    6 1
   7    5    9 1
   8    6    7 ar
   9    6    8 ar
  10    9   10 1
  11    9   20 1
  12    9   21 1
  13   10   11 1
  14   10   22 1
  15   10   23 1
  16   11   12 1
  17   11   18 1
  18   11   13 1
  19   13   14 1
  20   13   15 1
  21   13   18 1
  22   15   16 ar
  23   15   17 ar
  24   18   19 1
