@<TRIPOS>MOLECULE
ZINC000000538351
48    50    1     0     0
SMALL
USER_CHARGES
@<TRIPOS>ATOM
1      O1     -0.0985    0.2279   -0.0273 O.2      1 ZINC000000538351   -0.4800
2      C2     -0.0387    1.4378   -0.0875 C.2      1 ZINC000000538351    0.5100
3      C3      1.2934    2.1331    0.0281 C.3      1 ZINC000000538351   -0.0400
4      N4      2.3669    1.1311    0.0682 N.4      1 ZINC000000538351   -0.3700
5      H5      2.1753    0.4619    0.7986 H        1 ZINC000000538351    0.4500
6      C6      2.4379    0.4376   -1.2249 C.3      1 ZINC000000538351   -0.0200
7      C7      3.4700   -0.6889   -1.1435 C.3      1 ZINC000000538351    0.0500
8      O8      3.0261   -1.6751   -0.2095 O.3      1 ZINC000000538351   -0.5700
9      C9      3.6483    1.7968    0.3378 C.3      1 ZINC000000538351   -0.0100
10     C10     3.6269    2.3926    1.7469 C.3      1 ZINC000000538351    0.0400
11     O11     3.5212    1.3400    2.7075 O.3      1 ZINC000000538351   -0.5800
12     N12    -1.1628    2.1602   -0.2634 N.am     1 ZINC000000538351   -0.5000
13     C13    -1.1040    3.5600   -0.3402 C.ar     1 ZINC000000538351    0.0800
14     C14    -0.6188    4.2778    0.7438 C.ar     1 ZINC000000538351   -0.0900
15     C15    -0.5865    5.6591    0.7037 C.ar     1 ZINC000000538351   -0.1000
16     C16    -1.0410    6.3287   -0.4181 C.ar     1 ZINC000000538351    0.0000
17     Cl17   -1.0194    8.0641   -0.4586 Cl       1 ZINC000000538351   -0.0300
18     C18    -1.5118    5.6193   -1.5071 C.ar     1 ZINC000000538351   -0.1200
19     C19    -1.5311    4.2289   -1.4828 C.ar     1 ZINC000000538351    0.1800
20     N20    -1.9285    3.5396   -2.6253 N.am     1 ZINC000000538351   -0.6600
21     C21    -2.6524    2.4336   -2.6811 C.2      1 ZINC000000538351    0.5700
22     O22    -2.9099    1.9961   -3.7858 O.2      1 ZINC000000538351   -0.5000
23     C23    -3.1721    1.6870   -1.5292 C.ar     1 ZINC000000538351   -0.1300
24     C24    -4.4494    1.1214   -1.5842 C.ar     1 ZINC000000538351   -0.0500
25     C25    -4.9276    0.3935   -0.5158 C.ar     1 ZINC000000538351   -0.1100
26     C26    -4.1482    0.2151    0.6148 C.ar     1 ZINC000000538351   -0.0700
27     C27    -2.8887    0.7779    0.6885 C.ar     1 ZINC000000538351   -0.1000
28     C28    -2.3992    1.5266   -0.3773 C.ar     1 ZINC000000538351    0.1500
29     H29     1.4381    2.7864   -0.8323 H        1 ZINC000000538351    0.1600
30     H30     1.3156    2.7260    0.9425 H        1 ZINC000000538351    0.1600
31     H31     1.4611    0.0186   -1.4666 H        1 ZINC000000538351    0.1500
32     H32     2.7321    1.1446   -2.0006 H        1 ZINC000000538351    0.1400
33     H33     3.5874   -1.1458   -2.1261 H        1 ZINC000000538351    0.1000
34     H34     4.4266   -0.2822   -0.8153 H        1 ZINC000000538351    0.0700
35     H35     3.6330   -2.4209   -0.1067 H        1 ZINC000000538351    0.4100
36     H36     4.4578    1.0708    0.2625 H        1 ZINC000000538351    0.1500
37     H37     3.8048    2.5924   -0.3907 H        1 ZINC000000538351    0.1500
38     H38     4.5471    2.9508    1.9193 H        1 ZINC000000538351    0.1000
39     H39     2.7721    3.0617    1.8455 H        1 ZINC000000538351    0.0700
40     H40     3.5021    1.6452    3.6249 H        1 ZINC000000538351    0.4100
41     H41    -0.2659    3.7559    1.6210 H        1 ZINC000000538351    0.1400
42     H42    -0.2069    6.2153    1.5481 H        1 ZINC000000538351    0.1500
43     H43    -1.8665    6.1470   -2.3802 H        1 ZINC000000538351    0.1600
44     H44    -1.6433    3.9117   -3.4745 H        1 ZINC000000538351    0.4200
45     H45    -5.0617    1.2551   -2.4637 H        1 ZINC000000538351    0.1500
46     H46    -5.9159   -0.0399   -0.5606 H        1 ZINC000000538351    0.1500
47     H47    -4.5267   -0.3661    1.4426 H        1 ZINC000000538351    0.1400
48     H48    -2.2848    0.6349    1.5724 H        1 ZINC000000538351    0.1300
@<TRIPOS>BOND
1     1     2     2
2     2     3     1
3     2     12    am
4     3     4     1
5     3     29    1
6     3     30    1
7     4     5     1
8     4     6     1
9     4     9     1
10    6     7     1
11    6     31    1
12    6     32    1
13    7     8     1
14    7     33    1
15    7     34    1
16    8     35    1
17    9     10    1
18    9     36    1
19    9     37    1
20    10    11    1
21    10    38    1
22    10    39    1
23    11    40    1
24    12    28    1
25    12    13    1
26    13    19    ar
27    13    14    ar
28    14    15    ar
29    14    41    1
30    15    16    ar
31    15    42    1
32    16    17    1
33    16    18    ar
34    18    19    ar
35    18    43    1
36    19    20    1
37    20    21    am
38    20    44    1
39    21    22    2
40    21    23    1
41    23    28    ar
42    23    24    ar
43    24    25    ar
44    24    45    1
45    25    26    ar
46    25    46    1
47    26    27    ar
48    26    47    1
49    27    28    ar
50    27    48    1
@<TRIPOS>SUBSTRUCTURE
1   ZINC000000538351 1     RESIDUE    1   A     ZIN   1
