@<TRIPOS>MOLECULE
ZINC000028900759
65    68    1     0     0
SMALL
USER_CHARGES
@<TRIPOS>ATOM
1      C1      0.2815    1.7160    0.2078 C.3      1 ZINC000028900759   -0.1500
2      C2      0.0574    0.2099    0.0587 C.3      1 ZINC000028900759   -0.1000
3      C3      0.6721   -0.2693   -1.2579 C.3      1 ZINC000028900759    0.0100
4      H4      0.2642    0.3145   -2.0830 H        1 ZINC000028900759    0.0600
5      O5      2.0903   -0.1010   -1.2105 O.3      1 ZINC000028900759   -0.2900
6      C6      2.7368    0.0241   -2.3993 C.ar     1 ZINC000028900759    0.1700
7      C7      2.0383   -0.1220   -3.5888 C.ar     1 ZINC000028900759   -0.1900
8      C8      2.6977    0.0062   -4.7961 C.ar     1 ZINC000028900759   -0.0800
9      C9      4.0527    0.2794   -4.8194 C.ar     1 ZINC000028900759   -0.1500
10     C10     4.7515    0.4251   -3.6350 C.ar     1 ZINC000028900759   -0.0900
11     C11     6.2285    0.7224   -3.6640 C.3      1 ZINC000028900759    0.1700
12     N12     6.4345    2.1728   -3.6791 N.pl3    1 ZINC000028900759   -0.5600
13     C13     6.5604    2.9079   -2.4181 C.3      1 ZINC000028900759    0.1400
14     C14     8.0322    2.9608   -2.0034 C.3      1 ZINC000028900759   -0.1400
15     C15     8.1637    3.7286   -0.6865 C.3      1 ZINC000028900759    0.0600
16     O16     9.5383    3.7780   -0.2991 O.3      1 ZINC000028900759   -0.3100
17     C17     9.8305    4.4294    0.8582 C.ar     1 ZINC000028900759    0.1000
18     C18     8.8136    5.0033    1.6067 C.ar     1 ZINC000028900759   -0.1700
19     C19     9.1105    5.6650    2.7824 C.ar     1 ZINC000028900759   -0.1100
20     C20    10.4253    5.7551    3.2145 C.ar     1 ZINC000028900759    0.0900
21     O21    10.7176    6.4069    4.3716 O.3      1 ZINC000028900759   -0.3200
22     C22    12.0928    6.4610    4.7561 C.3      1 ZINC000028900759    0.0300
23     C23    11.4420    5.1800    2.4666 C.ar     1 ZINC000028900759   -0.1700
24     C24    11.1448    4.5150    1.2930 C.ar     1 ZINC000028900759   -0.1100
25     C25     6.5097    2.8448   -4.8780 C.2      1 ZINC000028900759    0.5200
26     N26     6.6966    4.1338   -5.0046 N.2      1 ZINC000028900759   -0.5500
27     C27     6.7162    4.4439   -6.3301 C.ar     1 ZINC000028900759    0.0700
28     C28     6.8768    5.6349   -7.0386 C.ar     1 ZINC000028900759   -0.0900
29     C29     6.8472    5.6198   -8.4163 C.ar     1 ZINC000028900759   -0.1100
30     C30     6.6589    4.4294   -9.1006 C.ar     1 ZINC000028900759   -0.1200
31     C31     6.4982    3.2437   -8.4115 C.ar     1 ZINC000028900759   -0.0800
32     C32     6.5258    3.2409   -7.0268 C.ar     1 ZINC000028900759   -0.0100
33     O33     6.4077    2.2717   -6.0901 O.3      1 ZINC000028900759   -0.2300
34     C34     4.0956    0.3040   -2.4254 C.ar     1 ZINC000028900759   -0.1500
35     C35     0.3457   -1.7261   -1.4638 C.2      1 ZINC000028900759    0.4800
36     O36    -0.8116   -2.0747   -1.6244 O.co2    1 ZINC000028900759   -0.6900
37     O37     1.2388   -2.5560   -1.4698 O.co2    1 ZINC000028900759   -0.6700
38     H38     1.3512    1.9259    0.2086 H        1 ZINC000028900759    0.0600
39     H39    -0.1905    2.2378   -0.6247 H        1 ZINC000028900759    0.0500
40     H40    -0.1563    2.0574    1.1458 H        1 ZINC000028900759    0.0500
41     H41     0.5295   -0.3119    0.8913 H        1 ZINC000028900759    0.0700
42     H42    -1.0122    0.0000    0.0580 H        1 ZINC000028900759    0.0800
43     H43     0.9798   -0.3362   -3.5711 H        1 ZINC000028900759    0.1300
44     H44     2.1542   -0.1076   -5.7225 H        1 ZINC000028900759    0.1200
45     H45     4.5664    0.3789   -5.7641 H        1 ZINC000028900759    0.1200
46     H46     6.7022    0.2974   -2.7790 H        1 ZINC000028900759    0.1000
47     H47     6.6700    0.2834   -4.5587 H        1 ZINC000028900759    0.0900
48     H48     6.1833    3.9221   -2.5497 H        1 ZINC000028900759    0.0900
49     H49     5.9827    2.4030   -1.6440 H        1 ZINC000028900759    0.0900
50     H50     8.4093    1.9466   -1.8719 H        1 ZINC000028900759    0.0800
51     H51     8.6099    3.4657   -2.7776 H        1 ZINC000028900759    0.0800
52     H52     7.7866    4.7428   -0.8180 H        1 ZINC000028900759    0.0700
53     H53     7.5859    3.2237    0.0877 H        1 ZINC000028900759    0.0700
54     H54     7.7898    4.9331    1.2703 H        1 ZINC000028900759    0.1400
55     H55     8.3187    6.1125    3.3649 H        1 ZINC000028900759    0.1300
56     H56    12.1865    7.0078    5.6944 H        1 ZINC000028900759    0.1000
57     H57    12.4739    5.4481    4.8863 H        1 ZINC000028900759    0.0500
58     H58    12.6671    6.9685    3.9810 H        1 ZINC000028900759    0.0500
59     H59    12.4659    5.2499    2.8033 H        1 ZINC000028900759    0.1300
60     H60    11.9365    4.0672    0.7106 H        1 ZINC000028900759    0.1300
61     H61     7.0234    6.5649   -6.5095 H        1 ZINC000028900759    0.1300
62     H62     6.9711    6.5412   -8.9660 H        1 ZINC000028900759    0.1300
63     H63     6.6374    4.4291  -10.1804 H        1 ZINC000028900759    0.1400
64     H64     6.3513    2.3200   -8.9515 H        1 ZINC000028900759    0.1300
65     H65     4.6417    0.4182   -1.5007 H        1 ZINC000028900759    0.1200
@<TRIPOS>BOND
1     1     2     1
2     1     38    1
3     1     39    1
4     1     40    1
5     2     3     1
6     2     41    1
7     2     42    1
8     3     4     1
9     3     5     1
10    3     35    1
11    5     6     1
12    6     34    ar
13    6     7     ar
14    7     8     ar
15    7     43    1
16    8     9     ar
17    8     44    1
18    9     10    ar
19    9     45    1
20    10    11    1
21    10    34    ar
22    11    12    1
23    11    46    1
24    11    47    1
25    12    13    1
26    12    25    1
27    13    14    1
28    13    48    1
29    13    49    1
30    14    15    1
31    14    50    1
32    14    51    1
33    15    16    1
34    15    52    1
35    15    53    1
36    16    17    1
37    17    24    ar
38    17    18    ar
39    18    19    ar
40    18    54    1
41    19    20    ar
42    19    55    1
43    20    21    1
44    20    23    ar
45    21    22    1
46    22    56    1
47    22    57    1
48    22    58    1
49    23    24    ar
50    23    59    1
51    24    60    1
52    25    33    1
53    25    26    2
54    26    27    1
55    27    32    ar
56    27    28    ar
57    28    29    ar
58    28    61    1
59    29    30    ar
60    29    62    1
61    30    31    ar
62    30    63    1
63    31    32    ar
64    31    64    1
65    32    33    1
66    34    65    1
67    35    36    ar
68    35    37    ar
@<TRIPOS>SUBSTRUCTURE
1   ZINC000028900759 1     RESIDUE    1   A     ZIN   1
