@<TRIPOS>MOLECULE
ZINC000001843003
48    50    1     0     0
SMALL
USER_CHARGES
@<TRIPOS>ATOM
1      C1     -0.0178    1.4608    0.0101 C.3      1 ZINC000001843003    0.0900
2      N2      0.0021   -0.0041    0.0020 N.am     1 ZINC000001843003   -0.5100
3      C3     -1.1889   -0.7120    0.0039 C.2      1 ZINC000001843003    0.3200
4      C4     -1.1437   -2.1005   -0.0039 C.2      1 ZINC000001843003   -0.1500
5      C5      0.1107   -2.7476   -0.0134 C.2      1 ZINC000001843003    0.5900
6      O6      0.1765   -3.9638   -0.0207 O.2      1 ZINC000001843003   -0.5100
7      N7      1.2361   -2.0032   -0.0148 N.am     1 ZINC000001843003   -0.5500
8      C8      2.5413   -2.6685   -0.0246 C.3      1 ZINC000001843003    0.0800
9      C9      1.1776   -0.6603   -0.0127 C.2      1 ZINC000001843003    0.7100
10     O10     2.2127   -0.0220   -0.0144 O.2      1 ZINC000001843003   -0.5300
11     N11    -2.4557   -2.5297    0.0001 N.pl3    1 ZINC000001843003   -0.4100
12     C12    -2.9179   -3.9199   -0.0046 C.3      1 ZINC000001843003    0.1000
13     C13    -2.9529   -4.4505    1.4301 C.3      1 ZINC000001843003    0.0500
14     N14    -3.4163   -5.8445    1.4254 N.3      1 ZINC000001843003   -0.6800
15     C15    -3.4627   -6.3883    2.7893 C.3      1 ZINC000001843003    0.0300
16     C16    -3.9487   -7.8384    2.7438 C.3      1 ZINC000001843003    0.1500
17     H17    -3.2637   -8.4324    2.1388 H        1 ZINC000001843003    0.1200
18     O18    -5.2557   -7.8848    2.1678 O.3      1 ZINC000001843003   -0.5500
19     C19    -3.9963   -8.3963    4.1429 C.ar     1 ZINC000001843003   -0.1100
20     C20    -5.1139   -8.1907    4.9296 C.ar     1 ZINC000001843003   -0.1000
21     C21    -5.1623   -8.7002    6.2142 C.ar     1 ZINC000001843003   -0.1300
22     C22    -4.0892   -9.4190    6.7151 C.ar     1 ZINC000001843003    0.0800
23     O23    -4.1353   -9.9211    7.9780 O.3      1 ZINC000001843003   -0.4900
24     C24    -2.9638   -9.6265    5.9226 C.ar     1 ZINC000001843003    0.0900
25     O25    -1.9080  -10.3319    6.4096 O.3      1 ZINC000001843003   -0.4900
26     C26    -2.9240   -9.1178    4.6348 C.ar     1 ZINC000001843003   -0.1200
27     C27    -3.2306   -1.4275    0.0098 C.2      1 ZINC000001843003    0.2700
28     N28    -2.4766   -0.3579    0.0120 N.2      1 ZINC000001843003   -0.5000
29     H29     1.0048    1.8381    0.0023 H        1 ZINC000001843003    0.1000
30     H30    -0.5450    1.8219   -0.8730 H        1 ZINC000001843003    0.0800
31     H31    -0.5280    1.8123    0.9069 H        1 ZINC000001843003    0.0800
32     H32     2.8601   -2.8279   -1.0547 H        1 ZINC000001843003    0.0800
33     H33     3.2716   -2.0434    0.4891 H        1 ZINC000001843003    0.1000
34     H34     2.4632   -3.6292    0.4844 H        1 ZINC000001843003    0.1000
35     H35    -3.9183   -3.9688   -0.4345 H        1 ZINC000001843003    0.1000
36     H36    -2.2364   -4.5274   -0.6001 H        1 ZINC000001843003    0.1200
37     H37    -1.9525   -4.4016    1.8600 H        1 ZINC000001843003    0.0800
38     H38    -3.6344   -3.8430    2.0256 H        1 ZINC000001843003    0.0400
39     H39    -4.3146   -5.9254    0.9731 H        1 ZINC000001843003    0.3500
40     H40    -2.4658   -6.3529    3.2286 H        1 ZINC000001843003    0.0900
41     H41    -4.1477   -5.7943    3.3942 H        1 ZINC000001843003    0.0400
42     H42    -5.9186   -7.3768    2.6551 H        1 ZINC000001843003    0.3700
43     H43    -5.9512   -7.6305    4.5403 H        1 ZINC000001843003    0.1300
44     H44    -6.0365   -8.5375    6.8272 H        1 ZINC000001843003    0.1400
45     H45    -4.5043  -10.8133    8.0334 H        1 ZINC000001843003    0.3900
46     H46    -1.9586  -11.2826    6.2405 H        1 ZINC000001843003    0.3900
47     H47    -2.0520   -9.2773    4.0178 H        1 ZINC000001843003    0.1400
48     H48    -4.3106   -1.4268    0.0144 H        1 ZINC000001843003    0.2300
@<TRIPOS>BOND
1     1     2     1
2     1     29    1
3     1     30    1
4     1     31    1
5     2     9     am
6     2     3     1
7     3     28    1
8     3     4     2
9     4     5     1
10    4     11    1
11    5     6     2
12    5     7     am
13    7     8     1
14    7     9     am
15    8     32    1
16    8     33    1
17    8     34    1
18    9     10    2
19    11    12    1
20    11    27    1
21    12    13    1
22    12    35    1
23    12    36    1
24    13    14    1
25    13    37    1
26    13    38    1
27    14    15    1
28    14    39    1
29    15    16    1
30    15    40    1
31    15    41    1
32    16    17    1
33    16    18    1
34    16    19    1
35    18    42    1
36    19    26    ar
37    19    20    ar
38    20    21    ar
39    20    43    1
40    21    22    ar
41    21    44    1
42    22    23    1
43    22    24    ar
44    23    45    1
45    24    25    1
46    24    26    ar
47    25    46    1
48    26    47    1
49    27    28    2
50    27    48    1
@<TRIPOS>SUBSTRUCTURE
1   ZINC000001843003 1     RESIDUE    1   A     ZIN   1
