@<TRIPOS>MOLECULE
ZINC000100471580
36    37    1     0     0
SMALL
USER_CHARGES
@<TRIPOS>ATOM
1      N1      0.3805   -0.4555    0.7854 N.am     1 ZINC000100471580   -0.8300
2      C2      0.1688   -1.7667    0.5568 C.2      1 ZINC000100471580    0.5500
3      O3      1.1115   -2.5288    0.4728 O.2      1 ZINC000100471580   -0.4900
4      C4     -1.2133   -2.2790    0.4078 C.ar     1 ZINC000100471580    0.0000
5      C5     -2.3118   -1.4184    0.4952 C.ar     1 ZINC000100471580   -0.1000
6      C6     -3.5834   -1.9387    0.3502 C.ar     1 ZINC000100471580    0.1400
7      N7     -3.7674   -3.2256    0.1327 N.ar     1 ZINC000100471580   -0.3300
8      C8     -5.1342   -3.7322   -0.0146 C.3      1 ZINC000100471580    0.2100
9      O9     -5.5153   -3.6813   -1.3909 O.3      1 ZINC000100471580   -0.3400
10     C10    -6.8390   -4.1558   -1.6453 C.3      1 ZINC000100471580    0.2700
11     N11    -7.8059   -3.1051   -1.3175 N.pl3    1 ZINC000100471580   -0.4500
12     C12    -8.5387   -3.2054   -0.1952 C.2      1 ZINC000100471580    0.1000
13     C13    -9.4443   -2.2450    0.1360 C.2      1 ZINC000100471580   -0.1800
14     C14    -9.6210   -1.1386   -0.6943 C.2      1 ZINC000100471580   -0.0100
15     C15    -8.8660   -1.0360   -1.8498 C.2      1 ZINC000100471580   -0.1600
16     C16    -7.9457   -2.0384   -2.1503 C.2      1 ZINC000100471580    0.3000
17     C17    -7.1360   -1.9487   -3.3686 C.2      1 ZINC000100471580   -0.2700
18     N18    -6.1949   -2.8187   -3.5894 N.2      1 ZINC000100471580   -0.3000
19     O19    -5.5220   -2.7442   -4.6019 O.2      1 ZINC000100471580   -0.1600
20     C20    -2.7600   -4.0709    0.0430 C.ar     1 ZINC000100471580    0.1500
21     C21    -1.4552   -3.6354    0.1703 C.ar     1 ZINC000100471580   -0.0700
22     H22     1.2854   -0.1201    0.8829 H        1 ZINC000100471580    0.4300
23     H23    -0.3719    0.1535    0.8484 H        1 ZINC000100471580    0.4100
24     H24    -2.1685   -0.3630    0.6736 H        1 ZINC000100471580    0.1900
25     H25    -4.4383   -1.2820    0.4164 H        1 ZINC000100471580    0.2100
26     H26    -5.1795   -4.7628    0.3372 H        1 ZINC000100471580    0.1300
27     H27    -5.8150   -3.1171    0.5739 H        1 ZINC000100471580    0.1100
28     H28    -6.9338   -4.4211   -2.6983 H        1 ZINC000100471580    0.1700
29     H29    -7.0346   -5.0343   -1.0303 H        1 ZINC000100471580    0.1100
30     H30    -8.4073   -4.0598    0.4523 H        1 ZINC000100471580    0.1800
31     H31   -10.0260   -2.3399    1.0410 H        1 ZINC000100471580    0.1700
32     H32   -10.3378   -0.3720   -0.4392 H        1 ZINC000100471580    0.1600
33     H33    -8.9857   -0.1881   -2.5080 H        1 ZINC000100471580    0.1700
34     H34    -7.3209   -1.1602   -4.0830 H        1 ZINC000100471580    0.1200
35     H35    -2.9572   -5.1175   -0.1362 H        1 ZINC000100471580    0.2200
36     H36    -0.6346   -4.3336    0.0958 H        1 ZINC000100471580    0.2000
@<TRIPOS>BOND
1     1     2     am
2     1     22    1
3     1     23    1
4     2     3     2
5     2     4     1
6     4     21    ar
7     4     5     ar
8     5     6     ar
9     5     24    1
10    6     7     ar
11    6     25    1
12    7     8     1
13    7     20    ar
14    8     9     1
15    8     26    1
16    8     27    1
17    9     10    1
18    10    11    1
19    10    28    1
20    10    29    1
21    11    16    1
22    11    12    1
23    12    13    2
24    12    30    1
25    13    14    1
26    13    31    1
27    14    15    2
28    14    32    1
29    15    16    1
30    15    33    1
31    16    17    2
32    17    18    1
33    17    34    1
34    18    19    2
35    20    21    ar
36    20    35    1
37    21    36    1
@<TRIPOS>SUBSTRUCTURE
1   ZINC000100471580 1     RESIDUE    1   A     ZIN   1
