@<TRIPOS>MOLECULE
ZINC000035323125
42    46    1     0     0
SMALL
USER_CHARGES
@<TRIPOS>ATOM
1      O1      0.0021   -0.0041    0.0020 O.2      1 ZINC000035323125   -0.5000
2      C2     -0.0144    1.2113    0.0087 C.2      1 ZINC000035323125    0.5700
3      N3      1.1435    1.9010    0.0013 N.am     1 ZINC000035323125   -0.5200
4      N4      2.3661    1.2171   -0.0140 N.am     1 ZINC000035323125   -0.3700
5      C5      2.8641    0.5983    1.0641 C.2      1 ZINC000035323125    0.5400
6      O6      2.3366    0.5528    2.1546 O.2      1 ZINC000035323125   -0.4600
7      C7      4.1904   -0.0356    0.7037 C.3      1 ZINC000035323125   -0.1000
8      H8      4.1529   -1.1167    0.8374 H        1 ZINC000035323125    0.1400
9      C9      4.3741    0.3260   -0.7798 C.3      1 ZINC000035323125   -0.1000
10     H10     4.4287   -0.5729   -1.3940 H        1 ZINC000035323125    0.1400
11     C11     3.1306    1.1234   -1.1094 C.2      1 ZINC000035323125    0.5300
12     O12     2.8716    1.6068   -2.1906 O.2      1 ZINC000035323125   -0.4600
13     C13     5.6207    1.1983   -0.9803 C.3      1 ZINC000035323125   -0.0200
14     H14     5.7354    1.5147   -2.0170 H        1 ZINC000035323125    0.1100
15     C15     5.4886    2.3842   -0.0315 C.2      1 ZINC000035323125   -0.1600
16     C16     5.3298    2.0724    1.2489 C.2      1 ZINC000035323125   -0.1600
17     C17     5.2960    0.5818    1.5707 C.3      1 ZINC000035323125   -0.0200
18     H18     5.1620    0.3963    2.6364 H        1 ZINC000035323125    0.1100
19     C19     6.6343   -0.0001    1.0418 C.3      1 ZINC000035323125   -0.1600
20     H20     6.9376   -0.9758    1.4215 H        1 ZINC000035323125    0.1300
21     C21     7.6989    1.0202    0.6341 C.3      1 ZINC000035323125   -0.1500
22     C22     6.8365    0.3694   -0.4863 C.3      1 ZINC000035323125   -0.1600
23     H23     7.2927   -0.3403   -1.1765 H        1 ZINC000035323125    0.1300
24     C24    -1.3047    1.9331    0.0187 C.ar     1 ZINC000035323125   -0.1000
25     C25    -1.3272    3.3287    0.0206 C.ar     1 ZINC000035323125   -0.0800
26     C26    -2.5345    3.9960    0.0295 C.ar     1 ZINC000035323125   -0.0700
27     C27    -3.7214    3.2850    0.0371 C.ar     1 ZINC000035323125   -0.1500
28     C28    -5.0366    4.0206    0.0473 C.3      1 ZINC000035323125    0.5100
29     F29    -5.4529    4.2499   -1.2685 F        1 ZINC000035323125   -0.1700
30     F30    -5.9965    3.2506    0.7126 F        1 ZINC000035323125   -0.1700
31     F31    -4.8813    5.2444    0.7072 F        1 ZINC000035323125   -0.1700
32     C32    -3.7062    1.9014    0.0348 C.ar     1 ZINC000035323125   -0.0700
33     C33    -2.5057    1.2219    0.0206 C.ar     1 ZINC000035323125   -0.0500
34     H34     1.1303    2.8709    0.0067 H        1 ZINC000035323125    0.4200
35     H35     5.5223    3.4068   -0.3770 H        1 ZINC000035323125    0.1300
36     H36     5.2249    2.8238    2.0175 H        1 ZINC000035323125    0.1300
37     H37     7.5082    2.0666    0.8725 H        1 ZINC000035323125    0.1100
38     H38     8.7417    0.7087    0.6951 H        1 ZINC000035323125    0.1000
39     H39    -0.4014    3.8848    0.0154 H        1 ZINC000035323125    0.1400
40     H40    -2.5533    5.0758    0.0309 H        1 ZINC000035323125    0.1500
41     H41    -4.6361    1.3523    0.0404 H        1 ZINC000035323125    0.1500
42     H42    -2.4951    0.1419    0.0185 H        1 ZINC000035323125    0.1500
@<TRIPOS>BOND
1     1     2     2
2     2     3     am
3     2     24    1
4     3     4     1
5     3     34    1
6     4     11    am
7     4     5     am
8     5     6     2
9     5     7     1
10    7     8     1
11    7     17    1
12    7     9     1
13    9     10    1
14    9     11    1
15    9     13    1
16    11    12    2
17    13    14    1
18    13    22    1
19    13    15    1
20    15    16    2
21    15    35    1
22    16    17    1
23    16    36    1
24    17    18    1
25    17    19    1
26    19    20    1
27    19    22    1
28    19    21    1
29    21    22    1
30    21    37    1
31    21    38    1
32    22    23    1
33    24    33    ar
34    24    25    ar
35    25    26    ar
36    25    39    1
37    26    27    ar
38    26    40    1
39    27    28    1
40    27    32    ar
41    28    29    1
42    28    30    1
43    28    31    1
44    32    33    ar
45    32    41    1
46    33    42    1
@<TRIPOS>SUBSTRUCTURE
1   ZINC000035323125 1     RESIDUE    1   A     ZIN   1
