@<TRIPOS>MOLECULE
ZINC000003791675
38    39    1     0     0
SMALL
USER_CHARGES
@<TRIPOS>ATOM
1      C1     -0.0187    1.5258    0.0104 C.3      1 ZINC000003791675   -0.1500
2      C2      0.0021   -0.0041    0.0020 C.3      1 ZINC000003791675   -0.1200
3      C3      0.7182   -0.4975   -1.2568 C.3      1 ZINC000003791675    0.0600
4      O4      0.7376   -1.9263   -1.2646 O.3      1 ZINC000003791675   -0.3000
5      C5      1.3417   -2.5298   -2.3231 C.ar     1 ZINC000003791675    0.1100
6      C6      1.9082   -1.7635   -3.3285 C.ar     1 ZINC000003791675   -0.1500
7      C7      2.5226   -2.3787   -4.4038 C.ar     1 ZINC000003791675   -0.1000
8      C8      3.1383   -1.5435   -5.4967 C.3      1 ZINC000003791675    0.1400
9      C9      2.1189   -1.2789   -6.6065 C.3      1 ZINC000003791675   -0.1500
10     C10     4.3920   -2.2363   -6.0647 C.3      1 ZINC000003791675    0.0700
11     N11     5.4773   -1.2852   -5.7797 N.am     1 ZINC000003791675   -0.7400
12     C12     4.9644   -0.2168   -5.1542 C.2      1 ZINC000003791675    0.6500
13     O13     5.6378    0.7303   -4.7994 O.2      1 ZINC000003791675   -0.5200
14     O14     3.6432   -0.2879   -4.9569 O.3      1 ZINC000003791675   -0.3200
15     C15     2.5735   -3.7579   -4.4783 C.ar     1 ZINC000003791675   -0.1100
16     C16     2.0095   -4.5287   -3.4783 C.ar     1 ZINC000003791675   -0.1700
17     C17     1.3973   -3.9187   -2.3957 C.ar     1 ZINC000003791675    0.1100
18     O18     0.8422   -4.6753   -1.4114 O.3      1 ZINC000003791675   -0.3000
19     C19     0.9268   -6.0943   -1.5580 C.3      1 ZINC000003791675    0.0200
20     H20     1.0039    1.9031    0.0027 H        1 ZINC000003791675    0.0600
21     H21    -0.5459    1.8868   -0.8726 H        1 ZINC000003791675    0.0600
22     H22    -0.5289    1.8773    0.9072 H        1 ZINC000003791675    0.0700
23     H23     0.5293   -0.3651    0.8851 H        1 ZINC000003791675    0.0700
24     H24    -1.0205   -0.3814    0.0098 H        1 ZINC000003791675    0.0700
25     H25     0.1910   -0.1364   -2.1398 H        1 ZINC000003791675    0.0600
26     H26     1.7408   -0.1202   -1.2645 H        1 ZINC000003791675    0.0600
27     H27     1.8698   -0.6857   -3.2727 H        1 ZINC000003791675    0.1400
28     H28     1.2622   -0.7463   -6.1935 H        1 ZINC000003791675    0.0800
29     H29     2.5806   -0.6744   -7.3873 H        1 ZINC000003791675    0.0700
30     H30     1.7877   -2.2273   -7.0293 H        1 ZINC000003791675    0.0900
31     H31     4.5697   -3.1837   -5.5557 H        1 ZINC000003791675    0.1000
32     H32     4.2906   -2.3909   -7.1389 H        1 ZINC000003791675    0.1000
33     H33     6.4118   -1.4110   -6.0071 H        1 ZINC000003791675    0.4400
34     H34     3.0545   -4.2346   -5.3196 H        1 ZINC000003791675    0.1300
35     H35     2.0501   -5.6062   -3.5392 H        1 ZINC000003791675    0.1400
36     H36     0.4243   -6.3951   -2.4773 H        1 ZINC000003791675    0.0600
37     H37     1.9740   -6.3932   -1.6018 H        1 ZINC000003791675    0.0600
38     H38     0.4465   -6.5768   -0.7067 H        1 ZINC000003791675    0.1000
@<TRIPOS>BOND
1     1     2     1
2     1     20    1
3     1     21    1
4     1     22    1
5     2     3     1
6     2     23    1
7     2     24    1
8     3     4     1
9     3     25    1
10    3     26    1
11    4     5     1
12    5     17    ar
13    5     6     ar
14    6     7     ar
15    6     27    1
16    7     8     1
17    7     15    ar
18    8     14    1
19    8     9     1
20    8     10    1
21    9     28    1
22    9     29    1
23    9     30    1
24    10    11    1
25    10    31    1
26    10    32    1
27    11    12    am
28    11    33    1
29    12    13    2
30    12    14    1
31    15    16    ar
32    15    34    1
33    16    17    ar
34    16    35    1
35    17    18    1
36    18    19    1
37    19    36    1
38    19    37    1
39    19    38    1
@<TRIPOS>SUBSTRUCTURE
1   ZINC000003791675 1     RESIDUE    1   A     ZIN   1
