@<TRIPOS>MOLECULE
ZINC000001587011
  42   45    0    0    0
SMALL
USER_CHARGES
NO_NAME
@<TRIPOS>ATOM
    1 C1       -2.4403    -0.1099    -0.9061 C.3    1 <0>      -0.1100
    2 C2       -1.1771    -0.7899    -0.4446 C.ar   1 <0>      -0.1300
    3 C3       -0.0358    -0.7935    -1.2610 C.ar   1 <0>       0.2000
    4 C4       -0.0975    -0.1192    -2.5791 C.ar   1 <0>      -0.0300
    5 C5       -0.6898     1.1389    -2.6922 C.ar   1 <0>      -0.0900
    6 C6       -0.7466     1.7656    -3.9172 C.ar   1 <0>      -0.1000
    7 C7       -0.2120     1.1426    -5.0449 C.ar   1 <0>      -0.0500
    8 C8       -0.2732     1.8175    -6.3636 C.ar   1 <0>      -0.0700
    9 C9       -1.4779     2.3450    -6.8243 C.ar   1 <0>      -0.0800
   10 C10      -1.5292     2.9722    -8.0528 C.ar   1 <0>      -0.1300
   11 C11      -0.3883     3.0780    -8.8278 C.ar   1 <0>      -0.0900
   12 C12       0.8111     2.5567    -8.3780 C.ar   1 <0>      -0.1500
   13 C13       0.8772     1.9321    -7.1466 C.ar   1 <0>       0.1100
   14 F14       2.0491     1.4233    -6.7072 F      1 <0>      -0.1300
   15 C15       0.3807    -0.1150    -4.9320 C.ar   1 <0>      -0.1000
   16 C16       0.4420    -0.7399    -3.7062 C.ar   1 <0>      -0.0800
   17 N17       1.0881    -1.3746    -0.8966 N.ar   1 <0>      -0.4800
   18 C18       1.2215    -2.0008     0.2726 C.ar   1 <0>       0.1200
   19 C19       2.4373    -2.6125     0.6339 C.ar   1 <0>      -0.0700
   20 C20       2.5446    -3.2441     1.8338 C.ar   1 <0>      -0.1400
   21 C21       1.4663    -3.2975     2.7185 C.ar   1 <0>       0.0800
   22 F22       1.6053    -3.9323     3.9029 F      1 <0>      -0.1400
   23 C23       0.2723    -2.7151     2.4009 C.ar   1 <0>      -0.1000
   24 C24       0.1289    -2.0580     1.1754 C.ar   1 <0>      -0.0700
   25 C25      -1.1298    -1.4143     0.7955 C.ar   1 <0>      -0.0400
   26 C26      -2.3024    -1.4319     1.6917 C.2    1 <0>       0.5300
   27 O27      -2.5098    -0.4918     2.4458 O.co2  1 <0>      -0.6700
   28 O28      -3.0664    -2.3867     1.6802 O.co2  1 <0>      -0.6700
   29 H29      -2.4639     0.9107    -0.5240 H      1 <0>       0.0700
   30 H30      -2.4653    -0.0906    -1.9956 H      1 <0>       0.0700
   31 H31      -3.3053    -0.6578    -0.5325 H      1 <0>       0.0700
   32 H32      -1.1041     1.6212    -1.8192 H      1 <0>       0.1400
   33 H33      -1.2054     2.7394    -4.0048 H      1 <0>       0.1300
   34 H34      -2.3701     2.2629    -6.2213 H      1 <0>       0.1400
   35 H35      -2.4628     3.3811    -8.4100 H      1 <0>       0.1300
   36 H36      -0.4345     3.5695    -9.7883 H      1 <0>       0.1300
   37 H37       1.6984     2.6417    -8.9878 H      1 <0>       0.1400
   38 H38       0.7949    -0.5971    -5.8051 H      1 <0>       0.1200
   39 H39       0.9009    -1.7137    -3.6189 H      1 <0>       0.1300
   40 H40       3.2812    -2.5806    -0.0393 H      1 <0>       0.1400
   41 H41       3.4790    -3.7121     2.1062 H      1 <0>       0.1400
   42 H42      -0.5561    -2.7623     3.0923 H      1 <0>       0.1400
@<TRIPOS>BOND
   1    1    2 1
   2    1   29 1
   3    1   30 1
   4    1   31 1
   5    2   25 ar
   6    2    3 ar
   7    3    4 1
   8    3   17 ar
   9    4   16 ar
  10    4    5 ar
  11    5    6 ar
  12    5   32 1
  13    6    7 ar
  14    6   33 1
  15    7    8 1
  16    7   15 ar
  17    8   13 ar
  18    8    9 ar
  19    9   10 ar
  20    9   34 1
  21   10   11 ar
  22   10   35 1
  23   11   12 ar
  24   11   36 1
  25   12   13 ar
  26   12   37 1
  27   13   14 1
  28   15   16 ar
  29   15   38 1
  30   16   39 1
  31   17   18 ar
  32   18   24 ar
  33   18   19 ar
  34   19   20 ar
  35   19   40 1
  36   20   21 ar
  37   20   41 1
  38   21   22 1
  39   21   23 ar
  40   23   24 ar
  41   23   42 1
  42   24   25 ar
  43   25   26 1
  44   26   27 ar
  45   26   28 ar
