@<TRIPOS>MOLECULE
ZINC000027094928
77    81    1     0     0
SMALL
USER_CHARGES
@<TRIPOS>ATOM
1      O1      0.0021   -0.0041    0.0020 O.2      1 ZINC000027094928   -0.9200
2      S2     -0.0172    1.4168    0.0098 S.o2     1 ZINC000027094928    2.4600
3      O3     -0.7276    2.0987   -1.0146 O.2      1 ZINC000027094928   -0.9200
4      C4     -0.6746    1.9673    1.6180 C.3      1 ZINC000027094928   -0.5700
5      H5     -0.3339    1.2839    2.3958 H        1 ZINC000027094928    0.1600
6      C6     -2.2037    1.9468    1.5678 C.3      1 ZINC000027094928   -0.0600
7      C7     -2.6818    0.5273    1.4018 C.ar     1 ZINC000027094928   -0.1100
8      C8     -2.8583    0.0010    0.1358 C.ar     1 ZINC000027094928   -0.1200
9      C9     -3.2969   -1.3010   -0.0165 C.ar     1 ZINC000027094928   -0.1100
10     C10    -3.5585   -2.0770    1.0972 C.ar     1 ZINC000027094928   -0.1100
11     C11    -3.3811   -1.5510    2.3632 C.ar     1 ZINC000027094928   -0.1200
12     C12    -2.9384   -0.2503    2.5155 C.ar     1 ZINC000027094928   -0.1000
13     C13    -0.2114    3.3633    1.9496 C.3      1 ZINC000027094928    0.1200
14     H14    -1.0059    3.9003    2.4678 H        1 ZINC000027094928    0.1000
15     O15     0.1316    4.0548    0.7470 O.3      1 ZINC000027094928   -0.3900
16     C16    -0.0709    5.4679    0.8111 C.3      1 ZINC000027094928    0.1100
17     C17     0.3208    6.0917   -0.5036 C.ar     1 ZINC000027094928   -0.1000
18     C18     1.6208    6.5149   -0.7078 C.ar     1 ZINC000027094928   -0.1000
19     C19     1.9801    7.0870   -1.9137 C.ar     1 ZINC000027094928   -0.1200
20     C20     1.0395    7.2357   -2.9157 C.ar     1 ZINC000027094928   -0.1100
21     C21    -0.2604    6.8117   -2.7119 C.ar     1 ZINC000027094928   -0.1200
22     C22    -0.6186    6.2356   -1.5075 C.ar     1 ZINC000027094928   -0.0900
23     C23     1.0257    3.2619    2.8609 C.3      1 ZINC000027094928    0.0600
24     H24     0.9108    2.3953    3.5121 H        1 ZINC000027094928    0.0900
25     O25     1.0969    4.4372    3.6707 O.3      1 ZINC000027094928   -0.5600
26     C26     2.2623    3.1307    2.1282 C.3      1 ZINC000027094928    0.0500
27     H27     2.3457    3.9635    1.4299 H        1 ZINC000027094928    0.0900
28     O28     3.3517    3.1956    3.0508 O.3      1 ZINC000027094928   -0.5600
29     C29     2.3629    1.8120    1.3397 C.3      1 ZINC000027094928    0.1200
30     H30     3.4110    1.5466    1.2006 H        1 ZINC000027094928    0.1000
31     O31     1.6941    0.7714    2.0551 O.3      1 ZINC000027094928   -0.3900
32     C32     2.5335    0.0612    2.9678 C.3      1 ZINC000027094928    0.1100
33     C33     1.7290   -1.0066    3.6633 C.ar     1 ZINC000027094928   -0.1000
34     C34     1.0720   -0.7176    4.8447 C.ar     1 ZINC000027094928   -0.1000
35     C35     0.3341   -1.6971    5.4827 C.ar     1 ZINC000027094928   -0.1200
36     C36     0.2528   -2.9654    4.9390 C.ar     1 ZINC000027094928   -0.1100
37     C37     0.9091   -3.2542    3.7571 C.ar     1 ZINC000027094928   -0.1200
38     C38     1.6435   -2.2735    3.1169 C.ar     1 ZINC000027094928   -0.0900
39     C39     1.7065    2.0085   -0.0034 C.3      1 ZINC000027094928   -0.5600
40     H40     1.7179    3.0692   -0.2545 H        1 ZINC000027094928    0.1600
41     C41     2.4927    1.2344   -1.0635 C.3      1 ZINC000027094928   -0.0600
42     C42     1.9174    1.5233   -2.4261 C.ar     1 ZINC000027094928   -0.1100
43     C43     0.9002    0.7335   -2.9285 C.ar     1 ZINC000027094928   -0.1200
44     C44     0.3725    0.9985   -4.1784 C.ar     1 ZINC000027094928   -0.1100
45     C45     0.8618    2.0535   -4.9257 C.ar     1 ZINC000027094928   -0.1100
46     C46     1.8785    2.8438   -4.4229 C.ar     1 ZINC000027094928   -0.1200
47     C47     2.4032    2.5814   -3.1712 C.ar     1 ZINC000027094928   -0.1000
48     H48    -2.6032    2.3587    2.4946 H        1 ZINC000027094928    0.1000
49     H49    -2.5477    2.5469    0.7255 H        1 ZINC000027094928    0.0900
50     H50    -2.6539    0.6073   -0.7343 H        1 ZINC000027094928    0.1200
51     H51    -3.4355   -1.7119   -1.0056 H        1 ZINC000027094928    0.1200
52     H52    -3.9018   -3.0940    0.9782 H        1 ZINC000027094928    0.1200
53     H53    -3.5858   -2.1571    3.2333 H        1 ZINC000027094928    0.1200
54     H54    -2.7998    0.1606    3.5046 H        1 ZINC000027094928    0.1200
55     H55    -1.1218    5.6756    1.0130 H        1 ZINC000027094928    0.0700
56     H56     0.5421    5.8870    1.6091 H        1 ZINC000027094928    0.0700
57     H57     2.3557    6.3987    0.0751 H        1 ZINC000027094928    0.1200
58     H58     2.9957    7.4183   -2.0730 H        1 ZINC000027094928    0.1200
59     H59     1.3200    7.6834   -3.8577 H        1 ZINC000027094928    0.1200
60     H60    -0.9954    6.9282   -3.4946 H        1 ZINC000027094928    0.1200
61     H61    -1.6342    5.9044   -1.3482 H        1 ZINC000027094928    0.1200
62     H62     1.8510    4.4528    4.2758 H        1 ZINC000027094928    0.3800
63     H63     3.3949    4.0221    3.5508 H        1 ZINC000027094928    0.3800
64     H64     3.3553   -0.4013    2.4211 H        1 ZINC000027094928    0.0700
65     H65     2.9339    0.7543    3.7077 H        1 ZINC000027094928    0.0700
66     H66     1.1356    0.2733    5.2695 H        1 ZINC000027094928    0.1200
67     H67    -0.1786   -1.4715    6.4060 H        1 ZINC000027094928    0.1200
68     H68    -0.3231   -3.7308    5.4378 H        1 ZINC000027094928    0.1200
69     H69     0.8458   -4.2452    3.3325 H        1 ZINC000027094928    0.1200
70     H70     2.1562   -2.4991    2.1935 H        1 ZINC000027094928    0.1200
71     H71     3.5379    1.5423   -1.0376 H        1 ZINC000027094928    0.1000
72     H72     2.4235    0.1660   -0.8589 H        1 ZINC000027094928    0.0900
73     H73     0.5179   -0.0907   -2.3446 H        1 ZINC000027094928    0.1300
74     H74    -0.4217    0.3811   -4.5712 H        1 ZINC000027094928    0.1200
75     H75     0.4501    2.2601   -5.9025 H        1 ZINC000027094928    0.1200
76     H76     2.2610    3.6678   -5.0069 H        1 ZINC000027094928    0.1200
77     H77     3.1974    3.1989   -2.7784 H        1 ZINC000027094928    0.1200
@<TRIPOS>BOND
1     1     2     2
2     2     39    1
3     2     3     2
4     2     4     1
5     4     5     1
6     4     6     1
7     4     13    1
8     6     7     1
9     6     48    1
10    6     49    1
11    7     12    ar
12    7     8     ar
13    8     9     ar
14    8     50    1
15    9     10    ar
16    9     51    1
17    10    11    ar
18    10    52    1
19    11    12    ar
20    11    53    1
21    12    54    1
22    13    14    1
23    13    15    1
24    13    23    1
25    15    16    1
26    16    17    1
27    16    55    1
28    16    56    1
29    17    22    ar
30    17    18    ar
31    18    19    ar
32    18    57    1
33    19    20    ar
34    19    58    1
35    20    21    ar
36    20    59    1
37    21    22    ar
38    21    60    1
39    22    61    1
40    23    24    1
41    23    25    1
42    23    26    1
43    25    62    1
44    26    27    1
45    26    28    1
46    26    29    1
47    28    63    1
48    29    30    1
49    29    31    1
50    29    39    1
51    31    32    1
52    32    33    1
53    32    64    1
54    32    65    1
55    33    38    ar
56    33    34    ar
57    34    35    ar
58    34    66    1
59    35    36    ar
60    35    67    1
61    36    37    ar
62    36    68    1
63    37    38    ar
64    37    69    1
65    38    70    1
66    39    40    1
67    39    41    1
68    41    42    1
69    41    71    1
70    41    72    1
71    42    47    ar
72    42    43    ar
73    43    44    ar
74    43    73    1
75    44    45    ar
76    44    74    1
77    45    46    ar
78    45    75    1
79    46    47    ar
80    46    76    1
81    47    77    1
@<TRIPOS>SUBSTRUCTURE
1   ZINC000027094928 1     RESIDUE    1   A     ZIN   1
