@<TRIPOS>MOLECULE
ZINC000005319254
  33   35    0    0    0
SMALL
USER_CHARGES
NO_NAME
@<TRIPOS>ATOM
    1 C1       -0.0173     1.4248     0.0099 C.3    1 <0>       0.0200
    2 O2        0.0021    -0.0041     0.0020 O.3    1 <0>      -0.2800
    3 C3        0.6054    -0.6067    -1.0550 C.ar   1 <0>       0.1500
    4 C4        1.1723     0.1587    -2.0613 C.ar   1 <0>      -0.1400
    5 C5        1.7855    -0.4558    -3.1367 C.ar   1 <0>      -0.4100
    6 S6        2.5040     0.5234    -4.4133 S.o    1 <0>       1.3300
    7 C7        4.2079     0.7587    -3.8370 C.3    1 <0>      -0.5000
    8 O8        2.4989    -0.3544    -5.5307 O.2    1 <0>      -0.8500
    9 C9        1.8384    -1.8363    -3.2155 C.ar   1 <0>      -0.1000
   10 C10       1.2780    -2.6114    -2.2206 C.ar   1 <0>      -0.0600
   11 C11       0.6618    -2.0026    -1.1291 C.ar   1 <0>      -0.0100
   12 C12       0.0584    -2.8300    -0.0578 C.2    1 <0>       0.2900
   13 N13      -0.5509    -2.3404     1.0101 N.2    1 <0>      -0.4800
   14 C14      -0.9750    -3.3662     1.7666 C.2    1 <0>      -0.0400
   15 C15      -1.6533    -3.5056     2.9619 C.2    1 <0>       0.1900
   16 N16      -1.9184    -4.7306     3.4405 N.pl3  1 <0>      -0.5100
   17 C17      -1.5457    -5.8632     2.7954 C.2    1 <0>       0.0400
   18 C18      -0.8781    -5.8322     1.6209 C.2    1 <0>      -0.0800
   19 C19      -0.5609    -4.5832     1.0494 C.2    1 <0>       0.0900
   20 N20       0.0547    -4.1634    -0.0490 N.2    1 <0>      -0.5200
   21 H21       1.0053     1.8021     0.0021 H      1 <0>       0.0600
   22 H22      -0.5445     1.7859    -0.8732 H      1 <0>       0.0600
   23 H23      -0.5275     1.7763     0.9067 H      1 <0>       0.1000
   24 H24       1.1347     1.2366    -2.0054 H      1 <0>       0.1400
   25 H25       4.6926    -0.2118    -3.7303 H      1 <0>       0.0800
   26 H26       4.7564     1.3611    -4.5611 H      1 <0>       0.1100
   27 H27       4.1985     1.2680    -2.8734 H      1 <0>       0.1100
   28 H28       2.3197    -2.3089    -4.0589 H      1 <0>       0.1300
   29 H29       1.3209    -3.6885    -2.2857 H      1 <0>       0.1400
   30 H30      -1.9691    -2.6303     3.5102 H      1 <0>       0.1900
   31 H31      -2.3953    -4.8090     4.2816 H      1 <0>       0.4300
   32 H32      -1.7894    -6.8197     3.2339 H      1 <0>       0.1800
   33 H33      -0.5922    -6.7496     1.1279 H      1 <0>       0.1500
@<TRIPOS>BOND
   1    1    2 1
   2    1   21 1
   3    1   22 1
   4    1   23 1
   5    2    3 1
   6    3   11 ar
   7    3    4 ar
   8    4    5 ar
   9    4   24 1
  10    5    6 1
  11    5    9 ar
  12    6    7 1
  13    6    8 2
  14    7   25 1
  15    7   26 1
  16    7   27 1
  17    9   10 ar
  18    9   28 1
  19   10   11 ar
  20   10   29 1
  21   11   12 1
  22   12   20 1
  23   12   13 2
  24   13   14 1
  25   14   19 1
  26   14   15 2
  27   15   16 1
  28   15   30 1
  29   16   17 1
  30   16   31 1
  31   17   18 2
  32   17   32 1
  33   18   19 1
  34   18   33 1
  35   19   20 2
