@<TRIPOS>MOLECULE
ZINC000001540226
69    70    1     0     0
SMALL
USER_CHARGES
@<TRIPOS>ATOM
1      C1     -1.1920    0.9928   -0.0289 C.3      1 ZINC000001540226   -0.1600
2      C2     -1.2170   -0.5343    0.0622 C.3      1 ZINC000001540226   -0.1300
3      C3     -0.5370   -1.1300   -1.1721 C.3      1 ZINC000001540226   -0.1200
4      C4     -0.4663   -2.6519   -1.0309 C.3      1 ZINC000001540226   -0.0500
5      C5      0.3191   -3.2370   -2.2064 C.3      1 ZINC000001540226   -0.1100
6      C6     -0.3227   -2.7902   -3.5214 C.3      1 ZINC000001540226   -0.1300
7      C7      0.5263   -3.2810   -4.6958 C.3      1 ZINC000001540226   -0.1600
8      C8      0.2365   -3.0100    0.2801 C.3      1 ZINC000001540226   -0.1200
9      C9      0.3162   -4.5328    0.4154 C.3      1 ZINC000001540226   -0.1100
10     C10    -1.0908   -5.1203    0.3971 C.3      1 ZINC000001540226   -0.0700
11     C11    -1.0298   -6.6494    0.5548 C.3      1 ZINC000001540226   -0.1400
12     C12    -1.8007   -6.9454    1.8604 C.3      1 ZINC000001540226    0.0000
13     N13    -2.7090   -5.7818    2.0314 N.4      1 ZINC000001540226   -0.4000
14     H14    -3.5197   -5.8771    1.4382 H        1 ZINC000001540226    0.4300
15     C15    -3.1141   -5.6487    3.4371 C.3      1 ZINC000001540226    0.0000
16     C16    -3.9802   -6.8460    3.8338 C.3      1 ZINC000001540226   -0.1500
17     C17    -4.4021   -6.7073    5.2980 C.3      1 ZINC000001540226    0.0500
18     N18    -5.2338   -7.8568    5.6788 N.3      1 ZINC000001540226   -0.5400
19     C19    -4.4537   -9.1014    5.6562 C.3      1 ZINC000001540226    0.0500
20     C20    -5.4052  -10.2996    5.6527 C.3      1 ZINC000001540226   -0.1500
21     C21    -5.8515   -7.6466    6.9949 C.3      1 ZINC000001540226    0.0500
22     C22    -7.0157   -6.6629    6.8606 C.3      1 ZINC000001540226   -0.1500
23     C23    -1.8916   -4.6136    1.6106 C.3      1 ZINC000001540226    0.0000
24     C24    -1.8109   -4.7532   -0.8961 C.3      1 ZINC000001540226   -0.1200
25     C25    -1.8830   -3.2297   -1.0265 C.3      1 ZINC000001540226   -0.1200
26     H26    -1.6765    1.4172    0.8504 H        1 ZINC000001540226    0.0500
27     H27    -0.1589    1.3371   -0.0763 H        1 ZINC000001540226    0.0600
28     H28    -1.7229    1.3120   -0.9258 H        1 ZINC000001540226    0.0600
29     H29    -0.6861   -0.8535    0.9591 H        1 ZINC000001540226    0.0600
30     H30    -2.2501   -0.8786    0.1096 H        1 ZINC000001540226    0.0600
31     H31    -1.1113   -0.8740   -2.0625 H        1 ZINC000001540226    0.0700
32     H32     0.4715   -0.7263   -1.2618 H        1 ZINC000001540226    0.0700
33     H33     1.3495   -2.8838   -2.1665 H        1 ZINC000001540226    0.0600
34     H34     0.3055   -4.3252   -2.1467 H        1 ZINC000001540226    0.0700
35     H35    -1.3256   -3.2104   -3.5975 H        1 ZINC000001540226    0.0600
36     H36    -0.3819   -1.7021   -3.5456 H        1 ZINC000001540226    0.0700
37     H37     1.5292   -2.8608   -4.6198 H        1 ZINC000001540226    0.0500
38     H38     0.5855   -4.3691   -4.6717 H        1 ZINC000001540226    0.0500
39     H39     0.0691   -2.9627   -5.6327 H        1 ZINC000001540226    0.0600
40     H40     1.2431   -2.5920    0.2788 H        1 ZINC000001540226    0.0700
41     H41    -0.3267   -2.5996    1.1183 H        1 ZINC000001540226    0.0700
42     H42     0.8913   -4.9416   -0.4154 H        1 ZINC000001540226    0.0900
43     H43     0.8045   -4.7888    1.3557 H        1 ZINC000001540226    0.0700
44     H44    -1.5146   -7.1374   -0.2907 H        1 ZINC000001540226    0.1000
45     H45     0.0051   -6.9804    0.6423 H        1 ZINC000001540226    0.1100
46     H46    -2.3764   -7.8657    1.7616 H        1 ZINC000001540226    0.1300
47     H47    -1.1110   -7.0159    2.7015 H        1 ZINC000001540226    0.1300
48     H48    -2.2268   -5.6168    4.0695 H        1 ZINC000001540226    0.1300
49     H49    -3.6849   -4.7290    3.5653 H        1 ZINC000001540226    0.1300
50     H50    -4.8675   -6.8779    3.2015 H        1 ZINC000001540226    0.1000
51     H51    -3.4095   -7.7657    3.7057 H        1 ZINC000001540226    0.0900
52     H52    -3.5149   -6.6754    5.9303 H        1 ZINC000001540226    0.0400
53     H53    -4.9729   -5.7876    5.4261 H        1 ZINC000001540226    0.0900
54     H54    -3.8349   -9.1262    4.7593 H        1 ZINC000001540226    0.0700
55     H55    -3.8159   -9.1466    6.5390 H        1 ZINC000001540226    0.0400
56     H56    -6.0805  -10.2299    6.5054 H        1 ZINC000001540226    0.0600
57     H57    -5.9846  -10.3007    4.7294 H        1 ZINC000001540226    0.0600
58     H58    -4.8282  -11.2219    5.7206 H        1 ZINC000001540226    0.0600
59     H59    -6.2217   -8.5973    7.3786 H        1 ZINC000001540226    0.0800
60     H60    -5.1105   -7.2406    7.6835 H        1 ZINC000001540226    0.0400
61     H61    -6.6616   -5.7421    6.3971 H        1 ZINC000001540226    0.0500
62     H62    -7.7954   -7.1053    6.2405 H        1 ZINC000001540226    0.0600
63     H63    -7.4194   -6.4406    7.8483 H        1 ZINC000001540226    0.0600
64     H64    -1.2174   -4.3124    2.4124 H        1 ZINC000001540226    0.1300
65     H65    -2.5355   -3.7829    1.3216 H        1 ZINC000001540226    0.1400
66     H66    -1.2653   -5.1650   -1.7451 H        1 ZINC000001540226    0.0900
67     H67    -2.8202   -5.1645   -0.8791 H        1 ZINC000001540226    0.0600
68     H68    -2.4405   -2.8188   -0.1847 H        1 ZINC000001540226    0.0600
69     H69    -2.3852   -2.9679   -1.9578 H        1 ZINC000001540226    0.0800
@<TRIPOS>BOND
1     1     2     1
2     1     26    1
3     1     27    1
4     1     28    1
5     2     3     1
6     2     29    1
7     2     30    1
8     3     4     1
9     3     31    1
10    3     32    1
11    4     25    1
12    4     5     1
13    4     8     1
14    5     6     1
15    5     33    1
16    5     34    1
17    6     7     1
18    6     35    1
19    6     36    1
20    7     37    1
21    7     38    1
22    7     39    1
23    8     9     1
24    8     40    1
25    8     41    1
26    9     10    1
27    9     42    1
28    9     43    1
29    10    23    1
30    10    11    1
31    10    24    1
32    11    12    1
33    11    44    1
34    11    45    1
35    12    13    1
36    12    46    1
37    12    47    1
38    13    14    1
39    13    15    1
40    13    23    1
41    15    16    1
42    15    48    1
43    15    49    1
44    16    17    1
45    16    50    1
46    16    51    1
47    17    18    1
48    17    52    1
49    17    53    1
50    18    19    1
51    18    21    1
52    19    20    1
53    19    54    1
54    19    55    1
55    20    56    1
56    20    57    1
57    20    58    1
58    21    22    1
59    21    59    1
60    21    60    1
61    22    61    1
62    22    62    1
63    22    63    1
64    23    64    1
65    23    65    1
66    24    25    1
67    24    66    1
68    24    67    1
69    25    68    1
70    25    69    1
@<TRIPOS>SUBSTRUCTURE
1   ZINC000001540226 1     RESIDUE    1   A     ZIN   1
