@<TRIPOS>MOLECULE
ZINC000034035621
74    77    1     0     0
SMALL
USER_CHARGES
@<TRIPOS>ATOM
1      C1      0.5089    2.1727    0.2321 C.3      1 ZINC000034035621   -0.1500
2      C2      0.6072    0.6462    0.2024 C.3      1 ZINC000034035621   -0.1000
3      C3      1.3466    0.2072   -1.0631 C.3      1 ZINC000034035621   -0.1500
4      C4      1.3729    0.1604    1.4348 C.3      1 ZINC000034035621   -0.1200
5      C5      0.5715    0.4899    2.6958 C.3      1 ZINC000034035621   -0.1200
6      C6      1.3371    0.0042    3.9281 C.3      1 ZINC000034035621   -0.1200
7      C7      0.5357    0.3337    5.1891 C.3      1 ZINC000034035621   -0.0800
8      H8      0.3119    1.4003    5.2090 H        1 ZINC000034035621    0.0700
9      C9     -0.7713   -0.4616    5.1851 C.3      1 ZINC000034035621   -0.1600
10     C10     1.3555   -0.0385    6.4262 C.3      1 ZINC000034035621   -0.0700
11     H11     1.5971   -1.1013    6.4127 H        1 ZINC000034035621    0.0700
12     C12     2.6527    0.8061    6.4845 C.3      1 ZINC000034035621   -0.1200
13     C13     2.6252    1.5576    7.8435 C.3      1 ZINC000034035621   -0.1200
14     C14     1.7101    0.6785    8.7032 C.3      1 ZINC000034035621   -0.0800
15     H15     2.2388   -0.2190    9.0242 H        1 ZINC000034035621    0.0700
16     C16     1.0641    1.3639    9.8934 C.3      1 ZINC000034035621   -0.0800
17     H17     0.4925    2.2300    9.5599 H        1 ZINC000034035621    0.0900
18     C18     2.1446    1.8005   10.8873 C.3      1 ZINC000034035621   -0.1100
19     C19     1.4862    2.5504   12.0472 C.3      1 ZINC000034035621   -0.0900
20     C20     0.4155    1.6645   12.6577 C.2      1 ZINC000034035621   -0.0500
21     C21     0.4094    1.5262   13.9788 C.2      1 ZINC000034035621   -0.1800
22     C22    -0.6165    0.6914   14.6282 C.2      1 ZINC000034035621    0.1600
23     N23    -0.4452    0.1989   15.8140 N.2      1 ZINC000034035621   -0.3400
24     O24     0.7533    0.4581   16.5220 O.3      1 ZINC000034035621   -0.4100
25     C25    -1.8833    0.4393   13.8337 C.3      1 ZINC000034035621   -0.0600
26     C26    -1.4626   -0.0188   12.4380 C.3      1 ZINC000034035621   -0.1100
27     C27    -0.5790    1.0075   11.7512 C.3      1 ZINC000034035621   -0.0200
28     C28    -1.4828    2.0971   11.1709 C.3      1 ZINC000034035621   -0.1500
29     C29     0.1311    0.3455   10.5645 C.3      1 ZINC000034035621   -0.0600
30     H30     0.7426   -0.4785   10.9323 H        1 ZINC000034035621    0.0700
31     C31    -0.9150   -0.2049    9.5997 C.3      1 ZINC000034035621   -0.1200
32     C32    -0.2702   -0.7767    8.3272 C.3      1 ZINC000034035621   -0.1000
33     C33     0.5858    0.3124    7.6955 C.3      1 ZINC000034035621   -0.0600
34     C34    -0.2589    1.5669    7.4638 C.3      1 ZINC000034035621   -0.1600
35     H35     1.5110    2.6015    0.2296 H        1 ZINC000034035621    0.0500
36     H36    -0.0366    2.5188   -0.6459 H        1 ZINC000034035621    0.0500
37     H37    -0.0179    2.4854    1.1337 H        1 ZINC000034035621    0.0600
38     H38    -0.3949    0.2174    0.2049 H        1 ZINC000034035621    0.0700
39     H39     2.3487    0.6360   -1.0656 H        1 ZINC000034035621    0.0500
40     H40     1.4166   -0.8803   -1.0842 H        1 ZINC000034035621    0.0500
41     H41     0.8011    0.5533   -1.9411 H        1 ZINC000034035621    0.0500
42     H42     1.5203   -0.9176    1.3694 H        1 ZINC000034035621    0.0600
43     H43     2.3418    0.6576    1.4798 H        1 ZINC000034035621    0.0600
44     H44     0.4240    1.5679    2.7612 H        1 ZINC000034035621    0.0600
45     H45    -0.3975   -0.0072    2.6507 H        1 ZINC000034035621    0.0600
46     H46     1.4845   -1.0738    3.8627 H        1 ZINC000034035621    0.0600
47     H47     2.3061    0.5013    3.9732 H        1 ZINC000034035621    0.0600
48     H48    -1.3422   -0.2269    6.0835 H        1 ZINC000034035621    0.0600
49     H49    -1.3553   -0.1964    4.3038 H        1 ZINC000034035621    0.0500
50     H50    -0.5475   -1.5282    5.1652 H        1 ZINC000034035621    0.0500
51     H51     3.5255    0.1551    6.4346 H        1 ZINC000034035621    0.0600
52     H52     2.6710    1.5210    5.6619 H        1 ZINC000034035621    0.0700
53     H53     3.6248    1.6114    8.2748 H        1 ZINC000034035621    0.0600
54     H54     2.2013    2.5547    7.7242 H        1 ZINC000034035621    0.0700
55     H55     2.6643    0.9220   11.2696 H        1 ZINC000034035621    0.0600
56     H56     2.8564    2.4568   10.3865 H        1 ZINC000034035621    0.0700
57     H57     2.2366    2.7887   12.8009 H        1 ZINC000034035621    0.0700
58     H58     1.0324    3.4697   11.6771 H        1 ZINC000034035621    0.0800
59     H59     1.1570    2.0256   14.5772 H        1 ZINC000034035621    0.1300
60     H60     0.7894    0.0489   17.3974 H        1 ZINC000034035621    0.4000
61     H61    -2.4749   -0.3384   14.3165 H        1 ZINC000034035621    0.0900
62     H62    -2.4651    1.3583   13.7625 H        1 ZINC000034035621    0.0900
63     H63    -0.9166   -0.9584   12.5221 H        1 ZINC000034035621    0.0700
64     H64    -2.3549   -0.1809   11.8334 H        1 ZINC000034035621    0.0800
65     H65    -1.9611    2.6434   11.9838 H        1 ZINC000034035621    0.0600
66     H66    -0.8847    2.7851   10.5733 H        1 ZINC000034035621    0.0600
67     H67    -2.2463    1.6392   10.5422 H        1 ZINC000034035621    0.0700
68     H68    -1.4780   -0.9940   10.0982 H        1 ZINC000034035621    0.0600
69     H69    -1.5992    0.5969    9.3220 H        1 ZINC000034035621    0.0700
70     H70     0.3836   -1.6101    8.5845 H        1 ZINC000034035621    0.0600
71     H71    -1.0444   -1.1104    7.6363 H        1 ZINC000034035621    0.0700
72     H72    -0.7264    1.8683    8.4012 H        1 ZINC000034035621    0.0600
73     H73     0.3791    2.3725    7.1004 H        1 ZINC000034035621    0.0600
74     H74    -1.0312    1.3535    6.7248 H        1 ZINC000034035621    0.0600
@<TRIPOS>BOND
1     1     2     1
2     1     35    1
3     1     36    1
4     1     37    1
5     2     3     1
6     2     4     1
7     2     38    1
8     3     39    1
9     3     40    1
10    3     41    1
11    4     5     1
12    4     42    1
13    4     43    1
14    5     6     1
15    5     44    1
16    5     45    1
17    6     7     1
18    6     46    1
19    6     47    1
20    7     8     1
21    7     9     1
22    7     10    1
23    9     48    1
24    9     49    1
25    9     50    1
26    10    11    1
27    10    33    1
28    10    12    1
29    12    13    1
30    12    51    1
31    12    52    1
32    13    14    1
33    13    53    1
34    13    54    1
35    14    15    1
36    14    33    1
37    14    16    1
38    16    17    1
39    16    29    1
40    16    18    1
41    18    19    1
42    18    55    1
43    18    56    1
44    19    20    1
45    19    57    1
46    19    58    1
47    20    27    1
48    20    21    2
49    21    22    1
50    21    59    1
51    22    23    2
52    22    25    1
53    23    24    1
54    24    60    1
55    25    26    1
56    25    61    1
57    25    62    1
58    26    27    1
59    26    63    1
60    26    64    1
61    27    28    1
62    27    29    1
63    28    65    1
64    28    66    1
65    28    67    1
66    29    30    1
67    29    31    1
68    31    32    1
69    31    68    1
70    31    69    1
71    32    33    1
72    32    70    1
73    32    71    1
74    33    34    1
75    34    72    1
76    34    73    1
77    34    74    1
@<TRIPOS>SUBSTRUCTURE
1   ZINC000034035621 1     RESIDUE    1   A     ZIN   1
