@<TRIPOS>MOLECULE
ZINC000254010483
56    59    1     0     0
SMALL
USER_CHARGES
@<TRIPOS>ATOM
1      C1      0.5766    0.9257    0.3017 C.3      1 ZINC000254010483   -0.2100
2      C2     -0.4119   -0.1313   -0.1188 C.2      1 ZINC000254010483    0.3400
3      O3     -1.3753   -0.3655    0.5706 O.2      1 ZINC000254010483   -0.4400
4      C4     -0.1980   -0.8962   -1.3995 C.3      1 ZINC000254010483    0.1000
5      O5      0.3415   -0.0359   -2.4050 O.3      1 ZINC000254010483   -0.5400
6      C6     -1.5320   -1.5187   -1.8822 C.3      1 ZINC000254010483   -0.1500
7      C7     -1.2881   -3.0489   -1.9882 C.3      1 ZINC000254010483   -0.1100
8      C8      0.2306   -3.1426   -2.1724 C.3      1 ZINC000254010483   -0.0800
9      H9      0.5086   -2.8645   -3.1890 H        1 ZINC000254010483    0.0900
10     C10     0.8622   -4.4695   -1.7957 C.3      1 ZINC000254010483   -0.1000
11     H11     0.6289   -4.7165   -0.7601 H        1 ZINC000254010483    0.1100
12     C12     0.3648   -5.5803   -2.7297 C.3      1 ZINC000254010483   -0.1100
13     C13     0.8250   -6.9173   -2.1458 C.3      1 ZINC000254010483   -0.0600
14     H14     0.6466   -7.7088   -2.8737 H        1 ZINC000254010483    0.0900
15     C15     0.0303   -7.2132   -0.8723 C.3      1 ZINC000254010483   -0.1400
16     C16     2.2873   -6.8698   -1.8131 C.2      1 ZINC000254010483   -0.0300
17     C17     2.9193   -8.0324   -1.5301 C.2      1 ZINC000254010483   -0.2300
18     C18     4.3534   -7.8875   -1.1577 C.2      1 ZINC000254010483    0.4100
19     O19     5.2145   -8.6488   -1.5574 O.2      1 ZINC000254010483   -0.4500
20     C20     4.6527   -6.7393   -0.2579 C.2      1 ZINC000254010483   -0.2300
21     C21     4.0028   -5.5936   -0.5591 C.2      1 ZINC000254010483   -0.0900
22     C22     3.1004   -5.6214   -1.7602 C.3      1 ZINC000254010483   -0.0300
23     C23     4.0574   -5.7374   -2.9483 C.3      1 ZINC000254010483   -0.1500
24     C24     2.3774   -4.3224   -1.9765 C.3      1 ZINC000254010483    0.1600
25     F25     2.5766   -3.9598   -3.3129 F        1 ZINC000254010483   -0.2000
26     C26     2.9634   -3.1987   -1.1295 C.3      1 ZINC000254010483    0.0900
27     H27     4.0197   -3.0822   -1.3722 H        1 ZINC000254010483    0.0800
28     O28     2.8355   -3.5386    0.2526 O.3      1 ZINC000254010483   -0.5400
29     C29     2.2367   -1.8677   -1.3894 C.3      1 ZINC000254010483   -0.1300
30     C30     0.7346   -2.0784   -1.1596 C.3      1 ZINC000254010483   -0.0400
31     C31     0.5018   -2.6500    0.2404 C.3      1 ZINC000254010483   -0.1700
32     H32     1.3542    0.4721    0.9161 H        1 ZINC000254010483    0.1000
33     H33     1.0281    1.3736   -0.5836 H        1 ZINC000254010483    0.0900
34     H34     0.0623    1.6959    0.8765 H        1 ZINC000254010483    0.0900
35     H35    -0.2187    0.7239   -2.6145 H        1 ZINC000254010483    0.3800
36     H36    -2.3228   -1.3150   -1.1602 H        1 ZINC000254010483    0.0900
37     H37    -1.8022   -1.1144   -2.8577 H        1 ZINC000254010483    0.0800
38     H38    -1.5974   -3.5531   -1.0727 H        1 ZINC000254010483    0.0700
39     H39    -1.8076   -3.4633   -2.8523 H        1 ZINC000254010483    0.0700
40     H40    -0.7235   -5.5563   -2.7859 H        1 ZINC000254010483    0.0800
41     H41     0.7902   -5.4452   -3.7242 H        1 ZINC000254010483    0.0800
42     H42    -1.0320   -7.2655   -1.1107 H        1 ZINC000254010483    0.0600
43     H43     0.3560   -8.1655   -0.4538 H        1 ZINC000254010483    0.0600
44     H44     0.2008   -6.4194   -0.1450 H        1 ZINC000254010483    0.0600
45     H45     2.4222   -8.9904   -1.5708 H        1 ZINC000254010483    0.1500
46     H46     5.3378   -6.8166    0.5735 H        1 ZINC000254010483    0.1500
47     H47     4.1258   -4.7004    0.0354 H        1 ZINC000254010483    0.1800
48     H48     4.6424   -6.6524   -2.8557 H        1 ZINC000254010483    0.0600
49     H49     3.4843   -5.7647   -3.8751 H        1 ZINC000254010483    0.0800
50     H50     4.7272   -4.8776   -2.9606 H        1 ZINC000254010483    0.0700
51     H51     3.1871   -2.8700    0.8562 H        1 ZINC000254010483    0.3800
52     H52     2.6331   -1.0943   -0.7315 H        1 ZINC000254010483    0.0800
53     H53     2.3658   -1.5720   -2.4305 H        1 ZINC000254010483    0.0900
54     H54     0.9728   -2.0026    0.9801 H        1 ZINC000254010483    0.0500
55     H55    -0.5690   -2.7066    0.4364 H        1 ZINC000254010483    0.0600
56     H56     0.9356   -3.6480    0.3022 H        1 ZINC000254010483    0.1100
@<TRIPOS>BOND
1     1     2     1
2     1     32    1
3     1     33    1
4     1     34    1
5     2     3     2
6     2     4     1
7     4     30    1
8     4     5     1
9     4     6     1
10    5     35    1
11    6     7     1
12    6     36    1
13    6     37    1
14    7     8     1
15    7     38    1
16    7     39    1
17    8     9     1
18    8     30    1
19    8     10    1
20    10    11    1
21    10    24    1
22    10    12    1
23    12    13    1
24    12    40    1
25    12    41    1
26    13    14    1
27    13    15    1
28    13    16    1
29    15    42    1
30    15    43    1
31    15    44    1
32    16    22    1
33    16    17    2
34    17    18    1
35    17    45    1
36    18    19    2
37    18    20    1
38    20    21    2
39    20    46    1
40    21    22    1
41    21    47    1
42    22    23    1
43    22    24    1
44    23    48    1
45    23    49    1
46    23    50    1
47    24    25    1
48    24    26    1
49    26    27    1
50    26    28    1
51    26    29    1
52    28    51    1
53    29    30    1
54    29    52    1
55    29    53    1
56    30    31    1
57    31    54    1
58    31    55    1
59    31    56    1
@<TRIPOS>SUBSTRUCTURE
1   ZINC000254010483 1     RESIDUE    1   A     ZIN   1
