@<TRIPOS>MOLECULE
ZINC000014211051
77    82    1     0     0
SMALL
USER_CHARGES
@<TRIPOS>ATOM
1      C1     -4.9785    1.7735    0.3593 C.3      1 ZINC000014211051   -0.1600
2      C2     -4.9009    0.2481    0.2700 C.3      1 ZINC000014211051   -0.1200
3      C3     -3.4352   -0.1844    0.1951 C.3      1 ZINC000014211051   -0.1200
4      C4     -3.3575   -1.7098    0.1058 C.3      1 ZINC000014211051   -0.1400
5      C5     -1.8919   -2.1424    0.0309 C.3      1 ZINC000014211051    0.0900
6      N6     -1.8175   -3.6030   -0.0546 N.pl3    1 ZINC000014211051   -0.5300
7      C7     -1.7540   -4.2171   -1.2725 C.2      1 ZINC000014211051    0.3800
8      N8     -1.6873   -5.5089   -1.4102 N.2      1 ZINC000014211051   -0.5200
9      C9     -1.6766   -6.3374   -0.3310 C.ar     1 ZINC000014211051    0.1400
10     C10    -1.7395   -5.7696    0.9616 C.ar     1 ZINC000014211051   -0.1500
11     C11    -1.7325   -6.5872    2.1125 C.ar     1 ZINC000014211051    0.1900
12     C12    -1.6611   -7.9805    1.9429 C.ar     1 ZINC000014211051   -0.1300
13     C13    -1.6003   -8.5150    0.6876 C.ar     1 ZINC000014211051   -0.0500
14     C14    -1.6070   -7.7181   -0.4499 C.ar     1 ZINC000014211051   -0.1300
15     N15    -1.7929   -6.0211    3.3208 N.ar     1 ZINC000014211051   -0.4700
16     C16    -1.8589   -4.7022    3.4743 C.ar     1 ZINC000014211051    0.2300
17     C17    -1.9289   -3.8751    4.7032 C.2      1 ZINC000014211051    0.2000
18     C18    -1.9401   -4.2477    6.0198 C.2      1 ZINC000014211051   -0.1600
19     C19    -2.0181   -3.2793    7.0295 C.2      1 ZINC000014211051    0.0000
20     C20    -2.0835   -1.9643    6.6908 C.2      1 ZINC000014211051   -0.2000
21     C21    -2.1930   -0.8693    7.7181 C.3      1 ZINC000014211051    0.1400
22     O22    -1.8380   -1.3662    9.0352 O.3      1 ZINC000014211051   -0.3600
23     C23    -2.3803   -2.5637    9.3540 C.2      1 ZINC000014211051    0.4800
24     O24    -3.1206   -2.6927   10.3002 O.2      1 ZINC000014211051   -0.4100
25     C25    -2.0148   -3.7321    8.4679 C.3      1 ZINC000014211051    0.1300
26     C26    -0.6209   -4.2409    8.8409 C.3      1 ZINC000014211051   -0.1000
27     C27    -0.5887   -4.5952   10.3290 C.3      1 ZINC000014211051   -0.1600
28     O28    -2.9856   -4.7974    8.6439 O.3      1 ZINC000014211051   -0.3200
29     C29    -4.2660   -4.5075    8.3641 C.2      1 ZINC000014211051    0.4500
30     O30    -4.5563   -3.4222    7.9193 O.2      1 ZINC000014211051   -0.4900
31     C31    -5.3413   -5.5355    8.6046 C.3      1 ZINC000014211051    0.1300
32     N32    -6.6420   -4.9801    8.2228 N.am     1 ZINC000014211051   -0.6100
33     C33    -7.1345   -5.1435    6.8527 C.3      1 ZINC000014211051    0.0800
34     C34    -7.3856   -4.3190    9.1318 C.2      1 ZINC000014211051    0.5200
35     O35    -6.9778   -4.1838   10.2660 O.2      1 ZINC000014211051   -0.5100
36     C36    -8.7236   -3.7477    8.7390 C.3      1 ZINC000014211051    0.0500
37     N37    -9.3307   -3.0806    9.8985 N.3      1 ZINC000014211051   -0.8300
38     C38    -2.0540   -1.6064    5.3266 C.2      1 ZINC000014211051    0.5500
39     O39    -2.0924   -0.4285    5.0101 O.2      1 ZINC000014211051   -0.5300
40     N40    -1.9836   -2.5520    4.3699 N.am     1 ZINC000014211051   -0.4900
41     C41    -1.9506   -2.4374    2.9061 C.3      1 ZINC000014211051    0.1600
42     C42    -1.8697   -3.8420    2.3681 C.ar     1 ZINC000014211051   -0.2600
43     C43    -1.8055   -4.3664    1.0965 C.ar     1 ZINC000014211051    0.2700
44     H44    -6.0227    2.0817    0.4126 H        1 ZINC000014211051    0.0600
45     H45    -4.4536    2.1124    1.2525 H        1 ZINC000014211051    0.0600
46     H46    -4.5146    2.2133   -0.5236 H        1 ZINC000014211051    0.0600
47     H47    -5.3648   -0.1916    1.1529 H        1 ZINC000014211051    0.0600
48     H48    -5.4258   -0.0907   -0.6232 H        1 ZINC000014211051    0.0600
49     H49    -2.9712    0.2553   -0.6878 H        1 ZINC000014211051    0.0700
50     H50    -2.9103    0.1544    1.0883 H        1 ZINC000014211051    0.0700
51     H51    -3.8215   -2.1496    0.9887 H        1 ZINC000014211051    0.0700
52     H52    -3.8824   -2.0487   -0.7874 H        1 ZINC000014211051    0.0800
53     H53    -1.4279   -1.7026   -0.8520 H        1 ZINC000014211051    0.1100
54     H54    -1.3670   -1.8035    0.9241 H        1 ZINC000014211051    0.1000
55     H55    -1.7598   -3.6031   -2.1610 H        1 ZINC000014211051    0.2100
56     H56    -1.6539   -8.6292    2.8062 H        1 ZINC000014211051    0.1400
57     H57    -1.5457   -9.5879    0.5763 H        1 ZINC000014211051    0.1400
58     H58    -1.5574   -8.1735   -1.4279 H        1 ZINC000014211051    0.1400
59     H59    -1.8888   -5.2941    6.2822 H        1 ZINC000014211051    0.1600
60     H60    -1.5207   -0.0549    7.4482 H        1 ZINC000014211051    0.1300
61     H61    -3.2172   -0.4970    7.7386 H        1 ZINC000014211051    0.1000
62     H62    -0.3879   -5.1275    8.2512 H        1 ZINC000014211051    0.1000
63     H63     0.1161   -3.4643    8.6363 H        1 ZINC000014211051    0.1000
64     H64     0.3705   -5.0518   10.5731 H        1 ZINC000014211051    0.0700
65     H65    -0.7211   -3.6896   10.9210 H        1 ZINC000014211051    0.0600
66     H66    -1.3925   -5.2965   10.5530 H        1 ZINC000014211051    0.0700
67     H67    -5.1355   -6.4233    8.0066 H        1 ZINC000014211051    0.1300
68     H68    -5.3570   -5.8046    9.6608 H        1 ZINC000014211051    0.1300
69     H69    -7.7119   -6.0653    6.7816 H        1 ZINC000014211051    0.0700
70     H70    -7.7688   -4.2964    6.5913 H        1 ZINC000014211051    0.0800
71     H71    -6.2894   -5.1902    6.1659 H        1 ZINC000014211051    0.0700
72     H72    -8.5881   -3.0253    7.9341 H        1 ZINC000014211051    0.0600
73     H73    -9.3765   -4.5518    8.3995 H        1 ZINC000014211051    0.1000
74     H74    -8.7155   -2.3734   10.2719 H        1 ZINC000014211051    0.3500
75     H75   -10.2296   -2.6889    9.6607 H        1 ZINC000014211051    0.3500
76     H76    -2.8589   -1.9523    2.5487 H        1 ZINC000014211051    0.1100
77     H77    -1.0750   -1.8672    2.5956 H        1 ZINC000014211051    0.1100
@<TRIPOS>BOND
1     1     2     1
2     1     44    1
3     1     45    1
4     1     46    1
5     2     3     1
6     2     47    1
7     2     48    1
8     3     4     1
9     3     49    1
10    3     50    1
11    4     5     1
12    4     51    1
13    4     52    1
14    5     6     1
15    5     53    1
16    5     54    1
17    6     43    1
18    6     7     1
19    7     8     2
20    7     55    1
21    8     9     1
22    9     14    ar
23    9     10    ar
24    10    43    ar
25    10    11    ar
26    11    12    ar
27    11    15    ar
28    12    13    ar
29    12    56    1
30    13    14    ar
31    13    57    1
32    14    58    1
33    15    16    ar
34    16    42    ar
35    16    17    1
36    17    40    1
37    17    18    2
38    18    19    1
39    18    59    1
40    19    25    1
41    19    20    2
42    20    21    1
43    20    38    1
44    21    22    1
45    21    60    1
46    21    61    1
47    22    23    1
48    23    24    2
49    23    25    1
50    25    26    1
51    25    28    1
52    26    27    1
53    26    62    1
54    26    63    1
55    27    64    1
56    27    65    1
57    27    66    1
58    28    29    1
59    29    30    2
60    29    31    1
61    31    32    1
62    31    67    1
63    31    68    1
64    32    33    1
65    32    34    am
66    33    69    1
67    33    70    1
68    33    71    1
69    34    35    2
70    34    36    1
71    36    37    1
72    36    72    1
73    36    73    1
74    37    74    1
75    37    75    1
76    38    39    2
77    38    40    am
78    40    41    1
79    41    42    1
80    41    76    1
81    41    77    1
82    42    43    ar
@<TRIPOS>SUBSTRUCTURE
1   ZINC000014211051 1     RESIDUE    1   A     ZIN   1
