@<TRIPOS>MOLECULE
ZINC000004626804
  47   49    0    0    0
SMALL
USER_CHARGES
NO_NAME
@<TRIPOS>ATOM
    1 C1       -2.9200    -2.2179     0.9676 C.3    1 <0>      -0.1500
    2 C2       -2.4949    -0.8468     1.4971 C.3    1 <0>      -0.1300
    3 C3       -2.0030    -0.9870     2.9391 C.3    1 <0>      -0.1500
    4 C4       -1.3671    -0.2907     0.6254 C.3    1 <0>       0.1500
    5 N5       -1.8802    -0.0132    -0.7185 N.pl3  1 <0>      -0.6800
    6 C6       -1.8504    -1.0588    -1.7443 C.3    1 <0>       0.1000
    7 C7       -2.3978     1.2481    -1.0218 C.ar   1 <0>       0.1800
    8 C8       -1.5405     2.2967    -1.3292 C.ar   1 <0>      -0.1200
    9 C9       -2.0557     3.5427    -1.6291 C.ar   1 <0>      -0.1100
   10 C10      -3.4232     3.7467    -1.6236 C.ar   1 <0>      -0.1200
   11 C11      -4.2797     2.7048    -1.3174 C.ar   1 <0>      -0.1100
   12 C12      -3.7716     1.4552    -1.0223 C.ar   1 <0>      -0.0900
   13 C13      -4.7056     0.3206    -0.6889 C.3    1 <0>      -0.4200
   14 S14      -5.2995    -0.4444    -2.2227 S.o    1 <0>       1.3900
   15 O15      -6.1981     0.4412    -2.8766 O.2    1 <0>      -0.8300
   16 C16      -6.3592    -1.7266    -1.6418 C.2    1 <0>      -0.0700
   17 N17      -5.9806    -2.9422    -1.3739 N.2    1 <0>      -0.4100
   18 C18      -7.0460    -3.6690    -0.9490 C.ar   1 <0>       0.0300
   19 C19      -7.2061    -4.9950    -0.5393 C.ar   1 <0>      -0.0500
   20 C20      -8.4385    -5.4459    -0.1586 C.ar   1 <0>      -0.1300
   21 C21      -9.5375    -4.5994    -0.1740 C.ar   1 <0>      -0.0900
   22 C22      -9.4032    -3.2869    -0.5750 C.ar   1 <0>      -0.1200
   23 C23      -8.1590    -2.8111    -0.9647 C.ar   1 <0>       0.0600
   24 N24      -7.6912    -1.5882    -1.4024 N.pl3  1 <0>      -0.5700
   25 H25      -3.6401    -2.6647     1.6531 H      1 <0>       0.0500
   26 H26      -3.3771    -2.1021    -0.0150 H      1 <0>       0.0700
   27 H27      -2.0454    -2.8636     0.8877 H      1 <0>       0.0600
   28 H28      -3.3459    -0.1663     1.4680 H      1 <0>       0.0700
   29 H29      -1.1521    -1.6675     2.9682 H      1 <0>       0.0600
   30 H30      -1.7002    -0.0102     3.3163 H      1 <0>       0.0500
   31 H31      -2.8065    -1.3831     3.5601 H      1 <0>       0.0500
   32 H32      -0.9874     0.6308     1.0667 H      1 <0>       0.0600
   33 H33      -0.5617    -1.0224     0.5629 H      1 <0>       0.0700
   34 H34      -2.7772    -1.6312    -1.7066 H      1 <0>       0.0400
   35 H35      -1.7463    -0.6002    -2.7276 H      1 <0>       0.0600
   36 H36      -1.0055    -1.7228    -1.5617 H      1 <0>       0.0700
   37 H37      -0.4722     2.1381    -1.3334 H      1 <0>       0.1300
   38 H38      -1.3896     4.3586    -1.8679 H      1 <0>       0.1300
   39 H39      -3.8234     4.7219    -1.8584 H      1 <0>       0.1200
   40 H40      -5.3473     2.8677    -1.3133 H      1 <0>       0.1200
   41 H41      -4.1759    -0.4231    -0.0934 H      1 <0>       0.1500
   42 H42      -5.5540     0.7031    -0.1215 H      1 <0>       0.1000
   43 H43      -6.3573    -5.6626    -0.5239 H      1 <0>       0.1300
   44 H44      -8.5582    -6.4718     0.1571 H      1 <0>       0.1300
   45 H45     -10.5050    -4.9711     0.1299 H      1 <0>       0.1300
   46 H46     -10.2621    -2.6323    -0.5858 H      1 <0>       0.1300
   47 H47      -8.2152    -0.7803    -1.5186 H      1 <0>       0.4300
@<TRIPOS>BOND
   1    1    2 1
   2    1   25 1
   3    1   26 1
   4    1   27 1
   5    2    3 1
   6    2    4 1
   7    2   28 1
   8    3   29 1
   9    3   30 1
  10    3   31 1
  11    4    5 1
  12    4   32 1
  13    4   33 1
  14    5    6 1
  15    5    7 1
  16    6   34 1
  17    6   35 1
  18    6   36 1
  19    7   12 ar
  20    7    8 ar
  21    8    9 ar
  22    8   37 1
  23    9   10 ar
  24    9   38 1
  25   10   11 ar
  26   10   39 1
  27   11   12 ar
  28   11   40 1
  29   12   13 1
  30   13   14 1
  31   13   41 1
  32   13   42 1
  33   14   15 2
  34   14   16 1
  35   16   24 1
  36   16   17 2
  37   17   18 1
  38   18   23 ar
  39   18   19 ar
  40   19   20 ar
  41   19   43 1
  42   20   21 ar
  43   20   44 1
  44   21   22 ar
  45   21   45 1
  46   22   23 ar
  47   22   46 1
  48   23   24 1
  49   24   47 1
