@<TRIPOS>MOLECULE
ZINC000000004099
  33   35    0    0    0
SMALL
USER_CHARGES
NO_NAME
@<TRIPOS>ATOM
    1 C1       -1.3020     1.4083    -1.4575 C.3    1 <0>      -0.1400
    2 C2       -1.1937    -0.0926    -1.3761 C.2    1 <0>       0.4600
    3 O3       -2.1814    -0.7773    -1.5016 O.2    1 <0>      -0.4900
    4 O4        0.0001    -0.6690    -1.1642 O.3    1 <0>      -0.2900
    5 C5        0.0129    -2.0175    -0.9955 C.ar   1 <0>       0.1400
    6 C6        0.0743    -2.8689    -2.1262 C.ar   1 <0>       0.0900
    7 N7        0.1245    -2.5371    -3.4275 N.2    1 <0>      -0.4600
    8 C8        0.1757    -3.4917    -4.2934 C.2    1 <0>       0.1700
    9 C9        0.2355    -3.3009    -5.7587 C.ar   1 <0>      -0.0500
   10 C10       0.2452    -2.0139    -6.2978 C.ar   1 <0>      -0.0600
   11 C11       0.3016    -1.8427    -7.6657 C.ar   1 <0>      -0.1200
   12 C12       0.3479    -2.9436    -8.5023 C.ar   1 <0>      -0.0600
   13 C13       0.4093    -2.7492    -9.9954 C.3    1 <0>      -0.1200
   14 C14       0.3385    -4.2223    -7.9741 C.ar   1 <0>      -0.1200
   15 C15       0.2882    -4.4070    -6.6077 C.ar   1 <0>      -0.0800
   16 S16       0.1649    -5.0522    -3.4833 S.3    1 <0>       0.0800
   17 C17       0.0863    -4.2519    -1.9155 C.ar   1 <0>      -0.1700
   18 C18       0.0401    -4.7692    -0.6216 C.ar   1 <0>      -0.0700
   19 C19      -0.0179    -3.9234     0.4630 C.ar   1 <0>      -0.0900
   20 C20      -0.0280    -2.5494     0.2732 C.ar   1 <0>      -0.1100
   21 H21      -1.4871     1.8137    -0.4628 H      1 <0>       0.1100
   22 H22      -0.3716     1.8189    -1.8498 H      1 <0>       0.1000
   23 H23      -2.1255     1.6778    -2.1188 H      1 <0>       0.1100
   24 H24       0.2084    -1.1537    -5.6458 H      1 <0>       0.1400
   25 H25       0.3092    -0.8472    -8.0843 H      1 <0>       0.1300
   26 H26       1.4508    -2.6922   -10.3119 H      1 <0>       0.0800
   27 H27      -0.0757    -3.5898   -10.4916 H      1 <0>       0.0700
   28 H28      -0.1027    -1.8249   -10.2628 H      1 <0>       0.0700
   29 H29       0.3749    -5.0776    -8.6325 H      1 <0>       0.1300
   30 H30       0.2813    -5.4057    -6.1965 H      1 <0>       0.1300
   31 H31       0.0495    -5.8384    -0.4695 H      1 <0>       0.1400
   32 H32      -0.0535    -4.3300     1.4629 H      1 <0>       0.1500
   33 H33      -0.0736    -1.8912     1.1283 H      1 <0>       0.1500
@<TRIPOS>BOND
   1    1    2 1
   2    1   21 1
   3    1   22 1
   4    1   23 1
   5    2    3 2
   6    2    4 1
   7    4    5 1
   8    5   20 ar
   9    5    6 ar
  10    6   17 ar
  11    6    7 1
  12    7    8 2
  13    8    9 1
  14    8   16 1
  15    9   15 ar
  16    9   10 ar
  17   10   11 ar
  18   10   24 1
  19   11   12 ar
  20   11   25 1
  21   12   13 1
  22   12   14 ar
  23   13   26 1
  24   13   27 1
  25   13   28 1
  26   14   15 ar
  27   14   29 1
  28   15   30 1
  29   16   17 1
  30   17   18 ar
  31   18   19 ar
  32   18   31 1
  33   19   20 ar
  34   19   32 1
  35   20   33 1
