@<TRIPOS>MOLECULE
ZINC000056898743
45    46    1     0     0
SMALL
USER_CHARGES
@<TRIPOS>ATOM
1      C1     -0.0187    1.5258    0.0104 C.3      1 ZINC000056898743   -0.1500
2      C2      0.0021   -0.0041    0.0020 C.3      1 ZINC000056898743   -0.1300
3      C3      0.7182   -0.4975   -1.2568 C.3      1 ZINC000056898743   -0.1500
4      C4      0.7421   -0.5109    1.2415 C.3      1 ZINC000056898743    0.1100
5      H5      1.7647   -0.1336    1.2338 H        1 ZINC000056898743    0.1200
6      N6      0.7620   -1.9797    1.2335 N.3      1 ZINC000056898743   -0.8300
7      C7      0.0367   -0.0249    2.4814 C.2      1 ZINC000056898743    0.4700
8      O8     -0.7063   -0.7640    3.0828 O.2      1 ZINC000056898743   -0.4900
9      O9      0.2338    1.2291    2.9177 O.3      1 ZINC000056898743   -0.3400
10     C10    -0.4783    1.6289    4.1183 C.3      1 ZINC000056898743    0.0600
11     H11    -0.6514    0.7674    4.7633 H        1 ZINC000056898743    0.1100
12     C12    -1.8166    2.3091    3.7528 C.3      1 ZINC000056898743   -0.1600
13     C13    -1.6826    3.7357    4.3300 C.3      1 ZINC000056898743    0.3000
14     H14    -1.3267    4.4235    3.5629 H        1 ZINC000056898743    0.1100
15     N15    -2.9674    4.1917    4.8662 N.am     1 ZINC000056898743   -0.5400
16     C16    -3.0711    4.5295    6.1822 C.2      1 ZINC000056898743    0.2100
17     C17    -4.2639    4.9500    6.6660 C.2      1 ZINC000056898743   -0.3100
18     C18    -5.3671    5.0264    5.7912 C.2      1 ZINC000056898743    0.5100
19     N19    -6.5904    5.4507    6.2560 N.pl3    1 ZINC000056898743   -0.8100
20     N20    -5.2186    4.6871    4.5173 N.2      1 ZINC000056898743   -0.6100
21     C21    -4.0376    4.2802    4.0552 C.2      1 ZINC000056898743    0.6600
22     O22    -3.9265    3.9741    2.8797 O.2      1 ZINC000056898743   -0.5400
23     O23    -0.7077    3.6153    5.3887 O.3      1 ZINC000056898743   -0.3600
24     C24     0.3078    2.7224    4.8751 C.3      1 ZINC000056898743    0.0900
25     H25     0.9696    3.2537    4.1912 H        1 ZINC000056898743    0.1000
26     C26     1.1110    2.1115    6.0251 C.3      1 ZINC000056898743    0.0800
27     O27     1.8611    3.1368    6.6795 O.3      1 ZINC000056898743   -0.5600
28     H28     1.0039    1.9031    0.0027 H        1 ZINC000056898743    0.0600
29     H29    -0.5459    1.8868   -0.8726 H        1 ZINC000056898743    0.0600
30     H30    -0.5289    1.8773    0.9072 H        1 ZINC000056898743    0.0600
31     H31    -1.0205   -0.3814    0.0098 H        1 ZINC000056898743    0.0800
32     H32     1.7408   -0.1202   -1.2645 H        1 ZINC000056898743    0.0600
33     H33     0.7330   -1.5874   -1.2628 H        1 ZINC000056898743    0.0600
34     H34     0.1910   -0.1364   -2.1398 H        1 ZINC000056898743    0.0700
35     H35    -0.1750   -2.3541    1.2404 H        1 ZINC000056898743    0.3500
36     H36     1.2855   -2.3299    0.4452 H        1 ZINC000056898743    0.3600
37     H37    -1.9437    2.3452    2.6708 H        1 ZINC000056898743    0.1100
38     H38    -2.6511    1.7853    4.2190 H        1 ZINC000056898743    0.0900
39     H39    -2.2115    4.4621    6.8325 H        1 ZINC000056898743    0.1800
40     H40    -4.3687    5.2223    7.7058 H        1 ZINC000056898743    0.1600
41     H41    -6.6958    5.6984    7.1878 H        1 ZINC000056898743    0.4200
42     H42    -7.3475    5.5022    5.6518 H        1 ZINC000056898743    0.4100
43     H43     0.4295    1.6484    6.7386 H        1 ZINC000056898743    0.0600
44     H44     1.7928    1.3575    5.6318 H        1 ZINC000056898743    0.0700
45     H45     2.3956    2.8208    7.4209 H        1 ZINC000056898743    0.3900
@<TRIPOS>BOND
1     1     2     1
2     1     28    1
3     1     29    1
4     1     30    1
5     2     3     1
6     2     4     1
7     2     31    1
8     3     32    1
9     3     33    1
10    3     34    1
11    4     5     1
12    4     6     1
13    4     7     1
14    6     35    1
15    6     36    1
16    7     8     2
17    7     9     1
18    9     10    1
19    10    11    1
20    10    24    1
21    10    12    1
22    12    13    1
23    12    37    1
24    12    38    1
25    13    14    1
26    13    15    1
27    13    23    1
28    15    21    am
29    15    16    1
30    16    17    2
31    16    39    1
32    17    18    1
33    17    40    1
34    18    19    1
35    18    20    2
36    19    41    1
37    19    42    1
38    20    21    1
39    21    22    2
40    23    24    1
41    24    25    1
42    24    26    1
43    26    27    1
44    26    43    1
45    26    44    1
46    27    45    1
@<TRIPOS>SUBSTRUCTURE
1   ZINC000056898743 1     RESIDUE    1   A     ZIN   1
