@<TRIPOS>MOLECULE
ZINC000100078465
75    79    1     0     0
SMALL
USER_CHARGES
@<TRIPOS>ATOM
1      C1     -4.7054    2.1307   -2.6058 C.3      1 ZINC000100078465   -0.1600
2      C2     -3.8394    3.0869   -1.7832 C.3      1 ZINC000100078465   -0.1100
3      C3     -3.2189    2.3381   -0.6319 C.ar     1 ZINC000100078465    0.1700
4      C4     -3.9326    2.1739    0.5401 C.ar     1 ZINC000100078465   -0.1300
5      C5     -3.3526    1.4835    1.5933 C.ar     1 ZINC000100078465    0.0500
6      C6     -4.0979    1.2825    2.8876 C.3      1 ZINC000100078465   -0.1100
7      C7     -4.8983   -0.0196    2.8183 C.3      1 ZINC000100078465   -0.1500
8      C8     -5.5831   -0.2694    4.1635 C.3      1 ZINC000100078465    0.1500
9      C9     -6.4250    0.9507    4.5424 C.3      1 ZINC000100078465   -0.0800
10     C10    -7.5893    1.1388    3.5384 C.3      1 ZINC000100078465   -0.1200
11     C11    -8.6214    1.9505    4.3601 C.3      1 ZINC000100078465   -0.1300
12     C12    -8.5232    1.3585    5.7813 C.3      1 ZINC000100078465   -0.1300
13     C13    -7.1267    0.7228    5.8972 C.3      1 ZINC000100078465   -0.1200
14     C14    -4.5204   -0.5136    5.2414 C.3      1 ZINC000100078465   -0.2100
15     C15    -3.8212   -1.8226    4.9360 C.2      1 ZINC000100078465    0.3700
16     O16    -2.6168   -1.8935    4.8841 O.2      1 ZINC000100078465   -0.4100
17     C17    -4.6937   -3.0408    4.6984 C.3      1 ZINC000100078465   -0.1800
18     C18    -5.2556   -3.5468    6.0284 C.3      1 ZINC000100078465   -0.0100
19     C19    -6.0187   -4.8256    5.7974 C.2      1 ZINC000100078465    0.2600
20     N20    -7.2969   -4.9022    5.5124 N.2      1 ZINC000100078465   -0.3200
21     N21    -7.6063   -6.2619    5.3772 N.pl3    1 ZINC000100078465   -0.3200
22     C22    -6.4439   -6.9455    5.5991 C.2      1 ZINC000100078465    0.4600
23     N23    -5.4992   -6.0448    5.8456 N.2      1 ZINC000100078465   -0.5200
24     N24    -6.4247   -8.2821    5.5369 N.2      1 ZINC000100078465   -0.4600
25     C25    -7.5161   -8.9597    5.2629 C.2      1 ZINC000100078465    0.2400
26     C26    -7.4683  -10.4646    5.1992 C.3      1 ZINC000100078465   -0.1100
27     C27    -8.7240   -8.2903    5.0303 C.2      1 ZINC000100078465   -0.2200
28     C28    -8.7531   -6.9342    5.0912 C.2      1 ZINC000100078465    0.2000
29     C29   -10.0377   -6.1852    4.8461 C.3      1 ZINC000100078465   -0.1200
30     C30    -5.8274   -2.6089    3.7897 C.2      1 ZINC000100078465    0.5000
31     O31    -6.1700   -3.2906    2.8528 O.2      1 ZINC000100078465   -0.4200
32     O32    -6.4418   -1.4390    4.0614 O.3      1 ZINC000100078465   -0.3400
33     C33    -2.0707    0.9819    1.4272 C.ar     1 ZINC000100078465   -0.1300
34     C34    -1.4183    1.1853    0.2260 C.ar     1 ZINC000100078465    0.1800
35     C35    -0.0250    0.6442    0.0342 C.3      1 ZINC000100078465   -0.1100
36     C36    -0.1025   -0.8150   -0.4193 C.3      1 ZINC000100078465   -0.1600
37     N37    -2.0032    1.8425   -0.7564 N.ar     1 ZINC000100078465   -0.4500
38     H38    -1.5235    1.9717   -1.5896 H        1 ZINC000100078465    0.4400
39     H39    -5.1542    2.6723   -3.4385 H        1 ZINC000100078465    0.0900
40     H40    -4.0866    1.3202   -2.9909 H        1 ZINC000100078465    0.0600
41     H41    -5.4923    1.7185   -1.9742 H        1 ZINC000100078465    0.0700
42     H42    -3.0525    3.4991   -2.4148 H        1 ZINC000100078465    0.1000
43     H43    -4.4582    3.8974   -1.3981 H        1 ZINC000100078465    0.1200
44     H44    -4.9295    2.5787    0.6345 H        1 ZINC000100078465    0.1900
45     H45    -3.3867    1.2285    3.7118 H        1 ZINC000100078465    0.1100
46     H46    -4.7781    2.1189    3.0488 H        1 ZINC000100078465    0.1100
47     H47    -5.6527    0.0588    2.0355 H        1 ZINC000100078465    0.1000
48     H48    -4.2261   -0.8477    2.5935 H        1 ZINC000100078465    0.0700
49     H49    -5.8032    1.8451    4.5805 H        1 ZINC000100078465    0.1000
50     H50    -7.2599    1.7035    2.6662 H        1 ZINC000100078465    0.0600
51     H51    -8.0035    0.1751    3.2421 H        1 ZINC000100078465    0.0800
52     H52    -8.3561    3.0077    4.3681 H        1 ZINC000100078465    0.0700
53     H53    -9.6245    1.8110    3.9572 H        1 ZINC000100078465    0.0700
54     H54    -8.6365    2.1487    6.5235 H        1 ZINC000100078465    0.0700
55     H55    -9.2921    0.5991    5.9234 H        1 ZINC000100078465    0.0700
56     H56    -7.2179   -0.3451    6.0955 H        1 ZINC000100078465    0.0800
57     H57    -6.5623    1.2045    6.6957 H        1 ZINC000100078465    0.0700
58     H58    -3.7955    0.3004    5.2331 H        1 ZINC000100078465    0.1200
59     H59    -4.9968   -0.5716    6.2201 H        1 ZINC000100078465    0.1300
60     H60    -4.1107   -3.8271    4.2187 H        1 ZINC000100078465    0.1400
61     H61    -4.4356   -3.7333    6.7219 H        1 ZINC000100078465    0.1200
62     H62    -5.9241   -2.7959    6.4496 H        1 ZINC000100078465    0.1100
63     H63    -6.4537  -10.8050    5.4060 H        1 ZINC000100078465    0.0900
64     H64    -8.1497  -10.8815    5.9408 H        1 ZINC000100078465    0.1000
65     H65    -7.7670  -10.7958    4.2046 H        1 ZINC000100078465    0.1000
66     H66    -9.6220   -8.8463    4.8049 H        1 ZINC000100078465    0.1800
67     H67   -10.8375   -6.8950    4.6351 H        1 ZINC000100078465    0.1000
68     H68   -10.2931   -5.6026    5.7312 H        1 ZINC000100078465    0.0900
69     H69    -9.9115   -5.5163    3.9948 H        1 ZINC000100078465    0.0900
70     H70    -1.5880    0.4393    2.2266 H        1 ZINC000100078465    0.1800
71     H71     0.4924    1.2330   -0.7232 H        1 ZINC000100078465    0.1000
72     H72     0.5206    0.7035    0.9759 H        1 ZINC000100078465    0.1200
73     H73    -0.6200   -1.4039    0.3380 H        1 ZINC000100078465    0.0700
74     H74    -0.6482   -0.8743   -1.3611 H        1 ZINC000100078465    0.0600
75     H75     0.9052   -1.2064   -0.5581 H        1 ZINC000100078465    0.0900
@<TRIPOS>BOND
1     1     2     1
2     1     39    1
3     1     40    1
4     1     41    1
5     2     3     1
6     2     42    1
7     2     43    1
8     3     37    ar
9     3     4     ar
10    4     5     ar
11    4     44    1
12    5     6     1
13    5     33    ar
14    6     7     1
15    6     45    1
16    6     46    1
17    7     8     1
18    7     47    1
19    7     48    1
20    8     32    1
21    8     9     1
22    8     14    1
23    9     13    1
24    9     10    1
25    9     49    1
26    10    11    1
27    10    50    1
28    10    51    1
29    11    12    1
30    11    52    1
31    11    53    1
32    12    13    1
33    12    54    1
34    12    55    1
35    13    56    1
36    13    57    1
37    14    15    1
38    14    58    1
39    14    59    1
40    15    16    2
41    15    17    1
42    17    18    1
43    17    30    1
44    17    60    1
45    18    19    1
46    18    61    1
47    18    62    1
48    19    23    1
49    19    20    2
50    20    21    1
51    21    28    1
52    21    22    1
53    22    23    2
54    22    24    1
55    24    25    2
56    25    26    1
57    25    27    1
58    26    63    1
59    26    64    1
60    26    65    1
61    27    28    2
62    27    66    1
63    28    29    1
64    29    67    1
65    29    68    1
66    29    69    1
67    30    31    2
68    30    32    1
69    33    34    ar
70    33    70    1
71    34    35    1
72    34    37    ar
73    35    36    1
74    35    71    1
75    35    72    1
76    36    73    1
77    36    74    1
78    36    75    1
79    37    38    1
@<TRIPOS>SUBSTRUCTURE
1   ZINC000100078465 1     RESIDUE    1   A     ZIN   1
