@<TRIPOS>MOLECULE
ZINC000003783077
  41   43    0    0    0
SMALL
USER_CHARGES
NO_NAME
@<TRIPOS>ATOM
    1 C1       -0.0178     1.4608     0.0101 C.3    1 <0>       0.1000
    2 N2        0.0021    -0.0041     0.0020 N.am   1 <0>      -0.3900
    3 N3        0.0057    -0.6950    -1.2152 N.2    1 <0>      -0.2900
    4 C4        0.0234    -2.0040    -1.2419 C.2    1 <0>       0.2900
    5 O5        0.0266    -2.6538    -2.4345 O.3    1 <0>      -0.2800
    6 C6        0.0101    -1.8462    -3.6133 C.3    1 <0>       0.1000
    7 H7        0.5121    -0.9000    -3.4118 H      1 <0>       0.1200
    8 C8       -1.4177    -1.5803    -4.0195 C.ar   1 <0>      -0.1900
    9 C9       -2.3397    -1.2782    -3.0372 C.ar   1 <0>      -0.0200
   10 C10      -3.6696    -1.0224    -3.3771 C.ar   1 <0>      -0.0600
   11 C11      -4.6254    -0.7092    -2.3577 C.1    1 <0>       0.2500
   12 N12      -5.3836    -0.4607    -1.5491 N.1    1 <0>      -0.4100
   13 C13      -4.0631    -1.0731    -4.7170 C.ar   1 <0>      -0.0200
   14 C14      -3.1390    -1.3765    -5.6900 C.ar   1 <0>      -0.1500
   15 C15      -1.8125    -1.6336    -5.3479 C.ar   1 <0>       0.1800
   16 O16      -0.9385    -1.9395    -6.3406 O.3    1 <0>      -0.2900
   17 C17       0.4573    -1.8380    -6.0567 C.3    1 <0>       0.1300
   18 C18       1.2615    -2.4771    -7.1905 C.3    1 <0>      -0.1300
   19 C19       0.8483    -0.3656    -5.9142 C.3    1 <0>      -0.1800
   20 C20       0.7382    -2.5789    -4.7429 C.3    1 <0>       0.0900
   21 H21       0.3729    -3.6034    -4.8135 H      1 <0>       0.0900
   22 O22       2.1437    -2.5854    -4.4845 O.3    1 <0>      -0.5400
   23 C23       0.0395    -2.7427    -0.0442 C.2    1 <0>      -0.0800
   24 C24       0.0363    -2.0918     1.1500 C.2    1 <0>      -0.1300
   25 C25       0.0223    -0.6822     1.1671 C.2    1 <0>       0.4900
   26 O26       0.0193    -0.0801     2.2292 O.2    1 <0>      -0.5300
   27 H27       1.0048     1.8381     0.0023 H      1 <0>       0.0800
   28 H28      -0.5450     1.8219    -0.8730 H      1 <0>       0.0900
   29 H29      -0.5280     1.8123     0.9069 H      1 <0>       0.1000
   30 H30      -2.0315    -1.2400    -2.0029 H      1 <0>       0.1300
   31 H31      -5.0896    -0.8750    -4.9879 H      1 <0>       0.1500
   32 H32      -3.4433    -1.4157    -6.7254 H      1 <0>       0.1500
   33 H33       1.0444    -1.9610    -8.1257 H      1 <0>       0.0700
   34 H34       2.3261    -2.3977    -6.9705 H      1 <0>       0.0900
   35 H35       0.9870    -3.5279    -7.2832 H      1 <0>       0.0700
   36 H36       0.2802     0.0840    -5.0998 H      1 <0>       0.0600
   37 H37       1.9140    -0.2921    -5.6976 H      1 <0>       0.0900
   38 H38       0.6293     0.1600    -6.8436 H      1 <0>       0.0800
   39 H39       2.3912    -3.0389    -3.6671 H      1 <0>       0.3900
   40 H40       0.0541    -3.8222    -0.0732 H      1 <0>       0.1600
   41 H41       0.0486    -2.6487     2.0753 H      1 <0>       0.1800
@<TRIPOS>BOND
   1    1    2 1
   2    1   27 1
   3    1   28 1
   4    1   29 1
   5    2   25 am
   6    2    3 1
   7    3    4 2
   8    4    5 1
   9    4   23 1
  10    5    6 1
  11    6    7 1
  12    6   20 1
  13    6    8 1
  14    8   15 ar
  15    8    9 ar
  16    9   10 ar
  17    9   30 1
  18   10   11 1
  19   10   13 ar
  20   11   12 3
  21   13   14 ar
  22   13   31 1
  23   14   15 ar
  24   14   32 1
  25   15   16 1
  26   16   17 1
  27   17   18 1
  28   17   19 1
  29   17   20 1
  30   18   33 1
  31   18   34 1
  32   18   35 1
  33   19   36 1
  34   19   37 1
  35   19   38 1
  36   20   21 1
  37   20   22 1
  38   22   39 1
  39   23   24 2
  40   23   40 1
  41   24   25 1
  42   24   41 1
  43   25   26 2
