@<TRIPOS>MOLECULE
ZINC000253387875
56    59    1     0     0
SMALL
USER_CHARGES
@<TRIPOS>ATOM
1      O1     -0.3614    0.3981   -1.0054 O.co2    1 ZINC000253387875   -0.6900
2      C2     -0.4222    1.6157   -1.0223 C.2      1 ZINC000253387875    0.4900
3      O3      0.5986    2.2758   -1.1159 O.co2    1 ZINC000253387875   -0.7100
4      C4     -1.7596    2.3047   -0.9336 C.3      1 ZINC000253387875   -0.1800
5      C5     -2.8682    1.2552   -0.8315 C.3      1 ZINC000253387875   -0.0600
6      H6     -2.7909    0.5624   -1.6695 H        1 ZINC000253387875    0.0700
7      C7     -2.7218    0.4848    0.4822 C.3      1 ZINC000253387875   -0.1100
8      C8     -3.8304   -0.5647    0.5843 C.3      1 ZINC000253387875   -0.1000
9      C9     -5.1939    0.1286    0.5488 C.3      1 ZINC000253387875   -0.0500
10     H10    -5.2712    0.8214    1.3867 H        1 ZINC000253387875    0.0800
11     C11    -6.2858   -0.9051    0.6493 C.ar     1 ZINC000253387875   -0.0500
12     C12    -6.3841   -1.8988   -0.3081 C.ar     1 ZINC000253387875   -0.1200
13     C13    -7.3823   -2.8478   -0.2213 C.ar     1 ZINC000253387875   -0.0800
14     C14    -8.2922   -2.8040    0.8336 C.ar     1 ZINC000253387875   -0.0700
15     C15    -9.3668   -3.8213    0.9325 C.ar     1 ZINC000253387875    0.1600
16     C16   -10.2745   -3.7646    1.9885 C.ar     1 ZINC000253387875   -0.1300
17     C17   -11.2724   -4.7182    2.0709 C.ar     1 ZINC000253387875   -0.1100
18     C18   -11.3310   -5.7049    1.0877 C.ar     1 ZINC000253387875    0.1100
19     N19   -12.3222   -6.6876    1.1311 N.pl3    1 ZINC000253387875   -0.6700
20     C20   -13.5625   -6.4037    1.7083 C.ar     1 ZINC000253387875    0.1700
21     C21   -14.0795   -5.1107    1.6726 C.ar     1 ZINC000253387875   -0.1300
22     C22   -15.3132   -4.8790    2.2587 C.ar     1 ZINC000253387875   -0.0800
23     C23   -15.9856   -5.9294    2.8549 C.ar     1 ZINC000253387875   -0.0100
24     C24   -17.3283   -5.6847    3.4940 C.3      1 ZINC000253387875    0.5300
25     F25   -18.3384   -5.8788    2.5457 F        1 ZINC000253387875   -0.1700
26     F26   -17.5085   -6.5767    4.5565 F        1 ZINC000253387875   -0.1700
27     F27   -17.3844   -4.3715    3.9729 F        1 ZINC000253387875   -0.1700
28     N28   -15.4689   -7.1427    2.8720 N.ar     1 ZINC000253387875   -0.4100
29     C29   -14.3013   -7.4081    2.3215 C.ar     1 ZINC000253387875    0.0600
30     C30   -10.3909   -5.6986    0.0632 C.ar     1 ZINC000253387875    0.0800
31     N31    -9.4568   -4.7724    0.0117 N.ar     1 ZINC000253387875   -0.4500
32     C32    -8.1880   -1.8008    1.7956 C.ar     1 ZINC000253387875   -0.1000
33     C33    -7.1825   -0.8601    1.7016 C.ar     1 ZINC000253387875   -0.1200
34     C34    -5.3402    0.8990   -0.7650 C.3      1 ZINC000253387875   -0.1100
35     C35    -4.2316    1.9485   -0.8670 C.3      1 ZINC000253387875   -0.1200
36     H36    -1.7814    2.9433   -0.0505 H        1 ZINC000253387875    0.0500
37     H37    -1.9152    2.9121   -1.8251 H        1 ZINC000253387875    0.0500
38     H38    -1.7505   -0.0091    0.5075 H        1 ZINC000253387875    0.1000
39     H39    -2.7991    1.1776    1.3202 H        1 ZINC000253387875    0.0400
40     H40    -3.7531   -1.2575   -0.2537 H        1 ZINC000253387875    0.0600
41     H41    -3.7262   -1.1135    1.5202 H        1 ZINC000253387875    0.0500
42     H42    -5.6786   -1.9318   -1.1251 H        1 ZINC000253387875    0.1300
43     H43    -7.4586   -3.6228   -0.9697 H        1 ZINC000253387875    0.1300
44     H44   -10.1993   -2.9860    2.7331 H        1 ZINC000253387875    0.1400
45     H45   -11.9895   -4.6993    2.8782 H        1 ZINC000253387875    0.1400
46     H46   -12.1496   -7.5672    0.7605 H        1 ZINC000253387875    0.4200
47     H47   -13.5320   -4.3087    1.2001 H        1 ZINC000253387875    0.1500
48     H48   -15.7445   -3.8889    2.2502 H        1 ZINC000253387875    0.1500
49     H49   -13.9106   -8.4144    2.3555 H        1 ZINC000253387875    0.1700
50     H50   -10.4302   -6.4599   -0.7019 H        1 ZINC000253387875    0.1600
51     H51    -8.8902   -1.7620    2.6152 H        1 ZINC000253387875    0.1200
52     H52    -7.1008   -0.0822    2.4464 H        1 ZINC000253387875    0.1200
53     H53    -5.2630    0.2062   -1.6030 H        1 ZINC000253387875    0.0600
54     H54    -6.3116    1.3929   -0.7903 H        1 ZINC000253387875    0.0500
55     H55    -4.3089    2.6412   -0.0291 H        1 ZINC000253387875    0.0600
56     H56    -4.3359    2.4973   -1.8030 H        1 ZINC000253387875    0.0600
@<TRIPOS>BOND
1     1     2     ar
2     2     3     ar
3     2     4     1
4     4     5     1
5     4     36    1
6     4     37    1
7     5     6     1
8     5     35    1
9     5     7     1
10    7     8     1
11    7     38    1
12    7     39    1
13    8     9     1
14    8     40    1
15    8     41    1
16    9     10    1
17    9     11    1
18    9     34    1
19    11    33    ar
20    11    12    ar
21    12    13    ar
22    12    42    1
23    13    14    ar
24    13    43    1
25    14    15    1
26    14    32    ar
27    15    31    ar
28    15    16    ar
29    16    17    ar
30    16    44    1
31    17    18    ar
32    17    45    1
33    18    19    1
34    18    30    ar
35    19    20    1
36    19    46    1
37    20    29    ar
38    20    21    ar
39    21    22    ar
40    21    47    1
41    22    23    ar
42    22    48    1
43    23    24    1
44    23    28    ar
45    24    25    1
46    24    26    1
47    24    27    1
48    28    29    ar
49    29    49    1
50    30    31    ar
51    30    50    1
52    32    33    ar
53    32    51    1
54    33    52    1
55    34    35    1
56    34    53    1
57    34    54    1
58    35    55    1
59    35    56    1
@<TRIPOS>SUBSTRUCTURE
1   ZINC000253387875 1     RESIDUE    1   A     ZIN   1
