@<TRIPOS>MOLECULE
ZINC000000004901
40    43    1     0     0
SMALL
USER_CHARGES
@<TRIPOS>ATOM
1      C1     -0.0225    1.4531    0.6916 C.3      1 ZINC000000004901   -0.0900
2      C2     -0.0008   -0.0389    0.4807 C.2      1 ZINC000000004901   -0.1700
3      C3     -1.0797   -0.7876    0.3569 C.2      1 ZINC000000004901   -0.1000
4      C4     -0.8211   -2.2011    0.1610 C.ar     1 ZINC000000004901   -0.1900
5      C5     -1.7207   -3.2868   -0.0069 C.ar     1 ZINC000000004901    0.3000
6      C6     -3.1834   -3.0589    0.0008 C.ar     1 ZINC000000004901   -0.0900
7      C7     -3.7373   -2.0383   -0.7716 C.ar     1 ZINC000000004901   -0.0600
8      C8     -5.1013   -1.8306   -0.7604 C.ar     1 ZINC000000004901   -0.1300
9      C9     -5.9209   -2.6317    0.0148 C.ar     1 ZINC000000004901   -0.0700
10     C10    -5.3801   -3.6457    0.7841 C.ar     1 ZINC000000004901   -0.1600
11     C11    -4.0159   -3.8689    0.7775 C.ar     1 ZINC000000004901    0.1400
12     F12    -3.4878   -4.8598    1.5288 F        1 ZINC000000004901   -0.1200
13     N13    -1.2304   -4.5085   -0.1711 N.ar     1 ZINC000000004901   -0.5100
14     C14     0.0772   -4.7262   -0.1804 C.ar     1 ZINC000000004901    0.5100
15     N15     0.5409   -6.0201   -0.3553 N.3      1 ZINC000000004901   -0.4600
16     C16     0.0165   -6.6041   -1.5977 C.3      1 ZINC000000004901    0.0700
17     C17     0.4861   -8.0562   -1.7136 C.3      1 ZINC000000004901    0.0600
18     N18     1.9550   -8.0962   -1.6952 N.3      1 ZINC000000004901   -0.6900
19     C19     2.4794   -7.5122   -0.4528 C.3      1 ZINC000000004901    0.0600
20     C20     2.0098   -6.0601   -0.3368 C.3      1 ZINC000000004901    0.0700
21     N21     0.9514   -3.7485   -0.0287 N.ar     1 ZINC000000004901   -0.5200
22     C22     0.5496   -2.4849    0.1434 C.ar     1 ZINC000000004901    0.1200
23     S23     1.4619   -0.9985    0.3612 S.3      1 ZINC000000004901    0.1700
24     H24     0.9997    1.8258    0.7563 H        1 ZINC000000004901    0.0700
25     H25    -0.5313    1.9310   -0.1456 H        1 ZINC000000004901    0.0800
26     H26    -0.5517    1.6816    1.6167 H        1 ZINC000000004901    0.0800
27     H27    -2.0788   -0.3794    0.3986 H        1 ZINC000000004901    0.1500
28     H28    -3.0997   -1.4114   -1.3773 H        1 ZINC000000004901    0.1400
29     H29    -5.5305   -1.0401   -1.3582 H        1 ZINC000000004901    0.1400
30     H30    -6.9878   -2.4642    0.0194 H        1 ZINC000000004901    0.1400
31     H31    -6.0252   -4.2671    1.3876 H        1 ZINC000000004901    0.1400
32     H32    -1.0730   -6.5744   -1.5820 H        1 ZINC000000004901    0.1000
33     H33     0.3839   -6.0339   -2.4509 H        1 ZINC000000004901    0.0500
34     H34     0.0961   -8.6326   -0.8748 H        1 ZINC000000004901    0.0500
35     H35     0.1224   -8.4824   -2.6486 H        1 ZINC000000004901    0.0900
36     H36     2.2927   -9.0384   -1.8225 H        1 ZINC000000004901    0.3500
37     H37     2.1120   -8.0824    0.4004 H        1 ZINC000000004901    0.0400
38     H38     3.5689   -7.5419   -0.4685 H        1 ZINC000000004901    0.0900
39     H39     2.3998   -5.4837   -1.1757 H        1 ZINC000000004901    0.0600
40     H40     2.3735   -5.6339    0.5981 H        1 ZINC000000004901    0.0900
@<TRIPOS>BOND
1     1     2     1
2     1     24    1
3     1     25    1
4     1     26    1
5     2     23    1
6     2     3     2
7     3     4     1
8     3     27    1
9     4     22    ar
10    4     5     ar
11    5     6     1
12    5     13    ar
13    6     11    ar
14    6     7     ar
15    7     8     ar
16    7     28    1
17    8     9     ar
18    8     29    1
19    9     10    ar
20    9     30    1
21    10    11    ar
22    10    31    1
23    11    12    1
24    13    14    ar
25    14    15    1
26    14    21    ar
27    15    20    1
28    15    16    1
29    16    17    1
30    16    32    1
31    16    33    1
32    17    18    1
33    17    34    1
34    17    35    1
35    18    19    1
36    18    36    1
37    19    20    1
38    19    37    1
39    19    38    1
40    20    39    1
41    20    40    1
42    21    22    ar
43    22    23    1
@<TRIPOS>SUBSTRUCTURE
1   ZINC000000004901 1     RESIDUE    1   A     ZIN   1
