@<TRIPOS>MOLECULE
ZINC000000003941
42    44    1     0     0
SMALL
USER_CHARGES
@<TRIPOS>ATOM
1      C1      0.7736    0.3393    1.6624 C.3      1 ZINC000000003941   -0.1800
2      C2      0.5922   -1.0851    1.2048 C.2      1 ZINC000000003941    0.5100
3      O3      1.5575   -1.8076    1.0740 O.2      1 ZINC000000003941   -0.5400
4      N4     -0.6428   -1.5560    0.9410 N.am     1 ZINC000000003941   -0.7300
5      C5     -0.8191   -2.9407    0.4962 C.3      1 ZINC000000003941    0.1200
6      C6     -2.3065   -3.2176    0.2681 C.3      1 ZINC000000003941   -0.0600
7      C7     -2.4926   -4.6556   -0.1423 C.2      1 ZINC000000003941   -0.1600
8      C8     -2.5422   -5.1276   -1.3979 C.2      1 ZINC000000003941    0.1000
9      C9     -2.4180   -4.2880   -2.6432 C.3      1 ZINC000000003941   -0.0200
10     C10    -3.7752   -3.7599   -3.0305 C.ar     1 ZINC000000003941   -0.0800
11     C11    -4.6377   -4.5469   -3.7705 C.ar     1 ZINC000000003941   -0.1100
12     C12    -5.8827   -4.0625   -4.1257 C.ar     1 ZINC000000003941   -0.1200
13     C13    -6.2654   -2.7912   -3.7406 C.ar     1 ZINC000000003941   -0.1200
14     C14    -5.4032   -2.0045   -2.9998 C.ar     1 ZINC000000003941   -0.1200
15     C15    -4.1599   -2.4906   -2.6409 C.ar     1 ZINC000000003941   -0.1100
16     N16    -2.7219   -6.4840   -1.3798 N.pl3    1 ZINC000000003941   -0.5900
17     C17    -2.7941   -6.9293   -0.0789 C.ar     1 ZINC000000003941    0.1000
18     C18    -2.9656   -8.1842    0.4956 C.ar     1 ZINC000000003941   -0.1300
19     C19    -2.9960   -8.3105    1.8674 C.ar     1 ZINC000000003941   -0.1000
20     C20    -2.8570   -7.1970    2.6840 C.ar     1 ZINC000000003941   -0.1400
21     C21    -2.6879   -5.9544    2.1408 C.ar     1 ZINC000000003941   -0.0700
22     C22    -2.6473   -5.8044    0.7535 C.ar     1 ZINC000000003941   -0.1000
23     H23     1.8332    0.5365    1.8248 H        1 ZINC000000003941    0.0900
24     H24     0.3905    1.0174    0.8998 H        1 ZINC000000003941    0.0900
25     H25     0.2283    0.4941    2.5934 H        1 ZINC000000003941    0.0900
26     H26    -1.4148   -0.9781    1.0456 H        1 ZINC000000003941    0.4000
27     H27    -0.2738   -3.0955   -0.4348 H        1 ZINC000000003941    0.0700
28     H28    -0.4361   -3.6188    1.2587 H        1 ZINC000000003941    0.0700
29     H29    -2.8567   -3.0286    1.1898 H        1 ZINC000000003941    0.0800
30     H30    -2.6812   -2.5636   -0.5193 H        1 ZINC000000003941    0.0800
31     H31    -1.7440   -3.4529   -2.4526 H        1 ZINC000000003941    0.1000
32     H32    -2.0204   -4.8979   -3.4544 H        1 ZINC000000003941    0.0900
33     H33    -4.3388   -5.5401   -4.0714 H        1 ZINC000000003941    0.1200
34     H34    -6.5563   -4.6771   -4.7045 H        1 ZINC000000003941    0.1200
35     H35    -7.2378   -2.4124   -4.0187 H        1 ZINC000000003941    0.1200
36     H36    -5.7021   -1.0112   -2.6992 H        1 ZINC000000003941    0.1200
37     H37    -3.4863   -1.8760   -2.0622 H        1 ZINC000000003941    0.1200
38     H38    -2.7885   -7.0478   -2.1663 H        1 ZINC000000003941    0.4100
39     H39    -3.0750   -9.0568   -0.1313 H        1 ZINC000000003941    0.1200
40     H40    -3.1296   -9.2858    2.3116 H        1 ZINC000000003941    0.1300
41     H41    -2.8831   -7.3133    3.7574 H        1 ZINC000000003941    0.1200
42     H42    -2.5808   -5.0924    2.7825 H        1 ZINC000000003941    0.1200
@<TRIPOS>BOND
1     1     2     1
2     1     23    1
3     1     24    1
4     1     25    1
5     2     3     2
6     2     4     am
7     4     5     1
8     4     26    1
9     5     6     1
10    5     27    1
11    5     28    1
12    6     7     1
13    6     29    1
14    6     30    1
15    7     22    1
16    7     8     2
17    8     9     1
18    8     16    1
19    9     10    1
20    9     31    1
21    9     32    1
22    10    15    ar
23    10    11    ar
24    11    12    ar
25    11    33    1
26    12    13    ar
27    12    34    1
28    13    14    ar
29    13    35    1
30    14    15    ar
31    14    36    1
32    15    37    1
33    16    17    1
34    16    38    1
35    17    22    ar
36    17    18    ar
37    18    19    ar
38    18    39    1
39    19    20    ar
40    19    40    1
41    20    21    ar
42    20    41    1
43    21    22    ar
44    21    42    1
@<TRIPOS>SUBSTRUCTURE
1   ZINC000000003941 1     RESIDUE    1   A     ZIN   1
