@<TRIPOS>MOLECULE
ZINC000011680799
71    74    1     0     0
SMALL
USER_CHARGES
@<TRIPOS>ATOM
1      C1      1.0206    1.9370    0.2075 C.3      1 ZINC000011680799   -0.1300
2      C2      0.8601    0.4387    0.2253 C.ar     1 ZINC000011680799   -0.0500
3      C3      1.0623   -0.2894   -0.9338 C.ar     1 ZINC000011680799   -0.1200
4      C4      0.9165   -1.6613   -0.9244 C.ar     1 ZINC000011680799   -0.0500
5      C5      0.5647   -2.3146    0.2578 C.ar     1 ZINC000011680799   -0.1400
6      C6      0.4072   -3.7845    0.2752 C.2      1 ZINC000011680799    0.5600
7      O7      0.0629   -4.3708   -0.7324 O.2      1 ZINC000011680799   -0.5000
8      N8      0.6454   -4.4744    1.4082 N.am     1 ZINC000011680799   -0.6000
9      C9      0.9188   -3.7595    2.6574 C.3      1 ZINC000011680799    0.0800
10     C10    -0.3681   -3.6573    3.4786 C.3      1 ZINC000011680799   -0.2000
11     C11    -0.0826   -2.9107    4.7832 C.3      1 ZINC000011680799   -0.0100
12     N12    -1.3181   -2.8126    5.5717 N.4      1 ZINC000011680799   -0.6400
13     H13    -1.6574   -3.7393    5.7819 H        1 ZINC000011680799    0.4400
14     H14    -1.1298   -2.3202    6.4321 H        1 ZINC000011680799    0.4400
15     H15    -2.0157   -2.3109    5.0428 H        1 ZINC000011680799    0.4400
16     C16     0.6310   -5.9392    1.3907 C.3      1 ZINC000011680799    0.1800
17     H17     0.5269   -6.2893    0.3637 H        1 ZINC000011680799    0.1400
18     C18     1.9199   -6.4613    1.9712 C.2      1 ZINC000011680799    0.3900
19     N19     1.9042   -6.9327    3.1808 N.2      1 ZINC000011680799   -0.5100
20     C20     3.0258   -7.4195    3.7689 C.ar     1 ZINC000011680799    0.1600
21     C21     3.0095   -7.9268    5.0688 C.ar     1 ZINC000011680799   -0.1000
22     C22     4.1731   -8.4118    5.6268 C.ar     1 ZINC000011680799    0.0100
23     Cl23    4.1506   -9.0430    7.2438 Cl       1 ZINC000011680799   -0.0400
24     C24     5.3638   -8.4019    4.9100 C.ar     1 ZINC000011680799   -0.1200
25     C25     5.4038   -7.9061    3.6255 C.ar     1 ZINC000011680799   -0.0200
26     C26     4.2385   -7.4114    3.0436 C.ar     1 ZINC000011680799   -0.1900
27     C27     4.2213   -6.8707    1.6767 C.2      1 ZINC000011680799    0.5500
28     O28     5.2313   -6.8347    0.9981 O.2      1 ZINC000011680799   -0.4900
29     N29     3.0377   -6.4195    1.2000 N.am     1 ZINC000011680799   -0.5300
30     C30     2.9634   -5.8703   -0.1562 C.3      1 ZINC000011680799    0.1300
31     C31     2.8038   -6.9956   -1.1458 C.ar     1 ZINC000011680799   -0.1300
32     C32     3.9150   -7.6853   -1.5933 C.ar     1 ZINC000011680799   -0.0900
33     C33     3.7686   -8.7175   -2.5011 C.ar     1 ZINC000011680799   -0.1200
34     C34     2.5109   -9.0603   -2.9609 C.ar     1 ZINC000011680799   -0.1000
35     C35     1.3995   -8.3712   -2.5127 C.ar     1 ZINC000011680799   -0.1200
36     C36     1.5455   -7.3418   -1.6017 C.ar     1 ZINC000011680799   -0.1000
37     C37    -0.5468   -6.4476    2.2245 C.3      1 ZINC000011680799   -0.0800
38     C38    -1.8554   -5.9176    1.6351 C.3      1 ZINC000011680799   -0.1500
39     C39    -0.5619   -7.9775    2.2062 C.3      1 ZINC000011680799   -0.1500
40     C40     0.3627   -1.5741    1.4236 C.ar     1 ZINC000011680799   -0.1300
41     C41     0.5167   -0.2033    1.4018 C.ar     1 ZINC000011680799   -0.1300
42     H42     2.0546    2.1944    0.4370 H        1 ZINC000011680799    0.0800
43     H43     0.7619    2.3184   -0.7802 H        1 ZINC000011680799    0.0800
44     H44     0.3614    2.3819    0.9529 H        1 ZINC000011680799    0.0700
45     H45     1.3344    0.2173   -1.8478 H        1 ZINC000011680799    0.1400
46     H46     1.0739   -2.2284   -1.8300 H        1 ZINC000011680799    0.1400
47     H47     1.6724   -4.3014    3.2287 H        1 ZINC000011680799    0.0900
48     H48     1.2853   -2.7584    2.4303 H        1 ZINC000011680799    0.1300
49     H49    -1.1217   -3.1154    2.9073 H        1 ZINC000011680799    0.1000
50     H50    -0.7346   -4.6584    3.7057 H        1 ZINC000011680799    0.1200
51     H51     0.6710   -3.4526    5.3546 H        1 ZINC000011680799    0.1400
52     H52     0.2840   -1.9096    4.5562 H        1 ZINC000011680799    0.1400
53     H53     2.0899   -7.9390    5.6350 H        1 ZINC000011680799    0.1500
54     H54     6.2653   -8.7859    5.3641 H        1 ZINC000011680799    0.1500
55     H55     6.3320   -7.9007    3.0734 H        1 ZINC000011680799    0.1500
56     H56     2.1087   -5.1979   -0.2296 H        1 ZINC000011680799    0.1000
57     H57     3.8784   -5.3202   -0.3760 H        1 ZINC000011680799    0.1100
58     H58     4.8977   -7.4175   -1.2341 H        1 ZINC000011680799    0.1300
59     H59     4.6369   -9.2559   -2.8513 H        1 ZINC000011680799    0.1300
60     H60     2.3965   -9.8663   -3.6706 H        1 ZINC000011680799    0.1300
61     H61     0.4169   -8.6388   -2.8722 H        1 ZINC000011680799    0.1300
62     H62     0.6773   -6.8034   -1.2514 H        1 ZINC000011680799    0.1300
63     H63    -0.4428   -6.0976    3.2515 H        1 ZINC000011680799    0.0900
64     H64    -1.9595   -6.2677    0.6081 H        1 ZINC000011680799    0.0700
65     H65    -2.6945   -6.2798    2.2292 H        1 ZINC000011680799    0.0600
66     H66    -1.8447   -4.8277    1.6482 H        1 ZINC000011680799    0.0500
67     H67     0.3704   -8.3551    2.6261 H        1 ZINC000011680799    0.0700
68     H68    -1.4009   -8.3397    2.8003 H        1 ZINC000011680799    0.0700
69     H69    -0.6659   -8.3275    1.1792 H        1 ZINC000011680799    0.0600
70     H70     0.0899   -2.0736    2.3415 H        1 ZINC000011680799    0.1500
71     H71     0.3611    0.3707    2.3033 H        1 ZINC000011680799    0.1300
@<TRIPOS>BOND
1     1     2     1
2     1     42    1
3     1     43    1
4     1     44    1
5     2     41    ar
6     2     3     ar
7     3     4     ar
8     3     45    1
9     4     5     ar
10    4     46    1
11    5     6     1
12    5     40    ar
13    6     7     2
14    6     8     am
15    8     9     1
16    8     16    1
17    9     10    1
18    9     47    1
19    9     48    1
20    10    11    1
21    10    49    1
22    10    50    1
23    11    12    1
24    11    51    1
25    11    52    1
26    12    13    1
27    12    14    1
28    12    15    1
29    16    17    1
30    16    18    1
31    16    37    1
32    18    29    1
33    18    19    2
34    19    20    1
35    20    26    ar
36    20    21    ar
37    21    22    ar
38    21    53    1
39    22    23    1
40    22    24    ar
41    24    25    ar
42    24    54    1
43    25    26    ar
44    25    55    1
45    26    27    1
46    27    28    2
47    27    29    am
48    29    30    1
49    30    31    1
50    30    56    1
51    30    57    1
52    31    36    ar
53    31    32    ar
54    32    33    ar
55    32    58    1
56    33    34    ar
57    33    59    1
58    34    35    ar
59    34    60    1
60    35    36    ar
61    35    61    1
62    36    62    1
63    37    38    1
64    37    39    1
65    37    63    1
66    38    64    1
67    38    65    1
68    38    66    1
69    39    67    1
70    39    68    1
71    39    69    1
72    40    41    ar
73    40    70    1
74    41    71    1
@<TRIPOS>SUBSTRUCTURE
1   ZINC000011680799 1     RESIDUE    1   A     ZIN   1
