@<TRIPOS>MOLECULE
ZINC000012358775
  21   21    0    0    0
SMALL
USER_CHARGES
NO_NAME
@<TRIPOS>ATOM
    1 N1       -0.0116     1.0048     0.0076 N.4    1 <0>      -0.6400
    2 H2        0.0021    -0.0041     0.0020 H      1 <0>       0.4300
    3 H3        0.9350     1.3541     0.0004 H      1 <0>       0.4400
    4 H4       -0.4996     1.3391    -0.8099 H      1 <0>       0.4400
    5 C5       -0.6992     1.4786     1.2162 C.3    1 <0>       0.0300
    6 C6       -2.1346     0.9490     1.2270 C.3    1 <0>      -0.1400
    7 C7       -2.8507     1.4424     2.4858 C.3    1 <0>      -0.1200
    8 C8       -2.1107     0.9356     3.7254 C.3    1 <0>      -0.1300
    9 C9       -0.6753     1.4652     3.7145 C.3    1 <0>      -0.1200
   10 C10       0.0408     0.9717     2.4557 C.3    1 <0>      -0.1400
   11 H11      -0.7140     2.5685     1.2222 H      1 <0>       0.1400
   12 H12      -2.6618     1.3101     0.3440 H      1 <0>       0.0900
   13 H13      -2.1198    -0.1409     1.2210 H      1 <0>       0.0900
   14 H14      -2.8655     2.5323     2.4918 H      1 <0>       0.0800
   15 H15      -3.8733     1.0651     2.4936 H      1 <0>       0.0900
   16 H16      -2.6209     1.2871     4.6222 H      1 <0>       0.0800
   17 H17      -2.0959    -0.1543     3.7194 H      1 <0>       0.0700
   18 H18      -0.6901     2.5550     3.7205 H      1 <0>       0.0800
   19 H19      -0.1482     1.1041     4.5976 H      1 <0>       0.0900
   20 H20       0.0556    -0.1181     2.4497 H      1 <0>       0.0900
   21 H21       1.0634     1.3490     2.4480 H      1 <0>       0.0900
@<TRIPOS>BOND
   1    1    2 1
   2    1    3 1
   3    1    4 1
   4    1    5 1
   5    5   10 1
   6    5    6 1
   7    5   11 1
   8    6    7 1
   9    6   12 1
  10    6   13 1
  11    7    8 1
  12    7   14 1
  13    7   15 1
  14    8    9 1
  15    8   16 1
  16    8   17 1
  17    9   10 1
  18    9   18 1
  19    9   19 1
  20   10   20 1
  21   10   21 1
