@<TRIPOS>MOLECULE
ZINC000096014967
77    82    1     0     0
SMALL
USER_CHARGES
@<TRIPOS>ATOM
1      N1     -0.0167    1.3797    0.0096 N.pl3    1 ZINC000096014967   -0.8200
2      C2      0.0021   -0.0041    0.0020 C.ar     1 ZINC000096014967    0.5000
3      C3     -1.1953   -0.7393    0.0036 C.ar     1 ZINC000096014967   -0.1000
4      N4     -2.5111   -0.4171    0.0126 N.2      1 ZINC000096014967   -0.4700
5      C5     -3.2238   -1.5060    0.0102 C.2      1 ZINC000096014967    0.2900
6      N6     -2.4068   -2.5973   -0.0005 N.pl3    1 ZINC000096014967   -0.4600
7      C7     -2.8327   -3.9990   -0.0067 C.3      1 ZINC000096014967    0.3100
8      H8     -2.1543   -4.6024   -0.6097 H        1 ZINC000096014967    0.1200
9      O9     -4.1869   -4.1167   -0.4934 O.3      1 ZINC000096014967   -0.3300
10     C10    -4.6995   -5.3693   -0.0093 C.3      1 ZINC000096014967    0.0800
11     H11    -4.5331   -6.1497   -0.7519 H        1 ZINC000096014967    0.1100
12     C12    -6.1956   -5.2408    0.2839 C.3      1 ZINC000096014967    0.1400
13     O13    -6.9041   -5.0286   -0.9388 O.3      1 ZINC000096014967   -0.7600
14     P14    -8.5026   -4.8489   -1.0062 P.3      1 ZINC000096014967    2.2900
15     O15    -9.1857   -6.0581   -0.3292 O.co2    1 ZINC000096014967   -1.1000
16     O16    -8.9065   -3.5513   -0.2713 O.co2    1 ZINC000096014967   -1.1100
17     O17    -8.9684   -4.7615   -2.5449 O.3      1 ZINC000096014967   -1.1000
18     P18   -10.3889   -4.8877   -3.2922 P.3      1 ZINC000096014967    2.3500
19     O19   -11.2148   -6.0194   -2.6409 O.co2    1 ZINC000096014967   -1.1000
20     O20   -11.1566   -3.5528   -3.1679 O.co2    1 ZINC000096014967   -1.1200
21     O21   -10.1486   -5.2257   -4.8479 O.3      1 ZINC000096014967   -1.1100
22     P22   -11.0944   -5.7636   -6.0346 P.3      1 ZINC000096014967    2.3500
23     O23   -12.0428   -6.8520   -5.4841 O.co2    1 ZINC000096014967   -1.1000
24     O24   -11.9280   -4.5920   -6.5999 O.co2    1 ZINC000096014967   -1.1200
25     O25   -10.1833   -6.3881   -7.2059 O.3      1 ZINC000096014967   -1.1000
26     P26   -10.4848   -7.3334   -8.4738 P.3      1 ZINC000096014967    2.2900
27     O27   -11.5027   -8.4242   -8.0724 O.co2    1 ZINC000096014967   -1.1000
28     O28   -11.0687   -6.4822   -9.6234 O.co2    1 ZINC000096014967   -1.1100
29     O29    -9.1174   -8.0289   -8.9620 O.3      1 ZINC000096014967   -0.7600
30     C30    -9.0700   -9.0067  -10.0030 C.3      1 ZINC000096014967    0.1400
31     C31    -7.6232   -9.4577  -10.2136 C.3      1 ZINC000096014967    0.0900
32     H32    -6.9805   -8.5962  -10.3949 H        1 ZINC000096014967    0.1000
33     O33    -7.1563  -10.2009   -9.0667 O.3      1 ZINC000096014967   -0.3300
34     C34    -6.0347  -10.9746   -9.5455 C.3      1 ZINC000096014967    0.3000
35     H35    -5.1472  -10.3468   -9.6255 H        1 ZINC000096014967    0.1200
36     N36    -5.7781  -12.1073   -8.6526 N.pl3    1 ZINC000096014967   -0.4600
37     C37    -6.6805  -12.6972   -7.8183 C.2      1 ZINC000096014967    0.2900
38     N38    -6.1151  -13.6747   -7.1715 N.2      1 ZINC000096014967   -0.4700
39     C39    -4.8177  -13.7741   -7.5484 C.ar     1 ZINC000096014967   -0.1000
40     C40    -3.7486  -14.6161   -7.1985 C.ar     1 ZINC000096014967    0.5000
41     N41    -3.9171  -15.6233   -6.2645 N.pl3    1 ZINC000096014967   -0.8200
42     N42    -2.5720  -14.4231   -7.7857 N.ar     1 ZINC000096014967   -0.6000
43     C43    -2.4022  -13.4649   -8.6782 C.ar     1 ZINC000096014967    0.3500
44     N44    -3.3743  -12.6528   -9.0368 N.ar     1 ZINC000096014967   -0.5400
45     C45    -4.5872  -12.7728   -8.5071 C.ar     1 ZINC000096014967    0.3000
46     C46    -6.4674  -11.4745  -10.9417 C.3      1 ZINC000096014967    0.0400
47     H47    -6.8981  -12.4735  -10.8730 H        1 ZINC000096014967    0.0800
48     O48    -5.3572  -11.4701  -11.8414 O.3      1 ZINC000096014967   -0.5300
49     C49    -7.5360  -10.4514  -11.3932 C.3      1 ZINC000096014967    0.0500
50     H50    -8.4959  -10.9445  -11.5472 H        1 ZINC000096014967    0.0900
51     O51    -7.1192   -9.7859  -12.5871 O.3      1 ZINC000096014967   -0.5300
52     C52    -3.9356   -5.7070    1.2858 C.3      1 ZINC000096014967    0.0500
53     H53    -4.6177   -5.7313    2.1357 H        1 ZINC000096014967    0.1000
54     O54    -3.2571   -6.9578    1.1546 O.3      1 ZINC000096014967   -0.5300
55     C55    -2.9151   -4.5507    1.4394 C.3      1 ZINC000096014967    0.0400
56     H56    -3.2903   -3.7890    2.1228 H        1 ZINC000096014967    0.0900
57     O57    -1.6471   -5.0443    1.8761 O.3      1 ZINC000096014967   -0.5300
58     C58    -1.1125   -2.1421   -0.0049 C.ar     1 ZINC000096014967    0.3100
59     N59     0.0849   -2.7183   -0.0143 N.ar     1 ZINC000096014967   -0.5400
60     C60     1.1806   -1.9886   -0.0157 C.ar     1 ZINC000096014967    0.3400
61     N61     1.1531   -0.6685   -0.0125 N.ar     1 ZINC000096014967   -0.6000
62     H62     0.8167    1.8761    0.0043 H        1 ZINC000096014967    0.4000
63     H63    -0.8632    1.8532    0.0162 H        1 ZINC000096014967    0.4200
64     H64    -4.3032   -1.5401    0.0161 H        1 ZINC000096014967    0.2300
65     H65    -6.5530   -6.1555    0.7568 H        1 ZINC000096014967    0.0800
66     H66    -6.3636   -4.3965    0.9525 H        1 ZINC000096014967    0.0600
67     H67    -9.6811   -9.8649   -9.7235 H        1 ZINC000096014967    0.0600
68     H68    -9.4535   -8.5730  -10.9266 H        1 ZINC000096014967    0.0700
69     H69    -7.7123  -12.3973   -7.7098 H        1 ZINC000096014967    0.2300
70     H70    -4.7809  -15.7544   -5.8430 H        1 ZINC000096014967    0.4200
71     H71    -3.1714  -16.1981   -6.0313 H        1 ZINC000096014967    0.4000
72     H72    -1.4293  -13.3427   -9.1308 H        1 ZINC000096014967    0.2000
73     H73    -5.5725  -11.7751  -12.7334 H        1 ZINC000096014967    0.3700
74     H74    -6.9922  -10.3761  -13.3425 H        1 ZINC000096014967    0.3700
75     H75    -2.7596   -7.2198    1.9413 H        1 ZINC000096014967    0.3700
76     H76    -1.6705   -5.4789    2.7397 H        1 ZINC000096014967    0.3800
77     H77     2.1380   -2.4885   -0.0231 H        1 ZINC000096014967    0.2000
@<TRIPOS>BOND
1     1     2     1
2     1     62    1
3     1     63    1
4     2     61    ar
5     2     3     ar
6     3     58    ar
7     3     4     1
8     4     5     2
9     5     6     1
10    5     64    1
11    6     7     1
12    6     58    1
13    7     8     1
14    7     55    1
15    7     9     1
16    9     10    1
17    10    11    1
18    10    12    1
19    10    52    1
20    12    13    1
21    12    65    1
22    12    66    1
23    13    14    1
24    14    15    ar
25    14    16    ar
26    14    17    1
27    17    18    1
28    18    19    ar
29    18    20    ar
30    18    21    1
31    21    22    1
32    22    23    ar
33    22    24    ar
34    22    25    1
35    25    26    1
36    26    27    ar
37    26    28    ar
38    26    29    1
39    29    30    1
40    30    31    1
41    30    67    1
42    30    68    1
43    31    32    1
44    31    49    1
45    31    33    1
46    33    34    1
47    34    35    1
48    34    36    1
49    34    46    1
50    36    45    1
51    36    37    1
52    37    38    2
53    37    69    1
54    38    39    1
55    39    45    ar
56    39    40    ar
57    40    41    1
58    40    42    ar
59    41    70    1
60    41    71    1
61    42    43    ar
62    43    44    ar
63    43    72    1
64    44    45    ar
65    46    47    1
66    46    48    1
67    46    49    1
68    48    73    1
69    49    50    1
70    49    51    1
71    51    74    1
72    52    53    1
73    52    54    1
74    52    55    1
75    54    75    1
76    55    56    1
77    55    57    1
78    57    76    1
79    58    59    ar
80    59    60    ar
81    60    61    ar
82    60    77    1
@<TRIPOS>SUBSTRUCTURE
1   ZINC000096014967 1     RESIDUE    1   A     ZIN   1
