@<TRIPOS>MOLECULE
ZINC000001542895
45    45    1     0     0
SMALL
USER_CHARGES
@<TRIPOS>ATOM
1      C1     -1.4921   -0.2802   -0.1168 C.3      1 ZINC000001542895   -0.1400
2      C2      0.0168   -0.0902    0.0502 C.3      1 ZINC000001542895   -0.1000
3      C3      0.4965   -0.8703    1.2758 C.3      1 ZINC000001542895   -0.1500
4      C4      0.7370   -0.6066   -1.1970 C.3      1 ZINC000001542895   -0.1000
5      C5      2.2304   -0.2918   -1.0907 C.3      1 ZINC000001542895    0.0700
6      H6      2.6270   -0.7186   -0.1695 H        1 ZINC000001542895    0.0800
7      N7      2.4237    1.1604   -1.0789 N.am     1 ZINC000001542895   -0.6800
8      C8      3.5233    1.6892   -0.5064 C.2      1 ZINC000001542895    0.4800
9      O9      4.3528    0.9629   -0.0011 O.2      1 ZINC000001542895   -0.5400
10     C10     3.7222    3.1829   -0.4943 C.3      1 ZINC000001542895    0.0500
11     H11     2.8536    3.6614   -0.0419 H        1 ZINC000001542895    0.1200
12     O12     4.8906    3.5018    0.2642 O.3      1 ZINC000001542895   -0.5400
13     C13     3.8924    3.6865   -1.9290 C.3      1 ZINC000001542895    0.0800
14     H14     2.9682    3.5231   -2.4834 H        1 ZINC000001542895    0.0900
15     N15     4.9886    2.9549   -2.5779 N.3      1 ZINC000001542895   -0.8300
16     C16     4.2180    5.1813   -1.9096 C.3      1 ZINC000001542895   -0.0700
17     C17     4.2645    5.7037   -3.3224 C.ar     1 ZINC000001542895   -0.0600
18     C18     5.4532    5.6842   -4.0277 C.ar     1 ZINC000001542895   -0.0900
19     C19     5.4959    6.1633   -5.3236 C.ar     1 ZINC000001542895   -0.1200
20     C20     4.3497    6.6615   -5.9144 C.ar     1 ZINC000001542895   -0.1300
21     C21     3.1608    6.6802   -5.2094 C.ar     1 ZINC000001542895   -0.1200
22     C22     3.1172    6.1971   -3.9150 C.ar     1 ZINC000001542895   -0.1200
23     C23     2.9543   -0.8853   -2.2717 C.2      1 ZINC000001542895    0.4900
24     O24     3.4188   -0.1561   -3.1314 O.co2    1 ZINC000001542895   -0.6800
25     O25     3.0754   -2.0947   -2.3676 O.co2    1 ZINC000001542895   -0.7000
26     H26    -1.8485    0.3439   -0.9363 H        1 ZINC000001542895    0.0500
27     H27    -1.7043   -1.3262   -0.3379 H        1 ZINC000001542895    0.0500
28     H28    -1.9986    0.0063    0.8049 H        1 ZINC000001542895    0.0500
29     H29     0.2370    0.9689    0.1845 H        1 ZINC000001542895    0.0600
30     H30     0.2764   -1.9293    1.1415 H        1 ZINC000001542895    0.0500
31     H31     1.5715   -0.7349    1.3948 H        1 ZINC000001542895    0.0600
32     H32    -0.0165   -0.5023    2.1644 H        1 ZINC000001542895    0.0500
33     H33     0.5977   -1.6848   -1.2767 H        1 ZINC000001542895    0.0800
34     H34     0.3253   -0.1207   -2.0817 H        1 ZINC000001542895    0.0600
35     H35     1.7603    1.7412   -1.4830 H        1 ZINC000001542895    0.3900
36     H36     5.7035    3.1085   -0.0817 H        1 ZINC000001542895    0.3800
37     H37     5.8570    3.0905   -2.0823 H        1 ZINC000001542895    0.3300
38     H38     4.7690    1.9736   -2.6610 H        1 ZINC000001542895    0.3700
39     H39     3.4484    5.7136   -1.3505 H        1 ZINC000001542895    0.0700
40     H40     5.1859    5.3362   -1.4329 H        1 ZINC000001542895    0.0800
41     H41     6.3487    5.2949   -3.5661 H        1 ZINC000001542895    0.1200
42     H42     6.4247    6.1488   -5.8744 H        1 ZINC000001542895    0.1200
43     H43     4.3832    7.0365   -6.9267 H        1 ZINC000001542895    0.1100
44     H44     2.2654    7.0697   -5.6709 H        1 ZINC000001542895    0.1200
45     H45     2.1883    6.2116   -3.3641 H        1 ZINC000001542895    0.1200
@<TRIPOS>BOND
1     1     2     1
2     1     26    1
3     1     27    1
4     1     28    1
5     2     3     1
6     2     4     1
7     2     29    1
8     3     30    1
9     3     31    1
10    3     32    1
11    4     5     1
12    4     33    1
13    4     34    1
14    5     6     1
15    5     7     1
16    5     23    1
17    7     8     am
18    7     35    1
19    8     9     2
20    8     10    1
21    10    11    1
22    10    12    1
23    10    13    1
24    12    36    1
25    13    14    1
26    13    15    1
27    13    16    1
28    15    37    1
29    15    38    1
30    16    17    1
31    16    39    1
32    16    40    1
33    17    22    ar
34    17    18    ar
35    18    19    ar
36    18    41    1
37    19    20    ar
38    19    42    1
39    20    21    ar
40    20    43    1
41    21    22    ar
42    21    44    1
43    22    45    1
44    23    24    ar
45    23    25    ar
@<TRIPOS>SUBSTRUCTURE
1   ZINC000001542895 1     RESIDUE    1   A     ZIN   1
