@<TRIPOS>MOLECULE
ZINC000013980035
51    55    1     0     0
SMALL
USER_CHARGES
@<TRIPOS>ATOM
1      C1     -0.2226   -0.5563   -1.1124 C.3      1 ZINC000013980035   -0.1500
2      C2      0.1461   -1.8436   -0.3722 C.3      1 ZINC000013980035    0.0400
3      H3      0.8756   -2.4214   -0.9398 H        1 ZINC000013980035    0.1100
4      C4     -1.1154   -2.6890   -0.0710 C.3      1 ZINC000013980035    0.0300
5      O5     -1.4327   -2.2586    1.2686 O.3      1 ZINC000013980035   -0.3500
6      C6     -0.2949   -1.8110    1.8360 C.2      1 ZINC000013980035    0.5300
7      N7     -0.1460   -1.6500    3.1933 N.pl3    1 ZINC000013980035   -0.6300
8      C8     -1.2383   -1.8477    4.0454 C.ar     1 ZINC000013980035    0.1600
9      C9     -2.5296   -1.5593    3.5944 C.ar     1 ZINC000013980035   -0.0900
10     C10    -3.6110   -1.7422    4.4021 C.ar     1 ZINC000013980035   -0.0800
11     C11    -3.4337   -2.2262    5.7053 C.ar     1 ZINC000013980035    0.1700
12     N12    -4.4704   -2.4219    6.5350 N.ar     1 ZINC000013980035   -0.5400
13     C13    -4.2742   -2.8763    7.7495 C.ar     1 ZINC000013980035    0.3400
14     N14    -3.0732   -3.1648    8.2259 N.ar     1 ZINC000013980035   -0.5800
15     C15    -1.9807   -3.0085    7.4906 C.ar     1 ZINC000013980035    0.4600
16     N16    -0.7348   -3.3133    7.9989 N.pl3    1 ZINC000013980035   -0.6300
17     C17    -0.6194   -3.8958    9.2665 C.ar     1 ZINC000013980035    0.1300
18     C18    -1.6049   -4.7589    9.7267 C.ar     1 ZINC000013980035   -0.0600
19     C19    -1.4910   -5.3331   10.9779 C.ar     1 ZINC000013980035   -0.1800
20     C20    -0.3927   -5.0482   11.7748 C.ar     1 ZINC000013980035    0.1300
21     O21    -0.2815   -5.6141   13.0065 O.3      1 ZINC000013980035   -0.3000
22     C22    -1.3327   -6.4919   13.4145 C.3      1 ZINC000013980035    0.1400
23     C23    -1.0393   -7.0193   14.7953 C.2      1 ZINC000013980035    0.0300
24     N24    -1.4197   -6.4619   15.8950 N.2      1 ZINC000013980035   -0.4500
25     C25    -1.0776   -7.0570   17.0200 C.2      1 ZINC000013980035    0.0400
26     C26    -0.3692   -8.1788   16.8603 C.2      1 ZINC000013980035   -0.2500
27     S27    -0.1604   -8.4468   15.1313 S.3      1 ZINC000013980035    0.1600
28     C28     0.5938   -4.1857   11.3157 C.ar     1 ZINC000013980035   -0.0500
29     Cl29    1.9689   -3.8300   12.3138 Cl       1 ZINC000013980035   -0.0500
30     C30     0.4839   -3.6152   10.0622 C.ar     1 ZINC000013980035   -0.1000
31     C31    -2.1279   -2.5203    6.1686 C.ar     1 ZINC000013980035   -0.1600
32     C32    -1.0316   -2.3309    5.3217 C.ar     1 ZINC000013980035   -0.1100
33     N33     0.6482   -1.5469    0.9836 N.2      1 ZINC000013980035   -0.5900
34     H34     0.6739    0.0444   -1.2653 H        1 ZINC000013980035    0.0700
35     H35    -0.6621   -0.8056   -2.0782 H        1 ZINC000013980035    0.0700
36     H36    -0.9425    0.0095   -0.5208 H        1 ZINC000013980035    0.0600
37     H37    -1.9232   -2.4466   -0.7616 H        1 ZINC000013980035    0.1200
38     H38    -0.8877   -3.7546   -0.0961 H        1 ZINC000013980035    0.0900
39     H39     0.7162   -1.3994    3.5603 H        1 ZINC000013980035    0.4400
40     H40    -2.6719   -1.1858    2.5911 H        1 ZINC000013980035    0.1400
41     H41    -4.6024   -1.5145    4.0393 H        1 ZINC000013980035    0.1500
42     H42    -5.1314   -3.0215    8.3902 H        1 ZINC000013980035    0.2000
43     H43     0.0612   -3.1240    7.4778 H        1 ZINC000013980035    0.4200
44     H44    -2.4608   -4.9809    9.1065 H        1 ZINC000013980035    0.1500
45     H45    -2.2579   -6.0041   11.3357 H        1 ZINC000013980035    0.1400
46     H46    -2.2768   -5.9471   13.4266 H        1 ZINC000013980035    0.1000
47     H47    -1.4028   -7.3247   12.7148 H        1 ZINC000013980035    0.0900
48     H48    -1.3473   -6.6696   17.9914 H        1 ZINC000013980035    0.1800
49     H49     0.0058   -8.8115   17.6511 H        1 ZINC000013980035    0.1800
50     H50     1.2513   -2.9446    9.7047 H        1 ZINC000013980035    0.1400
51     H51    -0.0325   -2.5566    5.6642 H        1 ZINC000013980035    0.1300
@<TRIPOS>BOND
1     1     2     1
2     1     34    1
3     1     35    1
4     1     36    1
5     2     3     1
6     2     33    1
7     2     4     1
8     4     5     1
9     4     37    1
10    4     38    1
11    5     6     1
12    6     7     1
13    6     33    2
14    7     8     1
15    7     39    1
16    8     32    ar
17    8     9     ar
18    9     10    ar
19    9     40    1
20    10    11    ar
21    10    41    1
22    11    31    ar
23    11    12    ar
24    12    13    ar
25    13    14    ar
26    13    42    1
27    14    15    ar
28    15    16    1
29    15    31    ar
30    16    17    1
31    16    43    1
32    17    30    ar
33    17    18    ar
34    18    19    ar
35    18    44    1
36    19    20    ar
37    19    45    1
38    20    21    1
39    20    28    ar
40    21    22    1
41    22    23    1
42    22    46    1
43    22    47    1
44    23    27    1
45    23    24    2
46    24    25    1
47    25    26    2
48    25    48    1
49    26    27    1
50    26    49    1
51    28    29    1
52    28    30    ar
53    30    50    1
54    31    32    ar
55    32    51    1
@<TRIPOS>SUBSTRUCTURE
1   ZINC000013980035 1     RESIDUE    1   A     ZIN   1
