@<TRIPOS>MOLECULE
ZINC000003816934
  24   25    0    0    0
SMALL
USER_CHARGES
NO_NAME
@<TRIPOS>ATOM
    1 O1        0.0023    -0.0042     0.0036 O.2    1 <0>      -0.5000
    2 C2       -0.0143     1.2115     0.0065 C.2    1 <0>       0.5700
    3 N3        1.1435     1.9013     0.0014 N.am   1 <0>      -0.6600
    4 C4        2.3635     1.2215     0.0917 C.ar   1 <0>       0.0400
    5 C5        2.5334    -0.0236    -0.5080 C.ar   1 <0>       0.1700
    6 N6        3.7019    -0.6339    -0.4003 N.ar   1 <0>      -0.4800
    7 C7        4.6972    -0.0783     0.2637 C.ar   1 <0>       0.3500
    8 Cl8       6.2107    -0.9213     0.3753 Cl     1 <0>       0.0300
    9 N9        4.5756     1.0996     0.8450 N.ar   1 <0>      -0.4800
   10 C10       3.4405     1.7754     0.7786 C.ar   1 <0>       0.1500
   11 C11      -1.3035     1.9323     0.0095 C.ar   1 <0>      -0.1200
   12 C12      -1.3253     3.3284     0.0070 C.ar   1 <0>      -0.0600
   13 C13      -2.5310     3.9975     0.0094 C.ar   1 <0>      -0.1300
   14 C14      -3.7209     3.2875     0.0147 C.ar   1 <0>       0.1000
   15 F15      -4.8992     3.9483     0.0170 F      1 <0>      -0.1200
   16 C16      -3.7063     1.8987     0.0172 C.ar   1 <0>       0.0700
   17 F17      -4.8696     1.2117     0.0224 F      1 <0>      -0.1200
   18 C18      -2.5048     1.2197     0.0091 C.ar   1 <0>      -0.0600
   19 H19       1.1312     2.8690    -0.0650 H      1 <0>       0.4200
   20 H20       1.7227    -0.4844    -1.0528 H      1 <0>       0.1900
   21 H21       3.3480     2.7393     1.2569 H      1 <0>       0.1800
   22 H22      -0.3990     3.8836     0.0036 H      1 <0>       0.1500
   23 H23      -2.5479     5.0773     0.0074 H      1 <0>       0.1600
   24 H24      -2.4935     0.1397     0.0107 H      1 <0>       0.1600
@<TRIPOS>BOND
   1    1    2 2
   2    2    3 am
   3    2   11 1
   4    3    4 1
   5    3   19 1
   6    4   10 ar
   7    4    5 ar
   8    5    6 ar
   9    5   20 1
  10    6    7 ar
  11    7    8 1
  12    7    9 ar
  13    9   10 ar
  14   10   21 1
  15   11   18 ar
  16   11   12 ar
  17   12   13 ar
  18   12   22 1
  19   13   14 ar
  20   13   23 1
  21   14   15 1
  22   14   16 ar
  23   16   17 1
  24   16   18 ar
  25   18   24 1
