@<TRIPOS>MOLECULE
ZINC000003784334
58    62    1     0     0
SMALL
USER_CHARGES
@<TRIPOS>ATOM
1      C1     -5.7652   -6.2118   -5.2589 C.3      1 ZINC000003784334   -0.1400
2      C2     -4.7428   -5.3283   -4.5414 C.3      1 ZINC000003784334   -0.0800
3      C3     -5.4296   -4.0984   -4.0060 C.ar     1 ZINC000003784334    0.1700
4      C4     -5.3262   -3.7900   -2.6644 C.ar     1 ZINC000003784334   -0.2100
5      C5     -5.9729   -2.6546   -2.1853 C.ar     1 ZINC000003784334    0.2200
6      C6     -6.6712   -1.8575   -3.0868 C.ar     1 ZINC000003784334   -0.1900
7      C7     -7.3323   -0.5891   -2.6179 C.3      1 ZINC000003784334   -0.0700
8      C8     -7.8205   -0.7657   -1.1794 C.3      1 ZINC000003784334   -0.1400
9      C9     -6.7298   -1.3686   -0.3352 C.2      1 ZINC000003784334    0.5200
10     O10    -6.5893   -1.0035    0.8127 O.2      1 ZINC000003784334   -0.5100
11     N11    -5.9068   -2.3046   -0.8411 N.am     1 ZINC000003784334   -0.5400
12     C12    -4.9355   -2.9659    0.0338 C.3      1 ZINC000003784334    0.1500
13     C13    -3.6430   -2.1911    0.0258 C.ar     1 ZINC000003784334   -0.1100
14     C14    -3.4398   -1.1806    0.9485 C.ar     1 ZINC000003784334   -0.1200
15     C15    -2.2584   -0.4674    0.9457 C.ar     1 ZINC000003784334   -0.1100
16     C16    -1.2687   -0.7668    0.0105 C.ar     1 ZINC000003784334   -0.0400
17     C17     0.0021   -0.0041    0.0020 C.ar     1 ZINC000003784334   -0.0400
18     C18    -0.0168    1.3876    0.0097 C.ar     1 ZINC000003784334   -0.1100
19     C19     1.1693    2.0943    0.0021 C.ar     1 ZINC000003784334   -0.1400
20     C20     2.3823    1.4272   -0.0130 C.ar     1 ZINC000003784334   -0.1200
21     C21     2.4204    0.0476   -0.0208 C.ar     1 ZINC000003784334   -0.1000
22     C22     1.2332   -0.6818   -0.0134 C.ar     1 ZINC000003784334    0.0500
23     C23     1.2683   -2.1600   -0.0221 C.2      1 ZINC000003784334    0.0700
24     N24     0.2185   -2.9840   -0.0112 N.2      1 ZINC000003784334   -0.3500
25     N25     0.6730   -4.1903   -0.0282 N.2      1 ZINC000003784334   -0.1900
26     N26     1.9595   -4.1596   -0.0400 N.2      1 ZINC000003784334   -0.1900
27     N27     2.3562   -2.9330   -0.0367 N.pl3    1 ZINC000003784334   -0.3700
28     C28    -1.4814   -1.7827   -0.9203 C.ar     1 ZINC000003784334    0.0000
29     C29    -2.6646   -2.4927   -0.9045 C.ar     1 ZINC000003784334   -0.1100
30     C30    -6.7333   -2.2356   -4.4110 C.ar     1 ZINC000003784334    0.1700
31     C31    -7.5052   -1.3927   -5.3933 C.3      1 ZINC000003784334   -0.0800
32     C32    -8.9556   -1.8763   -5.4509 C.3      1 ZINC000003784334   -0.1400
33     N33    -6.1218   -3.3300   -4.8262 N.ar     1 ZINC000003784334   -0.5000
34     H34    -5.2684   -7.1014   -5.6462 H        1 ZINC000003784334    0.0600
35     H35    -6.5455   -6.5076   -4.5577 H        1 ZINC000003784334    0.0500
36     H36    -6.2102   -5.6559   -6.0842 H        1 ZINC000003784334    0.0600
37     H37    -3.9625   -5.0325   -5.2427 H        1 ZINC000003784334    0.0900
38     H38    -4.2978   -5.8842   -3.7161 H        1 ZINC000003784334    0.0800
39     H39    -4.7540   -4.4188   -1.9984 H        1 ZINC000003784334    0.1400
40     H40    -6.6151    0.2307   -2.6596 H        1 ZINC000003784334    0.0800
41     H41    -8.1808   -0.3621   -3.2633 H        1 ZINC000003784334    0.0900
42     H42    -8.1019    0.2049   -0.7709 H        1 ZINC000003784334    0.1100
43     H43    -8.6876   -1.4261   -1.1700 H        1 ZINC000003784334    0.1000
44     H44    -4.7540   -3.9790   -0.3251 H        1 ZINC000003784334    0.0900
45     H45    -5.3292   -3.0054    1.0494 H        1 ZINC000003784334    0.1000
46     H46    -4.2073   -0.9493    1.6722 H        1 ZINC000003784334    0.1200
47     H47    -2.1007    0.3210    1.6668 H        1 ZINC000003784334    0.1100
48     H48    -0.9594    1.9147    0.0170 H        1 ZINC000003784334    0.1200
49     H49     1.1507    3.1741    0.0081 H        1 ZINC000003784334    0.1200
50     H50     3.3042    1.9897   -0.0187 H        1 ZINC000003784334    0.1200
51     H51     3.3701   -0.4665   -0.0329 H        1 ZINC000003784334    0.1300
52     H52    -0.7199   -2.0163   -1.6497 H        1 ZINC000003784334    0.1100
53     H53    -2.8290   -3.2824   -1.6227 H        1 ZINC000003784334    0.1100
54     H54    -7.4820   -0.3506   -5.0747 H        1 ZINC000003784334    0.0800
55     H55    -7.0533   -1.4807   -6.3813 H        1 ZINC000003784334    0.0800
56     H56    -8.9788   -2.9184   -5.7695 H        1 ZINC000003784334    0.0600
57     H57    -9.4075   -1.7883   -4.4629 H        1 ZINC000003784334    0.0500
58     H58    -9.5139   -1.2667   -6.1614 H        1 ZINC000003784334    0.0600
@<TRIPOS>BOND
1     1     2     1
2     1     34    1
3     1     35    1
4     1     36    1
5     2     3     1
6     2     37    1
7     2     38    1
8     3     33    ar
9     3     4     ar
10    4     5     ar
11    4     39    1
12    5     11    1
13    5     6     ar
14    6     7     1
15    6     30    ar
16    7     8     1
17    7     40    1
18    7     41    1
19    8     9     1
20    8     42    1
21    8     43    1
22    9     10    2
23    9     11    am
24    11    12    1
25    12    13    1
26    12    44    1
27    12    45    1
28    13    29    ar
29    13    14    ar
30    14    15    ar
31    14    46    1
32    15    16    ar
33    15    47    1
34    16    17    1
35    16    28    ar
36    17    22    ar
37    17    18    ar
38    18    19    ar
39    18    48    1
40    19    20    ar
41    19    49    1
42    20    21    ar
43    20    50    1
44    21    22    ar
45    21    51    1
46    22    23    1
47    23    27    1
48    23    24    2
49    24    25    1
50    25    26    2
51    26    27    1
52    28    29    ar
53    28    52    1
54    29    53    1
55    30    31    1
56    30    33    ar
57    31    32    1
58    31    54    1
59    31    55    1
60    32    56    1
61    32    57    1
62    32    58    1
@<TRIPOS>SUBSTRUCTURE
1   ZINC000003784334 1     RESIDUE    1   A     ZIN   1
