@<TRIPOS>MOLECULE
ZINC000033981898
44    45    1     0     0
SMALL
USER_CHARGES
@<TRIPOS>ATOM
1      N1     -0.0168    1.3858    0.0097 N.pl3    1 ZINC000033981898   -0.8500
2      C2      0.0021   -0.0041    0.0020 C.ar     1 ZINC000033981898    0.4000
3      C3     -1.1966   -0.7097    0.0039 C.ar     1 ZINC000033981898   -0.2400
4      C4     -1.1632   -2.0927   -0.0043 C.ar     1 ZINC000033981898   -0.0200
5      C5      0.0725   -2.7256   -0.0140 C.ar     1 ZINC000033981898   -0.2300
6      C6      0.1569   -4.2302   -0.0236 C.3      1 ZINC000033981898    0.1700
7      H7     -0.7547   -4.6425   -0.4561 H        1 ZINC000033981898    0.1000
8      O8      1.2818   -4.6391   -0.8043 O.3      1 ZINC000033981898   -0.5400
9      C9      0.3179   -4.7411    1.4095 C.3      1 ZINC000033981898    0.0300
10     N10     0.4002   -6.2077    1.4002 N.3      1 ZINC000033981898   -0.6700
11     C11     0.5556   -6.7350    2.7625 C.3      1 ZINC000033981898    0.0600
12     C12     0.6376   -8.2620    2.7121 C.3      1 ZINC000033981898    0.0600
13     O13     1.8240   -8.6526    2.0179 O.3      1 ZINC000033981898   -0.3000
14     C14     2.0496   -9.9861    1.8839 C.ar     1 ZINC000033981898    0.1000
15     C15     1.1447  -10.8997    2.4047 C.ar     1 ZINC000033981898   -0.2100
16     C16     1.3761  -12.2546    2.2667 C.ar     1 ZINC000033981898   -0.0800
17     C17     2.5086  -12.7004    1.6106 C.ar     1 ZINC000033981898   -0.0500
18     C18     2.7588  -14.1791    1.4620 C.3      1 ZINC000033981898   -0.1500
19     C19     2.1309  -14.6686    0.1825 C.2      1 ZINC000033981898    0.4900
20     O20     1.5355  -13.8891   -0.5416 O.co2    1 ZINC000033981898   -0.6900
21     O21     2.2184  -15.8442   -0.1286 O.co2    1 ZINC000033981898   -0.7100
22     C22     3.4117  -11.7919    1.0903 C.ar     1 ZINC000033981898   -0.0800
23     C23     3.1823  -10.4359    1.2211 C.ar     1 ZINC000033981898   -0.1500
24     C24     1.2231   -1.9625   -0.0153 C.ar     1 ZINC000033981898    0.1600
25     N25     1.1610   -0.6446   -0.0125 N.ar     1 ZINC000033981898   -0.5400
26     H26     0.8166    1.8822    0.0044 H        1 ZINC000033981898    0.4000
27     H27    -0.8633    1.8594    0.0163 H        1 ZINC000033981898    0.4100
28     H28    -2.1406   -0.1850    0.0119 H        1 ZINC000033981898    0.1300
29     H29    -2.0778   -2.6671   -0.0027 H        1 ZINC000033981898    0.1300
30     H30     2.1292   -4.3079   -0.4767 H        1 ZINC000033981898    0.3700
31     H31     1.2295   -4.3288    1.8420 H        1 ZINC000033981898    0.0800
32     H32    -0.5401   -4.4291    2.0050 H        1 ZINC000033981898    0.0400
33     H33    -0.4046   -6.6122    0.9455 H        1 ZINC000033981898    0.3400
34     H34     1.4689   -6.3365    3.2044 H        1 ZINC000033981898    0.0800
35     H35    -0.3008   -6.4369    3.3673 H        1 ZINC000033981898    0.0500
36     H36     0.6635   -8.6581    3.7272 H        1 ZINC000033981898    0.0600
37     H37    -0.2348   -8.6556    2.1906 H        1 ZINC000033981898    0.0600
38     H38     0.2604  -10.5519    2.9178 H        1 ZINC000033981898    0.1200
39     H39     0.6720  -12.9662    2.6719 H        1 ZINC000033981898    0.1200
40     H40     3.8325  -14.3649    1.4342 H        1 ZINC000033981898    0.0700
41     H41     2.3202  -14.7086    2.3077 H        1 ZINC000033981898    0.0700
42     H42     4.2954  -12.1427    0.5780 H        1 ZINC000033981898    0.1200
43     H43     3.8880   -9.7267    0.8145 H        1 ZINC000033981898    0.1200
44     H44     2.1864   -2.4507   -0.0229 H        1 ZINC000033981898    0.1500
@<TRIPOS>BOND
1     1     2     1
2     1     26    1
3     1     27    1
4     2     25    ar
5     2     3     ar
6     3     4     ar
7     3     28    1
8     4     5     ar
9     4     29    1
10    5     6     1
11    5     24    ar
12    6     7     1
13    6     8     1
14    6     9     1
15    8     30    1
16    9     10    1
17    9     31    1
18    9     32    1
19    10    11    1
20    10    33    1
21    11    12    1
22    11    34    1
23    11    35    1
24    12    13    1
25    12    36    1
26    12    37    1
27    13    14    1
28    14    23    ar
29    14    15    ar
30    15    16    ar
31    15    38    1
32    16    17    ar
33    16    39    1
34    17    18    1
35    17    22    ar
36    18    19    1
37    18    40    1
38    18    41    1
39    19    20    ar
40    19    21    ar
41    22    23    ar
42    22    42    1
43    23    43    1
44    24    25    ar
45    24    44    1
@<TRIPOS>SUBSTRUCTURE
1   ZINC000033981898 1     RESIDUE    1   A     ZIN   1
