@<TRIPOS>MOLECULE
ZINC000001532714
36    35    1     0     0
SMALL
USER_CHARGES
@<TRIPOS>ATOM
1      C1      0.5385    1.3265   -0.0155 C.3      1 ZINC000001532714   -0.0600
2      N2      0.0207   -0.0467    0.0478 N.4      1 ZINC000001532714   -0.2700
3      C3      0.5072   -0.6975    1.2716 C.3      1 ZINC000001532714   -0.0400
4      C4     -1.4480   -0.0161    0.0601 C.3      1 ZINC000001532714   -0.0400
5      C5      0.4850   -0.7997   -1.1250 C.3      1 ZINC000001532714   -0.0100
6      C6      2.0114   -0.7311   -1.2035 C.3      1 ZINC000001532714    0.1000
7      O7      2.5777   -1.4542   -0.1088 O.3      1 ZINC000001532714   -0.7600
8      P8      4.1649   -1.5922    0.1237 P.3      1 ZINC000001532714    2.2200
9      O9      4.8020   -0.1856    0.1747 O.co2    1 ZINC000001532714   -1.0900
10     O10     4.7875   -2.3977   -1.0384 O.co2    1 ZINC000001532714   -1.0900
11     O11     4.4392   -2.3564    1.5139 O.3      1 ZINC000001532714   -0.7500
12     C12     5.7488   -2.5423    2.0546 C.3      1 ZINC000001532714    0.1100
13     C13     5.6508   -3.3032    3.3784 C.3      1 ZINC000001532714    0.1000
14     H14     5.1087   -4.2358    3.2221 H        1 ZINC000001532714    0.1100
15     O15     4.9560   -2.5032    4.3372 O.3      1 ZINC000001532714   -0.5500
16     C16     7.0576   -3.6114    3.8948 C.3      1 ZINC000001532714    0.0400
17     O17     6.9673   -4.4215    5.0686 O.3      1 ZINC000001532714   -0.5600
18     H18     1.6283    1.3038   -0.0247 H        1 ZINC000001532714    0.1300
19     H19     0.1776    1.8094   -0.9236 H        1 ZINC000001532714    0.1200
20     H20     0.1940    1.8852    0.8546 H        1 ZINC000001532714    0.1200
21     H21     0.0213   -0.2502    2.1388 H        1 ZINC000001532714    0.1100
22     H22     0.2751   -1.7619    1.2340 H        1 ZINC000001532714    0.1200
23     H23     1.5860   -0.5635    1.3502 H        1 ZINC000001532714    0.1400
24     H24    -1.8089    0.4668   -0.8480 H        1 ZINC000001532714    0.1200
25     H25    -1.8322   -1.0351    0.1071 H        1 ZINC000001532714    0.1200
26     H26    -1.7925    0.5426    0.9303 H        1 ZINC000001532714    0.1200
27     H27     0.1722   -1.8401   -1.0360 H        1 ZINC000001532714    0.1400
28     H28     0.0549   -0.3670   -2.0282 H        1 ZINC000001532714    0.1400
29     H29     2.3471   -1.1715   -2.1424 H        1 ZINC000001532714    0.1000
30     H30     2.3313    0.3098   -1.1556 H        1 ZINC000001532714    0.0800
31     H31     6.3546   -3.1136    1.3512 H        1 ZINC000001532714    0.0700
32     H32     6.2119   -1.5708    2.2273 H        1 ZINC000001532714    0.0600
33     H33     5.3827   -1.6562    4.5259 H        1 ZINC000001532714    0.3700
34     H34     7.6176   -4.1454    3.1271 H        1 ZINC000001532714    0.0600
35     H35     7.5688   -2.6792    4.1352 H        1 ZINC000001532714    0.0500
36     H36     7.8237   -4.6562    5.4514 H        1 ZINC000001532714    0.3800
@<TRIPOS>BOND
1     1     2     1
2     1     18    1
3     1     19    1
4     1     20    1
5     2     3     1
6     2     4     1
7     2     5     1
8     3     21    1
9     3     22    1
10    3     23    1
11    4     24    1
12    4     25    1
13    4     26    1
14    5     6     1
15    5     27    1
16    5     28    1
17    6     7     1
18    6     29    1
19    6     30    1
20    7     8     1
21    8     9     ar
22    8     10    ar
23    8     11    1
24    11    12    1
25    12    13    1
26    12    31    1
27    12    32    1
28    13    14    1
29    13    15    1
30    13    16    1
31    15    33    1
32    16    17    1
33    16    34    1
34    16    35    1
35    17    36    1
@<TRIPOS>SUBSTRUCTURE
1   ZINC000001532714 1     RESIDUE    1   A     ZIN   1
