@<TRIPOS>MOLECULE
ZINC000014852066
  47   48    0    0    0
SMALL
USER_CHARGES
NO_NAME
@<TRIPOS>ATOM
    1 C1       -0.0173     1.4248     0.0099 C.3    1 <0>       0.0300
    2 O2        0.0021    -0.0041     0.0020 O.3    1 <0>      -0.3100
    3 C3        0.6048    -0.6061    -1.0540 C.ar   1 <0>       0.1700
    4 C4        1.1711     0.1630    -2.0585 C.ar   1 <0>      -0.2600
    5 C5        1.7749    -0.4609    -3.1384 C.ar   1 <0>       0.2000
    6 O6        2.3323     0.2961    -4.1173 O.3    1 <0>      -0.4800
    7 C7        1.8028    -1.8603    -3.2239 C.ar   1 <0>      -0.1700
    8 C8        1.2548    -2.6225    -2.1819 C.ar   1 <0>       0.0500
    9 C9        0.6593    -1.9934    -1.1248 C.ar   1 <0>      -0.1800
   10 C10       1.3214    -4.1266    -2.1695 C.3    1 <0>      -0.1000
   11 C11       2.5247    -4.5884    -1.3941 C.2    1 <0>      -0.1300
   12 C12       3.4614    -5.3590    -1.9349 C.2    1 <0>      -0.1400
   13 C13       3.4169    -5.8580    -3.2938 C.2    1 <0>       0.2500
   14 O14       2.2237    -6.1176    -3.8674 O.3    1 <0>      -0.6200
   15 C15       4.5395    -6.0676    -4.0544 C.2    1 <0>      -0.3100
   16 O16       5.7748    -5.8734    -3.5129 O.3    1 <0>      -0.5100
   17 C17       4.4035    -6.4524    -5.4011 C.2    1 <0>       0.4100
   18 O18       3.4172    -7.0482    -5.7855 O.2    1 <0>      -0.5000
   19 C19       5.4801    -6.0778    -6.3887 C.3    1 <0>      -0.1600
   20 C20       5.5315    -4.5455    -6.5078 C.3    1 <0>      -0.0900
   21 C21       4.3245    -3.9438    -5.7931 C.3    1 <0>      -0.1500
   22 C22       4.0616    -2.4933    -6.1854 C.3    1 <0>       0.1000
   23 H23       3.4604    -2.4638    -7.0945 H      1 <0>       0.0700
   24 C24       5.3831    -1.7615    -6.4291 C.3    1 <0>      -0.1500
   25 O25       3.3473    -1.8203    -5.1166 O.3    1 <0>      -0.3600
   26 C26       2.4274    -2.4948    -4.4020 C.2    1 <0>       0.4900
   27 O27       2.0737    -3.6038    -4.7560 O.2    1 <0>      -0.4400
   28 H28       1.0053     1.8021     0.0021 H      1 <0>       0.0600
   29 H29      -0.5445     1.7859    -0.8732 H      1 <0>       0.0600
   30 H30      -0.5275     1.7763     0.9067 H      1 <0>       0.1000
   31 H31       1.1425     1.2408    -2.0002 H      1 <0>       0.1400
   32 H32       3.2634     0.5095    -3.9673 H      1 <0>       0.4000
   33 H33       0.2245    -2.5866    -0.3339 H      1 <0>       0.1400
   34 H34       0.4211    -4.5043    -1.6678 H      1 <0>       0.0700
   35 H35       1.3353    -4.5078    -3.1791 H      1 <0>       0.1600
   36 H36       2.6321    -4.2782    -0.3539 H      1 <0>       0.1000
   37 H37       4.3187    -5.6340    -1.3152 H      1 <0>       0.1000
   38 H38       5.7589    -5.5891    -2.5888 H      1 <0>       0.3500
   39 H39       6.4434    -6.4517    -6.0456 H      1 <0>       0.0700
   40 H40       5.2437    -6.5070    -7.3636 H      1 <0>       0.0600
   41 H41       6.4552    -4.1951    -6.0431 H      1 <0>       0.0600
   42 H42       5.5220    -4.2714    -7.5624 H      1 <0>       0.0500
   43 H43       3.4380    -4.5354    -6.0429 H      1 <0>       0.1000
   44 H44       4.4853    -3.9837    -4.7132 H      1 <0>       0.0900
   45 H45       5.9284    -2.2546    -7.2338 H      1 <0>       0.0800
   46 H46       5.1798    -0.7277    -6.7082 H      1 <0>       0.0600
   47 H47       5.9824    -1.7810    -5.5188 H      1 <0>       0.0600
@<TRIPOS>BOND
   1    1    2 1
   2    1   28 1
   3    1   29 1
   4    1   30 1
   5    2    3 1
   6    3    9 ar
   7    3    4 ar
   8    4    5 ar
   9    4   31 1
  10    5    6 1
  11    5    7 ar
  12    6   32 1
  13    7   26 1
  14    7    8 ar
  15    8    9 ar
  16    8   10 1
  17    9   33 1
  18   10   11 1
  19   10   34 1
  20   10   35 1
  21   11   12 2
  22   11   36 1
  23   12   13 1
  24   12   37 1
  25   13   14 1
  26   13   15 2
  27   15   16 1
  28   15   17 1
  29   16   38 1
  30   17   18 2
  31   17   19 1
  32   19   20 1
  33   19   39 1
  34   19   40 1
  35   20   21 1
  36   20   41 1
  37   20   42 1
  38   21   22 1
  39   21   43 1
  40   21   44 1
  41   22   23 1
  42   22   24 1
  43   22   25 1
  44   24   45 1
  45   24   46 1
  46   24   47 1
  47   25   26 1
  48   26   27 2
