@<TRIPOS>MOLECULE
ZINC000003794275
64    67    1     0     0
SMALL
USER_CHARGES
@<TRIPOS>ATOM
1      C1     -0.0173    1.4248    0.0099 C.3      1 ZINC000003794275    0.0300
2      O2      0.0021   -0.0041    0.0020 O.3      1 ZINC000003794275   -0.3200
3      C3     -1.2000   -0.6373    0.0101 C.ar     1 ZINC000003794275    0.1200
4      C4     -2.3736    0.1048    0.0195 C.ar     1 ZINC000003794275   -0.2100
5      C5     -3.5951   -0.5340    0.0272 C.ar     1 ZINC000003794275   -0.0700
6      C6     -3.6513   -1.9286    0.0256 C.ar     1 ZINC000003794275   -0.0800
7      C7     -4.9587   -2.6174    0.0334 C.2      1 ZINC000003794275   -0.1300
8      C8     -5.0101   -3.9423    0.0319 C.2      1 ZINC000003794275   -0.1400
9      C9     -6.3434   -4.6447    0.0399 C.3      1 ZINC000003794275   -0.0900
10     C10    -6.4169   -5.6127   -1.1427 C.3      1 ZINC000003794275   -0.1100
11     C11    -7.7706   -6.3258   -1.1346 C.3      1 ZINC000003794275   -0.1200
12     C12    -7.8441   -7.2938   -2.3171 C.3      1 ZINC000003794275    0.0600
13     O13    -9.1084   -7.9599   -2.3096 O.3      1 ZINC000003794275   -0.2900
14     C14    -9.3369   -8.8592   -3.2999 C.ar     1 ZINC000003794275    0.1900
15     C15    -8.3531   -9.0960   -4.2567 C.ar     1 ZINC000003794275   -0.2400
16     C16    -8.5740   -9.9955   -5.2613 C.ar     1 ZINC000003794275    0.0000
17     C17    -9.7893  -10.6768   -5.3256 C.ar     1 ZINC000003794275   -0.2600
18     C18   -10.0652  -11.6400   -6.4105 C.2      1 ZINC000003794275    0.4500
19     O19    -9.1881  -12.0539   -7.1461 O.2      1 ZINC000003794275   -0.4600
20     C20   -11.4742  -12.0710   -6.5471 C.ar     1 ZINC000003794275   -0.2400
21     C21   -11.9060  -12.7569   -7.6753 C.ar     1 ZINC000003794275    0.0000
22     C22   -13.2444  -13.1401   -7.7712 C.ar     1 ZINC000003794275   -0.1700
23     C23   -13.7214  -13.8693   -8.9592 C.2      1 ZINC000003794275    0.5300
24     O24   -12.9437  -14.1399   -9.8638 O.co2    1 ZINC000003794275   -0.6900
25     O25   -14.8950  -14.2041   -9.0410 O.co2    1 ZINC000003794275   -0.6900
26     C26   -14.1332  -12.8290   -6.7330 C.ar     1 ZINC000003794275   -0.0200
27     C27   -13.7048  -12.1576   -5.6258 C.ar     1 ZINC000003794275   -0.1600
28     C28   -12.3713  -11.7683   -5.5071 C.ar     1 ZINC000003794275    0.1500
29     O29   -11.9589  -11.1178   -4.4023 O.3      1 ZINC000003794275   -0.2100
30     C30   -10.7864  -10.4543   -4.3599 C.ar     1 ZINC000003794275    0.2000
31     C31   -10.5443   -9.5369   -3.3456 C.ar     1 ZINC000003794275   -0.1300
32     C32   -11.5965   -9.2746   -2.2991 C.3      1 ZINC000003794275   -0.0400
33     C33   -11.4001  -10.2370   -1.1260 C.3      1 ZINC000003794275   -0.1700
34     C34   -12.4523   -9.9746   -0.0795 C.2      1 ZINC000003794275    0.4900
35     O35   -13.2823   -9.0991   -0.2557 O.co2    1 ZINC000003794275   -0.7000
36     O36   -12.4735  -10.6379    0.9433 O.co2    1 ZINC000003794275   -0.7100
37     C37    -2.4694   -2.6711    0.0162 C.ar     1 ZINC000003794275   -0.0800
38     C38    -1.2517   -2.0249    0.0031 C.ar     1 ZINC000003794275   -0.1500
39     H39     1.0053    1.8021    0.0021 H        1 ZINC000003794275    0.1000
40     H40    -0.5445    1.7859   -0.8732 H        1 ZINC000003794275    0.0600
41     H41    -0.5275    1.7763    0.9067 H        1 ZINC000003794275    0.0600
42     H42    -2.3293    1.1839    0.0211 H        1 ZINC000003794275    0.1300
43     H43    -4.5075    0.0439    0.0349 H        1 ZINC000003794275    0.1300
44     H44    -5.8724   -2.0415    0.0404 H        1 ZINC000003794275    0.1200
45     H45    -4.0964   -4.5182    0.0250 H        1 ZINC000003794275    0.1100
46     H46    -6.4562   -5.1996    0.9712 H        1 ZINC000003794275    0.0800
47     H47    -7.1426   -3.9081   -0.0433 H        1 ZINC000003794275    0.0700
48     H48    -6.3042   -5.0578   -2.0740 H        1 ZINC000003794275    0.0700
49     H49    -5.6178   -6.3493   -1.0595 H        1 ZINC000003794275    0.0700
50     H50    -7.8834   -6.8807   -0.2032 H        1 ZINC000003794275    0.0800
51     H51    -8.5698   -5.5892   -1.2177 H        1 ZINC000003794275    0.0800
52     H52    -7.7313   -6.7389   -3.2485 H        1 ZINC000003794275    0.0600
53     H53    -7.0450   -8.0304   -2.2340 H        1 ZINC000003794275    0.0600
54     H54    -7.4130   -8.5669   -4.2048 H        1 ZINC000003794275    0.1300
55     H55    -7.8105  -10.1779   -6.0031 H        1 ZINC000003794275    0.1400
56     H56   -11.2132  -12.9908   -8.4701 H        1 ZINC000003794275    0.1400
57     H57   -15.1692  -13.1241   -6.8107 H        1 ZINC000003794275    0.1400
58     H58   -14.4034  -11.9257   -4.8356 H        1 ZINC000003794275    0.1400
59     H59   -11.5087   -8.2474   -1.9451 H        1 ZINC000003794275    0.0800
60     H60   -12.5853   -9.4264   -2.7320 H        1 ZINC000003794275    0.0800
61     H61   -11.4880  -11.2641   -1.4801 H        1 ZINC000003794275    0.0600
62     H62   -10.4114  -10.0851   -0.6932 H        1 ZINC000003794275    0.0500
63     H63    -2.5088   -3.7504    0.0149 H        1 ZINC000003794275    0.1300
64     H64    -0.3368   -2.5987   -0.0042 H        1 ZINC000003794275    0.1300
@<TRIPOS>BOND
1     1     2     1
2     1     39    1
3     1     40    1
4     1     41    1
5     2     3     1
6     3     38    ar
7     3     4     ar
8     4     5     ar
9     4     42    1
10    5     6     ar
11    5     43    1
12    6     7     1
13    6     37    ar
14    7     8     2
15    7     44    1
16    8     9     1
17    8     45    1
18    9     10    1
19    9     46    1
20    9     47    1
21    10    11    1
22    10    48    1
23    10    49    1
24    11    12    1
25    11    50    1
26    11    51    1
27    12    13    1
28    12    52    1
29    12    53    1
30    13    14    1
31    14    31    ar
32    14    15    ar
33    15    16    ar
34    15    54    1
35    16    17    ar
36    16    55    1
37    17    30    ar
38    17    18    1
39    18    19    2
40    18    20    1
41    20    28    ar
42    20    21    ar
43    21    22    ar
44    21    56    1
45    22    23    1
46    22    26    ar
47    23    24    ar
48    23    25    ar
49    26    27    ar
50    26    57    1
51    27    28    ar
52    27    58    1
53    28    29    1
54    29    30    1
55    30    31    ar
56    31    32    1
57    32    33    1
58    32    59    1
59    32    60    1
60    33    34    1
61    33    61    1
62    33    62    1
63    34    35    ar
64    34    36    ar
65    37    38    ar
66    37    63    1
67    38    64    1
@<TRIPOS>SUBSTRUCTURE
1   ZINC000003794275 1     RESIDUE    1   A     ZIN   1
