@<TRIPOS>MOLECULE
ZINC000003831996
76    80    1     0     0
SMALL
USER_CHARGES
@<TRIPOS>ATOM
1      N1     -0.1098    1.1091    0.6061 N.pl3    1 ZINC000003831996   -0.8800
2      C2     -0.1455   -0.2427    0.2565 C.ar     1 ZINC000003831996    0.2100
3      C3     -1.3644   -0.8776    0.0546 C.ar     1 ZINC000003831996   -0.1900
4      C4     -1.3960   -2.2142   -0.2914 C.ar     1 ZINC000003831996   -0.0700
5      C5     -0.2161   -2.9205   -0.4369 C.ar     1 ZINC000003831996   -0.1500
6      C6      0.9991   -2.2917   -0.2362 C.ar     1 ZINC000003831996   -0.0600
7      C7      2.2824   -3.0655   -0.3954 C.3      1 ZINC000003831996    0.1600
8      N8      2.6479   -3.1202   -1.8168 N.am     1 ZINC000003831996   -0.6000
9      C9      2.1070   -4.0804   -2.5398 C.2      1 ZINC000003831996    0.7100
10     O10     1.6506   -5.0336   -1.9285 O.2      1 ZINC000003831996   -0.5800
11     N11     1.9433   -4.0998   -3.8732 N.am     1 ZINC000003831996   -0.6100
12     C12     1.7289   -5.3812   -4.5540 C.3      1 ZINC000003831996    0.1700
13     C13     0.2698   -5.7511   -4.4805 C.ar     1 ZINC000003831996   -0.0600
14     C14    -0.2329   -6.3560   -3.3431 C.ar     1 ZINC000003831996   -0.1400
15     C15    -1.5711   -6.6970   -3.2714 C.ar     1 ZINC000003831996   -0.0800
16     C16    -2.4102   -6.4344   -4.3364 C.ar     1 ZINC000003831996   -0.1900
17     C17    -1.9085   -5.8269   -5.4805 C.ar     1 ZINC000003831996    0.2100
18     N18    -2.7544   -5.5598   -6.5595 N.pl3    1 ZINC000003831996   -0.8800
19     C19    -0.5649   -5.4805   -5.5469 C.ar     1 ZINC000003831996   -0.1900
20     C20     1.9336   -2.8647   -4.6561 C.3      1 ZINC000003831996    0.1700
21     H21     1.2756   -2.1396   -4.1735 H        1 ZINC000003831996    0.0800
22     C22     1.3797   -3.1676   -6.0538 C.3      1 ZINC000003831996   -0.0900
23     C23     1.2866   -1.8885   -6.8453 C.ar     1 ZINC000003831996   -0.0800
24     C24     0.1988   -1.0515   -6.6806 C.ar     1 ZINC000003831996   -0.1200
25     C25     0.1133    0.1217   -7.4065 C.ar     1 ZINC000003831996   -0.1200
26     C26     1.1158    0.4583   -8.2968 C.ar     1 ZINC000003831996   -0.1200
27     C27     2.2040   -0.3783   -8.4608 C.ar     1 ZINC000003831996   -0.1300
28     C28     2.2916   -1.5494   -7.7317 C.ar     1 ZINC000003831996   -0.1000
29     C29     3.3223   -2.2818   -4.7911 C.3      1 ZINC000003831996    0.0600
30     H30     3.2422   -1.2053   -4.9564 H        1 ZINC000003831996    0.0800
31     O31     3.9280   -2.8415   -5.9674 O.3      1 ZINC000003831996   -0.5500
32     C32     4.2368   -2.5522   -3.6160 C.3      1 ZINC000003831996    0.0800
33     H33     4.4670   -3.6239   -3.5798 H        1 ZINC000003831996    0.0700
34     O34     5.4678   -1.8407   -3.8039 O.3      1 ZINC000003831996   -0.5400
35     C35     3.6083   -2.1290   -2.2892 C.3      1 ZINC000003831996    0.1600
36     H36     4.4132   -2.0633   -1.5369 H        1 ZINC000003831996    0.0900
37     C37     2.9514   -0.7561   -2.3902 C.3      1 ZINC000003831996   -0.1100
38     C38     4.0118    0.2939   -2.5998 C.ar     1 ZINC000003831996   -0.0600
39     C39     4.7141    0.7925   -1.5186 C.ar     1 ZINC000003831996   -0.1200
40     C40     5.6867    1.7557   -1.7108 C.ar     1 ZINC000003831996   -0.1200
41     C41     5.9575    2.2201   -2.9844 C.ar     1 ZINC000003831996   -0.1200
42     C42     5.2558    1.7208   -4.0658 C.ar     1 ZINC000003831996   -0.1200
43     C43     4.2861    0.7545   -3.8740 C.ar     1 ZINC000003831996   -0.1000
44     C44     1.0381   -0.9538    0.1044 C.ar     1 ZINC000003831996   -0.1900
45     H45     0.7369    1.5342    0.8139 H        1 ZINC000003831996    0.4000
46     H46    -0.9314    1.6238    0.6372 H        1 ZINC000003831996    0.4000
47     H47    -2.2863   -0.3267    0.1685 H        1 ZINC000003831996    0.1200
48     H48    -2.3434   -2.7085   -0.4482 H        1 ZINC000003831996    0.1200
49     H49    -0.2436   -3.9657   -0.7076 H        1 ZINC000003831996    0.1300
50     H50     3.0762   -2.5719    0.1651 H        1 ZINC000003831996    0.0800
51     H51     2.1454   -4.0782   -0.0163 H        1 ZINC000003831996    0.1100
52     H52     2.0291   -5.2927   -5.5981 H        1 ZINC000003831996    0.0900
53     H53     2.3246   -6.1545   -4.0690 H        1 ZINC000003831996    0.0800
54     H54     0.4212   -6.5628   -2.5089 H        1 ZINC000003831996    0.1400
55     H55    -1.9604   -7.1697   -2.3818 H        1 ZINC000003831996    0.1200
56     H56    -3.4552   -6.7013   -4.2800 H        1 ZINC000003831996    0.1100
57     H57    -3.7061   -5.7314   -6.4837 H        1 ZINC000003831996    0.4000
58     H58    -2.3901   -5.2028   -7.3845 H        1 ZINC000003831996    0.4000
59     H59    -0.1718   -5.0077   -6.4348 H        1 ZINC000003831996    0.1200
60     H60     2.0447   -3.8636   -6.5652 H        1 ZINC000003831996    0.0900
61     H61     0.3885   -3.6120   -5.9635 H        1 ZINC000003831996    0.1000
62     H62    -0.5845   -1.3145   -5.9850 H        1 ZINC000003831996    0.1200
63     H63    -0.7369    0.7753   -7.2784 H        1 ZINC000003831996    0.1200
64     H64     1.0487    1.3746   -8.8645 H        1 ZINC000003831996    0.1200
65     H65     2.9871   -0.1155   -9.1566 H        1 ZINC000003831996    0.1200
66     H66     3.1418   -2.2030   -7.8598 H        1 ZINC000003831996    0.1300
67     H67     4.8257   -2.5243   -6.1365 H        1 ZINC000003831996    0.3700
68     H68     5.9477   -2.0898   -4.6056 H        1 ZINC000003831996    0.3800
69     H69     2.2586   -0.7459   -3.2317 H        1 ZINC000003831996    0.0700
70     H70     2.4077   -0.5448   -1.4694 H        1 ZINC000003831996    0.1000
71     H71     4.5025    0.4297   -0.5236 H        1 ZINC000003831996    0.1200
72     H72     6.2349    2.1457   -0.8660 H        1 ZINC000003831996    0.1200
73     H73     6.7169    2.9731   -3.1345 H        1 ZINC000003831996    0.1200
74     H74     5.4671    2.0839   -5.0608 H        1 ZINC000003831996    0.1200
75     H75     3.7379    0.3645   -4.7189 H        1 ZINC000003831996    0.1100
76     H76     1.9874   -0.4633    0.2610 H        1 ZINC000003831996    0.1200
@<TRIPOS>BOND
1     1     2     1
2     1     45    1
3     1     46    1
4     2     44    ar
5     2     3     ar
6     3     4     ar
7     3     47    1
8     4     5     ar
9     4     48    1
10    5     6     ar
11    5     49    1
12    6     7     1
13    6     44    ar
14    7     8     1
15    7     50    1
16    7     51    1
17    8     35    1
18    8     9     am
19    9     10    2
20    9     11    am
21    11    12    1
22    11    20    1
23    12    13    1
24    12    52    1
25    12    53    1
26    13    19    ar
27    13    14    ar
28    14    15    ar
29    14    54    1
30    15    16    ar
31    15    55    1
32    16    17    ar
33    16    56    1
34    17    18    1
35    17    19    ar
36    18    57    1
37    18    58    1
38    19    59    1
39    20    21    1
40    20    22    1
41    20    29    1
42    22    23    1
43    22    60    1
44    22    61    1
45    23    28    ar
46    23    24    ar
47    24    25    ar
48    24    62    1
49    25    26    ar
50    25    63    1
51    26    27    ar
52    26    64    1
53    27    28    ar
54    27    65    1
55    28    66    1
56    29    30    1
57    29    31    1
58    29    32    1
59    31    67    1
60    32    33    1
61    32    34    1
62    32    35    1
63    34    68    1
64    35    36    1
65    35    37    1
66    37    38    1
67    37    69    1
68    37    70    1
69    38    43    ar
70    38    39    ar
71    39    40    ar
72    39    71    1
73    40    41    ar
74    40    72    1
75    41    42    ar
76    41    73    1
77    42    43    ar
78    42    74    1
79    43    75    1
80    44    76    1
@<TRIPOS>SUBSTRUCTURE
1   ZINC000003831996 1     RESIDUE    1   A     ZIN   1
