@<TRIPOS>MOLECULE
ZINC000001915835
39    40    1     0     0
SMALL
USER_CHARGES
@<TRIPOS>ATOM
1      C1      0.1929    1.9114   -2.8950 C.3      1 ZINC000001915835   -0.1500
2      C2     -0.0654    0.7126   -1.9802 C.3      1 ZINC000001915835    0.0500
3      O3      0.8383   -0.3434   -2.3122 O.3      1 ZINC000001915835   -0.3700
4      C4      0.7593   -1.4720   -1.4393 C.3      1 ZINC000001915835    0.2600
5      N5     -0.4107   -2.2805   -1.7911 N.am     1 ZINC000001915835   -0.5400
6      C6     -1.5068   -2.2466   -1.0110 C.2      1 ZINC000001915835    0.7000
7      O7     -1.5143   -1.5433   -0.0192 O.2      1 ZINC000001915835   -0.5300
8      N8     -2.5945   -2.9787   -1.3123 N.am     1 ZINC000001915835   -0.6600
9      C9     -2.6103   -3.7657   -2.4060 C.2      1 ZINC000001915835    0.5600
10     O10    -3.6002   -4.4258   -2.6722 O.2      1 ZINC000001915835   -0.4900
11     C11    -1.4809   -3.8208   -3.2371 C.2      1 ZINC000001915835   -0.1800
12     C12    -1.4777   -4.6943   -4.4651 C.3      1 ZINC000001915835   -0.0600
13     C13    -1.0747   -6.1183   -4.0770 C.3      1 ZINC000001915835   -0.1400
14     C14    -0.3851   -3.0658   -2.9198 C.2      1 ZINC000001915835    0.1300
15     S15     1.0505   -3.1093   -3.9404 S.3      1 ZINC000001915835    0.0900
16     C16     2.1613   -3.9608   -2.8700 C.ar     1 ZINC000001915835   -0.1200
17     C17     1.7020   -4.4955   -1.6728 C.ar     1 ZINC000001915835   -0.1300
18     C18     2.5751   -5.1627   -0.8364 C.ar     1 ZINC000001915835   -0.1000
19     C19     3.9054   -5.2988   -1.1894 C.ar     1 ZINC000001915835   -0.1100
20     C20     4.3659   -4.7677   -2.3804 C.ar     1 ZINC000001915835   -0.1000
21     C21     3.4971   -4.1040   -3.2240 C.ar     1 ZINC000001915835   -0.0900
22     H22     1.2185    2.2556   -2.7620 H        1 ZINC000001915835    0.0700
23     H23     0.0406    1.6158   -3.9330 H        1 ZINC000001915835    0.0600
24     H24    -0.4964    2.7169   -2.6417 H        1 ZINC000001915835    0.0700
25     H25     0.0869    1.0082   -0.9421 H        1 ZINC000001915835    0.0600
26     H26    -1.0911    0.3684   -2.1132 H        1 ZINC000001915835    0.0500
27     H27     1.6616   -2.0748   -1.5421 H        1 ZINC000001915835    0.1300
28     H28     0.6671   -1.1287   -0.4089 H        1 ZINC000001915835    0.1100
29     H29    -3.3744   -2.9400   -0.7368 H        1 ZINC000001915835    0.4300
30     H30    -2.4747   -4.7060   -4.9053 H        1 ZINC000001915835    0.0900
31     H31    -0.7652   -4.2998   -5.1897 H        1 ZINC000001915835    0.0900
32     H32    -1.0724   -6.7501   -4.9652 H        1 ZINC000001915835    0.0700
33     H33    -0.0776   -6.1066   -3.6368 H        1 ZINC000001915835    0.0500
34     H34    -1.7872   -6.5128   -3.3524 H        1 ZINC000001915835    0.0600
35     H35     0.6634   -4.3892   -1.3964 H        1 ZINC000001915835    0.1200
36     H36     2.2189   -5.5783    0.0945 H        1 ZINC000001915835    0.1300
37     H37     4.5862   -5.8208   -0.5333 H        1 ZINC000001915835    0.1300
38     H38     5.4054   -4.8755   -2.6529 H        1 ZINC000001915835    0.1300
39     H39     3.8572   -3.6898   -4.1541 H        1 ZINC000001915835    0.1300
@<TRIPOS>BOND
1     1     2     1
2     1     22    1
3     1     23    1
4     1     24    1
5     2     3     1
6     2     25    1
7     2     26    1
8     3     4     1
9     4     5     1
10    4     27    1
11    4     28    1
12    5     14    1
13    5     6     am
14    6     7     2
15    6     8     am
16    8     9     am
17    8     29    1
18    9     10    2
19    9     11    1
20    11    12    1
21    11    14    2
22    12    13    1
23    12    30    1
24    12    31    1
25    13    32    1
26    13    33    1
27    13    34    1
28    14    15    1
29    15    16    1
30    16    21    ar
31    16    17    ar
32    17    18    ar
33    17    35    1
34    18    19    ar
35    18    36    1
36    19    20    ar
37    19    37    1
38    20    21    ar
39    20    38    1
40    21    39    1
@<TRIPOS>SUBSTRUCTURE
1   ZINC000001915835 1     RESIDUE    1   A     ZIN   1
