@<TRIPOS>MOLECULE
ZINC000040829484
  16   15    0    0    0
SMALL
USER_CHARGES
NO_NAME
@<TRIPOS>ATOM
    1 N1       -0.0178     1.4648     0.0101 N.3    1 <0>      -0.8500
    2 C2        0.0021    -0.0041     0.0020 C.3    1 <0>       0.0400
    3 C3        0.8260    -0.5095     1.1880 C.3    1 <0>       0.1000
    4 H4        1.8454    -0.1318     1.1095 H      1 <0>       0.0900
    5 F5        0.2519    -0.0574     2.3811 F      1 <0>      -0.2100
    6 C6        0.8467    -2.0393     1.1796 C.3    1 <0>      -0.7600
    7 P7        1.9481    -2.6394     2.5026 P.3    1 <0>       2.2100
    8 H8        1.4729    -2.1793     3.7591 H      1 <0>      -0.4700
    9 O9        3.3777    -2.1036     2.2651 O.co2  1 <0>      -1.0700
   10 O10       1.9691    -4.1842     2.4941 O.co2  1 <0>      -1.0700
   11 H11       0.9191     1.8392     0.0032 H      1 <0>       0.3400
   12 H12      -0.5563     1.8234    -0.7642 H      1 <0>       0.3400
   13 H13      -1.0174    -0.3817     0.0806 H      1 <0>       0.0800
   14 H14       0.4494    -0.3563    -0.9275 H      1 <0>       0.0400
   15 H15      -0.1618    -2.4173     1.3472 H      1 <0>       0.0800
   16 H16       1.2115    -2.3924     0.2151 H      1 <0>       0.1100
@<TRIPOS>BOND
   1    1    2 1
   2    1   11 1
   3    1   12 1
   4    2    3 1
   5    2   13 1
   6    2   14 1
   7    3    4 1
   8    3    5 1
   9    3    6 1
  10    6    7 1
  11    6   15 1
  12    6   16 1
  13    7    8 1
  14    7    9 ar
  15    7   10 ar
