@<TRIPOS>MOLECULE
ZINC000001543478
27    27    1     0     0
SMALL
USER_CHARGES
@<TRIPOS>ATOM
1      C1     -0.0178    1.4648    0.0101 C.3      1 ZINC000001543478   -0.0500
2      N2      0.0021   -0.0041    0.0020 N.4      1 ZINC000001543478   -0.5100
3      H3     -0.9445   -0.3533    0.0092 H        1 ZINC000001543478    0.4300
4      H4      0.4744   -0.3295   -0.8281 H        1 ZINC000001543478    0.4300
5      C5      0.7126   -0.4907    1.1921 C.3      1 ZINC000001543478   -0.0100
6      C6      0.7333   -2.0205    1.1837 C.3      1 ZINC000001543478   -0.1100
7      C7      1.4622   -2.5197    2.4046 C.2      1 ZINC000001543478   -0.1800
8      C8      0.8698   -3.3742    3.2270 C.2      1 ZINC000001543478   -0.0600
9      C9      1.5847   -3.8638    4.4246 C.ar     1 ZINC000001543478   -0.1300
10     C10     0.9728   -4.7702    5.2973 C.ar     1 ZINC000001543478   -0.0600
11     C11     1.6853   -5.1983    6.4041 C.ar     1 ZINC000001543478   -0.1700
12     C12     2.9668   -4.7212    6.6101 C.ar     1 ZINC000001543478    0.1100
13     N13     3.5185   -3.8664    5.7702 N.ar     1 ZINC000001543478   -0.4800
14     C14     2.8834   -3.4344    4.7005 C.ar     1 ZINC000001543478    0.1100
15     H15     1.0047    1.8421    0.0024 H        1 ZINC000001543478    0.1200
16     H16    -0.5450    1.8259   -0.8730 H        1 ZINC000001543478    0.1300
17     H17    -0.5280    1.8163    0.9069 H        1 ZINC000001543478    0.1200
18     H18     1.7352   -0.1134    1.1844 H        1 ZINC000001543478    0.1300
19     H19     0.2024   -0.1392    2.0889 H        1 ZINC000001543478    0.1300
20     H20    -0.2893   -2.3978    1.1914 H        1 ZINC000001543478    0.0900
21     H21     1.2435   -2.3721    0.2869 H        1 ZINC000001543478    0.1000
22     H22     2.4671   -2.1814    2.6095 H        1 ZINC000001543478    0.1300
23     H23    -0.1351   -3.7125    3.0221 H        1 ZINC000001543478    0.1300
24     H24    -0.0298   -5.1264    5.1123 H        1 ZINC000001543478    0.1400
25     H25     1.2448   -5.8973    7.0996 H        1 ZINC000001543478    0.1400
26     H26     3.5250   -5.0536    7.4729 H        1 ZINC000001543478    0.1600
27     H27     3.3683   -2.7344    4.0362 H        1 ZINC000001543478    0.1600
@<TRIPOS>BOND
1     1     2     1
2     1     15    1
3     1     16    1
4     1     17    1
5     2     3     1
6     2     4     1
7     2     5     1
8     5     6     1
9     5     18    1
10    5     19    1
11    6     7     1
12    6     20    1
13    6     21    1
14    7     8     2
15    7     22    1
16    8     9     1
17    8     23    1
18    9     14    ar
19    9     10    ar
20    10    11    ar
21    10    24    1
22    11    12    ar
23    11    25    1
24    12    13    ar
25    12    26    1
26    13    14    ar
27    14    27    1
@<TRIPOS>SUBSTRUCTURE
1   ZINC000001543478 1     RESIDUE    1   A     ZIN   1
