@<TRIPOS>MOLECULE
ZINC000040891968
  36   39    0    0    0
SMALL
USER_CHARGES
NO_NAME
@<TRIPOS>ATOM
    1 C1       -0.0173     1.4248     0.0099 C.3    1 <0>       0.0300
    2 O2        0.0021    -0.0041     0.0020 O.3    1 <0>      -0.3100
    3 C3        0.6260    -0.6186     1.0418 C.ar   1 <0>       0.1500
    4 C4        1.2028     0.1452     2.0524 C.ar   1 <0>      -0.2000
    5 C5        1.8336    -0.4555     3.1044 C.ar   1 <0>      -0.0200
    6 C6        1.9034    -1.8493     3.1725 C.ar   1 <0>       0.0200
    7 N7        2.4476    -2.7162     4.0660 N.2    1 <0>      -0.4700
    8 C8        2.2421    -3.9382     3.6708 C.2    1 <0>       0.2800
    9 C9        2.7003    -5.1717     4.4053 C.3    1 <0>       0.1400
   10 O10       2.2986    -6.3351     3.6793 O.3    1 <0>      -0.3000
   11 C11       2.6363    -7.5411     4.2097 C.ar   1 <0>       0.1600
   12 C12       3.3341    -7.6010     5.4060 C.ar   1 <0>      -0.1800
   13 C13       3.6783    -8.8293     5.9465 C.ar   1 <0>       0.0800
   14 C14       3.3218   -10.0024     5.2866 C.ar   1 <0>       0.0100
   15 C15       2.6243    -9.9384     4.0913 C.ar   1 <0>      -0.0500
   16 C16       2.2771    -8.7115     3.5560 C.ar   1 <0>      -0.0600
   17 Cl17      1.4026    -8.6350     2.0583 Cl     1 <0>      -0.0400
   18 O18       3.7718   -11.0667     6.0152 O.3    1 <0>      -0.3000
   19 C19       4.7596   -10.5274     6.9133 C.3    1 <0>       0.2100
   20 O20       4.3512    -9.1579     7.0882 O.3    1 <0>      -0.3000
   21 N21       1.5522    -3.9404     2.4971 N.pl3  1 <0>      -0.5800
   22 C22       1.3216    -2.6232     2.1539 C.ar   1 <0>       0.0900
   23 C23       0.6795    -2.0000     1.0931 C.ar   1 <0>      -0.1600
   24 H24       1.0053     1.8021     0.0021 H      1 <0>       0.0600
   25 H25      -0.5445     1.7859    -0.8732 H      1 <0>       0.1000
   26 H26      -0.5275     1.7763     0.9067 H      1 <0>       0.0600
   27 H27       1.1514     1.2229     2.0041 H      1 <0>       0.1400
   28 H28       2.2785     0.1464     3.8829 H      1 <0>       0.1400
   29 H29       3.7864    -5.1576     4.4968 H      1 <0>       0.1100
   30 H30       2.2522    -5.1906     5.3987 H      1 <0>       0.1100
   31 H31       3.6098    -6.6900     5.9165 H      1 <0>       0.1600
   32 H32       2.3478   -10.8481     3.5789 H      1 <0>       0.1600
   33 H33       4.7412   -11.0572     7.8658 H      1 <0>       0.1400
   34 H34       5.7521   -10.5769     6.4655 H      1 <0>       0.0900
   35 H35       1.2746    -4.7225     1.9948 H      1 <0>       0.4300
   36 H36       0.2271    -2.5903     0.3100 H      1 <0>       0.1300
@<TRIPOS>BOND
   1    1    2 1
   2    1   24 1
   3    1   25 1
   4    1   26 1
   5    2    3 1
   6    3   23 ar
   7    3    4 ar
   8    4    5 ar
   9    4   27 1
  10    5    6 ar
  11    5   28 1
  12    6   22 ar
  13    6    7 1
  14    7    8 2
  15    8    9 1
  16    8   21 1
  17    9   10 1
  18    9   29 1
  19    9   30 1
  20   10   11 1
  21   11   16 ar
  22   11   12 ar
  23   12   13 ar
  24   12   31 1
  25   13   20 1
  26   13   14 ar
  27   14   15 ar
  28   14   18 1
  29   15   16 ar
  30   15   32 1
  31   16   17 1
  32   18   19 1
  33   19   20 1
  34   19   33 1
  35   19   34 1
  36   21   22 1
  37   21   35 1
  38   22   23 ar
  39   23   36 1
