@<TRIPOS>MOLECULE
ZINC000003875348
59    62    1     0     0
SMALL
USER_CHARGES
@<TRIPOS>ATOM
1      C1     -0.3497    1.8885   -2.7046 C.3      1 ZINC000003875348   -0.1500
2      C2     -0.2775    0.3850   -2.6320 C.2      1 ZINC000003875348    0.4600
3      O3      0.7247   -0.1896   -2.9859 O.2      1 ZINC000003875348   -0.5100
4      O4     -1.3267   -0.3160   -2.1741 O.3      1 ZINC000003875348   -0.3400
5      C5     -1.1866   -1.7606   -2.1320 C.3      1 ZINC000003875348    0.0100
6      C6     -2.4543   -2.3728   -1.5944 C.2      1 ZINC000003875348    0.3300
7      O7     -3.3804   -1.6647   -1.2792 O.2      1 ZINC000003875348   -0.4000
8      C8     -2.5664   -3.8687   -1.4501 C.3      1 ZINC000003875348    0.1100
9      O9     -1.6415   -4.5203   -2.3230 O.3      1 ZINC000003875348   -0.5400
10     C10    -2.3072   -4.2871    0.0187 C.3      1 ZINC000003875348   -0.1400
11     C11    -3.5741   -5.0547    0.4857 C.3      1 ZINC000003875348   -0.1100
12     C12    -4.1750   -5.5583   -0.8312 C.3      1 ZINC000003875348   -0.0800
13     H13    -3.6032   -6.4056   -1.2096 H        1 ZINC000003875348    0.0800
14     C14    -5.6549   -5.8943   -0.7961 C.3      1 ZINC000003875348   -0.0800
15     H15    -6.2237   -5.0182   -0.4848 H        1 ZINC000003875348    0.1000
16     C16    -5.9038   -7.0449    0.1808 C.3      1 ZINC000003875348   -0.1100
17     C17    -7.4027   -7.3560    0.2408 C.3      1 ZINC000003875348   -0.0900
18     C18    -7.8834   -7.6326   -1.1714 C.2      1 ZINC000003875348   -0.0200
19     C19    -8.5642   -8.7445   -1.4119 C.2      1 ZINC000003875348   -0.2300
20     C20    -9.0288   -9.0575   -2.7722 C.2      1 ZINC000003875348    0.4100
21     O21    -9.6880  -10.0568   -2.9900 O.2      1 ZINC000003875348   -0.4600
22     C22    -8.6783   -8.1336   -3.8642 C.2      1 ZINC000003875348   -0.2200
23     C23    -8.0035   -7.0259   -3.5996 C.2      1 ZINC000003875348   -0.0600
24     C24    -7.5635   -6.6232   -2.2339 C.3      1 ZINC000003875348   -0.0100
25     C25    -8.2840   -5.3222   -1.8745 C.3      1 ZINC000003875348   -0.1400
26     C26    -6.0670   -6.3013   -2.2198 C.3      1 ZINC000003875348   -0.0500
27     H27    -5.5058   -7.1926   -2.5002 H        1 ZINC000003875348    0.0800
28     C28    -5.7803   -5.1903   -3.2258 C.3      1 ZINC000003875348    0.1100
29     H29    -6.0007   -5.5538   -4.2295 H        1 ZINC000003875348    0.0600
30     O30    -6.6238   -4.0729   -2.9393 O.3      1 ZINC000003875348   -0.5400
31     C31    -4.3130   -4.7368   -3.1677 C.3      1 ZINC000003875348   -0.1300
32     C32    -3.9902   -4.3237   -1.7539 C.3      1 ZINC000003875348   -0.0400
33     C33    -4.9897   -3.2657   -1.2820 C.3      1 ZINC000003875348   -0.1500
34     H34     0.5888    2.2787   -3.0984 H        1 ZINC000003875348    0.1000
35     H35    -1.1690    2.1816   -3.3611 H        1 ZINC000003875348    0.1000
36     H36    -0.5212    2.2926   -1.7069 H        1 ZINC000003875348    0.1000
37     H37    -0.9994   -2.1369   -3.1377 H        1 ZINC000003875348    0.1100
38     H38    -0.3516   -2.0259   -1.4835 H        1 ZINC000003875348    0.1000
39     H39    -0.7173   -4.2849   -2.1634 H        1 ZINC000003875348    0.3800
40     H40    -1.4342   -4.9374    0.0739 H        1 ZINC000003875348    0.0900
41     H41    -2.1557   -3.4033    0.6383 H        1 ZINC000003875348    0.0700
42     H42    -3.3027   -5.8907    1.1304 H        1 ZINC000003875348    0.0700
43     H43    -4.2664   -4.3834    0.9937 H        1 ZINC000003875348    0.0800
44     H44    -5.3630   -7.9295   -0.1554 H        1 ZINC000003875348    0.0700
45     H45    -5.5523   -6.7609    1.1727 H        1 ZINC000003875348    0.0700
46     H46    -7.5719   -8.2329    0.8657 H        1 ZINC000003875348    0.0800
47     H47    -7.9399   -6.5012    0.6518 H        1 ZINC000003875348    0.0900
48     H48    -8.7792   -9.4264   -0.6024 H        1 ZINC000003875348    0.1400
49     H49    -8.9709   -8.3596   -4.8789 H        1 ZINC000003875348    0.1400
50     H50    -7.7568   -6.3737   -4.4244 H        1 ZINC000003875348    0.1300
51     H51    -9.2968   -5.5480   -1.5407 H        1 ZINC000003875348    0.0400
52     H52    -7.7425   -4.8157   -1.0756 H        1 ZINC000003875348    0.0700
53     H53    -8.3260   -4.6760   -2.7513 H        1 ZINC000003875348    0.1000
54     H54    -6.5005   -3.3234   -3.5377 H        1 ZINC000003875348    0.3700
55     H55    -3.6572   -5.5676   -3.4280 H        1 ZINC000003875348    0.0800
56     H56    -4.1535   -3.9070   -3.8563 H        1 ZINC000003875348    0.0700
57     H57    -5.9752   -3.7189   -1.1752 H        1 ZINC000003875348    0.1000
58     H58    -4.6679   -2.8650   -0.3207 H        1 ZINC000003875348    0.0600
59     H59    -5.0379   -2.4594   -2.0139 H        1 ZINC000003875348    0.0600
@<TRIPOS>BOND
1     1     2     1
2     1     34    1
3     1     35    1
4     1     36    1
5     2     3     2
6     2     4     1
7     4     5     1
8     5     6     1
9     5     37    1
10    5     38    1
11    6     7     2
12    6     8     1
13    8     32    1
14    8     9     1
15    8     10    1
16    9     39    1
17    10    11    1
18    10    40    1
19    10    41    1
20    11    12    1
21    11    42    1
22    11    43    1
23    12    13    1
24    12    32    1
25    12    14    1
26    14    15    1
27    14    26    1
28    14    16    1
29    16    17    1
30    16    44    1
31    16    45    1
32    17    18    1
33    17    46    1
34    17    47    1
35    18    24    1
36    18    19    2
37    19    20    1
38    19    48    1
39    20    21    2
40    20    22    1
41    22    23    2
42    22    49    1
43    23    24    1
44    23    50    1
45    24    25    1
46    24    26    1
47    25    51    1
48    25    52    1
49    25    53    1
50    26    27    1
51    26    28    1
52    28    29    1
53    28    30    1
54    28    31    1
55    30    54    1
56    31    32    1
57    31    55    1
58    31    56    1
59    32    33    1
60    33    57    1
61    33    58    1
62    33    59    1
@<TRIPOS>SUBSTRUCTURE
1   ZINC000003875348 1     RESIDUE    1   A     ZIN   1
