@<TRIPOS>MOLECULE
ZINC000003995455
54    55    1     0     0
SMALL
USER_CHARGES
@<TRIPOS>ATOM
1      C1     -0.0194    1.5268   -0.0024 C.3      1 ZINC000003995455   -0.1900
2      C2      0.0019   -0.0030   -0.0145 C.3      1 ZINC000003995455    0.0300
3      H3      0.5061   -0.3522   -0.9156 H        1 ZINC000003995455    0.1400
4      C4     -1.4331   -0.5332    0.0049 C.3      1 ZINC000003995455   -0.1500
5      C5     -1.4158   -2.0569   -0.1329 C.3      1 ZINC000003995455   -0.1300
6      C6     -2.8509   -2.5871   -0.1135 C.3      1 ZINC000003995455   -0.1100
7      C7     -2.8335   -4.1108   -0.2513 C.3      1 ZINC000003995455   -0.1400
8      C8     -4.2470   -4.6330   -0.2322 C.2      1 ZINC000003995455    0.5100
9      O9     -5.1768   -3.8624   -0.1195 O.2      1 ZINC000003995455   -0.5100
10     N10    -4.4780   -5.9564   -0.3404 N.am     1 ZINC000003995455   -0.6700
11     C11    -5.7820   -6.4507   -0.2256 C.ar     1 ZINC000003995455    0.1700
12     C12    -6.0095   -7.6794    0.3804 C.ar     1 ZINC000003995455   -0.1400
13     C13    -7.2978   -8.1645    0.4921 C.ar     1 ZINC000003995455   -0.0500
14     C14    -8.3604   -7.4284    0.0010 C.ar     1 ZINC000003995455   -0.1900
15     C15    -9.7648   -7.9610    0.1242 C.3      1 ZINC000003995455    0.5100
16     F16   -10.3242   -7.5266    1.3306 F        1 ZINC000003995455   -0.1700
17     F17   -10.5370   -7.4915   -0.9437 F        1 ZINC000003995455   -0.1700
18     F18    -9.7369   -9.3596    0.1000 F        1 ZINC000003995455   -0.1700
19     C19    -8.1372   -6.2044   -0.6025 C.ar     1 ZINC000003995455   -0.0500
20     C20    -6.8519   -5.7111   -0.7122 C.ar     1 ZINC000003995455   -0.1200
21     N21     0.7207   -0.4922    1.1696 N.4      1 ZINC000003995455   -0.5100
22     H22     0.3033   -0.1022    2.0013 H        1 ZINC000003995455    0.4300
23     H23     0.6642   -1.4990    1.2052 H        1 ZINC000003995455    0.4300
24     C24     2.1295   -0.0833    1.0908 C.3      1 ZINC000003995455   -0.0100
25     C25     2.8781   -0.5927    2.3241 C.3      1 ZINC000003995455   -0.0800
26     C26     4.3233   -0.1732    2.2433 C.2      1 ZINC000003995455    0.0300
27     C27     5.3109   -0.8172    1.5926 C.2      1 ZINC000003995455    0.0300
28     N28     6.4442   -0.1206    1.7645 N.pl3    1 ZINC000003995455   -0.4700
29     H29     7.3111   -0.3602    1.4014 H        1 ZINC000003995455    0.4700
30     C30     6.1963    0.9306    2.4970 C.cat    1 ZINC000003995455    0.3300
31     N31     4.8832    0.9388    2.8122 N.pl3    1 ZINC000003995455   -0.5100
32     H32     1.0030    1.9045   -0.0162 H        1 ZINC000003995455    0.0800
33     H33    -0.5527    1.8897   -0.8810 H        1 ZINC000003995455    0.1100
34     H34    -0.5236    1.8760    0.8987 H        1 ZINC000003995455    0.0900
35     H35    -1.9091   -0.2589    0.9463 H        1 ZINC000003995455    0.0900
36     H36    -1.9919   -0.0997   -0.8246 H        1 ZINC000003995455    0.1200
37     H37    -0.9398   -2.3312   -1.0743 H        1 ZINC000003995455    0.0800
38     H38    -0.8570   -2.4904    0.6965 H        1 ZINC000003995455    0.0600
39     H39    -3.3268   -2.3128    0.8279 H        1 ZINC000003995455    0.0800
40     H40    -3.4096   -2.1536   -0.9430 H        1 ZINC000003995455    0.0800
41     H41    -2.3575   -4.3851   -1.1927 H        1 ZINC000003995455    0.1000
42     H42    -2.2748   -4.5443    0.5782 H        1 ZINC000003995455    0.1000
43     H43    -3.7403   -6.5663   -0.4978 H        1 ZINC000003995455    0.4200
44     H44    -5.1800   -8.2551    0.7635 H        1 ZINC000003995455    0.1400
45     H45    -7.4755   -9.1200    0.9632 H        1 ZINC000003995455    0.1400
46     H46    -8.9692   -5.6319   -0.9850 H        1 ZINC000003995455    0.1400
47     H47    -6.6782   -4.7551   -1.1836 H        1 ZINC000003995455    0.1500
48     H48     2.5804   -0.5045    0.1923 H        1 ZINC000003995455    0.1400
49     H49     2.1905    1.0043    1.0523 H        1 ZINC000003995455    0.1400
50     H50     2.4272   -0.1714    3.2226 H        1 ZINC000003995455    0.1200
51     H51     2.8171   -1.6803    2.3626 H        1 ZINC000003995455    0.1300
52     H52     5.2085   -1.7339    1.0308 H        1 ZINC000003995455    0.2300
53     H53     6.9205    1.6732    2.7978 H        1 ZINC000003995455    0.2700
54     H54     4.4238    1.6048    3.3473 H        1 ZINC000003995455    0.4700
@<TRIPOS>BOND
1     1     2     1
2     1     32    1
3     1     33    1
4     1     34    1
5     2     3     1
6     2     4     1
7     2     21    1
8     4     5     1
9     4     35    1
10    4     36    1
11    5     6     1
12    5     37    1
13    5     38    1
14    6     7     1
15    6     39    1
16    6     40    1
17    7     8     1
18    7     41    1
19    7     42    1
20    8     9     2
21    8     10    am
22    10    11    1
23    10    43    1
24    11    20    ar
25    11    12    ar
26    12    13    ar
27    12    44    1
28    13    14    ar
29    13    45    1
30    14    15    1
31    14    19    ar
32    15    16    1
33    15    17    1
34    15    18    1
35    19    20    ar
36    19    46    1
37    20    47    1
38    21    22    1
39    21    23    1
40    21    24    1
41    24    25    1
42    24    48    1
43    24    49    1
44    25    26    1
45    25    50    1
46    25    51    1
47    26    31    1
48    26    27    2
49    27    28    1
50    27    52    1
51    28    29    1
52    28    30    ar
53    30    31    ar
54    30    53    1
55    31    54    1
@<TRIPOS>SUBSTRUCTURE
1   ZINC000003995455 1     RESIDUE    1   A     ZIN   1
