@<TRIPOS>MOLECULE
ZINC000003784128
57    61    1     0     0
SMALL
USER_CHARGES
@<TRIPOS>ATOM
1      C1      5.8323    2.1273   -4.9665 C.3      1 ZINC000003784128   -0.1500
2      C2      4.4949    1.4324   -5.2299 C.3      1 ZINC000003784128    0.0600
3      O3      4.5384    0.1024   -4.7091 O.3      1 ZINC000003784128   -0.3700
4      C4      3.3317   -0.6378   -4.9038 C.3      1 ZINC000003784128    0.0800
5      H5      2.4707    0.0301   -4.9270 H        1 ZINC000003784128    0.0800
6      C6      3.4083   -1.4801   -6.2046 C.3      1 ZINC000003784128   -0.1500
7      C7      2.4257   -2.6345   -5.8859 C.3      1 ZINC000003784128    0.1000
8      N8      2.6260   -2.9157   -4.4526 N.am     1 ZINC000003784128   -0.6100
9      C9      2.3589   -4.0843   -3.8366 C.2      1 ZINC000003784128    0.6000
10     O10     2.6464   -4.2334   -2.6642 O.2      1 ZINC000003784128   -0.5200
11     C11     1.7190   -5.1806   -4.5830 C.2      1 ZINC000003784128   -0.2200
12     C12     2.4601   -5.9410   -5.4853 C.2      1 ZINC000003784128    0.2500
13     C13     3.8841   -5.6408   -5.7223 C.ar     1 ZINC000003784128   -0.0800
14     C14     4.6488   -4.9385   -4.7945 C.ar     1 ZINC000003784128   -0.0800
15     C15     5.9803   -4.6830   -5.0644 C.ar     1 ZINC000003784128   -0.0400
16     Cl16    6.9425   -3.8085   -3.9142 Cl       1 ZINC000003784128   -0.0500
17     C17     6.5504   -5.1218   -6.2478 C.ar     1 ZINC000003784128   -0.0800
18     C18     5.7936   -5.8216   -7.1746 C.ar     1 ZINC000003784128   -0.1000
19     C19     4.4699   -6.0813   -6.9181 C.ar     1 ZINC000003784128   -0.0600
20     C20     3.6051   -6.8380   -7.8976 C.3      1 ZINC000003784128   -0.1000
21     C21     2.6893   -7.7741   -7.0941 C.3      1 ZINC000003784128    0.0900
22     N22     1.8762   -6.9691   -6.1727 N.am     1 ZINC000003784128   -0.4900
23     C23     0.5706   -7.2494   -6.0114 C.2      1 ZINC000003784128    0.5300
24     O24     0.0645   -8.1555   -6.6504 O.2      1 ZINC000003784128   -0.5200
25     C25    -0.2221   -6.5018   -5.1055 C.2      1 ZINC000003784128   -0.1600
26     C26    -1.6567   -6.8251   -4.9275 C.ar     1 ZINC000003784128   -0.0300
27     C27    -2.0355   -8.0500   -4.3786 C.ar     1 ZINC000003784128   -0.0900
28     C28    -3.3734   -8.3454   -4.2154 C.ar     1 ZINC000003784128   -0.1200
29     C29    -4.3383   -7.4296   -4.5953 C.ar     1 ZINC000003784128   -0.1200
30     C30    -3.9688   -6.2131   -5.1408 C.ar     1 ZINC000003784128   -0.1200
31     C31    -2.6340   -5.9034   -5.3029 C.ar     1 ZINC000003784128   -0.1000
32     C32     0.3539   -5.4716   -4.3850 C.2      1 ZINC000003784128    0.0200
33     C33     3.1637   -1.7073   -3.8039 C.3      1 ZINC000003784128    0.1100
34     H34     6.0178    2.1634   -3.8930 H        1 ZINC000003784128    0.0600
35     H35     6.6328    1.5718   -5.4551 H        1 ZINC000003784128    0.0600
36     H36     5.7991    3.1418   -5.3638 H        1 ZINC000003784128    0.0700
37     H37     3.6944    1.9879   -4.7413 H        1 ZINC000003784128    0.0500
38     H38     4.3094    1.3963   -6.3034 H        1 ZINC000003784128    0.0500
39     H39     3.0675   -0.9031   -7.0643 H        1 ZINC000003784128    0.0900
40     H40     4.4174   -1.8592   -6.3657 H        1 ZINC000003784128    0.0900
41     H41     1.3985   -2.3203   -6.0709 H        1 ZINC000003784128    0.0800
42     H42     2.6675   -3.5141   -6.4825 H        1 ZINC000003784128    0.0800
43     H43     4.2051   -4.5958   -3.8714 H        1 ZINC000003784128    0.1600
44     H44     7.5913   -4.9170   -6.4500 H        1 ZINC000003784128    0.1400
45     H45     6.2437   -6.1614   -8.0957 H        1 ZINC000003784128    0.1400
46     H46     3.0015   -6.1373   -8.4745 H        1 ZINC000003784128    0.1000
47     H47     4.2336   -7.4236   -8.5686 H        1 ZINC000003784128    0.1100
48     H48     2.0365   -8.3197   -7.7755 H        1 ZINC000003784128    0.1200
49     H49     3.2960   -8.4783   -6.5249 H        1 ZINC000003784128    0.0900
50     H50    -1.2832   -8.7660   -4.0823 H        1 ZINC000003784128    0.1200
51     H51    -3.6680   -9.2936   -3.7905 H        1 ZINC000003784128    0.1200
52     H52    -5.3842   -7.6655   -4.4659 H        1 ZINC000003784128    0.1200
53     H53    -4.7266   -5.5024   -5.4358 H        1 ZINC000003784128    0.1200
54     H54    -2.3467   -4.9533   -5.7285 H        1 ZINC000003784128    0.1200
55     H55    -0.2345   -4.8941   -3.6874 H        1 ZINC000003784128    0.1500
56     H56     4.1315   -1.9278   -3.3536 H        1 ZINC000003784128    0.0900
57     H57     2.4690   -1.3557   -3.0411 H        1 ZINC000003784128    0.0800
@<TRIPOS>BOND
1     1     2     1
2     1     34    1
3     1     35    1
4     1     36    1
5     2     3     1
6     2     37    1
7     2     38    1
8     3     4     1
9     4     5     1
10    4     33    1
11    4     6     1
12    6     7     1
13    6     39    1
14    6     40    1
15    7     8     1
16    7     41    1
17    7     42    1
18    8     9     am
19    8     33    1
20    9     10    2
21    9     11    1
22    11    32    1
23    11    12    2
24    12    22    1
25    12    13    1
26    13    19    ar
27    13    14    ar
28    14    15    ar
29    14    43    1
30    15    16    1
31    15    17    ar
32    17    18    ar
33    17    44    1
34    18    19    ar
35    18    45    1
36    19    20    1
37    20    21    1
38    20    46    1
39    20    47    1
40    21    22    1
41    21    48    1
42    21    49    1
43    22    23    am
44    23    24    2
45    23    25    1
46    25    26    1
47    25    32    2
48    26    31    ar
49    26    27    ar
50    27    28    ar
51    27    50    1
52    28    29    ar
53    28    51    1
54    29    30    ar
55    29    52    1
56    30    31    ar
57    30    53    1
58    31    54    1
59    32    55    1
60    33    56    1
61    33    57    1
@<TRIPOS>SUBSTRUCTURE
1   ZINC000003784128 1     RESIDUE    1   A     ZIN   1
