@<TRIPOS>MOLECULE
ZINC000034315595
67    70    1     0     0
SMALL
USER_CHARGES
@<TRIPOS>ATOM
1      C1     -0.0173    1.4248    0.0099 C.3      1 ZINC000034315595    0.0200
2      O2      0.0021   -0.0041    0.0020 O.3      1 ZINC000034315595   -0.3100
3      C3      0.6258   -0.6184    1.0415 C.ar     1 ZINC000034315595    0.1900
4      C4      1.2022    0.1384    2.0513 C.ar     1 ZINC000034315595   -0.2300
5      C5      1.8353   -0.4884    3.1070 C.ar     1 ZINC000034315595    0.0200
6      C6      1.8951   -1.8688    3.1577 C.ar     1 ZINC000034315595   -0.7300
7      S7      2.7038   -2.6653    4.5054 S.o2     1 ZINC000034315595    2.7000
8      O8      3.0893   -3.9510    4.0389 O.2      1 ZINC000034315595   -0.9500
9      O9      3.6254   -1.7219    5.0345 O.2      1 ZINC000034315595   -0.9500
10     N10     1.5649   -2.9166    5.6811 N.am     1 ZINC000034315595   -1.1200
11     C11     0.4427   -3.8246    5.4318 C.3      1 ZINC000034315595    0.1500
12     C12    -0.2271   -4.1659    6.7379 C.ar     1 ZINC000034315595   -0.0900
13     C13     0.2016   -5.2588    7.4685 C.ar     1 ZINC000034315595   -0.0300
14     C14    -0.4107   -5.5737    8.6660 C.ar     1 ZINC000034315595   -0.1700
15     C15     0.0570   -6.7650    9.4618 C.3      1 ZINC000034315595    0.0500
16     N16    -0.8471   -7.8981    9.2243 N.4      1 ZINC000034315595   -0.3900
17     H17    -1.8004   -7.6296    9.4174 H        1 ZINC000034315595    0.4300
18     C18    -0.7217   -8.3680    7.8209 C.3      1 ZINC000034315595   -0.0100
19     C19    -1.2510   -9.8228    7.8855 C.3      1 ZINC000034315595   -0.1400
20     C20    -0.7223  -10.3228    9.2494 C.3      1 ZINC000034315595   -0.1500
21     C21    -0.4591   -9.0465   10.0718 C.3      1 ZINC000034315595   -0.0100
22     C22    -1.4563   -4.7922    9.1358 C.ar     1 ZINC000034315595    0.1500
23     O23    -2.0601   -5.0998   10.3138 O.3      1 ZINC000034315595   -0.5000
24     C24    -1.8843   -3.6960    8.4011 C.ar     1 ZINC000034315595   -0.1700
25     C25    -3.0195   -2.8447    8.9086 C.3      1 ZINC000034315595    0.0500
26     N26    -2.5168   -1.9169    9.9306 N.4      1 ZINC000034315595   -0.3900
27     H27    -2.0349   -2.4259   10.6564 H        1 ZINC000034315595    0.4200
28     C28    -1.6058   -0.9194    9.3131 C.3      1 ZINC000034315595   -0.0100
29     C29    -1.6272    0.2541   10.3245 C.3      1 ZINC000034315595   -0.1500
30     C30    -3.0983    0.2746   10.7993 C.3      1 ZINC000034315595   -0.1500
31     C31    -3.6350   -1.1403   10.5087 C.3      1 ZINC000034315595   -0.0100
32     C32    -1.2655   -3.3824    7.2064 C.ar     1 ZINC000034315595   -0.0300
33     C33     1.3210   -2.6254    2.1528 C.ar     1 ZINC000034315595    0.0100
34     C34     0.6822   -2.0034    1.0976 C.ar     1 ZINC000034315595   -0.1700
35     H35     1.0053    1.8021    0.0021 H        1 ZINC000034315595    0.0700
36     H36    -0.5445    1.7859   -0.8732 H        1 ZINC000034315595    0.1100
37     H37    -0.5275    1.7763    0.9067 H        1 ZINC000034315595    0.0600
38     H38     1.1564    1.2167    2.0118 H        1 ZINC000034315595    0.1400
39     H39     2.2842    0.1003    3.8934 H        1 ZINC000034315595    0.1400
40     H40     1.6409   -2.4625    6.5349 H        1 ZINC000034315595    0.4200
41     H41    -0.2761   -3.3409    4.7704 H        1 ZINC000034315595    0.0900
42     H42     0.8109   -4.7371    4.9629 H        1 ZINC000034315595    0.1000
43     H43     1.0156   -5.8668    7.1024 H        1 ZINC000034315595    0.1500
44     H44     1.0668   -7.0348    9.1524 H        1 ZINC000034315595    0.1400
45     H45     0.0565   -6.5159   10.5230 H        1 ZINC000034315595    0.1400
46     H46    -1.3386   -7.7634    7.1561 H        1 ZINC000034315595    0.1300
47     H47     0.3203   -8.3516    7.5013 H        1 ZINC000034315595    0.1400
48     H48    -2.3407   -9.8380    7.8651 H        1 ZINC000034315595    0.1000
49     H49    -0.8405  -10.4191    7.0706 H        1 ZINC000034315595    0.1200
50     H50    -1.4724  -10.9413    9.7423 H        1 ZINC000034315595    0.1100
51     H51     0.2024  -10.8839    9.1141 H        1 ZINC000034315595    0.1100
52     H52     0.5990   -8.9794   10.3248 H        1 ZINC000034315595    0.1300
53     H53    -1.0608   -9.0596   10.9806 H        1 ZINC000034315595    0.1300
54     H54    -1.6582   -4.6755   11.0843 H        1 ZINC000034315595    0.4100
55     H55    -3.4463   -2.2775    8.0814 H        1 ZINC000034315595    0.1400
56     H56    -3.7868   -3.4845    9.3446 H        1 ZINC000034315595    0.1500
57     H57    -0.5990   -1.3258    9.2167 H        1 ZINC000034315595    0.1300
58     H58    -1.9868   -0.5987    8.3436 H        1 ZINC000034315595    0.1400
59     H59    -0.9551    0.0560   11.1595 H        1 ZINC000034315595    0.1000
60     H60    -1.3674    1.1917    9.8330 H        1 ZINC000034315595    0.1200
61     H61    -3.1482    0.4851   11.8676 H        1 ZINC000034315595    0.1100
62     H62    -3.6662    1.0177   10.2395 H        1 ZINC000034315595    0.1100
63     H63    -4.4567   -1.0864    9.7946 H        1 ZINC000034315595    0.1300
64     H64    -3.9736   -1.6063   11.4341 H        1 ZINC000034315595    0.1400
65     H65    -1.5981   -2.5289    6.6343 H        1 ZINC000034315595    0.1500
66     H66     1.3687   -3.7035    2.1948 H        1 ZINC000034315595    0.1500
67     H67     0.2339   -2.5948    0.3129 H        1 ZINC000034315595    0.1500
@<TRIPOS>BOND
1     1     2     1
2     1     35    1
3     1     36    1
4     1     37    1
5     2     3     1
6     3     34    ar
7     3     4     ar
8     4     5     ar
9     4     38    1
10    5     6     ar
11    5     39    1
12    6     7     1
13    6     33    ar
14    7     8     2
15    7     9     2
16    7     10    am
17    10    11    1
18    10    40    1
19    11    12    1
20    11    41    1
21    11    42    1
22    12    32    ar
23    12    13    ar
24    13    14    ar
25    13    43    1
26    14    15    1
27    14    22    ar
28    15    16    1
29    15    44    1
30    15    45    1
31    16    17    1
32    16    21    1
33    16    18    1
34    18    19    1
35    18    46    1
36    18    47    1
37    19    20    1
38    19    48    1
39    19    49    1
40    20    21    1
41    20    50    1
42    20    51    1
43    21    52    1
44    21    53    1
45    22    23    1
46    22    24    ar
47    23    54    1
48    24    25    1
49    24    32    ar
50    25    26    1
51    25    55    1
52    25    56    1
53    26    27    1
54    26    31    1
55    26    28    1
56    28    29    1
57    28    57    1
58    28    58    1
59    29    30    1
60    29    59    1
61    29    60    1
62    30    31    1
63    30    61    1
64    30    62    1
65    31    63    1
66    31    64    1
67    32    65    1
68    33    34    ar
69    33    66    1
70    34    67    1
@<TRIPOS>SUBSTRUCTURE
1   ZINC000034315595 1     RESIDUE    1   A     ZIN   1
