@<TRIPOS>MOLECULE
ZINC000001532172
  26   26    0    0    0
SMALL
USER_CHARGES
NO_NAME
@<TRIPOS>ATOM
    1 C1       -0.0187     1.5258     0.0104 C.3    1 <0>      -0.1500
    2 C2        0.0021    -0.0041     0.0020 C.3    1 <0>      -0.1200
    3 C3       -1.4333    -0.5336     0.0129 C.3    1 <0>       0.0700
    4 O4       -1.4136    -1.9855     0.0049 O.3    1 <0>      -0.3600
    5 C5       -2.6058    -2.6135     0.0129 C.2    1 <0>       0.5200
    6 O6       -3.6337    -1.9657     0.0262 O.2    1 <0>      -0.5400
    7 C7       -2.6630    -4.0872     0.0055 C.ar   1 <0>      -0.2600
    8 C8       -1.4814    -4.8336    -0.0039 C.ar   1 <0>      -0.0400
    9 C9       -1.5380    -6.2145    -0.0103 C.ar   1 <0>      -0.0600
   10 O10      -0.3886    -6.9415    -0.0191 O.3    1 <0>      -0.4800
   11 C11      -2.7707    -6.8622    -0.0074 C.ar   1 <0>       0.2700
   12 O12      -2.8234    -8.2200    -0.0137 O.3    1 <0>      -0.6700
   13 C13      -3.9495    -6.1210     0.0025 C.ar   1 <0>      -0.0600
   14 O14      -5.1517    -6.7568     0.0063 O.3    1 <0>      -0.4800
   15 C15      -3.8988    -4.7399     0.0138 C.ar   1 <0>      -0.0300
   16 H16       1.0039     1.9031     0.0027 H      1 <0>       0.0600
   17 H17      -0.5459     1.8868    -0.8726 H      1 <0>       0.0600
   18 H18      -0.5289     1.8773     0.9072 H      1 <0>       0.0600
   19 H19       0.5123    -0.3556    -0.8948 H      1 <0>       0.0700
   20 H20       0.5293    -0.3651     0.8851 H      1 <0>       0.0700
   21 H21      -1.9435    -0.1821     0.9097 H      1 <0>       0.0600
   22 H22      -1.9605    -0.1726    -0.8702 H      1 <0>       0.0600
   23 H23      -0.5251    -4.3318    -0.0066 H      1 <0>       0.1200
   24 H24      -0.0522    -7.1560     0.8618 H      1 <0>       0.3600
   25 H25      -5.4946    -6.9447     0.8907 H      1 <0>       0.3600
   26 H26      -4.8134    -4.1655     0.0218 H      1 <0>       0.1200
@<TRIPOS>BOND
   1    1    2 1
   2    1   16 1
   3    1   17 1
   4    1   18 1
   5    2    3 1
   6    2   19 1
   7    2   20 1
   8    3    4 1
   9    3   21 1
  10    3   22 1
  11    4    5 1
  12    5    6 2
  13    5    7 1
  14    7   15 ar
  15    7    8 ar
  16    8    9 ar
  17    8   23 1
  18    9   10 1
  19    9   11 ar
  20   10   24 1
  21   11   12 1
  22   11   13 ar
  23   13   14 1
  24   13   15 ar
  25   14   25 1
  26   15   26 1
