@<TRIPOS>MOLECULE
ZINC000004097460
64    66    1     0     0
SMALL
USER_CHARGES
@<TRIPOS>ATOM
1      C1     -4.5005   -2.7734   -2.2917 C.3      1 ZINC000004097460    0.0400
2      O2     -3.1311   -2.9063   -1.9055 O.3      1 ZINC000004097460   -0.3900
3      C3     -2.6654   -4.2569   -1.8710 C.3      1 ZINC000004097460    0.1000
4      C4     -1.2524   -4.2879   -1.3479 C.2      1 ZINC000004097460   -0.1500
5      C5     -0.7792   -3.1395   -0.8845 C.2      1 ZINC000004097460    0.1600
6      C6     -1.6083   -1.9225   -0.9505 C.2      1 ZINC000004097460    0.5300
7      O7     -1.5582   -1.2057   -1.9304 O.2      1 ZINC000004097460   -0.4400
8      O8     -2.4219   -1.6049    0.0759 O.3      1 ZINC000004097460   -0.3500
9      C9     -3.1101   -0.3285    0.0009 C.3      1 ZINC000004097460    0.2700
10     H10    -3.4764   -0.1723   -1.0137 H        1 ZINC000004097460    0.1100
11     C11    -4.2900   -0.3273    0.9750 C.3      1 ZINC000004097460   -0.1400
12     O12    -2.1905    0.7386    0.3532 O.3      1 ZINC000004097460   -0.3400
13     C13    -1.4999    1.3064   -0.6521 C.2      1 ZINC000004097460    0.5900
14     O14    -1.7403    1.0006   -1.8024 O.2      1 ZINC000004097460   -0.5100
15     O15    -0.5431    2.2129   -0.3829 O.3      1 ZINC000004097460   -0.3300
16     C16     0.1614    2.7843   -1.5167 C.3      1 ZINC000004097460    0.1000
17     C17     0.6076    4.2074   -1.1754 C.3      1 ZINC000004097460   -0.1500
18     C18     1.3882    1.9286   -1.8388 C.3      1 ZINC000004097460   -0.1700
19     N19     0.5063   -3.0798   -0.3318 N.am     1 ZINC000004097460   -0.5700
20     C20     1.2608   -2.3912    0.5156 C.2      1 ZINC000004097460    0.5200
21     O21     1.1673   -1.2662    0.9592 O.2      1 ZINC000004097460   -0.4500
22     C22     2.2756   -3.4880    0.7389 C.3      1 ZINC000004097460    0.1500
23     H23     3.3103   -3.1833    0.5820 H        1 ZINC000004097460    0.1700
24     N24     2.0750   -4.2573    1.9694 N.am     1 ZINC000004097460   -0.6900
25     C25     2.8768   -4.0494    3.0325 C.2      1 ZINC000004097460    0.5900
26     O26     3.7661   -3.2237    2.9704 O.2      1 ZINC000004097460   -0.4600
27     C27     2.6739   -4.8276    4.2771 C.2      1 ZINC000004097460    0.1900
28     N28     1.7204   -5.7129    4.3437 N.2      1 ZINC000004097460   -0.2900
29     O29     1.4327   -6.3526    5.5738 O.3      1 ZINC000004097460   -0.2100
30     C30     0.3645   -7.2989    5.5010 C.3      1 ZINC000004097460    0.0300
31     C31     3.5537   -4.5994    5.4435 C.2      1 ZINC000004097460    0.1000
32     C32     3.5839   -5.4355    6.4999 C.2      1 ZINC000004097460   -0.2300
33     S33     4.7519   -4.8140    7.6634 S.3      1 ZINC000004097460    0.0700
34     C34     5.0985   -3.4569    6.5965 C.2      1 ZINC000004097460    0.3500
35     N35     6.0051   -2.4440    6.8609 N.pl3    1 ZINC000004097460   -0.8100
36     N36     4.3783   -3.5545    5.5232 N.2      1 ZINC000004097460   -0.5000
37     C37     1.6017   -4.0769   -0.4877 C.3      1 ZINC000004097460    0.1200
38     H38     2.1773   -3.9839   -1.4086 H        1 ZINC000004097460    0.1500
39     S39     0.8528   -5.7240   -0.2545 S.3      1 ZINC000004097460   -0.1900
40     C40    -0.5601   -5.6100   -1.4104 C.3      1 ZINC000004097460   -0.0300
41     H41    -4.6201   -3.1003   -3.3246 H        1 ZINC000004097460    0.0500
42     H42    -5.1227   -3.3884   -1.6416 H        1 ZINC000004097460    0.0500
43     H43    -4.8032   -1.7300   -2.2035 H        1 ZINC000004097460    0.0900
44     H44    -3.3080   -4.8461   -1.2167 H        1 ZINC000004097460    0.0800
45     H45    -2.6897   -4.6755   -2.8771 H        1 ZINC000004097460    0.0800
46     H46    -4.9347   -1.1809    0.7658 H        1 ZINC000004097460    0.1000
47     H47    -3.9174   -0.3952    1.9971 H        1 ZINC000004097460    0.0800
48     H48    -4.8584    0.5951    0.8560 H        1 ZINC000004097460    0.0900
49     H49    -0.5016    2.8089   -2.3815 H        1 ZINC000004097460    0.0900
50     H50     1.2706    4.1828   -0.3106 H        1 ZINC000004097460    0.0700
51     H51     1.1364    4.6364   -2.0266 H        1 ZINC000004097460    0.0900
52     H52    -0.2664    4.8170   -0.9459 H        1 ZINC000004097460    0.0700
53     H53     1.0703    0.9147   -2.0819 H        1 ZINC000004097460    0.0600
54     H54     1.9170    2.3576   -2.6899 H        1 ZINC000004097460    0.0800
55     H55     2.0512    1.9040   -0.9740 H        1 ZINC000004097460    0.0700
56     H56     1.3650   -4.9165    2.0189 H        1 ZINC000004097460    0.4200
57     H57    -0.5468   -6.7943    5.1801 H        1 ZINC000004097460    0.0600
58     H58     0.6191   -8.0797    4.7842 H        1 ZINC000004097460    0.0600
59     H59     0.2065   -7.7447    6.4830 H        1 ZINC000004097460    0.1000
60     H60     2.9931   -6.3323    6.6141 H        1 ZINC000004097460    0.2000
61     H61     6.5084   -2.4479    7.6901 H        1 ZINC000004097460    0.4200
62     H62     6.1369   -1.7308    6.2169 H        1 ZINC000004097460    0.4200
63     H63    -1.2689   -6.4061   -1.1825 H        1 ZINC000004097460    0.1400
64     H64    -0.1957   -5.7439   -2.4290 H        1 ZINC000004097460    0.1100
@<TRIPOS>BOND
1     1     2     1
2     1     41    1
3     1     42    1
4     1     43    1
5     2     3     1
6     3     4     1
7     3     44    1
8     3     45    1
9     4     40    1
10    4     5     2
11    5     6     1
12    5     19    1
13    6     7     2
14    6     8     1
15    8     9     1
16    9     10    1
17    9     11    1
18    9     12    1
19    11    46    1
20    11    47    1
21    11    48    1
22    12    13    1
23    13    14    2
24    13    15    1
25    15    16    1
26    16    17    1
27    16    18    1
28    16    49    1
29    17    50    1
30    17    51    1
31    17    52    1
32    18    53    1
33    18    54    1
34    18    55    1
35    19    37    1
36    19    20    am
37    20    21    2
38    20    22    1
39    22    23    1
40    22    24    1
41    22    37    1
42    24    25    am
43    24    56    1
44    25    26    2
45    25    27    1
46    27    28    2
47    27    31    1
48    28    29    1
49    29    30    1
50    30    57    1
51    30    58    1
52    30    59    1
53    31    36    1
54    31    32    2
55    32    33    1
56    32    60    1
57    33    34    1
58    34    35    1
59    34    36    2
60    35    61    1
61    35    62    1
62    37    38    1
63    37    39    1
64    39    40    1
65    40    63    1
66    40    64    1
@<TRIPOS>SUBSTRUCTURE
1   ZINC000004097460 1     RESIDUE    1   A     ZIN   1
