@<TRIPOS>MOLECULE
ZINC000003787577
  13   13    0    0    0
SMALL
USER_CHARGES
NO_NAME
@<TRIPOS>ATOM
    1 O1        0.0021    -0.0041     0.0020 O.co2  1 <0>      -0.6700
    2 C2       -0.0145     1.2150     0.0087 C.2    1 <0>       0.4900
    3 O3        1.0330     1.8389     0.0021 O.co2  1 <0>      -0.6800
    4 C4       -1.3296     1.9507     0.0190 C.3    1 <0>       0.0400
    5 H5       -1.3977     2.5691    -0.8761 H      1 <0>       0.1000
    6 C6       -1.3880     2.8545     1.2574 C.3    1 <0>      -0.0600
    7 S7       -2.8508     2.2613     2.1647 S.3    1 <0>      -0.2100
    8 C8       -3.2802     0.9926     1.0121 C.2    1 <0>       0.5500
    9 O9       -4.2285     0.2388     1.1202 O.2    1 <0>      -0.5200
   10 N10      -2.4082     0.9885     0.0104 N.am   1 <0>      -0.6800
   11 H11      -0.4886     2.7340     1.8614 H      1 <0>       0.1200
   12 H12      -1.5163     3.8965     0.9646 H      1 <0>       0.1100
   13 H13      -2.4940     0.3521    -0.7166 H      1 <0>       0.4100
@<TRIPOS>BOND
   1    1    2 ar
   2    2    3 ar
   3    2    4 1
   4    4    5 1
   5    4   10 1
   6    4    6 1
   7    6    7 1
   8    6   11 1
   9    6   12 1
  10    7    8 1
  11    8    9 2
  12    8   10 am
  13   10   13 1
