@<TRIPOS>MOLECULE
ZINC000014690083
50    51    1     0     0
SMALL
USER_CHARGES
@<TRIPOS>ATOM
1      C1      0.4507    1.4706    0.0275 C.3      1 ZINC000014690083   -0.1200
2      C2      0.2267   -0.0196    0.0103 C.ar     1 ZINC000014690083   -0.0800
3      C3      0.2314   -0.7011   -1.1920 C.ar     1 ZINC000014690083   -0.0900
4      C4      0.0278   -2.0710   -1.2276 C.ar     1 ZINC000014690083   -0.1000
5      C5     -0.1842   -2.7723   -0.0415 C.ar     1 ZINC000014690083   -0.0400
6      C6     -0.4010   -4.2237   -0.0620 C.2      1 ZINC000014690083   -0.0200
7      C7     -0.6078   -4.9267    1.0672 C.2      1 ZINC000014690083   -0.1800
8      C8     -0.8238   -6.4153    0.9758 C.3      1 ZINC000014690083   -0.0400
9      C9      0.2644   -7.1384    1.7719 C.3      1 ZINC000014690083   -0.1500
10     C10    -2.1966   -6.7677    1.5521 C.3      1 ZINC000014690083   -0.1500
11     C11    -0.6270   -4.3042    2.3379 C.2      1 ZINC000014690083    0.3600
12     O12    -0.8151   -4.9636    3.3409 O.2      1 ZINC000014690083   -0.3900
13     C13    -0.4128   -2.8249    2.4350 C.2      1 ZINC000014690083    0.3600
14     O14    -0.4230   -2.2612    3.5092 O.2      1 ZINC000014690083   -0.3800
15     C15    -0.1882   -2.0731    1.1830 C.ar     1 ZINC000014690083   -0.1500
16     C16     0.0229   -0.6997    1.2013 C.ar     1 ZINC000014690083   -0.0100
17     C17     0.0263    0.0480    2.5097 C.3      1 ZINC000014690083   -0.1000
18     C18    -1.4110    0.3957    2.9023 C.3      1 ZINC000014690083   -0.1300
19     C19    -1.4075    1.1547    4.2307 C.3      1 ZINC000014690083    0.0900
20     H20    -0.7564    2.0251    4.1501 H        1 ZINC000014690083    0.1000
21     O21    -0.9293    0.2966    5.2684 O.3      1 ZINC000014690083   -0.5500
22     C22    -2.8301    1.6109    4.5611 C.3      1 ZINC000014690083    0.1000
23     C23    -3.7441    0.3891    4.6743 C.3      1 ZINC000014690083   -0.1500
24     C24    -2.8266    2.3700    5.8896 C.3      1 ZINC000014690083   -0.1800
25     O25    -3.3083    2.4690    3.5234 O.3      1 ZINC000014690083   -0.5500
26     H26     1.5173    1.6767    0.1174 H        1 ZINC000014690083    0.0800
27     H27     0.0735    1.9054   -0.8981 H        1 ZINC000014690083    0.0700
28     H28    -0.0766    1.9075    0.8755 H        1 ZINC000014690083    0.0700
29     H29     0.3950   -0.1606   -2.1126 H        1 ZINC000014690083    0.1400
30     H30     0.0329   -2.5945   -2.1722 H        1 ZINC000014690083    0.1400
31     H31    -0.3949   -4.7421   -1.0094 H        1 ZINC000014690083    0.1400
32     H32    -0.7774   -6.7258   -0.0680 H        1 ZINC000014690083    0.0800
33     H33     0.2179   -6.8279    2.8157 H        1 ZINC000014690083    0.0700
34     H34     0.1081   -8.2151    1.7058 H        1 ZINC000014690083    0.0600
35     H35     1.2424   -6.8873    1.3613 H        1 ZINC000014690083    0.0500
36     H36    -2.9719   -6.2525    0.9850 H        1 ZINC000014690083    0.0500
37     H37    -2.3529   -7.8444    1.4860 H        1 ZINC000014690083    0.0600
38     H38    -2.2431   -6.4572    2.5959 H        1 ZINC000014690083    0.0700
39     H39     0.4735   -0.5759    3.2836 H        1 ZINC000014690083    0.1100
40     H40     0.6057    0.9651    2.4027 H        1 ZINC000014690083    0.0800
41     H41    -1.8582    1.0196    2.1284 H        1 ZINC000014690083    0.0800
42     H42    -1.9903   -0.5214    3.0093 H        1 ZINC000014690083    0.0700
43     H43    -1.4619   -0.5003    5.3965 H        1 ZINC000014690083    0.3800
44     H44    -3.3793   -0.2655    5.4659 H        1 ZINC000014690083    0.0700
45     H45    -4.7575    0.7140    4.9097 H        1 ZINC000014690083    0.0700
46     H46    -3.7465   -0.1517    3.7279 H        1 ZINC000014690083    0.0600
47     H47    -2.1754    3.2404    5.8089 H        1 ZINC000014690083    0.0600
48     H48    -3.8400    2.6949    6.1250 H        1 ZINC000014690083    0.0600
49     H49    -2.4618    1.7154    6.6811 H        1 ZINC000014690083    0.0700
50     H50    -2.7757    3.2659    3.3953 H        1 ZINC000014690083    0.3800
@<TRIPOS>BOND
1     1     2     1
2     1     26    1
3     1     27    1
4     1     28    1
5     2     16    ar
6     2     3     ar
7     3     4     ar
8     3     29    1
9     4     5     ar
10    4     30    1
11    5     15    ar
12    5     6     1
13    6     7     2
14    6     31    1
15    7     8     1
16    7     11    1
17    8     9     1
18    8     10    1
19    8     32    1
20    9     33    1
21    9     34    1
22    9     35    1
23    10    36    1
24    10    37    1
25    10    38    1
26    11    12    2
27    11    13    1
28    13    14    2
29    13    15    1
30    15    16    ar
31    16    17    1
32    17    18    1
33    17    39    1
34    17    40    1
35    18    19    1
36    18    41    1
37    18    42    1
38    19    20    1
39    19    21    1
40    19    22    1
41    21    43    1
42    22    23    1
43    22    24    1
44    22    25    1
45    23    44    1
46    23    45    1
47    23    46    1
48    24    47    1
49    24    48    1
50    24    49    1
51    25    50    1
@<TRIPOS>SUBSTRUCTURE
1   ZINC000014690083 1     RESIDUE    1   A     ZIN   1
