@<TRIPOS>MOLECULE
ZINC000068087592
69    72    1     0     0
SMALL
USER_CHARGES
@<TRIPOS>ATOM
1      C1     -0.0173    1.4248    0.0099 C.3      1 ZINC000068087592    0.0200
2      O2      0.0021   -0.0041    0.0020 O.3      1 ZINC000068087592   -0.3100
3      C3     -1.1997   -0.6372    0.0101 C.ar     1 ZINC000068087592    0.1700
4      C4     -2.3727    0.0991    0.0195 C.ar     1 ZINC000068087592   -0.2300
5      C5     -3.5968   -0.5476    0.0283 C.ar     1 ZINC000068087592    0.1600
6      F6     -4.7390    0.1740    0.0379 F        1 ZINC000068087592   -0.1400
7      C7     -3.6551   -1.9322    0.0267 C.ar     1 ZINC000068087592   -0.1200
8      C8     -4.9919   -2.6277    0.0352 C.3      1 ZINC000068087592   -0.0500
9      C9     -5.1204   -3.5012   -1.2144 C.3      1 ZINC000068087592   -0.1400
10     C10    -5.1026   -3.5047    1.2840 C.3      1 ZINC000068087592   -0.1300
11     C11    -2.4928   -2.6761    0.0169 C.ar     1 ZINC000068087592    0.0000
12     C12    -1.2566   -2.0346    0.0031 C.ar     1 ZINC000068087592   -0.0900
13     C13    -0.0050   -2.8304   -0.0079 C.ar     1 ZINC000068087592    0.0300
14     C14     0.3036   -3.6332   -1.1044 C.ar     1 ZINC000068087592   -0.1100
15     C15     1.4700   -4.3713   -1.1094 C.ar     1 ZINC000068087592   -0.0600
16     C16     2.3314   -4.3156   -0.0288 C.ar     1 ZINC000068087592   -0.1900
17     C17     3.6033   -5.1238   -0.0402 C.3      1 ZINC000068087592    0.5100
18     F18     3.6889   -5.8415   -1.2380 F        1 ZINC000068087592   -0.1800
19     F19     4.7024   -4.2651    0.0685 F        1 ZINC000068087592   -0.1800
20     F20     3.5992   -6.0149    1.0382 F        1 ZINC000068087592   -0.1800
21     C21     2.0301   -3.5203    1.0624 C.ar     1 ZINC000068087592   -0.0500
22     C22     0.8697   -2.7736    1.0759 C.ar     1 ZINC000068087592   -0.1000
23     C23     0.5428   -1.9078    2.2653 C.3      1 ZINC000068087592    0.1900
24     N24    -0.4283   -2.5968    3.1187 N.am     1 ZINC000068087592   -0.6200
25     C25    -1.7611   -2.5090    3.0107 C.2      1 ZINC000068087592    0.6200
26     O26    -2.3148   -1.8297    2.1690 O.2      1 ZINC000068087592   -0.4800
27     O27    -2.4263   -3.2381    3.9137 O.3      1 ZINC000068087592   -0.3100
28     C28    -1.4761   -3.9324    4.7727 C.3      1 ZINC000068087592    0.1200
29     H29    -1.5981   -5.0119    4.6832 H        1 ZINC000068087592    0.1300
30     C30    -1.6462   -3.5000    6.2063 C.ar     1 ZINC000068087592   -0.1000
31     C31    -2.0268   -2.2032    6.4966 C.ar     1 ZINC000068087592   -0.0100
32     C32    -2.1828   -1.8066    7.8116 C.ar     1 ZINC000068087592   -0.1800
33     C33    -2.5973   -0.3927    8.1280 C.3      1 ZINC000068087592    0.5100
34     F34    -3.9931   -0.3175    8.1849 F        1 ZINC000068087592   -0.1700
35     F35    -2.0592   -0.0142    9.3627 F        1 ZINC000068087592   -0.1700
36     F36    -2.1243    0.4664    7.1302 F        1 ZINC000068087592   -0.1700
37     C37    -1.9590   -2.7070    8.8363 C.ar     1 ZINC000068087592   -0.0100
38     C38    -1.5788   -4.0039    8.5460 C.ar     1 ZINC000068087592   -0.1800
39     C39    -1.3343   -4.9854    9.6631 C.3      1 ZINC000068087592    0.5100
40     F40    -1.5541   -4.3562   10.8931 F        1 ZINC000068087592   -0.1700
41     F41    -2.2087   -6.0695    9.5311 F        1 ZINC000068087592   -0.1700
42     F42    -0.0132   -5.4418    9.6022 F        1 ZINC000068087592   -0.1700
43     C43    -1.4270   -4.4018    7.2309 C.ar     1 ZINC000068087592   -0.0200
44     C44    -0.0995   -3.5028    4.2299 C.3      1 ZINC000068087592    0.1000
45     H45     0.4587   -4.3684    3.8733 H        1 ZINC000068087592    0.1100
46     C46     0.6944   -2.7594    5.3060 C.3      1 ZINC000068087592   -0.1700
47     H47     1.0053    1.8021    0.0021 H        1 ZINC000068087592    0.1000
48     H48    -0.5445    1.7859   -0.8732 H        1 ZINC000068087592    0.0600
49     H49    -0.5275    1.7763    0.9067 H        1 ZINC000068087592    0.0600
50     H50    -2.3324    1.1783    0.0204 H        1 ZINC000068087592    0.1300
51     H51    -5.7885   -1.8838    0.0420 H        1 ZINC000068087592    0.0800
52     H52    -4.3238   -4.2451   -1.2211 H        1 ZINC000068087592    0.0500
53     H53    -6.0873   -4.0042   -1.2082 H        1 ZINC000068087592    0.0600
54     H54    -5.0416   -2.8764   -2.1040 H        1 ZINC000068087592    0.0500
55     H55    -5.0110   -2.8825    2.1743 H        1 ZINC000068087592    0.0600
56     H56    -6.0695   -4.0078    1.2902 H        1 ZINC000068087592    0.0500
57     H57    -4.3060   -4.2487    1.2773 H        1 ZINC000068087592    0.0500
58     H58    -2.5417   -3.7550    0.0161 H        1 ZINC000068087592    0.1300
59     H59    -0.3687   -3.6781   -1.9484 H        1 ZINC000068087592    0.1400
60     H60     1.7102   -4.9939   -1.9586 H        1 ZINC000068087592    0.1400
61     H61     2.7062   -3.4808    1.9037 H        1 ZINC000068087592    0.1300
62     H62     1.4522   -1.7130    2.8337 H        1 ZINC000068087592    0.0900
63     H63     0.1196   -0.9638    1.9221 H        1 ZINC000068087592    0.1100
64     H64    -2.2020   -1.4998    5.6960 H        1 ZINC000068087592    0.1500
65     H65    -2.0808   -2.3971    9.8637 H        1 ZINC000068087592    0.1600
66     H66    -1.1299   -5.4150    7.0041 H        1 ZINC000068087592    0.1500
67     H67     0.8418   -3.4133    6.1656 H        1 ZINC000068087592    0.0800
68     H68     1.6635   -2.4642    4.9038 H        1 ZINC000068087592    0.0700
69     H69     0.1436   -1.8712    5.6154 H        1 ZINC000068087592    0.0700
@<TRIPOS>BOND
1     1     2     1
2     1     47    1
3     1     48    1
4     1     49    1
5     2     3     1
6     3     12    ar
7     3     4     ar
8     4     5     ar
9     4     50    1
10    5     6     1
11    5     7     ar
12    7     8     1
13    7     11    ar
14    8     9     1
15    8     10    1
16    8     51    1
17    9     52    1
18    9     53    1
19    9     54    1
20    10    55    1
21    10    56    1
22    10    57    1
23    11    12    ar
24    11    58    1
25    12    13    1
26    13    22    ar
27    13    14    ar
28    14    15    ar
29    14    59    1
30    15    16    ar
31    15    60    1
32    16    17    1
33    16    21    ar
34    17    18    1
35    17    19    1
36    17    20    1
37    21    22    ar
38    21    61    1
39    22    23    1
40    23    24    1
41    23    62    1
42    23    63    1
43    24    44    1
44    24    25    am
45    25    26    2
46    25    27    1
47    27    28    1
48    28    29    1
49    28    30    1
50    28    44    1
51    30    43    ar
52    30    31    ar
53    31    32    ar
54    31    64    1
55    32    33    1
56    32    37    ar
57    33    34    1
58    33    35    1
59    33    36    1
60    37    38    ar
61    37    65    1
62    38    39    1
63    38    43    ar
64    39    40    1
65    39    41    1
66    39    42    1
67    43    66    1
68    44    45    1
69    44    46    1
70    46    67    1
71    46    68    1
72    46    69    1
@<TRIPOS>SUBSTRUCTURE
1   ZINC000068087592 1     RESIDUE    1   A     ZIN   1
