@<TRIPOS>MOLECULE
ZINC000253530735
57    60    1     0     0
SMALL
USER_CHARGES
@<TRIPOS>ATOM
1      C1     -0.2667    1.3387    0.3104 C.3      1 ZINC000253530735   -0.1400
2      C2     -0.0778   -0.1796    0.3210 C.3      1 ZINC000253530735   -0.1200
3      H3     -1.0431   -0.6756    0.4219 H        1 ZINC000253530735    0.0900
4      C4      0.6235   -0.6387   -0.9865 C.3      1 ZINC000253530735   -0.1100
5      C5      2.1002   -0.7004   -0.5807 C.3      1 ZINC000253530735   -0.0800
6      H6      2.5198    0.3036   -0.5174 H        1 ZINC000253530735    0.1000
7      C7      2.9842   -1.5900   -1.4340 C.3      1 ZINC000253530735   -0.1000
8      H8      2.5921   -2.6069   -1.4485 H        1 ZINC000253530735    0.1000
9      C9      3.0761   -1.0381   -2.8626 C.3      1 ZINC000253530735   -0.1200
10     C10     3.7518   -2.1036   -3.7277 C.3      1 ZINC000253530735   -0.0900
11     C11     5.0074   -2.5960   -3.0702 C.2      1 ZINC000253530735   -0.0400
12     C12     5.8601   -3.3513   -3.8009 C.2      1 ZINC000253530735   -0.2300
13     C13     7.0516   -3.8433   -3.0563 C.2      1 ZINC000253530735    0.4100
14     O14     8.1678   -3.8563   -3.5406 O.2      1 ZINC000253530735   -0.4500
15     C15     6.7719   -4.3180   -1.6727 C.2      1 ZINC000253530735   -0.2200
16     C16     5.9123   -3.5493   -0.9689 C.2      1 ZINC000253530735   -0.0700
17     C17     5.3825   -2.3211   -1.6538 C.3      1 ZINC000253530735   -0.0300
18     C18     6.5922   -1.3893   -1.7502 C.3      1 ZINC000253530735   -0.1500
19     C19     4.3863   -1.5722   -0.8143 C.3      1 ZINC000253530735    0.1700
20     F20     4.7884   -0.2324   -0.7961 F        1 ZINC000253530735   -0.1900
21     C21     4.3943   -2.0496    0.6334 C.3      1 ZINC000253530735    0.0900
22     H22     4.1286   -3.1063    0.6624 H        1 ZINC000253530735    0.0700
23     O23     5.7064   -1.8821    1.1743 O.3      1 ZINC000253530735   -0.5500
24     C24     3.3927   -1.2544    1.4886 C.3      1 ZINC000253530735   -0.1200
25     C25     2.0101   -1.3432    0.8303 C.3      1 ZINC000253530735   -0.0400
26     C26     1.6276   -2.8108    0.6285 C.3      1 ZINC000253530735   -0.1700
27     C27     0.8558   -0.5911    1.4867 C.3      1 ZINC000253530735    0.1200
28     O28     1.3469    0.5472    2.1973 O.3      1 ZINC000253530735   -0.5300
29     C29     0.1005   -1.5037    2.4182 C.2      1 ZINC000253530735    0.3300
30     O30    -0.8676   -2.1058    2.0202 O.2      1 ZINC000253530735   -0.4100
31     C31     0.5534   -1.6649    3.8465 C.3      1 ZINC000253530735    0.0300
32     O32    -0.3169   -2.5747    4.5224 O.3      1 ZINC000253530735   -0.5600
33     H33     0.7024    1.8246    0.1968 H        1 ZINC000253530735    0.0700
34     H34    -0.9132    1.6186   -0.5213 H        1 ZINC000253530735    0.0600
35     H35    -0.7237    1.6545    1.2482 H        1 ZINC000253530735    0.0500
36     H36     0.2658   -1.6222   -1.2911 H        1 ZINC000253530735    0.0800
37     H37     0.4723    0.0911   -1.7819 H        1 ZINC000253530735    0.0800
38     H38     2.0762   -0.8315   -3.2441 H        1 ZINC000253530735    0.0800
39     H39     3.6711   -0.1249   -2.8686 H        1 ZINC000253530735    0.0800
40     H40     3.0674   -2.9402   -3.8681 H        1 ZINC000253530735    0.0900
41     H41     3.9988   -1.6748   -4.6989 H        1 ZINC000253530735    0.0900
42     H42     5.6897   -3.5789   -4.8428 H        1 ZINC000253530735    0.1500
43     H43     7.2222   -5.2100   -1.2629 H        1 ZINC000253530735    0.1500
44     H44     5.6194   -3.8056    0.0386 H        1 ZINC000253530735    0.1400
45     H45     7.3780   -1.8730   -2.3305 H        1 ZINC000253530735    0.0500
46     H46     6.2978   -0.4612   -2.2401 H        1 ZINC000253530735    0.0700
47     H47     6.9627   -1.1701   -0.7489 H        1 ZINC000253530735    0.0800
48     H48     5.7912   -2.1647    2.0952 H        1 ZINC000253530735    0.3800
49     H49     3.3740   -1.6521    2.5033 H        1 ZINC000253530735    0.0800
50     H50     3.6749   -0.2018    1.5072 H        1 ZINC000253530735    0.0900
51     H51     1.4994   -3.2896    1.5993 H        1 ZINC000253530735    0.0600
52     H52     0.6944   -2.8693    0.0684 H        1 ZINC000253530735    0.0700
53     H53     2.4166   -3.3189    0.0741 H        1 ZINC000253530735    0.0700
54     H54     0.6576    1.0647    2.6357 H        1 ZINC000253530735    0.3800
55     H55     1.5710   -2.0552    3.8632 H        1 ZINC000253530735    0.0800
56     H56     0.5273   -0.6971    4.3474 H        1 ZINC000253530735    0.0800
57     H57    -0.0846   -2.7264    5.4488 H        1 ZINC000253530735    0.3900
@<TRIPOS>BOND
1     1     2     1
2     1     33    1
3     1     34    1
4     1     35    1
5     2     3     1
6     2     27    1
7     2     4     1
8     4     5     1
9     4     36    1
10    4     37    1
11    5     6     1
12    5     25    1
13    5     7     1
14    7     8     1
15    7     19    1
16    7     9     1
17    9     10    1
18    9     38    1
19    9     39    1
20    10    11    1
21    10    40    1
22    10    41    1
23    11    17    1
24    11    12    2
25    12    13    1
26    12    42    1
27    13    14    2
28    13    15    1
29    15    16    2
30    15    43    1
31    16    17    1
32    16    44    1
33    17    18    1
34    17    19    1
35    18    45    1
36    18    46    1
37    18    47    1
38    19    20    1
39    19    21    1
40    21    22    1
41    21    23    1
42    21    24    1
43    23    48    1
44    24    25    1
45    24    49    1
46    24    50    1
47    25    26    1
48    25    27    1
49    26    51    1
50    26    52    1
51    26    53    1
52    27    28    1
53    27    29    1
54    28    54    1
55    29    30    2
56    29    31    1
57    31    32    1
58    31    55    1
59    31    56    1
60    32    57    1
@<TRIPOS>SUBSTRUCTURE
1   ZINC000253530735 1     RESIDUE    1   A     ZIN   1
