@<TRIPOS>MOLECULE
ZINC000003581471
  20   20    0    0    0
SMALL
USER_CHARGES
NO_NAME
@<TRIPOS>ATOM
    1 O1       -0.0173     1.4248     0.0099 O.3    1 <0>      -0.5600
    2 C2        0.0021    -0.0041     0.0020 C.3    1 <0>       0.0600
    3 C3       -1.4333    -0.5336     0.0129 C.3    1 <0>       0.0900
    4 H4       -1.9799    -0.1051     0.8529 H      1 <0>       0.1200
    5 O5       -2.0887    -0.1947    -1.2207 O.3    1 <0>      -0.3700
    6 C6       -1.9061    -1.3125    -2.1161 C.3    1 <0>       0.2200
    7 H7       -0.9050    -1.2995    -2.5471 H      1 <0>       0.0800
    8 O8       -2.8962    -1.2989    -3.1465 O.3    1 <0>      -0.5400
    9 C9       -2.0882    -2.5464    -1.1958 C.3    1 <0>       0.0500
   10 H10      -3.1450    -2.7638    -1.0412 H      1 <0>       0.1000
   11 O11      -1.4085    -3.6848    -1.7288 O.3    1 <0>      -0.5500
   12 C12      -1.4239    -2.0707     0.1231 C.3    1 <0>       0.0900
   13 H13      -0.4014    -2.4420     0.1908 H      1 <0>       0.0900
   14 O14      -2.1872    -2.5022     1.2515 O.3    1 <0>      -0.5500
   15 H15       0.8606     1.8301     0.0037 H      1 <0>       0.3800
   16 H16       0.5123    -0.3556    -0.8948 H      1 <0>       0.0500
   17 H17       0.5293    -0.3651     0.8851 H      1 <0>       0.0700
   18 H18      -2.8679    -0.5126    -3.7086 H      1 <0>       0.3900
   19 H19      -1.7311    -3.9651    -2.5962 H      1 <0>       0.3900
   20 H20      -2.2612    -3.4630     1.3321 H      1 <0>       0.3900
@<TRIPOS>BOND
   1    1    2 1
   2    1   15 1
   3    2    3 1
   4    2   16 1
   5    2   17 1
   6    3    4 1
   7    3   12 1
   8    3    5 1
   9    5    6 1
  10    6    7 1
  11    6    8 1
  12    6    9 1
  13    8   18 1
  14    9   10 1
  15    9   11 1
  16    9   12 1
  17   11   19 1
  18   12   13 1
  19   12   14 1
  20   14   20 1
