@<TRIPOS>MOLECULE
ZINC000004521897
74    73    1     0     0
SMALL
USER_CHARGES
@<TRIPOS>ATOM
1      C1     -0.0187    1.5258    0.0104 C.3      1 ZINC000004521897   -0.1500
2      C2      0.0021   -0.0041    0.0020 C.3      1 ZINC000004521897   -0.1300
3      C3     -1.4333   -0.5336    0.0129 C.3      1 ZINC000004521897   -0.1200
4      C4     -1.4126   -2.0635    0.0045 C.3      1 ZINC000004521897   -0.1200
5      C5     -2.8479   -2.5931    0.0153 C.3      1 ZINC000004521897   -0.1100
6      C6     -2.8272   -4.1229    0.0069 C.3      1 ZINC000004521897   -0.1100
7      C7     -4.2410   -4.6445    0.0176 C.2      1 ZINC000004521897    0.4600
8      O8     -5.1699   -3.8719    0.0306 O.2      1 ZINC000004521897   -0.5000
9      O9     -4.4683   -5.9674    0.0127 O.3      1 ZINC000004521897   -0.3500
10     C10    -5.8550   -6.3980    0.0236 C.3      1 ZINC000004521897    0.0700
11     C11    -5.9143   -7.9268    0.0160 C.3      1 ZINC000004521897    0.0900
12     C12    -7.3688   -8.3815    0.1531 C.3      1 ZINC000004521897    0.0500
13     O13    -7.4151   -9.8284    0.2648 O.3      1 ZINC000004521897   -0.3400
14     C14    -8.6269  -10.3912    0.3929 C.2      1 ZINC000004521897    0.4600
15     O15    -9.6162   -9.6978    0.4111 O.2      1 ZINC000004521897   -0.5100
16     C16    -8.7536  -11.8880    0.5140 C.3      1 ZINC000004521897   -0.1100
17     C17   -10.2303  -12.2658    0.6470 C.3      1 ZINC000004521897   -0.1100
18     C18   -10.3588  -13.7854    0.7700 C.3      1 ZINC000004521897   -0.1200
19     C19   -11.8355  -14.1632    0.9030 C.3      1 ZINC000004521897   -0.1200
20     C20   -11.9641  -15.6828    1.0259 C.3      1 ZINC000004521897   -0.1300
21     C21   -13.4407  -16.0606    1.1589 C.3      1 ZINC000004521897   -0.1500
22     O22    -5.3669   -8.4262   -1.2327 O.3      1 ZINC000004521897   -0.3500
23     C23    -4.7738   -9.6300   -1.1999 C.2      1 ZINC000004521897    0.4600
24     O24    -4.7142  -10.2460   -0.1622 O.2      1 ZINC000004521897   -0.4900
25     C25    -4.1824  -10.2131   -2.4574 C.3      1 ZINC000004521897   -0.1100
26     C26    -3.5732  -11.5819   -2.1473 C.3      1 ZINC000004521897   -0.1100
27     C27    -2.9728  -12.1739   -3.4240 C.3      1 ZINC000004521897   -0.1200
28     C28    -2.3636  -13.5427   -3.1139 C.3      1 ZINC000004521897   -0.1200
29     C29    -1.7632  -14.1348   -4.3906 C.3      1 ZINC000004521897   -0.1300
30     C30    -1.1540  -15.5036   -4.0805 C.3      1 ZINC000004521897   -0.1500
31     H31     1.0039    1.9031    0.0027 H        1 ZINC000004521897    0.0500
32     H32    -0.5459    1.8868   -0.8726 H        1 ZINC000004521897    0.0500
33     H33    -0.5289    1.8773    0.9072 H        1 ZINC000004521897    0.0500
34     H34     0.5123   -0.3556   -0.8948 H        1 ZINC000004521897    0.0600
35     H35     0.5293   -0.3651    0.8851 H        1 ZINC000004521897    0.0600
36     H36    -1.9435   -0.1821    0.9097 H        1 ZINC000004521897    0.0600
37     H37    -1.9605   -0.1726   -0.8702 H        1 ZINC000004521897    0.0600
38     H38    -0.9024   -2.4150   -0.8923 H        1 ZINC000004521897    0.0700
39     H39    -0.8854   -2.4246    0.8875 H        1 ZINC000004521897    0.0700
40     H40    -3.3581   -2.2415    0.9121 H        1 ZINC000004521897    0.0700
41     H41    -3.3751   -2.2320   -0.8677 H        1 ZINC000004521897    0.0700
42     H42    -2.3170   -4.4744   -0.8899 H        1 ZINC000004521897    0.1100
43     H43    -2.3000   -4.4840    0.8900 H        1 ZINC000004521897    0.1100
44     H44    -6.3458   -6.0198    0.9204 H        1 ZINC000004521897    0.1000
45     H45    -6.3628   -6.0103   -0.8595 H        1 ZINC000004521897    0.0900
46     H46    -5.3314   -8.3173    0.8502 H        1 ZINC000004521897    0.1100
47     H47    -7.8067   -7.9340    1.0454 H        1 ZINC000004521897    0.0900
48     H48    -7.9322   -8.0666   -0.7252 H        1 ZINC000004521897    0.0900
49     H49    -8.3362  -12.3611   -0.3748 H        1 ZINC000004521897    0.1100
50     H50    -8.2106  -12.2284    1.3957 H        1 ZINC000004521897    0.1100
51     H51   -10.6477  -11.7927    1.5359 H        1 ZINC000004521897    0.0700
52     H52   -10.7732  -11.9254   -0.2347 H        1 ZINC000004521897    0.0700
53     H53    -9.9414  -14.2585   -0.1189 H        1 ZINC000004521897    0.0600
54     H54    -9.8159  -14.1258    1.6517 H        1 ZINC000004521897    0.0700
55     H55   -12.2529  -13.6901    1.7918 H        1 ZINC000004521897    0.0600
56     H56   -12.3784  -13.8228    0.0213 H        1 ZINC000004521897    0.0600
57     H57   -11.5466  -16.1559    0.1371 H        1 ZINC000004521897    0.0600
58     H58   -11.4211  -16.0232    1.9076 H        1 ZINC000004521897    0.0600
59     H59   -13.5323  -17.1432    1.2465 H        1 ZINC000004521897    0.0500
60     H60   -13.8582  -15.5875    2.0478 H        1 ZINC000004521897    0.0500
61     H61   -13.9837  -15.7202    0.2772 H        1 ZINC000004521897    0.0500
62     H62    -4.9643  -10.3251   -3.2086 H        1 ZINC000004521897    0.1000
63     H63    -3.4069   -9.5477   -2.8367 H        1 ZINC000004521897    0.1100
64     H64    -2.7914  -11.4699   -1.3962 H        1 ZINC000004521897    0.0700
65     H65    -4.3488  -12.2473   -1.7681 H        1 ZINC000004521897    0.0700
66     H66    -3.7547  -12.2860   -4.1752 H        1 ZINC000004521897    0.0600
67     H67    -2.1973  -11.5086   -3.8033 H        1 ZINC000004521897    0.0600
68     H68    -1.5818  -13.4307   -2.3628 H        1 ZINC000004521897    0.0600
69     H69    -3.1392  -14.2081   -2.7347 H        1 ZINC000004521897    0.0600
70     H70    -2.5451  -14.2468   -5.1418 H        1 ZINC000004521897    0.0600
71     H71    -0.9876  -13.4694   -4.7699 H        1 ZINC000004521897    0.0600
72     H72    -0.7263  -15.9254   -4.9901 H        1 ZINC000004521897    0.0500
73     H73    -0.3722  -15.3916   -3.3293 H        1 ZINC000004521897    0.0500
74     H74    -1.9296  -16.1690   -3.7013 H        1 ZINC000004521897    0.0500
@<TRIPOS>BOND
1     1     2     1
2     1     31    1
3     1     32    1
4     1     33    1
5     2     3     1
6     2     34    1
7     2     35    1
8     3     4     1
9     3     36    1
10    3     37    1
11    4     5     1
12    4     38    1
13    4     39    1
14    5     6     1
15    5     40    1
16    5     41    1
17    6     7     1
18    6     42    1
19    6     43    1
20    7     8     2
21    7     9     1
22    9     10    1
23    10    11    1
24    10    44    1
25    10    45    1
26    11    12    1
27    11    22    1
28    11    46    1
29    12    13    1
30    12    47    1
31    12    48    1
32    13    14    1
33    14    15    2
34    14    16    1
35    16    17    1
36    16    49    1
37    16    50    1
38    17    18    1
39    17    51    1
40    17    52    1
41    18    19    1
42    18    53    1
43    18    54    1
44    19    20    1
45    19    55    1
46    19    56    1
47    20    21    1
48    20    57    1
49    20    58    1
50    21    59    1
51    21    60    1
52    21    61    1
53    22    23    1
54    23    24    2
55    23    25    1
56    25    26    1
57    25    62    1
58    25    63    1
59    26    27    1
60    26    64    1
61    26    65    1
62    27    28    1
63    27    66    1
64    27    67    1
65    28    29    1
66    28    68    1
67    28    69    1
68    29    30    1
69    29    70    1
70    29    71    1
71    30    72    1
72    30    73    1
73    30    74    1
@<TRIPOS>SUBSTRUCTURE
1   ZINC000004521897 1     RESIDUE    1   A     ZIN   1
