@<TRIPOS>MOLECULE
ZINC000035953249
65    69    1     0     0
SMALL
USER_CHARGES
@<TRIPOS>ATOM
1      C1     -0.0176    1.4478    0.0100 C.3      1 ZINC000035953249    0.0600
2      O2      0.0021   -0.0041    0.0020 O.3      1 ZINC000035953249   -0.3700
3      C3     -1.1891   -0.6316    0.0100 C.2      1 ZINC000035953249    0.6500
4      O4     -2.2170    0.0163    0.0233 O.2      1 ZINC000035953249   -0.5700
5      N5     -1.2414   -1.9783    0.0033 N.am     1 ZINC000035953249   -0.5900
6      C6     -0.0071   -2.7753   -0.0067 C.3      1 ZINC000035953249    0.1100
7      C7     -0.0542   -3.7718    1.1559 C.3      1 ZINC000035953249   -0.1300
8      C8     -1.3379   -4.5997    1.0612 C.3      1 ZINC000035953249   -0.0900
9      C9     -1.3718   -5.6197    2.2011 C.3      1 ZINC000035953249   -0.0100
10     C10    -2.5447   -6.4947    2.0418 C.1      1 ZINC000035953249   -0.0800
11     C11    -3.4802   -7.1926    1.9147 C.1      1 ZINC000035953249   -0.1300
12     C12    -4.6212   -8.0439    1.7597 C.ar     1 ZINC000035953249    0.5000
13     N13    -5.4310   -7.8508    0.7223 N.ar     1 ZINC000035953249   -0.5700
14     C14    -6.5002   -8.6140    0.5361 C.ar     1 ZINC000035953249    0.5200
15     N15    -7.3371   -8.4061   -0.5465 N.pl3    1 ZINC000035953249   -0.8100
16     C16    -6.7650   -9.6393    1.4621 C.ar     1 ZINC000035953249   -0.1000
17     N17    -7.7305  -10.5805    1.5870 N.2      1 ZINC000035953249   -0.4600
18     C18    -7.5028  -11.2975    2.6492 C.2      1 ZINC000035953249    0.2700
19     N19    -6.3731  -10.8595    3.2741 N.pl3    1 ZINC000035953249   -0.4700
20     C20    -5.7906  -11.4114    4.4997 C.3      1 ZINC000035953249    0.3100
21     H21    -4.7028  -11.3685    4.4449 H        1 ZINC000035953249    0.1300
22     O22    -6.2179  -12.7728    4.6739 O.3      1 ZINC000035953249   -0.3300
23     C23    -6.3507  -12.9945    6.0944 C.3      1 ZINC000035953249    0.0300
24     H24    -5.3739  -13.1545    6.5509 H        1 ZINC000035953249    0.1200
25     C25    -7.2598  -14.1652    6.3661 C.2      1 ZINC000035953249    0.5200
26     O26    -7.8117  -14.7308    5.4460 O.2      1 ZINC000035953249   -0.5000
27     N27    -7.4596  -14.5839    7.6315 N.am     1 ZINC000035953249   -0.7000
28     C28    -8.3434  -15.7220    7.8956 C.3      1 ZINC000035953249    0.0700
29     C29    -7.8675  -16.7660    8.9078 C.3      1 ZINC000035953249   -0.1900
30     C30    -8.9977  -15.8028    9.2763 C.3      1 ZINC000035953249   -0.1900
31     C31    -6.9840  -11.6765    6.6084 C.3      1 ZINC000035953249    0.0500
32     H32    -8.0618  -11.6736    6.4459 H        1 ZINC000035953249    0.1000
33     O33    -6.6782  -11.4681    7.9886 O.3      1 ZINC000035953249   -0.5400
34     C34    -6.2857  -10.6127    5.7210 C.3      1 ZINC000035953249    0.0800
35     H35    -6.9971   -9.8467    5.4125 H        1 ZINC000035953249    0.0900
36     O36    -5.1877  -10.0218    6.4191 O.3      1 ZINC000035953249   -0.5300
37     C37    -5.8814   -9.8065    2.5436 C.ar     1 ZINC000035953249    0.3100
38     N38    -4.8320   -9.0016    2.6522 N.ar     1 ZINC000035953249   -0.5300
39     C39    -2.5525   -3.6749    1.1682 C.3      1 ZINC000035953249   -0.1300
40     C40    -2.5337   -2.6774    0.0119 C.3      1 ZINC000035953249    0.1300
41     H41     1.0050    1.8251    0.0023 H        1 ZINC000035953249    0.1000
42     H42    -0.5448    1.8089   -0.8731 H        1 ZINC000035953249    0.0600
43     H43    -0.5278    1.7993    0.9068 H        1 ZINC000035953249    0.0600
44     H44     0.0704   -3.3171   -0.9493 H        1 ZINC000035953249    0.0700
45     H45     0.8538   -2.1172    0.1108 H        1 ZINC000035953249    0.0900
46     H46     0.8103   -4.4336    1.1031 H        1 ZINC000035953249    0.0800
47     H47    -0.0403   -3.2290    2.1011 H        1 ZINC000035953249    0.0700
48     H48    -1.3630   -5.1227    0.1052 H        1 ZINC000035953249    0.0800
49     H49    -0.4635   -6.2217    2.1772 H        1 ZINC000035953249    0.1000
50     H50    -1.4359   -5.0963    3.1551 H        1 ZINC000035953249    0.1000
51     H51    -7.1446   -7.6963   -1.1790 H        1 ZINC000035953249    0.4100
52     H52    -8.1160   -8.9702   -0.6728 H        1 ZINC000035953249    0.4200
53     H53    -8.1182  -12.1187    2.9860 H        1 ZINC000035953249    0.2300
54     H54    -7.0182  -14.1316    8.3674 H        1 ZINC000035953249    0.4000
55     H55    -8.9229  -16.0751    7.0426 H        1 ZINC000035953249    0.1400
56     H56    -8.1337  -17.8063    8.7207 H        1 ZINC000035953249    0.1100
57     H57    -6.8968  -16.6061    9.3771 H        1 ZINC000035953249    0.1000
58     H58    -8.7706  -15.0092    9.9881 H        1 ZINC000035953249    0.1000
59     H59   -10.0075  -16.2095    9.3317 H        1 ZINC000035953249    0.1100
60     H60    -7.0170  -12.1583    8.5751 H        1 ZINC000035953249    0.3800
61     H61    -5.4406   -9.5567    7.2283 H        1 ZINC000035953249    0.4000
62     H62    -3.4661   -4.2677    1.1241 H        1 ZINC000035953249    0.0900
63     H63    -2.5151   -3.1330    2.1132 H        1 ZINC000035953249    0.0700
64     H64    -3.3403   -1.9554    0.1390 H        1 ZINC000035953249    0.1000
65     H65    -2.6613   -3.2087   -0.9312 H        1 ZINC000035953249    0.0700
@<TRIPOS>BOND
1     1     2     1
2     1     41    1
3     1     42    1
4     1     43    1
5     2     3     1
6     3     4     2
7     3     5     am
8     5     40    1
9     5     6     1
10    6     7     1
11    6     44    1
12    6     45    1
13    7     8     1
14    7     46    1
15    7     47    1
16    8     9     1
17    8     39    1
18    8     48    1
19    9     10    1
20    9     49    1
21    9     50    1
22    10    11    3
23    11    12    1
24    12    38    ar
25    12    13    ar
26    13    14    ar
27    14    15    1
28    14    16    ar
29    15    51    1
30    15    52    1
31    16    37    ar
32    16    17    1
33    17    18    2
34    18    19    1
35    18    53    1
36    19    20    1
37    19    37    1
38    20    21    1
39    20    34    1
40    20    22    1
41    22    23    1
42    23    24    1
43    23    25    1
44    23    31    1
45    25    26    2
46    25    27    am
47    27    28    1
48    27    54    1
49    28    30    1
50    28    29    1
51    28    55    1
52    29    30    1
53    29    56    1
54    29    57    1
55    30    58    1
56    30    59    1
57    31    32    1
58    31    33    1
59    31    34    1
60    33    60    1
61    34    35    1
62    34    36    1
63    36    61    1
64    37    38    ar
65    39    40    1
66    39    62    1
67    39    63    1
68    40    64    1
69    40    65    1
@<TRIPOS>SUBSTRUCTURE
1   ZINC000035953249 1     RESIDUE    1   A     ZIN   1
