@<TRIPOS>MOLECULE
ZINC000095670835
  46   49    0    0    0
SMALL
USER_CHARGES
NO_NAME
@<TRIPOS>ATOM
    1 C1       -2.5263    -0.4850    -0.6029 C.3    1 <0>       0.0900
    2 N2       -1.2713    -1.2132    -0.4010 N.pl3  1 <0>      -0.6400
    3 C3       -1.0223    -1.9067     0.8652 C.3    1 <0>       0.1000
    4 C4       -0.3118    -1.2464    -1.4160 C.ar   1 <0>       0.2000
    5 C5        0.8766    -1.9422    -1.2264 C.ar   1 <0>      -0.1800
    6 C6        1.8298    -1.9785    -2.2275 C.ar   1 <0>      -0.0800
    7 C7        1.6084    -1.3244    -3.4216 C.ar   1 <0>      -0.1000
    8 C8        0.4169    -0.6221    -3.6231 C.ar   1 <0>      -0.0200
    9 C9        0.1770     0.0786    -4.8993 C.2    1 <0>       0.2800
   10 C10       0.2770    -0.6077    -6.0992 C.2    1 <0>      -0.3000
   11 C11       0.5898    -1.9868    -6.4871 C.2    1 <0>       0.5400
   12 O12       0.8537    -2.9053    -5.7340 O.2    1 <0>      -0.5600
   13 N13       0.5304    -2.0490    -7.8326 N.am   1 <0>      -0.4100
   14 C14       0.7676    -3.2027    -8.5875 C.ar   1 <0>       0.2100
   15 C15       0.0441    -4.3604    -8.3350 C.ar   1 <0>      -0.1100
   16 C16       0.2806    -5.4981    -9.0823 C.ar   1 <0>      -0.1000
   17 C17       1.2369    -5.4854   -10.0806 C.ar   1 <0>      -0.1300
   18 C18       1.9599    -4.3342   -10.3355 C.ar   1 <0>      -0.1100
   19 C19       1.7242    -3.1909    -9.5961 C.ar   1 <0>      -0.0400
   20 Cl20      2.6315    -1.7460    -9.9166 Cl     1 <0>      -0.0500
   21 N21       0.1984    -0.8015    -8.3689 N.pl3  1 <0>      -0.4200
   22 C22       0.0331     0.1116    -7.3553 C.2    1 <0>       0.2200
   23 C23      -0.2881     1.4512    -7.2926 C.2    1 <0>      -0.4000
   24 C24      -0.3706     2.0768    -6.0433 C.2    1 <0>       0.5300
   25 O25      -0.6554     3.2624    -5.9892 O.2    1 <0>      -0.6100
   26 N26      -0.1498     1.4038    -4.9024 N.am   1 <0>      -0.5100
   27 C27      -0.2512     2.1149    -3.6256 C.3    1 <0>       0.0600
   28 C28      -0.5475    -0.5901    -2.6142 C.ar   1 <0>      -0.1700
   29 H29      -2.4052     0.5465    -0.2721 H      1 <0>       0.0500
   30 H30      -2.7882    -0.4988    -1.6609 H      1 <0>       0.0700
   31 H31      -3.3194    -0.9608    -0.0261 H      1 <0>       0.0600
   32 H32      -1.3930    -2.9295     0.7983 H      1 <0>       0.0400
   33 H33       0.0487    -1.9208     1.0673 H      1 <0>       0.0700
   34 H34      -1.5375    -1.3856     1.6722 H      1 <0>       0.0600
   35 H35       1.0562    -2.4561    -0.2937 H      1 <0>       0.1200
   36 H36       2.7511    -2.5206    -2.0737 H      1 <0>       0.1200
   37 H37       2.3558    -1.3546    -4.2006 H      1 <0>       0.1200
   38 H38      -0.7027    -4.3716    -7.5549 H      1 <0>       0.1300
   39 H39      -0.2822    -6.3988    -8.8860 H      1 <0>       0.1300
   40 H40       1.4200    -6.3766   -10.6626 H      1 <0>       0.1300
   41 H41       2.7065    -4.3277   -11.1158 H      1 <0>       0.1300
   42 H42      -0.4735     2.0113    -8.1972 H      1 <0>       0.1200
   43 H43      -0.4167     3.1759    -3.8127 H      1 <0>       0.1000
   44 H44      -1.0857     1.7128    -3.0511 H      1 <0>       0.0600
   45 H45       0.6733     1.9850    -3.0629 H      1 <0>       0.0700
   46 H46      -1.4704    -0.0496    -2.7637 H      1 <0>       0.1200
@<TRIPOS>BOND
   1    1    2 1
   2    1   29 1
   3    1   30 1
   4    1   31 1
   5    2    3 1
   6    2    4 1
   7    3   32 1
   8    3   33 1
   9    3   34 1
  10    4   28 ar
  11    4    5 ar
  12    5    6 ar
  13    5   35 1
  14    6    7 ar
  15    6   36 1
  16    7    8 ar
  17    7   37 1
  18    8    9 1
  19    8   28 ar
  20    9   26 1
  21    9   10 2
  22   10   22 1
  23   10   11 1
  24   11   12 2
  25   11   13 am
  26   13   14 1
  27   13   21 1
  28   14   19 ar
  29   14   15 ar
  30   15   16 ar
  31   15   38 1
  32   16   17 ar
  33   16   39 1
  34   17   18 ar
  35   17   40 1
  36   18   19 ar
  37   18   41 1
  38   19   20 1
  39   21   22 1
  40   22   23 2
  41   23   24 1
  42   23   42 1
  43   24   25 2
  44   24   26 am
  45   26   27 1
  46   27   43 1
  47   27   44 1
  48   27   45 1
  49   28   46 1
