@<TRIPOS>MOLECULE
ZINC000003808778
  59   61    0    0    0
SMALL
USER_CHARGES
NO_NAME
@<TRIPOS>ATOM
    1 C1       -0.0187     1.5258     0.0104 C.3    1 <0>      -0.1500
    2 C2        0.0021    -0.0041     0.0020 C.3    1 <0>       0.0600
    3 O3       -1.3601    -0.5067     0.0123 O.3    1 <0>      -0.3500
    4 C4       -1.5179    -1.8396     0.0067 C.2    1 <0>       0.4300
    5 O5       -0.5499    -2.5625    -0.0065 O.2    1 <0>      -0.5100
    6 C6       -2.9025    -2.4345     0.0167 C.3    1 <0>       0.1000
    7 H7       -3.4476    -2.1011    -0.8663 H      1 <0>       0.1200
    8 C8       -3.6438    -1.9799     1.2755 C.3    1 <0>      -0.0900
    9 C9       -5.0887    -2.4806     1.2254 C.3    1 <0>      -0.0700
   10 C10      -5.8189    -2.0328     2.4653 C.ar   1 <0>      -0.0700
   11 C11      -5.8195    -2.8316     3.5935 C.ar   1 <0>      -0.1100
   12 C12      -6.4892    -2.4209     4.7308 C.ar   1 <0>      -0.1200
   13 C13      -7.1580    -1.2111     4.7401 C.ar   1 <0>      -0.1300
   14 C14      -7.1567    -0.4119     3.6122 C.ar   1 <0>      -0.1200
   15 C15      -6.4833    -0.8207     2.4763 C.ar   1 <0>      -0.1200
   16 N16      -2.8057    -3.9003     0.0079 N.3    1 <0>      -0.6300
   17 C17      -2.6648    -4.4104    -1.3625 C.3    1 <0>       0.0700
   18 H18      -2.0721    -3.7113    -1.9525 H      1 <0>       0.0700
   19 C19      -1.9698    -5.7715    -1.3324 C.3    1 <0>      -0.0800
   20 S20      -1.0655    -6.0496    -2.8739 S.3    1 <0>      -0.2300
   21 C21      -2.3396    -6.0486    -4.1578 C.3    1 <0>      -0.0300
   22 H22      -3.0745    -6.8228    -3.9372 H      1 <0>       0.1600
   23 C23      -1.7019    -6.3324    -5.4934 C.2    1 <0>      -0.1500
   24 C24      -2.0022    -7.3629    -6.2854 C.2    1 <0>      -0.1200
   25 C25      -1.2843    -7.4184    -7.4676 C.2    1 <0>      -0.1300
   26 C26      -0.4011    -6.4330    -7.6357 C.2    1 <0>      -0.2200
   27 S27      -0.4533    -5.3514    -6.2497 S.3    1 <0>       0.1000
   28 C28      -3.0375    -4.6900    -4.2133 C.3    1 <0>       0.1200
   29 N29      -4.1841    -4.6994    -3.2974 N.am   1 <0>      -0.5800
   30 C30      -5.5334    -4.8583    -3.8456 C.3    1 <0>       0.0400
   31 C31      -5.8820    -6.3232    -3.9054 C.2    1 <0>       0.4900
   32 O32      -5.0780    -7.1572    -3.5254 O.co2  1 <0>      -0.6800
   33 O33      -6.9682    -6.6744    -4.3338 O.co2  1 <0>      -0.7000
   34 C34      -4.0309    -4.5659    -1.9863 C.2    1 <0>       0.5100
   35 O35      -5.0107    -4.5724    -1.2715 O.2    1 <0>      -0.5100
   36 H36       1.0039     1.9031     0.0027 H      1 <0>       0.0800
   37 H37      -0.5459     1.8868    -0.8726 H      1 <0>       0.0700
   38 H38      -0.5289     1.8773     0.9072 H      1 <0>       0.0700
   39 H39       0.5123    -0.3556    -0.8948 H      1 <0>       0.0700
   40 H40       0.5293    -0.3651     0.8851 H      1 <0>       0.0700
   41 H41      -3.1482    -2.3880     2.1564 H      1 <0>       0.0700
   42 H42      -3.6382    -0.8911     1.3272 H      1 <0>       0.0800
   43 H43      -5.5843    -2.0725     0.3445 H      1 <0>       0.0700
   44 H44      -5.0943    -3.5694     1.1737 H      1 <0>       0.1000
   45 H45      -5.2970    -3.7768     3.5862 H      1 <0>       0.1200
   46 H46      -6.4903    -3.0453     5.6120 H      1 <0>       0.1200
   47 H47      -7.6819    -0.8905     5.6285 H      1 <0>       0.1200
   48 H48      -7.6795     0.5331     3.6194 H      1 <0>       0.1200
   49 H49      -6.4822    -0.1963     1.5951 H      1 <0>       0.1200
   50 H50      -2.0454    -4.2160     0.5912 H      1 <0>       0.3600
   51 H51      -1.2729    -5.8022    -0.4948 H      1 <0>       0.1200
   52 H52      -2.7166    -6.5552    -1.2059 H      1 <0>       0.1000
   53 H53      -2.7485    -8.0984    -6.0238 H      1 <0>       0.1500
   54 H54      -1.4282    -8.2005    -8.1984 H      1 <0>       0.1400
   55 H55       0.2446    -6.3153    -8.4933 H      1 <0>       0.1600
   56 H56      -2.3386    -3.9090    -3.9138 H      1 <0>       0.0800
   57 H57      -3.3842    -4.4998    -5.2290 H      1 <0>       0.0900
   58 H58      -6.2485    -4.3405    -3.2064 H      1 <0>       0.0900
   59 H59      -5.5700    -4.4349    -4.8493 H      1 <0>       0.0700
@<TRIPOS>BOND
   1    1    2 1
   2    1   36 1
   3    1   37 1
   4    1   38 1
   5    2    3 1
   6    2   39 1
   7    2   40 1
   8    3    4 1
   9    4    5 2
  10    4    6 1
  11    6    7 1
  12    6    8 1
  13    6   16 1
  14    8    9 1
  15    8   41 1
  16    8   42 1
  17    9   10 1
  18    9   43 1
  19    9   44 1
  20   10   15 ar
  21   10   11 ar
  22   11   12 ar
  23   11   45 1
  24   12   13 ar
  25   12   46 1
  26   13   14 ar
  27   13   47 1
  28   14   15 ar
  29   14   48 1
  30   15   49 1
  31   16   17 1
  32   16   50 1
  33   17   18 1
  34   17   34 1
  35   17   19 1
  36   19   20 1
  37   19   51 1
  38   19   52 1
  39   20   21 1
  40   21   22 1
  41   21   23 1
  42   21   28 1
  43   23   27 1
  44   23   24 2
  45   24   25 1
  46   24   53 1
  47   25   26 2
  48   25   54 1
  49   26   27 1
  50   26   55 1
  51   28   29 1
  52   28   56 1
  53   28   57 1
  54   29   30 1
  55   29   34 am
  56   30   31 1
  57   30   58 1
  58   30   59 1
  59   31   32 ar
  60   31   33 ar
  61   34   35 2
