@<TRIPOS>MOLECULE
ZINC000003197739
45    47    1     0     0
SMALL
USER_CHARGES
@<TRIPOS>ATOM
1      C1     -0.0178    1.4648    0.0101 C.3      1 ZINC000003197739    0.0100
2      N2      0.0021   -0.0041    0.0020 N.3      1 ZINC000003197739   -0.5100
3      C3     -1.3711   -0.5565    0.1460 C.3      1 ZINC000003197739    0.0600
4      H4     -2.0935   -0.0349   -0.4818 H        1 ZINC000003197739    0.0900
5      C5     -1.6865   -0.4026    1.6518 C.3      1 ZINC000003197739   -0.1800
6      C6     -0.3081   -0.3877    2.3448 C.3      1 ZINC000003197739    0.0700
7      H7     -0.2226   -1.2251    3.0373 H        1 ZINC000003197739    0.1100
8      O8     -0.1114    0.8485    3.0340 O.3      1 ZINC000003197739   -0.5700
9      C9      0.7149   -0.5340    1.1948 C.3      1 ZINC000003197739    0.0700
10     H10     1.6405    0.0054    1.3955 H        1 ZINC000003197739    0.1000
11     C11     0.9568   -2.0350    0.9689 C.3      1 ZINC000003197739   -0.1000
12     C12    -0.3954   -2.7507    0.9031 C.3      1 ZINC000003197739    0.0800
13     H13    -0.2395   -3.7967    0.6391 H        1 ZINC000003197739    0.0900
14     O14    -1.0473   -2.6715    2.1982 O.3      1 ZINC000003197739   -0.3200
15     C15    -1.8638   -3.6831    2.5323 C.2      1 ZINC000003197739    0.4600
16     O16    -2.0284   -4.6043    1.7680 O.2      1 ZINC000003197739   -0.5000
17     C17    -2.5752   -3.6699    3.8607 C.3      1 ZINC000003197739   -0.0400
18     H18    -3.2108   -2.7866    3.9237 H        1 ZINC000003197739    0.1200
19     C19    -1.5445   -3.6381    4.9910 C.3      1 ZINC000003197739    0.0900
20     O20    -0.8182   -2.4085    4.9389 O.3      1 ZINC000003197739   -0.5600
21     C21    -3.4231   -4.9091    3.9889 C.ar     1 ZINC000003197739   -0.0800
22     C22    -2.8327   -6.1582    3.9439 C.ar     1 ZINC000003197739   -0.0900
23     C23    -3.6105   -7.2950    4.0614 C.ar     1 ZINC000003197739   -0.1200
24     C24    -4.9786   -7.1826    4.2243 C.ar     1 ZINC000003197739   -0.1100
25     C25    -5.5689   -5.9334    4.2702 C.ar     1 ZINC000003197739   -0.1200
26     C26    -4.7906   -4.7966    4.1570 C.ar     1 ZINC000003197739   -0.1000
27     C27    -1.2956   -2.0563   -0.1819 C.3      1 ZINC000003197739   -0.1200
28     H28     1.0047    1.8421    0.0024 H        1 ZINC000003197739    0.0700
29     H29    -0.5450    1.8259   -0.8730 H        1 ZINC000003197739    0.0600
30     H30    -0.5280    1.8163    0.9069 H        1 ZINC000003197739    0.0400
31     H31    -2.2135    0.5337    1.8352 H        1 ZINC000003197739    0.0600
32     H32    -2.2788   -1.2474    2.0035 H        1 ZINC000003197739    0.0900
33     H33    -0.7558    1.0145    3.7357 H        1 ZINC000003197739    0.3800
34     H34     1.4932   -2.1813    0.0314 H        1 ZINC000003197739    0.1000
35     H35     1.5437   -2.4385    1.7941 H        1 ZINC000003197739    0.0800
36     H36    -2.0550   -3.7181    5.9507 H        1 ZINC000003197739    0.0700
37     H37    -0.8536   -4.4733    4.8763 H        1 ZINC000003197739    0.0500
38     H38    -0.1458   -2.3194    5.6281 H        1 ZINC000003197739    0.3900
39     H39    -1.7638   -6.2460    3.8167 H        1 ZINC000003197739    0.1200
40     H40    -3.1493   -8.2709    4.0256 H        1 ZINC000003197739    0.1200
41     H41    -5.5863   -8.0707    4.3154 H        1 ZINC000003197739    0.1200
42     H42    -6.6378   -5.8456    4.3971 H        1 ZINC000003197739    0.1300
43     H43    -5.2518   -3.8207    4.1928 H        1 ZINC000003197739    0.1200
44     H44    -2.2956   -2.4891   -0.1581 H        1 ZINC000003197739    0.0700
45     H45    -0.8561   -2.2023   -1.1687 H        1 ZINC000003197739    0.0900
@<TRIPOS>BOND
1     1     2     1
2     1     28    1
3     1     29    1
4     1     30    1
5     2     9     1
6     2     3     1
7     3     4     1
8     3     27    1
9     3     5     1
10    5     6     1
11    5     31    1
12    5     32    1
13    6     7     1
14    6     8     1
15    6     9     1
16    8     33    1
17    9     10    1
18    9     11    1
19    11    12    1
20    11    34    1
21    11    35    1
22    12    13    1
23    12    14    1
24    12    27    1
25    14    15    1
26    15    16    2
27    15    17    1
28    17    18    1
29    17    19    1
30    17    21    1
31    19    20    1
32    19    36    1
33    19    37    1
34    20    38    1
35    21    26    ar
36    21    22    ar
37    22    23    ar
38    22    39    1
39    23    24    ar
40    23    40    1
41    24    25    ar
42    24    41    1
43    25    26    ar
44    25    42    1
45    26    43    1
46    27    44    1
47    27    45    1
@<TRIPOS>SUBSTRUCTURE
1   ZINC000003197739 1     RESIDUE    1   A     ZIN   1
