@<TRIPOS>MOLECULE
ZINC000001545115
  32   31    0    0    0
SMALL
USER_CHARGES
NO_NAME
@<TRIPOS>ATOM
    1 C1       -0.0187     1.5258     0.0104 C.3    1 <0>      -0.1500
    2 C2        0.0021    -0.0041     0.0020 C.3    1 <0>      -0.1100
    3 C3       -1.4333    -0.5336     0.0129 C.3    1 <0>      -0.1200
    4 C4       -1.4129    -2.0405     0.0046 C.2    1 <0>       0.4600
    5 O5       -0.3584    -2.6303    -0.0086 O.2    1 <0>      -0.4900
    6 O6       -2.5661    -2.7274     0.0119 O.3    1 <0>      -0.3600
    7 C7       -2.4704    -4.1762     0.0032 C.3    1 <0>       0.2300
    8 O8       -2.0724    -4.6429     1.3193 O.3    1 <0>      -0.3500
    9 C9       -3.0075    -4.6215     2.2820 C.2    1 <0>       0.4700
   10 O10      -4.1217    -4.2259     2.0333 O.2    1 <0>      -0.4900
   11 C11      -2.6677    -5.0909     3.6732 C.3    1 <0>      -0.0600
   12 C12      -3.9008    -4.9638     4.5698 C.3    1 <0>      -0.1400
   13 C13      -2.2220    -6.5537     3.6232 C.3    1 <0>      -0.1400
   14 C14      -1.5351    -4.2317     4.2388 C.3    1 <0>      -0.1400
   15 H15       1.0039     1.9031     0.0027 H      1 <0>       0.0600
   16 H16      -0.5459     1.8868    -0.8726 H      1 <0>       0.0600
   17 H17      -0.5289     1.8773     0.9072 H      1 <0>       0.0600
   18 H18       0.5123    -0.3556    -0.8948 H      1 <0>       0.0700
   19 H19       0.5293    -0.3651     0.8851 H      1 <0>       0.0700
   20 H20      -1.9435    -0.1821     0.9097 H      1 <0>       0.1100
   21 H21      -1.9605    -0.1726    -0.8702 H      1 <0>       0.1100
   22 H22      -3.4395    -4.6028    -0.2558 H      1 <0>       0.1200
   23 H23      -1.7284    -4.4869    -0.7322 H      1 <0>       0.1300
   24 H24      -4.7077    -5.5758     4.1668 H      1 <0>       0.0700
   25 H25      -3.6550    -5.3032     5.5760 H      1 <0>       0.0700
   26 H26      -4.2183    -3.9216     4.6054 H      1 <0>       0.0700
   27 H27      -1.3434    -6.6442     2.9844 H      1 <0>       0.0700
   28 H28      -1.9762    -6.8932     4.6294 H      1 <0>       0.0800
   29 H29      -3.0289    -7.1657     3.2202 H      1 <0>       0.0600
   30 H30      -1.8526    -3.1896     4.2744 H      1 <0>       0.0600
   31 H31      -1.2892    -4.5712     5.2450 H      1 <0>       0.0800
   32 H32      -0.6565    -4.3222     3.6000 H      1 <0>       0.0700
@<TRIPOS>BOND
   1    1    2 1
   2    1   15 1
   3    1   16 1
   4    1   17 1
   5    2    3 1
   6    2   18 1
   7    2   19 1
   8    3    4 1
   9    3   20 1
  10    3   21 1
  11    4    5 2
  12    4    6 1
  13    6    7 1
  14    7    8 1
  15    7   22 1
  16    7   23 1
  17    8    9 1
  18    9   10 2
  19    9   11 1
  20   11   12 1
  21   11   13 1
  22   11   14 1
  23   12   24 1
  24   12   25 1
  25   12   26 1
  26   13   27 1
  27   13   28 1
  28   13   29 1
  29   14   30 1
  30   14   31 1
  31   14   32 1
