@<TRIPOS>MOLECULE
ZINC000000005014
34    37    1     0     0
SMALL
USER_CHARGES
@<TRIPOS>ATOM
1      O1      0.0021   -0.0041    0.0020 O.2      1 ZINC000000005014   -0.4400
2      C2     -0.0144    1.2130    0.0087 C.2      1 ZINC000000005014    0.4800
3      C3      1.2426    1.9617    0.0007 C.2      1 ZINC000000005014   -0.3100
4      C4      2.5451    1.4183   -0.0203 C.2      1 ZINC000000005014    0.3200
5      N5      2.9945    0.1647   -0.0383 N.2      1 ZINC000000005014   -0.4500
6      C6      4.2838   -0.0995   -0.0568 C.2      1 ZINC000000005014    0.1900
7      C7      5.2142    0.9405   -0.0575 C.2      1 ZINC000000005014   -0.2000
8      C8      4.7616    2.2457   -0.0390 C.2      1 ZINC000000005014    0.2400
9      C9      5.7169    3.3738   -0.0395 C.ar     1 ZINC000000005014   -0.0300
10     C10     5.8122    4.2366    1.0588 C.ar     1 ZINC000000005014   -0.1300
11     C11     6.7179    5.2769    1.0154 C.ar     1 ZINC000000005014    0.1100
12     N12     7.4857    5.4631   -0.0408 N.ar     1 ZINC000000005014   -0.4700
13     C13     7.4282    4.6742   -1.0963 C.ar     1 ZINC000000005014    0.1100
14     C14     6.5558    3.6058   -1.1360 C.ar     1 ZINC000000005014   -0.1400
15     N15     3.4097    2.4754   -0.0205 N.pl3    1 ZINC000000005014   -0.3000
16     N16     2.6580    3.6548    0.0008 N.2      1 ZINC000000005014   -0.3100
17     C17     1.3848    3.3628    0.0064 C.2      1 ZINC000000005014    0.1600
18     C18    -1.3076    1.9363    0.0188 C.ar     1 ZINC000000005014    0.0700
19     C19    -2.5011    1.2176    0.0263 C.ar     1 ZINC000000005014   -0.1200
20     C20    -3.7026    1.9082    0.0362 C.ar     1 ZINC000000005014   -0.0800
21     C21    -3.6689    3.2940    0.0381 C.ar     1 ZINC000000005014   -0.1500
22     C22    -2.4451    3.9438    0.0302 C.ar     1 ZINC000000005014    0.1000
23     N23    -1.3192    3.2638    0.0260 N.ar     1 ZINC000000005014   -0.4600
24     H24     4.6229   -1.1248   -0.0712 H        1 ZINC000000005014    0.1900
25     H25     6.2730    0.7281   -0.0719 H        1 ZINC000000005014    0.1800
26     H26     5.1862    4.0906    1.9266 H        1 ZINC000000005014    0.1400
27     H27     6.7989    5.9480    1.8577 H        1 ZINC000000005014    0.1700
28     H28     8.0761    4.8644   -1.9392 H        1 ZINC000000005014    0.1700
29     H29     6.5144    2.9638   -2.0035 H        1 ZINC000000005014    0.1400
30     H30     0.5753    4.0776    0.0214 H        1 ZINC000000005014    0.2300
31     H31    -2.4901    0.1377    0.0242 H        1 ZINC000000005014    0.1500
32     H32    -4.6439    1.3787    0.0418 H        1 ZINC000000005014    0.1400
33     H33    -4.5877    3.8617    0.0453 H        1 ZINC000000005014    0.1400
34     H34    -2.4152    5.0234    0.0317 H        1 ZINC000000005014    0.1700
@<TRIPOS>BOND
1     1     2     2
2     2     3     1
3     2     18    1
4     3     17    1
5     3     4     2
6     4     15    1
7     4     5     1
8     5     6     2
9     6     7     1
10    6     24    1
11    7     8     2
12    7     25    1
13    8     9     1
14    8     15    1
15    9     14    ar
16    9     10    ar
17    10    11    ar
18    10    26    1
19    11    12    ar
20    11    27    1
21    12    13    ar
22    13    14    ar
23    13    28    1
24    14    29    1
25    15    16    1
26    16    17    2
27    17    30    1
28    18    23    ar
29    18    19    ar
30    19    20    ar
31    19    31    1
32    20    21    ar
33    20    32    1
34    21    22    ar
35    21    33    1
36    22    23    ar
37    22    34    1
@<TRIPOS>SUBSTRUCTURE
1   ZINC000000005014 1     RESIDUE    1   A     ZIN   1
