@<TRIPOS>MOLECULE
ZINC000000057368
  26   26    0    0    0
SMALL
NO_CHARGES


@<TRIPOS>ATOM
   1 C1            -0.0194     1.5241     0.0234 C.3     
   2 C2             0.0025    -0.0056     0.0054 C.3     
   3 C3             0.7475    -0.5195     1.2390 C.3     
   4 O4            -1.3592    -0.5094     0.0176 O.3     
   5 C5            -1.5801    -1.6889    -0.5931 C.2     
   6 O6            -0.6601    -2.2811    -1.1218 O.2     
   7 N7            -2.8217    -2.2128    -0.6181 N.am    
   8 C8            -3.0707    -3.3888    -1.3347 C.ar    
   9 C9            -4.2837    -3.5616    -1.9880 C.ar    
  10 C10           -4.5272    -4.7233    -2.6947 C.ar    
  11 C11           -3.5649    -5.7142    -2.7519 C.ar    
  12 C12           -2.3547    -5.5457    -2.1015 C.ar    
  13 Cl13          -1.1490    -6.7925    -2.1759 Cl      
  14 C14           -2.1030    -4.3827    -1.3985 C.ar    
  15 H15            1.0028     1.9023     0.0143 H       
  16 H16           -0.5501     1.8903    -0.8554 H       
  17 H17           -0.5266     1.8696     0.9242 H       
  18 H18            0.5097    -0.3511    -0.8954 H       
  19 H19            0.2403    -0.1740     2.1399 H       
  20 H20            0.7631    -1.6093     1.2262 H       
  21 H21            1.7697    -0.1414     1.2299 H       
  22 H22           -3.5426    -1.7747    -0.1393 H       
  23 H23           -5.0364    -2.7884    -1.9434 H       
  24 H24           -5.4706    -4.8577    -3.2029 H       
  25 H25           -3.7579    -6.6216    -3.3048 H       
  26 H26           -1.1587    -4.2512    -0.8911 H       
@<TRIPOS>BOND
   1    1    2 1
   2    1   15 1
   3    1   16 1
   4    1   17 1
   5    2    3 1
   6    2    4 1
   7    2   18 1
   8    3   19 1
   9    3   20 1
  10    3   21 1
  11    4    5 1
  12    5    6 2
  13    5    7 am
  14    7    8 1
  15    7   22 1
  16    8   14 ar
  17    8    9 ar
  18    9   10 ar
  19    9   23 1
  20   10   11 ar
  21   10   24 1
  22   11   12 ar
  23   11   25 1
  24   12   13 1
  25   12   14 ar
  26   14   26 1


