@<TRIPOS>MOLECULE
ZINC000006093612
  28   30    0    0    0
SMALL
USER_CHARGES
NO_NAME
@<TRIPOS>ATOM
    1 N1       -0.0167     1.3786     0.0096 N.pl3  1 <0>      -0.8300
    2 C2        0.0021    -0.0041     0.0020 C.2    1 <0>       0.5100
    3 N3       -1.0571    -0.7726     0.0023 N.2    1 <0>      -0.4700
    4 C4       -0.6661    -2.0744    -0.0073 C.2    1 <0>      -0.1200
    5 C5        0.7316    -2.0905    -0.0138 C.2    1 <0>       0.3000
    6 N6        1.3814    -3.2605    -0.0237 N.2    1 <0>      -0.5700
    7 C7        0.7274    -4.4005    -0.0275 C.2    1 <0>       0.6500
    8 N8        1.4365    -5.5764    -0.0378 N.pl3  1 <0>      -0.8200
    9 N9       -0.6347    -4.4485    -0.0211 N.am   1 <0>      -0.6500
   10 C10      -1.3573    -3.3066    -0.0110 C.2    1 <0>       0.5900
   11 O11      -2.5766    -3.3390    -0.0048 O.2    1 <0>      -0.5100
   12 N12       1.1310    -0.7773    -0.0129 N.pl3  1 <0>      -0.4700
   13 C13       2.5133    -0.2922    -0.0191 C.3    1 <0>       0.1900
   14 C14       2.9799    -0.1227    -1.4420 C.2    1 <0>      -0.2200
   15 C15       2.8618     0.9939    -2.1620 C.2    1 <0>      -0.1100
   16 C16       3.3646     0.9138    -3.4492 C.2    1 <0>      -0.1400
   17 C17       3.8910    -0.2679    -3.7745 C.2    1 <0>      -0.2100
   18 S18       3.7702    -1.3645    -2.4046 S.3    1 <0>       0.1400
   19 H19       0.8167     1.8750     0.0043 H      1 <0>       0.4100
   20 H20      -0.8632     1.8521     0.0162 H      1 <0>       0.4300
   21 H21       2.4063    -5.5580    -0.0421 H      1 <0>       0.4300
   22 H22       0.9676    -6.4255    -0.0407 H      1 <0>       0.4200
   23 H23      -1.0875    -5.3063    -0.0238 H      1 <0>       0.4200
   24 H24       2.5642     0.6667     0.4967 H      1 <0>       0.1100
   25 H25       3.1536    -1.0128     0.4898 H      1 <0>       0.1100
   26 H26       2.4080     1.8923    -1.7706 H      1 <0>       0.1400
   27 H27       3.3328     1.7449    -4.1381 H      1 <0>       0.1400
   28 H28       4.3279    -0.5127    -4.7313 H      1 <0>       0.1700
@<TRIPOS>BOND
   1    1    2 1
   2    1   19 1
   3    1   20 1
   4    2   12 1
   5    2    3 2
   6    3    4 1
   7    4   10 1
   8    4    5 2
   9    5    6 1
  10    5   12 1
  11    6    7 2
  12    7    8 1
  13    7    9 1
  14    8   21 1
  15    8   22 1
  16    9   10 am
  17    9   23 1
  18   10   11 2
  19   12   13 1
  20   13   14 1
  21   13   24 1
  22   13   25 1
  23   14   18 1
  24   14   15 2
  25   15   16 1
  26   15   26 1
  27   16   17 2
  28   16   27 1
  29   17   18 1
  30   17   28 1
