@<TRIPOS>MOLECULE
ZINC000003785119
56    56    1     0     0
SMALL
USER_CHARGES
@<TRIPOS>ATOM
1      C1      0.2023    0.7127    1.5815 C.3      1 ZINC000003785119   -0.1500
2      C2      0.2341   -0.7886    1.2882 C.3      1 ZINC000003785119    0.0600
3      O3      0.8199   -1.0136   -0.0212 O.3      1 ZINC000003785119   -0.3500
4      C4      0.9216   -2.2872   -0.4326 C.2      1 ZINC000003785119    0.4600
5      O5      0.5340   -3.1844    0.2779 O.2      1 ZINC000003785119   -0.5000
6      C6      1.5193   -2.5982   -1.7806 C.3      1 ZINC000003785119    0.1600
7      H7      2.5433   -2.2268   -1.8184 H        1 ZINC000003785119    0.1300
8      C8      0.6905   -1.9216   -2.8743 C.3      1 ZINC000003785119   -0.1100
9      C9      1.3663   -2.1329   -4.2306 C.3      1 ZINC000003785119   -0.0700
10     S10     0.3837   -1.3306   -5.5273 S.3      1 ZINC000003785119   -0.2700
11     C11     1.3293   -1.6854   -7.0341 C.3      1 ZINC000003785119   -0.1200
12     N12     1.5175   -4.0478   -1.9929 N.am     1 ZINC000003785119   -0.7200
13     C13     2.4095   -4.6067   -2.8345 C.2      1 ZINC000003785119    0.5300
14     O14     3.2137   -3.9096   -3.4161 O.2      1 ZINC000003785119   -0.5100
15     C15     2.4077   -6.0978   -3.0529 C.3      1 ZINC000003785119   -0.0900
16     H16     2.5874   -6.6041   -2.1045 H        1 ZINC000003785119    0.1100
17     C17     1.0507   -6.5296   -3.6124 C.3      1 ZINC000003785119   -0.1000
18     S18     0.9876   -8.3356   -3.7153 S.3      1 ZINC000003785119   -0.1200
19     C19    -0.5290   -8.5367   -4.4837 C.2      1 ZINC000003785119    0.3300
20     C20    -1.0389   -9.9205   -4.7939 C.3      1 ZINC000003785119   -0.1800
21     O21    -1.1934   -7.5652   -4.7785 O.2      1 ZINC000003785119   -0.4500
22     C22     3.5105   -6.4691   -4.0463 C.3      1 ZINC000003785119   -0.0600
23     C23     4.8570   -6.1941   -3.4280 C.ar     1 ZINC000003785119   -0.0900
24     C24     5.5754   -5.0754   -3.8058 C.ar     1 ZINC000003785119   -0.0800
25     C25     6.8107   -4.8231   -3.2385 C.ar     1 ZINC000003785119   -0.1300
26     C26     7.3270   -5.6893   -2.2932 C.ar     1 ZINC000003785119   -0.1200
27     C27     6.6080   -6.8078   -1.9146 C.ar     1 ZINC000003785119   -0.1300
28     C28     5.3711   -7.0577   -2.4786 C.ar     1 ZINC000003785119   -0.0800
29     C29     4.5873   -8.2769   -2.0659 C.3      1 ZINC000003785119   -0.1200
30     H30     1.2181    1.1078    1.5651 H        1 ZINC000003785119    0.0700
31     H31    -0.3964    1.2183    0.8238 H        1 ZINC000003785119    0.0700
32     H32    -0.2375    0.8817    2.5644 H        1 ZINC000003785119    0.0800
33     H33     0.8328   -1.2941    2.0459 H        1 ZINC000003785119    0.0700
34     H34    -0.7816   -1.1836    1.3046 H        1 ZINC000003785119    0.0700
35     H35    -0.3087   -2.3567   -2.8945 H        1 ZINC000003785119    0.0800
36     H36     0.6178   -0.8540   -2.6669 H        1 ZINC000003785119    0.1000
37     H37     2.3655   -1.6978   -4.2103 H        1 ZINC000003785119    0.0900
38     H38     1.4390   -3.2005   -4.4379 H        1 ZINC000003785119    0.0900
39     H39     1.4029   -2.7642   -7.1713 H        1 ZINC000003785119    0.0800
40     H40     0.8237   -1.2436   -7.8928 H        1 ZINC000003785119    0.1000
41     H41     2.3294   -1.2615   -6.9437 H        1 ZINC000003785119    0.0800
42     H42     0.8743   -4.6053   -1.5277 H        1 ZINC000003785119    0.4100
43     H43     0.2570   -6.1752   -2.9547 H        1 ZINC000003785119    0.1000
44     H44     0.9157   -6.1041   -4.6068 H        1 ZINC000003785119    0.1100
45     H45    -1.6222  -10.2903   -3.9507 H        1 ZINC000003785119    0.1100
46     H46    -1.6682   -9.8849   -5.6832 H        1 ZINC000003785119    0.1000
47     H47    -0.1951  -10.5871   -4.9723 H        1 ZINC000003785119    0.0900
48     H48     3.4342   -7.5276   -4.2949 H        1 ZINC000003785119    0.0900
49     H49     3.3985   -5.8740   -4.9526 H        1 ZINC000003785119    0.0800
50     H50     5.1720   -4.3986   -4.5444 H        1 ZINC000003785119    0.1300
51     H51     7.3725   -3.9494   -3.5342 H        1 ZINC000003785119    0.1200
52     H52     8.2923   -5.4926   -1.8506 H        1 ZINC000003785119    0.1200
53     H53     7.0115   -7.4848   -1.1763 H        1 ZINC000003785119    0.1200
54     H54     3.8783   -8.0055   -1.2838 H        1 ZINC000003785119    0.0700
55     H55     4.0460   -8.6694   -2.9267 H        1 ZINC000003785119    0.0700
56     H56     5.2707   -9.0377   -1.6888 H        1 ZINC000003785119    0.0700
@<TRIPOS>BOND
1     1     2     1
2     1     30    1
3     1     31    1
4     1     32    1
5     2     3     1
6     2     33    1
7     2     34    1
8     3     4     1
9     4     5     2
10    4     6     1
11    6     7     1
12    6     8     1
13    6     12    1
14    8     9     1
15    8     35    1
16    8     36    1
17    9     10    1
18    9     37    1
19    9     38    1
20    10    11    1
21    11    39    1
22    11    40    1
23    11    41    1
24    12    13    am
25    12    42    1
26    13    14    2
27    13    15    1
28    15    16    1
29    15    17    1
30    15    22    1
31    17    18    1
32    17    43    1
33    17    44    1
34    18    19    1
35    19    20    1
36    19    21    2
37    20    45    1
38    20    46    1
39    20    47    1
40    22    23    1
41    22    48    1
42    22    49    1
43    23    28    ar
44    23    24    ar
45    24    25    ar
46    24    50    1
47    25    26    ar
48    25    51    1
49    26    27    ar
50    26    52    1
51    27    28    ar
52    27    53    1
53    28    29    1
54    29    54    1
55    29    55    1
56    29    56    1
@<TRIPOS>SUBSTRUCTURE
1   ZINC000003785119 1     RESIDUE    1   A     ZIN   1
