@<TRIPOS>MOLECULE
ZINC000043203641
58    61    1     0     0
SMALL
USER_CHARGES
@<TRIPOS>ATOM
1      C1     -0.0173    1.4248    0.0099 C.3      1 ZINC000043203641    0.0200
2      O2      0.0021   -0.0041    0.0020 O.3      1 ZINC000043203641   -0.3100
3      C3     -1.2003   -0.6375    0.0101 C.ar     1 ZINC000043203641    0.0700
4      C4     -1.2632   -2.0283    0.0090 C.ar     1 ZINC000043203641   -0.1000
5      C5     -2.5076   -2.6321    0.0174 C.ar     1 ZINC000043203641   -0.1300
6      C6     -3.6493   -1.8330    0.0266 C.ar     1 ZINC000043203641    0.1500
7      C7     -4.9894   -2.4677    0.0361 C.ar     1 ZINC000043203641   -0.1000
8      C8     -5.1042   -3.8571    0.0417 C.ar     1 ZINC000043203641   -0.0600
9      C9     -6.3517   -4.4444    0.0510 C.ar     1 ZINC000043203641   -0.1500
10     C10    -7.4929   -3.6535    0.0549 C.ar     1 ZINC000043203641    0.1500
11     O11    -8.7207   -4.2350    0.0641 O.3      1 ZINC000043203641   -0.3000
12     C12    -9.8520   -3.3620    0.0676 C.3      1 ZINC000043203641    0.1400
13     C13   -11.1177   -4.1800    0.0778 C.2      1 ZINC000043203641   -0.2000
14     C14   -12.3819   -3.7027    0.0780 C.2      1 ZINC000043203641   -0.0100
15     C15   -12.7702   -2.2466    0.0680 C.3      1 ZINC000043203641   -0.0700
16     O16   -13.2329   -4.7368    0.0882 O.3      1 ZINC000043203641   -0.1300
17     C17   -12.5347   -5.8912    0.0947 C.2      1 ZINC000043203641    0.0100
18     C18   -13.1041   -7.2427    0.1059 C.2      1 ZINC000043203641    0.6000
19     O19   -12.3692   -8.2126    0.1105 O.2      1 ZINC000043203641   -0.6100
20     N20   -14.4414   -7.4104    0.1111 N.pl3    1 ZINC000043203641   -1.1000
21     S21   -15.0844   -8.9365    0.1238 S.o2     1 ZINC000043203641    2.6500
22     O22   -14.7423   -9.5264   -1.1229 O.2      1 ZINC000043203641   -1.0200
23     O23   -14.7347   -9.5089    1.3765 O.2      1 ZINC000043203641   -1.0100
24     C24   -16.8379   -8.7636    0.1279 C.ar     1 ZINC000043203641   -0.6300
25     C25   -17.5790   -9.2119   -0.9492 C.ar     1 ZINC000043203641   -0.0300
26     C26   -18.9549   -9.0763   -0.9460 C.ar     1 ZINC000043203641   -0.1600
27     C27   -19.5893   -8.4927    0.1345 C.ar     1 ZINC000043203641   -0.0800
28     C28   -18.8480   -8.0451    1.2122 C.ar     1 ZINC000043203641   -0.1500
29     C29   -17.4729   -8.1846    1.2109 C.ar     1 ZINC000043203641    0.0300
30     C30   -16.6649   -7.6966    2.3857 C.3      1 ZINC000043203641   -0.1500
31     C31   -11.2050   -5.5809    0.0828 C.2      1 ZINC000043203641   -0.1500
32     C32    -7.3819   -2.2694    0.0498 C.ar     1 ZINC000043203641   -0.2200
33     C33    -6.1371   -1.6762    0.0453 C.ar     1 ZINC000043203641   -0.0400
34     N34    -3.5492   -0.5099    0.0273 N.ar     1 ZINC000043203641   -0.4500
35     C35    -2.3792    0.0950    0.0253 C.ar     1 ZINC000043203641    0.0300
36     H36     1.0053    1.8021    0.0021 H        1 ZINC000043203641    0.1000
37     H37    -0.5445    1.7859   -0.8732 H        1 ZINC000043203641    0.0600
38     H38    -0.5275    1.7763    0.9067 H        1 ZINC000043203641    0.0600
39     H39    -0.3612   -2.6221    0.0014 H        1 ZINC000043203641    0.1400
40     H40    -2.5934   -3.7086    0.0164 H        1 ZINC000043203641    0.1500
41     H41    -4.2169   -4.4729    0.0383 H        1 ZINC000043203641    0.1300
42     H42    -6.4413   -5.5206    0.0550 H        1 ZINC000043203641    0.1400
43     H43    -9.8206   -2.7301    0.9552 H        1 ZINC000043203641    0.0700
44     H44    -9.8309   -2.7364   -0.8248 H        1 ZINC000043203641    0.0700
45     H45   -12.8670   -1.9035   -0.9621 H        1 ZINC000043203641    0.0800
46     H46   -13.7222   -2.1209    0.5838 H        1 ZINC000043203641    0.0800
47     H47   -12.0023   -1.6623    0.5749 H        1 ZINC000043203641    0.0800
48     H48   -17.0833   -9.6679   -1.7934 H        1 ZINC000043203641    0.1400
49     H49   -19.5340   -9.4260   -1.7879 H        1 ZINC000043203641    0.1200
50     H50   -20.6640   -8.3861    0.1367 H        1 ZINC000043203641    0.1200
51     H51   -19.3437   -7.5888    2.0563 H        1 ZINC000043203641    0.1200
52     H52   -16.5631   -8.4999    3.1154 H        1 ZINC000043203641    0.0800
53     H53   -15.6767   -7.3886    2.0441 H        1 ZINC000043203641    0.1000
54     H54   -17.1706   -6.8484    2.8472 H        1 ZINC000043203641    0.0700
55     H55   -10.3803   -6.2782    0.0840 H        1 ZINC000043203641    0.1600
56     H56    -8.2713   -1.6569    0.0528 H        1 ZINC000043203641    0.1300
57     H57    -6.0514   -0.5997    0.0414 H        1 ZINC000043203641    0.1400
58     H58    -2.3367    1.1741    0.0260 H        1 ZINC000043203641    0.1600
@<TRIPOS>BOND
1     1     2     1
2     1     36    1
3     1     37    1
4     1     38    1
5     2     3     1
6     3     35    ar
7     3     4     ar
8     4     5     ar
9     4     39    1
10    5     6     ar
11    5     40    1
12    6     7     1
13    6     34    ar
14    7     33    ar
15    7     8     ar
16    8     9     ar
17    8     41    1
18    9     10    ar
19    9     42    1
20    10    11    1
21    10    32    ar
22    11    12    1
23    12    13    1
24    12    43    1
25    12    44    1
26    13    31    1
27    13    14    2
28    14    15    1
29    14    16    1
30    15    45    1
31    15    46    1
32    15    47    1
33    16    17    1
34    17    18    1
35    17    31    2
36    18    19    2
37    18    20    1
38    20    21    1
39    21    22    2
40    21    23    2
41    21    24    1
42    24    29    ar
43    24    25    ar
44    25    26    ar
45    25    48    1
46    26    27    ar
47    26    49    1
48    27    28    ar
49    27    50    1
50    28    29    ar
51    28    51    1
52    29    30    1
53    30    52    1
54    30    53    1
55    30    54    1
56    31    55    1
57    32    33    ar
58    32    56    1
59    33    57    1
60    34    35    ar
61    35    58    1
@<TRIPOS>SUBSTRUCTURE
1   ZINC000043203641 1     RESIDUE    1   A     ZIN   1
