@<TRIPOS>MOLECULE
ZINC000013675264
  50   53    0    0    0
SMALL
USER_CHARGES
NO_NAME
@<TRIPOS>ATOM
    1 C1        1.1010    -1.7150     1.1335 C.3    1 <0>      -0.1600
    2 C2        0.8590    -2.7434     0.0268 C.3    1 <0>      -0.1200
    3 C3       -0.4954    -3.4201     0.2466 C.3    1 <0>      -0.0900
    4 C4       -0.5184    -4.0785     1.6275 C.3    1 <0>      -0.1200
    5 C5        0.5116    -5.2091     1.6706 C.3    1 <0>      -0.1500
    6 C6       -1.6082    -2.3734     0.1622 C.3    1 <0>       0.2100
    7 H7       -1.4523    -1.6147     0.9291 H      1 <0>       0.1100
    8 C8       -2.9423    -3.0399     0.3788 C.ar   1 <0>      -0.1300
    9 C9       -3.8308    -2.5210     1.3027 C.ar   1 <0>      -0.0700
   10 C10      -5.0541    -3.1296     1.5039 C.ar   1 <0>      -0.1200
   11 C11      -5.3917    -4.2640     0.7767 C.ar   1 <0>       0.1800
   12 N12      -6.6293    -4.8823     0.9776 N.pl3  1 <0>      -0.6300
   13 C13      -7.7211    -4.1316     1.3673 C.2    1 <0>       0.3600
   14 N14      -7.7302    -2.8471     1.4756 N.2    1 <0>      -0.5200
   15 C15      -8.8761    -2.2557     1.8679 C.ar   1 <0>       0.1200
   16 C16      -9.1404    -0.8834     2.0604 C.ar   1 <0>      -0.0800
   17 C17     -10.3823    -0.4651     2.4677 C.ar   1 <0>      -0.1000
   18 C18     -11.3963    -1.3830     2.6969 C.ar   1 <0>      -0.1100
   19 C19     -11.1612    -2.7281     2.5153 C.ar   1 <0>      -0.0600
   20 C20      -9.9075    -3.1705     2.1020 C.ar   1 <0>      -0.1900
   21 S21      -9.2978    -4.7916     1.7785 S.3    1 <0>       0.0600
   22 C22      -4.4970    -4.7823    -0.1509 C.ar   1 <0>      -0.1400
   23 C23      -3.2776    -4.1657    -0.3509 C.ar   1 <0>      -0.0800
   24 N24      -1.5862    -1.7429    -1.1600 N.pl3  1 <0>      -0.3700
   25 C25      -2.1553    -2.2098    -2.2848 C.2    1 <0>       0.2500
   26 N26      -1.9103    -1.3583    -3.2474 N.2    1 <0>      -0.5500
   27 C27      -1.1909    -0.3399    -2.7778 C.2    1 <0>       0.1900
   28 N28      -0.9716    -0.5275    -1.5029 N.2    1 <0>      -0.3100
   29 H29       2.0836    -1.2623     1.0003 H      1 <0>       0.0500
   30 H30       0.3349    -0.9412     1.0843 H      1 <0>       0.0600
   31 H31       1.0569    -2.2088     2.1042 H      1 <0>       0.0600
   32 H32       0.8621    -2.2427    -0.9414 H      1 <0>       0.0600
   33 H33       1.6485    -3.4946     0.0499 H      1 <0>       0.0700
   34 H34      -0.6513    -4.1787    -0.5203 H      1 <0>       0.0800
   35 H35      -0.2753    -3.3365     2.3880 H      1 <0>       0.0700
   36 H36      -1.5116    -4.4843     1.8201 H      1 <0>       0.0700
   37 H37       0.5444    -5.6326     2.6744 H      1 <0>       0.0600
   38 H38       0.2299    -5.9845     0.9581 H      1 <0>       0.0500
   39 H39       1.4941    -4.8157     1.4099 H      1 <0>       0.0600
   40 H40      -3.5677    -1.6390     1.8678 H      1 <0>       0.1300
   41 H41      -5.7472    -2.7243     2.2262 H      1 <0>       0.1400
   42 H42      -6.7211    -5.8385     0.8434 H      1 <0>       0.4300
   43 H43      -8.3601    -0.1573     1.8864 H      1 <0>       0.1300
   44 H44     -10.5716     0.5884     2.6114 H      1 <0>       0.1400
   45 H45     -12.3700    -1.0433     3.0179 H      1 <0>       0.1400
   46 H46     -11.9518    -3.4418     2.6945 H      1 <0>       0.1300
   47 H47      -4.7564    -5.6641    -0.7179 H      1 <0>       0.1300
   48 H48      -2.5815    -4.5682    -1.0720 H      1 <0>       0.1300
   49 H49      -2.7163    -3.1280    -2.3778 H      1 <0>       0.2100
   50 H50      -0.8482     0.5057    -3.3557 H      1 <0>       0.2200
@<TRIPOS>BOND
   1    1    2 1
   2    1   29 1
   3    1   30 1
   4    1   31 1
   5    2    3 1
   6    2   32 1
   7    2   33 1
   8    3    4 1
   9    3    6 1
  10    3   34 1
  11    4    5 1
  12    4   35 1
  13    4   36 1
  14    5   37 1
  15    5   38 1
  16    5   39 1
  17    6    7 1
  18    6    8 1
  19    6   24 1
  20    8   23 ar
  21    8    9 ar
  22    9   10 ar
  23    9   40 1
  24   10   11 ar
  25   10   41 1
  26   11   12 1
  27   11   22 ar
  28   12   13 1
  29   12   42 1
  30   13   21 1
  31   13   14 2
  32   14   15 1
  33   15   20 ar
  34   15   16 ar
  35   16   17 ar
  36   16   43 1
  37   17   18 ar
  38   17   44 1
  39   18   19 ar
  40   18   45 1
  41   19   20 ar
  42   19   46 1
  43   20   21 1
  44   22   23 ar
  45   22   47 1
  46   23   48 1
  47   24   28 1
  48   24   25 1
  49   25   26 2
  50   25   49 1
  51   26   27 1
  52   27   28 2
  53   27   50 1
