@<TRIPOS>MOLECULE
ZINC000002516018
41    44    1     0     0
SMALL
USER_CHARGES
@<TRIPOS>ATOM
1      C1     -0.4916    1.3983   -0.3666 C.3      1 ZINC000002516018    0.0200
2      N2     -0.2385   -0.0378   -0.1892 N.3      1 ZINC000002516018   -0.5400
3      C3     -1.4322   -0.8275   -0.5198 C.3      1 ZINC000002516018    0.0400
4      C4     -1.0767   -2.3180   -0.4981 C.3      1 ZINC000002516018    0.1300
5      N5     -0.4627   -2.6330    0.8007 N.pl3    1 ZINC000002516018   -0.5900
6      C6     -0.9225   -3.6882    1.5653 C.2      1 ZINC000002516018    0.5000
7      N7     -2.1456   -4.1399    1.3950 N.2      1 ZINC000002516018   -0.5700
8      C8     -2.6253   -5.1764    2.1318 C.ar     1 ZINC000002516018    0.1500
9      C9     -3.9328   -5.6317    1.9238 C.ar     1 ZINC000002516018   -0.0400
10     C10    -4.4214   -6.6818    2.6686 C.ar     1 ZINC000002516018   -0.1700
11     C11    -5.8292   -7.1692    2.4418 C.3      1 ZINC000002516018    0.5100
12     F12    -5.8247   -8.1690    1.4633 F        1 ZINC000002516018   -0.1700
13     F13    -6.3412   -7.6878    3.6360 F        1 ZINC000002516018   -0.1700
14     F14    -6.6288   -6.1032    2.0156 F        1 ZINC000002516018   -0.1700
15     C15    -3.6267   -7.2938    3.6250 C.ar     1 ZINC000002516018   -0.0700
16     C16    -2.3352   -6.8572    3.8427 C.ar     1 ZINC000002516018   -0.1100
17     C17    -1.8257   -5.8002    3.1022 C.ar     1 ZINC000002516018    0.0800
18     N18    -0.5240   -5.3565    3.3180 N.pl3    1 ZINC000002516018   -0.3600
19     C19     0.4574   -5.7556    4.1656 C.2      1 ZINC000002516018    0.0100
20     C20     1.5504   -4.9788    3.9686 C.2      1 ZINC000002516018   -0.1700
21     C21     1.2474   -4.0570    2.9609 C.2      1 ZINC000002516018   -0.1400
22     C22    -0.0468   -4.3070    2.5601 C.2      1 ZINC000002516018   -0.0400
23     C23     0.6540   -1.7953    1.2640 C.3      1 ZINC000002516018    0.1100
24     C24     0.2304   -0.3255    1.1729 C.3      1 ZINC000002516018    0.0400
25     H25     0.4291    1.9541   -0.1891 H        1 ZINC000002516018    0.0700
26     H26    -0.8375    1.5834   -1.3835 H        1 ZINC000002516018    0.0700
27     H27    -1.2542    1.7230    0.3414 H        1 ZINC000002516018    0.0300
28     H28    -2.2140   -0.6294    0.2134 H        1 ZINC000002516018    0.0400
29     H29    -1.7866   -0.5526   -1.5132 H        1 ZINC000002516018    0.0900
30     H30    -1.9811   -2.9121   -0.6293 H        1 ZINC000002516018    0.1000
31     H31    -0.3714   -2.5379   -1.2995 H        1 ZINC000002516018    0.0800
32     H32    -4.5577   -5.1596    1.1802 H        1 ZINC000002516018    0.1500
33     H33    -4.0201   -8.1166    4.2035 H        1 ZINC000002516018    0.1500
34     H34    -1.7213   -7.3386    4.5896 H        1 ZINC000002516018    0.1400
35     H35     0.3800   -6.5608    4.8812 H        1 ZINC000002516018    0.1800
36     H36     2.4892   -5.0573    4.4967 H        1 ZINC000002516018    0.1600
37     H37     1.9054   -3.2959    2.5682 H        1 ZINC000002516018    0.1600
38     H38     0.8938   -2.0439    2.2978 H        1 ZINC000002516018    0.1000
39     H39     1.5257   -1.9650    0.6320 H        1 ZINC000002516018    0.0800
40     H40     1.0817    0.3136    1.4071 H        1 ZINC000002516018    0.0900
41     H41    -0.5746   -0.1343    1.8826 H        1 ZINC000002516018    0.0400
@<TRIPOS>BOND
1     1     2     1
2     1     25    1
3     1     26    1
4     1     27    1
5     2     24    1
6     2     3     1
7     3     4     1
8     3     28    1
9     3     29    1
10    4     5     1
11    4     30    1
12    4     31    1
13    5     6     1
14    5     23    1
15    6     22    1
16    6     7     2
17    7     8     1
18    8     17    ar
19    8     9     ar
20    9     10    ar
21    9     32    1
22    10    11    1
23    10    15    ar
24    11    12    1
25    11    13    1
26    11    14    1
27    15    16    ar
28    15    33    1
29    16    17    ar
30    16    34    1
31    17    18    1
32    18    22    1
33    18    19    1
34    19    20    2
35    19    35    1
36    20    21    1
37    20    36    1
38    21    22    2
39    21    37    1
40    23    24    1
41    23    38    1
42    23    39    1
43    24    40    1
44    24    41    1
@<TRIPOS>SUBSTRUCTURE
1   ZINC000002516018 1     RESIDUE    1   A     ZIN   1
