@<TRIPOS>MOLECULE
ZINC000019535049
  51   54    0    0    0
SMALL
USER_CHARGES
NO_NAME
@<TRIPOS>ATOM
    1 C1       -0.0173     1.4248     0.0099 C.3    1 <0>       0.0200
    2 O2        0.0021    -0.0041     0.0020 O.3    1 <0>      -0.3100
    3 C3       -1.2011    -0.6379     0.0101 C.ar   1 <0>       0.1100
    4 C4       -2.3749     0.0977     0.0195 C.ar   1 <0>      -0.1900
    5 C5       -3.5931    -0.5526     0.0265 C.ar   1 <0>      -0.0800
    6 C6       -3.6519    -1.9379     0.0241 C.ar   1 <0>      -0.0900
    7 C7       -5.0050    -2.5997     0.0205 C.3    1 <0>      -0.0600
    8 C8       -4.8740    -4.0705     0.4288 C.3    1 <0>       0.1300
    9 H9       -4.6003    -4.1310     1.4821 H      1 <0>       0.0600
   10 C10      -6.2007    -4.7508     0.2165 C.ar   1 <0>      -0.0700
   11 C11      -6.3141    -5.9616    -0.4308 C.ar   1 <0>      -0.0600
   12 C12      -7.5590    -6.5476    -0.6022 C.ar   1 <0>      -0.1700
   13 C13      -8.6971    -5.9226    -0.1243 C.ar   1 <0>       0.1000
   14 O14      -9.9169    -6.4998    -0.2933 O.3    1 <0>      -0.3100
   15 C15      -9.9516    -7.7553    -0.9749 C.3    1 <0>       0.0300
   16 C16      -8.5858    -4.6995     0.5309 C.ar   1 <0>       0.1000
   17 O17      -9.6975    -4.0760     1.0052 O.3    1 <0>      -0.3100
   18 C18      -9.5066    -2.8239     1.6668 C.3    1 <0>       0.0300
   19 C19      -7.3413    -4.1208     0.6983 C.ar   1 <0>      -0.1700
   20 C20      -5.1009    -6.6795    -0.9658 C.3    1 <0>      -0.0700
   21 C21      -3.8499    -6.1529    -0.2637 C.3    1 <0>       0.0500
   22 N22      -3.8212    -4.6884    -0.3847 N.3    1 <0>      -0.5200
   23 C23      -2.5059    -4.1758     0.0255 C.3    1 <0>       0.1000
   24 C24      -2.4873    -2.6765     0.0178 C.ar   1 <0>      -0.0600
   25 C25      -1.2586    -2.0267     0.0032 C.ar   1 <0>       0.0700
   26 O26      -0.1085    -2.7523    -0.0085 O.3    1 <0>      -0.3200
   27 C27       0.4261    -3.1003    -1.2872 C.3    1 <0>       0.0300
   28 H28       1.0053     1.8021     0.0021 H      1 <0>       0.1000
   29 H29      -0.5445     1.7859    -0.8732 H      1 <0>       0.0600
   30 H30      -0.5275     1.7763     0.9067 H      1 <0>       0.0600
   31 H31      -2.3374     1.1770     0.0218 H      1 <0>       0.1300
   32 H32      -4.5073     0.0224     0.0344 H      1 <0>       0.1300
   33 H33      -5.6601    -2.0863     0.7243 H      1 <0>       0.0800
   34 H34      -5.4342    -2.5391    -0.9796 H      1 <0>       0.0900
   35 H35      -7.6407    -7.4965    -1.1114 H      1 <0>       0.1400
   36 H36     -10.9822    -8.1041    -1.0417 H      1 <0>       0.1000
   37 H37      -9.5428    -7.6356    -1.9782 H      1 <0>       0.0600
   38 H38      -9.3564    -8.4841    -0.4246 H      1 <0>       0.0500
   39 H39      -9.0449    -2.1159     0.9785 H      1 <0>       0.0600
   40 H40     -10.4708    -2.4355     1.9949 H      1 <0>       0.1000
   41 H41      -8.8584    -2.9650     2.5317 H      1 <0>       0.0500
   42 H42      -7.2553    -3.1721     1.2072 H      1 <0>       0.1400
   43 H43      -5.1997    -7.7489    -0.7794 H      1 <0>       0.0800
   44 H44      -5.0175    -6.5031    -2.0382 H      1 <0>       0.0900
   45 H45      -3.8766    -6.4343     0.7890 H      1 <0>       0.0400
   46 H46      -2.9622    -6.5762    -0.7337 H      1 <0>       0.0900
   47 H47      -2.2793    -4.5316     1.0306 H      1 <0>       0.0600
   48 H48      -1.7462    -4.5432    -0.6645 H      1 <0>       0.0900
   49 H49      -0.3026    -3.6976    -1.8353 H      1 <0>       0.0500
   50 H50       0.6470    -2.1922    -1.8481 H      1 <0>       0.0500
   51 H51       1.3415    -3.6767    -1.1537 H      1 <0>       0.0900
@<TRIPOS>BOND
   1    1    2 1
   2    1   28 1
   3    1   29 1
   4    1   30 1
   5    2    3 1
   6    3   25 ar
   7    3    4 ar
   8    4    5 ar
   9    4   31 1
  10    5    6 ar
  11    5   32 1
  12    6   24 ar
  13    6    7 1
  14    7    8 1
  15    7   33 1
  16    7   34 1
  17    8    9 1
  18    8   22 1
  19    8   10 1
  20   10   19 ar
  21   10   11 ar
  22   11   12 ar
  23   11   20 1
  24   12   13 ar
  25   12   35 1
  26   13   14 1
  27   13   16 ar
  28   14   15 1
  29   15   36 1
  30   15   37 1
  31   15   38 1
  32   16   17 1
  33   16   19 ar
  34   17   18 1
  35   18   39 1
  36   18   40 1
  37   18   41 1
  38   19   42 1
  39   20   21 1
  40   20   43 1
  41   20   44 1
  42   21   22 1
  43   21   45 1
  44   21   46 1
  45   22   23 1
  46   23   24 1
  47   23   47 1
  48   23   48 1
  49   24   25 ar
  50   25   26 1
  51   26   27 1
  52   27   49 1
  53   27   50 1
  54   27   51 1
