@<TRIPOS>MOLECULE
ZINC000004847333
64    67    1     0     0
SMALL
USER_CHARGES
@<TRIPOS>ATOM
1      C1      1.2702    0.8643   -0.6142 C.3      1 ZINC000004847333    0.0400
2      O2      0.9849   -0.5293   -0.4782 O.3      1 ZINC000004847333   -0.2400
3      N3      1.5384   -1.1198    0.6837 N.2      1 ZINC000004847333   -0.3000
4      C4      1.3535   -2.3638    0.9193 C.2      1 ZINC000004847333    0.1200
5      C5      1.8544   -3.1748    2.1027 C.3      1 ZINC000004847333   -0.0700
6      C6      0.8254   -4.3070    2.2616 C.3      1 ZINC000004847333    0.1200
7      H7      1.3383   -5.2519    2.4407 H        1 ZINC000004847333    0.1200
8      C8     -0.1007   -4.0008    3.4103 C.2      1 ZINC000004847333    0.5100
9      O9     -1.2899   -3.8692    3.2120 O.2      1 ZINC000004847333   -0.5100
10     N10     0.3926   -3.8730    4.6580 N.am     1 ZINC000004847333   -0.7200
11     C11    -0.5077   -3.5753    5.7747 C.3      1 ZINC000004847333    0.1000
12     C12     0.3004   -3.4831    7.0707 C.3      1 ZINC000004847333    0.1400
13     H13     0.8739   -4.3999    7.2073 H        1 ZINC000004847333    0.1200
14     O14     1.1928   -2.3694    6.9973 O.3      1 ZINC000004847333   -0.5500
15     C15    -0.6378   -3.2991    8.2356 C.ar     1 ZINC000004847333   -0.1200
16     C16    -1.1637   -2.0503    8.5090 C.ar     1 ZINC000004847333   -0.1100
17     C17    -2.0243   -1.8815    9.5776 C.ar     1 ZINC000004847333   -0.1200
18     C18    -2.3593   -2.9617   10.3725 C.ar     1 ZINC000004847333   -0.1100
19     C19    -1.8340   -4.2107   10.0985 C.ar     1 ZINC000004847333   -0.1200
20     C20    -0.9769   -4.3803    9.0274 C.ar     1 ZINC000004847333   -0.1100
21     N21     0.0641   -4.3815    1.0077 N.am     1 ZINC000004847333   -0.6000
22     C22    -0.9441   -5.2380    0.7500 C.2      1 ZINC000004847333    0.5900
23     O23    -1.2415   -6.0896    1.5651 O.2      1 ZINC000004847333   -0.5100
24     C24    -1.6878   -5.1420   -0.5227 C.ar     1 ZINC000004847333   -0.1300
25     C25    -1.0727   -4.5965   -1.6523 C.ar     1 ZINC000004847333   -0.1000
26     C26    -1.7665   -4.5080   -2.8380 C.ar     1 ZINC000004847333   -0.1100
27     C27    -3.0835   -4.9622   -2.9117 C.ar     1 ZINC000004847333   -0.0200
28     C28    -3.8298   -4.8663   -4.1894 C.ar     1 ZINC000004847333   -0.0600
29     C29    -3.3138   -5.4477   -5.3463 C.ar     1 ZINC000004847333   -0.1000
30     C30    -4.0131   -5.3557   -6.5327 C.ar     1 ZINC000004847333   -0.1300
31     C31    -5.2238   -4.6881   -6.5749 C.ar     1 ZINC000004847333   -0.1100
32     C32    -5.7406   -4.1087   -5.4298 C.ar     1 ZINC000004847333   -0.1200
33     C33    -5.0531   -4.1992   -4.2369 C.ar     1 ZINC000004847333   -0.0700
34     C34    -5.6174   -3.5676   -2.9904 C.3      1 ZINC000004847333   -0.1200
35     C35    -3.6986   -5.5070   -1.7844 C.ar     1 ZINC000004847333   -0.1100
36     C36    -3.0048   -5.6018   -0.5992 C.ar     1 ZINC000004847333   -0.0500
37     C37     0.5785   -3.3656    0.0848 C.3      1 ZINC000004847333    0.1000
38     H38     2.3492    1.0114   -0.6615 H        1 ZINC000004847333    0.0500
39     H39     0.8117    1.2415   -1.5283 H        1 ZINC000004847333    0.1000
40     H40     0.8673    1.4030    0.2435 H        1 ZINC000004847333    0.0500
41     H41     2.8417   -3.5855    1.8913 H        1 ZINC000004847333    0.1200
42     H42     1.8828   -2.5583    3.0012 H        1 ZINC000004847333    0.1100
43     H43     1.3437   -3.9782    4.8166 H        1 ZINC000004847333    0.4100
44     H44    -1.0114   -2.6260    5.5922 H        1 ZINC000004847333    0.0700
45     H45    -1.2496   -4.3688    5.8648 H        1 ZINC000004847333    0.0800
46     H46     0.7504   -1.5182    6.8757 H        1 ZINC000004847333    0.3800
47     H47    -0.9020   -1.2064    7.8879 H        1 ZINC000004847333    0.1200
48     H48    -2.4346   -0.9057    9.7916 H        1 ZINC000004847333    0.1300
49     H49    -3.0310   -2.8297   11.2078 H        1 ZINC000004847333    0.1200
50     H50    -2.0955   -5.0546   10.7198 H        1 ZINC000004847333    0.1300
51     H51    -0.5665   -5.3561    8.8134 H        1 ZINC000004847333    0.1300
52     H52    -0.0534   -4.2442   -1.5953 H        1 ZINC000004847333    0.1400
53     H53    -1.2912   -4.0864   -3.7114 H        1 ZINC000004847333    0.1300
54     H54    -2.3684   -5.9689   -5.3146 H        1 ZINC000004847333    0.1200
55     H55    -3.6141   -5.8054   -7.4298 H        1 ZINC000004847333    0.1200
56     H56    -5.7675   -4.6186   -7.5054 H        1 ZINC000004847333    0.1200
57     H57    -6.6862   -3.5883   -5.4687 H        1 ZINC000004847333    0.1200
58     H58    -6.2992   -4.2663   -2.5057 H        1 ZINC000004847333    0.0700
59     H59    -4.8041   -3.3209   -2.3079 H        1 ZINC000004847333    0.0700
60     H60    -6.1570   -2.6585   -3.2561 H        1 ZINC000004847333    0.0700
61     H61    -4.7182   -5.8584   -1.8426 H        1 ZINC000004847333    0.1300
62     H62    -3.4811   -6.0240    0.2734 H        1 ZINC000004847333    0.1400
63     H63    -0.2488   -2.8715   -0.4247 H        1 ZINC000004847333    0.1000
64     H64     1.2438   -3.8273   -0.6448 H        1 ZINC000004847333    0.1000
@<TRIPOS>BOND
1     1     2     1
2     1     38    1
3     1     39    1
4     1     40    1
5     2     3     1
6     3     4     2
7     4     37    1
8     4     5     1
9     5     6     1
10    5     41    1
11    5     42    1
12    6     7     1
13    6     8     1
14    6     21    1
15    8     9     2
16    8     10    am
17    10    11    1
18    10    43    1
19    11    12    1
20    11    44    1
21    11    45    1
22    12    13    1
23    12    14    1
24    12    15    1
25    14    46    1
26    15    20    ar
27    15    16    ar
28    16    17    ar
29    16    47    1
30    17    18    ar
31    17    48    1
32    18    19    ar
33    18    49    1
34    19    20    ar
35    19    50    1
36    20    51    1
37    21    22    am
38    21    37    1
39    22    23    2
40    22    24    1
41    24    36    ar
42    24    25    ar
43    25    26    ar
44    25    52    1
45    26    27    ar
46    26    53    1
47    27    28    1
48    27    35    ar
49    28    33    ar
50    28    29    ar
51    29    30    ar
52    29    54    1
53    30    31    ar
54    30    55    1
55    31    32    ar
56    31    56    1
57    32    33    ar
58    32    57    1
59    33    34    1
60    34    58    1
61    34    59    1
62    34    60    1
63    35    36    ar
64    35    61    1
65    36    62    1
66    37    63    1
67    37    64    1
@<TRIPOS>SUBSTRUCTURE
1   ZINC000004847333 1     RESIDUE    1   A     ZIN   1
