@<TRIPOS>MOLECULE
ZINC000100341584
62    67    1     0     0
SMALL
USER_CHARGES
@<TRIPOS>ATOM
1      C1      1.0693   -2.4064    0.3685 C.3      1 ZINC000100341584   -0.6700
2      S2      0.2095   -0.8436    0.0380 S.o2     1 ZINC000100341584    2.6100
3      O3     -1.1512   -1.0837   -0.2939 O.2      1 ZINC000100341584   -0.9700
4      O4      0.5661    0.1357    1.0039 O.2      1 ZINC000100341584   -0.9500
5      N5      0.8823   -0.2917   -1.3708 N.am     1 ZINC000100341584   -1.0500
6      C6      2.2405    0.0419   -1.4138 C.ar     1 ZINC000100341584    0.0200
7      C7      2.6865    1.2196   -0.8287 C.ar     1 ZINC000100341584   -0.0400
8      C8      4.0261    1.5519   -0.8676 C.ar     1 ZINC000100341584   -0.1500
9      C9      4.9334    0.7070   -1.4938 C.ar     1 ZINC000100341584    0.2900
10     N10     6.2902    1.0286   -1.5330 N.pl3    1 ZINC000100341584   -0.7000
11     C11     7.1822    0.4877   -2.3981 C.2      1 ZINC000100341584    0.4800
12     C12     8.4651    1.2458   -2.6234 C.3      1 ZINC000100341584   -0.1000
13     C13     9.5356    0.3178   -3.1741 C.2      1 ZINC000100341584    0.3600
14     O14     9.3229   -0.8592   -3.3404 O.2      1 ZINC000100341584   -0.3700
15     C15    10.8747    0.9284   -3.5037 C.3      1 ZINC000100341584   -0.1400
16     H16    11.4551    0.2659   -4.1458 H        1 ZINC000100341584    0.1100
17     C17    11.6218    1.1969   -2.1596 C.3      1 ZINC000100341584   -0.0900
18     H18    11.5522    0.4094   -1.4092 H        1 ZINC000100341584    0.1100
19     C19    13.0640    1.6054   -2.5884 C.3      1 ZINC000100341584   -0.1200
20     C20    12.9023    3.0028   -3.2293 C.3      1 ZINC000100341584   -0.1200
21     C21    11.3746    3.3034   -3.1357 C.3      1 ZINC000100341584   -0.1100
22     H22    11.0873    4.3511   -3.2238 H        1 ZINC000100341584    0.1100
23     C23    11.0091    2.5879   -1.7663 C.3      1 ZINC000100341584   -0.1400
24     C24    10.7051    2.3085   -4.1535 C.3      1 ZINC000100341584    0.1600
25     H25    11.2595    2.3282   -5.0917 H        1 ZINC000100341584    0.0900
26     N26     9.3411    2.7119   -4.3977 N.am     1 ZINC000100341584   -0.6000
27     C27     9.1008    3.6139   -5.5269 C.3      1 ZINC000100341584    0.1500
28     C28     8.8407    2.8036   -6.7706 C.ar     1 ZINC000100341584   -0.1200
29     C29     9.8939    2.4303   -7.5845 C.ar     1 ZINC000100341584   -0.0800
30     C30     9.6566    1.6872   -8.7253 C.ar     1 ZINC000100341584   -0.1600
31     C31     8.3635    1.3162   -9.0526 C.ar     1 ZINC000100341584    0.1000
32     F32     8.1303    0.5894  -10.1674 F        1 ZINC000100341584   -0.1400
33     C33     7.3095    1.6902   -8.2364 C.ar     1 ZINC000100341584   -0.1500
34     C34     7.5497    2.4292   -7.0936 C.ar     1 ZINC000100341584   -0.0600
35     C35     8.2689    2.3056   -3.6902 C.2      1 ZINC000100341584    0.5500
36     O36     7.1754    2.7937   -3.8825 O.2      1 ZINC000100341584   -0.5000
37     N37     7.0331   -0.6120   -3.0422 N.am     1 ZINC000100341584   -0.9800
38     S38     5.6563   -1.5207   -2.8722 S.o2     1 ZINC000100341584    2.6200
39     O39     5.1657   -1.7642   -4.1834 O.2      1 ZINC000100341584   -0.9900
40     O40     5.9641   -2.5557   -1.9485 O.2      1 ZINC000100341584   -1.0000
41     C41     4.4805   -0.4703   -2.0805 C.ar     1 ZINC000100341584   -0.7700
42     C42     3.1474   -0.8081   -2.0376 C.ar     1 ZINC000100341584    0.0200
43     H43     0.9513   -3.0736   -0.4853 H        1 ZINC000100341584    0.1300
44     H44     2.1288   -2.2104    0.5328 H        1 ZINC000100341584    0.1300
45     H45     0.6443   -2.8741    1.2566 H        1 ZINC000100341584    0.1300
46     H46     0.3349   -0.1997   -2.1663 H        1 ZINC000100341584    0.4200
47     H47     1.9828    1.8784   -0.3417 H        1 ZINC000100341584    0.1300
48     H48     4.3684    2.4690   -0.4113 H        1 ZINC000100341584    0.1300
49     H49     8.8009    1.7037   -1.6931 H        1 ZINC000100341584    0.1600
50     H50    13.7178    1.6602   -1.7179 H        1 ZINC000100341584    0.0700
51     H51    13.4586    0.8969   -3.3167 H        1 ZINC000100341584    0.0700
52     H52    13.4709    3.7457   -2.6700 H        1 ZINC000100341584    0.0700
53     H53    13.2226    2.9827   -4.2710 H        1 ZINC000100341584    0.0700
54     H54     9.9324    2.5450   -1.6021 H        1 ZINC000100341584    0.0800
55     H55    11.5295    3.0355   -0.9196 H        1 ZINC000100341584    0.0800
56     H56     8.2347    4.2403   -5.3136 H        1 ZINC000100341584    0.1000
57     H57     9.9763    4.2447   -5.6807 H        1 ZINC000100341584    0.0900
58     H58    10.9026    2.7198   -7.3290 H        1 ZINC000100341584    0.1300
59     H59    10.4795    1.3963   -9.3614 H        1 ZINC000100341584    0.1300
60     H60     6.3003    1.4017   -8.4909 H        1 ZINC000100341584    0.1400
61     H61     6.7278    2.7208   -6.4565 H        1 ZINC000100341584    0.1400
62     H62     2.8061   -1.7274   -2.4901 H        1 ZINC000100341584    0.1200
@<TRIPOS>BOND
1     1     2     1
2     1     43    1
3     1     44    1
4     1     45    1
5     2     3     2
6     2     4     2
7     2     5     am
8     5     6     1
9     5     46    1
10    6     42    ar
11    6     7     ar
12    7     8     ar
13    7     47    1
14    8     9     ar
15    8     48    1
16    9     41    ar
17    9     10    1
18    10    11    1
19    11    12    1
20    11    37    2
21    12    35    1
22    12    13    1
23    12    49    1
24    13    14    2
25    13    15    1
26    15    16    1
27    15    24    1
28    15    17    1
29    17    18    1
30    17    23    1
31    17    19    1
32    19    20    1
33    19    50    1
34    19    51    1
35    20    21    1
36    20    52    1
37    20    53    1
38    21    22    1
39    21    23    1
40    21    24    1
41    23    54    1
42    23    55    1
43    24    25    1
44    24    26    1
45    26    27    1
46    26    35    am
47    27    28    1
48    27    56    1
49    27    57    1
50    28    34    ar
51    28    29    ar
52    29    30    ar
53    29    58    1
54    30    31    ar
55    30    59    1
56    31    32    1
57    31    33    ar
58    33    34    ar
59    33    60    1
60    34    61    1
61    35    36    2
62    37    38    am
63    38    39    2
64    38    40    2
65    38    41    1
66    41    42    ar
67    42    62    1
@<TRIPOS>SUBSTRUCTURE
1   ZINC000100341584 1     RESIDUE    1   A     ZIN   1
