@<TRIPOS>MOLECULE
ZINC000004846117
54    56    1     0     0
SMALL
USER_CHARGES
@<TRIPOS>ATOM
1      C1     -0.0184    1.5028    0.0103 C.3      1 ZINC000004846117   -0.0900
2      C2      0.0021   -0.0041    0.0020 C.2      1 ZINC000004846117   -0.1200
3      C3      0.0062   -0.7158   -1.1311 C.2      1 ZINC000004846117   -0.2100
4      C4     -0.0082   -0.1188   -2.5148 C.3      1 ZINC000004846117   -0.0500
5      C5      1.4293    0.1023   -2.9898 C.3      1 ZINC000004846117   -0.1100
6      C6      1.4147    0.7084   -4.3945 C.3      1 ZINC000004846117   -0.1000
7      H7      0.8136    1.6177   -4.3940 H        1 ZINC000004846117    0.0700
8      C8      0.8192   -0.3015   -5.3844 C.3      1 ZINC000004846117    0.1400
9      N9      0.7652    0.3393   -6.7052 N.pl3    1 ZINC000004846117   -0.7400
10     C10     1.8626    1.0511   -7.1516 C.2      1 ZINC000004846117    0.4600
11     C11     2.8788    1.4076   -6.2836 C.2      1 ZINC000004846117   -0.4400
12     C12     2.8445    1.0391   -4.8253 C.3      1 ZINC000004846117   -0.0100
13     C13     3.9667    2.1341   -6.7833 C.2      1 ZINC000004846117    0.5300
14     O14     4.8814    2.4675   -6.0464 O.2      1 ZINC000004846117   -0.6400
15     N15     3.9875    2.4590   -8.0923 N.pl3    1 ZINC000004846117   -0.7200
16     C16     2.9645    2.0806   -8.9062 C.2      1 ZINC000004846117    0.6000
17     N17     3.0035    2.4163  -10.2332 N.pl3    1 ZINC000004846117   -0.8400
18     N18     1.9387    1.3987   -8.4436 N.2      1 ZINC000004846117   -0.7100
19     S19     0.0305   -2.3895   -0.8004 S.3      1 ZINC000004846117    0.2100
20     C20     0.0350   -2.0957    0.9332 C.2      1 ZINC000004846117   -0.2400
21     C21     0.0541   -3.1307    1.9711 C.2      1 ZINC000004846117    0.5800
22     O22     0.0560   -2.8141    3.1462 O.2      1 ZINC000004846117   -0.5500
23     N23     0.0695   -4.4329    1.6239 N.am     1 ZINC000004846117   -0.6800
24     C24     0.0886   -5.4673    2.6612 C.3      1 ZINC000004846117    0.0700
25     H25    -0.5008   -5.1356    3.5159 H        1 ZINC000004846117    0.0800
26     C26    -0.5068   -6.7611    2.1022 C.3      1 ZINC000004846117   -0.0800
27     C27    -1.9855   -6.5426    1.7756 C.3      1 ZINC000004846117   -0.1800
28     C28    -2.5720   -7.8169    1.2250 C.2      1 ZINC000004846117    0.4900
29     O29    -1.8721   -8.8080    1.1050 O.co2    1 ZINC000004846117   -0.7000
30     O30    -3.7463   -7.8568    0.8997 O.co2    1 ZINC000004846117   -0.7200
31     C31     1.5097   -5.7155    3.0969 C.2      1 ZINC000004846117    0.5000
32     O32     1.7434   -6.0757    4.2380 O.co2    1 ZINC000004846117   -0.7000
33     O33     2.4258   -5.5561    2.3084 O.co2    1 ZINC000004846117   -0.6900
34     C34     0.0237   -0.7478    1.1580 C.2      1 ZINC000004846117   -0.0700
35     H35     1.0042    1.8801    0.0026 H        1 ZINC000004846117    0.0700
36     H36    -0.5455    1.8639   -0.8728 H        1 ZINC000004846117    0.0600
37     H37    -0.5286    1.8543    0.9071 H        1 ZINC000004846117    0.0600
38     H38    -0.5163   -0.7988   -3.1986 H        1 ZINC000004846117    0.0700
39     H39    -0.5346    0.8354   -2.4933 H        1 ZINC000004846117    0.0800
40     H40     1.9374    0.7822   -2.3059 H        1 ZINC000004846117    0.0700
41     H41     1.9557   -0.8519   -3.0112 H        1 ZINC000004846117    0.0700
42     H42     1.4504   -1.1889   -5.4306 H        1 ZINC000004846117    0.0500
43     H43    -0.1862   -0.5793   -5.0679 H        1 ZINC000004846117    0.0700
44     H44    -0.0294    0.2636   -7.2564 H        1 ZINC000004846117    0.3900
45     H45     3.2204    1.8736   -4.2334 H        1 ZINC000004846117    0.0500
46     H46     3.4778    0.1678   -4.6584 H        1 ZINC000004846117    0.0400
47     H47     3.7551    2.9188  -10.5845 H        1 ZINC000004846117    0.4000
48     H48     2.2795    2.1516  -10.8220 H        1 ZINC000004846117    0.3900
49     H49     0.0680   -4.6852    0.6873 H        1 ZINC000004846117    0.3900
50     H50     0.0275   -7.0449    1.1955 H        1 ZINC000004846117    0.0600
51     H51    -0.4118   -7.5546    2.8433 H        1 ZINC000004846117    0.0700
52     H52    -2.5197   -6.2588    2.6823 H        1 ZINC000004846117    0.0500
53     H53    -2.0805   -5.7490    1.0345 H        1 ZINC000004846117    0.0500
54     H54     0.0238   -0.3105    2.1455 H        1 ZINC000004846117    0.1500
@<TRIPOS>BOND
1     1     2     1
2     1     35    1
3     1     36    1
4     1     37    1
5     2     34    1
6     2     3     2
7     3     4     1
8     3     19    1
9     4     5     1
10    4     38    1
11    4     39    1
12    5     6     1
13    5     40    1
14    5     41    1
15    6     7     1
16    6     12    1
17    6     8     1
18    8     9     1
19    8     42    1
20    8     43    1
21    9     10    1
22    9     44    1
23    10    18    1
24    10    11    2
25    11    12    1
26    11    13    1
27    12    45    1
28    12    46    1
29    13    14    2
30    13    15    1
31    15    16    1
32    16    17    1
33    16    18    2
34    17    47    1
35    17    48    1
36    19    20    1
37    20    21    1
38    20    34    2
39    21    22    2
40    21    23    am
41    23    24    1
42    23    49    1
43    24    25    1
44    24    26    1
45    24    31    1
46    26    27    1
47    26    50    1
48    26    51    1
49    27    28    1
50    27    52    1
51    27    53    1
52    28    29    ar
53    28    30    ar
54    31    32    ar
55    31    33    ar
56    34    54    1
@<TRIPOS>SUBSTRUCTURE
1   ZINC000004846117 1     RESIDUE    1   A     ZIN   1
