@<TRIPOS>MOLECULE
ZINC000003870325
76    77    1     0     0
SMALL
USER_CHARGES
@<TRIPOS>ATOM
1      C1     -3.4110    1.2147    1.0005 C.3      1 ZINC000003870325    0.0200
2      O2     -3.1027   -0.1766    0.8945 O.3      1 ZINC000003870325   -0.3000
3      C3     -2.1853   -0.6738    1.7666 C.ar     1 ZINC000003870325    0.1200
4      C4     -1.5996    0.1577    2.7071 C.ar     1 ZINC000003870325   -0.1700
5      C5     -0.6673   -0.3496    3.5934 C.ar     1 ZINC000003870325   -0.1000
6      C6     -0.3173   -1.6857    3.5435 C.ar     1 ZINC000003870325   -0.1100
7      C7      0.6997   -2.2333    4.5115 C.3      1 ZINC000003870325   -0.0900
8      C8     -0.0116   -2.7299    5.7718 C.3      1 ZINC000003870325   -0.0100
9      N9      0.9797   -3.2637    6.7154 N.4      1 ZINC000003870325   -0.3900
10     H10     1.5309   -3.9743    6.2580 H        1 ZINC000003870325    0.4200
11     C11     1.8592   -2.1776    7.1680 C.3      1 ZINC000003870325   -0.0600
12     C12     0.2890   -3.8488    7.8723 C.3      1 ZINC000003870325   -0.0100
13     C13     1.3125   -4.5145    8.7943 C.3      1 ZINC000003870325   -0.1600
14     C14     0.5932   -5.1239    9.9993 C.3      1 ZINC000003870325   -0.1100
15     C15     1.5983   -5.8954   10.8568 C.3      1 ZINC000003870325    0.0900
16     C16     2.5818   -4.9579   11.4229 C.1      1 ZINC000003870325    0.2000
17     N17     3.3408   -4.2343   11.8599 N.1      1 ZINC000003870325   -0.4100
18     C18     0.8710   -6.5964   11.9750 C.ar     1 ZINC000003870325   -0.0200
19     C19     1.0159   -7.9608   12.1429 C.ar     1 ZINC000003870325   -0.2500
20     C20     0.3487   -8.6095   13.1709 C.ar     1 ZINC000003870325    0.1500
21     O21     0.4924   -9.9518   13.3355 O.3      1 ZINC000003870325   -0.3000
22     C22     1.3464  -10.6309   12.4128 C.3      1 ZINC000003870325    0.0200
23     C23    -0.4666   -7.8860   14.0331 C.ar     1 ZINC000003870325    0.0400
24     O24    -1.1228   -8.5190   15.0435 O.3      1 ZINC000003870325   -0.3100
25     C25    -0.4423   -8.6199   16.2960 C.3      1 ZINC000003870325    0.0300
26     C26    -0.6097   -6.5144   13.8609 C.ar     1 ZINC000003870325    0.1500
27     O27    -1.4061   -5.8020   14.7021 O.3      1 ZINC000003870325   -0.3000
28     C28    -1.5062   -4.3962   14.4657 C.3      1 ZINC000003870325    0.0200
29     C29     0.0651   -5.8724   12.8336 C.ar     1 ZINC000003870325   -0.2200
30     C30     2.3198   -6.9297    9.9904 C.3      1 ZINC000003870325   -0.0800
31     C31     3.4149   -7.6103   10.8141 C.3      1 ZINC000003870325   -0.1900
32     C32     1.3170   -7.9800    9.5085 C.3      1 ZINC000003870325   -0.1900
33     C33    -0.8985   -2.5214    2.6074 C.ar     1 ZINC000003870325   -0.1700
34     C34    -1.8370   -2.0207    1.7200 C.ar     1 ZINC000003870325    0.1100
35     O35    -2.4096   -2.8411    0.7989 O.3      1 ZINC000003870325   -0.3000
36     C36    -1.9963   -4.2091    0.8026 C.3      1 ZINC000003870325    0.0300
37     H37    -2.5062    1.8007    0.8395 H        1 ZINC000003870325    0.0600
38     H38    -4.1545    1.4804    0.2490 H        1 ZINC000003870325    0.1100
39     H39    -3.8077    1.4243    1.9940 H        1 ZINC000003870325    0.0600
40     H40    -1.8708    1.2023    2.7478 H        1 ZINC000003870325    0.1400
41     H41    -0.2113    0.2997    4.3262 H        1 ZINC000003870325    0.1300
42     H42     1.2351   -3.0610    4.0464 H        1 ZINC000003870325    0.0900
43     H43     1.4065   -1.4478    4.7789 H        1 ZINC000003870325    0.1000
44     H44    -0.5471   -1.9022    6.2368 H        1 ZINC000003870325    0.1300
45     H45    -0.7184   -3.5154    5.5044 H        1 ZINC000003870325    0.1300
46     H46     2.5947   -2.5736    7.8682 H        1 ZINC000003870325    0.1200
47     H47     2.3717   -1.7434    6.3095 H        1 ZINC000003870325    0.1300
48     H48     1.2638   -1.4099    7.6621 H        1 ZINC000003870325    0.1200
49     H49    -0.2350   -3.0639    8.4178 H        1 ZINC000003870325    0.1300
50     H50    -0.4288   -4.5936    7.5285 H        1 ZINC000003870325    0.1400
51     H51     1.8365   -5.2994    8.2488 H        1 ZINC000003870325    0.1000
52     H52     2.0303   -3.7697    9.1381 H        1 ZINC000003870325    0.0900
53     H53     0.1430   -4.3290   10.5939 H        1 ZINC000003870325    0.0900
54     H54    -0.1853   -5.8034    9.6522 H        1 ZINC000003870325    0.1000
55     H55     1.6494   -8.5224   11.4723 H        1 ZINC000003870325    0.1800
56     H56     2.3532  -10.2184   12.4784 H        1 ZINC000003870325    0.0600
57     H57     1.3724  -11.6931   12.6559 H        1 ZINC000003870325    0.1100
58     H58     0.9650  -10.4992   11.4002 H        1 ZINC000003870325    0.0600
59     H59    -0.2214   -7.6205   16.6710 H        1 ZINC000003870325    0.0500
60     H60    -1.0747   -9.1449   17.0119 H        1 ZINC000003870325    0.1000
61     H61     0.4883   -9.1711   16.1606 H        1 ZINC000003870325    0.0500
62     H62    -2.1703   -3.9497   15.2057 H        1 ZINC000003870325    0.1100
63     H63    -0.5178   -3.9433   14.5442 H        1 ZINC000003870325    0.0600
64     H64    -1.9067   -4.2234   13.4667 H        1 ZINC000003870325    0.0600
65     H65    -0.0453   -4.8065   12.6993 H        1 ZINC000003870325    0.1300
66     H66     2.7681   -6.4335    9.1296 H        1 ZINC000003870325    0.0900
67     H67     2.9594   -8.1770   11.6262 H        1 ZINC000003870325    0.0800
68     H68     3.9841   -8.2851   10.1748 H        1 ZINC000003870325    0.0700
69     H69     4.0813   -6.8537   11.2283 H        1 ZINC000003870325    0.0600
70     H70     0.5893   -7.5107    8.8464 H        1 ZINC000003870325    0.0600
71     H71     1.8452   -8.7660    8.9689 H        1 ZINC000003870325    0.0700
72     H72     0.8021   -8.4115   10.3668 H        1 ZINC000003870325    0.0900
73     H73    -0.6233   -3.5651    2.5705 H        1 ZINC000003870325    0.1400
74     H74    -2.2220   -4.6542    1.7717 H        1 ZINC000003870325    0.0500
75     H75    -2.5283   -4.7514    0.0210 H        1 ZINC000003870325    0.1100
76     H76    -0.9236   -4.2650    0.6180 H        1 ZINC000003870325    0.0600
@<TRIPOS>BOND
1     1     2     1
2     1     37    1
3     1     38    1
4     1     39    1
5     2     3     1
6     3     34    ar
7     3     4     ar
8     4     5     ar
9     4     40    1
10    5     6     ar
11    5     41    1
12    6     7     1
13    6     33    ar
14    7     8     1
15    7     42    1
16    7     43    1
17    8     9     1
18    8     44    1
19    8     45    1
20    9     10    1
21    9     11    1
22    9     12    1
23    11    46    1
24    11    47    1
25    11    48    1
26    12    13    1
27    12    49    1
28    12    50    1
29    13    14    1
30    13    51    1
31    13    52    1
32    14    15    1
33    14    53    1
34    14    54    1
35    15    16    1
36    15    18    1
37    15    30    1
38    16    17    3
39    18    29    ar
40    18    19    ar
41    19    20    ar
42    19    55    1
43    20    21    1
44    20    23    ar
45    21    22    1
46    22    56    1
47    22    57    1
48    22    58    1
49    23    24    1
50    23    26    ar
51    24    25    1
52    25    59    1
53    25    60    1
54    25    61    1
55    26    27    1
56    26    29    ar
57    27    28    1
58    28    62    1
59    28    63    1
60    28    64    1
61    29    65    1
62    30    31    1
63    30    32    1
64    30    66    1
65    31    67    1
66    31    68    1
67    31    69    1
68    32    70    1
69    32    71    1
70    32    72    1
71    33    34    ar
72    33    73    1
73    34    35    1
74    35    36    1
75    36    74    1
76    36    75    1
77    36    76    1
@<TRIPOS>SUBSTRUCTURE
1   ZINC000003870325 1     RESIDUE    1   A     ZIN   1
