@<TRIPOS>MOLECULE
ZINC000003930411
83    85    1     0     0
SMALL
USER_CHARGES
@<TRIPOS>ATOM
1      C1      0.9332    0.3591    1.0163 C.3      1 ZINC000003930411   -0.1500
2      C2      0.8869   -1.1631    1.1633 C.3      1 ZINC000003930411   -0.1200
3      C3      1.4212   -1.5589    2.5412 C.3      1 ZINC000003930411   -0.0600
4      C4      1.3757   -3.0583    2.6859 C.ar     1 ZINC000003930411   -0.1600
5      C5      0.2429   -3.6724    3.1998 C.ar     1 ZINC000003930411    0.2100
6      O6     -0.8219   -2.9176    3.5700 O.3      1 ZINC000003930411   -0.3000
7      C7     -1.9579   -3.6099    4.0918 C.3      1 ZINC000003930411    0.0600
8      C8     -3.0497   -2.6002    4.4514 C.3      1 ZINC000003930411   -0.1200
9      C9     -4.2659   -3.3415    5.0100 C.3      1 ZINC000003930411   -0.1200
10     C10    -5.3577   -2.3317    5.3697 C.3      1 ZINC000003930411   -0.1200
11     C11    -6.5740   -3.0730    5.9283 C.3      1 ZINC000003930411   -0.1100
12     C12    -7.6658   -2.0633    6.2879 C.3      1 ZINC000003930411   -0.0800
13     C13    -8.9054   -2.7990    6.7273 C.ar     1 ZINC000003930411   -0.0500
14     C14    -9.1235   -3.0440    8.0703 C.ar     1 ZINC000003930411   -0.1600
15     C15   -10.2601   -3.7189    8.4767 C.ar     1 ZINC000003930411   -0.1000
16     C16   -11.1804   -4.1499    7.5413 C.ar     1 ZINC000003930411   -0.2200
17     C17   -10.9638   -3.9052    6.1928 C.ar     1 ZINC000003930411    0.1400
18     O18   -11.8680   -4.3278    5.2705 O.3      1 ZINC000003930411   -0.3000
19     C19   -13.0195   -5.0181    5.7599 C.3      1 ZINC000003930411    0.0600
20     C20   -13.9154   -5.4130    4.5842 C.3      1 ZINC000003930411   -0.1200
21     C21   -15.1483   -6.1521    5.1081 C.3      1 ZINC000003930411   -0.1100
22     C22   -16.0442   -6.5469    3.9324 C.3      1 ZINC000003930411   -0.0900
23     C23   -17.2771   -7.2860    4.4564 C.3      1 ZINC000003930411   -0.1800
24     C24   -18.1596   -7.6749    3.2983 C.2      1 ZINC000003930411    0.4900
25     O25   -17.8326   -7.3875    2.1594 O.co2    1 ZINC000003930411   -0.7000
26     O26   -19.2004   -8.2769    3.5002 O.co2    1 ZINC000003930411   -0.7100
27     C27    -9.8257   -3.2231    5.7881 C.ar     1 ZINC000003930411   -0.1000
28     C28    -9.5873   -2.9556    4.3244 C.3      1 ZINC000003930411   -0.0500
29     C29   -10.2541   -1.6357    3.9319 C.3      1 ZINC000003930411   -0.1700
30     C30    -9.9961   -1.3567    2.4736 C.2      1 ZINC000003930411    0.4900
31     O31    -9.3398   -2.1409    1.8097 O.co2    1 ZINC000003930411   -0.7000
32     O32   -10.4438   -0.3468    1.9576 O.co2    1 ZINC000003930411   -0.7100
33     C33     0.1891   -5.0572    3.3385 C.ar     1 ZINC000003930411   -0.2500
34     C34     1.2554   -5.8277    2.9717 C.ar     1 ZINC000003930411    0.0100
35     C35     2.4042   -5.2224    2.4541 C.ar     1 ZINC000003930411   -0.2900
36     C36     2.4630   -3.8258    2.3006 C.ar     1 ZINC000003930411    0.2200
37     O37     3.5645   -3.2302    1.7876 O.3      1 ZINC000003930411   -0.3000
38     C38     4.8114   -3.9220    1.8529 C.3      1 ZINC000003930411    0.0700
39     C39     4.6451   -5.3278    1.2576 C.3      1 ZINC000003930411   -0.2000
40     C40     3.5664   -6.0325    2.0589 C.2      1 ZINC000003930411    0.4000
41     O41     3.6607   -7.2030    2.3647 O.2      1 ZINC000003930411   -0.4500
42     H42     1.9623    0.7030    1.1194 H        1 ZINC000003930411    0.0500
43     H43     0.5525    0.6411    0.0346 H        1 ZINC000003930411    0.0500
44     H44     0.3176    0.8177    1.7902 H        1 ZINC000003930411    0.0600
45     H45    -0.1423   -1.5070    1.0601 H        1 ZINC000003930411    0.0600
46     H46     1.5025   -1.6217    0.3894 H        1 ZINC000003930411    0.0600
47     H47     2.4504   -1.2150    2.6443 H        1 ZINC000003930411    0.0700
48     H48     0.8056   -1.1003    3.3151 H        1 ZINC000003930411    0.0800
49     H49    -2.3372   -4.3032    3.3411 H        1 ZINC000003930411    0.0700
50     H50    -1.6672   -4.1641    4.9843 H        1 ZINC000003930411    0.0700
51     H51    -2.6704   -1.9069    5.2021 H        1 ZINC000003930411    0.0700
52     H52    -3.3403   -2.0460    3.5589 H        1 ZINC000003930411    0.0800
53     H53    -4.6452   -4.0348    4.2593 H        1 ZINC000003930411    0.0700
54     H54    -3.9753   -3.8956    5.9025 H        1 ZINC000003930411    0.0600
55     H55    -4.9784   -1.6384    6.1204 H        1 ZINC000003930411    0.0600
56     H56    -5.6483   -1.7776    4.4772 H        1 ZINC000003930411    0.0700
57     H57    -6.9533   -3.7663    5.1776 H        1 ZINC000003930411    0.0700
58     H58    -6.2833   -3.6272    6.8208 H        1 ZINC000003930411    0.0600
59     H59    -7.3164   -1.4236    7.0984 H        1 ZINC000003930411    0.0700
60     H60    -7.8963   -1.4514    5.4158 H        1 ZINC000003930411    0.0800
61     H61    -8.4049   -2.7081    8.8032 H        1 ZINC000003930411    0.1100
62     H62   -10.4281   -3.9094    9.5264 H        1 ZINC000003930411    0.1200
63     H63   -12.0677   -4.6772    7.8592 H        1 ZINC000003930411    0.1200
64     H64   -12.7057   -5.9146    6.2946 H        1 ZINC000003930411    0.0600
65     H65   -13.5734   -4.3669    6.4361 H        1 ZINC000003930411    0.0600
66     H66   -14.2292   -4.5165    4.0494 H        1 ZINC000003930411    0.0800
67     H67   -13.3615   -6.0642    3.9080 H        1 ZINC000003930411    0.0700
68     H68   -14.8345   -7.0486    5.6429 H        1 ZINC000003930411    0.0600
69     H69   -15.7022   -5.5009    5.7843 H        1 ZINC000003930411    0.0600
70     H70   -16.3580   -5.6504    3.3976 H        1 ZINC000003930411    0.0600
71     H71   -15.4903   -7.1981    3.2562 H        1 ZINC000003930411    0.0600
72     H72   -16.9633   -8.1825    4.9911 H        1 ZINC000003930411    0.0500
73     H73   -17.8310   -6.6348    5.1326 H        1 ZINC000003930411    0.0500
74     H74    -8.5156   -2.8912    4.1366 H        1 ZINC000003930411    0.0700
75     H75   -10.0116   -3.7670    3.7329 H        1 ZINC000003930411    0.0700
76     H76   -11.3282   -1.7060    4.1039 H        1 ZINC000003930411    0.0600
77     H77    -9.8417   -0.8268    4.5350 H        1 ZINC000003930411    0.0500
78     H78    -0.6993   -5.5235    3.7381 H        1 ZINC000003930411    0.1400
79     H79     1.2113   -6.9012    3.0815 H        1 ZINC000003930411    0.1400
80     H80     5.5622   -3.3729    1.2847 H        1 ZINC000003930411    0.1200
81     H81     5.1286   -4.0024    2.8926 H        1 ZINC000003930411    0.0700
82     H82     4.3393   -5.2551    0.2139 H        1 ZINC000003930411    0.1100
83     H83     5.5840   -5.8763    1.3331 H        1 ZINC000003930411    0.1100
@<TRIPOS>BOND
1     1     2     1
2     1     42    1
3     1     43    1
4     1     44    1
5     2     3     1
6     2     45    1
7     2     46    1
8     3     4     1
9     3     47    1
10    3     48    1
11    4     36    ar
12    4     5     ar
13    5     6     1
14    5     33    ar
15    6     7     1
16    7     8     1
17    7     49    1
18    7     50    1
19    8     9     1
20    8     51    1
21    8     52    1
22    9     10    1
23    9     53    1
24    9     54    1
25    10    11    1
26    10    55    1
27    10    56    1
28    11    12    1
29    11    57    1
30    11    58    1
31    12    13    1
32    12    59    1
33    12    60    1
34    13    27    ar
35    13    14    ar
36    14    15    ar
37    14    61    1
38    15    16    ar
39    15    62    1
40    16    17    ar
41    16    63    1
42    17    18    1
43    17    27    ar
44    18    19    1
45    19    20    1
46    19    64    1
47    19    65    1
48    20    21    1
49    20    66    1
50    20    67    1
51    21    22    1
52    21    68    1
53    21    69    1
54    22    23    1
55    22    70    1
56    22    71    1
57    23    24    1
58    23    72    1
59    23    73    1
60    24    25    ar
61    24    26    ar
62    27    28    1
63    28    29    1
64    28    74    1
65    28    75    1
66    29    30    1
67    29    76    1
68    29    77    1
69    30    31    ar
70    30    32    ar
71    33    34    ar
72    33    78    1
73    34    35    ar
74    34    79    1
75    35    40    1
76    35    36    ar
77    36    37    1
78    37    38    1
79    38    39    1
80    38    80    1
81    38    81    1
82    39    40    1
83    39    82    1
84    39    83    1
85    40    41    2
@<TRIPOS>SUBSTRUCTURE
1   ZINC000003930411 1     RESIDUE    1   A     ZIN   1
