@<TRIPOS>MOLECULE
ZINC000000021104
32    33    1     0     0
SMALL
USER_CHARGES
@<TRIPOS>ATOM
1      C1     -0.4616    1.5066    0.2426 C.3      1 ZINC000000021104   -0.1500
2      C2     -0.1912    0.0092    0.0831 C.3      1 ZINC000000021104   -0.1100
3      C3      0.4866   -0.5242    1.3468 C.3      1 ZINC000000021104   -0.0900
4      H4     -0.1249   -0.2833    2.2163 H        1 ZINC000000021104    0.0600
5      C5      1.8651    0.1222    1.4978 C.3      1 ZINC000000021104   -0.1600
6      C6      0.6442   -2.0423    1.2390 C.3      1 ZINC000000021104    0.0900
7      H7     -0.3249   -2.4940    1.0271 H        1 ZINC000000021104    0.1000
8      C8      1.6054   -2.3697    0.1255 C.2      1 ZINC000000021104    0.5000
9      O9      2.7981   -2.4672    0.3586 O.co2    1 ZINC000000021104   -0.6600
10     O10     1.1902   -2.5371   -1.0086 O.co2    1 ZINC000000021104   -0.6800
11     N11     1.1632   -2.5703    2.5031 N.am     1 ZINC000000021104   -0.5800
12     S12     2.6958   -2.2554    3.1494 S.3      1 ZINC000000021104    0.3400
13     C13     2.5036   -3.2299    4.6082 C.ar     1 ZINC000000021104   -0.1300
14     C14     3.3407   -3.4976    5.6844 C.ar     1 ZINC000000021104   -0.1000
15     C15     2.9038   -4.3175    6.7018 C.ar     1 ZINC000000021104   -0.0700
16     C16     1.6320   -4.8720    6.6483 C.ar     1 ZINC000000021104   -0.1500
17     C17     0.7989   -4.6199    5.6009 C.ar     1 ZINC000000021104   -0.0200
18     C18     1.2139   -3.7858    4.5435 C.ar     1 ZINC000000021104   -0.1800
19     C19     0.5051   -3.3739    3.3384 C.2      1 ZINC000000021104    0.5200
20     O20    -0.6309   -3.7488    3.1042 O.2      1 ZINC000000021104   -0.5400
21     H21     0.4809    2.0314    0.3986 H        1 ZINC000000021104    0.0500
22     H22    -0.9444    1.8866   -0.6577 H        1 ZINC000000021104    0.0500
23     H23    -1.1139    1.6686    1.1007 H        1 ZINC000000021104    0.0500
24     H24    -1.1337   -0.5157   -0.0729 H        1 ZINC000000021104    0.0600
25     H25     0.4612   -0.1528   -0.7750 H        1 ZINC000000021104    0.0800
26     H26     2.5160   -0.2177    0.6922 H        1 ZINC000000021104    0.0800
27     H27     1.7650    1.2066    1.4510 H        1 ZINC000000021104    0.0500
28     H28     2.2964   -0.1618    2.4577 H        1 ZINC000000021104    0.0600
29     H29     4.3296   -3.0652    5.7230 H        1 ZINC000000021104    0.1300
30     H30     3.5505   -4.5291    7.5405 H        1 ZINC000000021104    0.1300
31     H31     1.2981   -5.5138    7.4501 H        1 ZINC000000021104    0.1300
32     H32    -0.1862   -5.0621    5.5804 H        1 ZINC000000021104    0.1300
@<TRIPOS>BOND
1     1     2     1
2     1     21    1
3     1     22    1
4     1     23    1
5     2     3     1
6     2     24    1
7     2     25    1
8     3     4     1
9     3     5     1
10    3     6     1
11    5     26    1
12    5     27    1
13    5     28    1
14    6     7     1
15    6     8     1
16    6     11    1
17    8     9     ar
18    8     10    ar
19    11    19    am
20    11    12    1
21    12    13    1
22    13    18    ar
23    13    14    ar
24    14    15    ar
25    14    29    1
26    15    16    ar
27    15    30    1
28    16    17    ar
29    16    31    1
30    17    18    ar
31    17    32    1
32    18    19    1
33    19    20    2
@<TRIPOS>SUBSTRUCTURE
1   ZINC000000021104 1     RESIDUE    1   A     ZIN   1
