@<TRIPOS>MOLECULE
ZINC000001484671
40    43    1     0     0
SMALL
USER_CHARGES
@<TRIPOS>ATOM
1      O1     -2.9671    3.2184    3.3618 O.co2    1 ZINC000001484671   -0.6800
2      C2     -2.2220    3.6129    2.4741 C.2      1 ZINC000001484671    0.5400
3      O3     -1.4175    4.5070    2.7024 O.co2    1 ZINC000001484671   -0.6400
4      C4     -2.2890    3.0100    1.1384 C.2      1 ZINC000001484671    0.0900
5      C5     -1.5392    3.4046    0.0356 C.2      1 ZINC000001484671   -0.1500
6      C6     -0.5469    4.4843   -0.0137 C.2      1 ZINC000001484671    0.0600
7      C7      0.5615    4.4185    0.7554 C.2      1 ZINC000001484671   -0.1600
8      C8      0.9975    3.2492    1.6135 C.3      1 ZINC000001484671   -0.0900
9      C9      2.3117    3.7240    2.2561 C.3      1 ZINC000001484671    0.1000
10     N10     2.5469    5.0792    1.7538 N.am     1 ZINC000001484671   -0.5500
11     C11     3.6468    5.8697    2.0997 C.ar     1 ZINC000001484671    0.1800
12     C12     3.8460    7.0957    1.4776 C.ar     1 ZINC000001484671   -0.1600
13     C13     4.9337    7.8741    1.8216 C.ar     1 ZINC000001484671   -0.0900
14     C14     5.8239    7.4344    2.7841 C.ar     1 ZINC000001484671   -0.1600
15     C15     5.6288    6.2142    3.4050 C.ar     1 ZINC000001484671   -0.0900
16     C16     4.5398    5.4336    3.0702 C.ar     1 ZINC000001484671   -0.1600
17     C17     1.5756    5.4603    0.9155 C.2      1 ZINC000001484671    0.5600
18     O18     1.5366    6.5432    0.3615 O.2      1 ZINC000001484671   -0.5200
19     C19    -1.9392    2.5237   -1.0703 C.ar     1 ZINC000001484671   -0.0800
20     C20    -1.5532    2.4227   -2.4094 C.ar     1 ZINC000001484671    0.0200
21     Cl21   -0.3522    3.4975   -3.0545 Cl       1 ZINC000001484671   -0.0600
22     C22    -2.1297    1.4660   -3.2149 C.ar     1 ZINC000001484671   -0.1300
23     C23    -3.0910    0.6036   -2.7017 C.ar     1 ZINC000001484671   -0.0200
24     Cl24   -3.8062   -0.5964   -3.7323 Cl       1 ZINC000001484671   -0.0700
25     C25    -3.4821    0.6908   -1.3834 C.ar     1 ZINC000001484671   -0.1100
26     C26    -2.9126    1.6508   -0.5498 C.ar     1 ZINC000001484671    0.1100
27     N27    -3.0977    1.9612    0.7765 N.pl3    1 ZINC000001484671   -0.5500
28     H28    -0.7027    5.3317   -0.6649 H        1 ZINC000001484671    0.1300
29     H29     0.2518    3.0394    2.3803 H        1 ZINC000001484671    0.1100
30     H30     1.1710    2.3671    0.9970 H        1 ZINC000001484671    0.0800
31     H31     2.2140    3.7386    3.3416 H        1 ZINC000001484671    0.0800
32     H32     3.1309    3.0680    1.9619 H        1 ZINC000001484671    0.0800
33     H33     3.1513    7.4395    0.7256 H        1 ZINC000001484671    0.1600
34     H34     5.0893    8.8272    1.3381 H        1 ZINC000001484671    0.1200
35     H35     6.6737    8.0451    3.0513 H        1 ZINC000001484671    0.1200
36     H36     6.3263    5.8734    4.1558 H        1 ZINC000001484671    0.1200
37     H37     4.3878    4.4810    3.5557 H        1 ZINC000001484671    0.1200
38     H38    -1.8336    1.3858   -4.2504 H        1 ZINC000001484671    0.1400
39     H39    -4.2305    0.0151   -0.9964 H        1 ZINC000001484671    0.1300
40     H40    -3.7137    1.5057    1.3714 H        1 ZINC000001484671    0.4300
@<TRIPOS>BOND
1     1     2     ar
2     2     3     ar
3     2     4     1
4     4     27    1
5     4     5     2
6     5     6     1
7     5     19    1
8     6     7     2
9     6     28    1
10    7     17    1
11    7     8     1
12    8     9     1
13    8     29    1
14    8     30    1
15    9     10    1
16    9     31    1
17    9     32    1
18    10    11    1
19    10    17    am
20    11    16    ar
21    11    12    ar
22    12    13    ar
23    12    33    1
24    13    14    ar
25    13    34    1
26    14    15    ar
27    14    35    1
28    15    16    ar
29    15    36    1
30    16    37    1
31    17    18    2
32    19    26    ar
33    19    20    ar
34    20    21    1
35    20    22    ar
36    22    23    ar
37    22    38    1
38    23    24    1
39    23    25    ar
40    25    26    ar
41    25    39    1
42    26    27    1
43    27    40    1
@<TRIPOS>SUBSTRUCTURE
1   ZINC000001484671 1     RESIDUE    1   A     ZIN   1
