@<TRIPOS>MOLECULE
ZINC000000403053
  30   31    0    0    0
SMALL
USER_CHARGES
NO_NAME
@<TRIPOS>ATOM
    1 C1       -0.0178     1.4648     0.0101 C.3    1 <0>      -0.0500
    2 N2        0.0021    -0.0041     0.0020 N.4    1 <0>      -0.5100
    3 H3        0.4744    -0.3295    -0.8281 H      1 <0>       0.4300
    4 H4        0.4901    -0.3383     0.8195 H      1 <0>       0.4300
    5 C5       -1.3761    -0.5125     0.0124 C.3    1 <0>       0.0300
    6 H6       -1.9290    -0.0808    -0.8218 H      1 <0>       0.1400
    7 C7       -2.0530    -0.1241     1.3284 C.3    1 <0>      -0.1800
    8 C8       -1.3584    -2.0365    -0.1216 C.3    1 <0>      -0.0900
    9 C9       -0.8038    -2.4158    -1.4706 C.ar   1 <0>      -0.1200
   10 C10      -1.6540    -2.5559    -2.5511 C.ar   1 <0>      -0.0900
   11 C11      -1.1499    -2.9037    -3.7909 C.ar   1 <0>      -0.0900
   12 C12       0.2097    -3.1130    -3.9525 C.ar   1 <0>       0.0500
   13 O13       0.9487    -3.4583    -5.0469 O.3    1 <0>      -0.3000
   14 C14       2.3095    -3.1280    -4.7117 C.3    1 <0>       0.2100
   15 O15       2.3422    -3.2286    -3.2758 O.3    1 <0>      -0.3000
   16 C16       1.0667    -2.9718    -2.8633 C.ar   1 <0>       0.0500
   17 C17       0.5554    -2.6172    -1.6258 C.ar   1 <0>      -0.1300
   18 H18       1.0047     1.8421     0.0024 H      1 <0>       0.1300
   19 H19      -0.5450     1.8259    -0.8730 H      1 <0>       0.1200
   20 H20      -0.5280     1.8163     0.9069 H      1 <0>       0.1300
   21 H21      -1.5001    -0.5559     2.1627 H      1 <0>       0.0800
   22 H22      -2.0656     0.9616     1.4239 H      1 <0>       0.0800
   23 H23      -3.0756    -0.5014     1.3362 H      1 <0>       0.1100
   24 H24      -0.7319    -2.4630     0.6618 H      1 <0>       0.1000
   25 H25      -2.3736    -2.4216    -0.0249 H      1 <0>       0.1300
   26 H26      -2.7145    -2.3938    -2.4269 H      1 <0>       0.1500
   27 H27      -1.8166    -3.0124    -4.6336 H      1 <0>       0.1500
   28 H28       2.9989    -3.8426    -5.1615 H      1 <0>       0.1400
   29 H29       2.5468    -2.1129    -5.0301 H      1 <0>       0.0900
   30 H30       1.2183    -2.5012    -0.7811 H      1 <0>       0.1300
@<TRIPOS>BOND
   1    1    2 1
   2    1   18 1
   3    1   19 1
   4    1   20 1
   5    2    3 1
   6    2    4 1
   7    2    5 1
   8    5    6 1
   9    5    7 1
  10    5    8 1
  11    7   21 1
  12    7   22 1
  13    7   23 1
  14    8    9 1
  15    8   24 1
  16    8   25 1
  17    9   17 ar
  18    9   10 ar
  19   10   11 ar
  20   10   26 1
  21   11   12 ar
  22   11   27 1
  23   12   16 ar
  24   12   13 1
  25   13   14 1
  26   14   15 1
  27   14   28 1
  28   14   29 1
  29   15   16 1
  30   16   17 ar
  31   17   30 1
