@<TRIPOS>MOLECULE
ZINC000100042108
  49   51    0    0    0
SMALL
USER_CHARGES
NO_NAME
@<TRIPOS>ATOM
    1 C1       -0.0858     1.4257    -0.0222 C.3    1 <0>       0.0300
    2 O2       -0.0436    -0.0026    -0.0092 O.3    1 <0>      -0.3100
    3 C3       -1.2152    -0.6570    -0.2294 C.ar   1 <0>       0.1000
    4 C4       -2.3781     0.0599    -0.4587 C.ar   1 <0>      -0.1700
    5 C5       -3.5686    -0.6071    -0.6829 C.ar   1 <0>      -0.1000
    6 C6       -3.6016    -1.9888    -0.6785 C.ar   1 <0>      -0.0700
    7 C7       -4.9018    -2.7105    -0.9230 C.3    1 <0>       0.0800
    8 C8       -5.2267    -3.5454     0.2450 C.1    1 <0>       0.2300
    9 N9       -5.4774    -4.1897     1.1464 N.1    1 <0>      -0.4400
   10 C10      -4.7675    -3.5974    -2.1624 C.3    1 <0>      -0.1000
   11 C11      -6.0875    -4.3302    -2.4106 C.3    1 <0>      -0.1000
   12 C12      -7.2041    -3.3082    -2.6333 C.3    1 <0>      -0.1500
   13 H13      -6.9636    -2.6899    -3.4982 H      1 <0>       0.0700
   14 C14      -8.5043    -4.0299    -2.8778 C.2    1 <0>       0.4900
   15 O15      -9.5588    -3.5151    -2.5470 O.co2  1 <0>      -0.7000
   16 O16      -8.5016    -5.1286    -3.4063 O.co2  1 <0>      -0.7000
   17 C17      -7.3384    -2.4212    -1.3939 C.3    1 <0>      -0.1000
   18 C18      -6.0184    -1.6885    -1.1457 C.3    1 <0>      -0.1100
   19 C19      -2.4442    -2.7104    -0.4507 C.ar   1 <0>      -0.1600
   20 C20      -1.2474    -2.0485    -0.2306 C.ar   1 <0>       0.1100
   21 O21      -0.1082    -2.7567    -0.0065 O.3    1 <0>      -0.3000
   22 C22      -0.2382    -4.1752     0.1085 C.3    1 <0>       0.0800
   23 C23      -0.1117    -4.8456    -1.2820 C.3    1 <0>      -0.1500
   24 C24       0.3318    -6.2867    -0.9275 C.3    1 <0>      -0.1200
   25 C25       1.2987    -6.1035     0.2605 C.3    1 <0>      -0.1200
   26 C26       0.9363    -4.7609     0.9192 C.3    1 <0>      -0.1200
   27 H27       0.9126     1.8205     0.1660 H      1 <0>       0.1000
   28 H28      -0.4351     1.7700    -0.9956 H      1 <0>       0.0500
   29 H29      -0.7672     1.7761     0.7530 H      1 <0>       0.0500
   30 H30      -2.3552     1.1396    -0.4620 H      1 <0>       0.1400
   31 H31      -4.4746    -0.0470    -0.8616 H      1 <0>       0.1400
   32 H32      -4.5270    -2.9792    -3.0273 H      1 <0>       0.0800
   33 H33      -3.9721    -4.3255    -2.0037 H      1 <0>       0.0600
   34 H34      -5.9919    -4.9621    -3.2936 H      1 <0>       0.0800
   35 H35      -6.3281    -4.9484    -1.5457 H      1 <0>       0.0500
   36 H36      -8.1339    -1.6931    -1.5526 H      1 <0>       0.0800
   37 H37      -7.5789    -3.0395    -0.5290 H      1 <0>       0.0500
   38 H38      -6.1140    -1.0566    -0.2627 H      1 <0>       0.0700
   39 H39      -5.7778    -1.0702    -2.0106 H      1 <0>       0.0800
   40 H40      -2.4728    -3.7900    -0.4478 H      1 <0>       0.1400
   41 H41      -1.1894    -4.4337     0.5739 H      1 <0>       0.0800
   42 H42      -1.0728    -4.8527    -1.7962 H      1 <0>       0.0700
   43 H43       0.6464    -4.3453    -1.8846 H      1 <0>       0.0800
   44 H44      -0.5274    -6.8882    -0.6308 H      1 <0>       0.0700
   45 H45       0.8469    -6.7457    -1.7713 H      1 <0>       0.0700
   46 H46       1.1706    -6.9166     0.9750 H      1 <0>       0.0700
   47 H47       2.3283    -6.0783    -0.0965 H      1 <0>       0.0700
   48 H48       1.7900    -4.0842     0.8819 H      1 <0>       0.0800
   49 H49       0.6323    -4.9225     1.9534 H      1 <0>       0.0700
@<TRIPOS>BOND
   1    1    2 1
   2    1   27 1
   3    1   28 1
   4    1   29 1
   5    2    3 1
   6    3   20 ar
   7    3    4 ar
   8    4    5 ar
   9    4   30 1
  10    5    6 ar
  11    5   31 1
  12    6    7 1
  13    6   19 ar
  14    7   18 1
  15    7    8 1
  16    7   10 1
  17    8    9 3
  18   10   11 1
  19   10   32 1
  20   10   33 1
  21   11   12 1
  22   11   34 1
  23   11   35 1
  24   12   13 1
  25   12   14 1
  26   12   17 1
  27   14   15 ar
  28   14   16 ar
  29   17   18 1
  30   17   36 1
  31   17   37 1
  32   18   38 1
  33   18   39 1
  34   19   20 ar
  35   19   40 1
  36   20   21 1
  37   21   22 1
  38   22   26 1
  39   22   23 1
  40   22   41 1
  41   23   24 1
  42   23   42 1
  43   23   43 1
  44   24   25 1
  45   24   44 1
  46   24   45 1
  47   25   26 1
  48   25   46 1
  49   25   47 1
  50   26   48 1
  51   26   49 1
