@<TRIPOS>MOLECULE
ZINC000100374472
71    74    1     0     0
SMALL
USER_CHARGES
@<TRIPOS>ATOM
1      C1     -6.2347   -1.2348   -2.6583 C.3      1 ZINC000100374472   -0.1700
2      C2     -5.0925   -0.2171   -2.6850 C.3      1 ZINC000100374472    0.1200
3      C3     -5.6580    1.1771   -2.9629 C.3      1 ZINC000100374472   -0.1700
4      N4     -4.4080   -0.2171   -1.3898 N.am     1 ZINC000100374472   -0.5100
5      C5     -5.0838    0.1408   -0.2820 C.2      1 ZINC000100374472    0.5500
6      O6     -6.2559    0.4614   -0.3624 O.2      1 ZINC000100374472   -0.4800
7      C7     -4.4119    0.1452    1.0220 C.2      1 ZINC000100374472   -0.2200
8      C8     -5.1466    0.5354    2.2372 C.2      1 ZINC000100374472    0.5500
9      O9     -6.3399    0.7633    2.1796 O.2      1 ZINC000100374472   -0.5100
10     N10    -4.4965    0.6400    3.4132 N.am     1 ZINC000100374472   -0.7500
11     C11    -5.2445    0.9213    4.6411 C.3      1 ZINC000100374472    0.1400
12     H12    -6.3089    0.9764    4.4127 H        1 ZINC000100374472    0.1000
13     C13    -4.9985   -0.1993    5.6554 C.3      1 ZINC000100374472   -0.1200
14     C14    -3.5219   -0.1695    6.0815 C.3      1 ZINC000100374472    0.0700
15     H15    -3.2557   -1.0269    6.6997 H        1 ZINC000100374472    0.1000
16     C16    -2.6615   -0.0830    4.7999 C.3      1 ZINC000100374472   -0.1900
17     C17    -2.5223    1.4276    4.5186 C.3      1 ZINC000100374472   -0.1900
18     C18    -3.3111    2.1166    5.6559 C.3      1 ZINC000100374472    0.0600
19     H19    -2.8709    3.0715    5.9430 H        1 ZINC000100374472    0.1000
20     C20    -4.7792    2.2579    5.2260 C.3      1 ZINC000100374472   -0.1200
21     N21    -3.2912    1.1223    6.7814 N.3      1 ZINC000100374472   -0.4800
22     C22    -1.9919    1.1288    7.4668 C.3      1 ZINC000100374472    0.0100
23     C23    -1.7873    2.4778    8.1591 C.3      1 ZINC000100374472    0.0900
24     H24    -1.8325    3.2767    7.4189 H        1 ZINC000100374472    0.0900
25     O25    -2.8136    2.6733    9.1341 O.3      1 ZINC000100374472   -0.5400
26     C26    -0.4206    2.4962    8.8466 C.3      1 ZINC000100374472    0.0800
27     N27    -0.2247    3.7878    9.5095 N.am     1 ZINC000100374472   -0.9900
28     C28    -0.7501    4.0053   10.8597 C.3      1 ZINC000100374472    0.1000
29     S29     0.5906    5.0020    8.7327 S.o2     1 ZINC000100374472    2.6100
30     C30    -0.6985    5.9130    7.8388 C.3      1 ZINC000100374472   -0.6700
31     O31     1.1234    5.7951    9.7845 O.2      1 ZINC000100374472   -0.9500
32     O32     1.4446    4.3237    7.8218 O.2      1 ZINC000100374472   -0.9600
33     C33    -3.0807   -0.2219    1.0969 C.2      1 ZINC000100374472    0.0200
34     C34    -2.4014   -0.5924   -0.0885 C.ar     1 ZINC000100374472   -0.1500
35     C35    -1.0506   -0.9698   -0.0419 C.ar     1 ZINC000100374472   -0.0500
36     C36    -0.4043   -1.3258   -1.1899 C.ar     1 ZINC000100374472   -0.1600
37     C37    -1.0720   -1.3183   -2.4074 C.ar     1 ZINC000100374472   -0.0500
38     C38    -2.3983   -0.9517   -2.4791 C.ar     1 ZINC000100374472   -0.1800
39     C39    -3.0821   -0.5892   -1.3216 C.ar     1 ZINC000100374472    0.2100
40     H40    -6.7439   -1.2347   -3.6220 H        1 ZINC000100374472    0.0800
41     H41    -5.8317   -2.2280   -2.4602 H        1 ZINC000100374472    0.0600
42     H42    -6.9420   -0.9665   -1.8735 H        1 ZINC000100374472    0.0800
43     H43    -4.3852   -0.4853   -3.4698 H        1 ZINC000100374472    0.1000
44     H44    -6.3654    1.4453   -2.1782 H        1 ZINC000100374472    0.0900
45     H45    -4.8443    1.9021   -2.9820 H        1 ZINC000100374472    0.0600
46     H46    -6.1673    1.1771   -3.9266 H        1 ZINC000100374472    0.0700
47     H47    -3.5335    0.5291    3.4466 H        1 ZINC000100374472    0.4200
48     H48    -5.6335   -0.0475    6.5282 H        1 ZINC000100374472    0.0900
49     H49    -5.2272   -1.1620    5.1983 H        1 ZINC000100374472    0.0700
50     H50    -1.6816   -0.5291    4.9701 H        1 ZINC000100374472    0.0800
51     H51    -3.1659   -0.5785    3.9703 H        1 ZINC000100374472    0.1000
52     H52    -1.4740    1.7243    4.5503 H        1 ZINC000100374472    0.0800
53     H53    -2.9583    1.6750    3.5507 H        1 ZINC000100374472    0.1000
54     H54    -4.8624    3.0273    4.4584 H        1 ZINC000100374472    0.0700
55     H55    -5.3872    2.5325    6.0881 H        1 ZINC000100374472    0.0900
56     H56    -1.9691    0.3318    8.2100 H        1 ZINC000100374472    0.0800
57     H57    -1.1964    0.9697    6.7389 H        1 ZINC000100374472    0.0500
58     H58    -2.8329    1.9976    9.8257 H        1 ZINC000100374472    0.3700
59     H59    -0.3754    1.6973    9.5868 H        1 ZINC000100374472    0.0900
60     H60     0.3622    2.3471    8.1029 H        1 ZINC000100374472    0.1000
61     H61     0.0041    3.7205   11.5933 H        1 ZINC000100374472    0.0600
62     H62    -1.0010    5.0584   10.9866 H        1 ZINC000100374472    0.0700
63     H63    -1.6443    3.3989   11.0036 H        1 ZINC000100374472    0.0800
64     H64    -1.4275    6.3022    8.5494 H        1 ZINC000100374472    0.1300
65     H65    -0.2460    6.7405    7.2924 H        1 ZINC000100374472    0.1300
66     H66    -1.1964    5.2436    7.1373 H        1 ZINC000100374472    0.1200
67     H67    -2.5663   -0.2254    2.0465 H        1 ZINC000100374472    0.1400
68     H68    -0.5233   -0.9782    0.9006 H        1 ZINC000100374472    0.1400
69     H69     0.6354   -1.6154   -1.1513 H        1 ZINC000100374472    0.1300
70     H70    -0.5465   -1.6023   -3.3072 H        1 ZINC000100374472    0.1400
71     H71    -2.9079   -0.9494   -3.4313 H        1 ZINC000100374472    0.1400
@<TRIPOS>BOND
1     1     2     1
2     1     40    1
3     1     41    1
4     1     42    1
5     2     3     1
6     2     4     1
7     2     43    1
8     3     44    1
9     3     45    1
10    3     46    1
11    4     39    1
12    4     5     am
13    5     6     2
14    5     7     1
15    7     8     1
16    7     33    2
17    8     9     2
18    8     10    am
19    10    11    1
20    10    47    1
21    11    12    1
22    11    20    1
23    11    13    1
24    13    14    1
25    13    48    1
26    13    49    1
27    14    15    1
28    14    21    1
29    14    16    1
30    16    17    1
31    16    50    1
32    16    51    1
33    17    18    1
34    17    52    1
35    17    53    1
36    18    19    1
37    18    20    1
38    18    21    1
39    20    54    1
40    20    55    1
41    21    22    1
42    22    23    1
43    22    56    1
44    22    57    1
45    23    24    1
46    23    25    1
47    23    26    1
48    25    58    1
49    26    27    1
50    26    59    1
51    26    60    1
52    27    28    1
53    27    29    am
54    28    61    1
55    28    62    1
56    28    63    1
57    29    30    1
58    29    31    2
59    29    32    2
60    30    64    1
61    30    65    1
62    30    66    1
63    33    34    1
64    33    67    1
65    34    39    ar
66    34    35    ar
67    35    36    ar
68    35    68    1
69    36    37    ar
70    36    69    1
71    37    38    ar
72    37    70    1
73    38    39    ar
74    38    71    1
@<TRIPOS>SUBSTRUCTURE
1   ZINC000100374472 1     RESIDUE    1   A     ZIN   1
