@<TRIPOS>MOLECULE
ZINC000000093985
  30   32    0    0    0
SMALL
USER_CHARGES
NO_NAME
@<TRIPOS>ATOM
    1 N1       -0.0162     1.3436     0.0094 N.am   1 <0>      -0.8500
    2 C2        0.0021    -0.0041     0.0020 C.2    1 <0>       0.5200
    3 O3        1.0605    -0.5961    -0.0113 O.2    1 <0>      -0.5400
    4 C4       -1.2926    -0.7753     0.0102 C.3    1 <0>      -0.0500
    5 H5       -1.8611    -0.5262     0.9063 H      1 <0>       0.1200
    6 C6       -2.1120    -0.4182    -1.2347 C.3    1 <0>      -0.1100
    7 C7       -3.2989    -1.3780    -1.3564 C.3    1 <0>      -0.1200
    8 C8       -2.7858    -2.7740    -1.7291 C.3    1 <0>      -0.0500
    9 C9       -1.6662    -3.1406    -0.7882 C.2    1 <0>      -0.1600
   10 C10      -1.0002    -2.2573    -0.0092 C.2    1 <0>       0.0900
   11 N11      -0.0468    -2.9128     0.7248 N.pl3  1 <0>      -0.5600
   12 C12      -0.0762    -4.2472     0.4346 C.ar   1 <0>       0.1100
   13 C13       0.6758    -5.3207     0.9058 C.ar   1 <0>      -0.1200
   14 C14       0.3806    -6.5711     0.3909 C.ar   1 <0>      -0.0900
   15 C15      -0.6157    -6.7660    -0.5527 C.ar   1 <0>      -0.0600
   16 Cl16     -0.9163    -8.3711    -1.1420 Cl     1 <0>      -0.0800
   17 C17      -1.3783    -5.7181    -1.0385 C.ar   1 <0>      -0.0500
   18 C18      -1.0988    -4.4475    -0.5288 C.ar   1 <0>      -0.0900
   19 H19       0.8172     1.8399     0.0041 H      1 <0>       0.4100
   20 H20      -0.8627     1.8171     0.0160 H      1 <0>       0.4000
   21 H21      -2.4791     0.6044    -1.1472 H      1 <0>       0.0800
   22 H22      -1.4829    -0.5040    -2.1207 H      1 <0>       0.0800
   23 H23      -3.8266    -1.4267    -0.4039 H      1 <0>       0.0700
   24 H24      -3.9776    -1.0211    -2.1311 H      1 <0>       0.0800
   25 H25      -3.5947    -3.4985    -1.6353 H      1 <0>       0.0800
   26 H26      -2.4148    -2.7660    -2.7540 H      1 <0>       0.0700
   27 H27       0.5586    -2.4924     1.3555 H      1 <0>       0.4200
   28 H28       1.4554    -5.1834     1.6405 H      1 <0>       0.1400
   29 H29       0.9462    -7.4240     0.7360 H      1 <0>       0.1300
   30 H30      -2.1533    -5.8752    -1.7741 H      1 <0>       0.1400
@<TRIPOS>BOND
   1    1    2 am
   2    1   19 1
   3    1   20 1
   4    2    3 2
   5    2    4 1
   6    4    5 1
   7    4   10 1
   8    4    6 1
   9    6    7 1
  10    6   21 1
  11    6   22 1
  12    7    8 1
  13    7   23 1
  14    7   24 1
  15    8    9 1
  16    8   25 1
  17    8   26 1
  18    9   18 1
  19    9   10 2
  20   10   11 1
  21   11   12 1
  22   11   27 1
  23   12   18 ar
  24   12   13 ar
  25   13   14 ar
  26   13   28 1
  27   14   15 ar
  28   14   29 1
  29   15   16 1
  30   15   17 ar
  31   17   18 ar
  32   17   30 1
