@<TRIPOS>MOLECULE
ZINC000039716080
56    59    1     0     0
SMALL
USER_CHARGES
@<TRIPOS>ATOM
1      C1     -3.5693   -1.3975   -0.7345 C.3      1 ZINC000039716080   -0.1500
2      C2     -2.1416   -1.8472   -0.4174 C.3      1 ZINC000039716080   -0.0100
3      O3     -1.5914   -2.5208   -1.5511 O.3      1 ZINC000039716080   -0.2900
4      C4     -0.2744   -2.8220   -1.5065 C.2      1 ZINC000039716080    0.2900
5      C5      0.4632   -2.6290   -0.3285 C.2      1 ZINC000039716080   -0.4000
6      C6     -0.1805   -2.0965    0.8776 C.2      1 ZINC000039716080    0.6200
7      O7     -0.2332   -0.8942    1.0589 O.2      1 ZINC000039716080   -0.5000
8      N8     -0.7135   -2.9388    1.7848 N.am     1 ZINC000039716080   -0.6700
9      C9     -1.2301   -2.4382    2.9862 C.ar     1 ZINC000039716080    0.2100
10     C10    -1.7981   -1.1720    3.0236 C.ar     1 ZINC000039716080   -0.1300
11     C11    -2.3079   -0.6777    4.2087 C.ar     1 ZINC000039716080   -0.0500
12     C12    -2.2529   -1.4457    5.3616 C.ar     1 ZINC000039716080   -0.0200
13     O13    -2.7551   -0.9582    6.5278 O.3      1 ZINC000039716080   -0.1900
14     C14    -1.8765   -0.5561    7.4814 C.ar     1 ZINC000039716080    0.2800
15     C15    -0.5057   -0.5347    7.2261 C.ar     1 ZINC000039716080   -0.2400
16     C16     0.3578   -0.1202    8.2174 C.ar     1 ZINC000039716080    0.2000
17     N17    -0.0956    0.2543    9.3996 N.ar     1 ZINC000039716080   -0.5100
18     H18     0.5357    0.5409   10.0780 H        1 ZINC000039716080    0.4500
19     C19    -1.3897    0.2496    9.6840 C.ar     1 ZINC000039716080    0.4900
20     N20    -1.8196    0.6535   10.9437 N.pl3    1 ZINC000039716080   -0.8100
21     C21    -2.3219   -0.1501    8.7345 C.ar     1 ZINC000039716080   -0.1800
22     Cl22   -4.0166   -0.1543    9.1110 Cl       1 ZINC000039716080    0.0300
23     C23    -1.6852   -2.7136    5.3259 C.ar     1 ZINC000039716080    0.1300
24     F24    -1.6324   -3.4623    6.4492 F        1 ZINC000039716080   -0.1200
25     C25    -1.1797   -3.2107    4.1393 C.ar     1 ZINC000039716080   -0.1700
26     C26     1.8400   -2.9581   -0.3257 C.2      1 ZINC000039716080    0.5600
27     O27     2.5035   -2.8004    0.6848 O.2      1 ZINC000039716080   -0.5300
28     N28     2.4152   -3.4461   -1.4406 N.am     1 ZINC000039716080   -0.4600
29     C29     3.7786   -3.7688   -1.4257 C.ar     1 ZINC000039716080    0.0800
30     C30     4.2305   -4.8435   -0.6714 C.ar     1 ZINC000039716080   -0.0600
31     C31     5.5746   -5.1602   -0.6584 C.ar     1 ZINC000039716080   -0.1400
32     C32     6.4716   -4.4068   -1.3971 C.ar     1 ZINC000039716080    0.1200
33     F33     7.7861   -4.7185   -1.3834 F        1 ZINC000039716080   -0.1300
34     C34     6.0229   -3.3345   -2.1500 C.ar     1 ZINC000039716080   -0.1400
35     C35     4.6789   -3.0178   -2.1698 C.ar     1 ZINC000039716080   -0.0700
36     C36     1.6987   -3.6321   -2.5799 C.2      1 ZINC000039716080    0.2000
37     C37     0.3794   -3.3393   -2.6364 C.2      1 ZINC000039716080   -0.2400
38     H38    -3.5556   -0.7201   -1.5883 H        1 ZINC000039716080    0.0700
39     H39    -4.1803   -2.2685   -0.9715 H        1 ZINC000039716080    0.0700
40     H40    -3.9889   -0.8837    0.1303 H        1 ZINC000039716080    0.0800
41     H41    -1.5306   -0.9762   -0.1804 H        1 ZINC000039716080    0.1100
42     H42    -2.1553   -2.5246    0.4365 H        1 ZINC000039716080    0.0800
43     H43    -0.7391   -3.8917    1.6055 H        1 ZINC000039716080    0.4200
44     H44    -1.8410   -0.5729    2.1260 H        1 ZINC000039716080    0.1700
45     H45    -2.7492    0.3076    4.2370 H        1 ZINC000039716080    0.1600
46     H46    -0.1248   -0.8398    6.2627 H        1 ZINC000039716080    0.1900
47     H47     1.4203   -0.1019    8.0245 H        1 ZINC000039716080    0.2200
48     H48    -1.1730    0.9367   11.6091 H        1 ZINC000039716080    0.4300
49     H49    -2.7659    0.6519   11.1569 H        1 ZINC000039716080    0.4400
50     H50    -0.7386   -4.1962    4.1106 H        1 ZINC000039716080    0.1600
51     H51     3.5313   -5.4310   -0.0950 H        1 ZINC000039716080    0.1400
52     H52     5.9264   -5.9958   -0.0716 H        1 ZINC000039716080    0.1500
53     H53     6.7241   -2.7480   -2.7251 H        1 ZINC000039716080    0.1500
54     H54     4.3294   -2.1816   -2.7571 H        1 ZINC000039716080    0.1400
55     H55     2.1916   -4.0255   -3.4567 H        1 ZINC000039716080    0.1800
56     H56    -0.1695   -3.4955   -3.5534 H        1 ZINC000039716080    0.1700
@<TRIPOS>BOND
1     1     2     1
2     1     38    1
3     1     39    1
4     1     40    1
5     2     3     1
6     2     41    1
7     2     42    1
8     3     4     1
9     4     37    1
10    4     5     2
11    5     6     1
12    5     26    1
13    6     7     2
14    6     8     am
15    8     9     1
16    8     43    1
17    9     25    ar
18    9     10    ar
19    10    11    ar
20    10    44    1
21    11    12    ar
22    11    45    1
23    12    13    1
24    12    23    ar
25    13    14    1
26    14    21    ar
27    14    15    ar
28    15    16    ar
29    15    46    1
30    16    17    ar
31    16    47    1
32    17    18    1
33    17    19    ar
34    19    20    1
35    19    21    ar
36    20    48    1
37    20    49    1
38    21    22    1
39    23    24    1
40    23    25    ar
41    25    50    1
42    26    27    2
43    26    28    am
44    28    29    1
45    28    36    1
46    29    35    ar
47    29    30    ar
48    30    31    ar
49    30    51    1
50    31    32    ar
51    31    52    1
52    32    33    1
53    32    34    ar
54    34    35    ar
55    34    53    1
56    35    54    1
57    36    37    2
58    36    55    1
59    37    56    1
@<TRIPOS>SUBSTRUCTURE
1   ZINC000039716080 1     RESIDUE    1   A     ZIN   1
