@<TRIPOS>MOLECULE
ZINC000003801510
51    54    1     0     0
SMALL
USER_CHARGES
@<TRIPOS>ATOM
1      C1     -0.2212    1.4183    0.3864 C.3      1 ZINC000003801510   -0.1900
2      C2     -0.1378   -0.1094    0.3864 C.3      1 ZINC000003801510    0.0800
3      C3     -1.5022   -0.6998    0.7479 C.3      1 ZINC000003801510   -0.1400
4      O4      0.2591   -0.5695   -0.9061 O.3      1 ZINC000003801510   -0.2900
5      C5      1.5387   -0.3358   -1.2976 C.ar     1 ZINC000003801510    0.2100
6      C6      1.8478   -0.4356   -2.6502 C.ar     1 ZINC000003801510   -0.1700
7      C7      3.1376   -0.2100   -3.0863 C.ar     1 ZINC000003801510    0.0200
8      C8      4.1267    0.1159   -2.1771 C.ar     1 ZINC000003801510   -0.6900
9      S9      5.7744    0.4018   -2.7323 S.o2     1 ZINC000003801510    2.5900
10     O10     6.6211    0.1617   -1.6166 O.2      1 ZINC000003801510   -0.9400
11     O11     5.9057   -0.2845   -3.9695 O.2      1 ZINC000003801510   -0.9400
12     C12     5.9103    2.1198   -3.0994 C.ar     1 ZINC000003801510   -0.6500
13     C13     5.6156    2.5807   -4.3689 C.ar     1 ZINC000003801510   -0.0200
14     C14     5.7222    3.9285   -4.6569 C.ar     1 ZINC000003801510   -0.1400
15     C15     6.1232    4.8154   -3.6754 C.ar     1 ZINC000003801510   -0.0600
16     C16     6.4170    4.3547   -2.4056 C.ar     1 ZINC000003801510   -0.1400
17     C17     6.3063    3.0074   -2.1164 C.ar     1 ZINC000003801510   -0.0200
18     C18     3.8230    0.2178   -0.8333 C.ar     1 ZINC000003801510    0.0600
19     C19     2.5302   -0.0048   -0.3902 C.ar     1 ZINC000003801510   -0.1600
20     C20     2.2353    0.1262    1.0825 C.3      1 ZINC000003801510    0.2100
21     H21     3.0383   -0.3372    1.6558 H        1 ZINC000003801510    0.1000
22     N22     2.1396    1.5446    1.4363 N.am     1 ZINC000003801510   -0.6200
23     C23     1.8724    2.0442    2.7902 C.3      1 ZINC000003801510    0.1000
24     C24     2.2897    3.5314    2.7705 C.3      1 ZINC000003801510   -0.1300
25     C25     2.1337    3.8828    1.2728 C.3      1 ZINC000003801510   -0.1600
26     C26     2.2907    2.5558    0.5637 C.2      1 ZINC000003801510    0.5200
27     O27     2.5133    2.4234   -0.6212 O.2      1 ZINC000003801510   -0.5000
28     C28     0.9110   -0.5695    1.4070 C.3      1 ZINC000003801510    0.0700
29     H29     0.5897   -0.2973    2.4124 H        1 ZINC000003801510    0.0800
30     O30     1.0777   -1.9862    1.3218 O.3      1 ZINC000003801510   -0.5400
31     H31     0.5990    1.8269   -0.2040 H        1 ZINC000003801510    0.0900
32     H32    -1.1714    1.7303   -0.0470 H        1 ZINC000003801510    0.0700
33     H33    -0.1505    1.7861    1.4100 H        1 ZINC000003801510    0.0700
34     H34    -2.2428   -0.3783    0.0156 H        1 ZINC000003801510    0.0800
35     H35    -1.4390   -1.7880    0.7470 H        1 ZINC000003801510    0.0700
36     H36    -1.7969   -0.3538    1.7386 H        1 ZINC000003801510    0.0800
37     H37     1.0760   -0.6907   -3.3613 H        1 ZINC000003801510    0.1400
38     H38     3.3742   -0.2884   -4.1372 H        1 ZINC000003801510    0.1500
39     H39     5.3024    1.8878   -5.1358 H        1 ZINC000003801510    0.1400
40     H40     5.4927    4.2885   -5.6489 H        1 ZINC000003801510    0.1300
41     H41     6.2072    5.8684   -3.9006 H        1 ZINC000003801510    0.1300
42     H42     6.7306    5.0476   -1.6389 H        1 ZINC000003801510    0.1300
43     H43     6.5358    2.6474   -1.1244 H        1 ZINC000003801510    0.1400
44     H44     4.5976    0.4722   -0.1250 H        1 ZINC000003801510    0.1300
45     H45     0.8115    1.9531    3.0233 H        1 ZINC000003801510    0.0700
46     H46     2.4681    1.4949    3.5193 H        1 ZINC000003801510    0.0800
47     H47     1.6191    4.1329    3.3842 H        1 ZINC000003801510    0.0900
48     H48     3.3239    3.6507    3.0935 H        1 ZINC000003801510    0.0900
49     H49     1.1484    4.3078    1.0813 H        1 ZINC000003801510    0.1100
50     H50     2.9159    4.5744    0.9597 H        1 ZINC000003801510    0.1000
51     H51     0.2749   -2.4891    1.5161 H        1 ZINC000003801510    0.3900
@<TRIPOS>BOND
1     1     2     1
2     1     31    1
3     1     32    1
4     1     33    1
5     2     28    1
6     2     3     1
7     2     4     1
8     3     34    1
9     3     35    1
10    3     36    1
11    4     5     1
12    5     19    ar
13    5     6     ar
14    6     7     ar
15    6     37    1
16    7     8     ar
17    7     38    1
18    8     9     1
19    8     18    ar
20    9     10    2
21    9     11    2
22    9     12    1
23    12    17    ar
24    12    13    ar
25    13    14    ar
26    13    39    1
27    14    15    ar
28    14    40    1
29    15    16    ar
30    15    41    1
31    16    17    ar
32    16    42    1
33    17    43    1
34    18    19    ar
35    18    44    1
36    19    20    1
37    20    21    1
38    20    22    1
39    20    28    1
40    22    26    am
41    22    23    1
42    23    24    1
43    23    45    1
44    23    46    1
45    24    25    1
46    24    47    1
47    24    48    1
48    25    26    1
49    25    49    1
50    25    50    1
51    26    27    2
52    28    29    1
53    28    30    1
54    30    51    1
@<TRIPOS>SUBSTRUCTURE
1   ZINC000003801510 1     RESIDUE    1   A     ZIN   1
