@<TRIPOS>MOLECULE
ZINC000000006740
35    36    1     0     0
SMALL
USER_CHARGES
@<TRIPOS>ATOM
1      C1     -0.0184    1.5028    0.0103 C.3      1 ZINC000000006740   -0.1800
2      C2      0.0021   -0.0041    0.0020 C.2      1 ZINC000000006740    0.5100
3      O3      0.0203   -0.6160    1.0489 O.2      1 ZINC000000006740   -0.5400
4      N4      0.0001   -0.6716   -1.1688 N.am     1 ZINC000000006740   -0.6200
5      C5     -0.0158    0.0510   -2.4498 C.3      1 ZINC000000006740    0.1100
6      C6      1.1153   -0.4925   -3.3293 C.3      1 ZINC000000006740    0.0200
7      N7      0.9887   -1.9519   -3.4378 N.3      1 ZINC000000006740   -0.2900
8      N8      1.8816   -2.4549   -4.3410 N.am     1 ZINC000000006740   -0.5800
9      C9      1.4399   -3.1276   -5.4222 C.2      1 ZINC000000006740    0.5800
10     O10     0.2469   -3.2868   -5.5935 O.2      1 ZINC000000006740   -0.5000
11     C11     2.4055   -3.6716   -6.3990 C.ar     1 ZINC000000006740   -0.1500
12     C12     3.7767   -3.4951   -6.2016 C.ar     1 ZINC000000006740   -0.0600
13     C13     4.6732   -4.0046   -7.1161 C.ar     1 ZINC000000006740   -0.1600
14     C14     4.2159   -4.6909   -8.2307 C.ar     1 ZINC000000006740    0.1300
15     F15     5.0990   -5.1883   -9.1240 F        1 ZINC000000006740   -0.1300
16     C16     2.8556   -4.8690   -8.4315 C.ar     1 ZINC000000006740   -0.1600
17     C17     1.9506   -4.3690   -7.5200 C.ar     1 ZINC000000006740   -0.0300
18     C18     1.1436   -2.5991   -2.1282 C.3      1 ZINC000000006740    0.0200
19     C19     0.0198   -2.1420   -1.1995 C.3      1 ZINC000000006740    0.1200
20     H20     1.0042    1.8801    0.0026 H        1 ZINC000000006740    0.0900
21     H21    -0.5455    1.8639   -0.8728 H        1 ZINC000000006740    0.0800
22     H22    -0.5286    1.8543    0.9071 H        1 ZINC000000006740    0.1000
23     H23    -0.9733   -0.1054   -2.9466 H        1 ZINC000000006740    0.0900
24     H24     0.1380    1.1153   -2.2717 H        1 ZINC000000006740    0.1000
25     H25     1.0503   -0.0469   -4.3219 H        1 ZINC000000006740    0.1000
26     H26     2.0768   -0.2431   -2.8805 H        1 ZINC000000006740    0.0500
27     H27     2.8335   -2.3279   -4.2043 H        1 ZINC000000006740    0.3800
28     H28     4.1339   -2.9600   -5.3341 H        1 ZINC000000006740    0.1300
29     H29     5.7339   -3.8687   -6.9644 H        1 ZINC000000006740    0.1400
30     H30     2.5047   -5.4044   -9.3014 H        1 ZINC000000006740    0.1500
31     H31     0.8912   -4.5086   -7.6772 H        1 ZINC000000006740    0.1500
32     H32     1.0990   -3.6814   -2.2498 H        1 ZINC000000006740    0.1000
33     H33     2.1047   -2.3205   -1.6961 H        1 ZINC000000006740    0.0500
34     H34     0.1945   -2.5284   -0.1954 H        1 ZINC000000006740    0.1000
35     H35    -0.9363   -2.5073   -1.5743 H        1 ZINC000000006740    0.0800
@<TRIPOS>BOND
1     1     2     1
2     1     20    1
3     1     21    1
4     1     22    1
5     2     3     2
6     2     4     am
7     4     19    1
8     4     5     1
9     5     6     1
10    5     23    1
11    5     24    1
12    6     7     1
13    6     25    1
14    6     26    1
15    7     8     1
16    7     18    1
17    8     9     am
18    8     27    1
19    9     10    2
20    9     11    1
21    11    17    ar
22    11    12    ar
23    12    13    ar
24    12    28    1
25    13    14    ar
26    13    29    1
27    14    15    1
28    14    16    ar
29    16    17    ar
30    16    30    1
31    17    31    1
32    18    19    1
33    18    32    1
34    18    33    1
35    19    34    1
36    19    35    1
@<TRIPOS>SUBSTRUCTURE
1   ZINC000000006740 1     RESIDUE    1   A     ZIN   1
