@<TRIPOS>MOLECULE
ZINC000058660702
57    61    1     0     0
SMALL
USER_CHARGES
@<TRIPOS>ATOM
1      N1     -0.0204    1.6518    0.0111 N.am     1 ZINC000058660702   -1.2700
2      S2      0.0021   -0.0041    0.0020 S.o2     1 ZINC000058660702    2.8000
3      O3     -0.5249   -0.4194    1.2546 O.2      1 ZINC000058660702   -1.0000
4      O4     -0.5488   -0.4060   -1.2447 O.2      1 ZINC000058660702   -0.9600
5      O5      1.4618   -0.4348   -0.0142 O.3      1 ZINC000058660702   -0.7300
6      C6      2.1269   -0.2819    1.2413 C.3      1 ZINC000058660702    0.0900
7      C7      3.5797   -0.7429    1.1082 C.3      1 ZINC000058660702   -0.1000
8      H8      3.6143   -1.7584    0.7138 H        1 ZINC000058660702    0.1000
9      C9      4.2802   -0.6853    2.4815 C.3      1 ZINC000058660702   -0.1300
10     C10     5.7203   -0.2184    2.1539 C.3      1 ZINC000058660702    0.1200
11     H11     6.1801    0.2539    3.0221 H        1 ZINC000058660702    0.1300
12     N12     6.5357   -1.3408    1.6833 N.pl3    1 ZINC000058660702   -0.4100
13     C13     6.2672   -2.0953    0.5705 C.2      1 ZINC000058660702    0.0600
14     C14     7.2099   -3.0405    0.4232 C.2      1 ZINC000058660702   -0.1300
15     C15     8.1515   -2.8742    1.5287 C.ar     1 ZINC000058660702   -0.2400
16     C16     9.3253   -3.5229    1.9410 C.ar     1 ZINC000058660702    0.5300
17     N17     9.8322   -4.5934    1.2266 N.pl3    1 ZINC000058660702   -0.6600
18     C18    11.0592   -5.2573    1.6738 C.3      1 ZINC000058660702    0.1600
19     H19    11.1136   -5.2568    2.7624 H        1 ZINC000058660702    0.1100
20     C20    11.1126   -6.7029    1.1356 C.3      1 ZINC000058660702   -0.1200
21     C21    12.6211   -6.9056    0.8794 C.3      1 ZINC000058660702   -0.0900
22     C22    13.1703   -5.5176    0.6283 C.ar     1 ZINC000058660702   -0.0700
23     C23    14.3606   -5.1152    0.0468 C.ar     1 ZINC000058660702   -0.1000
24     C24    14.6536   -3.7710   -0.0786 C.ar     1 ZINC000058660702   -0.0900
25     C25    13.7562   -2.8240    0.3778 C.ar     1 ZINC000058660702   -0.1100
26     C26    12.5681   -3.2235    0.9584 C.ar     1 ZINC000058660702   -0.1000
27     C27    12.2727   -4.5687    1.0869 C.ar     1 ZINC000058660702   -0.1500
28     N28     9.9385   -3.0823    3.0358 N.ar     1 ZINC000058660702   -0.5700
29     H29    10.7514   -3.5182    3.3359 H        1 ZINC000058660702    0.4400
30     C30     9.4580   -2.0602    3.7206 C.ar     1 ZINC000058660702    0.3900
31     N31     8.3617   -1.4226    3.3712 N.ar     1 ZINC000058660702   -0.4800
32     C32     7.6797   -1.7862    2.2863 C.ar     1 ZINC000058660702    0.3500
33     C33     5.4955    0.8146    1.0219 C.3      1 ZINC000058660702   -0.1700
34     C34     4.3521    0.2100    0.1792 C.3      1 ZINC000058660702    0.1000
35     H35     4.7629   -0.3423   -0.6659 H        1 ZINC000058660702    0.0700
36     O36     3.4872    1.2472   -0.2881 O.3      1 ZINC000058660702   -0.5600
37     H37     0.8130    2.1481    0.0058 H        1 ZINC000058660702    0.4200
38     H38    -0.8669    2.1253    0.0177 H        1 ZINC000058660702    0.4200
39     H39     2.1041    0.7663    1.5393 H        1 ZINC000058660702    0.0900
40     H40     1.6219   -0.8852    1.9957 H        1 ZINC000058660702    0.1000
41     H41     3.7846    0.0347    3.1327 H        1 ZINC000058660702    0.1100
42     H42     4.2951   -1.6722    2.9438 H        1 ZINC000058660702    0.0900
43     H43     5.4239   -1.9513   -0.0886 H        1 ZINC000058660702    0.2000
44     H44     7.2619   -3.7812   -0.3611 H        1 ZINC000058660702    0.1700
45     H45     9.3752   -4.9046    0.4296 H        1 ZINC000058660702    0.4400
46     H46    10.7484   -7.4081    1.8827 H        1 ZINC000058660702    0.1000
47     H47    10.5467   -6.7923    0.2084 H        1 ZINC000058660702    0.0900
48     H48    13.0973   -7.3482    1.7543 H        1 ZINC000058660702    0.1000
49     H49    12.7746   -7.5370    0.0042 H        1 ZINC000058660702    0.0900
50     H50    15.0624   -5.8546   -0.3098 H        1 ZINC000058660702    0.1300
51     H51    15.5828   -3.4604   -0.5330 H        1 ZINC000058660702    0.1400
52     H52    13.9838   -1.7727    0.2809 H        1 ZINC000058660702    0.1300
53     H53    11.8675   -2.4830    1.3151 H        1 ZINC000058660702    0.1100
54     H54     9.9869   -1.7346    4.6042 H        1 ZINC000058660702    0.2500
55     H55     5.1962    1.7768    1.4374 H        1 ZINC000058660702    0.1100
56     H56     6.3973    0.9223    0.4191 H        1 ZINC000058660702    0.0900
57     H57     3.9219    1.8932   -0.8616 H        1 ZINC000058660702    0.3900
@<TRIPOS>BOND
1     1     2     am
2     1     37    1
3     1     38    1
4     2     3     2
5     2     4     2
6     2     5     1
7     5     6     1
8     6     7     1
9     6     39    1
10    6     40    1
11    7     8     1
12    7     34    1
13    7     9     1
14    9     10    1
15    9     41    1
16    9     42    1
17    10    11    1
18    10    12    1
19    10    33    1
20    12    32    1
21    12    13    1
22    13    14    2
23    13    43    1
24    14    15    1
25    14    44    1
26    15    32    ar
27    15    16    ar
28    16    17    1
29    16    28    ar
30    17    18    1
31    17    45    1
32    18    19    1
33    18    27    1
34    18    20    1
35    20    21    1
36    20    46    1
37    20    47    1
38    21    22    1
39    21    48    1
40    21    49    1
41    22    27    ar
42    22    23    ar
43    23    24    ar
44    23    50    1
45    24    25    ar
46    24    51    1
47    25    26    ar
48    25    52    1
49    26    27    ar
50    26    53    1
51    28    29    1
52    28    30    ar
53    30    31    ar
54    30    54    1
55    31    32    ar
56    33    34    1
57    33    55    1
58    33    56    1
59    34    35    1
60    34    36    1
61    36    57    1
@<TRIPOS>SUBSTRUCTURE
1   ZINC000058660702 1     RESIDUE    1   A     ZIN   1
