@<TRIPOS>MOLECULE
ZINC000000000859
  30   31    0    0    0
SMALL
USER_CHARGES
NO_NAME
@<TRIPOS>ATOM
    1 C1       -0.0178     1.4648     0.0101 C.3    1 <0>      -0.0500
    2 N2        0.0021    -0.0041     0.0020 N.4    1 <0>      -0.5100
    3 H3        0.4744    -0.3295    -0.8281 H      1 <0>       0.4300
    4 H4        0.4901    -0.3383     0.8195 H      1 <0>       0.4300
    5 C5       -1.3761    -0.5125     0.0124 C.3    1 <0>       0.0300
    6 H6       -1.9129    -0.0898     0.8617 H      1 <0>       0.1400
    7 C7       -2.0780    -0.1101    -1.2861 C.3    1 <0>      -0.1800
    8 C8       -1.3560    -2.0379     0.1298 C.3    1 <0>      -0.0900
    9 C9       -0.7758    -2.4315     1.4637 C.ar   1 <0>      -0.1200
   10 C10       0.5861    -2.6289     1.5921 C.ar   1 <0>      -0.1300
   11 C11       1.1234    -2.9901     2.8140 C.ar   1 <0>      -0.0900
   12 C12       0.2968    -3.1556     3.9129 C.ar   1 <0>       0.0500
   13 O13       0.5673    -3.5023     5.2051 O.3    1 <0>      -0.3000
   14 C14      -0.5973    -3.1159     5.9587 C.3    1 <0>       0.2100
   15 O15      -1.6650    -3.1787     4.9947 O.3    1 <0>      -0.3000
   16 C16      -1.0760    -2.9566     3.7835 C.ar   1 <0>       0.0500
   17 C17      -1.6063    -2.5889     2.5580 C.ar   1 <0>      -0.0900
   18 H18       1.0047     1.8421     0.0024 H      1 <0>       0.1300
   19 H19      -0.5450     1.8259    -0.8730 H      1 <0>       0.1300
   20 H20      -0.5280     1.8163     0.9069 H      1 <0>       0.1200
   21 H21      -1.5412    -0.5328    -2.1354 H      1 <0>       0.0800
   22 H22      -3.1006    -0.4874    -1.2784 H      1 <0>       0.1100
   23 H23      -2.0923     0.9766    -1.3697 H      1 <0>       0.0800
   24 H24      -2.3729    -2.4220     0.0483 H      1 <0>       0.1200
   25 H25      -0.7446    -2.4558    -0.6700 H      1 <0>       0.1000
   26 H26       1.2321    -2.5011     0.7361 H      1 <0>       0.1400
   27 H27       2.1880    -3.1436     2.9114 H      1 <0>       0.1500
   28 H28      -0.7757    -3.8170     6.7741 H      1 <0>       0.1400
   29 H29      -0.4864    -2.1015     6.3418 H      1 <0>       0.0900
   30 H30      -2.6695    -2.4282     2.4563 H      1 <0>       0.1400
@<TRIPOS>BOND
   1    1    2 1
   2    1   18 1
   3    1   19 1
   4    1   20 1
   5    2    3 1
   6    2    4 1
   7    2    5 1
   8    5    6 1
   9    5    7 1
  10    5    8 1
  11    7   21 1
  12    7   22 1
  13    7   23 1
  14    8    9 1
  15    8   24 1
  16    8   25 1
  17    9   17 ar
  18    9   10 ar
  19   10   11 ar
  20   10   26 1
  21   11   12 ar
  22   11   27 1
  23   12   16 ar
  24   12   13 1
  25   13   14 1
  26   14   15 1
  27   14   28 1
  28   14   29 1
  29   15   16 1
  30   16   17 ar
  31   17   30 1
