@<TRIPOS>MOLECULE
ZINC000000608013
51    54    1     0     0
SMALL
USER_CHARGES
@<TRIPOS>ATOM
1      C1      1.2591   -6.1836    3.9808 C.3      1 ZINC000000608013   -0.1500
2      C2      0.9104   -5.4755    2.6702 C.3      1 ZINC000000608013   -0.1000
3      C3      1.6332   -6.1640    1.5106 C.3      1 ZINC000000608013   -0.1500
4      C4     -0.6008   -5.5423    2.4408 C.3      1 ZINC000000608013   -0.1000
5      C5     -0.9643   -4.7287    1.1971 C.3      1 ZINC000000608013   -0.1700
6      C6     -2.4528   -4.7944    0.9711 C.2      1 ZINC000000608013    0.3500
7      O7     -3.1509   -5.4268    1.7269 O.2      1 ZINC000000608013   -0.4400
8      C8     -3.0702   -4.0711   -0.1979 C.3      1 ZINC000000608013   -0.1800
9      C9     -4.5612   -4.4057   -0.2750 C.3      1 ZINC000000608013    0.1900
10     H10    -5.0173   -3.8896   -1.1198 H        1 ZINC000000608013    0.1200
11     C11    -4.7516   -5.8954   -0.4135 C.ar     1 ZINC000000608013   -0.0800
12     C12    -4.3588   -6.8116   -1.3609 C.ar     1 ZINC000000608013   -0.1000
13     C13    -4.6922   -8.1477   -1.2112 C.ar     1 ZINC000000608013   -0.0800
14     C14    -5.4197   -8.5642   -0.1107 C.ar     1 ZINC000000608013   -0.1200
15     C15    -5.8188   -7.6534    0.8459 C.ar     1 ZINC000000608013   -0.0400
16     C16    -5.4867   -6.3051    0.7021 C.ar     1 ZINC000000608013   -0.1300
17     C17    -5.7623   -5.1195    1.5351 C.2      1 ZINC000000608013    0.5900
18     O18    -6.3832   -5.1339    2.5799 O.2      1 ZINC000000608013   -0.5000
19     N19    -5.2298   -4.0193    0.9727 N.am     1 ZINC000000608013   -0.5400
20     C20    -5.2999   -2.7315    1.4897 C.ar     1 ZINC000000608013    0.4500
21     C21    -5.7604   -2.5453    2.7996 C.ar     1 ZINC000000608013   -0.1900
22     C22    -5.8334   -1.2866    3.3190 C.ar     1 ZINC000000608013   -0.0100
23     C23    -5.4373   -0.2068    2.5068 C.ar     1 ZINC000000608013   -0.1800
24     C24    -5.4854    1.1176    2.9758 C.ar     1 ZINC000000608013   -0.0100
25     C25    -5.0851    2.1155    2.1324 C.ar     1 ZINC000000608013   -0.1800
26     C26    -4.6457    1.8022    0.8476 C.ar     1 ZINC000000608013    0.2400
27     Cl27   -4.1408    3.0840   -0.2087 Cl       1 ZINC000000608013   -0.0100
28     N28    -4.6029    0.5634    0.4148 N.ar     1 ZINC000000608013   -0.4700
29     C29    -4.9804   -0.4589    1.1898 C.ar     1 ZINC000000608013    0.3600
30     N30    -4.9264   -1.7161    0.7379 N.ar     1 ZINC000000608013   -0.5100
31     H31     2.3358   -6.1360    4.1443 H        1 ZINC000000608013    0.0600
32     H32     0.7442   -5.6931    4.8069 H        1 ZINC000000608013    0.0500
33     H33     0.9458   -7.2261    3.9251 H        1 ZINC000000608013    0.0600
34     H34     1.2238   -4.4330    2.7259 H        1 ZINC000000608013    0.0700
35     H35     1.3199   -7.2065    1.4549 H        1 ZINC000000608013    0.0600
36     H36     1.3848   -5.6595    0.5768 H        1 ZINC000000608013    0.0600
37     H37     2.7098   -6.1164    1.6740 H        1 ZINC000000608013    0.0600
38     H38    -0.9009   -6.5801    2.2965 H        1 ZINC000000608013    0.0700
39     H39    -1.1184   -5.1315    3.3077 H        1 ZINC000000608013    0.0700
40     H40    -0.6642   -3.6908    1.3413 H        1 ZINC000000608013    0.1000
41     H41    -0.4467   -5.1394    0.3302 H        1 ZINC000000608013    0.1000
42     H42    -2.9453   -2.9962   -0.0671 H        1 ZINC000000608013    0.1200
43     H43    -2.5794   -4.3844   -1.1193 H        1 ZINC000000608013    0.1200
44     H44    -3.7911   -6.4894   -2.2214 H        1 ZINC000000608013    0.1300
45     H45    -4.3836   -8.8664   -1.9560 H        1 ZINC000000608013    0.1400
46     H46    -5.6768   -9.6073    0.0002 H        1 ZINC000000608013    0.1400
47     H47    -6.3869   -7.9826    1.7034 H        1 ZINC000000608013    0.1300
48     H48    -6.0568   -3.3957    3.3958 H        1 ZINC000000608013    0.1700
49     H49    -6.1861   -1.1223    4.3265 H        1 ZINC000000608013    0.1500
50     H50    -5.8295    1.3402    3.9751 H        1 ZINC000000608013    0.1600
51     H51    -5.1096    3.1442    2.4605 H        1 ZINC000000608013    0.1500
@<TRIPOS>BOND
1     1     2     1
2     1     31    1
3     1     32    1
4     1     33    1
5     2     3     1
6     2     4     1
7     2     34    1
8     3     35    1
9     3     36    1
10    3     37    1
11    4     5     1
12    4     38    1
13    4     39    1
14    5     6     1
15    5     40    1
16    5     41    1
17    6     7     2
18    6     8     1
19    8     9     1
20    8     42    1
21    8     43    1
22    9     10    1
23    9     19    1
24    9     11    1
25    11    16    ar
26    11    12    ar
27    12    13    ar
28    12    44    1
29    13    14    ar
30    13    45    1
31    14    15    ar
32    14    46    1
33    15    16    ar
34    15    47    1
35    16    17    1
36    17    18    2
37    17    19    am
38    19    20    1
39    20    30    ar
40    20    21    ar
41    21    22    ar
42    21    48    1
43    22    23    ar
44    22    49    1
45    23    29    ar
46    23    24    ar
47    24    25    ar
48    24    50    1
49    25    26    ar
50    25    51    1
51    26    27    1
52    26    28    ar
53    28    29    ar
54    29    30    ar
@<TRIPOS>SUBSTRUCTURE
1   ZINC000000608013 1     RESIDUE    1   A     ZIN   1
