@<TRIPOS>MOLECULE
ZINC000068251434
  51   54    0    0    0
SMALL
USER_CHARGES
NO_NAME
@<TRIPOS>ATOM
    1 C1       -0.0223     1.4657    -0.0256 C.3    1 <0>      -0.0500
    2 N2       -0.0009    -0.0031    -0.0218 N.4    1 <0>      -0.3700
    3 H3       -0.9475    -0.3522    -0.0124 H      1 <0>       0.4400
    4 C4        0.6844    -0.4841    -1.2274 C.3    1 <0>      -0.0100
    5 C5        0.6385    -2.0131    -1.2691 C.3    1 <0>      -0.1600
    6 C6        1.3355    -2.5733    -0.0259 C.3    1 <0>       0.1600
    7 H7        1.2561    -3.6604    -0.0223 H      1 <0>       0.1300
    8 N8        2.7482    -2.1854    -0.0396 N.am   1 <0>      -0.7500
    9 C9        3.6446    -2.9289    -0.7178 C.2    1 <0>       0.7100
   10 O10       3.2809    -3.9216    -1.3183 O.2    1 <0>      -0.5500
   11 N11       4.9442    -2.5721    -0.7305 N.am   1 <0>      -0.6800
   12 C12       5.8870    -3.3925    -1.3512 C.ar   1 <0>       0.1800
   13 C13       5.5455    -4.0938    -2.5029 C.ar   1 <0>      -0.1200
   14 C14       6.4732    -4.9043    -3.1180 C.ar   1 <0>      -0.0500
   15 C15       7.7595    -5.0218    -2.5838 C.ar   1 <0>      -0.0300
   16 C16       8.7272    -5.8633    -3.2210 C.1    1 <0>       0.2400
   17 N17       9.4948    -6.5309    -3.7265 N.1    1 <0>      -0.4000
   18 C18       8.0991    -4.3155    -1.4264 C.ar   1 <0>      -0.0500
   19 C19       7.1679    -3.5025    -0.8199 C.ar   1 <0>      -0.1400
   20 C20       0.6592    -2.0063     1.2256 C.3    1 <0>      -0.1500
   21 C21       0.7059    -0.4776     1.1740 C.3    1 <0>       0.1300
   22 H22       1.7440    -0.1472     1.1389 H      1 <0>       0.1500
   23 C23       0.0412     0.0865     2.4032 C.2    1 <0>       0.2200
   24 N24      -1.2039     0.4577     2.4732 N.2    1 <0>      -0.4800
   25 C25      -1.4739     0.9165     3.7224 C.ar   1 <0>       0.0400
   26 C26      -2.6215     1.4265     4.3344 C.ar   1 <0>      -0.0600
   27 C27      -2.5791     1.8159     5.6434 C.ar   1 <0>      -0.1100
   28 C28      -1.4054     1.7106     6.3755 C.ar   1 <0>      -0.0700
   29 C29      -0.2604     1.2106     5.7920 C.ar   1 <0>      -0.1200
   30 C30      -0.2846     0.8096     4.4635 C.ar   1 <0>       0.0700
   31 N31       0.6540     0.2763     3.6028 N.pl3  1 <0>      -0.5800
   32 H32       1.0000     1.8440    -0.0358 H      1 <0>       0.1200
   33 H33      -0.5493     1.8191    -0.9119 H      1 <0>       0.1300
   34 H34      -0.5333     1.8240     0.8680 H      1 <0>       0.1300
   35 H35       0.1892    -0.0820    -2.1112 H      1 <0>       0.1400
   36 H36       1.7227    -0.1526    -1.2113 H      1 <0>       0.1300
   37 H37      -0.3994    -2.3457    -1.2854 H      1 <0>       0.1100
   38 H38       1.1494    -2.3683    -2.1640 H      1 <0>       0.1200
   39 H39       3.0383    -1.3934     0.4394 H      1 <0>       0.3900
   40 H40       5.2242    -1.7449    -0.3081 H      1 <0>       0.4100
   41 H41       4.5513    -4.0028    -2.9149 H      1 <0>       0.1500
   42 H42       6.2072    -5.4488    -4.0120 H      1 <0>       0.1400
   43 H43       9.0920    -4.4039    -1.0109 H      1 <0>       0.1400
   44 H44       7.4297    -2.9563     0.0742 H      1 <0>       0.1400
   45 H45      -0.3782    -2.3388     1.2610 H      1 <0>       0.1200
   46 H46       1.1849    -2.3566     2.1139 H      1 <0>       0.1200
   47 H47      -3.5405     1.5131     3.7737 H      1 <0>       0.1400
   48 H48      -3.4684     2.2100     6.1129 H      1 <0>       0.1400
   49 H49      -1.3882     2.0227     7.4092 H      1 <0>       0.1400
   50 H50       0.6510     1.1314     6.3661 H      1 <0>       0.1300
   51 H51       1.5790     0.0751     3.8141 H      1 <0>       0.4300
@<TRIPOS>BOND
   1    1    2 1
   2    1   32 1
   3    1   33 1
   4    1   34 1
   5    2    3 1
   6    2   21 1
   7    2    4 1
   8    4    5 1
   9    4   35 1
  10    4   36 1
  11    5    6 1
  12    5   37 1
  13    5   38 1
  14    6    7 1
  15    6    8 1
  16    6   20 1
  17    8    9 am
  18    8   39 1
  19    9   10 2
  20    9   11 am
  21   11   12 1
  22   11   40 1
  23   12   19 ar
  24   12   13 ar
  25   13   14 ar
  26   13   41 1
  27   14   15 ar
  28   14   42 1
  29   15   16 1
  30   15   18 ar
  31   16   17 3
  32   18   19 ar
  33   18   43 1
  34   19   44 1
  35   20   21 1
  36   20   45 1
  37   20   46 1
  38   21   22 1
  39   21   23 1
  40   23   31 1
  41   23   24 2
  42   24   25 1
  43   25   30 ar
  44   25   26 ar
  45   26   27 ar
  46   26   47 1
  47   27   28 ar
  48   27   48 1
  49   28   29 ar
  50   28   49 1
  51   29   30 ar
  52   29   50 1
  53   30   31 1
  54   31   51 1
