@<TRIPOS>MOLECULE
ZINC000098052868
103   108   1     0     0
SMALL
USER_CHARGES
@<TRIPOS>ATOM
1      N1     -0.2793    0.2186    0.2271 N.4      1 ZINC000098052868   -0.6400
2      H2     -0.3226   -0.7831    0.3402 H        1 ZINC000098052868    0.4400
3      H3      0.6847    0.5074    0.1528 H        1 ZINC000098052868    0.4400
4      H4     -0.7754    0.4843   -0.6104 H        1 ZINC000098052868    0.4300
5      C5     -0.8974    0.8699    1.3897 C.3      1 ZINC000098052868   -0.0100
6      C6     -2.3591    0.4321    1.5023 C.3      1 ZINC000098052868   -0.1500
7      C7     -3.0028    1.1105    2.7132 C.3      1 ZINC000098052868   -0.1100
8      C8     -4.4645    0.6727    2.8258 C.3      1 ZINC000098052868   -0.1300
9      C9     -5.1082    1.3510    4.0367 C.3      1 ZINC000098052868    0.1300
10     H10    -4.9693    2.4298    3.9654 H        1 ZINC000098052868    0.1200
11     N11    -4.4792    0.8578    5.2644 N.am     1 ZINC000098052868   -0.7100
12     C12    -3.3422    1.4249    5.7138 C.2      1 ZINC000098052868    0.5200
13     O13    -2.8397    2.3436    5.1019 O.2      1 ZINC000098052868   -0.5300
14     C14    -2.6951    0.9175    6.9767 C.3      1 ZINC000098052868    0.1500
15     H15    -3.3900    1.0251    7.8096 H        1 ZINC000098052868    0.1200
16     C16    -2.3293   -0.5582    6.8050 C.3      1 ZINC000098052868   -0.0800
17     C17    -1.7954   -1.0981    8.1067 C.ar     1 ZINC000098052868   -0.0700
18     C18    -0.4418   -1.0272    8.3797 C.ar     1 ZINC000098052868   -0.0400
19     C19     0.0508   -1.5222    9.5728 C.ar     1 ZINC000098052868   -0.1000
20     Br20    1.9022   -1.4248    9.9453 Br       1 ZINC000098052868   -0.0300
21     C21    -0.8147   -2.0901   10.4970 C.ar     1 ZINC000098052868    0.1700
22     O22    -0.3331   -2.5771   11.6712 O.3      1 ZINC000098052868   -0.4800
23     C23    -2.1729   -2.1595   10.2206 C.ar     1 ZINC000098052868   -0.1100
24     Br24   -3.3562   -2.9324   11.4769 Br       1 ZINC000098052868   -0.0200
25     C25    -2.6607   -1.6583    9.0281 C.ar     1 ZINC000098052868   -0.0500
26     N26    -1.4823    1.6927    7.2495 N.am     1 ZINC000098052868   -0.7300
27     C27    -1.0171    1.7948    8.5103 C.2      1 ZINC000098052868    0.7100
28     O28    -1.5595    1.1825    9.4099 O.2      1 ZINC000098052868   -0.5600
29     N29     0.0494    2.5756    8.7739 N.am     1 ZINC000098052868   -0.6200
30     C30     0.7787    3.2394    7.6848 C.3      1 ZINC000098052868    0.1200
31     C31     0.8593    4.7389    7.9875 C.3      1 ZINC000098052868   -0.1500
32     C32     1.4763    4.9431    9.3731 C.3      1 ZINC000098052868    0.1800
33     N33     1.5854    6.3771    9.6522 N.am     1 ZINC000098052868   -0.6100
34     C34     2.9006    6.9893    9.9066 C.3      1 ZINC000098052868    0.1500
35     C35     2.9209    8.4744   10.1859 C.ar     1 ZINC000098052868   -0.1400
36     C36     4.0989    9.1391   10.4350 C.ar     1 ZINC000098052868   -0.0700
37     C37     4.0789   10.5011   10.6866 C.ar     1 ZINC000098052868   -0.1400
38     C38     2.8786   11.1873   10.6868 C.ar     1 ZINC000098052868   -0.0800
39     C39     1.6939   10.5216   10.4368 C.ar     1 ZINC000098052868   -0.1600
40     C40     1.7086    9.1567   10.1841 C.ar     1 ZINC000098052868    0.1700
41     N41     0.5232    8.4662    9.9299 N.am     1 ZINC000098052868   -0.6700
42     C42     0.4860    7.1522    9.6740 C.2      1 ZINC000098052868    0.7100
43     O43    -0.5932    6.6333    9.4632 O.2      1 ZINC000098052868   -0.5700
44     C44     0.5884    4.2838   10.4310 C.3      1 ZINC000098052868   -0.1600
45     C45     0.5011    2.7840   10.1564 C.3      1 ZINC000098052868    0.1400
46     C46    -6.5815    1.0351    4.0652 C.2      1 ZINC000098052868    0.5200
47     O47    -6.9902    0.1087    4.7328 O.2      1 ZINC000098052868   -0.5100
48     N48    -7.4448    1.7820    3.3488 N.am     1 ZINC000098052868   -0.6200
49     C49    -6.9611    2.8392    2.4479 C.3      1 ZINC000098052868    0.1000
50     C50    -7.6038    2.6375    1.0715 C.3      1 ZINC000098052868    0.0200
51     N51    -9.0635    2.5690    1.2214 N.3      1 ZINC000098052868   -0.4700
52     C52    -9.6920    2.5496   -0.0201 C.ar     1 ZINC000098052868    0.2400
53     C53    -8.9482    2.5873   -1.1993 C.ar     1 ZINC000098052868   -0.2000
54     C54    -9.6092    2.5659   -2.4093 C.ar     1 ZINC000098052868    0.1600
55     N55   -10.9270    2.5107   -2.4596 N.ar     1 ZINC000098052868   -0.4700
56     H56   -11.3651    2.4966   -3.3250 H        1 ZINC000098052868    0.4500
57     C57   -11.6660    2.4738   -1.3666 C.ar     1 ZINC000098052868    0.1600
58     C58   -11.0819    2.4863   -0.1175 C.ar     1 ZINC000098052868   -0.1600
59     C59    -9.4621    1.4101    2.0314 C.3      1 ZINC000098052868    0.0400
60     C60    -8.8954    1.5574    3.4426 C.3      1 ZINC000098052868    0.1100
61     H61    -0.3614    0.5830    2.2944 H        1 ZINC000098052868    0.1300
62     H62    -0.8506    1.9520    1.2675 H        1 ZINC000098052868    0.1400
63     H63    -2.8950    0.7191    0.5976 H        1 ZINC000098052868    0.0800
64     H64    -2.4059   -0.6500    1.6245 H        1 ZINC000098052868    0.0900
65     H65    -2.4669    0.8235    3.6179 H        1 ZINC000098052868    0.0800
66     H66    -2.9560    2.1926    2.5910 H        1 ZINC000098052868    0.0900
67     H67    -5.0004    0.9596    1.9211 H        1 ZINC000098052868    0.0800
68     H68    -4.5113   -0.4094    2.9480 H        1 ZINC000098052868    0.0800
69     H69    -4.8811    0.1230    5.7539 H        1 ZINC000098052868    0.4200
70     H70    -3.2165   -1.1210    6.5148 H        1 ZINC000098052868    0.0900
71     H71    -1.5677   -0.6561    6.0314 H        1 ZINC000098052868    0.0800
72     H72     0.2313   -0.5852    7.6601 H        1 ZINC000098052868    0.1300
73     H73    -0.3110   -1.9273   12.3870 H        1 ZINC000098052868    0.4000
74     H74    -3.7176   -1.7120    8.8124 H        1 ZINC000098052868    0.1400
75     H75    -1.0141    2.1325    6.5227 H        1 ZINC000098052868    0.4000
76     H76     1.7849    2.8263    7.6139 H        1 ZINC000098052868    0.0700
77     H77     0.2507    3.0844    6.7439 H        1 ZINC000098052868    0.0800
78     H78     1.4798    5.2287    7.2371 H        1 ZINC000098052868    0.0700
79     H79    -0.1424    5.1682    7.9685 H        1 ZINC000098052868    0.1000
80     H80     2.4681    4.4917    9.3990 H        1 ZINC000098052868    0.0900
81     H81     3.3488    6.4805   10.7600 H        1 ZINC000098052868    0.0800
82     H82     3.5322    6.8019    9.0382 H        1 ZINC000098052868    0.0800
83     H83     5.0355    8.6014   10.4347 H        1 ZINC000098052868    0.1300
84     H84     5.0013   11.0272   10.8830 H        1 ZINC000098052868    0.1300
85     H85     2.8669   12.2491   10.8838 H        1 ZINC000098052868    0.1300
86     H86     0.7587   11.0618   10.4384 H        1 ZINC000098052868    0.1300
87     H87    -0.3110    8.9612    9.9334 H        1 ZINC000098052868    0.4200
88     H88     1.0162    4.4497   11.4197 H        1 ZINC000098052868    0.0800
89     H89    -0.4107    4.7174   10.3889 H        1 ZINC000098052868    0.0900
90     H90    -0.2079    2.3268   10.8467 H        1 ZINC000098052868    0.1000
91     H91     1.4840    2.3310   10.2857 H        1 ZINC000098052868    0.0700
92     H92    -7.2426    3.8149    2.8440 H        1 ZINC000098052868    0.0900
93     H93    -5.8766    2.7761    2.3585 H        1 ZINC000098052868    0.1000
94     H94    -7.3436    3.4737    0.4226 H        1 ZINC000098052868    0.1100
95     H95    -7.2392    1.7088    0.6324 H        1 ZINC000098052868    0.0700
96     H96    -7.8697    2.6328   -1.1652 H        1 ZINC000098052868    0.1800
97     H97    -9.0414    2.5951   -3.3276 H        1 ZINC000098052868    0.2100
98     H98   -12.7418    2.4290   -1.4516 H        1 ZINC000098052868    0.2100
99     H99   -11.6924    2.4555    0.7728 H        1 ZINC000098052868    0.1900
100    H100  -10.5498    1.3563    2.0787 H        1 ZINC000098052868    0.1100
101    H101   -9.0718    0.4985    1.5790 H        1 ZINC000098052868    0.0700
102    H102   -9.0908    0.6490    4.0123 H        1 ZINC000098052868    0.1200
103    H103   -9.3607    2.4102    3.9369 H        1 ZINC000098052868    0.0900
@<TRIPOS>BOND
1     1     2     1
2     1     3     1
3     1     4     1
4     1     5     1
5     5     6     1
6     5     61    1
7     5     62    1
8     6     7     1
9     6     63    1
10    6     64    1
11    7     8     1
12    7     65    1
13    7     66    1
14    8     9     1
15    8     67    1
16    8     68    1
17    9     10    1
18    9     11    1
19    9     46    1
20    11    12    am
21    11    69    1
22    12    13    2
23    12    14    1
24    14    15    1
25    14    16    1
26    14    26    1
27    16    17    1
28    16    70    1
29    16    71    1
30    17    25    ar
31    17    18    ar
32    18    19    ar
33    18    72    1
34    19    20    1
35    19    21    ar
36    21    22    1
37    21    23    ar
38    22    73    1
39    23    24    1
40    23    25    ar
41    25    74    1
42    26    27    am
43    26    75    1
44    27    28    2
45    27    29    am
46    29    45    1
47    29    30    1
48    30    31    1
49    30    76    1
50    30    77    1
51    31    32    1
52    31    78    1
53    31    79    1
54    32    33    1
55    32    44    1
56    32    80    1
57    33    42    am
58    33    34    1
59    34    35    1
60    34    81    1
61    34    82    1
62    35    40    ar
63    35    36    ar
64    36    37    ar
65    36    83    1
66    37    38    ar
67    37    84    1
68    38    39    ar
69    38    85    1
70    39    40    ar
71    39    86    1
72    40    41    1
73    41    42    am
74    41    87    1
75    42    43    2
76    44    45    1
77    44    88    1
78    44    89    1
79    45    90    1
80    45    91    1
81    46    47    2
82    46    48    am
83    48    60    1
84    48    49    1
85    49    50    1
86    49    92    1
87    49    93    1
88    50    51    1
89    50    94    1
90    50    95    1
91    51    52    1
92    51    59    1
93    52    58    ar
94    52    53    ar
95    53    54    ar
96    53    96    1
97    54    55    ar
98    54    97    1
99    55    56    1
100   55    57    ar
101   57    58    ar
102   57    98    1
103   58    99    1
104   59    60    1
105   59    100   1
106   59    101   1
107   60    102   1
108   60    103   1
@<TRIPOS>SUBSTRUCTURE
1   ZINC000098052868 1     RESIDUE    1   A     ZIN   1
