@<TRIPOS>MOLECULE
ZINC000004654847
59    59    1     0     0
SMALL
USER_CHARGES
@<TRIPOS>ATOM
1      C1     -0.0187    1.5258    0.0104 C.3      1 ZINC000004654847   -0.1400
2      C2      0.0021   -0.0041    0.0020 C.3      1 ZINC000004654847   -0.0700
3      H3     -1.0205   -0.3814    0.0098 H        1 ZINC000004654847    0.0700
4      C4      0.7421   -0.5109    1.2415 C.3      1 ZINC000004654847   -0.1200
5      C5     -0.0416   -0.1236    2.4973 C.3      1 ZINC000004654847   -0.1200
6      C6      0.6984   -0.6305    3.7368 C.3      1 ZINC000004654847   -0.1200
7      C7     -0.0853   -0.2432    4.9925 C.3      1 ZINC000004654847   -0.1200
8      C8      0.6547   -0.7500    6.2320 C.3      1 ZINC000004654847   -0.1200
9      C9     -0.1289   -0.3628    7.4877 C.3      1 ZINC000004654847   -0.1200
10     C10     0.6111   -0.8696    8.7272 C.3      1 ZINC000004654847   -0.1200
11     C11    -0.1726   -0.4823    9.9830 C.3      1 ZINC000004654847   -0.1200
12     C12     0.5674   -0.9892   11.2225 C.3      1 ZINC000004654847   -0.1200
13     C13    -0.2163   -0.6019   12.4782 C.3      1 ZINC000004654847   -0.1200
14     C14     0.5237   -1.1087   13.7177 C.3      1 ZINC000004654847   -0.1100
15     C15    -0.2599   -0.7215   14.9734 C.3      1 ZINC000004654847   -0.0900
16     C16     0.4689   -1.2207   16.1943 C.ar     1 ZINC000004654847   -0.0600
17     C17     0.2016   -2.4828   16.6908 C.ar     1 ZINC000004654847   -0.1100
18     C18     0.8700   -2.9410   17.8106 C.ar     1 ZINC000004654847   -0.0800
19     C19     1.8062   -2.1366   18.4343 C.ar     1 ZINC000004654847   -0.1100
20     I20     2.8200   -2.8309   20.1312 I        1 ZINC000004654847   -0.0500
21     C21     2.0734   -0.8740   17.9373 C.ar     1 ZINC000004654847   -0.0800
22     C22     1.4089   -0.4186   16.8142 C.ar     1 ZINC000004654847   -0.1100
23     C23     0.7182   -0.4975   -1.2568 C.3      1 ZINC000004654847   -0.1800
24     C24    -0.0771   -0.1029   -2.4745 C.2      1 ZINC000004654847    0.4900
25     O25    -1.1200    0.5157   -2.3473 O.co2    1 ZINC000004654847   -0.6900
26     O26     0.3224   -0.4021   -3.5868 O.co2    1 ZINC000004654847   -0.7100
27     H27     1.0039    1.9031    0.0027 H        1 ZINC000004654847    0.0300
28     H28    -0.5459    1.8868   -0.8726 H        1 ZINC000004654847    0.0800
29     H29    -0.5289    1.8773    0.9072 H        1 ZINC000004654847    0.0400
30     H30     0.8346   -1.5958    1.1912 H        1 ZINC000004654847    0.0500
31     H31     1.7350   -0.0630    1.2804 H        1 ZINC000004654847    0.0500
32     H32    -0.1341    0.9613    2.5476 H        1 ZINC000004654847    0.0600
33     H33    -1.0345   -0.5716    2.4584 H        1 ZINC000004654847    0.0600
34     H34     0.7909   -1.7154    3.6864 H        1 ZINC000004654847    0.0600
35     H35     1.6914   -0.1825    3.7756 H        1 ZINC000004654847    0.0600
36     H36    -0.1778    0.8417    5.0429 H        1 ZINC000004654847    0.0600
37     H37    -1.0782   -0.6911    4.9536 H        1 ZINC000004654847    0.0600
38     H38     0.7473   -1.8349    6.1816 H        1 ZINC000004654847    0.0600
39     H39     1.6477   -0.3021    6.2709 H        1 ZINC000004654847    0.0600
40     H40    -0.2214    0.7221    7.5381 H        1 ZINC000004654847    0.0600
41     H41    -1.1219   -0.8107    7.4489 H        1 ZINC000004654847    0.0600
42     H42     0.7036   -1.9545    8.6769 H        1 ZINC000004654847    0.0600
43     H43     1.6040   -0.4217    8.7661 H        1 ZINC000004654847    0.0600
44     H44    -0.2651    0.6026   10.0333 H        1 ZINC000004654847    0.0600
45     H45    -1.1655   -0.9303    9.9441 H        1 ZINC000004654847    0.0600
46     H46     0.6599   -2.0741   11.1721 H        1 ZINC000004654847    0.0600
47     H47     1.5604   -0.5412   11.2613 H        1 ZINC000004654847    0.0600
48     H48    -0.3088    0.4830   12.5286 H        1 ZINC000004654847    0.0600
49     H49    -1.2092   -1.0498   12.4394 H        1 ZINC000004654847    0.0600
50     H50     0.6163   -2.1936   13.6674 H        1 ZINC000004654847    0.0600
51     H51     1.5167   -0.6608   13.7566 H        1 ZINC000004654847    0.0600
52     H52    -0.3524    0.3634   15.0238 H        1 ZINC000004654847    0.0800
53     H53    -1.2529   -1.1694   14.9346 H        1 ZINC000004654847    0.0800
54     H54    -0.5298   -3.1108   16.2040 H        1 ZINC000004654847    0.1300
55     H55     0.6608   -3.9269   18.1987 H        1 ZINC000004654847    0.1300
56     H56     2.8043   -0.2455   18.4244 H        1 ZINC000004654847    0.1300
57     H57     1.6175    0.5674   16.4260 H        1 ZINC000004654847    0.1300
58     H58     1.7103   -0.0491   -1.3098 H        1 ZINC000004654847    0.0500
59     H59     0.8116   -1.5829   -1.2198 H        1 ZINC000004654847    0.0500
@<TRIPOS>BOND
1     1     2     1
2     1     27    1
3     1     28    1
4     1     29    1
5     2     3     1
6     2     4     1
7     2     23    1
8     4     5     1
9     4     30    1
10    4     31    1
11    5     6     1
12    5     32    1
13    5     33    1
14    6     7     1
15    6     34    1
16    6     35    1
17    7     8     1
18    7     36    1
19    7     37    1
20    8     9     1
21    8     38    1
22    8     39    1
23    9     10    1
24    9     40    1
25    9     41    1
26    10    11    1
27    10    42    1
28    10    43    1
29    11    12    1
30    11    44    1
31    11    45    1
32    12    13    1
33    12    46    1
34    12    47    1
35    13    14    1
36    13    48    1
37    13    49    1
38    14    15    1
39    14    50    1
40    14    51    1
41    15    16    1
42    15    52    1
43    15    53    1
44    16    22    ar
45    16    17    ar
46    17    18    ar
47    17    54    1
48    18    19    ar
49    18    55    1
50    19    20    1
51    19    21    ar
52    21    22    ar
53    21    56    1
54    22    57    1
55    23    24    1
56    23    58    1
57    23    59    1
58    24    25    ar
59    24    26    ar
@<TRIPOS>SUBSTRUCTURE
1   ZINC000004654847 1     RESIDUE    1   A     ZIN   1
