@<TRIPOS>MOLECULE
ZINC000003914388
85    88    1     0     0
SMALL
USER_CHARGES
@<TRIPOS>ATOM
1      C1     -0.0187    1.5258    0.0104 C.3      1 ZINC000003914388   -0.1600
2      C2      0.0021   -0.0041    0.0020 C.3      1 ZINC000003914388    0.0600
3      O3      0.6817   -0.4723   -1.1926 O.3      1 ZINC000003914388   -0.3400
4      C4      0.7866   -1.8056   -1.3536 C.2      1 ZINC000003914388    0.5200
5      O5      0.3232   -2.5561   -0.5194 O.2      1 ZINC000003914388   -0.4700
6      C6      1.4671   -2.3559   -2.5484 C.2      1 ZINC000003914388    0.1200
7      C7      1.5519   -3.7013   -2.6849 C.2      1 ZINC000003914388   -0.2200
8      C8      2.2452   -4.2397   -3.8696 C.2      1 ZINC000003914388    0.4300
9      O9      2.1716   -5.4152   -4.1819 O.2      1 ZINC000003914388   -0.4400
10     C10     3.0322   -3.2713   -4.6539 C.ar     1 ZINC000003914388   -0.2600
11     C11     3.9339   -3.6882   -5.6393 C.ar     1 ZINC000003914388    0.2100
12     O12     4.0959   -5.0089   -5.9051 O.3      1 ZINC000003914388   -0.2800
13     C13     5.0349   -5.3549   -6.9251 C.3      1 ZINC000003914388    0.0600
14     C14     5.0804   -6.8762   -7.0817 C.3      1 ZINC000003914388    0.1100
15     C15     5.9908   -7.2411   -8.2560 C.3      1 ZINC000003914388    0.0300
16     O16     5.9421   -8.6522   -8.4759 O.3      1 ZINC000003914388   -0.2800
17     C17     6.6987   -9.1442   -9.4891 C.ar     1 ZINC000003914388    0.2100
18     C18     7.4781   -8.2946  -10.2561 C.ar     1 ZINC000003914388   -0.2400
19     C19     8.2462   -8.8003  -11.2919 C.ar     1 ZINC000003914388   -0.0100
20     C20     8.2475  -10.1495  -11.5801 C.ar     1 ZINC000003914388   -0.1700
21     C21     7.4731  -11.0245  -10.8275 C.ar     1 ZINC000003914388    0.1900
22     C22     6.7034  -10.5158   -9.7657 C.ar     1 ZINC000003914388   -0.2600
23     C23     5.9069  -11.4659   -8.9686 C.2      1 ZINC000003914388    0.4200
24     O24     5.0520  -11.0929   -8.1846 O.2      1 ZINC000003914388   -0.4200
25     C25     6.2060  -12.8946   -9.1769 C.2      1 ZINC000003914388   -0.2300
26     C26     6.9733  -13.2404  -10.2389 C.2      1 ZINC000003914388    0.1200
27     C27     7.2931  -14.6714  -10.4471 C.2      1 ZINC000003914388    0.5200
28     O28     6.8698  -15.5067   -9.6744 O.2      1 ZINC000003914388   -0.4700
29     O29     8.0536  -15.0462  -11.4939 O.3      1 ZINC000003914388   -0.3300
30     C30     8.3266  -16.4652  -11.6357 C.3      1 ZINC000003914388    0.0600
31     C31     9.1983  -16.6958  -12.8718 C.3      1 ZINC000003914388   -0.1600
32     O32     7.4593  -12.3423  -11.1055 O.3      1 ZINC000003914388   -0.2000
33     O33     5.5991   -7.4728   -5.8637 O.3      1 ZINC000003914388   -0.3300
34     C34     5.1629   -8.7040   -5.5546 C.2      1 ZINC000003914388    0.4400
35     O35     4.3739   -9.2647   -6.2778 O.2      1 ZINC000003914388   -0.4300
36     C36     5.6574   -9.3870   -4.3056 C.3      1 ZINC000003914388    0.0400
37     H37     5.7208   -8.6609   -3.4952 H        1 ZINC000003914388    0.1800
38     N38     4.7244  -10.4583   -3.9313 N.4      1 ZINC000003914388   -0.6300
39     H39     3.8113  -10.0645   -3.7603 H        1 ZINC000003914388    0.4500
40     H40     4.6658  -11.1305   -4.6814 H        1 ZINC000003914388    0.4500
41     H41     5.0555  -10.9156   -3.0950 H        1 ZINC000003914388    0.4400
42     C42     7.0420   -9.9841   -4.5648 C.3      1 ZINC000003914388   -0.1400
43     C43     7.5972  -10.5682   -3.2643 C.3      1 ZINC000003914388   -0.1300
44     C44     8.9818  -11.1653   -3.5235 C.3      1 ZINC000003914388   -0.1600
45     C45     9.5370  -11.7494   -2.2230 C.3      1 ZINC000003914388   -0.0100
46     N46    10.8664  -12.3227   -2.4719 N.4      1 ZINC000003914388   -0.6400
47     H47    11.4863  -11.6010   -2.8081 H        1 ZINC000003914388    0.4400
48     H48    11.2326  -12.7079   -1.6142 H        1 ZINC000003914388    0.4400
49     H49    10.7935  -13.0529   -3.1644 H        1 ZINC000003914388    0.4400
50     C50     4.6588   -2.7397   -6.3409 C.ar     1 ZINC000003914388   -0.2400
51     C51     4.4889   -1.3923   -6.0682 C.ar     1 ZINC000003914388   -0.0100
52     C52     3.5983   -0.9715   -5.1022 C.ar     1 ZINC000003914388   -0.1600
53     C53     2.8557   -1.9020   -4.3849 C.ar     1 ZINC000003914388    0.1900
54     O54     1.9686   -1.5021   -3.4520 O.3      1 ZINC000003914388   -0.2000
55     H55     1.0039    1.9031    0.0027 H        1 ZINC000003914388    0.0700
56     H56    -0.5459    1.8868   -0.8726 H        1 ZINC000003914388    0.0700
57     H57    -0.5289    1.8773    0.9072 H        1 ZINC000003914388    0.0900
58     H58     0.5293   -0.3651    0.8851 H        1 ZINC000003914388    0.0800
59     H59    -1.0205   -0.3814    0.0098 H        1 ZINC000003914388    0.0800
60     H60     1.1234   -4.3617   -1.9456 H        1 ZINC000003914388    0.1800
61     H61     4.7303   -4.9015   -7.8684 H        1 ZINC000003914388    0.1000
62     H62     6.0235   -4.9884   -6.6484 H        1 ZINC000003914388    0.0900
63     H63     4.0750   -7.2522   -7.2709 H        1 ZINC000003914388    0.1200
64     H64     5.6527   -6.7218   -9.1528 H        1 ZINC000003914388    0.1000
65     H65     7.0144   -6.9439   -8.0282 H        1 ZINC000003914388    0.0900
66     H66     7.4869   -7.2352  -10.0464 H        1 ZINC000003914388    0.1400
67     H67     8.8523   -8.1291  -11.8823 H        1 ZINC000003914388    0.1500
68     H68     8.8512  -10.5264  -12.3924 H        1 ZINC000003914388    0.1500
69     H69     5.8240  -13.6453   -8.5010 H        1 ZINC000003914388    0.1800
70     H70     8.8499  -16.8249  -10.7498 H        1 ZINC000003914388    0.0800
71     H71     7.3871  -17.0066  -11.7475 H        1 ZINC000003914388    0.0800
72     H72     9.4033  -17.7610  -12.9783 H        1 ZINC000003914388    0.0900
73     H73     8.6749  -16.3361  -13.7577 H        1 ZINC000003914388    0.0700
74     H74    10.1377  -16.1544  -12.7600 H        1 ZINC000003914388    0.0700
75     H75     6.9632  -10.7729   -5.3129 H        1 ZINC000003914388    0.1000
76     H76     7.7116   -9.2045   -4.9280 H        1 ZINC000003914388    0.1300
77     H77     7.6759   -9.7794   -2.5162 H        1 ZINC000003914388    0.1000
78     H78     6.9275  -11.3478   -2.9011 H        1 ZINC000003914388    0.0800
79     H79     8.9031  -11.9541   -4.2716 H        1 ZINC000003914388    0.1000
80     H80     9.6515  -10.3857   -3.8867 H        1 ZINC000003914388    0.1000
81     H81     9.6157  -10.9606   -1.4749 H        1 ZINC000003914388    0.1400
82     H82     8.8673  -12.5290   -1.8598 H        1 ZINC000003914388    0.1400
83     H83     5.3586   -3.0511   -7.1023 H        1 ZINC000003914388    0.1400
84     H84     5.0618   -0.6610   -6.6191 H        1 ZINC000003914388    0.1500
85     H85     3.4781    0.0831   -4.9027 H        1 ZINC000003914388    0.1600
@<TRIPOS>BOND
1     1     2     1
2     1     55    1
3     1     56    1
4     1     57    1
5     2     3     1
6     2     58    1
7     2     59    1
8     3     4     1
9     4     5     2
10    4     6     1
11    6     54    1
12    6     7     2
13    7     8     1
14    7     60    1
15    8     9     2
16    8     10    1
17    10    53    ar
18    10    11    ar
19    11    12    1
20    11    50    ar
21    12    13    1
22    13    14    1
23    13    61    1
24    13    62    1
25    14    15    1
26    14    33    1
27    14    63    1
28    15    16    1
29    15    64    1
30    15    65    1
31    16    17    1
32    17    22    ar
33    17    18    ar
34    18    19    ar
35    18    66    1
36    19    20    ar
37    19    67    1
38    20    21    ar
39    20    68    1
40    21    32    1
41    21    22    ar
42    22    23    1
43    23    24    2
44    23    25    1
45    25    26    2
46    25    69    1
47    26    27    1
48    26    32    1
49    27    28    2
50    27    29    1
51    29    30    1
52    30    31    1
53    30    70    1
54    30    71    1
55    31    72    1
56    31    73    1
57    31    74    1
58    33    34    1
59    34    35    2
60    34    36    1
61    36    37    1
62    36    38    1
63    36    42    1
64    38    39    1
65    38    40    1
66    38    41    1
67    42    43    1
68    42    75    1
69    42    76    1
70    43    44    1
71    43    77    1
72    43    78    1
73    44    45    1
74    44    79    1
75    44    80    1
76    45    46    1
77    45    81    1
78    45    82    1
79    46    47    1
80    46    48    1
81    46    49    1
82    50    51    ar
83    50    83    1
84    51    52    ar
85    51    84    1
86    52    53    ar
87    52    85    1
88    53    54    1
@<TRIPOS>SUBSTRUCTURE
1   ZINC000003914388 1     RESIDUE    1   A     ZIN   1
