@<TRIPOS>MOLECULE
ZINC000043150989
71    74    1     0     0
SMALL
USER_CHARGES
@<TRIPOS>ATOM
1      C1     -0.0176    1.4478    0.0100 C.3      1 ZINC000043150989    0.0500
2      O2      0.0021   -0.0041    0.0020 O.3      1 ZINC000043150989   -0.3700
3      C3     -1.1891   -0.6316    0.0100 C.2      1 ZINC000043150989    0.6500
4      O4     -2.2170    0.0163    0.0233 O.2      1 ZINC000043150989   -0.5600
5      N5     -1.2414   -1.9783    0.0033 N.am     1 ZINC000043150989   -0.6000
6      C6     -0.0071   -2.7753   -0.0067 C.3      1 ZINC000043150989    0.1100
7      C7     -0.0542   -3.7718    1.1559 C.3      1 ZINC000043150989   -0.1300
8      C8     -1.3379   -4.5997    1.0612 C.3      1 ZINC000043150989   -0.1200
9      C9     -1.3718   -5.6197    2.2011 C.3      1 ZINC000043150989   -0.0100
10     N10    -2.5423   -6.4929    2.0421 N.4      1 ZINC000043150989   -0.3900
11     H11    -3.3763   -5.9282    1.9819 H        1 ZINC000043150989    0.4200
12     C12    -2.6429   -7.3895    3.2000 C.3      1 ZINC000043150989    0.0000
13     C13    -3.9055   -8.2455    3.0788 C.3      1 ZINC000043150989   -0.1400
14     C14    -3.8318   -9.0751    1.7937 C.3      1 ZINC000043150989   -0.1100
15     C15    -5.1259   -9.8738    1.6255 C.3      1 ZINC000043150989    0.1200
16     N16    -5.0074  -10.7561    0.4620 N.am     1 ZINC000043150989   -0.7300
17     C17    -6.0334  -11.5597    0.1184 C.2      1 ZINC000043150989    0.5700
18     O18    -7.0574  -11.5524    0.7741 O.2      1 ZINC000043150989   -0.5400
19     C19    -5.9141  -12.4482   -1.0532 C.ar     1 ZINC000043150989   -0.1400
20     C20    -6.9799  -13.2818   -1.4186 C.ar     1 ZINC000043150989    0.1000
21     N21    -8.2379  -13.5046   -0.9100 N.pl3    1 ZINC000043150989   -0.5800
22     C22    -8.8343  -14.4422   -1.6962 C.2      1 ZINC000043150989    0.3000
23     C23   -10.2273  -14.9803   -1.4935 C.3      1 ZINC000043150989   -0.0200
24     C24   -10.1887  -16.1277   -0.4822 C.3      1 ZINC000043150989   -0.1500
25     C25   -11.1328  -13.8656   -0.9657 C.3      1 ZINC000043150989   -0.1600
26     N26    -8.0258  -14.8055   -2.6484 N.2      1 ZINC000043150989   -0.4900
27     C27    -6.8559  -14.1240   -2.5358 C.ar     1 ZINC000043150989    0.0400
28     C28    -5.6693  -14.1220   -3.2726 C.ar     1 ZINC000043150989   -0.0200
29     C29    -4.6275  -13.2977   -2.9037 C.ar     1 ZINC000043150989   -0.1400
30     C30    -4.7422  -12.4608   -1.8088 C.ar     1 ZINC000043150989   -0.0600
31     C31    -3.6523   -8.1334    0.5995 C.3      1 ZINC000043150989   -0.1500
32     C32    -2.3983   -7.2828    0.8134 C.3      1 ZINC000043150989   -0.0100
33     C33    -2.5525   -3.6749    1.1682 C.3      1 ZINC000043150989   -0.1500
34     C34    -2.5337   -2.6774    0.0119 C.3      1 ZINC000043150989    0.1300
35     H35     1.0050    1.8251    0.0023 H        1 ZINC000043150989    0.1100
36     H36    -0.5448    1.8089   -0.8731 H        1 ZINC000043150989    0.0700
37     H37    -0.5278    1.7993    0.9068 H        1 ZINC000043150989    0.0700
38     H38     0.0704   -3.3171   -0.9493 H        1 ZINC000043150989    0.0800
39     H39     0.8538   -2.1172    0.1108 H        1 ZINC000043150989    0.1000
40     H40     0.8103   -4.4336    1.1031 H        1 ZINC000043150989    0.0900
41     H41    -0.0403   -3.2290    2.1011 H        1 ZINC000043150989    0.0800
42     H42    -1.3630   -5.1227    0.1052 H        1 ZINC000043150989    0.1000
43     H43    -0.4635   -6.2217    2.1772 H        1 ZINC000043150989    0.1300
44     H44    -1.4359   -5.0963    3.1551 H        1 ZINC000043150989    0.1300
45     H45    -1.7671   -8.0375    3.2343 H        1 ZINC000043150989    0.1300
46     H46    -2.6920   -6.7977    4.1140 H        1 ZINC000043150989    0.1300
47     H47    -3.9774   -8.9117    3.9385 H        1 ZINC000043150989    0.1200
48     H48    -4.7820   -7.5984    3.0446 H        1 ZINC000043150989    0.0900
49     H49    -2.9856   -9.7598    1.8499 H        1 ZINC000043150989    0.1000
50     H50    -5.3021  -10.4726    2.5191 H        1 ZINC000043150989    0.0800
51     H51    -5.9598   -9.1876    1.4776 H        1 ZINC000043150989    0.0800
52     H52    -4.1906  -10.7620   -0.0611 H        1 ZINC000043150989    0.4000
53     H53    -8.6282  -13.0734   -0.1337 H        1 ZINC000043150989    0.4300
54     H54   -10.6173  -15.3461   -2.4433 H        1 ZINC000043150989    0.1100
55     H55    -9.7987  -15.7619    0.4676 H        1 ZINC000043150989    0.0600
56     H56   -11.1962  -16.5169   -0.3356 H        1 ZINC000043150989    0.0800
57     H57    -9.5436  -16.9218   -0.8582 H        1 ZINC000043150989    0.0700
58     H58   -11.1603  -13.0481   -1.6862 H        1 ZINC000043150989    0.0600
59     H59   -12.1403  -14.2548   -0.8191 H        1 ZINC000043150989    0.0800
60     H60   -10.7428  -13.4998   -0.0159 H        1 ZINC000043150989    0.0600
61     H61    -5.5676  -14.7675   -4.1325 H        1 ZINC000043150989    0.1400
62     H62    -3.7133  -13.3025   -3.4787 H        1 ZINC000043150989    0.1400
63     H63    -3.9173  -11.8209   -1.5323 H        1 ZINC000043150989    0.1300
64     H64    -3.5433   -8.7195   -0.3130 H        1 ZINC000043150989    0.1100
65     H65    -4.5236   -7.4840    0.5138 H        1 ZINC000043150989    0.0900
66     H66    -2.2665   -6.6110   -0.0347 H        1 ZINC000043150989    0.1300
67     H67    -1.5283   -7.9340    0.8985 H        1 ZINC000043150989    0.1300
68     H68    -3.4661   -4.2677    1.1241 H        1 ZINC000043150989    0.0700
69     H69    -2.5151   -3.1330    2.1132 H        1 ZINC000043150989    0.0900
70     H70    -3.3403   -1.9554    0.1390 H        1 ZINC000043150989    0.1100
71     H71    -2.6613   -3.2087   -0.9312 H        1 ZINC000043150989    0.0800
@<TRIPOS>BOND
1     1     2     1
2     1     35    1
3     1     36    1
4     1     37    1
5     2     3     1
6     3     4     2
7     3     5     am
8     5     34    1
9     5     6     1
10    6     7     1
11    6     38    1
12    6     39    1
13    7     8     1
14    7     40    1
15    7     41    1
16    8     9     1
17    8     33    1
18    8     42    1
19    9     10    1
20    9     43    1
21    9     44    1
22    10    11    1
23    10    32    1
24    10    12    1
25    12    13    1
26    12    45    1
27    12    46    1
28    13    14    1
29    13    47    1
30    13    48    1
31    14    15    1
32    14    31    1
33    14    49    1
34    15    16    1
35    15    50    1
36    15    51    1
37    16    17    am
38    16    52    1
39    17    18    2
40    17    19    1
41    19    30    ar
42    19    20    ar
43    20    27    ar
44    20    21    1
45    21    22    1
46    21    53    1
47    22    23    1
48    22    26    2
49    23    24    1
50    23    25    1
51    23    54    1
52    24    55    1
53    24    56    1
54    24    57    1
55    25    58    1
56    25    59    1
57    25    60    1
58    26    27    1
59    27    28    ar
60    28    29    ar
61    28    61    1
62    29    30    ar
63    29    62    1
64    30    63    1
65    31    32    1
66    31    64    1
67    31    65    1
68    32    66    1
69    32    67    1
70    33    34    1
71    33    68    1
72    33    69    1
73    34    70    1
74    34    71    1
@<TRIPOS>SUBSTRUCTURE
1   ZINC000043150989 1     RESIDUE    1   A     ZIN   1
