@<TRIPOS>MOLECULE
ZINC000000008717
39    39    1     0     0
SMALL
USER_CHARGES
@<TRIPOS>ATOM
1      C1     -0.0187    1.5258    0.0104 C.3      1 ZINC000000008717   -0.1500
2      C2      0.0021   -0.0041    0.0020 C.3      1 ZINC000000008717   -0.0900
3      C3     -1.4333   -0.5336    0.0129 C.3      1 ZINC000000008717   -0.1500
4      C4      0.7182   -0.4975   -1.2568 C.3      1 ZINC000000008717   -0.0700
5      C5      2.1652   -0.0794   -1.2080 C.ar     1 ZINC000000008717   -0.1000
6      C6      2.5514    1.1372   -1.7387 C.ar     1 ZINC000000008717   -0.1200
7      C7      3.8788    1.5207   -1.6939 C.ar     1 ZINC000000008717   -0.1200
8      C8      4.8198    0.6878   -1.1181 C.ar     1 ZINC000000008717   -0.0500
9      C9      6.2669    1.1057   -1.0698 C.3      1 ZINC000000008717   -0.0500
10     H10     6.3777    2.0859   -1.5334 H        1 ZINC000000008717    0.0900
11     C11     6.7293    1.1753    0.3871 C.3      1 ZINC000000008717   -0.1200
12     C12     7.1055    0.0997   -1.8154 C.2      1 ZINC000000008717    0.5300
13     O13     6.5797   -0.8619   -2.3349 O.2      1 ZINC000000008717   -0.6200
14     N14     8.4396    0.2686   -1.9049 N.pl3    1 ZINC000000008717   -1.1300
15     S15     9.3610   -0.8369   -2.7242 S.o2     1 ZINC000000008717    2.5600
16     C16    11.0564   -0.2078   -2.5811 C.3      1 ZINC000000008717   -0.6400
17     O17     9.2105   -2.0384   -1.9806 O.2      1 ZINC000000008717   -1.0200
18     O18     8.9067   -0.7449   -4.0675 O.2      1 ZINC000000008717   -1.0200
19     C19     4.4334   -0.5282   -0.5862 C.ar     1 ZINC000000008717   -0.0800
20     C20     3.1055   -0.9100   -0.6275 C.ar     1 ZINC000000008717   -0.1200
21     H21     1.0039    1.9031    0.0027 H        1 ZINC000000008717    0.0600
22     H22    -0.5459    1.8868   -0.8726 H        1 ZINC000000008717    0.0500
23     H23    -0.5289    1.8773    0.9072 H        1 ZINC000000008717    0.0500
24     H24     0.5293   -0.3651    0.8851 H        1 ZINC000000008717    0.0700
25     H25    -1.9605   -0.1726   -0.8702 H        1 ZINC000000008717    0.0500
26     H26    -1.4185   -1.6235    0.0069 H        1 ZINC000000008717    0.0500
27     H27    -1.9435   -0.1821    0.9097 H        1 ZINC000000008717    0.0500
28     H28     0.6556   -1.5845   -1.3079 H        1 ZINC000000008717    0.0700
29     H29     0.2444   -0.0644   -2.1377 H        1 ZINC000000008717    0.0700
30     H30     1.8162    1.7879   -2.1885 H        1 ZINC000000008717    0.1100
31     H31     4.1806    2.4709   -2.1091 H        1 ZINC000000008717    0.1200
32     H32     7.7759    1.4775    0.4220 H        1 ZINC000000008717    0.0700
33     H33     6.1228    1.9029    0.9264 H        1 ZINC000000008717    0.0500
34     H34     6.6185    0.1950    0.8507 H        1 ZINC000000008717    0.0500
35     H35    11.3338   -0.1470   -1.5288 H        1 ZINC000000008717    0.1100
36     H36    11.7390   -0.8821   -3.0984 H        1 ZINC000000008717    0.1000
37     H37    11.1152    0.7836   -3.0302 H        1 ZINC000000008717    0.1100
38     H38     5.1686   -1.1788   -0.1360 H        1 ZINC000000008717    0.1200
39     H39     2.8036   -1.8601   -0.2120 H        1 ZINC000000008717    0.1100
@<TRIPOS>BOND
1     1     2     1
2     1     21    1
3     1     22    1
4     1     23    1
5     2     3     1
6     2     4     1
7     2     24    1
8     3     25    1
9     3     26    1
10    3     27    1
11    4     5     1
12    4     28    1
13    4     29    1
14    5     20    ar
15    5     6     ar
16    6     7     ar
17    6     30    1
18    7     8     ar
19    7     31    1
20    8     9     1
21    8     19    ar
22    9     10    1
23    9     11    1
24    9     12    1
25    11    32    1
26    11    33    1
27    11    34    1
28    12    13    2
29    12    14    1
30    14    15    1
31    15    16    1
32    15    17    2
33    15    18    2
34    16    35    1
35    16    36    1
36    16    37    1
37    19    20    ar
38    19    38    1
39    20    39    1
@<TRIPOS>SUBSTRUCTURE
1   ZINC000000008717 1     RESIDUE    1   A     ZIN   1
