@<TRIPOS>MOLECULE
ZINC000000608130
  52   54    0    0    0
SMALL
USER_CHARGES
NO_NAME
@<TRIPOS>ATOM
    1 C1        0.5424     1.7547    -0.4097 C.3    1 <0>      -0.1500
    2 C2        0.4072     0.2315    -0.3611 C.3    1 <0>      -0.1100
    3 C3        1.1716    -0.3861    -1.5337 C.3    1 <0>      -0.0800
    4 H4        0.8198     0.0518    -2.4678 H      1 <0>       0.1100
    5 C5        2.6672    -0.1072    -1.3711 C.3    1 <0>      -0.1500
    6 C6        0.9380    -1.8747    -1.5574 C.2    1 <0>       0.4700
    7 O7        0.2324    -2.3889    -0.7221 O.2    1 <0>      -0.5000
    8 O8        1.5137    -2.6294    -2.5065 O.3    1 <0>      -0.3300
    9 C9        1.2444    -4.0557    -2.4680 C.3    1 <0>       0.0500
   10 H10       0.2560    -4.2318    -2.0436 H      1 <0>       0.1100
   11 C11       2.3045    -4.7583    -1.6162 C.3    1 <0>       0.1300
   12 H12       1.9889    -5.7824    -1.4165 H      1 <0>       0.1200
   13 O13       2.4631    -4.0481    -0.3597 O.3    1 <0>      -0.3300
   14 C14       1.7365    -4.4827     0.6819 C.2    1 <0>       0.4800
   15 C15       1.8029    -3.7580     2.0015 C.3    1 <0>      -0.1400
   16 O16       1.0291    -5.4548     0.5613 O.2    1 <0>      -0.5100
   17 C17       3.6202    -4.7735    -2.3521 C.ar   1 <0>      -0.2000
   18 C18       3.6889    -4.5509    -3.7139 C.ar   1 <0>       0.2200
   19 C19       4.9239    -4.5764    -4.3700 C.ar   1 <0>      -0.1700
   20 C20       6.0736    -4.8169    -3.6796 C.ar   1 <0>      -0.0100
   21 C21       6.0204    -5.0408    -2.2991 C.ar   1 <0>      -0.2000
   22 C22       4.7848    -5.0197    -1.6302 C.ar   1 <0>       0.2000
   23 O23       4.7209    -5.2354    -0.3011 O.3    1 <0>      -0.2500
   24 C24       5.8364    -5.4728     0.3965 C.2    1 <0>       0.5000
   25 O25       5.7440    -5.6647     1.5957 O.2    1 <0>      -0.4600
   26 C26       7.1139    -5.5112    -0.1954 C.2    1 <0>      -0.2500
   27 C27       7.2413    -5.3005    -1.5323 C.2    1 <0>       0.0100
   28 O28       2.5773    -4.2975    -4.4520 O.3    1 <0>      -0.2800
   29 C29       1.3081    -4.6328    -3.8880 C.3    1 <0>       0.1300
   30 C30       1.1538    -6.1540    -3.8336 C.3    1 <0>      -0.1800
   31 C31       0.1898    -4.0307    -4.7411 C.3    1 <0>      -0.1400
   32 H32       1.5953     2.0284    -0.3415 H      1 <0>       0.0600
   33 H33       0.1305     2.1263    -1.3480 H      1 <0>       0.0600
   34 H34      -0.0022     2.1947     0.4257 H      1 <0>       0.0600
   35 H35       0.8191    -0.1400     0.5772 H      1 <0>       0.0700
   36 H36      -0.6457    -0.0421    -0.4293 H      1 <0>       0.0700
   37 H37       3.0190    -0.5451    -0.4370 H      1 <0>       0.0600
   38 H38       3.2118    -0.5472    -2.2065 H      1 <0>       0.0700
   39 H39       2.8362     0.9695    -1.3539 H      1 <0>       0.0800
   40 H40       1.0397    -2.9802     2.0277 H      1 <0>       0.1100
   41 H41       1.6295    -4.4647     2.8132 H      1 <0>       0.1000
   42 H42       2.7874    -3.3051     2.1182 H      1 <0>       0.0900
   43 H43       4.9666    -4.4040    -5.4353 H      1 <0>       0.1500
   44 H44       7.0222    -4.8350    -4.1956 H      1 <0>       0.1500
   45 H45       7.9871    -5.7062     0.4094 H      1 <0>       0.1700
   46 H46       8.2086    -5.3238    -2.0122 H      1 <0>       0.1600
   47 H47       1.9465    -6.5777    -3.2170 H      1 <0>       0.0700
   48 H48       0.1847    -6.4057    -3.4029 H      1 <0>       0.0900
   49 H49       1.2204    -6.5623    -4.8420 H      1 <0>       0.0900
   50 H50       0.2515    -4.4283    -5.7542 H      1 <0>       0.0800
   51 H51      -0.7766    -4.2885    -4.3079 H      1 <0>       0.0800
   52 H52       0.2978    -2.9464    -4.7691 H      1 <0>       0.0800
@<TRIPOS>BOND
   1    1    2 1
   2    1   32 1
   3    1   33 1
   4    1   34 1
   5    2    3 1
   6    2   35 1
   7    2   36 1
   8    3    4 1
   9    3    5 1
  10    3    6 1
  11    5   37 1
  12    5   38 1
  13    5   39 1
  14    6    7 2
  15    6    8 1
  16    8    9 1
  17    9   10 1
  18    9   29 1
  19    9   11 1
  20   11   12 1
  21   11   13 1
  22   11   17 1
  23   13   14 1
  24   14   15 1
  25   14   16 2
  26   15   40 1
  27   15   41 1
  28   15   42 1
  29   17   22 ar
  30   17   18 ar
  31   18   19 ar
  32   18   28 1
  33   19   20 ar
  34   19   43 1
  35   20   21 ar
  36   20   44 1
  37   21   27 1
  38   21   22 ar
  39   22   23 1
  40   23   24 1
  41   24   25 2
  42   24   26 1
  43   26   27 2
  44   26   45 1
  45   27   46 1
  46   28   29 1
  47   29   30 1
  48   29   31 1
  49   30   47 1
  50   30   48 1
  51   30   49 1
  52   31   50 1
  53   31   51 1
  54   31   52 1
