@<TRIPOS>MOLECULE
ZINC000034096097
36    37    1     0     0
SMALL
USER_CHARGES
@<TRIPOS>ATOM
1      C1      0.9482    2.2539    0.1250 C.3      1 ZINC000034096097   -0.1200
2      C2      0.3015    0.8766    0.2850 C.3      1 ZINC000034096097   -0.1400
3      H3      0.4347    0.3038   -0.6328 H        1 ZINC000034096097    0.0700
4      C4     -1.1700    1.0419    0.5648 C.2      1 ZINC000034096097    0.5000
5      O5     -1.8841    1.6105   -0.2434 O.co2    1 ZINC000034096097   -0.7000
6      O6     -1.6464    0.6072    1.5995 O.co2    1 ZINC000034096097   -0.6800
7      C7      0.9520    0.1464    1.4317 C.ar     1 ZINC000034096097   -0.0100
8      C8      0.9052    0.6851    2.7059 C.ar     1 ZINC000034096097   -0.0900
9      C9      1.4977    0.0234    3.7603 C.ar     1 ZINC000034096097   -0.0600
10     C10     2.1472   -1.1962    3.5396 C.ar     1 ZINC000034096097   -0.1000
11     C11     2.7814   -1.9088    4.6585 C.2      1 ZINC000034096097    0.0100
12     C12     2.1177   -2.0588    5.8286 C.2      1 ZINC000034096097   -0.2300
13     C13     2.8960   -2.4432    7.0547 C.3      1 ZINC000034096097   -0.0700
14     C14     2.0824   -2.1303    8.3115 C.3      1 ZINC000034096097   -0.1200
15     C15     0.6872   -2.7463    8.1634 C.3      1 ZINC000034096097   -0.1200
16     C16    -0.0870   -1.9650    7.1006 C.3      1 ZINC000034096097   -0.1600
17     C17     0.7342   -1.8437    5.8486 C.2      1 ZINC000034096097    0.3700
18     O18     0.1745   -1.5554    4.8102 O.2      1 ZINC000034096097   -0.4300
19     C19     2.1896   -1.7342    2.2486 C.ar     1 ZINC000034096097   -0.1000
20     C20     1.5880   -1.0622    1.2059 C.ar     1 ZINC000034096097   -0.1400
21     H21     2.0126    2.1343   -0.0774 H        1 ZINC000034096097    0.0400
22     H22     0.4778    2.7821   -0.7043 H        1 ZINC000034096097    0.0600
23     H23     0.8150    2.8266    1.0428 H        1 ZINC000034096097    0.0500
24     H24     0.4034    1.6265    2.8745 H        1 ZINC000034096097    0.1200
25     H25     1.4609    0.4454    4.7537 H        1 ZINC000034096097    0.1000
26     H26     3.7768   -2.3127    4.5467 H        1 ZINC000034096097    0.1300
27     H27     3.1168   -3.5102    7.0231 H        1 ZINC000034096097    0.0700
28     H28     3.8307   -1.8829    7.0801 H        1 ZINC000034096097    0.0700
29     H29     2.5790   -2.5561    9.1834 H        1 ZINC000034096097    0.0700
30     H30     1.9942   -1.0504    8.4301 H        1 ZINC000034096097    0.0700
31     H31     0.7786   -3.7882    7.8566 H        1 ZINC000034096097    0.0700
32     H32     0.1597   -2.6888    9.1156 H        1 ZINC000034096097    0.0700
33     H33    -1.0183   -2.4852    6.8762 H        1 ZINC000034096097    0.0900
34     H34    -0.3137   -0.9679    7.4781 H        1 ZINC000034096097    0.0900
35     H35     2.6889   -2.6750    2.0701 H        1 ZINC000034096097    0.1100
36     H36     1.6194   -1.4762    0.2089 H        1 ZINC000034096097    0.1100
@<TRIPOS>BOND
1     1     2     1
2     1     21    1
3     1     22    1
4     1     23    1
5     2     3     1
6     2     4     1
7     2     7     1
8     4     5     ar
9     4     6     ar
10    7     20    ar
11    7     8     ar
12    8     9     ar
13    8     24    1
14    9     10    ar
15    9     25    1
16    10    11    1
17    10    19    ar
18    11    12    2
19    11    26    1
20    12    17    1
21    12    13    1
22    13    14    1
23    13    27    1
24    13    28    1
25    14    15    1
26    14    29    1
27    14    30    1
28    15    16    1
29    15    31    1
30    15    32    1
31    16    17    1
32    16    33    1
33    16    34    1
34    17    18    2
35    19    20    ar
36    19    35    1
37    20    36    1
@<TRIPOS>SUBSTRUCTURE
1   ZINC000034096097 1     RESIDUE    1   A     ZIN   1
