@<TRIPOS>MOLECULE
ZINC000034003654
  42   44    0    0    0
SMALL
USER_CHARGES
NO_NAME
@<TRIPOS>ATOM
    1 C1       -0.0019     1.5030     0.0076 C.3    1 <0>      -0.1300
    2 C2        0.0146    -0.0039    -0.0002 C.ar   1 <0>      -0.0400
    3 C3        1.2207    -0.6806    -0.0130 C.ar   1 <0>      -0.1300
    4 C4        1.2396    -2.0612    -0.0201 C.ar   1 <0>      -0.0600
    5 C5        0.0448    -2.7709    -0.0144 C.ar   1 <0>      -0.1600
    6 S6        0.0641    -4.5327    -0.0229 S.3    1 <0>      -0.0100
    7 C7        0.2271    -4.9356     1.6847 C.ar   1 <0>      -0.0900
    8 C8        0.1898    -3.9309     2.6438 C.ar   1 <0>      -0.1200
    9 C9        0.3174    -4.2504     3.9813 C.ar   1 <0>      -0.0900
   10 C10       0.4825    -5.5683     4.3664 C.ar   1 <0>      -0.1200
   11 C11       0.5200    -6.5710     3.4143 C.ar   1 <0>      -0.1000
   12 C12       0.3874    -6.2596     2.0758 C.ar   1 <0>      -0.0800
   13 C13       0.4279    -7.3528     1.0393 C.3    1 <0>      -0.0600
   14 C14       1.7685    -8.0884     1.1230 C.3    1 <0>      -0.1400
   15 C15       1.7718    -9.2466     0.1229 C.3    1 <0>      -0.0100
   16 N16       0.6813   -10.1760     0.4415 N.4    1 <0>      -0.5100
   17 H17       0.7192   -10.9652    -0.1861 H      1 <0>       0.4300
   18 H18       0.7826   -10.4985     1.3922 H      1 <0>       0.4300
   19 C19      -0.6114    -9.4966     0.2935 C.3    1 <0>      -0.0100
   20 C20      -0.7064    -8.3481     1.3001 C.3    1 <0>      -0.1400
   21 C21      -1.1653    -2.0876    -0.0015 C.ar   1 <0>      -0.0600
   22 C22      -1.1765    -0.7069     0.0112 C.ar   1 <0>      -0.1300
   23 H23       0.0070     1.8611     1.0370 H      1 <0>       0.0800
   24 H24       0.8775     1.8787    -0.5154 H      1 <0>       0.0700
   25 H25      -0.9022     1.8591    -0.4932 H      1 <0>       0.0700
   26 H26       2.1489    -0.1284    -0.0178 H      1 <0>       0.1300
   27 H27       2.1819    -2.5890    -0.0305 H      1 <0>       0.1300
   28 H28       0.0617    -2.9014     2.3437 H      1 <0>       0.1300
   29 H29       0.2886    -3.4701     4.7274 H      1 <0>       0.1300
   30 H30       0.5828    -5.8151     5.4130 H      1 <0>       0.1300
   31 H31       0.6495    -7.5991     3.7186 H      1 <0>       0.1200
   32 H32       0.3105    -6.9184     0.0466 H      1 <0>       0.1000
   33 H33       2.5777    -7.3986     0.8836 H      1 <0>       0.1200
   34 H34       1.9076    -8.4779     2.1315 H      1 <0>       0.0900
   35 H35       1.6328    -8.8560    -0.8851 H      1 <0>       0.1300
   36 H36       2.7249    -9.7724     0.1798 H      1 <0>       0.1400
   37 H37      -0.6995    -9.1007    -0.7182 H      1 <0>       0.1300
   38 H38      -1.4177   -10.2070     0.4763 H      1 <0>       0.1400
   39 H39      -0.6187    -8.7429     2.3123 H      1 <0>       0.0900
   40 H40      -1.6662    -7.8438     1.1874 H      1 <0>       0.1100
   41 H41      -2.0957    -2.6359     0.0029 H      1 <0>       0.1300
   42 H42      -2.1165    -0.1752     0.0213 H      1 <0>       0.1300
@<TRIPOS>BOND
   1    1    2 1
   2    1   23 1
   3    1   24 1
   4    1   25 1
   5    2   22 ar
   6    2    3 ar
   7    3    4 ar
   8    3   26 1
   9    4    5 ar
  10    4   27 1
  11    5    6 1
  12    5   21 ar
  13    6    7 1
  14    7   12 ar
  15    7    8 ar
  16    8    9 ar
  17    8   28 1
  18    9   10 ar
  19    9   29 1
  20   10   11 ar
  21   10   30 1
  22   11   12 ar
  23   11   31 1
  24   12   13 1
  25   13   20 1
  26   13   14 1
  27   13   32 1
  28   14   15 1
  29   14   33 1
  30   14   34 1
  31   15   16 1
  32   15   35 1
  33   15   36 1
  34   16   17 1
  35   16   18 1
  36   16   19 1
  37   19   20 1
  38   19   37 1
  39   19   38 1
  40   20   39 1
  41   20   40 1
  42   21   22 ar
  43   21   41 1
  44   22   42 1
