@<TRIPOS>MOLECULE
ZINC000003805534
65    66    1     0     0
SMALL
USER_CHARGES
@<TRIPOS>ATOM
1      C1      1.6840    0.6327    1.0484 C.3      1 ZINC000003805534    0.0900
2      N2      0.9366   -0.5692    0.6702 N.am     1 ZINC000003805534   -0.7400
3      C3      1.2749   -1.2509   -0.4421 C.2      1 ZINC000003805534    0.5000
4      O4      2.1980   -0.8693   -1.1300 O.2      1 ZINC000003805534   -0.5100
5      C5      0.5061   -2.4872   -0.8312 C.3      1 ZINC000003805534    0.1300
6      H6     -0.5412   -2.2293   -0.9887 H        1 ZINC000003805534    0.1200
7      C7      0.6128   -3.5269    0.2862 C.3      1 ZINC000003805534   -0.0800
8      C8     -0.2547   -4.7133   -0.0469 C.ar     1 ZINC000003805534   -0.0800
9      C9     -1.5749   -4.7406    0.3618 C.ar     1 ZINC000003805534   -0.1100
10     C10    -2.3707   -5.8289    0.0562 C.ar     1 ZINC000003805534   -0.1200
11     C11    -1.8463   -6.8896   -0.6585 C.ar     1 ZINC000003805534   -0.1200
12     C12    -0.5263   -6.8618   -1.0680 C.ar     1 ZINC000003805534   -0.1100
13     C13     0.2683   -5.7717   -0.7661 C.ar     1 ZINC000003805534   -0.1100
14     N14     1.0641   -3.0403   -2.0677 N.am     1 ZINC000003805534   -0.7100
15     C15     0.6557   -2.5675   -3.2619 C.2      1 ZINC000003805534    0.5300
16     O16    -0.2391   -1.7507   -3.3169 O.2      1 ZINC000003805534   -0.5400
17     C17     1.3110   -3.0537   -4.5289 C.3      1 ZINC000003805534   -0.0700
18     H18     1.6297   -4.0880   -4.3994 H        1 ZINC000003805534    0.1000
19     C19     2.5279   -2.1804   -4.8412 C.3      1 ZINC000003805534   -0.1100
20     C20     3.5870   -2.3740   -3.7541 C.3      1 ZINC000003805534   -0.1100
21     C21     4.1283   -3.8036   -3.8182 C.3      1 ZINC000003805534   -0.1400
22     C22     4.7326   -1.3845   -3.9763 C.3      1 ZINC000003805534   -0.1400
23     C23     0.3122   -2.9687   -5.6848 C.3      1 ZINC000003805534   -0.0800
24     H24    -0.0064   -1.9344   -5.8143 H        1 ZINC000003805534    0.1000
25     C25    -0.9047   -3.8419   -5.3725 C.3      1 ZINC000003805534   -0.1000
26     S26    -2.1526   -3.6268   -6.6713 S.3      1 ZINC000003805534   -0.0900
27     C27    -3.4560   -4.6911   -6.1488 C.ar     1 ZINC000003805534   -0.0800
28     C28    -3.3299   -5.4216   -4.9733 C.ar     1 ZINC000003805534   -0.1300
29     C29    -4.3534   -6.2547   -4.5669 C.ar     1 ZINC000003805534   -0.1000
30     C30    -5.5030   -6.3627   -5.3282 C.ar     1 ZINC000003805534   -0.1400
31     C31    -5.6318   -5.6376   -6.4989 C.ar     1 ZINC000003805534   -0.1000
32     C32    -4.6150   -4.7978   -6.9083 C.ar     1 ZINC000003805534   -0.1000
33     C33     0.9675   -3.4548   -6.9517 C.2      1 ZINC000003805534    0.4500
34     O34     2.1200   -3.8321   -6.9322 O.2      1 ZINC000003805534   -0.5800
35     N35     0.2729   -3.4703   -8.1066 N.am     1 ZINC000003805534   -0.5100
36     O36     0.8886   -3.9271   -9.2971 O.3      1 ZINC000003805534   -0.6800
37     H37     2.7313    0.3748    1.2059 H        1 ZINC000003805534    0.0600
38     H38     1.6080    1.3734    0.2524 H        1 ZINC000003805534    0.0600
39     H39     1.2689    1.0442    1.9684 H        1 ZINC000003805534    0.0700
40     H40     0.1983   -0.8744    1.2204 H        1 ZINC000003805534    0.4000
41     H41     1.6491   -3.8505    0.3837 H        1 ZINC000003805534    0.0900
42     H42     0.2800   -3.0859    1.2258 H        1 ZINC000003805534    0.0900
43     H43    -1.9846   -3.9119    0.9202 H        1 ZINC000003805534    0.1200
44     H44    -3.4019   -5.8506    0.3762 H        1 ZINC000003805534    0.1200
45     H45    -2.4678   -7.7401   -0.8966 H        1 ZINC000003805534    0.1200
46     H46    -0.1165   -7.6907   -1.6261 H        1 ZINC000003805534    0.1200
47     H47     1.2996   -5.7500   -1.0861 H        1 ZINC000003805534    0.1200
48     H48     1.7275   -3.7469   -2.0270 H        1 ZINC000003805534    0.4000
49     H49     2.9426   -2.4672   -5.8076 H        1 ZINC000003805534    0.1200
50     H50     2.2257   -1.1336   -4.8717 H        1 ZINC000003805534    0.0600
51     H51     3.1398   -2.1983   -2.7757 H        1 ZINC000003805534    0.0800
52     H52     3.3122   -4.5085   -3.6600 H        1 ZINC000003805534    0.0500
53     H53     4.5755   -3.9792   -4.7966 H        1 ZINC000003805534    0.0600
54     H54     4.8828   -3.9415   -3.0438 H        1 ZINC000003805534    0.0400
55     H55     4.3470   -0.3660   -3.9306 H        1 ZINC000003805534    0.0500
56     H56     5.4872   -1.5224   -3.2018 H        1 ZINC000003805534    0.0500
57     H57     5.1799   -1.5601   -4.9547 H        1 ZINC000003805534    0.0500
58     H58    -0.6003   -4.8877   -5.3307 H        1 ZINC000003805534    0.0900
59     H59    -1.3261   -3.5475   -4.4113 H        1 ZINC000003805534    0.0900
60     H60    -2.4324   -5.3380   -4.3784 H        1 ZINC000003805534    0.1200
61     H61    -4.2560   -6.8229   -3.6537 H        1 ZINC000003805534    0.1200
62     H62    -6.3019   -7.0150   -5.0080 H        1 ZINC000003805534    0.1200
63     H63    -6.5308   -5.7246   -7.0911 H        1 ZINC000003805534    0.1200
64     H64    -4.7164   -4.2316   -7.8224 H        1 ZINC000003805534    0.1300
65     H65    -0.6488   -3.1686   -8.1223 H        1 ZINC000003805534    0.3600
@<TRIPOS>BOND
1     1     2     1
2     1     37    1
3     1     38    1
4     1     39    1
5     2     3     am
6     2     40    1
7     3     4     2
8     3     5     1
9     5     6     1
10    5     7     1
11    5     14    1
12    7     8     1
13    7     41    1
14    7     42    1
15    8     13    ar
16    8     9     ar
17    9     10    ar
18    9     43    1
19    10    11    ar
20    10    44    1
21    11    12    ar
22    11    45    1
23    12    13    ar
24    12    46    1
25    13    47    1
26    14    15    am
27    14    48    1
28    15    16    2
29    15    17    1
30    17    18    1
31    17    19    1
32    17    23    1
33    19    20    1
34    19    49    1
35    19    50    1
36    20    21    1
37    20    22    1
38    20    51    1
39    21    52    1
40    21    53    1
41    21    54    1
42    22    55    1
43    22    56    1
44    22    57    1
45    23    24    1
46    23    25    1
47    23    33    1
48    25    26    1
49    25    58    1
50    25    59    1
51    26    27    1
52    27    32    ar
53    27    28    ar
54    28    29    ar
55    28    60    1
56    29    30    ar
57    29    61    1
58    30    31    ar
59    30    62    1
60    31    32    ar
61    31    63    1
62    32    64    1
63    33    34    2
64    33    35    am
65    35    36    1
66    35    65    1
@<TRIPOS>SUBSTRUCTURE
1   ZINC000003805534 1     RESIDUE    1   A     ZIN   1
