@<TRIPOS>MOLECULE
ZINC000102820038
72    75    1     0     0
SMALL
USER_CHARGES
@<TRIPOS>ATOM
1      C1      1.1539    1.4253   -1.3767 C.3      1 ZINC000102820038    0.0300
2      O2      1.0382    0.0087   -1.2289 O.3      1 ZINC000102820038   -0.2800
3      C3      1.5108   -0.7560   -2.2424 C.ar     1 ZINC000102820038    0.4800
4      C4      1.4312   -2.1556   -2.1809 C.ar     1 ZINC000102820038   -0.1100
5      N5      0.9535   -3.0427   -1.2733 N.2      1 ZINC000102820038   -0.4300
6      C6      1.1295   -4.2530   -1.7166 C.2      1 ZINC000102820038    0.2500
7      N7      1.7328   -4.2183   -2.9398 N.pl3    1 ZINC000102820038   -0.4800
8      C8      2.0962   -5.3764   -3.7602 C.3      1 ZINC000102820038    0.2900
9      H9      1.9562   -5.1416   -4.8153 H        1 ZINC000102820038    0.1300
10     O10     1.2835   -6.5057   -3.3989 O.3      1 ZINC000102820038   -0.3400
11     C11     2.1059   -7.6826   -3.5502 C.3      1 ZINC000102820038    0.0400
12     H12     2.1808   -7.9661   -4.6000 H        1 ZINC000102820038    0.1100
13     C13     1.5482   -8.8402   -2.7197 C.3      1 ZINC000102820038    0.1300
14     O14     0.2845   -9.2427   -3.2518 O.3      1 ZINC000102820038   -0.7400
15     P15    -0.5909  -10.4387   -2.6232 P.3      1 ZINC000102820038    2.3400
16     O16     0.2877  -11.5943   -2.3350 O.2      1 ZINC000102820038   -1.0000
17     N17    -1.3145   -9.9146   -1.1969 N.3      1 ZINC000102820038   -1.0200
18     C18    -2.1160   -8.7052   -1.4267 C.3      1 ZINC000102820038    0.0800
19     H19    -1.7305   -8.1737   -2.2968 H        1 ZINC000102820038    0.1200
20     C20    -3.5737   -9.0988   -1.6742 C.3      1 ZINC000102820038   -0.1900
21     C21    -2.0356   -7.8117   -0.2159 C.2      1 ZINC000102820038    0.4700
22     O22    -1.3781   -8.1478    0.7404 O.2      1 ZINC000102820038   -0.4800
23     O23    -2.6945   -6.6423   -0.1998 O.3      1 ZINC000102820038   -0.3500
24     C24    -2.5717   -5.8330    0.9995 C.3      1 ZINC000102820038    0.0800
25     C25    -1.3746   -4.8907    0.8585 C.3      1 ZINC000102820038   -0.1700
26     C26    -3.8476   -5.0111    1.1929 C.3      1 ZINC000102820038   -0.1500
27     O27    -1.7299  -10.8790   -3.6725 O.3      1 ZINC000102820038   -0.6400
28     C28    -1.2442  -11.4188   -4.8213 C.ar     1 ZINC000102820038    0.0800
29     C29    -0.8612  -10.5938   -5.8689 C.ar     1 ZINC000102820038   -0.1400
30     C30    -0.3674  -11.1449   -7.0354 C.ar     1 ZINC000102820038   -0.1000
31     C31    -0.2552  -12.5174   -7.1596 C.ar     1 ZINC000102820038   -0.1100
32     C32    -0.6367  -13.3417   -6.1172 C.ar     1 ZINC000102820038   -0.1000
33     C33    -1.1253  -12.7953   -4.9462 C.ar     1 ZINC000102820038   -0.1100
34     C34     3.4858   -7.2318   -3.0069 C.3      1 ZINC000102820038    0.0600
35     H35     3.5098   -7.2800   -1.9182 H        1 ZINC000102820038    0.1000
36     O36     4.5377   -8.0160   -3.5730 O.3      1 ZINC000102820038   -0.5300
37     C37     3.5650   -5.7629   -3.4997 C.3      1 ZINC000102820038    0.1000
38     C38     4.1700   -4.8668   -2.4172 C.3      1 ZINC000102820038   -0.1700
39     F39     4.3133   -5.6818   -4.6790 F        1 ZINC000102820038   -0.1700
40     C40     1.9367   -2.9001   -3.2607 C.ar     1 ZINC000102820038    0.3600
41     N41     2.4686   -2.2594   -4.2959 N.ar     1 ZINC000102820038   -0.5900
42     C42     2.5228   -0.9374   -4.3125 C.ar     1 ZINC000102820038    0.6300
43     N43     3.0843   -0.3046   -5.4093 N.pl3    1 ZINC000102820038   -0.8100
44     N44     2.0535   -0.1971   -3.3161 N.ar     1 ZINC000102820038   -0.6200
45     H45     2.2048    1.6950   -1.4816 H        1 ZINC000102820038    0.0700
46     H46     0.6066    1.7440   -2.2638 H        1 ZINC000102820038    0.0700
47     H47     0.7385    1.9174   -0.4972 H        1 ZINC000102820038    0.1000
48     H48     0.8411   -5.1526   -1.1932 H        1 ZINC000102820038    0.2200
49     H49     2.2417   -9.6803   -2.7555 H        1 ZINC000102820038    0.1000
50     H50     1.4211   -8.5177   -1.6863 H        1 ZINC000102820038    0.0800
51     H51    -1.8740  -10.6464   -0.7852 H        1 ZINC000102820038    0.4000
52     H52    -3.6433   -9.6720   -2.5987 H        1 ZINC000102820038    0.0900
53     H53    -3.9324   -9.7055   -0.8427 H        1 ZINC000102820038    0.0800
54     H54    -4.1838   -8.1994   -1.7575 H        1 ZINC000102820038    0.1000
55     H55    -2.4234   -6.4823    1.8624 H        1 ZINC000102820038    0.0800
56     H56    -1.5229   -4.2415   -0.0044 H        1 ZINC000102820038    0.0700
57     H57    -1.2824   -4.2832    1.7588 H        1 ZINC000102820038    0.0800
58     H58    -0.4656   -5.4763    0.7207 H        1 ZINC000102820038    0.0600
59     H59    -4.7005   -5.6824    1.2934 H        1 ZINC000102820038    0.0600
60     H60    -3.7555   -4.4036    2.0932 H        1 ZINC000102820038    0.0800
61     H61    -3.9959   -4.3618    0.3301 H        1 ZINC000102820038    0.0700
62     H62    -0.9494   -9.5218   -5.7726 H        1 ZINC000102820038    0.1300
63     H63    -0.0691  -10.5032   -7.8513 H        1 ZINC000102820038    0.1300
64     H64     0.1308  -12.9463   -8.0726 H        1 ZINC000102820038    0.1300
65     H65    -0.5484  -14.4135   -6.2167 H        1 ZINC000102820038    0.1400
66     H66    -1.4231  -13.4396   -4.1322 H        1 ZINC000102820038    0.1400
67     H67     4.4796   -8.9591   -3.3674 H        1 ZINC000102820038    0.3900
68     H68     5.1844   -5.1988   -2.1958 H        1 ZINC000102820038    0.0900
69     H69     4.1941   -3.8359   -2.7705 H        1 ZINC000102820038    0.0800
70     H70     3.5627   -4.9273   -1.5141 H        1 ZINC000102820038    0.0800
71     H71     3.4293   -0.8298   -6.1483 H        1 ZINC000102820038    0.4200
72     H72     3.1324    0.6638   -5.4385 H        1 ZINC000102820038    0.4200
@<TRIPOS>BOND
1     1     2     1
2     1     45    1
3     1     46    1
4     1     47    1
5     2     3     1
6     3     44    ar
7     3     4     ar
8     4     40    ar
9     4     5     1
10    5     6     2
11    6     7     1
12    6     48    1
13    7     8     1
14    7     40    1
15    8     9     1
16    8     37    1
17    8     10    1
18    10    11    1
19    11    12    1
20    11    13    1
21    11    34    1
22    13    14    1
23    13    49    1
24    13    50    1
25    14    15    1
26    15    16    2
27    15    17    1
28    15    27    1
29    17    18    1
30    17    51    1
31    18    19    1
32    18    20    1
33    18    21    1
34    20    52    1
35    20    53    1
36    20    54    1
37    21    22    2
38    21    23    1
39    23    24    1
40    24    25    1
41    24    26    1
42    24    55    1
43    25    56    1
44    25    57    1
45    25    58    1
46    26    59    1
47    26    60    1
48    26    61    1
49    27    28    1
50    28    33    ar
51    28    29    ar
52    29    30    ar
53    29    62    1
54    30    31    ar
55    30    63    1
56    31    32    ar
57    31    64    1
58    32    33    ar
59    32    65    1
60    33    66    1
61    34    35    1
62    34    36    1
63    34    37    1
64    36    67    1
65    37    38    1
66    37    39    1
67    38    68    1
68    38    69    1
69    38    70    1
70    40    41    ar
71    41    42    ar
72    42    43    1
73    42    44    ar
74    43    71    1
75    43    72    1
@<TRIPOS>SUBSTRUCTURE
1   ZINC000102820038 1     RESIDUE    1   A     ZIN   1
