@<TRIPOS>MOLECULE
ZINC000003785289
  22   23    0    0    0
SMALL
USER_CHARGES
NO_NAME
@<TRIPOS>ATOM
    1 Cl1       1.2198     2.0639     1.1789 Cl     1 <0>      -0.0100
    2 C2       -0.0215     1.7317     0.0116 C.2    1 <0>      -0.0500
    3 C3        0.1700     0.7914    -0.9177 C.2    1 <0>       0.1000
    4 N4        1.4064     0.1607    -1.0253 N.pl3  1 <0>      -0.3400
    5 C5        1.7514    -0.7965    -1.9097 C.2    1 <0>       0.2600
    6 N6        2.9978    -1.1261    -1.6840 N.2    1 <0>      -0.5300
    7 C7        3.4796    -0.4070    -0.6710 C.2    1 <0>       0.2000
    8 N8        2.5449     0.3990    -0.2380 N.2    1 <0>      -0.2900
    9 C9       -1.2910     2.4843     0.0496 C.ar   1 <0>      -0.0400
   10 C10      -2.5049     1.8055     0.1698 C.ar   1 <0>      -0.0700
   11 C11      -3.6879     2.5143     0.2052 C.ar   1 <0>      -0.1000
   12 C12      -3.6737     3.8963     0.1214 C.ar   1 <0>      -0.0100
   13 Cl13     -5.1671     4.7802     0.1669 Cl     1 <0>      -0.0500
   14 C14      -2.4734     4.5765     0.0020 C.ar   1 <0>      -0.1000
   15 C15      -1.2823     3.8797    -0.0288 C.ar   1 <0>       0.0000
   16 Cl16      0.2218     4.7335    -0.1786 Cl     1 <0>      -0.0400
   17 H17      -0.6344     0.5205    -1.5855 H      1 <0>       0.1900
   18 H18       1.1115    -1.2178    -2.6709 H      1 <0>       0.2300
   19 H19       4.4816    -0.4757    -0.2740 H      1 <0>       0.2200
   20 H20      -2.5179     0.7275     0.2346 H      1 <0>       0.1500
   21 H21      -4.6275     1.9899     0.2982 H      1 <0>       0.1500
   22 H22      -2.4689     5.6545    -0.0629 H      1 <0>       0.1500
@<TRIPOS>BOND
   1    1    2 1
   2    2    3 2
   3    2    9 1
   4    3    4 1
   5    3   17 1
   6    4    8 1
   7    4    5 1
   8    5    6 2
   9    5   18 1
  10    6    7 1
  11    7    8 2
  12    7   19 1
  13    9   15 ar
  14    9   10 ar
  15   10   11 ar
  16   10   20 1
  17   11   12 ar
  18   11   21 1
  19   12   13 1
  20   12   14 ar
  21   14   15 ar
  22   14   22 1
  23   15   16 1




