@<TRIPOS>MOLECULE
ZINC000000153764
  24   24    0    0    0
SMALL
NO_CHARGES


@<TRIPOS>ATOM
   1 C1            -0.0187     1.5258     0.0104 C.3     
   2 C2             0.0021    -0.0041     0.0020 C.3     
   3 O3             0.6709    -0.4649    -1.1737 O.3     
   4 C4             0.7760    -1.8009    -1.3350 C.2     
   5 O5             0.3116    -2.5532    -0.4987 O.2     
   6 C6             1.4250    -2.3257    -2.4744 C.2     
   7 C7             1.5308    -3.6702    -2.6367 C.2     
   8 O8             1.0149    -4.5059    -1.7078 O.3     
   9 C9             2.2099    -4.2194    -3.8290 C.ar    
  10 C10            2.3104    -5.6009    -3.9931 C.ar    
  11 C11            2.9495    -6.1000    -5.1162 C.ar    
  12 C12            3.4667    -5.2019    -6.0375 C.ar    
  13 C13            3.3311    -3.8420    -5.8111 C.ar    
  14 N14            2.7151    -3.3934    -4.7388 N.ar    
  15 H15            1.0039     1.9031     0.0027 H       
  16 H16           -0.5459     1.8868    -0.8726 H       
  17 H17           -0.5289     1.8773     0.9072 H       
  18 H18            0.5293    -0.3651     0.8851 H       
  19 H19           -1.0205    -0.3814     0.0098 H       
  20 H20            1.8372    -1.6581    -3.2165 H       
  21 H21            1.8962    -6.2717    -3.2551 H       
  22 H22            3.0431    -7.1648    -5.2706 H       
  23 H23            3.9709    -5.5594    -6.9231 H       
  24 H24            3.7333    -3.1403    -6.5268 H       
@<TRIPOS>BOND
   1    1    2 1
   2    1   15 1
   3    1   16 1
   4    1   17 1
   5    2    3 1
   6    2   18 1
   7    2   19 1
   8    3    4 1
   9    4    5 2
  10    4    6 1
  11    6    7 2
  12    6   20 1
  13    7    8 1
  14    7    9 1
  15    9   14 ar
  16    9   10 ar
  17   10   11 ar
  18   10   21 1
  19   11   12 ar
  20   11   22 1
  21   12   13 ar
  22   12   23 1
  23   13   14 ar
  24   13   24 1


