@<TRIPOS>MOLECULE
ZINC000114617828
56    59    1     0     0
SMALL
USER_CHARGES
@<TRIPOS>ATOM
1      C1      5.1559   -4.8919    0.5729 C.3      1 ZINC000114617828    0.0300
2      O2      3.9435   -5.2298    1.2496 O.3      1 ZINC000114617828   -0.3900
3      C3      3.3601   -4.1446    1.9735 C.3      1 ZINC000114617828    0.0900
4      H4      4.1462   -3.4705    2.3137 H        1 ZINC000114617828    0.0600
5      C5      2.3950   -3.3838    1.0622 C.3      1 ZINC000114617828   -0.1300
6      C6      1.7703   -2.2220    1.8373 C.3      1 ZINC000114617828   -0.1500
7      C7      1.0075   -2.7671    3.0463 C.3      1 ZINC000114617828    0.1500
8      H8      0.5625   -1.9394    3.5986 H        1 ZINC000114617828    0.0900
9      N9     -0.0491   -3.6732    2.5892 N.am     1 ZINC000114617828   -0.5200
10     C10    -0.8758   -3.2868    1.5990 C.2      1 ZINC000114617828    0.5100
11     O11    -0.7112   -2.2097    1.0663 O.2      1 ZINC000114617828   -0.5000
12     C12    -2.0034   -4.1783    1.1451 C.3      1 ZINC000114617828    0.1200
13     N13    -1.6245   -5.5814    1.3674 N.pl3    1 ZINC000114617828   -0.7200
14     C14    -0.9824   -5.9028    2.5620 C.ar     1 ZINC000114617828    0.3300
15     N15    -1.1148   -7.0998    3.1054 N.ar     1 ZINC000114617828   -0.4500
16     C16    -0.4977   -7.3786    4.2430 C.ar     1 ZINC000114617828    0.0800
17     C17     0.2879   -6.4143    4.8654 C.ar     1 ZINC000114617828    0.1000
18     C18     0.9756   -6.7315    6.1405 C.ar     1 ZINC000114617828   -0.0800
19     C19     0.8462   -7.9960    6.7218 C.ar     1 ZINC000114617828   -0.0600
20     C20     1.5086   -8.2422    7.9123 C.ar     1 ZINC000114617828   -0.1500
21     C21     2.2699   -7.2387    8.4829 C.ar     1 ZINC000114617828    0.1000
22     C22     2.9932   -7.5022    9.7784 C.3      1 ZINC000114617828    0.1800
23     C23     3.7589   -6.2463   10.1996 C.3      1 ZINC000114617828   -0.1600
24     C24     1.9787   -7.8689   10.8635 C.3      1 ZINC000114617828   -0.1400
25     O25     3.9114   -8.5825    9.6002 O.3      1 ZINC000114617828   -0.5500
26     N26     2.3734   -6.0545    7.9108 N.ar     1 ZINC000114617828   -0.4700
27     C27     1.7662   -5.7754    6.7758 C.ar     1 ZINC000114617828    0.1300
28     N28     0.4251   -5.2063    4.3194 N.ar     1 ZINC000114617828   -0.4200
29     C29    -0.1845   -4.9285    3.1796 C.ar     1 ZINC000114617828    0.3000
30     C30     1.9727   -3.5279    3.9577 C.3      1 ZINC000114617828   -0.1400
31     C31     2.5973   -4.6897    3.1826 C.3      1 ZINC000114617828   -0.1100
32     H32     5.8957   -4.5552    1.2991 H        1 ZINC000114617828    0.0400
33     H33     5.5352   -5.7684    0.0476 H        1 ZINC000114617828    0.0800
34     H34     4.9616   -4.0943   -0.1443 H        1 ZINC000114617828    0.0400
35     H35     2.9384   -2.9955    0.2008 H        1 ZINC000114617828    0.0600
36     H36     1.6089   -4.0580    0.7220 H        1 ZINC000114617828    0.0600
37     H37     2.5564   -1.5479    2.1775 H        1 ZINC000114617828    0.0800
38     H38     1.0827   -1.6800    1.1880 H        1 ZINC000114617828    0.1100
39     H39    -2.9026   -3.9484    1.7166 H        1 ZINC000114617828    0.1000
40     H40    -2.1925   -4.0153    0.0841 H        1 ZINC000114617828    0.1300
41     H41    -1.8158   -6.2623    0.7035 H        1 ZINC000114617828    0.4200
42     H42    -0.6048   -8.3565    4.6887 H        1 ZINC000114617828    0.1800
43     H43     0.2445   -8.7614    6.2543 H        1 ZINC000114617828    0.1400
44     H44     1.4313   -9.2075    8.3904 H        1 ZINC000114617828    0.1400
45     H45     3.0585   -5.4223   10.3356 H        1 ZINC000114617828    0.0700
46     H46     4.2820   -6.4369   11.1367 H        1 ZINC000114617828    0.0600
47     H47     4.4816   -5.9851    9.4266 H        1 ZINC000114617828    0.0600
48     H48     1.4333   -8.7636   10.5634 H        1 ZINC000114617828    0.0700
49     H49     2.5019   -8.0594   11.8005 H        1 ZINC000114617828    0.0700
50     H50     1.2783   -7.0448   10.9994 H        1 ZINC000114617828    0.0700
51     H51     4.5848   -8.4192    8.9256 H        1 ZINC000114617828    0.3800
52     H52     1.8748   -4.7941    6.3380 H        1 ZINC000114617828    0.1700
53     H53     2.7588   -2.8537    4.2979 H        1 ZINC000114617828    0.0700
54     H54     1.4292   -3.9162    4.8191 H        1 ZINC000114617828    0.1400
55     H55     1.8112   -5.3638    2.8424 H        1 ZINC000114617828    0.0600
56     H56     3.2849   -5.2317    3.8319 H        1 ZINC000114617828    0.0700
@<TRIPOS>BOND
1     1     2     1
2     1     32    1
3     1     33    1
4     1     34    1
5     2     3     1
6     3     4     1
7     3     31    1
8     3     5     1
9     5     6     1
10    5     35    1
11    5     36    1
12    6     7     1
13    6     37    1
14    6     38    1
15    7     8     1
16    7     9     1
17    7     30    1
18    9     29    1
19    9     10    am
20    10    11    2
21    10    12    1
22    12    13    1
23    12    39    1
24    12    40    1
25    13    14    1
26    13    41    1
27    14    29    ar
28    14    15    ar
29    15    16    ar
30    16    17    ar
31    16    42    1
32    17    18    1
33    17    28    ar
34    18    27    ar
35    18    19    ar
36    19    20    ar
37    19    43    1
38    20    21    ar
39    20    44    1
40    21    22    1
41    21    26    ar
42    22    23    1
43    22    24    1
44    22    25    1
45    23    45    1
46    23    46    1
47    23    47    1
48    24    48    1
49    24    49    1
50    24    50    1
51    25    51    1
52    26    27    ar
53    27    52    1
54    28    29    ar
55    30    31    1
56    30    53    1
57    30    54    1
58    31    55    1
59    31    56    1
@<TRIPOS>SUBSTRUCTURE
1   ZINC000114617828 1     RESIDUE    1   A     ZIN   1
