@<TRIPOS>MOLECULE
ZINC000003793034
54    56    1     0     0
SMALL
USER_CHARGES
@<TRIPOS>ATOM
1      C1      0.4982    1.4249    0.2769 C.3      1 ZINC000003793034   -0.1300
2      C2      0.0071    0.0022    0.0020 C.3      1 ZINC000003793034    0.0800
3      H3     -1.0805    0.0008   -0.0701 H        1 ZINC000003793034    0.0400
4      N4      0.4263   -0.8810    1.0984 N.3      1 ZINC000003793034   -0.6400
5      C5     -0.5330   -0.8322    2.2098 C.3      1 ZINC000003793034    0.0200
6      H6     -1.5415   -0.7113    1.8143 H        1 ZINC000003793034    0.0300
7      C7     -0.4520   -2.1331    3.0110 C.3      1 ZINC000003793034   -0.0900
8      C8     -0.9076   -3.3013    2.1342 C.3      1 ZINC000003793034   -0.0900
9      C9     -0.8278   -4.5826    2.9234 C.ar     1 ZINC000003793034   -0.0600
10     C10     0.3371   -5.3269    2.9171 C.ar     1 ZINC000003793034   -0.1100
11     C11     0.4103   -6.5022    3.6409 C.ar     1 ZINC000003793034   -0.1200
12     C12    -0.6812   -6.9332    4.3715 C.ar     1 ZINC000003793034   -0.1400
13     C13    -1.8458   -6.1885    4.3786 C.ar     1 ZINC000003793034   -0.1200
14     C14    -1.9176   -5.0109    3.6581 C.ar     1 ZINC000003793034   -0.1200
15     C15    -0.2027    0.3322    3.1077 C.2      1 ZINC000003793034    0.5100
16     O16    -1.0895    0.8964    3.7255 O.co2    1 ZINC000003793034   -0.7200
17     O17     0.9515    0.7099    3.2164 O.co2    1 ZINC000003793034   -0.6700
18     C18     0.5970   -0.4913   -1.2941 C.2      1 ZINC000003793034    0.5200
19     O19     1.5400   -1.2537   -1.2797 O.2      1 ZINC000003793034   -0.5200
20     N20     0.0765   -0.0852   -2.4691 N.am     1 ZINC000003793034   -0.5900
21     C21    -1.0003    0.9231   -2.5434 C.3      1 ZINC000003793034    0.1300
22     C22    -0.4915    2.0971   -3.3884 C.3      1 ZINC000003793034   -0.1200
23     C23    -0.0523    1.5875   -4.7619 C.3      1 ZINC000003793034   -0.1100
24     C24    -0.2764    0.0763   -4.8555 C.3      1 ZINC000003793034   -0.0800
25     C25    -1.7599   -0.2267   -4.6321 C.3      1 ZINC000003793034   -0.1100
26     C26    -2.1971    0.2851   -3.2588 C.3      1 ZINC000003793034   -0.1300
27     C27     0.5516   -0.6162   -3.7623 C.3      1 ZINC000003793034    0.0900
28     H28     0.3903   -1.6936   -3.7986 H        1 ZINC000003793034    0.0600
29     C29     2.0147   -0.3079   -3.9507 C.2      1 ZINC000003793034    0.5000
30     O30     2.5918    0.4172   -3.1585 O.co2    1 ZINC000003793034   -0.6700
31     O31     2.6212   -0.7836   -4.8953 O.co2    1 ZINC000003793034   -0.7200
32     H32     1.5876    1.4453    0.2470 H        1 ZINC000003793034    0.0700
33     H33     0.1013    2.0993   -0.4818 H        1 ZINC000003793034    0.0400
34     H34     0.1558    1.7436    1.2614 H        1 ZINC000003793034    0.0800
35     H35     0.5536   -1.8273    0.7720 H        1 ZINC000003793034    0.3300
36     H36     0.5765   -2.2989    3.3316 H        1 ZINC000003793034    0.0700
37     H37    -1.0983   -2.0619    3.8859 H        1 ZINC000003793034    0.0600
38     H38    -1.9361   -3.1354    1.8137 H        1 ZINC000003793034    0.0700
39     H39    -0.2613   -3.3725    1.2594 H        1 ZINC000003793034    0.0700
40     H40     1.1899   -4.9902    2.3463 H        1 ZINC000003793034    0.1300
41     H41     1.3202   -7.0841    3.6354 H        1 ZINC000003793034    0.1200
42     H42    -0.6242   -7.8518    4.9365 H        1 ZINC000003793034    0.1100
43     H43    -2.6987   -6.5253    4.9491 H        1 ZINC000003793034    0.1200
44     H44    -2.8274   -4.4291    3.6637 H        1 ZINC000003793034    0.1200
45     H45    -1.2840    1.2545   -1.5445 H        1 ZINC000003793034    0.0900
46     H46    -1.2899    2.8289   -3.5110 H        1 ZINC000003793034    0.0600
47     H47     0.3556    2.5650   -2.8869 H        1 ZINC000003793034    0.0700
48     H48    -0.6336    2.0880   -5.5363 H        1 ZINC000003793034    0.0500
49     H49     1.0055    1.8061   -4.9075 H        1 ZINC000003793034    0.0700
50     H50     0.0264   -0.2791   -5.8405 H        1 ZINC000003793034    0.0800
51     H51    -2.3500    0.2643   -5.4059 H        1 ZINC000003793034    0.0600
52     H52    -1.9212   -1.3034   -4.6850 H        1 ZINC000003793034    0.0600
53     H53    -2.5739   -0.5472   -2.6643 H        1 ZINC000003793034    0.0600
54     H54    -2.9847    1.0285   -3.3823 H        1 ZINC000003793034    0.0700
@<TRIPOS>BOND
1     1     2     1
2     1     32    1
3     1     33    1
4     1     34    1
5     2     3     1
6     2     4     1
7     2     18    1
8     4     5     1
9     4     35    1
10    5     6     1
11    5     7     1
12    5     15    1
13    7     8     1
14    7     36    1
15    7     37    1
16    8     9     1
17    8     38    1
18    8     39    1
19    9     14    ar
20    9     10    ar
21    10    11    ar
22    10    40    1
23    11    12    ar
24    11    41    1
25    12    13    ar
26    12    42    1
27    13    14    ar
28    13    43    1
29    14    44    1
30    15    16    ar
31    15    17    ar
32    18    19    2
33    18    20    am
34    20    27    1
35    20    21    1
36    21    26    1
37    21    22    1
38    21    45    1
39    22    23    1
40    22    46    1
41    22    47    1
42    23    24    1
43    23    48    1
44    23    49    1
45    24    25    1
46    24    27    1
47    24    50    1
48    25    26    1
49    25    51    1
50    25    52    1
51    26    53    1
52    26    54    1
53    27    28    1
54    27    29    1
55    29    30    ar
56    29    31    ar
@<TRIPOS>SUBSTRUCTURE
1   ZINC000003793034 1     RESIDUE    1   A     ZIN   1
