@<TRIPOS>MOLECULE
ZINC000064559600
54    57    1     0     0
SMALL
USER_CHARGES
@<TRIPOS>ATOM
1      C1     -1.8596    2.5648    0.1916 C.3      1 ZINC000064559600    0.1000
2      N2     -1.4754    1.1555    0.0795 N.am     1 ZINC000064559600   -0.3900
3      O3     -0.1103    0.8019   -0.0487 O.3      1 ZINC000064559600   -0.6500
4      C4     -2.4213    0.1956    0.0984 C.2      1 ZINC000064559600    0.5000
5      O5     -3.5931    0.4992    0.2085 O.2      1 ZINC000064559600   -0.6300
6      C6     -2.0335   -1.2270   -0.0147 C.ar     1 ZINC000064559600    0.0800
7      N7     -0.7456   -1.5500   -0.1295 N.ar     1 ZINC000064559600   -0.3500
8      C8     -0.3370   -2.7935   -0.2336 C.ar     1 ZINC000064559600    0.0800
9      C9     -1.2523   -3.8433   -0.2278 C.ar     1 ZINC000064559600    0.0400
10     C10    -2.6267   -3.5445   -0.1080 C.ar     1 ZINC000064559600   -0.0700
11     C11    -3.0163   -2.2089    0.0059 C.ar     1 ZINC000064559600   -0.0700
12     C12    -3.3236   -4.8279   -0.1323 C.2      1 ZINC000064559600   -0.1600
13     C13    -4.8120   -5.0431   -0.0345 C.3      1 ZINC000064559600    0.1100
14     N14    -5.2512   -4.8065    1.3472 N.3      1 ZINC000064559600   -0.4900
15     C15    -4.5245   -5.6818    2.2914 C.3      1 ZINC000064559600    0.0500
16     C16    -5.5509   -5.9980    3.4077 C.3      1 ZINC000064559600   -0.1300
17     C17    -6.8678   -6.1213    2.5968 C.3      1 ZINC000064559600   -0.1300
18     C18    -6.6969   -5.0571    1.4924 C.3      1 ZINC000064559600    0.0500
19     H19    -7.2055   -4.1375    1.7817 H        1 ZINC000064559600    0.1000
20     C20    -7.2646   -5.5700    0.1940 C.2      1 ZINC000064559600    0.5100
21     N21    -8.1522   -4.8251   -0.4943 N.am     1 ZINC000064559600   -0.8500
22     O22    -6.9227   -6.6530   -0.2316 O.2      1 ZINC000064559600   -0.5400
23     C23    -2.3832   -5.7805   -0.2586 C.2      1 ZINC000064559600    0.0600
24     N24    -1.1438   -5.2081   -0.3167 N.pl3    1 ZINC000064559600   -0.4700
25     C25     0.1158   -5.9435   -0.4543 C.3      1 ZINC000064559600    0.1500
26     C26     0.7154   -6.1723    0.9092 C.ar     1 ZINC000064559600   -0.1200
27     C27     1.5808   -5.2389    1.4486 C.ar     1 ZINC000064559600   -0.0600
28     C28     2.1313   -5.4476    2.6988 C.ar     1 ZINC000064559600   -0.1500
29     C29     1.8155   -6.5919    3.4115 C.ar     1 ZINC000064559600    0.1000
30     F30     2.3527   -6.7968    4.6340 F        1 ZINC000064559600   -0.1400
31     C31     0.9482   -7.5259    2.8704 C.ar     1 ZINC000064559600   -0.1600
32     C32     0.3952   -7.3127    1.6220 C.ar     1 ZINC000064559600   -0.0700
33     H33    -0.9665    3.1887    0.1573 H        1 ZINC000064559600    0.0600
34     H34    -2.5190    2.8285   -0.6353 H        1 ZINC000064559600    0.0400
35     H35    -2.3792    2.7257    1.1362 H        1 ZINC000064559600    0.0400
36     H36     0.7183   -3.0042   -0.3248 H        1 ZINC000064559600    0.1400
37     H37    -4.0592   -1.9441    0.0996 H        1 ZINC000064559600    0.1400
38     H38    -5.3239   -4.3501   -0.7021 H        1 ZINC000064559600    0.0800
39     H39    -5.0506   -6.0672   -0.3213 H        1 ZINC000064559600    0.0700
40     H40    -4.2107   -6.5993    1.7935 H        1 ZINC000064559600    0.0500
41     H41    -3.6620   -5.1598    2.7058 H        1 ZINC000064559600    0.0800
42     H42    -5.3095   -6.9372    3.9055 H        1 ZINC000064559600    0.0700
43     H43    -5.6101   -5.1808    4.1266 H        1 ZINC000064559600    0.0800
44     H44    -6.9608   -7.1165    2.1619 H        1 ZINC000064559600    0.0800
45     H45    -7.7293   -5.8914    3.2236 H        1 ZINC000064559600    0.0800
46     H46    -8.4256   -3.9589   -0.1539 H        1 ZINC000064559600    0.4100
47     H47    -8.5176   -5.1552   -1.3300 H        1 ZINC000064559600    0.4000
48     H48    -2.5787   -6.8415   -0.3073 H        1 ZINC000064559600    0.1600
49     H49    -0.0748   -6.9039   -0.9333 H        1 ZINC000064559600    0.1000
50     H50     0.8097   -5.3648   -1.0640 H        1 ZINC000064559600    0.1000
51     H51     1.8271   -4.3464    0.8925 H        1 ZINC000064559600    0.1400
52     H52     2.8080   -4.7186    3.1197 H        1 ZINC000064559600    0.1400
53     H53     0.7014   -8.4190    3.4253 H        1 ZINC000064559600    0.1300
54     H54    -0.2816   -8.0409    1.1999 H        1 ZINC000064559600    0.1300
@<TRIPOS>BOND
1     1     2     1
2     1     33    1
3     1     34    1
4     1     35    1
5     2     3     1
6     2     4     am
7     4     5     2
8     4     6     1
9     6     11    ar
10    6     7     ar
11    7     8     ar
12    8     9     ar
13    8     36    1
14    9     24    1
15    9     10    ar
16    10    11    ar
17    10    12    1
18    11    37    1
19    12    13    1
20    12    23    2
21    13    14    1
22    13    38    1
23    13    39    1
24    14    18    1
25    14    15    1
26    15    16    1
27    15    40    1
28    15    41    1
29    16    17    1
30    16    42    1
31    16    43    1
32    17    18    1
33    17    44    1
34    17    45    1
35    18    19    1
36    18    20    1
37    20    21    am
38    20    22    2
39    21    46    1
40    21    47    1
41    23    24    1
42    23    48    1
43    24    25    1
44    25    26    1
45    25    49    1
46    25    50    1
47    26    32    ar
48    26    27    ar
49    27    28    ar
50    27    51    1
51    28    29    ar
52    28    52    1
53    29    30    1
54    29    31    ar
55    31    32    ar
56    31    53    1
57    32    54    1
@<TRIPOS>SUBSTRUCTURE
1   ZINC000064559600 1     RESIDUE    1   A     ZIN   1
