@<TRIPOS>MOLECULE
ZINC000004245630
61    62    1     0     0
SMALL
USER_CHARGES
@<TRIPOS>ATOM
1      C1     -0.2076    1.6349   -0.2357 C.3      1 ZINC000004245630   -0.1500
2      C2     -0.1244    0.1086   -0.1702 C.3      1 ZINC000004245630   -0.1300
3      C3      0.5851   -0.4176   -1.4195 C.3      1 ZINC000004245630   -0.1100
4      C4      0.6683   -1.9439   -1.3539 C.3      1 ZINC000004245630   -0.0900
5      H5      1.1372   -2.2571   -0.4211 H        1 ZINC000004245630    0.0800
6      C6      1.4591   -2.4897   -2.5607 C.3      1 ZINC000004245630   -0.1100
7      C7      0.4624   -3.3934   -3.3179 C.3      1 ZINC000004245630    0.0400
8      H8     -0.0210   -2.8369   -4.1208 H        1 ZINC000004245630    0.0700
9      C9      1.1670   -4.6056   -3.8702 C.2      1 ZINC000004245630    0.5300
10     O10     1.0946   -5.6669   -3.2878 O.2      1 ZINC000004245630   -0.5000
11     N11     1.8777   -4.5102   -5.0114 N.am     1 ZINC000004245630   -0.7200
12     C12     2.5627   -5.6887   -5.5484 C.3      1 ZINC000004245630    0.0900
13     H13     1.9660   -6.5786   -5.3478 H        1 ZINC000004245630    0.1300
14     C14     3.9317   -5.8313   -4.8803 C.3      1 ZINC000004245630    0.1000
15     H15     4.5612   -4.9858   -5.1577 H        1 ZINC000004245630    0.0500
16     C16     3.7571   -5.8603   -3.3606 C.3      1 ZINC000004245630   -0.1400
17     O17     4.5482   -7.0460   -5.3122 O.3      1 ZINC000004245630   -0.5600
18     C18     2.7465   -5.5276   -7.0587 C.3      1 ZINC000004245630    0.0900
19     H19     3.4402   -4.7102   -7.2554 H        1 ZINC000004245630    0.1100
20     O20     3.2698   -6.7391   -7.6070 O.3      1 ZINC000004245630   -0.3400
21     C21     2.4463   -7.8851   -7.3816 C.3      1 ZINC000004245630    0.0800
22     H22     2.3114   -8.0306   -6.3098 H        1 ZINC000004245630    0.1000
23     S23     3.2409   -9.3510   -8.0959 S.3      1 ZINC000004245630   -0.2200
24     C24     4.6637   -9.6174   -7.0027 C.3      1 ZINC000004245630   -0.1200
25     C25     1.0826   -7.6698   -8.0432 C.3      1 ZINC000004245630    0.0700
26     H26     0.4379   -8.5237   -7.8351 H        1 ZINC000004245630    0.0700
27     O27     1.2532   -7.5332   -9.4554 O.3      1 ZINC000004245630   -0.5300
28     C28     0.4447   -6.3970   -7.4779 C.3      1 ZINC000004245630    0.0800
29     H29    -0.5013   -6.2071   -7.9849 H        1 ZINC000004245630    0.0800
30     O30     0.2122   -6.5603   -6.0774 O.3      1 ZINC000004245630   -0.5300
31     C31     1.3949   -5.2174   -7.7074 C.3      1 ZINC000004245630    0.1000
32     H32     0.9735   -4.3177   -7.2590 H        1 ZINC000004245630    0.0700
33     O33     1.5728   -5.0134   -9.1105 O.3      1 ZINC000004245630   -0.5300
34     N34    -0.5344   -3.7933   -2.2915 N.3      1 ZINC000004245630   -0.4900
35     C35    -1.7903   -4.2270   -2.9183 C.3      1 ZINC000004245630    0.0200
36     C36    -0.7399   -2.5636   -1.4807 C.3      1 ZINC000004245630    0.0400
37     H37     0.7982    2.0519   -0.2851 H        1 ZINC000004245630    0.0500
38     H38    -0.7674    1.9305   -1.1231 H        1 ZINC000004245630    0.0500
39     H39    -0.7131    2.0098    0.6543 H        1 ZINC000004245630    0.0500
40     H40     0.4354   -0.1870    0.7172 H        1 ZINC000004245630    0.0600
41     H41    -1.1303   -0.3083   -0.1208 H        1 ZINC000004245630    0.0600
42     H42     0.0253   -0.1220   -2.3068 H        1 ZINC000004245630    0.0600
43     H43     1.5910   -0.0006   -1.4688 H        1 ZINC000004245630    0.0700
44     H44     1.7879   -1.6702   -3.1998 H        1 ZINC000004245630    0.0800
45     H45     2.3151   -3.0723   -2.2203 H        1 ZINC000004245630    0.0800
46     H46     1.9356   -3.6614   -5.4772 H        1 ZINC000004245630    0.3900
47     H47     3.1276   -6.7058   -3.0833 H        1 ZINC000004245630    0.0700
48     H48     4.7324   -5.9619   -2.8847 H        1 ZINC000004245630    0.0500
49     H49     3.2868   -4.9338   -3.0312 H        1 ZINC000004245630    0.0700
50     H50     4.7971   -7.0502   -6.2466 H        1 ZINC000004245630    0.3800
51     H51     4.3130   -9.7853   -5.9844 H        1 ZINC000004245630    0.0900
52     H52     5.2246  -10.4883   -7.3420 H        1 ZINC000004245630    0.1000
53     H53     5.3084   -8.7388   -7.0247 H        1 ZINC000004245630    0.0800
54     H54     1.6570   -8.3030   -9.8791 H        1 ZINC000004245630    0.3800
55     H55    -0.3774   -7.2951   -5.8597 H        1 ZINC000004245630    0.3800
56     H56     0.7542   -4.8166   -9.5862 H        1 ZINC000004245630    0.3800
57     H57    -1.5962   -5.0802   -3.5682 H        1 ZINC000004245630    0.0700
58     H58    -2.5023   -4.5141   -2.1445 H        1 ZINC000004245630    0.0700
59     H59    -2.2041   -3.4084   -3.5071 H        1 ZINC000004245630    0.0300
60     H60    -1.1358   -2.8183   -0.4975 H        1 ZINC000004245630    0.0900
61     H61    -1.4114   -1.8766   -1.9955 H        1 ZINC000004245630    0.0500
@<TRIPOS>BOND
1     1     2     1
2     1     37    1
3     1     38    1
4     1     39    1
5     2     3     1
6     2     40    1
7     2     41    1
8     3     4     1
9     3     42    1
10    3     43    1
11    4     5     1
12    4     36    1
13    4     6     1
14    6     7     1
15    6     44    1
16    6     45    1
17    7     8     1
18    7     9     1
19    7     34    1
20    9     10    2
21    9     11    am
22    11    12    1
23    11    46    1
24    12    13    1
25    12    14    1
26    12    18    1
27    14    15    1
28    14    16    1
29    14    17    1
30    16    47    1
31    16    48    1
32    16    49    1
33    17    50    1
34    18    19    1
35    18    31    1
36    18    20    1
37    20    21    1
38    21    22    1
39    21    23    1
40    21    25    1
41    23    24    1
42    24    51    1
43    24    52    1
44    24    53    1
45    25    26    1
46    25    27    1
47    25    28    1
48    27    54    1
49    28    29    1
50    28    30    1
51    28    31    1
52    30    55    1
53    31    32    1
54    31    33    1
55    33    56    1
56    34    35    1
57    34    36    1
58    35    57    1
59    35    58    1
60    35    59    1
61    36    60    1
62    36    61    1
@<TRIPOS>SUBSTRUCTURE
1   ZINC000004245630 1     RESIDUE    1   A     ZIN   1
