@<TRIPOS>MOLECULE
ZINC000000579000
50    53    1     0     0
SMALL
USER_CHARGES
@<TRIPOS>ATOM
1      C1     -0.0184    1.5028    0.0103 C.3      1 ZINC000000579000   -0.1100
2      C2      0.0021   -0.0041    0.0020 C.ar     1 ZINC000000579000   -0.0900
3      C3      0.0057   -0.6859   -1.2023 C.ar     1 ZINC000000579000   -0.1200
4      C4      0.0243   -2.0646   -1.2181 C.ar     1 ZINC000000579000   -0.1000
5      C5      0.0396   -2.7737   -0.0132 C.ar     1 ZINC000000579000    0.0300
6      C6      0.0595   -4.2056   -0.0211 C.1      1 ZINC000000579000   -0.1600
7      C7      0.0758   -5.3794   -0.0276 C.1      1 ZINC000000579000   -0.0400
8      C8      0.0957   -6.8113   -0.0355 C.2      1 ZINC000000579000   -0.1400
9      C9      0.1075   -7.5942   -1.1524 C.2      1 ZINC000000579000   -0.1000
10     C10     0.1261   -8.9476   -0.8983 C.2      1 ZINC000000579000   -0.0600
11     C11     0.1297   -9.2841    0.3958 C.2      1 ZINC000000579000   -0.6400
12     S12     0.1527  -10.9352    1.0107 S.o2     1 ZINC000000579000    2.5500
13     O13    -0.3937  -10.8829    2.3214 O.2      1 ZINC000000579000   -1.0700
14     O14    -0.3792  -11.7550   -0.0209 O.2      1 ZINC000000579000   -0.9800
15     N15     1.7407  -11.3720    1.1832 N.pl3    1 ZINC000000579000   -1.1200
16     C16     2.0834  -12.7061    1.6820 C.3      1 ZINC000000579000    0.1200
17     H17     1.6637  -12.8401    2.6790 H        1 ZINC000000579000   -0.0100
18     C18     3.6052  -12.8515    1.7456 C.3      1 ZINC000000579000    0.0000
19     C19     4.1595  -11.8901    2.7651 C.2      1 ZINC000000579000   -0.1000
20     C20     4.6383  -10.6593    2.5245 C.2      1 ZINC000000579000    0.0400
21     N21     5.0538  -10.0834    3.6940 N.pl3    1 ZINC000000579000   -0.6000
22     C22     4.8473  -10.9516    4.7426 C.ar     1 ZINC000000579000    0.0900
23     C23     5.0843  -10.8742    6.1109 C.ar     1 ZINC000000579000   -0.1400
24     C24     4.7605  -11.9393    6.9229 C.ar     1 ZINC000000579000   -0.1100
25     C25     4.1992  -13.0910    6.3894 C.ar     1 ZINC000000579000   -0.1700
26     C26     3.9577  -13.1885    5.0478 C.ar     1 ZINC000000579000   -0.0600
27     C27     4.2721  -12.1190    4.2076 C.ar     1 ZINC000000579000   -0.1000
28     C28     1.5174  -13.7500    0.7542 C.2      1 ZINC000000579000    0.4500
29     O29     1.0472  -13.4195   -0.3211 O.co2    1 ZINC000000579000   -0.6500
30     O30     1.5296  -14.9252    1.0788 O.co2    1 ZINC000000579000   -0.7500
31     S31     0.1165   -7.8365    1.3936 S.3      1 ZINC000000579000    0.2200
32     C32     0.0359   -2.0778    1.1994 C.ar     1 ZINC000000579000   -0.1000
33     C33     0.0229   -0.6989    1.1988 C.ar     1 ZINC000000579000   -0.1200
34     H34     1.0042    1.8801    0.0026 H        1 ZINC000000579000    0.0700
35     H35    -0.5455    1.8639   -0.8728 H        1 ZINC000000579000    0.0700
36     H36    -0.5286    1.8543    0.9071 H        1 ZINC000000579000    0.0700
37     H37    -0.0066   -0.1367   -2.1322 H        1 ZINC000000579000    0.1200
38     H38     0.0267   -2.5953   -2.1587 H        1 ZINC000000579000    0.1300
39     H39     0.1023   -7.1867   -2.1526 H        1 ZINC000000579000    0.1400
40     H40     0.1366   -9.6845   -1.6877 H        1 ZINC000000579000    0.1600
41     H41     3.8611  -13.8717    2.0314 H        1 ZINC000000579000    0.0500
42     H42     4.0324  -12.6302    0.7675 H        1 ZINC000000579000    0.0600
43     H43     4.6885  -10.1929    1.5517 H        1 ZINC000000579000    0.1700
44     H44     5.4369   -9.1957    3.7727 H        1 ZINC000000579000    0.4000
45     H45     5.5211   -9.9823    6.5355 H        1 ZINC000000579000    0.1100
46     H46     4.9457  -11.8774    7.9851 H        1 ZINC000000579000    0.1100
47     H47     3.9515  -13.9170    7.0397 H        1 ZINC000000579000    0.1100
48     H48     3.5206  -14.0878    4.6398 H        1 ZINC000000579000    0.1200
49     H49     0.0477   -2.6187    2.1341 H        1 ZINC000000579000    0.1300
50     H50     0.0203   -0.1598    2.1346 H        1 ZINC000000579000    0.1300
@<TRIPOS>BOND
1     1     2     1
2     1     34    1
3     1     35    1
4     1     36    1
5     2     33    ar
6     2     3     ar
7     3     4     ar
8     3     37    1
9     4     5     ar
10    4     38    1
11    5     6     1
12    5     32    ar
13    6     7     3
14    7     8     1
15    8     31    1
16    8     9     2
17    9     10    1
18    9     39    1
19    10    11    2
20    10    40    1
21    11    12    1
22    11    31    1
23    12    13    2
24    12    14    2
25    12    15    1
26    15    16    1
27    16    17    1
28    16    18    1
29    16    28    1
30    18    19    1
31    18    41    1
32    18    42    1
33    19    27    1
34    19    20    2
35    20    21    1
36    20    43    1
37    21    22    1
38    21    44    1
39    22    27    ar
40    22    23    ar
41    23    24    ar
42    23    45    1
43    24    25    ar
44    24    46    1
45    25    26    ar
46    25    47    1
47    26    27    ar
48    26    48    1
49    28    29    ar
50    28    30    ar
51    32    33    ar
52    32    49    1
53    33    50    1
@<TRIPOS>SUBSTRUCTURE
1   ZINC000000579000 1     RESIDUE    1   A     ZIN   1
