@<TRIPOS>MOLECULE
ZINC000003807298
73    76    1     0     0
SMALL
USER_CHARGES
@<TRIPOS>ATOM
1      N1     -0.0160    1.3277    0.0093 N.pl3    1 ZINC000003807298   -0.7900
2      C2      0.0021   -0.0041    0.0020 C.cat    1 ZINC000003807298    0.7500
3      N3      1.1645   -0.6543   -0.0126 N.pl3    1 ZINC000003807298   -0.7900
4      H4      1.9978   -0.1579   -0.0179 H        1 ZINC000003807298    0.4400
5      H5      1.1776   -1.6242   -0.0179 H        1 ZINC000003807298    0.4400
6      N6     -1.1731   -0.7040    0.0095 N.pl3    1 ZINC000003807298   -0.6100
7      C7     -2.3410   -0.1982    0.7435 C.3      1 ZINC000003807298    0.1100
8      C8     -2.8380   -1.2923    1.6936 C.3      1 ZINC000003807298   -0.1300
9      C9     -3.1021   -2.5724    0.8974 C.3      1 ZINC000003807298   -0.1200
10     C10    -1.8003   -3.0499    0.2497 C.3      1 ZINC000003807298   -0.1100
11     H11    -1.0528   -3.2271    1.0230 H        1 ZINC000003807298    0.0900
12     C12    -2.0582   -4.3479   -0.5182 C.3      1 ZINC000003807298    0.1200
13     N13    -0.7910   -4.8680   -1.0377 N.am     1 ZINC000003807298   -0.7400
14     C14    -0.7737   -6.0109   -1.7517 C.2      1 ZINC000003807298    0.5100
15     O15    -1.8072   -6.6090   -1.9641 O.2      1 ZINC000003807298   -0.4900
16     C16     0.5299   -6.5459   -2.2861 C.3      1 ZINC000003807298   -0.1400
17     C17     0.2720   -7.8439   -3.0540 C.3      1 ZINC000003807298    0.1600
18     H18    -0.4747   -7.6660   -3.8279 H        1 ZINC000003807298    0.1200
19     N19    -0.2178   -8.8692   -2.1293 N.am     1 ZINC000003807298   -1.0900
20     S20    -1.3394   -9.9759   -2.6388 S.o2     1 ZINC000003807298    2.7000
21     O21    -1.5788  -10.8409   -1.5371 O.2      1 ZINC000003807298   -0.9700
22     O22    -2.3672   -9.2373   -3.2847 O.2      1 ZINC000003807298   -0.9400
23     C23    -0.5740  -10.9582   -3.8854 C.ar     1 ZINC000003807298   -0.6600
24     C24    -0.6537  -10.5597   -5.2182 C.ar     1 ZINC000003807298   -0.0500
25     C25    -0.0735  -11.2956   -6.2056 C.ar     1 ZINC000003807298   -0.0200
26     C26     0.6166  -12.4751   -5.8794 C.ar     1 ZINC000003807298    0.0000
27     C27     1.2288  -13.2608   -6.8710 C.ar     1 ZINC000003807298   -0.0900
28     C28     1.8891  -14.3970   -6.5175 C.ar     1 ZINC000003807298   -0.1100
29     C29     1.9686  -14.7956   -5.1843 C.ar     1 ZINC000003807298   -0.1300
30     C30     1.3883  -14.0602   -4.1972 C.ar     1 ZINC000003807298   -0.1000
31     C31     0.6976  -12.8805   -4.5235 C.ar     1 ZINC000003807298   -0.0700
32     C32     0.0909  -12.0920   -3.5314 C.ar     1 ZINC000003807298    0.0000
33     C33     1.5542   -8.3136   -3.6915 C.2      1 ZINC000003807298    0.5000
34     O34     2.2048   -9.1933   -3.1684 O.2      1 ZINC000003807298   -0.5200
35     N35     1.9779   -7.7560   -4.8431 N.am     1 ZINC000003807298   -0.5400
36     C36     3.2243   -8.2126   -5.4629 C.3      1 ZINC000003807298    0.0400
37     C37     2.9277   -9.3436   -6.4136 C.2      1 ZINC000003807298    0.4800
38     O38     1.7813   -9.7322   -6.5599 O.co2    1 ZINC000003807298   -0.6600
39     O39     3.8340   -9.8700   -7.0365 O.co2    1 ZINC000003807298   -0.7000
40     C40     1.1919   -6.6933   -5.4750 C.3      1 ZINC000003807298    0.0600
41     C41     1.8193   -5.9623   -6.6637 C.3      1 ZINC000003807298   -0.1900
42     C42     0.6705   -6.9470   -6.8909 C.3      1 ZINC000003807298   -0.1900
43     C43    -1.2932   -1.9729   -0.7214 C.3      1 ZINC000003807298    0.1100
44     H44     0.8174    1.8241    0.0041 H        1 ZINC000003807298    0.4400
45     H45    -0.8625    1.8013    0.0159 H        1 ZINC000003807298    0.4400
46     H46    -2.0577    0.6836    1.3180 H        1 ZINC000003807298    0.0900
47     H47    -3.1314    0.0606    0.0389 H        1 ZINC000003807298    0.1000
48     H48    -2.0808   -1.4860    2.4532 H        1 ZINC000003807298    0.0800
49     H49    -3.7605   -0.9657    2.1737 H        1 ZINC000003807298    0.1000
50     H50    -3.4792   -3.3453    1.5672 H        1 ZINC000003807298    0.0900
51     H51    -3.8413   -2.3718    0.1219 H        1 ZINC000003807298    0.0800
52     H52    -2.5057   -5.0830    0.1507 H        1 ZINC000003807298    0.0800
53     H53    -2.7373   -4.1506   -1.3476 H        1 ZINC000003807298    0.0800
54     H54     0.0357   -4.3897   -0.8678 H        1 ZINC000003807298    0.3900
55     H55     0.9774   -5.8108   -2.9550 H        1 ZINC000003807298    0.1100
56     H56     1.2090   -6.7433   -1.4566 H        1 ZINC000003807298    0.1100
57     H57     0.1150   -8.8999   -1.2187 H        1 ZINC000003807298    0.4200
58     H58    -1.1839   -9.6536   -5.4717 H        1 ZINC000003807298    0.1200
59     H59    -0.1438  -10.9746   -7.2344 H        1 ZINC000003807298    0.1300
60     H60     1.1751  -12.9645   -7.9082 H        1 ZINC000003807298    0.1300
61     H61     2.3583  -14.9991   -7.2816 H        1 ZINC000003807298    0.1200
62     H62     2.4985  -15.7019   -4.9309 H        1 ZINC000003807298    0.1200
63     H63     1.4578  -14.3817   -3.1685 H        1 ZINC000003807298    0.1200
64     H64     0.1485  -12.3860   -2.4938 H        1 ZINC000003807298    0.1300
65     H65     3.6811   -7.3881   -6.0103 H        1 ZINC000003807298    0.0700
66     H66     3.9094   -8.5587   -4.6890 H        1 ZINC000003807298    0.0800
67     H67     0.5606   -6.1124   -4.8027 H        1 ZINC000003807298    0.1200
68     H68     1.6008   -4.9001   -6.7736 H        1 ZINC000003807298    0.0900
69     H69     2.8167   -6.2720   -6.9756 H        1 ZINC000003807298    0.1000
70     H70     0.9122   -7.9045   -7.3522 H        1 ZINC000003807298    0.1300
71     H71    -0.3037   -6.5326   -7.1502 H        1 ZINC000003807298    0.0900
72     H72    -1.9992   -1.8614   -1.5443 H        1 ZINC000003807298    0.1100
73     H73    -0.3174   -2.2626   -1.1111 H        1 ZINC000003807298    0.0900
@<TRIPOS>BOND
1     1     2     ar
2     1     44    1
3     1     45    1
4     2     3     ar
5     2     6     ar
6     3     4     1
7     3     5     1
8     6     43    1
9     6     7     1
10    7     8     1
11    7     46    1
12    7     47    1
13    8     9     1
14    8     48    1
15    8     49    1
16    9     10    1
17    9     50    1
18    9     51    1
19    10    11    1
20    10    12    1
21    10    43    1
22    12    13    1
23    12    52    1
24    12    53    1
25    13    14    am
26    13    54    1
27    14    15    2
28    14    16    1
29    16    17    1
30    16    55    1
31    16    56    1
32    17    18    1
33    17    19    1
34    17    33    1
35    19    20    am
36    19    57    1
37    20    21    2
38    20    22    2
39    20    23    1
40    23    32    ar
41    23    24    ar
42    24    25    ar
43    24    58    1
44    25    26    ar
45    25    59    1
46    26    31    ar
47    26    27    ar
48    27    28    ar
49    27    60    1
50    28    29    ar
51    28    61    1
52    29    30    ar
53    29    62    1
54    30    31    ar
55    30    63    1
56    31    32    ar
57    32    64    1
58    33    34    2
59    33    35    am
60    35    36    1
61    35    40    1
62    36    37    1
63    36    65    1
64    36    66    1
65    37    38    ar
66    37    39    ar
67    40    42    1
68    40    41    1
69    40    67    1
70    41    42    1
71    41    68    1
72    41    69    1
73    42    70    1
74    42    71    1
75    43    72    1
76    43    73    1
@<TRIPOS>SUBSTRUCTURE
1   ZINC000003807298 1     RESIDUE    1   A     ZIN   1
