@<TRIPOS>MOLECULE
ZINC000056898757
  50   53    0    0    0
SMALL
USER_CHARGES
NO_NAME
@<TRIPOS>ATOM
    1 N1        1.1935    -0.6840    -2.6829 N.1    1 <0>      -0.4100
    2 C2        1.0475     0.4013    -2.3806 C.1    1 <0>       0.2700
    3 C3        0.8635     1.7693    -1.9996 C.2    1 <0>      -0.1200
    4 C4        0.0162     2.6694    -2.5728 C.2    1 <0>       0.1400
    5 N5        0.1210     3.8655    -1.9376 N.pl3  1 <0>      -0.5700
    6 C6        1.0435     3.7909    -0.9226 C.ar   1 <0>       0.1400
    7 C7        1.5170     4.7218     0.0168 C.ar   1 <0>      -0.1600
    8 C8        0.9958     6.1018     0.0216 C.2    1 <0>       0.5800
    9 O9       -0.2011     6.2999    -0.0601 O.2    1 <0>      -0.5100
   10 N10       1.8462     7.1431     0.1166 N.am   1 <0>      -0.6300
   11 C11       3.3023     6.9354     0.0895 C.3    1 <0>       0.0800
   12 C12       3.9092     7.8852    -0.9485 C.3    1 <0>      -0.0200
   13 N13       3.4990     9.2628    -0.6487 N.4    1 <0>      -0.3800
   14 H14       3.7624     9.4925     0.2978 H      1 <0>       0.4200
   15 C15       4.1669    10.1839    -1.5781 C.3    1 <0>      -0.0100
   16 C16       3.8393    11.6270    -1.1894 C.3    1 <0>      -0.1000
   17 C17       4.5245    12.5718    -2.1428 C.ar   1 <0>      -0.1200
   18 C18       5.8010    13.0257    -1.8674 C.ar   1 <0>      -0.0800
   19 C19       6.4303    13.8922    -2.7409 C.ar   1 <0>      -0.1500
   20 C20       5.7820    14.3053    -3.8925 C.ar   1 <0>       0.1200
   21 F21       6.3964    15.1520    -4.7474 F      1 <0>      -0.1300
   22 C22       4.5038    13.8497    -4.1675 C.ar   1 <0>      -0.1500
   23 C23       3.8783    12.9795    -3.2949 C.ar   1 <0>      -0.0800
   24 C24       2.0440     9.3946    -0.7957 C.3    1 <0>      -0.0200
   25 C25       1.3447     8.5202     0.2441 C.3    1 <0>       0.0900
   26 C26       2.4820     4.3336     0.9444 C.ar   1 <0>      -0.0600
   27 C27       2.9742     3.0417     0.9447 C.ar   1 <0>      -0.1400
   28 C28       2.5172     2.1174     0.0270 C.ar   1 <0>      -0.0300
   29 C29       1.5490     2.4814    -0.9048 C.ar   1 <0>      -0.0700
   30 H30      -0.6393     2.4631    -3.4060 H      1 <0>       0.1900
   31 H31      -0.3844     4.6606    -2.1684 H      1 <0>       0.4300
   32 H32       3.7214     7.1508     1.0724 H      1 <0>       0.1000
   33 H33       3.5200     5.9036    -0.1866 H      1 <0>       0.1400
   34 H34       4.9963     7.8141    -0.9144 H      1 <0>       0.1500
   35 H35       3.5578     7.6095    -1.9428 H      1 <0>       0.1300
   36 H36       5.2450    10.0303    -1.5298 H      1 <0>       0.1400
   37 H37       3.8178     9.9927    -2.5928 H      1 <0>       0.1300
   38 H38       2.7613    11.7805    -1.2377 H      1 <0>       0.1000
   39 H39       4.1885    11.8182    -0.1747 H      1 <0>       0.1000
   40 H40       6.3064    12.7033    -0.9691 H      1 <0>       0.1400
   41 H41       7.4272    14.2472    -2.5252 H      1 <0>       0.1400
   42 H42       3.9971    14.1715    -5.0653 H      1 <0>       0.1400
   43 H43       2.8814    12.6237    -3.5094 H      1 <0>       0.1300
   44 H44       1.7567    10.4358    -0.6492 H      1 <0>       0.1500
   45 H45       1.7490     9.0733    -1.7947 H      1 <0>       0.1300
   46 H46       0.2684     8.5370     0.0726 H      1 <0>       0.1400
   47 H47       1.5650     8.8932     1.2443 H      1 <0>       0.1000
   48 H48       2.8480     5.0470     1.6679 H      1 <0>       0.1400
   49 H49       3.7223     2.7535     1.6684 H      1 <0>       0.1400
   50 H50       2.9075     1.1104     0.0347 H      1 <0>       0.1400
@<TRIPOS>BOND
   1    1    2 3
   2    2    3 1
   3    3   29 1
   4    3    4 2
   5    4    5 1
   6    4   30 1
   7    5    6 1
   8    5   31 1
   9    6   29 ar
  10    6    7 ar
  11    7    8 1
  12    7   26 ar
  13    8    9 2
  14    8   10 am
  15   10   25 1
  16   10   11 1
  17   11   12 1
  18   11   32 1
  19   11   33 1
  20   12   13 1
  21   12   34 1
  22   12   35 1
  23   13   14 1
  24   13   15 1
  25   13   24 1
  26   15   16 1
  27   15   36 1
  28   15   37 1
  29   16   17 1
  30   16   38 1
  31   16   39 1
  32   17   23 ar
  33   17   18 ar
  34   18   19 ar
  35   18   40 1
  36   19   20 ar
  37   19   41 1
  38   20   21 1
  39   20   22 ar
  40   22   23 ar
  41   22   42 1
  42   23   43 1
  43   24   25 1
  44   24   44 1
  45   24   45 1
  46   25   46 1
  47   25   47 1
  48   26   27 ar
  49   26   48 1
  50   27   28 ar
  51   27   49 1
  52   28   29 ar
  53   28   50 1
