@<TRIPOS>MOLECULE
ZINC000000000130
  34   34    0    0    0
SMALL
USER_CHARGES
NO_NAME
@<TRIPOS>ATOM
    1 C1       -0.0178     1.4648     0.0101 C.3    1 <0>      -0.0600
    2 N2        0.0021    -0.0041     0.0020 N.4    1 <0>      -0.3800
    3 H3        0.4744    -0.3295    -0.8281 H      1 <0>       0.4300
    4 C4        0.7126    -0.4907     1.1921 C.3    1 <0>      -0.0600
    5 C5       -1.3761    -0.5125     0.0124 C.3    1 <0>       0.0700
    6 C6       -2.0922    -0.0191     1.2713 C.3    1 <0>      -0.1800
    7 C7       -2.1161    -0.0057    -1.2271 C.3    1 <0>       0.0500
    8 O8       -1.4472    -0.4665    -2.4028 O.3    1 <0>      -0.5800
    9 C9       -1.3553    -2.0424     0.0040 C.3    1 <0>      -0.0900
   10 C10      -2.7691    -2.5640     0.0147 C.ar   1 <0>      -0.0900
   11 C11      -3.4077    -2.8041     1.2169 C.ar   1 <0>      -0.1000
   12 C12      -4.7046    -3.2827     1.2281 C.ar   1 <0>      -0.0900
   13 C13      -5.3640    -3.5214     0.0360 C.ar   1 <0>      -0.0200
   14 Cl14     -6.9928    -4.1217     0.0495 Cl     1 <0>      -0.0300
   15 C15      -4.7242    -3.2807    -1.1684 C.ar   1 <0>      -0.0300
   16 Cl16     -5.5505    -3.5798    -2.6656 Cl     1 <0>      -0.0300
   17 C17      -3.4287    -2.7967    -1.1778 C.ar   1 <0>      -0.0900
   18 H18       1.0047     1.8421     0.0024 H      1 <0>       0.1300
   19 H19      -0.5450     1.8259    -0.8730 H      1 <0>       0.1200
   20 H20      -0.5280     1.8163     0.9069 H      1 <0>       0.1200
   21 H21       0.7274    -1.5806     1.1861 H      1 <0>       0.1300
   22 H22       1.7352    -0.1134     1.1844 H      1 <0>       0.1300
   23 H23       0.2024    -0.1392     2.0889 H      1 <0>       0.1300
   24 H24      -2.1070     1.0708     1.2772 H      1 <0>       0.0900
   25 H25      -3.1148    -0.3964     1.2790 H      1 <0>       0.1100
   26 H26      -1.5650    -0.3802     2.1543 H      1 <0>       0.0900
   27 H27      -3.1387    -0.3830    -1.2193 H      1 <0>       0.0900
   28 H28      -2.1309     1.0842    -1.2211 H      1 <0>       0.0800
   29 H29      -1.8625    -0.1823    -3.2285 H      1 <0>       0.4100
   30 H30      -0.8451    -2.3939    -0.8928 H      1 <0>       0.1100
   31 H31      -0.8281    -2.4035     0.8871 H      1 <0>       0.1000
   32 H32      -2.8930    -2.6182     2.1479 H      1 <0>       0.1400
   33 H33      -5.2028    -3.4704     2.1677 H      1 <0>       0.1500
   34 H34      -2.9293    -2.6085    -2.1167 H      1 <0>       0.1500
@<TRIPOS>BOND
   1    1    2 1
   2    1   18 1
   3    1   19 1
   4    1   20 1
   5    2    3 1
   6    2    4 1
   7    2    5 1
   8    4   21 1
   9    4   22 1
  10    4   23 1
  11    5    6 1
  12    5    7 1
  13    5    9 1
  14    6   24 1
  15    6   25 1
  16    6   26 1
  17    7    8 1
  18    7   27 1
  19    7   28 1
  20    8   29 1
  21    9   10 1
  22    9   30 1
  23    9   31 1
  24   10   17 ar
  25   10   11 ar
  26   11   12 ar
  27   11   32 1
  28   12   13 ar
  29   12   33 1
  30   13   14 1
  31   13   15 ar
  32   15   16 1
  33   15   17 ar
  34   17   34 1
