@<TRIPOS>MOLECULE
ZINC000003781686
  30   31    0    0    0
SMALL
USER_CHARGES
NO_NAME
@<TRIPOS>ATOM
    1 N1       -0.0156     1.2981     0.0092 N.2    1 <0>      -0.7300
    2 C2        0.0021    -0.0041     0.0020 C.2    1 <0>       0.5000
    3 N3        1.2046    -0.6767    -0.0131 N.pl3  1 <0>      -0.8800
    4 C4       -1.2704    -0.7620     0.0101 C.2    1 <0>       0.2600
    5 N5       -2.4764    -0.2359     0.0191 N.2    1 <0>      -0.2400
    6 N6       -3.3839    -1.3078     0.0238 N.pl3  1 <0>      -0.3700
    7 C7       -4.8461    -1.2181     0.0335 C.3    1 <0>       0.3300
    8 H8       -5.2898    -2.2107     0.1113 H      1 <0>       0.1400
    9 O9       -5.3218    -0.5398    -1.1489 O.3    1 <0>      -0.3400
   10 C10      -6.6375    -0.0451    -0.8483 C.3    1 <0>       0.0900
   11 H11      -7.3870    -0.7736    -1.1576 H      1 <0>       0.1000
   12 C12      -6.8724     1.2820    -1.5724 C.3    1 <0>       0.0800
   13 O13      -6.9037     1.0560    -2.9830 O.3    1 <0>      -0.5600
   14 C14      -6.7102     0.1662     0.6764 C.3    1 <0>       0.0500
   15 H15      -6.8624     1.2202     0.9087 H      1 <0>       0.0900
   16 O16      -7.7569    -0.6255     1.2418 O.3    1 <0>      -0.5400
   17 C17      -5.3297    -0.3117     1.1941 C.3    1 <0>       0.0400
   18 H18      -4.6532     0.5316     1.3332 H      1 <0>       0.1000
   19 O19      -5.4692    -1.0558     2.4061 O.3    1 <0>      -0.5400
   20 C20      -2.6459    -2.4341     0.0171 C.2    1 <0>       0.2800
   21 N21      -1.3844    -2.0979     0.0035 N.2    1 <0>      -0.5300
   22 H22       0.8178     1.7945     0.0039 H      1 <0>       0.3400
   23 H23       2.0379    -0.1803    -0.0184 H      1 <0>       0.4000
   24 H24       1.2177    -1.6466    -0.0184 H      1 <0>       0.4000
   25 H25      -7.8231     1.7077    -1.2515 H      1 <0>       0.0700
   26 H26      -6.0651     1.9743    -1.3332 H      1 <0>       0.0600
   27 H27      -7.0493     1.8559    -3.5064 H      1 <0>       0.3900
   28 H28      -7.8476    -0.5312     2.1999 H      1 <0>       0.3900
   29 H29      -5.8531    -0.5506     3.1358 H      1 <0>       0.3900
   30 H30      -3.0315    -3.4429     0.0182 H      1 <0>       0.2300
@<TRIPOS>BOND
   1    1    2 2
   2    1   22 1
   3    2    3 1
   4    2    4 1
   5    3   23 1
   6    3   24 1
   7    4   21 1
   8    4    5 2
   9    5    6 1
  10    6    7 1
  11    6   20 1
  12    7    8 1
  13    7   17 1
  14    7    9 1
  15    9   10 1
  16   10   11 1
  17   10   12 1
  18   10   14 1
  19   12   13 1
  20   12   25 1
  21   12   26 1
  22   13   27 1
  23   14   15 1
  24   14   16 1
  25   14   17 1
  26   16   28 1
  27   17   18 1
  28   17   19 1
  29   19   29 1
  30   20   21 2
  31   20   30 1
