@<TRIPOS>MOLECULE
ZINC000022453472
64    67    1     0     0
SMALL
USER_CHARGES
@<TRIPOS>ATOM
1      C1      0.0751    0.8518    1.7390 C.2      1 ZINC000022453472   -0.0800
2      C2      0.0433   -0.2765    1.0352 C.2      1 ZINC000022453472   -0.2200
3      C3     -1.2209   -1.0118    0.8813 C.2      1 ZINC000022453472    0.5500
4      O4     -2.2375   -0.5882    1.3976 O.2      1 ZINC000022453472   -0.5300
5      N5     -1.2531   -2.1550    0.1682 N.am     1 ZINC000022453472   -0.6600
6      C6     -2.4301   -2.9043    0.1026 C.ar     1 ZINC000022453472    0.1500
7      C7     -2.3617   -4.3108    0.0296 C.ar     1 ZINC000022453472    0.0500
8      C8     -1.0858   -4.9610    0.0238 C.1      1 ZINC000022453472   -0.1500
9      C9     -0.0398   -5.4940    0.0190 C.1      1 ZINC000022453472   -0.1500
10     C10     1.2718   -6.1623    0.0129 C.3      1 ZINC000022453472    0.2200
11     C11     1.0720   -7.6769   -0.0717 C.3      1 ZINC000022453472   -0.1400
12     C12     2.0812   -5.6863   -1.1950 C.3      1 ZINC000022453472   -0.1400
13     N13     1.9953   -5.8321    1.2480 N.3      1 ZINC000022453472   -0.5200
14     C14     1.2905   -6.3546    2.4270 C.3      1 ZINC000022453472    0.0500
15     C15     2.1143   -6.0599    3.6827 C.3      1 ZINC000022453472    0.0600
16     N16     2.3248   -4.6101    3.7982 N.3      1 ZINC000022453472   -0.5500
17     C17     3.0483   -4.2799    5.0333 C.3      1 ZINC000022453472    0.0200
18     C18     3.0296   -4.0875    2.6193 C.3      1 ZINC000022453472    0.0600
19     C19     2.2057   -4.3823    1.3635 C.3      1 ZINC000022453472    0.0500
20     C20    -3.5201   -5.0687   -0.0360 C.ar     1 ZINC000022453472   -0.0600
21     C21    -4.7649   -4.4306   -0.0296 C.ar     1 ZINC000022453472    0.1800
22     N22    -5.9132   -5.1244   -0.0911 N.ar     1 ZINC000022453472   -0.5400
23     C23    -7.0678   -4.5025   -0.0832 C.ar     1 ZINC000022453472    0.3400
24     N24    -7.1756   -3.1849   -0.0160 N.ar     1 ZINC000022453472   -0.5800
25     C25    -6.1053   -2.4043    0.0485 C.ar     1 ZINC000022453472    0.4700
26     N26    -6.2328   -1.0319    0.1187 N.pl3    1 ZINC000022453472   -0.6300
27     C27    -7.5008   -0.4522    0.2334 C.ar     1 ZINC000022453472    0.1600
28     C28    -7.7564    0.7818   -0.3499 C.ar     1 ZINC000022453472   -0.1100
29     C29    -9.0091    1.3530   -0.2357 C.ar     1 ZINC000022453472   -0.1200
30     C30   -10.0098    0.6965    0.4598 C.ar     1 ZINC000022453472    0.0900
31     F31   -11.2341    1.2568    0.5698 F        1 ZINC000022453472   -0.1300
32     C32    -9.7574   -0.5353    1.0430 C.ar     1 ZINC000022453472   -0.0500
33     Cl33  -11.0144   -1.3567    1.9142 Cl       1 ZINC000022453472   -0.0400
34     C34    -8.5073   -1.1127    0.9261 C.ar     1 ZINC000022453472   -0.0800
35     C35    -4.8278   -3.0165    0.0438 C.ar     1 ZINC000022453472   -0.1700
36     C36    -3.6499   -2.2645    0.1153 C.ar     1 ZINC000022453472   -0.0800
37     H37     1.0036    1.3918    1.8520 H        1 ZINC000022453472    0.1200
38     H38    -0.8284    1.2302    2.1937 H        1 ZINC000022453472    0.1200
39     H39     0.9460   -0.6526    0.5767 H        1 ZINC000022453472    0.1300
40     H40    -0.4590   -2.4574   -0.2995 H        1 ZINC000022453472    0.4200
41     H41     0.5352   -7.9219   -0.9882 H        1 ZINC000022453472    0.0700
42     H42     2.0432   -8.1717   -0.0762 H        1 ZINC000022453472    0.0800
43     H43     0.4954   -8.0160    0.7889 H        1 ZINC000022453472    0.0600
44     H44     2.2235   -4.6073   -1.1347 H        1 ZINC000022453472    0.0600
45     H45     3.0523   -6.1812   -1.1995 H        1 ZINC000022453472    0.0800
46     H46     1.5443   -5.9313   -2.1115 H        1 ZINC000022453472    0.0700
47     H47     0.3157   -5.8741    2.5105 H        1 ZINC000022453472    0.0500
48     H48     1.1578   -7.4316    2.3236 H        1 ZINC000022453472    0.0900
49     H49     1.5798   -6.4209    4.5614 H        1 ZINC000022453472    0.0800
50     H50     3.0787   -6.5628    3.6113 H        1 ZINC000022453472    0.0400
51     H51     4.0195   -4.7747    5.0288 H        1 ZINC000022453472    0.0300
52     H52     3.1906   -3.2009    5.0936 H        1 ZINC000022453472    0.0700
53     H53     2.4717   -4.6190    5.8939 H        1 ZINC000022453472    0.0700
54     H54     3.1623   -3.0106    2.7226 H        1 ZINC000022453472    0.0800
55     H55     4.0044   -4.5680    2.5358 H        1 ZINC000022453472    0.0400
56     H56     2.7403   -4.0213    0.4849 H        1 ZINC000022453472    0.0800
57     H57     1.2413   -3.8794    1.4350 H        1 ZINC000022453472    0.0500
58     H58    -3.4622   -6.1456   -0.0920 H        1 ZINC000022453472    0.1500
59     H59    -7.9713   -5.0918   -0.1343 H        1 ZINC000022453472    0.2000
60     H60    -5.4433   -0.4693    0.0885 H        1 ZINC000022453472    0.4300
61     H61    -6.9762    1.2949   -0.8924 H        1 ZINC000022453472    0.1400
62     H62    -9.2078    2.3129   -0.6891 H        1 ZINC000022453472    0.1500
63     H63    -8.3106   -2.0724    1.3806 H        1 ZINC000022453472    0.1600
64     H64    -3.6968   -1.1872    0.1761 H        1 ZINC000022453472    0.1500
@<TRIPOS>BOND
1     1     2     2
2     1     37    1
3     1     38    1
4     2     3     1
5     2     39    1
6     3     4     2
7     3     5     am
8     5     6     1
9     5     40    1
10    6     36    ar
11    6     7     ar
12    7     8     1
13    7     20    ar
14    8     9     3
15    9     10    1
16    10    11    1
17    10    12    1
18    10    13    1
19    11    41    1
20    11    42    1
21    11    43    1
22    12    44    1
23    12    45    1
24    12    46    1
25    13    19    1
26    13    14    1
27    14    15    1
28    14    47    1
29    14    48    1
30    15    16    1
31    15    49    1
32    15    50    1
33    16    17    1
34    16    18    1
35    17    51    1
36    17    52    1
37    17    53    1
38    18    19    1
39    18    54    1
40    18    55    1
41    19    56    1
42    19    57    1
43    20    21    ar
44    20    58    1
45    21    35    ar
46    21    22    ar
47    22    23    ar
48    23    24    ar
49    23    59    1
50    24    25    ar
51    25    26    1
52    25    35    ar
53    26    27    1
54    26    60    1
55    27    34    ar
56    27    28    ar
57    28    29    ar
58    28    61    1
59    29    30    ar
60    29    62    1
61    30    31    1
62    30    32    ar
63    32    33    1
64    32    34    ar
65    34    63    1
66    35    36    ar
67    36    64    1
@<TRIPOS>SUBSTRUCTURE
1   ZINC000022453472 1     RESIDUE    1   A     ZIN   1
