@<TRIPOS>MOLECULE
ZINC000004214744
  16   15    0    0    0
SMALL
USER_CHARGES
NO_NAME
@<TRIPOS>ATOM
    1 N1       -0.0178     1.4648     0.0101 N.3    1 <0>      -0.8200
    2 C2        0.0021    -0.0041     0.0020 C.3    1 <0>       0.0000
    3 H3        0.5890    -0.3641     0.8470 H      1 <0>       0.0800
    4 C4       -1.4289    -0.5341     0.1123 C.3    1 <0>       0.1600
    5 N5       -2.0702     0.0348     1.3002 N.pl3  1 <0>      -0.2300
    6 O6       -2.7820     1.2552     1.2046 O.3    1 <0>      -0.3700
    7 N7       -1.9865    -0.5759     2.4334 N.2    1 <0>      -0.0600
    8 O8       -2.5197    -0.1029     3.4210 O.2    1 <0>      -0.1400
    9 C9        0.6205    -0.4910    -1.2831 C.2    1 <0>       0.4700
   10 O10       0.9002    -1.6702    -1.4166 O.co2  1 <0>      -0.6900
   11 O11       0.8411     0.2942    -2.1893 O.co2  1 <0>      -0.6900
   12 H12       0.9191     1.8392     0.0032 H      1 <0>       0.3400
   13 H13      -0.5563     1.8234    -0.7642 H      1 <0>       0.3400
   14 H14      -1.9917    -0.2485    -0.7764 H      1 <0>       0.1000
   15 H15      -1.4085    -1.6207     0.1957 H      1 <0>       0.1200
   16 H16      -3.1699     1.5508     2.0396 H      1 <0>       0.3900
@<TRIPOS>BOND
   1    1    2 1
   2    1   12 1
   3    1   13 1
   4    2    3 1
   5    2    4 1
   6    2    9 1
   7    4    5 1
   8    4   14 1
   9    4   15 1
  10    5    6 1
  11    5    7 1
  12    6   16 1
  13    7    8 2
  14    9   10 ar
  15    9   11 ar
