@<TRIPOS>MOLECULE
ZINC000001554077
68    73    1     0     0
SMALL
USER_CHARGES
@<TRIPOS>ATOM
1      C1     -4.2314   -3.0268   -3.6052 C.3      1 ZINC000001554077   -0.1500
2      C2     -3.0157   -2.1135   -3.4355 C.3      1 ZINC000001554077   -0.1300
3      C3     -2.7136   -1.9380   -1.9459 C.3      1 ZINC000001554077   -0.1200
4      C4     -1.4979   -1.0246   -1.7762 C.3      1 ZINC000001554077   -0.1100
5      C5     -1.1959   -0.8491   -0.2866 C.3      1 ZINC000001554077   -0.0400
6      C6      0.0016    0.0504   -0.1194 C.2      1 ZINC000001554077   -0.1500
7      C7      1.3004   -0.3366   -0.0612 C.2      1 ZINC000001554077    0.1300
8      C8      1.7790   -1.7323   -0.1529 C.ar     1 ZINC000001554077   -0.0500
9      C9      2.7187   -2.0745   -1.1103 C.ar     1 ZINC000001554077   -0.0800
10     C10     3.1693   -3.4008   -1.1926 C.ar     1 ZINC000001554077   -0.0900
11     C11     4.1234   -3.7834   -2.1525 C.ar     1 ZINC000001554077   -0.0700
12     C12     4.5442   -5.0751   -2.2121 C.ar     1 ZINC000001554077   -0.1800
13     C13     4.0410   -6.0357   -1.3294 C.ar     1 ZINC000001554077    0.1600
14     O14     4.4796   -7.3191   -1.4120 O.3      1 ZINC000001554077   -0.3000
15     C15     5.4496   -7.6097   -2.4204 C.3      1 ZINC000001554077    0.1800
16     C16     5.8139   -9.0708   -2.3609 C.2      1 ZINC000001554077    0.0400
17     N17     6.7895   -9.6133   -1.6471 N.2      1 ZINC000001554077   -0.3700
18     N18     6.7727  -10.8838   -1.8663 N.2      1 ZINC000001554077   -0.1900
19     N19     5.8272  -11.1534   -2.6977 N.2      1 ZINC000001554077   -0.1900
20     N20     5.2239  -10.0595   -3.0167 N.pl3    1 ZINC000001554077   -0.3700
21     C21     3.1068   -5.6957   -0.3776 C.ar     1 ZINC000001554077   -0.1700
22     C22     2.6544   -4.3695   -0.2933 C.ar     1 ZINC000001554077    0.0000
23     C23     1.7002   -3.9895    0.6689 C.ar     1 ZINC000001554077   -0.1100
24     C24     1.2803   -2.7006    0.7367 C.ar     1 ZINC000001554077   -0.0800
25     N25     2.1040    0.7691    0.0963 N.pl3    1 ZINC000001554077   -0.4700
26     C26     3.5651    0.7409    0.1993 C.3      1 ZINC000001554077    0.1500
27     C27     3.9635    0.5496    1.6401 C.ar     1 ZINC000001554077   -0.1100
28     C28     4.0425    1.6401    2.4860 C.ar     1 ZINC000001554077   -0.1000
29     C29     4.4033    1.4640    3.8088 C.ar     1 ZINC000001554077   -0.1200
30     C30     4.6952    0.1987    4.2830 C.ar     1 ZINC000001554077   -0.1100
31     C31     4.6213   -0.8910    3.4358 C.ar     1 ZINC000001554077   -0.1200
32     C32     4.2554   -0.7156    2.1143 C.ar     1 ZINC000001554077   -0.0900
33     C33     1.3283    1.9066    0.1434 C.ar     1 ZINC000001554077    0.1100
34     C34     1.6251    3.2577    0.2867 C.ar     1 ZINC000001554077   -0.1300
35     C35     0.6061    4.1857    0.2974 C.ar     1 ZINC000001554077   -0.1000
36     C36    -0.7168    3.7868    0.1665 C.ar     1 ZINC000001554077   -0.1500
37     C37    -1.0327    2.4645    0.0295 C.ar     1 ZINC000001554077   -0.0700
38     C38    -0.0154    1.5064    0.0109 C.ar     1 ZINC000001554077   -0.1000
39     H39    -4.0203   -3.9992   -3.1602 H        1 ZINC000001554077    0.0500
40     H40    -5.0935   -2.5800   -3.1098 H        1 ZINC000001554077    0.0500
41     H41    -4.4466   -3.1518   -4.6664 H        1 ZINC000001554077    0.0500
42     H42    -3.2268   -1.1411   -3.8804 H        1 ZINC000001554077    0.0600
43     H43    -2.1536   -2.5602   -3.9308 H        1 ZINC000001554077    0.0600
44     H44    -2.5025   -2.9104   -1.5009 H        1 ZINC000001554077    0.0600
45     H45    -3.5757   -1.4912   -1.4505 H        1 ZINC000001554077    0.0600
46     H46    -1.7091   -0.0523   -2.2211 H        1 ZINC000001554077    0.0600
47     H47    -0.6359   -1.4714   -2.2715 H        1 ZINC000001554077    0.0600
48     H48    -0.9847   -1.8215    0.1584 H        1 ZINC000001554077    0.0700
49     H49    -2.0579   -0.4024    0.2088 H        1 ZINC000001554077    0.0700
50     H50     3.1017   -1.3265   -1.7887 H        1 ZINC000001554077    0.1200
51     H51     4.5208   -3.0527   -2.8413 H        1 ZINC000001554077    0.1300
52     H52     5.2770   -5.3629   -2.9513 H        1 ZINC000001554077    0.1300
53     H53     5.0343   -7.3784   -3.4013 H        1 ZINC000001554077    0.0700
54     H54     6.3411   -7.0057   -2.2517 H        1 ZINC000001554077    0.0700
55     H55     2.7238   -6.4446    0.2998 H        1 ZINC000001554077    0.1300
56     H56     1.3046   -4.7230    1.3558 H        1 ZINC000001554077    0.1300
57     H57     0.5509   -2.4159    1.4805 H        1 ZINC000001554077    0.1200
58     H58     3.9556   -0.0829   -0.3981 H        1 ZINC000001554077    0.1000
59     H59     3.9735    1.6821   -0.1687 H        1 ZINC000001554077    0.0900
60     H60     3.8187    2.6291    2.1144 H        1 ZINC000001554077    0.1200
61     H61     4.4614    2.3154    4.4706 H        1 ZINC000001554077    0.1200
62     H62     4.9813    0.0617    5.3154 H        1 ZINC000001554077    0.1200
63     H63     4.8497   -1.8795    3.8062 H        1 ZINC000001554077    0.1200
64     H64     4.1980   -1.5670    1.4523 H        1 ZINC000001554077    0.1200
65     H65     2.6512    3.5788    0.3889 H        1 ZINC000001554077    0.1100
66     H66     0.8395    5.2342    0.4092 H        1 ZINC000001554077    0.1200
67     H67    -1.5031    4.5271    0.1774 H        1 ZINC000001554077    0.1200
68     H68    -2.0648    2.1611   -0.0667 H        1 ZINC000001554077    0.1200
@<TRIPOS>BOND
1     1     2     1
2     1     39    1
3     1     40    1
4     1     41    1
5     2     3     1
6     2     42    1
7     2     43    1
8     3     4     1
9     3     44    1
10    3     45    1
11    4     5     1
12    4     46    1
13    4     47    1
14    5     6     1
15    5     48    1
16    5     49    1
17    6     38    1
18    6     7     2
19    7     8     1
20    7     25    1
21    8     24    ar
22    8     9     ar
23    9     10    ar
24    9     50    1
25    10    22    ar
26    10    11    ar
27    11    12    ar
28    11    51    1
29    12    13    ar
30    12    52    1
31    13    14    1
32    13    21    ar
33    14    15    1
34    15    16    1
35    15    53    1
36    15    54    1
37    16    20    1
38    16    17    2
39    17    18    1
40    18    19    2
41    19    20    1
42    21    22    ar
43    21    55    1
44    22    23    ar
45    23    24    ar
46    23    56    1
47    24    57    1
48    25    26    1
49    25    33    1
50    26    27    1
51    26    58    1
52    26    59    1
53    27    32    ar
54    27    28    ar
55    28    29    ar
56    28    60    1
57    29    30    ar
58    29    61    1
59    30    31    ar
60    30    62    1
61    31    32    ar
62    31    63    1
63    32    64    1
64    33    38    ar
65    33    34    ar
66    34    35    ar
67    34    65    1
68    35    36    ar
69    35    66    1
70    36    37    ar
71    36    67    1
72    37    38    ar
73    37    68    1
@<TRIPOS>SUBSTRUCTURE
1   ZINC000001554077 1     RESIDUE    1   A     ZIN   1
