@<TRIPOS>MOLECULE
ZINC000003805769
  48   51    0    0    0
SMALL
USER_CHARGES
NO_NAME
@<TRIPOS>ATOM
    1 C1       -0.0187     1.5258     0.0104 C.3    1 <0>      -0.1400
    2 C2        0.0021    -0.0041     0.0020 C.3    1 <0>      -0.0800
    3 C3       -1.4183    -0.5670    -0.0798 C.3    1 <0>      -0.1300
    4 C4        0.8758    -0.5379    -1.1547 C.3    1 <0>      -0.0400
    5 C5        2.2462    -0.7188    -0.5334 C.2    1 <0>       0.0100
    6 C6        3.5538    -0.8832    -0.8785 C.2    1 <0>      -0.1100
    7 C7        4.1102    -0.9461    -2.2518 C.ar   1 <0>       0.0200
    8 C8        3.7624    -1.9960    -3.1000 C.ar   1 <0>      -0.1100
    9 C9        4.2832    -2.0495    -4.3769 C.ar   1 <0>      -0.1200
   10 C10       5.1492    -1.0639    -4.8153 C.ar   1 <0>      -0.1300
   11 C11       5.4979    -0.0196    -3.9779 C.ar   1 <0>      -0.1200
   12 C12       4.9783     0.0474    -2.7011 C.ar   1 <0>      -0.1100
   13 C13       4.3026    -0.9851     0.3810 C.2    1 <0>      -0.1400
   14 C14       5.7663    -1.1699     0.5331 C.ar   1 <0>       0.0400
   15 C15       6.3733    -2.3422     0.0860 C.ar   1 <0>      -0.0800
   16 C16       7.7356    -2.5090     0.2295 C.ar   1 <0>      -0.1100
   17 C17       8.4991    -1.5147     0.8168 C.ar   1 <0>      -0.0400
   18 Cl18     10.2123    -1.7310     0.9948 Cl     1 <0>      -0.0900
   19 C19       7.9011    -0.3483     1.2621 C.ar   1 <0>      -0.1100
   20 C20       6.5403    -0.1694     1.1185 C.ar   1 <0>      -0.1100
   21 C21       3.3882    -0.8764     1.3775 C.2    1 <0>       0.1500
   22 C22       3.6901    -0.9210     2.8532 C.3    1 <0>      -0.1400
   23 C23       3.6152    -2.3458     3.3385 C.2    1 <0>       0.5000
   24 O24       3.3420    -3.2419     2.5582 O.co2  1 <0>      -0.6800
   25 O25       3.8278    -2.6023     4.5113 O.co2  1 <0>      -0.7000
   26 N26       2.1467    -0.7187     0.8229 N.pl3  1 <0>      -0.4600
   27 C27       0.7418    -0.5522     1.2399 C.3    1 <0>       0.1200
   28 H28       1.0039     1.9031     0.0027 H      1 <0>       0.0600
   29 H29      -0.5459     1.8868    -0.8726 H      1 <0>       0.0600
   30 H30      -0.5289     1.8773     0.9072 H      1 <0>       0.0600
   31 H31      -1.8998    -0.2073    -0.9892 H      1 <0>       0.0600
   32 H32      -1.3770    -1.6561    -0.0970 H      1 <0>       0.0600
   33 H33      -1.9898    -0.2386     0.7883 H      1 <0>       0.0600
   34 H34       0.4911    -1.4923    -1.5142 H      1 <0>       0.0800
   35 H35       0.9181     0.1877    -1.9670 H      1 <0>       0.0800
   36 H36       3.0869    -2.7664    -2.7586 H      1 <0>       0.1200
   37 H37       4.0144    -2.8625    -5.0351 H      1 <0>       0.1200
   38 H38       5.5550    -1.1101    -5.8151 H      1 <0>       0.1100
   39 H39       6.1747     0.7469    -4.3253 H      1 <0>       0.1200
   40 H40       5.2510     0.8634    -2.0482 H      1 <0>       0.1200
   41 H41       5.7784    -3.1188    -0.3716 H      1 <0>       0.1300
   42 H42       8.2069    -3.4171    -0.1166 H      1 <0>       0.1300
   43 H43       8.5011     0.4245     1.7195 H      1 <0>       0.1300
   44 H44       6.0747     0.7409     1.4662 H      1 <0>       0.1300
   45 H45       4.6914    -0.5287     3.0313 H      1 <0>       0.0800
   46 H46       2.9614    -0.3150     3.3916 H      1 <0>       0.0600
   47 H47       0.6752     0.1585     2.0637 H      1 <0>       0.0800
   48 H48       0.3204    -1.5130     1.5356 H      1 <0>       0.0800
@<TRIPOS>BOND
   1    1    2 1
   2    1   28 1
   3    1   29 1
   4    1   30 1
   5    2   27 1
   6    2    3 1
   7    2    4 1
   8    3   31 1
   9    3   32 1
  10    3   33 1
  11    4    5 1
  12    4   34 1
  13    4   35 1
  14    5   26 1
  15    5    6 2
  16    6    7 1
  17    6   13 1
  18    7   12 ar
  19    7    8 ar
  20    8    9 ar
  21    8   36 1
  22    9   10 ar
  23    9   37 1
  24   10   11 ar
  25   10   38 1
  26   11   12 ar
  27   11   39 1
  28   12   40 1
  29   13   14 1
  30   13   21 2
  31   14   20 ar
  32   14   15 ar
  33   15   16 ar
  34   15   41 1
  35   16   17 ar
  36   16   42 1
  37   17   18 1
  38   17   19 ar
  39   19   20 ar
  40   19   43 1
  41   20   44 1
  42   21   22 1
  43   21   26 1
  44   22   23 1
  45   22   45 1
  46   22   46 1
  47   23   24 ar
  48   23   25 ar
  49   26   27 1
  50   27   47 1
  51   27   48 1
