@<TRIPOS>MOLECULE
ZINC000147513579
66    70    1     0     0
SMALL
USER_CHARGES
@<TRIPOS>ATOM
1      C1     -5.1182   -5.2903    1.3429 C.3      1 ZINC000147513579   -0.0800
2      C2     -3.6351   -5.0363    1.2582 C.2      1 ZINC000147513579   -0.2200
3      C3     -3.1285   -4.2829    0.2574 C.2      1 ZINC000147513579    0.1800
4      N4     -1.7796   -4.0656    0.2012 N.pl3    1 ZINC000147513579   -0.3200
5      N5     -0.9754   -3.3475   -0.6914 N.2      1 ZINC000147513579   -0.2800
6      C6      0.2767   -3.4452   -0.3074 C.2      1 ZINC000147513579    0.1600
7      C7      1.4568   -2.8139   -1.0002 C.3      1 ZINC000147513579    0.2200
8      H8      2.0786   -2.2998   -0.2673 H        1 ZINC000147513579    0.0900
9      C9      0.9616   -1.8113   -2.0472 C.3      1 ZINC000147513579   -0.1200
10     C10     2.1559   -1.2775   -2.8414 C.3      1 ZINC000147513579   -0.1200
11     C11     2.8452   -2.4343   -3.5686 C.3      1 ZINC000147513579   -0.1400
12     C12     3.3618   -3.4440   -2.5388 C.3      1 ZINC000147513579    0.1200
13     N13     2.2468   -3.8538   -1.6735 N.am     1 ZINC000147513579   -0.6000
14     C14     1.9517   -5.1580   -1.5051 C.2      1 ZINC000147513579    0.6100
15     O15     0.9807   -5.4818   -0.8486 O.2      1 ZINC000147513579   -0.5300
16     C16     2.8061   -6.1921   -2.1168 C.ar     1 ZINC000147513579   -0.2000
17     C17     3.7821   -6.8386   -1.3545 C.ar     1 ZINC000147513579   -0.0300
18     C18     4.5780   -7.8049   -1.9327 C.ar     1 ZINC000147513579   -0.1400
19     Cl19    5.7901   -8.6071   -0.9835 Cl       1 ZINC000147513579   -0.1100
20     C20     4.4145   -8.1393   -3.2684 C.ar     1 ZINC000147513579   -0.0400
21     C21     3.4546   -7.5092   -4.0338 C.ar     1 ZINC000147513579   -0.2400
22     C22     2.6401   -6.5371   -3.4672 C.ar     1 ZINC000147513579    0.3300
23     N23     1.6728   -5.9019   -4.2362 N.pl3    1 ZINC000147513579   -1.0800
24     S24     1.4889   -6.3031   -5.8323 S.o2     1 ZINC000147513579    2.5300
25     C25     0.1391   -5.2397   -6.4136 C.3      1 ZINC000147513579   -0.6300
26     O26     2.7186   -5.9215   -6.4335 O.2      1 ZINC000147513579   -1.0200
27     O27     1.0767   -7.6628   -5.8066 O.2      1 ZINC000147513579   -1.0200
28     C28     0.3371   -4.2237    0.8399 C.2      1 ZINC000147513579   -0.1500
29     C29    -0.9588   -4.6103    1.1541 C.2      1 ZINC000147513579    0.2300
30     N30    -1.4653   -5.3575    2.1454 N.2      1 ZINC000147513579   -0.4600
31     C31    -2.7634   -5.5784    2.2268 C.2      1 ZINC000147513579    0.4400
32     N32    -3.2698   -6.3522    3.2567 N.pl3    1 ZINC000147513579   -0.6500
33     C33    -3.4751   -7.8074    3.2140 C.3      1 ZINC000147513579    0.1300
34     C34    -4.0288   -8.2325    4.5904 C.3      1 ZINC000147513579   -0.1400
35     C35    -3.5721   -7.0777    5.5205 C.3      1 ZINC000147513579    0.0000
36     H36    -2.5415   -7.2216    5.8449 H        1 ZINC000147513579    0.1600
37     N37    -4.4708   -6.9445    6.6748 N.4      1 ZINC000147513579   -0.6300
38     H38    -4.4518   -7.7960    7.2159 H        1 ZINC000147513579    0.4400
39     H39    -4.1671   -6.1735    7.2504 H        1 ZINC000147513579    0.4400
40     H40    -5.4109   -6.7727    6.3511 H        1 ZINC000147513579    0.4300
41     C41    -3.6867   -5.8546    4.5804 C.3      1 ZINC000147513579    0.1200
42     H42    -5.3992   -5.4583    2.3825 H        1 ZINC000147513579    0.0600
43     H43    -5.6575   -4.4257    0.9558 H        1 ZINC000147513579    0.0700
44     H44    -5.3704   -6.1705    0.7515 H        1 ZINC000147513579    0.0700
45     H45    -3.7816   -3.8573   -0.4901 H        1 ZINC000147513579    0.1700
46     H46     0.2661   -2.3065   -2.7248 H        1 ZINC000147513579    0.0800
47     H47     0.4572   -0.9837   -1.5484 H        1 ZINC000147513579    0.0700
48     H48     1.8091   -0.5454   -3.5707 H        1 ZINC000147513579    0.0600
49     H49     2.8628   -0.8041   -2.1600 H        1 ZINC000147513579    0.0600
50     H50     2.1320   -2.9237   -4.2319 H        1 ZINC000147513579    0.0800
51     H51     3.6815   -2.0502   -4.1526 H        1 ZINC000147513579    0.0700
52     H52     3.7652   -4.3164   -3.0529 H        1 ZINC000147513579    0.1000
53     H53     4.1410   -2.9817   -1.9328 H        1 ZINC000147513579    0.0600
54     H54     3.9133   -6.5817   -0.3137 H        1 ZINC000147513579    0.1200
55     H55     5.0426   -8.8974   -3.7125 H        1 ZINC000147513579    0.1200
56     H56     3.3338   -7.7751   -5.0736 H        1 ZINC000147513579    0.1200
57     H57     0.4198   -4.1941   -6.2866 H        1 ZINC000147513579    0.1200
58     H58    -0.0521   -5.4390   -7.4680 H        1 ZINC000147513579    0.1000
59     H59    -0.7614   -5.4469   -5.8356 H        1 ZINC000147513579    0.1100
60     H60     1.2305   -4.4823    1.3888 H        1 ZINC000147513579    0.1500
61     H61    -4.1924   -8.0578    2.4325 H        1 ZINC000147513579    0.0800
62     H62    -2.5267   -8.3101    3.0246 H        1 ZINC000147513579    0.0700
63     H63    -5.1164   -8.2998    4.5645 H        1 ZINC000147513579    0.1000
64     H64    -3.5902   -9.1789    4.9068 H        1 ZINC000147513579    0.1100
65     H65    -3.0248   -5.0557    4.9148 H        1 ZINC000147513579    0.0900
66     H66    -4.7174   -5.5024    4.5400 H        1 ZINC000147513579    0.0700
@<TRIPOS>BOND
1     1     2     1
2     1     42    1
3     1     43    1
4     1     44    1
5     2     31    1
6     2     3     2
7     3     4     1
8     3     45    1
9     4     29    1
10    4     5     1
11    5     6     2
12    6     7     1
13    6     28    1
14    7     8     1
15    7     13    1
16    7     9     1
17    9     10    1
18    9     46    1
19    9     47    1
20    10    11    1
21    10    48    1
22    10    49    1
23    11    12    1
24    11    50    1
25    11    51    1
26    12    13    1
27    12    52    1
28    12    53    1
29    13    14    am
30    14    15    2
31    14    16    1
32    16    22    ar
33    16    17    ar
34    17    18    ar
35    17    54    1
36    18    19    1
37    18    20    ar
38    20    21    ar
39    20    55    1
40    21    22    ar
41    21    56    1
42    22    23    1
43    23    24    1
44    24    25    1
45    24    26    2
46    24    27    2
47    25    57    1
48    25    58    1
49    25    59    1
50    28    29    2
51    28    60    1
52    29    30    1
53    30    31    2
54    31    32    1
55    32    41    1
56    32    33    1
57    33    34    1
58    33    61    1
59    33    62    1
60    34    35    1
61    34    63    1
62    34    64    1
63    35    36    1
64    35    37    1
65    35    41    1
66    37    38    1
67    37    39    1
68    37    40    1
69    41    65    1
70    41    66    1
@<TRIPOS>SUBSTRUCTURE
1   ZINC000147513579 1     RESIDUE    1   A     ZIN   1
