@<TRIPOS>MOLECULE
ZINC000000004765
  29   30    0    0    0
SMALL
USER_CHARGES
NO_NAME
@<TRIPOS>ATOM
    1 C1        0.0919     1.5024     0.0013 C.3    1 <0>      -0.1400
    2 C2        0.0547    -0.0041    -0.0023 C.2    1 <0>       0.2000
    3 C3       -0.0428    -0.6668    -1.1804 C.2    1 <0>      -0.3400
    4 C4       -0.0771    -2.0760    -1.1764 C.2    1 <0>       0.3800
    5 O5       -0.1642    -2.7023    -2.2230 O.2    1 <0>      -0.4900
    6 C6       -0.0054    -2.7740     0.1117 C.2    1 <0>       0.3200
    7 N7       -0.0355    -4.1654     0.1639 N.pl3  1 <0>      -0.8100
    8 N8        0.0879    -2.0687     1.2133 N.2    1 <0>      -0.3100
    9 N9        0.1243    -0.6723     1.1645 N.pl3  1 <0>      -0.3300
   10 C10       0.2242     0.0493     2.3585 C.ar   1 <0>       0.1500
   11 C11      -0.6654    -0.1961     3.3967 C.ar   1 <0>      -0.0700
   12 C12      -0.5640     0.5183     4.5744 C.ar   1 <0>      -0.1000
   13 C13       0.4217     1.4769     4.7206 C.ar   1 <0>      -0.0700
   14 C14       1.3092     1.7238     3.6889 C.ar   1 <0>      -0.1700
   15 C15       2.3819     2.7695     3.8528 C.3    1 <0>       0.5100
   16 F16       2.2781     3.3490     5.1220 F      1 <0>      -0.1700
   17 F17       3.6397     2.1731     3.7139 F      1 <0>      -0.1700
   18 F18       2.2236     3.7573     2.8748 F      1 <0>      -0.1700
   19 C19       1.2171     1.0092     2.5110 C.ar   1 <0>      -0.0700
   20 H20       1.1281     1.8402     0.0188 H      1 <0>       0.1000
   21 H21      -0.3983     1.8801    -0.8960 H      1 <0>       0.1000
   22 H22      -0.4272     1.8765     0.8837 H      1 <0>       0.0800
   23 H23      -0.0940    -0.1217    -2.1113 H      1 <0>       0.1600
   24 H24      -0.1043    -4.6802    -0.6553 H      1 <0>       0.4200
   25 H25       0.0124    -4.6198     1.0196 H      1 <0>       0.4100
   26 H26      -1.4358    -0.9445     3.2830 H      1 <0>       0.1400
   27 H27      -1.2556     0.3282     5.3818 H      1 <0>       0.1500
   28 H28       0.4986     2.0344     5.6424 H      1 <0>       0.1500
   29 H29       1.9106     1.2022     1.7059 H      1 <0>       0.1400
@<TRIPOS>BOND
   1    1    2 1
   2    1   20 1
   3    1   21 1
   4    1   22 1
   5    2    9 1
   6    2    3 2
   7    3    4 1
   8    3   23 1
   9    4    5 2
  10    4    6 1
  11    6    7 1
  12    6    8 2
  13    7   24 1
  14    7   25 1
  15    8    9 1
  16    9   10 1
  17   10   19 ar
  18   10   11 ar
  19   11   12 ar
  20   11   26 1
  21   12   13 ar
  22   12   27 1
  23   13   14 ar
  24   13   28 1
  25   14   15 1
  26   14   19 ar
  27   15   16 1
  28   15   17 1
  29   15   18 1
  30   19   29 1
