@<TRIPOS>MOLECULE
ZINC000003833866
  31   33    0    0    0
SMALL
USER_CHARGES
NO_NAME
@<TRIPOS>ATOM
    1 O1        0.0021    -0.0041     0.0020 O.2    1 <0>      -0.5500
    2 C2       -0.0144     1.2117     0.0087 C.2    1 <0>       0.7200
    3 N3       -1.2001     1.8338     0.0289 N.am   1 <0>      -0.6600
    4 C4       -1.3283     3.2237     0.0381 C.ar   1 <0>       0.2000
    5 C5       -2.5817     3.8198     0.0581 C.ar   1 <0>      -0.1400
    6 C6       -2.6881     5.1973     0.0665 C.ar   1 <0>      -0.0500
    7 C7       -1.5514     5.9861     0.0550 C.ar   1 <0>      -0.0600
    8 Cl8      -1.6952     7.7161     0.0662 Cl     1 <0>      -0.0500
    9 C9       -0.2977     5.3951     0.0349 C.ar   1 <0>      -0.0400
   10 C10      -0.1905     4.0239     0.0266 C.ar   1 <0>      -0.1400
   11 C11       1.1578     3.3417     0.0043 C.3    1 <0>       0.3200
   12 C12       1.8802     3.8028    -1.1925 C.1    1 <0>      -0.2400
   13 C13       2.4563     4.1706    -2.1470 C.1    1 <0>      -0.0400
   14 C14       3.1787     4.6317    -3.3438 C.3    1 <0>      -0.0700
   15 C15       4.4044     5.5221    -3.1298 C.3    1 <0>      -0.1600
   16 C16       4.5824     4.0712    -3.5814 C.3    1 <0>      -0.1600
   17 C17       1.9425     3.8071     1.2326 C.3    1 <0>       0.4500
   18 F18       1.2430     3.4578     2.3927 F      1 <0>      -0.1700
   19 F19       3.1994     3.1929     1.2432 F      1 <0>      -0.1700
   20 F20       2.1025     5.1961     1.1849 F      1 <0>      -0.1700
   21 N21       1.1594     1.8689     0.0010 N.am   1 <0>      -0.7100
   22 H22      -2.0062     1.2942     0.0371 H      1 <0>       0.4300
   23 H23      -3.4718     3.2082     0.0668 H      1 <0>       0.1500
   24 H24      -3.6634     5.6608     0.0817 H      1 <0>       0.1500
   25 H25       0.5910     6.0086     0.0262 H      1 <0>       0.1500
   26 H26       2.5603     4.8282    -4.2196 H      1 <0>       0.1400
   27 H27       4.5925     6.3047    -3.8648 H      1 <0>       0.1100
   28 H28       4.6759     5.7664    -2.1028 H      1 <0>       0.1000
   29 H29       4.9709     3.3609    -2.8516 H      1 <0>       0.1000
   30 H30       4.8875     3.8992    -4.6136 H      1 <0>       0.1100
   31 H31       1.9964     1.3788    -0.0126 H      1 <0>       0.4400
@<TRIPOS>BOND
   1    1    2 2
   2    2   21 am
   3    2    3 am
   4    3    4 1
   5    3   22 1
   6    4   10 ar
   7    4    5 ar
   8    5    6 ar
   9    5   23 1
  10    6    7 ar
  11    6   24 1
  12    7    8 1
  13    7    9 ar
  14    9   10 ar
  15    9   25 1
  16   10   11 1
  17   11   12 1
  18   11   17 1
  19   11   21 1
  20   12   13 3
  21   13   14 1
  22   14   16 1
  23   14   15 1
  24   14   26 1
  25   15   16 1
  26   15   27 1
  27   15   28 1
  28   16   29 1
  29   16   30 1
  30   17   18 1
  31   17   19 1
  32   17   20 1
  33   21   31 1
