@<TRIPOS>MOLECULE
ZINC000002021499
  55   57    0    0    0
SMALL
USER_CHARGES
NO_NAME
@<TRIPOS>ATOM
    1 C1       -0.0187     1.5258     0.0104 C.3    1 <0>      -0.1400
    2 C2        0.0021    -0.0041     0.0020 C.3    1 <0>      -0.0700
    3 C3       -1.4320    -0.5373     0.0036 C.3    1 <0>      -0.1500
    4 C4        0.7389    -0.5019    -1.2460 C.3    1 <0>      -0.1400
    5 C5        0.8537    -2.0022    -1.1868 C.2    1 <0>       0.5200
    6 O6        0.8966    -2.6362    -2.2191 O.2    1 <0>      -0.5000
    7 N7        0.9098    -2.6506    -0.0138 N.am   1 <0>      -0.5700
    8 C8        1.0338    -4.1103    -0.0220 C.3    1 <0>       0.0900
    9 C9        2.5143    -4.4963    -0.0261 C.3    1 <0>      -0.1300
   10 C10       2.6439    -6.0208    -0.0346 C.3    1 <0>      -0.1200
   11 C11       4.1244    -6.4068    -0.0387 C.3    1 <0>       0.0600
   12 N12       4.2488    -7.8705    -0.0469 N.3    1 <0>      -0.5400
   13 C13       3.3402    -8.4816     0.9325 C.3    1 <0>       0.0300
   14 C14       3.3666   -10.0049     0.7677 C.3    1 <0>       0.1300
   15 N15       4.7632   -10.4592     0.8471 N.pl3  1 <0>      -0.5800
   16 C16       5.1297   -11.4830     1.7033 C.ar   1 <0>       0.5700
   17 N17       4.2036   -12.0604     2.4547 N.ar   1 <0>      -0.5700
   18 C18       4.5202   -13.0418     3.2831 C.ar   1 <0>       0.1900
   19 C19       5.8382   -13.4639     3.3589 C.ar   1 <0>      -0.3000
   20 C20       6.7815   -12.8381     2.5590 C.ar   1 <0>       0.1900
   21 N21       6.3972   -11.8661     1.7482 N.ar   1 <0>      -0.5700
   22 C22       5.7601    -9.7971    -0.0081 C.3    1 <0>       0.1300
   23 C23       5.6394    -8.2820     0.1872 C.3    1 <0>       0.0400
   24 C24       0.8572    -2.0151     1.1663 C.2    1 <0>       0.5200
   25 O25       0.9032    -2.6604     2.1915 O.2    1 <0>      -0.5000
   26 C26       0.7426    -0.5155     1.2423 C.3    1 <0>      -0.1400
   27 H27       1.0039     1.9031     0.0027 H      1 <0>       0.0600
   28 H28      -0.5459     1.8868    -0.8726 H      1 <0>       0.0700
   29 H29      -0.5289     1.8773     0.9072 H      1 <0>       0.0700
   30 H30      -1.9544    -0.1775    -0.8828 H      1 <0>       0.0700
   31 H31      -1.4144    -1.6272    -0.0024 H      1 <0>       0.0500
   32 H32      -1.9488    -0.1872     0.8971 H      1 <0>       0.0700
   33 H33       0.1813    -0.2141    -2.1373 H      1 <0>       0.1200
   34 H34       1.7353    -0.0614    -1.2807 H      1 <0>       0.1100
   35 H35       0.5538    -4.5208     0.8663 H      1 <0>       0.1000
   36 H36       0.5515    -4.5110    -0.9136 H      1 <0>       0.1000
   37 H37       2.9944    -4.0859    -0.9144 H      1 <0>       0.0700
   38 H38       2.9967    -4.0957     0.8655 H      1 <0>       0.0700
   39 H39       2.1638    -6.4312     0.8537 H      1 <0>       0.0700
   40 H40       2.1615    -6.4215    -0.9262 H      1 <0>       0.0800
   41 H41       4.6045    -5.9964    -0.9270 H      1 <0>       0.0800
   42 H42       4.6068    -6.0062     0.8529 H      1 <0>       0.0300
   43 H43       3.6619    -8.2191     1.9403 H      1 <0>       0.0400
   44 H44       2.3271    -8.1153     0.7666 H      1 <0>       0.1000
   45 H45       2.7847   -10.4694     1.5638 H      1 <0>       0.1000
   46 H46       2.9480   -10.2756    -0.2015 H      1 <0>       0.0700
   47 H47       3.7610   -13.5083     3.8932 H      1 <0>       0.1700
   48 H48       6.1242   -14.2627     4.0271 H      1 <0>       0.1400
   49 H49       7.8169   -13.1430     2.5944 H      1 <0>       0.1700
   50 H50       6.7605   -10.1243     0.2751 H      1 <0>       0.1000
   51 H51       5.5715   -10.0479    -1.0519 H      1 <0>       0.0700
   52 H52       6.2937    -7.7710    -0.5191 H      1 <0>       0.0900
   53 H53       5.9291    -8.0223     1.2054 H      1 <0>       0.0400
   54 H54       1.7392    -0.0754     1.2788 H      1 <0>       0.1100
   55 H55       0.1876    -0.2375     2.1383 H      1 <0>       0.1200
@<TRIPOS>BOND
   1    1    2 1
   2    1   27 1
   3    1   28 1
   4    1   29 1
   5    2   26 1
   6    2    3 1
   7    2    4 1
   8    3   30 1
   9    3   31 1
  10    3   32 1
  11    4    5 1
  12    4   33 1
  13    4   34 1
  14    5    6 2
  15    5    7 am
  16    7    8 1
  17    7   24 am
  18    8    9 1
  19    8   35 1
  20    8   36 1
  21    9   10 1
  22    9   37 1
  23    9   38 1
  24   10   11 1
  25   10   39 1
  26   10   40 1
  27   11   12 1
  28   11   41 1
  29   11   42 1
  30   12   23 1
  31   12   13 1
  32   13   14 1
  33   13   43 1
  34   13   44 1
  35   14   15 1
  36   14   45 1
  37   14   46 1
  38   15   16 1
  39   15   22 1
  40   16   21 ar
  41   16   17 ar
  42   17   18 ar
  43   18   19 ar
  44   18   47 1
  45   19   20 ar
  46   19   48 1
  47   20   21 ar
  48   20   49 1
  49   22   23 1
  50   22   50 1
  51   22   51 1
  52   23   52 1
  53   23   53 1
  54   24   25 2
  55   24   26 1
  56   26   54 1
  57   26   55 1
