@<TRIPOS>MOLECULE
ZINC000003977831
  47   50    0    0    0
SMALL
USER_CHARGES
NO_NAME
@<TRIPOS>ATOM
    1 C1       -0.0187     1.5258     0.0104 C.3    1 <0>      -0.1500
    2 C2        0.0021    -0.0041     0.0020 C.3    1 <0>      -0.0600
    3 C3       -1.4164    -0.5318     0.0530 C.3    1 <0>      -0.0900
    4 C4       -2.0960     0.0777     1.2941 C.3    1 <0>      -0.1200
    5 C5       -1.3123    -0.2560     2.5550 C.3    1 <0>      -0.0400
    6 H6       -1.3187    -1.3390     2.6786 H      1 <0>       0.0800
    7 C7       -1.9359     0.3532     3.7775 C.ar   1 <0>      -0.0800
    8 C8       -3.3183     0.4685     3.8222 C.ar   1 <0>      -0.1100
    9 C9       -3.9425     1.0123     4.9250 C.ar   1 <0>      -0.1100
   10 C10      -3.1810     1.4461     6.0003 C.ar   1 <0>       0.1200
   11 O11      -3.7862     1.9779     7.0948 O.3    1 <0>      -0.7100
   12 S12      -4.1447     0.9544     8.1626 S.o2   1 <0>       2.7600
   13 O13      -5.0803     1.6031     9.0681 O.co2  1 <0>      -1.0600
   14 O14      -4.7466    -0.1768     7.4741 O.co2  1 <0>      -1.0800
   15 O15      -2.9036     0.5907     8.8285 O.co2  1 <0>      -1.0800
   16 C16      -1.8020     1.3345     5.9539 C.ar   1 <0>      -0.1300
   17 C17      -1.1740     0.7932     4.8404 C.ar   1 <0>      -0.0700
   18 C18       0.3307     0.7309     4.8491 C.3    1 <0>      -0.0800
   19 C19       0.8556    -0.1887     3.7474 C.3    1 <0>      -0.1100
   20 C20       0.1490     0.1992     2.4476 C.3    1 <0>      -0.0800
   21 H21       0.2065     1.2783     2.3051 H      1 <0>       0.0800
   22 C22       0.7533    -0.5217     1.2603 C.3    1 <0>      -0.0800
   23 H23       0.6235    -1.5992     1.3622 H      1 <0>       0.0800
   24 C24       2.2143    -0.1847     0.9421 C.3    1 <0>      -0.1100
   25 C25       2.3355    -0.5471    -0.5633 C.3    1 <0>      -0.1600
   26 C26       0.8673    -0.4974    -1.1518 C.3    1 <0>       0.1100
   27 H27       0.8155     0.2110    -1.9786 H      1 <0>       0.0500
   28 O28       0.4644    -1.7971    -1.5882 O.3    1 <0>      -0.5600
   29 H29       1.0039     1.9031     0.0027 H      1 <0>       0.0600
   30 H30      -0.5459     1.8868    -0.8726 H      1 <0>       0.0500
   31 H31      -0.5289     1.8773     0.9072 H      1 <0>       0.0800
   32 H32      -1.9544    -0.2339    -0.8469 H      1 <0>       0.0600
   33 H33      -1.4039    -1.6186     0.1346 H      1 <0>       0.0700
   34 H34      -2.1479     1.1604     1.1796 H      1 <0>       0.0700
   35 H35      -3.1062    -0.3220     1.3829 H      1 <0>       0.0700
   36 H36      -3.9107     0.1295     2.9852 H      1 <0>       0.1300
   37 H37      -5.0186     1.1004     4.9513 H      1 <0>       0.1300
   38 H38      -1.2093     1.6720     6.7912 H      1 <0>       0.1300
   39 H39       0.7302     1.7336     4.6972 H      1 <0>       0.0700
   40 H40       0.6667     0.3569     5.8162 H      1 <0>       0.0800
   41 H41       1.9317    -0.0540     3.6377 H      1 <0>       0.0700
   42 H42       0.6384    -1.2265     4.0002 H      1 <0>       0.0700
   43 H43       2.4085     0.8762     1.1001 H      1 <0>       0.0700
   44 H44       2.8901    -0.7949     1.5413 H      1 <0>       0.0700
   45 H45       2.9882     0.1651    -1.0682 H      1 <0>       0.0700
   46 H46       2.7274    -1.5582    -0.6743 H      1 <0>       0.0700
   47 H47       1.0148    -2.1632    -2.2940 H      1 <0>       0.3700
@<TRIPOS>BOND
   1    1    2 1
   2    1   29 1
   3    1   30 1
   4    1   31 1
   5    2   22 1
   6    2   26 1
   7    2    3 1
   8    3    4 1
   9    3   32 1
  10    3   33 1
  11    4    5 1
  12    4   34 1
  13    4   35 1
  14    5    6 1
  15    5   20 1
  16    5    7 1
  17    7   17 ar
  18    7    8 ar
  19    8    9 ar
  20    8   36 1
  21    9   10 ar
  22    9   37 1
  23   10   11 1
  24   10   16 ar
  25   11   12 1
  26   12   13 ar
  27   12   14 ar
  28   12   15 ar
  29   16   17 ar
  30   16   38 1
  31   17   18 1
  32   18   19 1
  33   18   39 1
  34   18   40 1
  35   19   20 1
  36   19   41 1
  37   19   42 1
  38   20   21 1
  39   20   22 1
  40   22   23 1
  41   22   24 1
  42   24   25 1
  43   24   43 1
  44   24   44 1
  45   25   26 1
  46   25   45 1
  47   25   46 1
  48   26   27 1
  49   26   28 1
  50   28   47 1
