@<TRIPOS>MOLECULE
ZINC000040575510
62    67    1     0     0
SMALL
USER_CHARGES
@<TRIPOS>ATOM
1      C1     -0.0174    1.4249    0.0090 C.3      1 ZINC000040575510    0.0200
2      O2      0.0021   -0.0039    0.0171 O.3      1 ZINC000040575510   -0.2900
3      C3     -1.1995   -0.6369    0.0251 C.ar     1 ZINC000040575510    0.1600
4      C4     -2.3651    0.1054    0.0194 C.ar     1 ZINC000040575510   -0.1800
5      C5     -3.5962   -0.5465    0.0272 C.ar     1 ZINC000040575510    0.0400
6      C6     -3.6448   -1.9600    0.0412 C.ar     1 ZINC000040575510   -0.1500
7      C7     -2.4574   -2.6956    0.0466 C.ar     1 ZINC000040575510   -0.1100
8      C8     -1.2469   -2.0355    0.0334 C.ar     1 ZINC000040575510    0.1000
9      O9     -0.0893   -2.7496    0.0390 O.3      1 ZINC000040575510   -0.3000
10     C10    -0.2056   -4.1737    0.0588 C.3      1 ZINC000040575510    0.0200
11     C11    -4.9559   -2.6131    0.0501 C.2      1 ZINC000040575510    0.5600
12     O12    -5.0299   -3.8284    0.0609 O.2      1 ZINC000040575510   -0.5100
13     N13    -6.0771   -1.8724    0.0467 N.am     1 ZINC000040575510   -0.5000
14     C14    -7.3712   -2.5589    0.0577 C.3      1 ZINC000040575510    0.0900
15     C15    -7.8940   -2.6847   -1.3747 C.3      1 ZINC000040575510   -0.1800
16     C16    -9.2455   -3.4017   -1.3632 C.3      1 ZINC000040575510   -0.0100
17     N17    -9.7475   -3.5225   -2.7385 N.4      1 ZINC000040575510   -0.3900
18     H18    -9.7803   -2.6091   -3.1661 H        1 ZINC000040575510    0.4200
19     C19   -11.0973   -4.1028   -2.7183 C.3      1 ZINC000040575510   -0.0400
20     C20   -11.6181   -4.2273   -4.1523 C.3      1 ZINC000040575510    0.0400
21     O21   -10.7125   -5.0300   -4.9148 O.3      1 ZINC000040575510   -0.3600
22     C22    -9.3773   -4.5180   -4.9446 C.3      1 ZINC000040575510    0.0400
23     C23    -8.8522   -4.3938   -3.5121 C.3      1 ZINC000040575510   -0.0500
24     C24    -6.0616   -0.5045    0.0340 C.2      1 ZINC000040575510    0.2200
25     C25    -4.8648    0.1942    0.0218 C.2      1 ZINC000040575510   -0.2100
26     C26    -5.1659    1.6365    0.0066 C.2      1 ZINC000040575510    0.4600
27     O27    -4.3579    2.5438   -0.0079 O.2      1 ZINC000040575510   -0.4000
28     C28    -6.6454    1.7701    0.0124 C.ar     1 ZINC000040575510   -0.1300
29     C29    -7.4879    2.8690    0.0033 C.ar     1 ZINC000040575510   -0.0200
30     C30    -8.8693    2.6872    0.0141 C.ar     1 ZINC000040575510    0.0500
31     C31    -9.4026    1.4030    0.0335 C.ar     1 ZINC000040575510    0.0600
32     C32    -8.5581    0.2949    0.0417 C.ar     1 ZINC000040575510   -0.0900
33     C33    -7.1820    0.4705    0.0302 C.ar     1 ZINC000040575510   -0.0400
34     O34   -10.7635    1.4956    0.0421 O.3      1 ZINC000040575510   -0.3000
35     C35   -11.0545    2.8484    0.4396 C.3      1 ZINC000040575510    0.2100
36     O36    -9.8955    3.5863    0.0092 O.3      1 ZINC000040575510   -0.2900
37     H37     1.0052    1.8022    0.0031 H        1 ZINC000040575510    0.1100
38     H38    -0.5394    1.7761   -0.8812 H        1 ZINC000040575510    0.0600
39     H39    -0.5329    1.7864    0.8988 H        1 ZINC000040575510    0.0600
40     H40    -2.3219    1.1845    0.0092 H        1 ZINC000040575510    0.1600
41     H41    -2.4873   -3.7751    0.0571 H        1 ZINC000040575510    0.1600
42     H42     0.7891   -4.6195    0.0613 H        1 ZINC000040575510    0.1100
43     H43    -0.7441   -4.4819    0.9549 H        1 ZINC000040575510    0.0600
44     H44    -0.7504   -4.5060   -0.8249 H        1 ZINC000040575510    0.0600
45     H45    -7.2517   -3.5526    0.4894 H        1 ZINC000040575510    0.1200
46     H46    -8.0812   -1.9865    0.6546 H        1 ZINC000040575510    0.1000
47     H47    -8.0135   -1.6910   -1.8064 H        1 ZINC000040575510    0.1000
48     H48    -7.1841   -3.2572   -1.9716 H        1 ZINC000040575510    0.1000
49     H49    -9.1260   -4.3954   -0.9315 H        1 ZINC000040575510    0.1400
50     H50    -9.9555   -2.8292   -0.7663 H        1 ZINC000040575510    0.1400
51     H51   -11.0618   -5.0898   -2.2573 H        1 ZINC000040575510    0.1400
52     H52   -11.7622   -3.4569   -2.1448 H        1 ZINC000040575510    0.1400
53     H53   -12.6016   -4.6972   -4.1429 H        1 ZINC000040575510    0.1400
54     H54   -11.6917   -3.2363   -4.6002 H        1 ZINC000040575510    0.0800
55     H55    -8.7391   -5.1982   -5.5085 H        1 ZINC000040575510    0.1400
56     H56    -9.3742   -3.5369   -5.4196 H        1 ZINC000040575510    0.0800
57     H57    -7.8506   -3.9641   -3.5280 H        1 ZINC000040575510    0.1400
58     H58    -8.8176   -5.3807   -3.0507 H        1 ZINC000040575510    0.1400
59     H59    -7.0744    3.8666   -0.0119 H        1 ZINC000040575510    0.1600
60     H60    -8.9750   -0.7013    0.0565 H        1 ZINC000040575510    0.1400
61     H61   -11.9495    3.2121   -0.0651 H        1 ZINC000040575510    0.1400
62     H62   -11.1702    2.9134    1.5215 H        1 ZINC000040575510    0.1000
@<TRIPOS>BOND
1     1     2     1
2     1     37    1
3     1     38    1
4     1     39    1
5     2     3     1
6     3     8     ar
7     3     4     ar
8     4     5     ar
9     4     40    1
10    5     25    1
11    5     6     ar
12    6     7     ar
13    6     11    1
14    7     8     ar
15    7     41    1
16    8     9     1
17    9     10    1
18    10    42    1
19    10    43    1
20    10    44    1
21    11    12    2
22    11    13    am
23    13    14    1
24    13    24    1
25    14    15    1
26    14    45    1
27    14    46    1
28    15    16    1
29    15    47    1
30    15    48    1
31    16    17    1
32    16    49    1
33    16    50    1
34    17    18    1
35    17    23    1
36    17    19    1
37    19    20    1
38    19    51    1
39    19    52    1
40    20    21    1
41    20    53    1
42    20    54    1
43    21    22    1
44    22    23    1
45    22    55    1
46    22    56    1
47    23    57    1
48    23    58    1
49    24    33    1
50    24    25    2
51    25    26    1
52    26    27    2
53    26    28    1
54    28    33    ar
55    28    29    ar
56    29    30    ar
57    29    59    1
58    30    36    1
59    30    31    ar
60    31    32    ar
61    31    34    1
62    32    33    ar
63    32    60    1
64    34    35    1
65    35    36    1
66    35    61    1
67    35    62    1
@<TRIPOS>SUBSTRUCTURE
1   ZINC000040575510 1     RESIDUE    1   A     ZIN   1
