@<TRIPOS>MOLECULE
ZINC000096273105
71    74    1     0     0
SMALL
USER_CHARGES
@<TRIPOS>ATOM
1      C1      4.4087    0.2795    3.8871 C.3      1 ZINC000096273105    0.0300
2      O2      4.0183   -0.8057    3.0433 O.3      1 ZINC000096273105   -0.3300
3      C3      2.7595   -0.7669    2.5304 C.ar     1 ZINC000096273105    0.1000
4      C4      1.9253    0.2916    2.8279 C.ar     1 ZINC000096273105   -0.1600
5      C5      0.6306    0.3285    2.2979 C.ar     1 ZINC000096273105   -0.0800
6      C6     -0.2632    1.4557    2.6118 C.2      1 ZINC000096273105    0.5100
7      O7      0.1257    2.3613    3.3365 O.co2    1 ZINC000096273105   -0.6800
8      O8     -1.3948    1.4867    2.1478 O.co2    1 ZINC000096273105   -0.6800
9      C9      0.1876   -0.7073    1.4692 C.ar     1 ZINC000096273105   -0.1100
10     C10     1.0246   -1.7609    1.1764 C.ar     1 ZINC000096273105   -0.0900
11     C11     2.3126   -1.7951    1.6980 C.ar     1 ZINC000096273105    0.0700
12     N12     3.1567   -2.8647    1.3985 N.am     1 ZINC000096273105   -0.6100
13     C13     2.6406   -4.0916    1.1867 C.2      1 ZINC000096273105    0.5000
14     O14     1.4382   -4.2494    1.1718 O.2      1 ZINC000096273105   -0.5100
15     C15     3.5576   -5.2674    0.9684 C.3      1 ZINC000096273105    0.0100
16     H16     4.3960   -4.9817    0.3331 H        1 ZINC000096273105    0.1800
17     N17     2.8118   -6.4008    0.3634 N.4      1 ZINC000096273105   -0.5000
18     H18     2.1562   -6.0641   -0.3258 H        1 ZINC000096273105    0.4400
19     H19     3.4508   -7.0626   -0.0512 H        1 ZINC000096273105    0.4300
20     C20     2.0921   -7.0165    1.5079 C.3      1 ZINC000096273105    0.0300
21     H21     1.1994   -6.4398    1.7502 H        1 ZINC000096273105    0.1900
22     C22     1.7191   -8.4652    1.1867 C.3      1 ZINC000096273105   -0.1400
23     C23     0.7244   -8.4901    0.0245 C.3      1 ZINC000096273105   -0.0800
24     C24     1.3936   -7.9286   -1.2317 C.3      1 ZINC000096273105   -0.1800
25     C25     0.2795   -9.9307   -0.2353 C.3      1 ZINC000096273105   -0.1500
26     C26    -0.4946   -7.6358    0.3781 C.3      1 ZINC000096273105   -0.1700
27     C27     3.1007   -6.9637    2.6755 C.3      1 ZINC000096273105    0.1000
28     C28     3.8361   -8.2350    2.7737 C.1      1 ZINC000096273105    0.1900
29     N29     4.4037   -9.2161    2.8495 N.1      1 ZINC000096273105   -0.3500
30     C30     2.3874   -6.6712    3.9704 C.ar     1 ZINC000096273105   -0.1400
31     C31     1.0073   -6.6110    4.0007 C.ar     1 ZINC000096273105   -0.0600
32     C32     0.3522   -6.3427    5.1882 C.ar     1 ZINC000096273105   -0.1100
33     C33     1.0776   -6.1343    6.3475 C.ar     1 ZINC000096273105    0.0100
34     Cl34    0.2540   -5.7981    7.8382 Cl       1 ZINC000096273105   -0.0300
35     C35     2.4594   -6.1942    6.3190 C.ar     1 ZINC000096273105   -0.1400
36     C36     3.1150   -6.4684    5.1312 C.ar     1 ZINC000096273105    0.1400
37     F37     4.4644   -6.5277    5.1020 F        1 ZINC000096273105   -0.1200
38     C38     4.0673   -5.8110    2.3204 C.3      1 ZINC000096273105   -0.0400
39     H39     4.0250   -5.0330    3.0826 H        1 ZINC000096273105    0.1500
40     C40     5.4748   -6.3318    2.1829 C.ar     1 ZINC000096273105   -0.1400
41     C41     5.7664   -7.2930    1.2338 C.ar     1 ZINC000096273105   -0.0900
42     C42     7.0575   -7.7711    1.1065 C.ar     1 ZINC000096273105   -0.1000
43     C43     8.0585   -7.2889    1.9286 C.ar     1 ZINC000096273105   -0.0600
44     C44     7.7693   -6.3272    2.8798 C.ar     1 ZINC000096273105   -0.0700
45     Cl45    9.0263   -5.7217    3.9128 Cl       1 ZINC000096273105   -0.0200
46     C46     6.4770   -5.8432    3.0036 C.ar     1 ZINC000096273105    0.1500
47     F47     6.1928   -4.9039    3.9321 F        1 ZINC000096273105   -0.1100
48     H48     5.4326    0.1249    4.2275 H        1 ZINC000096273105    0.1000
49     H49     4.3485    1.2137    3.3288 H        1 ZINC000096273105    0.0600
50     H50     3.7427    0.3275    4.7487 H        1 ZINC000096273105    0.0600
51     H51     2.2708    1.0895    3.4685 H        1 ZINC000096273105    0.1400
52     H52    -0.8111   -0.6810    1.0590 H        1 ZINC000096273105    0.1400
53     H53     0.6810   -2.5603    0.5366 H        1 ZINC000096273105    0.1400
54     H54     4.1150   -2.7254    1.3427 H        1 ZINC000096273105    0.4200
55     H55     2.6164   -9.0183    0.9089 H        1 ZINC000096273105    0.0900
56     H56     1.2649   -8.9264    2.0636 H        1 ZINC000096273105    0.1200
57     H57     2.4522   -8.1883   -1.2264 H        1 ZINC000096273105    0.0600
58     H58     0.9197   -8.3535   -2.1166 H        1 ZINC000096273105    0.1000
59     H59     1.2856   -6.8441   -1.2470 H        1 ZINC000096273105    0.0600
60     H60    -0.1972  -10.3307    0.6596 H        1 ZINC000096273105    0.0700
61     H61    -0.4292   -9.9485   -1.0633 H        1 ZINC000096273105    0.0700
62     H62     1.1480  -10.5393   -0.4872 H        1 ZINC000096273105    0.0600
63     H63    -0.1777   -6.6094    0.5632 H        1 ZINC000096273105    0.0600
64     H64    -1.2033   -7.6535   -0.4499 H        1 ZINC000096273105    0.0800
65     H65    -0.9713   -8.0358    1.2730 H        1 ZINC000096273105    0.0700
66     H66     0.4400   -6.7732    3.0961 H        1 ZINC000096273105    0.1500
67     H67    -0.7266   -6.2955    5.2107 H        1 ZINC000096273105    0.1600
68     H68     3.0261   -6.0312    7.2238 H        1 ZINC000096273105    0.1600
69     H69     4.9851   -7.6712    0.5911 H        1 ZINC000096273105    0.1200
70     H70     7.2839   -8.5223    0.3643 H        1 ZINC000096273105    0.1500
71     H71     9.0665   -7.6634    1.8285 H        1 ZINC000096273105    0.1600
@<TRIPOS>BOND
1     1     2     1
2     1     48    1
3     1     49    1
4     1     50    1
5     2     3     1
6     3     11    ar
7     3     4     ar
8     4     5     ar
9     4     51    1
10    5     6     1
11    5     9     ar
12    6     7     ar
13    6     8     ar
14    9     10    ar
15    9     52    1
16    10    11    ar
17    10    53    1
18    11    12    1
19    12    13    am
20    12    54    1
21    13    14    2
22    13    15    1
23    15    16    1
24    15    38    1
25    15    17    1
26    17    18    1
27    17    19    1
28    17    20    1
29    20    21    1
30    20    22    1
31    20    27    1
32    22    23    1
33    22    55    1
34    22    56    1
35    23    24    1
36    23    25    1
37    23    26    1
38    24    57    1
39    24    58    1
40    24    59    1
41    25    60    1
42    25    61    1
43    25    62    1
44    26    63    1
45    26    64    1
46    26    65    1
47    27    28    1
48    27    30    1
49    27    38    1
50    28    29    3
51    30    36    ar
52    30    31    ar
53    31    32    ar
54    31    66    1
55    32    33    ar
56    32    67    1
57    33    34    1
58    33    35    ar
59    35    36    ar
60    35    68    1
61    36    37    1
62    38    39    1
63    38    40    1
64    40    46    ar
65    40    41    ar
66    41    42    ar
67    41    69    1
68    42    43    ar
69    42    70    1
70    43    44    ar
71    43    71    1
72    44    45    1
73    44    46    ar
74    46    47    1
@<TRIPOS>SUBSTRUCTURE
1   ZINC000096273105 1     RESIDUE    1   A     ZIN   1
