@<TRIPOS>MOLECULE
ZINC000003990419
54    56    1     0     0
SMALL
USER_CHARGES
@<TRIPOS>ATOM
1      C1      0.8594    1.0010   -0.6245 C.3      1 ZINC000003990419    0.0300
2      O2      0.7455   -0.4190   -0.7369 O.3      1 ZINC000003990419   -0.3200
3      C3     -0.4586   -0.9683   -0.4246 C.ar     1 ZINC000003990419    0.0900
4      C4     -1.5086   -0.1557   -0.0243 C.ar     1 ZINC000003990419   -0.1600
5      C5     -2.7319   -0.7138    0.2930 C.ar     1 ZINC000003990419   -0.1700
6      C6     -2.9099   -2.0867    0.2111 C.ar     1 ZINC000003990419    0.1100
7      O7     -4.1139   -2.6360    0.5234 O.3      1 ZINC000003990419   -0.3000
8      C8     -5.1506   -1.7396    0.9280 C.3      1 ZINC000003990419    0.0200
9      C9     -6.4209   -2.5348    1.2361 C.3      1 ZINC000003990419    0.0600
10     F10    -6.1961   -3.3633    2.3407 F        1 ZINC000003990419   -0.2100
11     C11    -1.8597   -2.8995   -0.1898 C.ar     1 ZINC000003990419   -0.1000
12     C12    -2.0533   -4.3913   -0.2797 C.3      1 ZINC000003990419    0.1700
13     N13    -2.7380   -4.7202   -1.5325 N.am     1 ZINC000003990419   -0.5600
14     C14    -2.0216   -4.9730   -2.6457 C.2      1 ZINC000003990419    0.5200
15     C15    -2.7259   -5.3114   -3.9343 C.3      1 ZINC000003990419   -0.1700
16     O16    -0.8100   -4.9282   -2.6104 O.2      1 ZINC000003990419   -0.5300
17     C17    -4.1374   -4.7719   -1.5732 C.ar     1 ZINC000003990419    0.1400
18     C18    -4.8662   -3.6342   -1.8858 C.ar     1 ZINC000003990419   -0.0900
19     C19    -6.2488   -3.6880   -1.9254 C.ar     1 ZINC000003990419    0.0700
20     F20    -6.9583   -2.5795   -2.2304 F        1 ZINC000003990419   -0.1400
21     C21    -6.9059   -4.8758   -1.6534 C.ar     1 ZINC000003990419   -0.1100
22     C22    -6.1842   -6.0131   -1.3407 C.ar     1 ZINC000003990419   -0.1600
23     C23    -4.8001   -5.9681   -1.3053 C.ar     1 ZINC000003990419    0.1200
24     O24    -4.0898   -7.0863   -0.9978 O.3      1 ZINC000003990419   -0.2500
25     C25    -4.7787   -8.2287   -0.7396 C.ar     1 ZINC000003990419    0.0700
26     C26    -5.0839   -9.1046   -1.7717 C.ar     1 ZINC000003990419   -0.1200
27     C27    -5.7839  -10.2655   -1.5064 C.ar     1 ZINC000003990419   -0.1100
28     C28    -6.1805  -10.5551   -0.2138 C.ar     1 ZINC000003990419   -0.1100
29     C29    -5.8776   -9.6840    0.8165 C.ar     1 ZINC000003990419   -0.1100
30     C30    -5.1733   -8.5243    0.5575 C.ar     1 ZINC000003990419   -0.1200
31     C31    -0.6383   -2.3411   -0.5120 C.ar     1 ZINC000003990419   -0.0900
32     H32     1.8679    1.3077   -0.9020 H        1 ZINC000003990419    0.1000
33     H33     0.1389    1.4771   -1.2896 H        1 ZINC000003990419    0.0500
34     H34     0.6583    1.3014    0.4038 H        1 ZINC000003990419    0.0500
35     H35    -1.3699    0.9134    0.0398 H        1 ZINC000003990419    0.1300
36     H36    -3.5495   -0.0810    0.6051 H        1 ZINC000003990419    0.1300
37     H37    -4.8354   -1.1985    1.8202 H        1 ZINC000003990419    0.0800
38     H38    -5.3517   -1.0305    0.1250 H        1 ZINC000003990419    0.0800
39     H39    -7.2358   -1.8459    1.4586 H        1 ZINC000003990419    0.1000
40     H40    -6.6863   -3.1447    0.3725 H        1 ZINC000003990419    0.0800
41     H41    -1.0823   -4.8859   -0.2557 H        1 ZINC000003990419    0.1000
42     H42    -2.6551   -4.7310    0.5632 H        1 ZINC000003990419    0.0900
43     H43    -2.9254   -4.3955   -4.4907 H        1 ZINC000003990419    0.0900
44     H44    -2.0945   -5.9690   -4.5317 H        1 ZINC000003990419    0.1000
45     H45    -3.6672   -5.8142   -3.7127 H        1 ZINC000003990419    0.0800
46     H46    -4.3552   -2.7067   -2.0980 H        1 ZINC000003990419    0.1400
47     H47    -7.9847   -4.9142   -1.6852 H        1 ZINC000003990419    0.1400
48     H48    -6.6997   -6.9381   -1.1286 H        1 ZINC000003990419    0.1400
49     H49    -4.7748   -8.8787   -2.7815 H        1 ZINC000003990419    0.1300
50     H50    -6.0221  -10.9474   -2.3093 H        1 ZINC000003990419    0.1300
51     H51    -6.7280  -11.4631   -0.0085 H        1 ZINC000003990419    0.1300
52     H52    -6.1885   -9.9125    1.8252 H        1 ZINC000003990419    0.1300
53     H53    -4.9369   -7.8442    1.3626 H        1 ZINC000003990419    0.1300
54     H54     0.1792   -2.9738   -0.8245 H        1 ZINC000003990419    0.1400
@<TRIPOS>BOND
1     1     2     1
2     1     32    1
3     1     33    1
4     1     34    1
5     2     3     1
6     3     31    ar
7     3     4     ar
8     4     5     ar
9     4     35    1
10    5     6     ar
11    5     36    1
12    6     7     1
13    6     11    ar
14    7     8     1
15    8     9     1
16    8     37    1
17    8     38    1
18    9     10    1
19    9     39    1
20    9     40    1
21    11    12    1
22    11    31    ar
23    12    13    1
24    12    41    1
25    12    42    1
26    13    14    am
27    13    17    1
28    14    15    1
29    14    16    2
30    15    43    1
31    15    44    1
32    15    45    1
33    17    23    ar
34    17    18    ar
35    18    19    ar
36    18    46    1
37    19    20    1
38    19    21    ar
39    21    22    ar
40    21    47    1
41    22    23    ar
42    22    48    1
43    23    24    1
44    24    25    1
45    25    30    ar
46    25    26    ar
47    26    27    ar
48    26    49    1
49    27    28    ar
50    27    50    1
51    28    29    ar
52    28    51    1
53    29    30    ar
54    29    52    1
55    30    53    1
56    31    54    1
@<TRIPOS>SUBSTRUCTURE
1   ZINC000003990419 1     RESIDUE    1   A     ZIN   1
