@<TRIPOS>MOLECULE
ZINC000004215863
53    56    1     0     0
SMALL
USER_CHARGES
@<TRIPOS>ATOM
1      C1      0.0241    1.5069    0.0780 C.3      1 ZINC000004215863   -0.1600
2      C2      0.0207   -0.0226    0.0377 C.3      1 ZINC000004215863   -0.1500
3      C3      0.7414   -0.5011   -1.2242 C.3      1 ZINC000004215863    0.1500
4      O4      2.1113   -0.0957   -1.1950 O.3      1 ZINC000004215863   -0.5500
5      C5      0.0408    0.0587   -2.4873 C.3      1 ZINC000004215863   -0.1500
6      C6     -0.5207   -1.1681   -3.2566 C.3      1 ZINC000004215863   -0.1100
7      C7     -0.6662   -2.2258   -2.1568 C.3      1 ZINC000004215863   -0.0800
8      H8     -1.5366   -2.0113   -1.5368 H        1 ZINC000004215863    0.0700
9      C9     -0.6970   -3.6682   -2.6283 C.3      1 ZINC000004215863   -0.0700
10     H10     0.2089   -3.8907   -3.1923 H        1 ZINC000004215863    0.0800
11     C11    -1.9254   -3.9004   -3.5108 C.3      1 ZINC000004215863   -0.1100
12     C12    -1.9231   -5.3439   -4.0214 C.3      1 ZINC000004215863   -0.0900
13     C13    -1.8486   -6.2741   -2.8222 C.2      1 ZINC000004215863   -0.1100
14     C14    -2.7213   -7.2348   -2.7335 C.2      1 ZINC000004215863   -0.1600
15     C15    -2.7526   -8.2127   -1.5942 C.3      1 ZINC000004215863   -0.0900
16     C16    -1.3467   -8.3283   -0.9967 C.3      1 ZINC000004215863   -0.1200
17     C17    -0.8777   -6.9303   -0.5939 C.3      1 ZINC000004215863   -0.1100
18     C18    -0.7663   -6.0299   -1.8123 C.3      1 ZINC000004215863   -0.0400
19     H19     0.1902   -6.2272   -2.2963 H        1 ZINC000004215863    0.0700
20     C20    -0.7636   -4.5609   -1.3795 C.3      1 ZINC000004215863   -0.0700
21     H21    -1.6910   -4.3417   -0.8504 H        1 ZINC000004215863    0.0700
22     C22     0.4173   -4.3132   -0.4458 C.3      1 ZINC000004215863   -0.1100
23     C23     0.5478   -2.8270   -0.0768 C.3      1 ZINC000004215863   -0.1000
24     C24     0.6416   -2.0182   -1.3466 C.3      1 ZINC000004215863   -0.0500
25     C25     1.7825   -2.5496   -2.2166 C.3      1 ZINC000004215863   -0.1400
26     H26     1.0525    1.8678    0.0879 H        1 ZINC000004215863    0.0500
27     H27    -0.4886    1.8947   -0.8023 H        1 ZINC000004215863    0.0600
28     H28    -0.4893    1.8478    0.9770 H        1 ZINC000004215863    0.0600
29     H29     0.5334   -0.4103    0.9180 H        1 ZINC000004215863    0.0700
30     H30    -1.0078   -0.3835    0.0278 H        1 ZINC000004215863    0.0700
31     H31     2.2372    0.8614   -1.1380 H        1 ZINC000004215863    0.3700
32     H32    -0.7730    0.7244   -2.1997 H        1 ZINC000004215863    0.0700
33     H33     0.7599    0.5927   -3.1084 H        1 ZINC000004215863    0.0700
34     H34    -1.4895   -0.9357   -3.6988 H        1 ZINC000004215863    0.0700
35     H35     0.1832   -1.4998   -4.0200 H        1 ZINC000004215863    0.0700
36     H36    -2.8296   -3.7226   -2.9287 H        1 ZINC000004215863    0.0600
37     H37    -1.8986   -3.2154   -4.3582 H        1 ZINC000004215863    0.0600
38     H38    -2.8387   -5.5375   -4.5802 H        1 ZINC000004215863    0.0700
39     H39    -1.0583   -5.5045   -4.6652 H        1 ZINC000004215863    0.0700
40     H40    -3.4583   -7.3340   -3.5167 H        1 ZINC000004215863    0.1000
41     H41    -3.4457   -7.8606   -0.8302 H        1 ZINC000004215863    0.0700
42     H42    -3.0749   -9.1878   -1.9593 H        1 ZINC000004215863    0.0700
43     H43    -1.3728   -8.9738   -0.1189 H        1 ZINC000004215863    0.0600
44     H44    -0.6655   -8.7444   -1.7389 H        1 ZINC000004215863    0.0600
45     H45    -1.5928   -6.4997    0.1070 H        1 ZINC000004215863    0.0600
46     H46     0.0970   -7.0037   -0.1116 H        1 ZINC000004215863    0.0700
47     H47     0.2781   -4.8949    0.4655 H        1 ZINC000004215863    0.0600
48     H48     1.3338   -4.6392   -0.9375 H        1 ZINC000004215863    0.0700
49     H49    -0.3439   -2.4971    0.4563 H        1 ZINC000004215863    0.0600
50     H50     1.4304   -2.6748    0.5444 H        1 ZINC000004215863    0.0700
51     H51     1.6537   -3.6211   -2.3700 H        1 ZINC000004215863    0.0600
52     H52     1.7718   -2.0408   -3.1805 H        1 ZINC000004215863    0.0500
53     H53     2.7348   -2.3657   -1.7192 H        1 ZINC000004215863    0.0600
@<TRIPOS>BOND
1     1     2     1
2     1     26    1
3     1     27    1
4     1     28    1
5     2     3     1
6     2     29    1
7     2     30    1
8     3     24    1
9     3     4     1
10    3     5     1
11    4     31    1
12    5     6     1
13    5     32    1
14    5     33    1
15    6     7     1
16    6     34    1
17    6     35    1
18    7     8     1
19    7     24    1
20    7     9     1
21    9     10    1
22    9     20    1
23    9     11    1
24    11    12    1
25    11    36    1
26    11    37    1
27    12    13    1
28    12    38    1
29    12    39    1
30    13    18    1
31    13    14    2
32    14    15    1
33    14    40    1
34    15    16    1
35    15    41    1
36    15    42    1
37    16    17    1
38    16    43    1
39    16    44    1
40    17    18    1
41    17    45    1
42    17    46    1
43    18    19    1
44    18    20    1
45    20    21    1
46    20    22    1
47    22    23    1
48    22    47    1
49    22    48    1
50    23    24    1
51    23    49    1
52    23    50    1
53    24    25    1
54    25    51    1
55    25    52    1
56    25    53    1
@<TRIPOS>SUBSTRUCTURE
1   ZINC000004215863 1     RESIDUE    1   A     ZIN   1
