@<TRIPOS>MOLECULE
ZINC000100270141
50    54    1     0     0
SMALL
USER_CHARGES
@<TRIPOS>ATOM
1      C1      2.7187    0.5689   -2.1025 C.3      1 ZINC000100270141    0.0200
2      N2      2.3339   -0.8224   -1.8300 N.3      1 ZINC000100270141   -0.5500
3      C3      0.8853   -0.9346   -1.6097 C.3      1 ZINC000100270141    0.0500
4      C4      0.5151   -2.4060   -1.4087 C.3      1 ZINC000100270141    0.0500
5      N5      1.2623   -2.9444   -0.2635 N.3      1 ZINC000100270141   -0.4900
6      C6      0.8959   -4.2691   -0.0041 C.ar     1 ZINC000100270141    0.1200
7      C7     -0.0611   -4.8927   -0.8014 C.ar     1 ZINC000100270141   -0.1700
8      C8     -0.4301   -6.1858   -0.5614 C.ar     1 ZINC000100270141   -0.0400
9      C9      0.1542   -6.8953    0.4923 C.ar     1 ZINC000100270141    0.0400
10     N10    -0.0043   -8.1584    0.9634 N.2      1 ZINC000100270141   -0.5200
11     C11     0.7891   -8.3483    1.9920 C.2      1 ZINC000100270141    0.3800
12     C12     0.8928   -9.5985    2.7629 C.2      1 ZINC000100270141   -0.2800
13     C13     0.2094  -10.7420    2.3423 C.2      1 ZINC000100270141    0.3600
14     N14    -0.5673  -10.7239    1.2088 N.pl3    1 ZINC000100270141   -0.8100
15     C15     0.3448  -11.9631    3.1447 C.ar     1 ZINC000100270141   -0.1800
16     C16    -0.3130  -13.1431    2.7783 C.ar     1 ZINC000100270141    0.1700
17     F17    -1.0878  -13.1743    1.6720 F        1 ZINC000100270141   -0.1200
18     C18    -0.1645  -14.2747    3.5544 C.ar     1 ZINC000100270141   -0.1800
19     C19     0.6303  -14.2455    4.6899 C.ar     1 ZINC000100270141   -0.0200
20     C20     1.2842  -13.0899    5.0629 C.ar     1 ZINC000100270141   -0.1700
21     C21     1.1505  -11.9372    4.2975 C.ar     1 ZINC000100270141    0.2400
22     N22     1.8000  -10.7734    4.6591 N.am     1 ZINC000100270141   -0.6300
23     C23     1.6896   -9.6503    3.9307 C.2      1 ZINC000100270141    0.5800
24     O24     2.2826   -8.6480    4.2903 O.2      1 ZINC000100270141   -0.5500
25     N25     1.5071   -7.2062    2.2395 N.pl3    1 ZINC000100270141   -0.5800
26     C26     1.1205   -6.2685    1.2988 C.ar     1 ZINC000100270141    0.0700
27     C27     1.4908   -4.9573    1.0416 C.ar     1 ZINC000100270141   -0.1300
28     C28     2.7109   -2.8322   -0.4839 C.3      1 ZINC000100270141    0.0600
29     C29     3.0812   -1.3608   -0.6849 C.3      1 ZINC000100270141    0.0500
30     H30     3.7842    0.6136   -2.3282 H        1 ZINC000100270141    0.0700
31     H31     2.1509    0.9427   -2.9545 H        1 ZINC000100270141    0.0700
32     H32     2.5067    1.1827   -1.2270 H        1 ZINC000100270141    0.0300
33     H33     0.6072   -0.3652   -0.7228 H        1 ZINC000100270141    0.0400
34     H34     0.3541   -0.5411   -2.4763 H        1 ZINC000100270141    0.0800
35     H35    -0.5546   -2.4888   -1.2163 H        1 ZINC000100270141    0.0900
36     H36     0.7683   -2.9705   -2.3060 H        1 ZINC000100270141    0.0600
37     H37    -0.5156   -4.3489   -1.6163 H        1 ZINC000100270141    0.1300
38     H38    -1.1733   -6.6600   -1.1852 H        1 ZINC000100270141    0.1300
39     H39    -0.4252  -10.0415    0.5342 H        1 ZINC000100270141    0.4300
40     H40    -1.2577  -11.3936    1.0832 H        1 ZINC000100270141    0.4100
41     H41    -0.6704  -15.1873    3.2759 H        1 ZINC000100270141    0.1500
42     H42     0.7382  -15.1375    5.2893 H        1 ZINC000100270141    0.1500
43     H43     1.9002  -13.0804    5.9500 H        1 ZINC000100270141    0.1500
44     H44     2.3525  -10.7680    5.4563 H        1 ZINC000100270141    0.4200
45     H45     2.1630   -7.0796    2.9429 H        1 ZINC000100270141    0.4300
46     H46     2.2368   -4.4738    1.6549 H        1 ZINC000100270141    0.1200
47     H47     3.2421   -3.2258    0.3828 H        1 ZINC000100270141    0.0900
48     H48     2.9891   -3.4016   -1.3707 H        1 ZINC000100270141    0.0500
49     H49     4.1509   -1.2780   -0.8772 H        1 ZINC000100270141    0.0800
50     H50     2.8280   -0.7963    0.2125 H        1 ZINC000100270141    0.0500
@<TRIPOS>BOND
1     1     2     1
2     1     30    1
3     1     31    1
4     1     32    1
5     2     29    1
6     2     3     1
7     3     4     1
8     3     33    1
9     3     34    1
10    4     5     1
11    4     35    1
12    4     36    1
13    5     6     1
14    5     28    1
15    6     27    ar
16    6     7     ar
17    7     8     ar
18    7     37    1
19    8     9     ar
20    8     38    1
21    9     26    ar
22    9     10    1
23    10    11    2
24    11    12    1
25    11    25    1
26    12    23    1
27    12    13    2
28    13    14    1
29    13    15    1
30    14    39    1
31    14    40    1
32    15    21    ar
33    15    16    ar
34    16    17    1
35    16    18    ar
36    18    19    ar
37    18    41    1
38    19    20    ar
39    19    42    1
40    20    21    ar
41    20    43    1
42    21    22    1
43    22    23    am
44    22    44    1
45    23    24    2
46    25    26    1
47    25    45    1
48    26    27    ar
49    27    46    1
50    28    29    1
51    28    47    1
52    28    48    1
53    29    49    1
54    29    50    1
@<TRIPOS>SUBSTRUCTURE
1   ZINC000100270141 1     RESIDUE    1   A     ZIN   1
