@<TRIPOS>MOLECULE
ZINC000000003961
41    43    1     0     0
SMALL
USER_CHARGES
@<TRIPOS>ATOM
1      C1     -0.0173    1.4248    0.0099 C.3      1 ZINC000000003961    0.0200
2      O2      0.0021   -0.0041    0.0020 O.3      1 ZINC000000003961   -0.2700
3      C3      0.6048   -0.6061   -1.0540 C.ar     1 ZINC000000003961    0.2400
4      C4      1.1707    0.1585   -2.0582 C.ar     1 ZINC000000003961   -0.3000
5      C5      1.7878   -0.4595   -3.1385 C.ar     1 ZINC000000003961    0.3000
6      N6      2.3564    0.3124   -4.1467 N.pl3    1 ZINC000000003961   -0.8600
7      C7      1.8398   -1.8508   -3.2157 C.ar     1 ZINC000000003961   -0.1600
8      Cl8     2.6132   -2.6142   -4.5695 Cl       1 ZINC000000003961   -0.0700
9      C9      1.2805   -2.6204   -2.2219 C.ar     1 ZINC000000003961    0.0100
10     C10     0.6611   -2.0067   -1.1278 C.ar     1 ZINC000000003961   -0.2200
11     C11     0.0615   -2.8271   -0.0625 C.2      1 ZINC000000003961    0.5700
12     O12    -0.4764   -2.2915    0.8878 O.2      1 ZINC000000003961   -0.5200
13     N13     0.1087   -4.1718   -0.1404 N.am     1 ZINC000000003961   -0.7300
14     C14    -0.4880   -4.9883    0.9196 C.3      1 ZINC000000003961    0.1200
15     H15    -1.3814   -4.4945    1.3018 H        1 ZINC000000003961    0.0900
16     C16     0.5223   -5.1723    2.0557 C.3      1 ZINC000000003961    0.0400
17     N17     0.8014   -6.6038    2.2325 N.3      1 ZINC000000003961   -0.5300
18     C18    -0.4147   -7.3357    2.6128 C.3      1 ZINC000000003961    0.0500
19     C19    -1.4521   -7.2126    1.4932 C.3      1 ZINC000000003961   -0.1500
20     C20    -0.8622   -6.3658    0.3583 C.3      1 ZINC000000003961   -0.1000
21     C21     0.4158   -7.0471   -0.1471 C.3      1 ZINC000000003961   -0.1500
22     C22     1.4034   -7.1778    1.0212 C.3      1 ZINC000000003961    0.0500
23     H23     1.0053    1.8021    0.0021 H        1 ZINC000000003961    0.0600
24     H24    -0.5445    1.7859   -0.8732 H        1 ZINC000000003961    0.0600
25     H25    -0.5275    1.7763    0.9067 H        1 ZINC000000003961    0.1100
26     H26     1.1323    1.2364   -2.0026 H        1 ZINC000000003961    0.1400
27     H27     2.3215    1.2804   -4.0946 H        1 ZINC000000003961    0.4100
28     H28     2.7877   -0.1174   -4.9018 H        1 ZINC000000003961    0.4100
29     H29     1.3227   -3.6977   -2.2846 H        1 ZINC000000003961    0.1400
30     H30     0.5377   -4.5990   -0.8982 H        1 ZINC000000003961    0.3900
31     H31     1.4463   -4.6495    1.8090 H        1 ZINC000000003961    0.0800
32     H32     0.1094   -4.7657    2.9789 H        1 ZINC000000003961    0.0800
33     H33    -0.1724   -8.3867    2.7702 H        1 ZINC000000003961    0.0800
34     H34    -0.8204   -6.9140    3.5325 H        1 ZINC000000003961    0.0800
35     H35    -1.7025   -8.2044    1.1167 H        1 ZINC000000003961    0.0700
36     H36    -2.3497   -6.7290    1.8786 H        1 ZINC000000003961    0.0700
37     H37    -1.5887   -6.2607   -0.4475 H        1 ZINC000000003961    0.0900
38     H38     0.1741   -8.0387   -0.5298 H        1 ZINC000000003961    0.0700
39     H39     0.8610   -6.4461   -0.9400 H        1 ZINC000000003961    0.0600
40     H40     2.3211   -6.6398    0.7835 H        1 ZINC000000003961    0.0800
41     H41     1.6314   -8.2305    1.1886 H        1 ZINC000000003961    0.0800
@<TRIPOS>BOND
1     1     2     1
2     1     23    1
3     1     24    1
4     1     25    1
5     2     3     1
6     3     10    ar
7     3     4     ar
8     4     5     ar
9     4     26    1
10    5     6     1
11    5     7     ar
12    6     27    1
13    6     28    1
14    7     8     1
15    7     9     ar
16    9     10    ar
17    9     29    1
18    10    11    1
19    11    12    2
20    11    13    am
21    13    14    1
22    13    30    1
23    14    15    1
24    14    20    1
25    14    16    1
26    16    17    1
27    16    31    1
28    16    32    1
29    17    22    1
30    17    18    1
31    18    19    1
32    18    33    1
33    18    34    1
34    19    20    1
35    19    35    1
36    19    36    1
37    20    21    1
38    20    37    1
39    21    22    1
40    21    38    1
41    21    39    1
42    22    40    1
43    22    41    1
@<TRIPOS>SUBSTRUCTURE
1   ZINC000000003961 1     RESIDUE    1   A     ZIN   1
