@<TRIPOS>MOLECULE
ZINC000000004503
41    44    1     0     0
SMALL
USER_CHARGES
@<TRIPOS>ATOM
1      C1     -0.1963    1.5221   -2.4448 C.3      1 ZINC000000004503   -0.1600
2      C2     -0.0742   -0.0024   -2.4872 C.3      1 ZINC000000004503   -0.1300
3      C3      0.6198   -0.4941   -1.2154 C.3      1 ZINC000000004503   -0.1500
4      C4      0.6316   -2.0240   -1.1997 C.3      1 ZINC000000004503    0.1000
5      C5      1.1648   -2.5418    0.1112 C.cat    1 ZINC000000004503    0.5300
6      N6      1.3698   -3.8189    0.3331 N.pl3    1 ZINC000000004503   -0.6100
7      H7      1.2045   -4.5328   -0.3025 H        1 ZINC000000004503    0.4600
8      C8      1.8907   -3.9974    1.6980 C.3      1 ZINC000000004503    0.0600
9      C9      1.9527   -2.5552    2.2426 C.3      1 ZINC000000004503    0.0600
10     N10     1.4635   -1.7484    1.1130 N.pl3    1 ZINC000000004503   -0.6300
11     C11    -0.7961   -2.5966   -1.4884 C.3      1 ZINC000000004503   -0.0500
12     C12    -0.8075   -2.7367   -2.9923 C.ar     1 ZINC000000004503   -0.1200
13     C13    -1.6926   -2.9537   -4.0250 C.ar     1 ZINC000000004503   -0.0600
14     C14    -1.2097   -2.9345   -5.3301 C.ar     1 ZINC000000004503   -0.1300
15     C15     0.1224   -2.6845   -5.6441 C.ar     1 ZINC000000004503   -0.0600
16     C16     1.0137   -2.4810   -4.6146 C.ar     1 ZINC000000004503   -0.1000
17     C17     0.4971   -2.5982   -3.3598 C.ar     1 ZINC000000004503    0.0400
18     N18     1.4098   -2.5548   -2.3297 N.3      1 ZINC000000004503   -0.4600
19     C19     2.4999   -1.7297   -2.8739 C.3      1 ZINC000000004503    0.0200
20     C20     2.4589   -2.0975   -4.3945 C.3      1 ZINC000000004503   -0.0700
21     H21    -0.7829    1.8155   -1.5742 H        1 ZINC000000004503    0.0600
22     H22     0.7977    1.9645   -2.3791 H        1 ZINC000000004503    0.0600
23     H23    -0.6907    1.8724   -3.3509 H        1 ZINC000000004503    0.0700
24     H24    -1.0682   -0.4449   -2.5530 H        1 ZINC000000004503    0.0800
25     H25     0.5124   -0.2959   -3.3578 H        1 ZINC000000004503    0.0800
26     H26     1.6444   -0.1227   -1.1938 H        1 ZINC000000004503    0.0900
27     H27     0.0814   -0.1259   -0.3422 H        1 ZINC000000004503    0.0900
28     H28     1.2092   -4.6047    2.2937 H        1 ZINC000000004503    0.1300
29     H29     2.8851   -4.4432    1.6752 H        1 ZINC000000004503    0.1300
30     H30     1.3020   -2.4431    3.1099 H        1 ZINC000000004503    0.1300
31     H31     2.9780   -2.2815    2.4914 H        1 ZINC000000004503    0.1300
32     H32     1.3716   -0.7828    1.1110 H        1 ZINC000000004503    0.4600
33     H33    -0.9262   -3.5673   -1.0098 H        1 ZINC000000004503    0.0900
34     H34    -1.5655   -1.8976   -1.1604 H        1 ZINC000000004503    0.1100
35     H35    -2.7386   -3.1353   -3.8263 H        1 ZINC000000004503    0.1300
36     H36    -1.9018   -3.1231   -6.1374 H        1 ZINC000000004503    0.1300
37     H37     0.4502   -2.6511   -6.6726 H        1 ZINC000000004503    0.1400
38     H38     2.2973   -0.6692   -2.7243 H        1 ZINC000000004503    0.0800
39     H39     3.4566   -2.0080   -2.4318 H        1 ZINC000000004503    0.1000
40     H40     3.1174   -2.9402   -4.6048 H        1 ZINC000000004503    0.1000
41     H41     2.7264   -1.2361   -5.0065 H        1 ZINC000000004503    0.0900
@<TRIPOS>BOND
1     1     2     1
2     1     21    1
3     1     22    1
4     1     23    1
5     2     3     1
6     2     24    1
7     2     25    1
8     3     4     1
9     3     26    1
10    3     27    1
11    4     18    1
12    4     5     1
13    4     11    1
14    5     10    ar
15    5     6     ar
16    6     7     1
17    6     8     1
18    8     9     1
19    8     28    1
20    8     29    1
21    9     10    1
22    9     30    1
23    9     31    1
24    10    32    1
25    11    12    1
26    11    33    1
27    11    34    1
28    12    17    ar
29    12    13    ar
30    13    14    ar
31    13    35    1
32    14    15    ar
33    14    36    1
34    15    16    ar
35    15    37    1
36    16    20    1
37    16    17    ar
38    17    18    1
39    18    19    1
40    19    20    1
41    19    38    1
42    19    39    1
43    20    40    1
44    20    41    1
@<TRIPOS>SUBSTRUCTURE
1   ZINC000000004503 1     RESIDUE    1   A     ZIN   1
