@<TRIPOS>MOLECULE
ZINC000000006856
33    35    1     0     0
SMALL
USER_CHARGES
@<TRIPOS>ATOM
1      O1      0.0021   -0.0041    0.0020 O.2      1 ZINC000000006856   -0.5100
2      C2     -0.0144    1.2131    0.0087 C.2      1 ZINC000000006856    0.6600
3      N3     -1.1333    1.9436    0.0291 N.2      1 ZINC000000006856   -0.6000
4      C4     -0.8915    3.2303    0.0323 C.2      1 ZINC000000006856    0.4400
5      N5     -1.8027    4.2275    0.0517 N.pl3    1 ZINC000000006856   -0.5500
6      C6     -1.3824    5.6377    0.0472 C.3      1 ZINC000000006856    0.0700
7      C7     -2.1508    6.3677   -1.0604 C.3      1 ZINC000000006856    0.0500
8      O8     -3.5504    6.1228   -0.9022 O.3      1 ZINC000000006856   -0.3700
9      C9     -3.9224    4.7485   -1.0316 C.3      1 ZINC000000006856    0.0500
10     C10    -3.2448    3.9356    0.0717 C.3      1 ZINC000000006856    0.0800
11     C11     0.6170    3.3752    0.0108 C.3      1 ZINC000000006856    0.0800
12     N12     1.0930    1.9799    0.0023 N.am     1 ZINC000000006856   -0.5900
13     C13     2.4219    1.5421   -0.0174 C.ar     1 ZINC000000006856    0.1900
14     C14     3.4586    2.4661   -0.0253 C.ar     1 ZINC000000006856   -0.1500
15     C15     4.7693    2.0313   -0.0442 C.ar     1 ZINC000000006856   -0.0800
16     C16     5.0500    0.6763   -0.0552 C.ar     1 ZINC000000006856   -0.0600
17     Cl17    6.6987    0.1332   -0.0789 Cl       1 ZINC000000006856   -0.0700
18     C18     4.0189   -0.2465   -0.0469 C.ar     1 ZINC000000006856   -0.0800
19     C19     2.7065    0.1828   -0.0232 C.ar     1 ZINC000000006856   -0.1400
20     H20    -1.6095    6.0915    1.0119 H        1 ZINC000000006856    0.1000
21     H21    -0.3116    5.7011   -0.1459 H        1 ZINC000000006856    0.1000
22     H22    -1.9586    7.4384   -0.9920 H        1 ZINC000000006856    0.1200
23     H23    -1.8245    5.9999   -2.0331 H        1 ZINC000000006856    0.0600
24     H24    -5.0047    4.6543   -0.9426 H        1 ZINC000000006856    0.1200
25     H25    -3.6025    4.3748   -2.0043 H        1 ZINC000000006856    0.0600
26     H26    -3.4081    2.8722   -0.1028 H        1 ZINC000000006856    0.1200
27     H27    -3.6573    4.2167    1.0407 H        1 ZINC000000006856    0.0900
28     H28     0.9399    3.9006   -0.8879 H        1 ZINC000000006856    0.1200
29     H29     0.9663    3.8911    0.9052 H        1 ZINC000000006856    0.1200
30     H30     3.2400    3.5237   -0.0170 H        1 ZINC000000006856    0.1300
31     H31     5.5759    2.7495   -0.0507 H        1 ZINC000000006856    0.1400
32     H32     4.2407   -1.3035   -0.0552 H        1 ZINC000000006856    0.1400
33     H33     1.9021   -0.5378   -0.0163 H        1 ZINC000000006856    0.1600
@<TRIPOS>BOND
1     1     2     2
2     2     12    am
3     2     3     1
4     3     4     2
5     4     5     1
6     4     11    1
7     5     10    1
8     5     6     1
9     6     7     1
10    6     20    1
11    6     21    1
12    7     8     1
13    7     22    1
14    7     23    1
15    8     9     1
16    9     10    1
17    9     24    1
18    9     25    1
19    10    26    1
20    10    27    1
21    11    12    1
22    11    28    1
23    11    29    1
24    12    13    1
25    13    19    ar
26    13    14    ar
27    14    15    ar
28    14    30    1
29    15    16    ar
30    15    31    1
31    16    17    1
32    16    18    ar
33    18    19    ar
34    18    32    1
35    19    33    1
@<TRIPOS>SUBSTRUCTURE
1   ZINC000000006856 1     RESIDUE    1   A     ZIN   1
