@<TRIPOS>MOLECULE
ZINC000003812903
  44   45    0    0    0
SMALL
USER_CHARGES
NO_NAME
@<TRIPOS>ATOM
    1 C1       -0.0173     1.4248     0.0099 C.3    1 <0>       0.0200
    2 O2        0.0021    -0.0041     0.0020 O.3    1 <0>      -0.3000
    3 C3        0.6062    -0.6076    -1.0565 C.ar   1 <0>       0.1500
    4 C4        1.1708     0.1591    -2.0586 C.ar   1 <0>      -0.1700
    5 C5        1.7912    -0.4614    -3.1457 C.ar   1 <0>      -0.0800
    6 C6        2.3953     0.3549    -4.2170 C.2    1 <0>       0.5800
    7 O7        2.3532     1.5683    -4.1538 O.2    1 <0>      -0.5100
    8 N8        2.9936    -0.2450    -5.2652 N.am   1 <0>      -0.7300
    9 C9        3.5932     0.5652    -6.3284 C.3    1 <0>       0.1300
   10 H10       2.9971     1.4650    -6.4804 H      1 <0>       0.1100
   11 C11       5.0189     0.9574    -5.9302 C.3    1 <0>      -0.1500
   12 C12       5.6635     1.7367    -7.0802 C.3    1 <0>      -0.1400
   13 C13       5.6301     0.8828    -8.3495 C.3    1 <0>      -0.0100
   14 N14       4.2390     0.5633    -8.6922 N.4    1 <0>      -0.5000
   15 H15       3.7154     1.4190    -8.8007 H      1 <0>       0.4300
   16 H16       4.2174     0.0449    -9.5575 H      1 <0>       0.4400
   17 C17       3.6354    -0.2449    -7.6259 C.3    1 <0>      -0.0200
   18 C18       1.8394    -1.8558    -3.2169 C.ar   1 <0>      -0.2000
   19 C19       1.2734    -2.6179    -2.2121 C.ar   1 <0>       0.1400
   20 O20       1.3199    -3.9754    -2.2809 O.3    1 <0>      -0.3000
   21 C21       1.9691    -4.5455    -3.4191 C.3    1 <0>       0.0200
   22 C22       0.6606    -1.9970    -1.1270 C.ar   1 <0>       0.0700
   23 O23       0.1052    -2.7485    -0.1403 O.3    1 <0>      -0.3100
   24 C24       0.9491    -3.1057     0.9561 C.3    1 <0>       0.0400
   25 H25       1.0053     1.8021     0.0021 H      1 <0>       0.0600
   26 H26      -0.5445     1.7859    -0.8732 H      1 <0>       0.0600
   27 H27      -0.5275     1.7763     0.9067 H      1 <0>       0.1100
   28 H28       1.1319     1.2369    -2.0015 H      1 <0>       0.1500
   29 H29       3.0273    -1.2131    -5.3156 H      1 <0>       0.4100
   30 H30       4.9892     1.5826    -5.0378 H      1 <0>       0.1000
   31 H31       5.6011     0.0585    -5.7276 H      1 <0>       0.0900
   32 H32       5.1106     2.6608    -7.2485 H      1 <0>       0.0900
   33 H33       6.6973     1.9713    -6.8265 H      1 <0>       0.1200
   34 H34       6.0884     1.4345    -9.1702 H      1 <0>       0.1400
   35 H35       6.1834    -0.0410    -8.1802 H      1 <0>       0.1300
   36 H36       4.2308    -1.1448    -7.4715 H      1 <0>       0.1400
   37 H37       2.6220    -0.5256    -7.9128 H      1 <0>       0.1400
   38 H38       2.3182    -2.3379    -4.0564 H      1 <0>       0.1300
   39 H39       1.4594    -4.2236    -4.3272 H      1 <0>       0.0600
   40 H40       3.0074    -4.2150    -3.4486 H      1 <0>       0.0600
   41 H41       1.9358    -5.6328    -3.3497 H      1 <0>       0.1100
   42 H42       1.7965    -3.6847     0.5888 H      1 <0>       0.0500
   43 H43       1.3115    -2.2016     1.4453 H      1 <0>       0.0500
   44 H44       0.3830    -3.7035     1.6706 H      1 <0>       0.1000
@<TRIPOS>BOND
   1    1    2 1
   2    1   25 1
   3    1   26 1
   4    1   27 1
   5    2    3 1
   6    3   22 ar
   7    3    4 ar
   8    4    5 ar
   9    4   28 1
  10    5    6 1
  11    5   18 ar
  12    6    7 2
  13    6    8 am
  14    8    9 1
  15    8   29 1
  16    9   10 1
  17    9   17 1
  18    9   11 1
  19   11   12 1
  20   11   30 1
  21   11   31 1
  22   12   13 1
  23   12   32 1
  24   12   33 1
  25   13   14 1
  26   13   34 1
  27   13   35 1
  28   14   15 1
  29   14   16 1
  30   14   17 1
  31   17   36 1
  32   17   37 1
  33   18   19 ar
  34   18   38 1
  35   19   20 1
  36   19   22 ar
  37   20   21 1
  38   21   39 1
  39   21   40 1
  40   21   41 1
  41   22   23 1
  42   23   24 1
  43   24   42 1
  44   24   43 1
  45   24   44 1
