@<TRIPOS>MOLECULE
ZINC000095616582
  44   47    0    0    0
SMALL
USER_CHARGES
NO_NAME
@<TRIPOS>ATOM
    1 O1        0.0720     1.5473    -0.1425 O.3    1 <0>      -0.5600
    2 C2        0.0718     0.1239    -0.0170 C.3    1 <0>       0.1100
    3 H3       -0.9541    -0.2327     0.0752 H      1 <0>       0.0900
    4 C4        0.7182    -0.4975    -1.2568 C.3    1 <0>      -0.1600
    5 C5       -0.1487    -0.2073    -2.4836 C.3    1 <0>       0.1900
    6 H6       -0.3059     0.8666    -2.5842 H      1 <0>       0.1500
    7 C7        0.5130    -0.7516    -3.7248 C.ar   1 <0>      -0.1000
    8 C8        1.7178    -0.4870    -4.3358 C.ar   1 <0>      -0.0800
    9 C9        2.0680    -1.1577    -5.4954 C.ar   1 <0>      -0.0800
   10 C10       1.2100    -2.0944    -6.0432 C.ar   1 <0>      -0.1000
   11 C11      -0.0002    -2.3669    -5.4391 C.ar   1 <0>      -0.0600
   12 C12      -0.3600    -1.6950    -4.2695 C.ar   1 <0>      -0.0700
   13 C13      -1.5614    -1.7711    -3.4141 C.2    1 <0>       0.0800
   14 C14      -2.7668    -2.3858    -3.2637 C.2    1 <0>       0.0300
   15 N15      -3.3428    -1.8948    -2.1601 N.pl3  1 <0>      -0.4700
   16 H16      -4.2107    -2.1592    -1.8169 H      1 <0>       0.4700
   17 C17      -2.5562    -1.0051    -1.6159 C.cat  1 <0>       0.3100
   18 N18      -1.4377    -0.8947    -2.3621 N.pl3  1 <0>      -0.4200
   19 C19       0.8653    -0.2785     1.2277 C.3    1 <0>      -0.1200
   20 C20       2.2684     0.3275     1.1560 C.3    1 <0>      -0.1200
   21 C21       3.0619    -0.0749     2.4008 C.3    1 <0>      -0.1200
   22 C22       2.3465     0.4417     3.6507 C.3    1 <0>      -0.1200
   23 C23       0.9434    -0.1642     3.7224 C.3    1 <0>      -0.1200
   24 C24       0.1499     0.2381     2.4776 C.3    1 <0>      -0.1100
   25 H25       0.9539     1.9345    -0.2288 H      1 <0>       0.3900
   26 H26       1.7097    -0.0690    -1.4030 H      1 <0>       0.1200
   27 H27       0.8048    -1.5754    -1.1198 H      1 <0>       0.0900
   28 H28       2.3897     0.2440    -3.9108 H      1 <0>       0.1400
   29 H29       3.0135    -0.9488    -5.9738 H      1 <0>       0.1500
   30 H30       1.4885    -2.6145    -6.9478 H      1 <0>       0.1500
   31 H31      -0.6674    -3.0988    -5.8698 H      1 <0>       0.1400
   32 H32      -3.1842    -3.1360    -3.9189 H      1 <0>       0.2300
   33 H33      -2.7672    -0.4476    -0.7153 H      1 <0>       0.2600
   34 H34       0.9407    -1.3648     1.2751 H      1 <0>       0.0800
   35 H35       2.7780    -0.0406     0.2656 H      1 <0>       0.0600
   36 H36       2.1930     1.4138     1.1087 H      1 <0>       0.0700
   37 H37       3.1373    -1.1612     2.4482 H      1 <0>       0.0600
   38 H38       4.0614     0.3568     2.3497 H      1 <0>       0.0700
   39 H39       2.9118     0.1551     4.5375 H      1 <0>       0.0700
   40 H40       2.2711     1.5281     3.6033 H      1 <0>       0.0600
   41 H41       1.0188    -1.2506     3.7698 H      1 <0>       0.0600
   42 H42       0.4338     0.2038     4.6128 H      1 <0>       0.0700
   43 H43       0.0745     1.3245     2.4302 H      1 <0>       0.0700
   44 H44      -0.8496    -0.1936     2.5287 H      1 <0>       0.0600
@<TRIPOS>BOND
   1    1    2 1
   2    1   25 1
   3    2    3 1
   4    2    4 1
   5    2   19 1
   6    4    5 1
   7    4   26 1
   8    4   27 1
   9    5    6 1
  10    5   18 1
  11    5    7 1
  12    7   12 ar
  13    7    8 ar
  14    8    9 ar
  15    8   28 1
  16    9   10 ar
  17    9   29 1
  18   10   11 ar
  19   10   30 1
  20   11   12 ar
  21   11   31 1
  22   12   13 1
  23   13   18 1
  24   13   14 2
  25   14   15 1
  26   14   32 1
  27   15   16 1
  28   15   17 ar
  29   17   18 ar
  30   17   33 1
  31   19   24 1
  32   19   20 1
  33   19   34 1
  34   20   21 1
  35   20   35 1
  36   20   36 1
  37   21   22 1
  38   21   37 1
  39   21   38 1
  40   22   23 1
  41   22   39 1
  42   22   40 1
  43   23   24 1
  44   23   41 1
  45   23   42 1
  46   24   43 1
  47   24   44 1
