@<TRIPOS>MOLECULE
ZINC000003860329
23    23    1     0     0
SMALL
USER_CHARGES
@<TRIPOS>ATOM
1      O1     -0.0173    1.4248    0.0099 O.3      1 ZINC000003860329   -0.5700
2      C2      0.0021   -0.0041    0.0020 C.3      1 ZINC000003860329    0.0900
3      C3     -1.4333   -0.5336    0.0129 C.3      1 ZINC000003860329    0.1100
4      H4     -1.9703   -0.1110    0.8621 H        1 ZINC000003860329    0.0800
5      O5     -2.0889   -0.1583   -1.2001 O.3      1 ZINC000003860329   -0.3900
6      C6     -3.4509   -0.5831   -1.2828 C.3      1 ZINC000003860329    0.2700
7      H7     -4.0143   -0.1613   -0.4505 H        1 ZINC000003860329    0.0600
8      O8     -4.0158   -0.1349   -2.5165 O.3      1 ZINC000003860329   -0.5400
9      C9     -3.5121   -2.1114   -1.2183 C.3      1 ZINC000003860329   -0.1800
10     C10    -2.8509   -2.5868    0.0790 C.3      1 ZINC000003860329    0.0800
11     H11    -3.4093   -2.2053    0.9339 H        1 ZINC000003860329    0.0700
12     O12    -2.8398   -4.0154    0.1143 O.3      1 ZINC000003860329   -0.5600
13     C13    -1.4135   -2.0600    0.1297 C.3      1 ZINC000003860329    0.0900
14     H14    -0.8419   -2.4810   -0.6974 H        1 ZINC000003860329    0.0800
15     O15    -0.8098   -2.4378    1.3686 O.3      1 ZINC000003860329   -0.5600
16     H16     0.8606    1.8301    0.0037 H        1 ZINC000003860329    0.3800
17     H17     0.5123   -0.3556   -0.8948 H        1 ZINC000003860329    0.0600
18     H18     0.5293   -0.3651    0.8851 H        1 ZINC000003860329    0.0800
19     H19    -4.0095    0.8258   -2.6260 H        1 ZINC000003860329    0.3900
20     H20    -4.5527   -2.4354   -1.2368 H        1 ZINC000003860329    0.0900
21     H21    -2.9830   -2.5335   -2.0727 H        1 ZINC000003860329    0.0900
22     H22    -3.7190   -4.4165    0.0792 H        1 ZINC000003860329    0.3900
23     H23    -0.7681   -3.3935    1.5105 H        1 ZINC000003860329    0.3900
@<TRIPOS>BOND
1     1     2     1
2     1     16    1
3     2     3     1
4     2     17    1
5     2     18    1
6     3     4     1
7     3     13    1
8     3     5     1
9     5     6     1
10    6     7     1
11    6     8     1
12    6     9     1
13    8     19    1
14    9     10    1
15    9     20    1
16    9     21    1
17    10    11    1
18    10    12    1
19    10    13    1
20    12    22    1
21    13    14    1
22    13    15    1
23    15    23    1
@<TRIPOS>SUBSTRUCTURE
1   ZINC000003860329 1     RESIDUE    1   A     ZIN   1
