@<TRIPOS>MOLECULE
ZINC000001547541
61    63    1     0     0
SMALL
USER_CHARGES
@<TRIPOS>ATOM
1      C1      1.3097   -2.3651   -0.1603 C.3      1 ZINC000001547541   -0.1500
2      C2      0.9033   -2.5827   -1.6192 C.3      1 ZINC000001547541   -0.0900
3      C3     -0.5114   -3.0991   -1.6749 C.ar     1 ZINC000001547541   -0.0300
4      C4     -1.5498   -2.2365   -1.9666 C.ar     1 ZINC000001547541   -0.1300
5      C5     -2.8523   -2.7124   -2.0178 C.ar     1 ZINC000001547541    0.1300
6      O6     -3.8755   -1.8653   -2.3050 O.3      1 ZINC000001547541   -0.2600
7      C7     -5.1349   -2.3745   -2.3389 C.ar     1 ZINC000001547541    0.1300
8      C8     -5.9049   -2.4001   -1.1844 C.ar     1 ZINC000001547541   -0.1800
9      C9     -7.1860   -2.9176   -1.2173 C.ar     1 ZINC000001547541   -0.0500
10     C10    -7.7045   -3.4106   -2.3988 C.ar     1 ZINC000001547541   -0.1900
11     C11    -6.9383   -3.3877   -3.5580 C.ar     1 ZINC000001547541    0.2300
12     N12    -7.4623   -3.8866   -4.7526 N.pl3    1 ZINC000001547541   -0.6100
13     C13    -6.6538   -3.8619   -5.9740 C.3      1 ZINC000001547541    0.1600
14     C14    -5.8643   -5.1412   -6.0797 C.ar     1 ZINC000001547541   -0.0800
15     C15    -4.6043   -5.2237   -5.5169 C.ar     1 ZINC000001547541   -0.1200
16     C16    -3.8773   -6.3962   -5.6122 C.ar     1 ZINC000001547541   -0.0800
17     C17    -4.4087   -7.4881   -6.2702 C.ar     1 ZINC000001547541   -0.1800
18     C18    -5.6732   -7.4079   -6.8360 C.ar     1 ZINC000001547541    0.1000
19     O19    -6.1984   -8.4810   -7.4836 O.3      1 ZINC000001547541   -0.3000
20     C20    -5.3934   -9.6601   -7.5440 C.3      1 ZINC000001547541    0.4000
21     F21    -4.1941   -9.3726   -8.2044 F        1 ZINC000001547541   -0.1700
22     F22    -5.1166  -10.1029   -6.2461 F        1 ZINC000001547541   -0.1700
23     C23    -6.1459  -10.7529   -8.3060 C.3      1 ZINC000001547541    0.2700
24     F24    -5.3578  -11.9073   -8.3652 F        1 ZINC000001547541   -0.1700
25     F25    -7.3452  -11.0404   -7.6456 F        1 ZINC000001547541   -0.1700
26     C26    -6.4026   -6.2325   -6.7341 C.ar     1 ZINC000001547541   -0.1200
27     C27    -8.8206   -4.4346   -4.7843 C.3      1 ZINC000001547541    0.0900
28     C28    -9.8135   -3.3179   -5.1132 C.3      1 ZINC000001547541    0.0500
29     H29    -9.6908   -2.5014   -4.4017 H        1 ZINC000001547541    0.1500
30     O30    -9.5688   -2.8374   -6.4366 O.3      1 ZINC000001547541   -0.5200
31     C31   -11.2408   -3.8619   -5.0240 C.3      1 ZINC000001547541    0.4200
32     F32   -11.4804   -4.3323   -3.7285 F        1 ZINC000001547541   -0.1800
33     F33   -12.1486   -2.8409   -5.3248 F        1 ZINC000001547541   -0.1700
34     F34   -11.3983   -4.9099   -5.9373 F        1 ZINC000001547541   -0.1800
35     C35    -5.6535   -2.8635   -3.5281 C.ar     1 ZINC000001547541   -0.2000
36     C36    -3.1086   -4.0542   -1.7758 C.ar     1 ZINC000001547541   -0.1900
37     C37    -2.0670   -4.9138   -1.4844 C.ar     1 ZINC000001547541   -0.0700
38     C38    -0.7685   -4.4384   -1.4394 C.ar     1 ZINC000001547541   -0.0700
39     Cl39    0.5386   -5.5205   -1.0730 Cl       1 ZINC000001547541   -0.0700
40     H40     2.3329   -1.9916   -0.1200 H        1 ZINC000001547541    0.0600
41     H41     0.6394   -1.6386    0.2991 H        1 ZINC000001547541    0.0600
42     H42     1.2462   -3.3100    0.3794 H        1 ZINC000001547541    0.0600
43     H43     0.9667   -1.6379   -2.1589 H        1 ZINC000001547541    0.0800
44     H44     1.5736   -3.3092   -2.0785 H        1 ZINC000001547541    0.0800
45     H45    -1.3484   -1.1922   -2.1543 H        1 ZINC000001547541    0.1400
46     H46    -5.5023   -2.0153   -0.2591 H        1 ZINC000001547541    0.1300
47     H47    -7.7827   -2.9369   -0.3173 H        1 ZINC000001547541    0.1300
48     H48    -8.7059   -3.8145   -2.4217 H        1 ZINC000001547541    0.1300
49     H49    -7.3077   -3.7658   -6.8408 H        1 ZINC000001547541    0.1000
50     H50    -5.9693   -3.0143   -5.9396 H        1 ZINC000001547541    0.0900
51     H51    -4.1869   -4.3709   -5.0023 H        1 ZINC000001547541    0.1300
52     H52    -2.8930   -6.4581   -5.1720 H        1 ZINC000001547541    0.1300
53     H53    -3.8404   -8.4035   -6.3447 H        1 ZINC000001547541    0.1300
54     H54    -6.3616  -10.4080   -9.3172 H        1 ZINC000001547541    0.1600
55     H55    -7.3870   -6.1675   -7.1736 H        1 ZINC000001547541    0.1300
56     H56    -8.8815   -5.2111   -5.5468 H        1 ZINC000001547541    0.1000
57     H57    -9.0631   -4.8613   -3.8111 H        1 ZINC000001547541    0.1000
58     H58    -9.6604   -3.5121   -7.1232 H        1 ZINC000001547541    0.3800
59     H59    -5.0559   -2.8444   -4.4274 H        1 ZINC000001547541    0.1300
60     H60    -4.1216   -4.4264   -1.8148 H        1 ZINC000001547541    0.1400
61     H61    -2.2661   -5.9583   -1.2956 H        1 ZINC000001547541    0.1400
@<TRIPOS>BOND
1     1     2     1
2     1     40    1
3     1     41    1
4     1     42    1
5     2     3     1
6     2     43    1
7     2     44    1
8     3     38    ar
9     3     4     ar
10    4     5     ar
11    4     45    1
12    5     6     1
13    5     36    ar
14    6     7     1
15    7     35    ar
16    7     8     ar
17    8     9     ar
18    8     46    1
19    9     10    ar
20    9     47    1
21    10    11    ar
22    10    48    1
23    11    12    1
24    11    35    ar
25    12    13    1
26    12    27    1
27    13    14    1
28    13    49    1
29    13    50    1
30    14    26    ar
31    14    15    ar
32    15    16    ar
33    15    51    1
34    16    17    ar
35    16    52    1
36    17    18    ar
37    17    53    1
38    18    19    1
39    18    26    ar
40    19    20    1
41    20    21    1
42    20    22    1
43    20    23    1
44    23    24    1
45    23    25    1
46    23    54    1
47    26    55    1
48    27    28    1
49    27    56    1
50    27    57    1
51    28    29    1
52    28    30    1
53    28    31    1
54    30    58    1
55    31    32    1
56    31    33    1
57    31    34    1
58    35    59    1
59    36    37    ar
60    36    60    1
61    37    38    ar
62    37    61    1
63    38    39    1
@<TRIPOS>SUBSTRUCTURE
1   ZINC000001547541 1     RESIDUE    1   A     ZIN   1
