@<TRIPOS>MOLECULE
ZINC000100285156
65    67    1     0     0
SMALL
USER_CHARGES
@<TRIPOS>ATOM
1      C1     -0.1625    1.2542   -1.3117 C.3      1 ZINC000100285156    0.0600
2      N2     -0.2707   -0.2014   -1.1861 N.am     1 ZINC000100285156   -0.5500
3      C3     -1.5332   -0.7320   -0.9709 C.ar     1 ZINC000100285156    0.1700
4      C4     -2.5950   -0.1687   -1.6810 C.ar     1 ZINC000100285156   -0.1400
5      C5     -3.8787   -0.6416   -1.5178 C.ar     1 ZINC000100285156   -0.0700
6      C6     -4.1285   -1.6858   -0.6431 C.ar     1 ZINC000100285156   -0.1300
7      C7     -3.0943   -2.2535    0.0649 C.ar     1 ZINC000100285156   -0.0600
8      C8     -1.7815   -1.7838   -0.0910 C.ar     1 ZINC000100285156   -0.1300
9      C9     -0.7244   -2.4404    0.6939 C.2      1 ZINC000100285156    0.2900
10     C10    -1.0359   -2.8009    2.0967 C.ar     1 ZINC000100285156   -0.0700
11     C11    -0.2735   -3.7634    2.7581 C.ar     1 ZINC000100285156   -0.0600
12     C12    -0.5683   -4.0945    4.0648 C.ar     1 ZINC000100285156   -0.1300
13     C13    -1.6176   -3.4739    4.7188 C.ar     1 ZINC000100285156   -0.1000
14     C14    -2.3778   -2.5187    4.0678 C.ar     1 ZINC000100285156   -0.1300
15     C15    -2.0892   -2.1749    2.7631 C.ar     1 ZINC000100285156   -0.0900
16     N16     0.4496   -2.7251    0.2533 N.2      1 ZINC000100285156   -0.5100
17     C17     0.8595   -2.4060   -1.1137 C.3      1 ZINC000100285156    0.2800
18     H18     0.1635   -2.8601   -1.8190 H        1 ZINC000100285156    0.1300
19     N19     2.2090   -2.9227   -1.3545 N.am     1 ZINC000100285156   -0.6900
20     C20     2.3834   -4.0277   -2.1062 C.2      1 ZINC000100285156    0.5300
21     O21     1.4337   -4.5413   -2.6587 O.2      1 ZINC000100285156   -0.5200
22     C22     3.7583   -4.6251   -2.2601 C.3      1 ZINC000100285156   -0.0900
23     H23     4.3858   -4.3126   -1.4254 H        1 ZINC000100285156    0.1100
24     C24     4.3793   -4.1440   -3.5731 C.3      1 ZINC000100285156   -0.1200
25     C25     4.5753   -2.6276   -3.5191 C.3      1 ZINC000100285156   -0.1700
26     C26     5.1588   -2.1411   -4.8471 C.3      1 ZINC000100285156    0.4600
27     F27     4.2801   -2.4610   -5.8876 F        1 ZINC000100285156   -0.1800
28     F28     5.3380   -0.7545   -4.7977 F        1 ZINC000100285156   -0.1800
29     F29     6.3920   -2.7630   -5.0703 F        1 ZINC000100285156   -0.1800
30     C30     3.6525   -6.1514   -2.2751 C.3      1 ZINC000100285156   -0.0900
31     H31     3.0250   -6.4639   -3.1098 H        1 ZINC000100285156    0.1200
32     C32     3.0314   -6.6324   -0.9622 C.3      1 ZINC000100285156   -0.1200
33     C33     3.8926   -6.1622    0.2118 C.3      1 ZINC000100285156   -0.1800
34     C34     3.3406   -6.7444    1.5146 C.3      1 ZINC000100285156    0.4500
35     F35     3.3655   -8.1416    1.4483 F        1 ZINC000100285156   -0.1800
36     F36     4.1281   -6.3144    2.5880 F        1 ZINC000100285156   -0.1800
37     F37     2.0237   -6.3096    1.6986 F        1 ZINC000100285156   -0.1800
38     C38     5.0274   -6.7488   -2.4291 C.2      1 ZINC000100285156    0.5200
39     N39     5.1717   -7.9805   -2.9569 N.am     1 ZINC000100285156   -0.8500
40     O40     6.0040   -6.1212   -2.0780 O.2      1 ZINC000100285156   -0.5300
41     C41     0.8502   -0.9115   -1.2929 C.2      1 ZINC000100285156    0.5100
42     O42     1.8917   -0.3390   -1.5346 O.2      1 ZINC000100285156   -0.5100
43     H43     0.8789    1.5278   -1.4815 H        1 ZINC000100285156    0.1000
44     H44    -0.7687    1.5925   -2.1520 H        1 ZINC000100285156    0.0700
45     H45    -0.5171    1.7253   -0.3950 H        1 ZINC000100285156    0.0700
46     H46    -2.4084    0.6461   -2.3649 H        1 ZINC000100285156    0.1400
47     H47    -4.6917   -0.1970   -2.0726 H        1 ZINC000100285156    0.1400
48     H48    -5.1356   -2.0545   -0.5164 H        1 ZINC000100285156    0.1400
49     H49    -3.2949   -3.0670    0.7464 H        1 ZINC000100285156    0.1400
50     H50     0.5457   -4.2488    2.2485 H        1 ZINC000100285156    0.1400
51     H51     0.0212   -4.8400    4.5779 H        1 ZINC000100285156    0.1300
52     H52    -1.8445   -3.7365    5.7415 H        1 ZINC000100285156    0.1300
53     H53    -3.1960   -2.0379    4.5835 H        1 ZINC000100285156    0.1300
54     H54    -2.6831   -1.4289    2.2560 H        1 ZINC000100285156    0.1300
55     H55     2.9771   -2.4695   -0.9730 H        1 ZINC000100285156    0.4100
56     H56     5.3441   -4.6301   -3.7183 H        1 ZINC000100285156    0.1000
57     H57     3.7174   -4.3955   -4.4017 H        1 ZINC000100285156    0.0900
58     H58     3.6145   -2.1430   -3.3451 H        1 ZINC000100285156    0.1100
59     H59     5.2599   -2.3784   -2.7083 H        1 ZINC000100285156    0.1200
60     H60     2.0268   -6.2214   -0.8634 H        1 ZINC000100285156    0.1000
61     H61     2.9802   -7.7212   -0.9620 H        1 ZINC000100285156    0.0900
62     H62     4.9186   -6.5009    0.0684 H        1 ZINC000100285156    0.1200
63     H63     3.8733   -5.0735    0.2634 H        1 ZINC000100285156    0.1100
64     H64     4.3984   -8.4547   -3.3003 H        1 ZINC000100285156    0.4000
65     H65     6.0490   -8.3927   -2.9933 H        1 ZINC000100285156    0.4100
@<TRIPOS>BOND
1     1     2     1
2     1     43    1
3     1     44    1
4     1     45    1
5     2     41    am
6     2     3     1
7     3     8     ar
8     3     4     ar
9     4     5     ar
10    4     46    1
11    5     6     ar
12    5     47    1
13    6     7     ar
14    6     48    1
15    7     8     ar
16    7     49    1
17    8     9     1
18    9     10    1
19    9     16    2
20    10    15    ar
21    10    11    ar
22    11    12    ar
23    11    50    1
24    12    13    ar
25    12    51    1
26    13    14    ar
27    13    52    1
28    14    15    ar
29    14    53    1
30    15    54    1
31    16    17    1
32    17    18    1
33    17    19    1
34    17    41    1
35    19    20    am
36    19    55    1
37    20    21    2
38    20    22    1
39    22    23    1
40    22    24    1
41    22    30    1
42    24    25    1
43    24    56    1
44    24    57    1
45    25    26    1
46    25    58    1
47    25    59    1
48    26    27    1
49    26    28    1
50    26    29    1
51    30    31    1
52    30    32    1
53    30    38    1
54    32    33    1
55    32    60    1
56    32    61    1
57    33    34    1
58    33    62    1
59    33    63    1
60    34    35    1
61    34    36    1
62    34    37    1
63    38    39    am
64    38    40    2
65    39    64    1
66    39    65    1
67    41    42    2
@<TRIPOS>SUBSTRUCTURE
1   ZINC000100285156 1     RESIDUE    1   A     ZIN   1
