@<TRIPOS>MOLECULE
ZINC000000537989
55    59    1     0     0
SMALL
USER_CHARGES
@<TRIPOS>ATOM
1      C1     -0.0178    1.4648    0.0101 C.3      1 ZINC000000537989    0.0200
2      N2      0.0021   -0.0041    0.0020 N.3      1 ZINC000000537989   -0.4900
3      C3      0.7062   -0.5275    1.1802 C.3      1 ZINC000000537989    0.0900
4      C4      2.1628   -0.1488    1.1043 C.ar     1 ZINC000000537989   -0.0200
5      C5      3.0631   -0.9875    0.4743 C.ar     1 ZINC000000537989   -0.1200
6      C6      4.3993   -0.6401    0.4046 C.ar     1 ZINC000000537989   -0.0200
7      C7      4.8351    0.5462    0.9646 C.ar     1 ZINC000000537989   -0.6800
8      S8      6.5383    0.9888    0.8763 S.o2     1 ZINC000000537989    2.6900
9      O9      6.7747    1.8906    1.9487 O.2      1 ZINC000000537989   -0.9500
10     O10     7.2597   -0.2238    0.7072 O.2      1 ZINC000000537989   -0.9500
11     N11     6.7478    1.8560   -0.5188 N.am     1 ZINC000000537989   -1.0000
12     C12     7.0824    1.1848   -1.7849 C.3      1 ZINC000000537989    0.0900
13     C13     6.1086    1.6735   -2.8632 C.3      1 ZINC000000537989    0.0500
14     O14     6.1074    3.1030   -2.8834 O.3      1 ZINC000000537989   -0.3700
15     C15     5.6538    3.7051   -1.6687 C.3      1 ZINC000000537989    0.0500
16     C16     6.5988    3.3199   -0.5303 C.3      1 ZINC000000537989    0.0900
17     C17     3.9346    1.3856    1.5935 C.ar     1 ZINC000000537989   -0.0200
18     C18     2.5978    1.0400    1.6598 C.ar     1 ZINC000000537989   -0.1300
19     C19    -1.2898   -0.5206   -0.0781 C.ar     1 ZINC000000537989    0.0800
20     C20    -1.6971   -1.2810   -1.1950 C.ar     1 ZINC000000537989    0.0000
21     C21    -0.8959   -1.5949   -2.3023 C.ar     1 ZINC000000537989   -0.0600
22     C22    -1.4292   -2.3451   -3.3166 C.ar     1 ZINC000000537989   -0.1300
23     C23    -2.7410   -2.8164   -3.3036 C.ar     1 ZINC000000537989   -0.0300
24     C24    -3.5626   -2.5285   -2.2295 C.ar     1 ZINC000000537989   -0.0800
25     C25    -4.9426   -2.7939   -1.7942 C.2      1 ZINC000000537989    0.4500
26     N26    -5.8411   -3.4807   -2.4493 N.2      1 ZINC000000537989   -0.7000
27     N27    -5.1158   -2.1821   -0.5602 N.pl3    1 ZINC000000537989   -0.6800
28     C28    -3.9369   -1.5446   -0.1817 C.ar     1 ZINC000000537989    0.1700
29     C29    -3.0095   -1.7604   -1.1945 C.ar     1 ZINC000000537989   -0.1100
30     C30    -3.5080   -0.7960    0.9001 C.ar     1 ZINC000000537989   -0.1300
31     C31    -2.2053   -0.3057    0.9393 C.ar     1 ZINC000000537989   -0.1100
32     H32     1.0047    1.8421    0.0024 H        1 ZINC000000537989    0.0800
33     H33    -0.5450    1.8259   -0.8730 H        1 ZINC000000537989    0.0700
34     H34    -0.5280    1.8163    0.9069 H        1 ZINC000000537989    0.0300
35     H35     0.2673   -0.1040    2.0837 H        1 ZINC000000537989    0.0600
36     H36     0.6139   -1.6133    1.2060 H        1 ZINC000000537989    0.0900
37     H37     2.7226   -1.9143    0.0367 H        1 ZINC000000537989    0.1400
38     H38     5.1028   -1.2957   -0.0870 H        1 ZINC000000537989    0.1400
39     H39     8.1039    1.4329   -2.0731 H        1 ZINC000000537989    0.0900
40     H40     6.9860    0.1057   -1.6650 H        1 ZINC000000537989    0.1000
41     H41     6.4233    1.2959   -3.8361 H        1 ZINC000000537989    0.1100
42     H42     5.1052    1.3117   -2.6386 H        1 ZINC000000537989    0.0600
43     H43     5.6414    4.7891   -1.7822 H        1 ZINC000000537989    0.1100
44     H44     4.6488    3.3507   -1.4398 H        1 ZINC000000537989    0.0600
45     H45     6.1845    3.6558    0.4203 H        1 ZINC000000537989    0.1000
46     H46     7.5733    3.7813   -0.6901 H        1 ZINC000000537989    0.0900
47     H47     4.2750    2.3126    2.0307 H        1 ZINC000000537989    0.1400
48     H48     1.8942    1.6958    2.1511 H        1 ZINC000000537989    0.1300
49     H49     0.1262   -1.2501   -2.3546 H        1 ZINC000000537989    0.1400
50     H50    -0.8049   -2.5820   -4.1655 H        1 ZINC000000537989    0.1300
51     H51    -3.1142   -3.4038   -4.1294 H        1 ZINC000000537989    0.1400
52     H52    -6.7282   -3.5998   -2.0754 H        1 ZINC000000537989    0.3400
53     H53    -5.9345   -2.1962   -0.0401 H        1 ZINC000000537989    0.4200
54     H54    -4.1841   -0.5948    1.7180 H        1 ZINC000000537989    0.1300
55     H55    -1.8980    0.2757    1.7960 H        1 ZINC000000537989    0.1200
@<TRIPOS>BOND
1     1     2     1
2     1     32    1
3     1     33    1
4     1     34    1
5     2     3     1
6     2     19    1
7     3     4     1
8     3     35    1
9     3     36    1
10    4     18    ar
11    4     5     ar
12    5     6     ar
13    5     37    1
14    6     7     ar
15    6     38    1
16    7     8     1
17    7     17    ar
18    8     9     2
19    8     10    2
20    8     11    am
21    11    16    1
22    11    12    1
23    12    13    1
24    12    39    1
25    12    40    1
26    13    14    1
27    13    41    1
28    13    42    1
29    14    15    1
30    15    16    1
31    15    43    1
32    15    44    1
33    16    45    1
34    16    46    1
35    17    18    ar
36    17    47    1
37    18    48    1
38    19    31    ar
39    19    20    ar
40    20    29    ar
41    20    21    ar
42    21    22    ar
43    21    49    1
44    22    23    ar
45    22    50    1
46    23    24    ar
47    23    51    1
48    24    29    ar
49    24    25    1
50    25    26    2
51    25    27    1
52    26    52    1
53    27    28    1
54    27    53    1
55    28    29    ar
56    28    30    ar
57    30    31    ar
58    30    54    1
59    31    55    1
@<TRIPOS>SUBSTRUCTURE
1   ZINC000000537989 1     RESIDUE    1   A     ZIN   1
