@<TRIPOS>MOLECULE
ZINC000001889710
59    61    1     0     0
SMALL
USER_CHARGES
@<TRIPOS>ATOM
1      C1      8.2080   -6.6301   -5.8700 C.3      1 ZINC000001889710   -0.1500
2      C2      7.8165   -5.1533   -5.9521 C.3      1 ZINC000001889710   -0.1300
3      C3      6.3537   -4.9895   -5.5348 C.3      1 ZINC000001889710   -0.1100
4      C4      5.9623   -3.5127   -5.6169 C.3      1 ZINC000001889710   -0.0400
5      C5      4.4925   -3.3653   -5.3186 C.2      1 ZINC000001889710    0.2500
6      N6      3.5224   -3.5266   -6.1768 N.2      1 ZINC000001889710   -0.4800
7      C7      2.3483   -3.3167   -5.5626 C.2      1 ZINC000001889710    0.0800
8      Cl8     0.7793   -3.4184   -6.2985 Cl       1 ZINC000001889710   -0.0200
9      C9      2.6006   -3.0136   -4.2741 C.2      1 ZINC000001889710    0.0000
10     C10     1.5819   -2.7012   -3.2083 C.3      1 ZINC000001889710   -0.0400
11     C11     1.3120   -1.2187   -3.1905 C.2      1 ZINC000001889710    0.4500
12     O12     1.8877   -0.4905   -3.9638 O.2      1 ZINC000001889710   -0.4700
13     O13     0.4319   -0.7072   -2.3155 O.3      1 ZINC000001889710   -0.3600
14     C14     0.2219    0.7289   -2.3550 C.3      1 ZINC000001889710    0.0400
15     N15     3.9612   -3.0501   -4.1180 N.pl3    1 ZINC000001889710   -0.4300
16     C16     4.7017   -2.7875   -2.8816 C.3      1 ZINC000001889710    0.1500
17     C17     4.9286   -1.3047   -2.7372 C.ar     1 ZINC000001889710   -0.1500
18     C18     5.9893   -0.7024   -3.3889 C.ar     1 ZINC000001889710   -0.0800
19     C19     6.2000    0.6562   -3.2588 C.ar     1 ZINC000001889710   -0.1200
20     C20     5.3452    1.4179   -2.4723 C.ar     1 ZINC000001889710    0.1900
21     N21     5.5555    2.7937   -2.3388 N.am     1 ZINC000001889710   -0.6800
22     C22     6.8104    3.2795   -2.2632 C.2      1 ZINC000001889710    0.5800
23     O23     7.7601    2.5337   -2.4020 O.2      1 ZINC000001889710   -0.4700
24     C24     7.0320    4.7206   -2.0114 C.ar     1 ZINC000001889710   -0.1000
25     C25     6.4446    5.6737   -2.8371 C.ar     1 ZINC000001889710   -0.1100
26     C26     6.6544    7.0198   -2.5980 C.ar     1 ZINC000001889710   -0.1300
27     C27     7.4463    7.4281   -1.5401 C.ar     1 ZINC000001889710   -0.1200
28     C28     8.0381    6.4957   -0.7083 C.ar     1 ZINC000001889710   -0.0900
29     C29     7.8341    5.1358   -0.9307 C.ar     1 ZINC000001889710   -0.0900
30     C30     8.4634    4.1355   -0.0451 C.2      1 ZINC000001889710    0.5100
31     O31     9.2648    4.4915    0.8070 O.co2    1 ZINC000001889710   -0.6900
32     O32     8.1830    2.9513   -0.1639 O.co2    1 ZINC000001889710   -0.6600
33     C33     4.2809    0.8098   -1.8191 C.ar     1 ZINC000001889710   -0.1500
34     C34     4.0724   -0.5484   -1.9580 C.ar     1 ZINC000001889710   -0.0700
35     H35     8.0803   -6.9835   -4.8468 H        1 ZINC000001889710    0.0500
36     H36     7.5724   -7.2121   -6.5374 H        1 ZINC000001889710    0.0500
37     H37     9.2501   -6.7468   -6.1673 H        1 ZINC000001889710    0.0500
38     H38     8.4521   -4.5713   -5.2848 H        1 ZINC000001889710    0.0600
39     H39     7.9442   -4.8000   -6.9753 H        1 ZINC000001889710    0.0700
40     H40     5.7181   -5.5715   -6.2022 H        1 ZINC000001889710    0.0700
41     H41     6.2260   -5.3429   -4.5116 H        1 ZINC000001889710    0.0600
42     H42     6.5397   -2.9427   -4.8890 H        1 ZINC000001889710    0.0800
43     H43     6.1690   -3.1372   -6.6191 H        1 ZINC000001889710    0.1000
44     H44     0.6567   -3.2364   -3.4220 H        1 ZINC000001889710    0.1300
45     H45     1.9655   -3.0124   -2.2367 H        1 ZINC000001889710    0.1100
46     H46     1.1640    1.2396   -2.1553 H        1 ZINC000001889710    0.0600
47     H47    -0.1449    1.0155   -3.3406 H        1 ZINC000001889710    0.0600
48     H48    -0.5111    1.0099   -1.5987 H        1 ZINC000001889710    0.1000
49     H49     4.1275   -3.1518   -2.0297 H        1 ZINC000001889710    0.1000
50     H50     5.6629   -3.3003   -2.9178 H        1 ZINC000001889710    0.1100
51     H51     6.6537   -1.2952   -4.0000 H        1 ZINC000001889710    0.1200
52     H52     7.0287    1.1260   -3.7677 H        1 ZINC000001889710    0.1400
53     H53     4.7982    3.3986   -2.3005 H        1 ZINC000001889710    0.4000
54     H54     5.8250    5.3625   -3.6652 H        1 ZINC000001889710    0.1200
55     H55     6.1972    7.7567   -3.2417 H        1 ZINC000001889710    0.1200
56     H56     7.6036    8.4818   -1.3629 H        1 ZINC000001889710    0.1200
57     H57     8.6552    6.8216    0.1159 H        1 ZINC000001889710    0.1300
58     H58     3.6144    1.3992   -1.2068 H        1 ZINC000001889710    0.1200
59     H59     3.2450   -1.0218   -1.4504 H        1 ZINC000001889710    0.1100
@<TRIPOS>BOND
1     1     2     1
2     1     35    1
3     1     36    1
4     1     37    1
5     2     3     1
6     2     38    1
7     2     39    1
8     3     4     1
9     3     40    1
10    3     41    1
11    4     5     1
12    4     42    1
13    4     43    1
14    5     15    1
15    5     6     2
16    6     7     1
17    7     8     1
18    7     9     2
19    9     10    1
20    9     15    1
21    10    11    1
22    10    44    1
23    10    45    1
24    11    12    2
25    11    13    1
26    13    14    1
27    14    46    1
28    14    47    1
29    14    48    1
30    15    16    1
31    16    17    1
32    16    49    1
33    16    50    1
34    17    34    ar
35    17    18    ar
36    18    19    ar
37    18    51    1
38    19    20    ar
39    19    52    1
40    20    21    1
41    20    33    ar
42    21    22    am
43    21    53    1
44    22    23    2
45    22    24    1
46    24    29    ar
47    24    25    ar
48    25    26    ar
49    25    54    1
50    26    27    ar
51    26    55    1
52    27    28    ar
53    27    56    1
54    28    29    ar
55    28    57    1
56    29    30    1
57    30    31    ar
58    30    32    ar
59    33    34    ar
60    33    58    1
61    34    59    1
@<TRIPOS>SUBSTRUCTURE
1   ZINC000001889710 1     RESIDUE    1   A     ZIN   1
