@<TRIPOS>MOLECULE
ZINC000003979524
59    63    1     0     0
SMALL
USER_CHARGES
@<TRIPOS>ATOM
1      C1      0.1946    2.7470    0.7566 C.3      1 ZINC000003979524   -0.0700
2      C2      0.2243    1.2605    0.5107 C.2      1 ZINC000003979524    0.2700
3      N3      0.2658    0.6674   -0.6546 N.2      1 ZINC000003979524   -0.3400
4      N4      0.2815   -0.6088   -0.5127 N.2      1 ZINC000003979524   -0.0400
5      N5      0.2516   -0.9188    0.7386 N.2      1 ZINC000003979524   -0.1300
6      N6      0.2190    0.2916    1.4534 N.pl3    1 ZINC000003979524   -0.2300
7      N7      0.1807    0.4576    2.8440 N.2      1 ZINC000003979524   -0.3000
8      C8      0.1718   -0.5821    3.6221 C.2      1 ZINC000003979524    0.2300
9      C9      0.1316   -0.4074    5.0845 C.ar     1 ZINC000003979524   -0.2300
10     C10     0.0971    0.8762    5.6365 C.ar     1 ZINC000003979524   -0.0100
11     C11     0.0590    1.0347    7.0046 C.ar     1 ZINC000003979524   -0.2700
12     C12     0.0554   -0.0789    7.8351 C.ar     1 ZINC000003979524    0.3100
13     O13     0.0182    0.0821    9.1830 O.3      1 ZINC000003979524   -0.6900
14     C14     0.0891   -1.3570    7.2909 C.ar     1 ZINC000003979524   -0.2300
15     C15     0.0844   -2.5610    8.1972 C.3      1 ZINC000003979524    0.0500
16     C16    -1.0448   -3.4794    7.8066 C.ar     1 ZINC000003979524   -0.0700
17     C17    -0.9682   -4.8292    8.0962 C.ar     1 ZINC000003979524   -0.1000
18     C18    -2.0020   -5.6732    7.7392 C.ar     1 ZINC000003979524   -0.1500
19     C19    -3.1178   -5.1652    7.0900 C.ar     1 ZINC000003979524    0.0900
20     O20    -4.1363   -5.9933    6.7381 O.3      1 ZINC000003979524   -0.5000
21     C21    -3.1924   -3.8104    6.8009 C.ar     1 ZINC000003979524   -0.1400
22     C22    -2.1581   -2.9698    7.1643 C.ar     1 ZINC000003979524   -0.0900
23     C23     1.3952   -3.2930    8.0668 C.ar     1 ZINC000003979524   -0.0900
24     C24     1.7220   -3.9122    6.8807 C.ar     1 ZINC000003979524   -0.0400
25     C25     2.9384   -4.5910    6.7610 C.ar     1 ZINC000003979524   -0.1000
26     C26     3.2928   -5.2545    5.4941 C.2      1 ZINC000003979524    0.2100
27     N27     4.4232   -5.8844    5.3851 N.2      1 ZINC000003979524   -0.2500
28     N28     4.7601   -6.5154    4.1804 N.pl3    1 ZINC000003979524   -0.2500
29     N29     4.0005   -6.5595    2.9980 N.2      1 ZINC000003979524   -0.1200
30     N30     4.6846   -7.2416    2.1441 N.2      1 ZINC000003979524   -0.0300
31     N31     5.7913   -7.6281    2.6686 N.2      1 ZINC000003979524   -0.3400
32     C32     5.8879   -7.2074    3.9035 C.2      1 ZINC000003979524    0.2800
33     C33     7.0376   -7.4567    4.8454 C.3      1 ZINC000003979524   -0.0700
34     C34     3.8175   -4.6378    7.8466 C.ar     1 ZINC000003979524   -0.0600
35     C35     3.4821   -4.0155    9.0292 C.ar     1 ZINC000003979524   -0.1600
36     C36     2.2749   -3.3374    9.1417 C.ar     1 ZINC000003979524    0.1600
37     O37     1.9484   -2.7255   10.3092 O.3      1 ZINC000003979524   -0.4900
38     C38     0.1219   -1.5252    5.9242 C.ar     1 ZINC000003979524   -0.0100
39     H39     1.2147    3.1221    0.8388 H        1 ZINC000003979524    0.0900
40     H40    -0.3089    3.2425   -0.0735 H        1 ZINC000003979524    0.1000
41     H41    -0.3435    2.9515    1.6822 H        1 ZINC000003979524    0.0900
42     H42     0.1939   -1.5747    3.1973 H        1 ZINC000003979524    0.1300
43     H43     0.1006    1.7425    4.9916 H        1 ZINC000003979524    0.1100
44     H44     0.0324    2.0262    7.4320 H        1 ZINC000003979524    0.1100
45     H45    -0.0504   -2.2381    9.2295 H        1 ZINC000003979524    0.1200
46     H46    -0.0993   -5.2241    8.6016 H        1 ZINC000003979524    0.1200
47     H47    -1.9414   -6.7275    7.9650 H        1 ZINC000003979524    0.1200
48     H48    -4.8189   -6.0876    7.4166 H        1 ZINC000003979524    0.3900
49     H49    -4.0599   -3.4126    6.2953 H        1 ZINC000003979524    0.1200
50     H50    -2.2159   -1.9150    6.9398 H        1 ZINC000003979524    0.1300
51     H51     1.0395   -3.8737    6.0446 H        1 ZINC000003979524    0.1400
52     H52     2.6124   -5.2170    4.6562 H        1 ZINC000003979524    0.1500
53     H53     7.7709   -6.6567    4.7434 H        1 ZINC000003979524    0.1000
54     H54     6.6684   -7.4826    5.8706 H        1 ZINC000003979524    0.0900
55     H55     7.5052   -8.4111    4.6034 H        1 ZINC000003979524    0.1000
56     H56     4.7581   -5.1613    7.7588 H        1 ZINC000003979524    0.1400
57     H57     4.1607   -4.0511    9.8686 H        1 ZINC000003979524    0.1300
58     H58     2.2443   -1.8067   10.3679 H        1 ZINC000003979524    0.4000
59     H59     0.1481   -2.5190    5.5021 H        1 ZINC000003979524    0.1000
@<TRIPOS>BOND
1     1     2     1
2     1     39    1
3     1     40    1
4     1     41    1
5     2     6     1
6     2     3     2
7     3     4     1
8     4     5     2
9     5     6     1
10    6     7     1
11    7     8     2
12    8     9     1
13    8     42    1
14    9     38    ar
15    9     10    ar
16    10    11    ar
17    10    43    1
18    11    12    ar
19    11    44    1
20    12    13    1
21    12    14    ar
22    14    15    1
23    14    38    ar
24    15    16    1
25    15    23    1
26    15    45    1
27    16    22    ar
28    16    17    ar
29    17    18    ar
30    17    46    1
31    18    19    ar
32    18    47    1
33    19    20    1
34    19    21    ar
35    20    48    1
36    21    22    ar
37    21    49    1
38    22    50    1
39    23    36    ar
40    23    24    ar
41    24    25    ar
42    24    51    1
43    25    26    1
44    25    34    ar
45    26    27    2
46    26    52    1
47    27    28    1
48    28    32    1
49    28    29    1
50    29    30    2
51    30    31    1
52    31    32    2
53    32    33    1
54    33    53    1
55    33    54    1
56    33    55    1
57    34    35    ar
58    34    56    1
59    35    36    ar
60    35    57    1
61    36    37    1
62    37    58    1
63    38    59    1
@<TRIPOS>SUBSTRUCTURE
1   ZINC000003979524 1     RESIDUE    1   A     ZIN   1
