@<TRIPOS>MOLECULE
ZINC000034015946
79    80    1     0     0
SMALL
USER_CHARGES
@<TRIPOS>ATOM
1      C1     -0.1032    1.8975    1.1160 C.3      1 ZINC000034015946   -0.1500
2      C2     -0.4882    0.5422    1.7127 C.3      1 ZINC000034015946   -0.1300
3      C3     -1.8474    0.1091    1.1595 C.3      1 ZINC000034015946   -0.1000
4      C4     -2.2324   -1.2462    1.7561 C.3      1 ZINC000034015946   -0.1100
5      C5     -2.4377   -1.0993    3.2651 C.3      1 ZINC000034015946   -0.1100
6      C6     -3.6383   -0.1886    3.5302 C.3      1 ZINC000034015946   -0.1300
7      C7     -3.8999   -0.1149    5.0359 C.3      1 ZINC000034015946   -0.1500
8      C8     -3.5099   -1.7303    1.1201 C.2      1 ZINC000034015946    0.5200
9      O9     -4.1417   -0.9944    0.3920 O.2      1 ZINC000034015946   -0.5400
10     N10    -3.9505   -2.9812    1.3604 N.am     1 ZINC000034015946   -0.7100
11     C11    -5.2443   -3.4169    0.8290 C.3      1 ZINC000034015946    0.1500
12     H12    -5.9555   -2.5926    0.8831 H        1 ZINC000034015946    0.1200
13     C13    -5.0769   -3.8512   -0.6285 C.3      1 ZINC000034015946   -0.1300
14     C14    -4.0899   -4.9876   -0.7038 C.2      1 ZINC000034015946    0.4500
15     O15    -3.4909   -5.3341    0.2866 O.2      1 ZINC000034015946   -0.4700
16     O16    -3.8763   -5.6147   -1.8712 O.3      1 ZINC000034015946   -0.3600
17     C17    -2.9118   -6.7001   -1.8696 C.3      1 ZINC000034015946    0.0400
18     C18    -5.7568   -4.5769    1.6431 C.2      1 ZINC000034015946    0.5300
19     O19    -4.9904   -5.2267    2.3223 O.2      1 ZINC000034015946   -0.4800
20     N20    -7.0669   -4.8922    1.6165 N.am     1 ZINC000034015946   -0.6100
21     C21    -8.0858   -4.2590    0.7595 C.3      1 ZINC000034015946    0.0900
22     C22    -9.2080   -5.3188    0.6285 C.3      1 ZINC000034015946   -0.1300
23     C23    -9.2095   -5.9478    2.0468 C.3      1 ZINC000034015946   -0.1200
24     C24    -7.7155   -5.9288    2.4327 C.3      1 ZINC000034015946    0.1200
25     H25    -7.6086   -5.6826    3.4891 H        1 ZINC000034015946    0.1100
26     C26    -7.0974   -7.2749    2.1553 C.2      1 ZINC000034015946    0.5100
27     O27    -6.1895   -7.3724    1.3571 O.2      1 ZINC000034015946   -0.5000
28     N28    -7.5535   -8.3705    2.7942 N.am     1 ZINC000034015946   -0.7300
29     C29    -6.9526   -9.6791    2.5245 C.3      1 ZINC000034015946    0.1500
30     H30    -6.6651   -9.7380    1.4747 H        1 ZINC000034015946    0.1100
31     C31    -5.7141   -9.8636    3.4044 C.3      1 ZINC000034015946   -0.1400
32     C32    -5.0669  -11.2165    3.0999 C.3      1 ZINC000034015946   -0.1300
33     C33    -6.0602  -12.3373    3.4221 C.3      1 ZINC000034015946    0.1100
34     N34    -7.3091  -12.0874    2.6896 N.pl3    1 ZINC000034015946   -0.6300
35     C35    -7.8490  -13.0514    1.8832 C.cat    1 ZINC000034015946    0.7500
36     N36    -7.7604  -14.3348    2.2285 N.pl3    1 ZINC000034015946   -0.7800
37     N37    -8.4632  -12.7068    0.7527 N.pl3    1 ZINC000034015946   -0.7900
38     H38    -8.5715  -11.7699    0.5258 H        1 ZINC000034015946    0.4400
39     H39    -8.8022  -13.3926    0.1564 H        1 ZINC000034015946    0.4400
40     C40    -7.9676  -10.7825    2.8394 C.3      1 ZINC000034015946    0.3200
41     H41    -8.8076  -10.7156    2.1480 H        1 ZINC000034015946    0.0900
42     O42    -8.4381  -10.6344    4.1805 O.3      1 ZINC000034015946   -0.5400
43     H43     0.8651    2.2060    1.5101 H        1 ZINC000034015946    0.0600
44     H44    -0.0437    1.8130    0.0309 H        1 ZINC000034015946    0.0500
45     H45    -0.8567    2.6388    1.3820 H        1 ZINC000034015946    0.0500
46     H46     0.2653   -0.1991    1.4467 H        1 ZINC000034015946    0.0600
47     H47    -0.5478    0.6266    2.7978 H        1 ZINC000034015946    0.0700
48     H48    -2.6009    0.8504    1.4255 H        1 ZINC000034015946    0.0800
49     H49    -1.7879    0.0246    0.0744 H        1 ZINC000034015946    0.0700
50     H50    -1.4364   -1.9662    1.5661 H        1 ZINC000034015946    0.1000
51     H51    -2.6217   -2.0799    3.7040 H        1 ZINC000034015946    0.0700
52     H52    -1.5448   -0.6628    3.7125 H        1 ZINC000034015946    0.0800
53     H53    -3.4277    0.8105    3.1487 H        1 ZINC000034015946    0.0700
54     H54    -4.5178   -0.5914    3.0279 H        1 ZINC000034015946    0.0600
55     H55    -4.7552    0.5339    5.2247 H        1 ZINC000034015946    0.0500
56     H56    -4.1105   -1.1140    5.4174 H        1 ZINC000034015946    0.0500
57     H57    -3.0204    0.2879    5.5382 H        1 ZINC000034015946    0.0600
58     H58    -3.4108   -3.5930    1.8852 H        1 ZINC000034015946    0.4200
59     H59    -6.0388   -4.1788   -1.0228 H        1 ZINC000034015946    0.1100
60     H60    -4.7096   -3.0112   -1.2180 H        1 ZINC000034015946    0.1300
61     H61    -2.8347   -7.1192   -2.8728 H        1 ZINC000034015946    0.1000
62     H62    -1.9385   -6.3208   -1.5584 H        1 ZINC000034015946    0.0600
63     H63    -3.2383   -7.4752   -1.1762 H        1 ZINC000034015946    0.0600
64     H64    -8.4707   -3.3554    1.2322 H        1 ZINC000034015946    0.0800
65     H65    -7.6669   -4.0270   -0.2196 H        1 ZINC000034015946    0.0800
66     H66   -10.1663   -4.8480    0.4088 H        1 ZINC000034015946    0.1000
67     H67    -8.9570   -6.0620   -0.1283 H        1 ZINC000034015946    0.0800
68     H68    -9.7975   -5.3423    2.7366 H        1 ZINC000034015946    0.1000
69     H69    -9.5842   -6.9709    2.0145 H        1 ZINC000034015946    0.0800
70     H70    -8.2797   -8.2925    3.4325 H        1 ZINC000034015946    0.4100
71     H71    -5.0008   -9.0653    3.1993 H        1 ZINC000034015946    0.0900
72     H72    -6.0060   -9.8286    4.4540 H        1 ZINC000034015946    0.0800
73     H73    -4.7972  -11.2615    2.0447 H        1 ZINC000034015946    0.0800
74     H74    -4.1718  -11.3371    3.7101 H        1 ZINC000034015946    0.1000
75     H75    -5.6419  -13.2958    3.1148 H        1 ZINC000034015946    0.1000
76     H76    -6.2612  -12.3507    4.4933 H        1 ZINC000034015946    0.1000
77     H77    -7.3925  -14.5805    3.0917 H        1 ZINC000034015946    0.4400
78     H78    -8.0638  -15.0237    1.6167 H        1 ZINC000034015946    0.4400
79     H79    -9.0776  -11.3081    4.4496 H        1 ZINC000034015946    0.3900
@<TRIPOS>BOND
1     1     2     1
2     1     43    1
3     1     44    1
4     1     45    1
5     2     3     1
6     2     46    1
7     2     47    1
8     3     4     1
9     3     48    1
10    3     49    1
11    4     5     1
12    4     8     1
13    4     50    1
14    5     6     1
15    5     51    1
16    5     52    1
17    6     7     1
18    6     53    1
19    6     54    1
20    7     55    1
21    7     56    1
22    7     57    1
23    8     9     2
24    8     10    am
25    10    11    1
26    10    58    1
27    11    12    1
28    11    13    1
29    11    18    1
30    13    14    1
31    13    59    1
32    13    60    1
33    14    15    2
34    14    16    1
35    16    17    1
36    17    61    1
37    17    62    1
38    17    63    1
39    18    19    2
40    18    20    am
41    20    24    1
42    20    21    1
43    21    22    1
44    21    64    1
45    21    65    1
46    22    23    1
47    22    66    1
48    22    67    1
49    23    24    1
50    23    68    1
51    23    69    1
52    24    25    1
53    24    26    1
54    26    27    2
55    26    28    am
56    28    29    1
57    28    70    1
58    29    30    1
59    29    40    1
60    29    31    1
61    31    32    1
62    31    71    1
63    31    72    1
64    32    33    1
65    32    73    1
66    32    74    1
67    33    34    1
68    33    75    1
69    33    76    1
70    34    35    ar
71    34    40    1
72    35    36    ar
73    35    37    ar
74    36    77    1
75    36    78    1
76    37    38    1
77    37    39    1
78    40    41    1
79    40    42    1
80    42    79    1
@<TRIPOS>SUBSTRUCTURE
1   ZINC000034015946 1     RESIDUE    1   A     ZIN   1
