@<TRIPOS>MOLECULE
ZINC000003931039
39    39    1     0     0
SMALL
USER_CHARGES
@<TRIPOS>ATOM
1      C1      0.4123    0.9946    0.6010 C.3      1 ZINC000003931039   -0.1300
2      C2      0.1749   -0.4256    0.0838 C.3      1 ZINC000003931039   -0.0800
3      C3      0.7607   -0.5615   -1.2980 C.2      1 ZINC000003931039   -0.1900
4      C4      2.0619   -0.7916   -1.4489 C.2      1 ZINC000003931039   -0.0200
5      C5      2.9524   -0.7681   -0.2808 C.2      1 ZINC000003931039   -0.1000
6      C6      4.4402   -0.9219   -0.4643 C.3      1 ZINC000003931039    0.1800
7      N7      4.7587   -0.9196   -1.8942 N.am     1 ZINC000003931039   -0.7200
8      C8      6.0185   -1.1672   -2.3044 C.2      1 ZINC000003931039    0.5500
9      O9      6.8903   -1.3923   -1.4879 O.2      1 ZINC000003931039   -0.5400
10     C10     6.3399   -1.1649   -3.7475 C.ar     1 ZINC000003931039   -0.1800
11     C11     7.6431   -1.4263   -4.1868 C.ar     1 ZINC000003931039   -0.0200
12     C12     7.8913   -1.4127   -5.5483 C.ar     1 ZINC000003931039   -0.1800
13     C13     6.8542   -1.1439   -6.4229 C.ar     1 ZINC000003931039    0.1100
14     N14     5.6353   -0.9005   -5.9799 N.ar     1 ZINC000003931039   -0.4900
15     C15     5.3480   -0.9078   -4.6950 C.ar     1 ZINC000003931039    0.1300
16     N16     2.4586   -0.6151    0.9070 N.2      1 ZINC000003931039   -0.2500
17     O17     3.3224   -0.4855    2.0215 O.3      1 ZINC000003931039   -0.5800
18     C18    -0.1279   -0.4366   -2.5087 C.3      1 ZINC000003931039    0.0700
19     H19     0.4604   -0.6078   -3.4103 H        1 ZINC000003931039    0.1300
20     C20    -0.7337    0.9676   -2.5540 C.3      1 ZINC000003931039   -0.1500
21     N21    -1.2021   -1.4296   -2.4306 N.pl3    1 ZINC000003931039   -0.0100
22     O22    -1.9789   -1.4139   -1.4927 O.2      1 ZINC000003931039   -0.1500
23     O23    -1.3184   -2.2709   -3.3037 O.2      1 ZINC000003931039   -0.1900
24     H24     1.4828    1.1660    0.7137 H        1 ZINC000003931039    0.0700
25     H25     0.0020    1.7130   -0.1086 H        1 ZINC000003931039    0.0300
26     H26    -0.0788    1.1165    1.5665 H        1 ZINC000003931039    0.0500
27     H27     0.6531   -1.1407    0.7531 H        1 ZINC000003931039    0.1100
28     H28    -0.8962   -0.6240    0.0455 H        1 ZINC000003931039    0.0600
29     H29     2.4639   -0.9959   -2.4303 H        1 ZINC000003931039    0.1000
30     H30     4.9540   -0.0936    0.0237 H        1 ZINC000003931039    0.0700
31     H31     4.7656   -1.8630   -0.0210 H        1 ZINC000003931039    0.0700
32     H32     4.0630   -0.7399   -2.5458 H        1 ZINC000003931039    0.3900
33     H33     8.4344   -1.6329   -3.4815 H        1 ZINC000003931039    0.1500
34     H34     8.8846   -1.6096   -5.9238 H        1 ZINC000003931039    0.1400
35     H35     7.0451   -1.1326   -7.4858 H        1 ZINC000003931039    0.1600
36     H36     4.3380   -0.7042   -4.3710 H        1 ZINC000003931039    0.1600
37     H37    -1.3093    1.1445   -1.6455 H        1 ZINC000003931039    0.0900
38     H38     0.0650    1.7057   -2.6276 H        1 ZINC000003931039    0.1000
39     H39    -1.3883    1.0531   -3.4214 H        1 ZINC000003931039    0.0700
@<TRIPOS>BOND
1     1     2     1
2     1     24    1
3     1     25    1
4     1     26    1
5     2     3     1
6     2     27    1
7     2     28    1
8     3     4     2
9     3     18    1
10    4     5     1
11    4     29    1
12    5     6     1
13    5     16    2
14    6     7     1
15    6     30    1
16    6     31    1
17    7     8     am
18    7     32    1
19    8     9     2
20    8     10    1
21    10    15    ar
22    10    11    ar
23    11    12    ar
24    11    33    1
25    12    13    ar
26    12    34    1
27    13    14    ar
28    13    35    1
29    14    15    ar
30    15    36    1
31    16    17    1
32    18    19    1
33    18    20    1
34    18    21    1
35    20    37    1
36    20    38    1
37    20    39    1
38    21    22    2
39    21    23    2
@<TRIPOS>SUBSTRUCTURE
1   ZINC000003931039 1     RESIDUE    1   A     ZIN   1
