@<TRIPOS>MOLECULE
ZINC000033972209
57    60    1     0     0
SMALL
USER_CHARGES
@<TRIPOS>ATOM
1      C1     -0.0187    1.5258    0.0104 C.3      1 ZINC000033972209   -0.1500
2      C2      0.0021   -0.0041    0.0020 C.3      1 ZINC000033972209    0.0600
3      O3     -1.3386   -0.4987    0.0122 O.3      1 ZINC000033972209   -0.2800
4      C4     -1.4984   -1.8492    0.0064 C.2      1 ZINC000033972209    0.2700
5      N5     -0.5350   -2.7384   -0.0018 N.2      1 ZINC000033972209   -0.3400
6      N6     -1.1164   -4.0128   -0.0054 N.pl3    1 ZINC000033972209   -0.3700
7      C7     -0.3952   -5.2880   -0.0145 C.3      1 ZINC000033972209    0.1900
8      C8      0.5561   -5.3187   -1.1829 C.ar     1 ZINC000033972209   -0.1400
9      C9      0.1326   -5.8076   -2.4050 C.ar     1 ZINC000033972209   -0.0600
10     C10     1.0028   -5.8368   -3.4776 C.ar     1 ZINC000033972209   -0.1500
11     C11     2.3023   -5.3748   -3.3278 C.ar     1 ZINC000033972209    0.1400
12     O12     3.1600   -5.4022   -4.3816 O.3      1 ZINC000033972209   -0.3100
13     C13     4.4824   -4.9105   -4.1546 C.3      1 ZINC000033972209    0.1400
14     C14     5.2838   -5.0188   -5.4263 C.2      1 ZINC000033972209    0.0600
15     C15     4.7608   -5.5075   -6.5558 C.2      1 ZINC000033972209   -0.2200
16     S16     6.0063   -5.4675   -7.8022 S.3      1 ZINC000033972209    0.1000
17     C17     7.1380   -4.7767   -6.6421 C.2      1 ZINC000033972209    0.1200
18     C18     8.5425   -4.4117   -6.9263 C.ar     1 ZINC000033972209   -0.0300
19     C19     9.3446   -3.8749   -5.9185 C.ar     1 ZINC000033972209   -0.0700
20     C20    10.6544   -3.5368   -6.1901 C.ar     1 ZINC000033972209   -0.1200
21     C21    11.1727   -3.7285   -7.4585 C.ar     1 ZINC000033972209   -0.1000
22     C22    10.3826   -4.2602   -8.4621 C.ar     1 ZINC000033972209   -0.1200
23     C23     9.0730   -4.6079   -8.2020 C.ar     1 ZINC000033972209   -0.1000
24     N24     6.5374   -4.6342   -5.4954 N.2      1 ZINC000033972209   -0.4600
25     C25     2.7246   -4.8844   -2.1007 C.ar     1 ZINC000033972209   -0.2100
26     C26     1.8492   -4.8528   -1.0325 C.ar     1 ZINC000033972209   -0.0400
27     C27    -2.4572   -3.8601    0.0009 C.2      1 ZINC000033972209    0.0700
28     C28    -2.7230   -2.5337    0.0145 C.2      1 ZINC000033972209   -0.2100
29     C29    -4.0917   -1.9033    0.0254 C.3      1 ZINC000033972209   -0.0200
30     C30    -4.5073   -1.5616   -1.4068 C.3      1 ZINC000033972209   -0.1700
31     C31    -5.8761   -0.9311   -1.3958 C.2      1 ZINC000033972209    0.4900
32     O32    -6.4646   -0.7700   -0.3403 O.co2    1 ZINC000033972209   -0.7000
33     O33    -6.3949   -0.5821   -2.4425 O.co2    1 ZINC000033972209   -0.7100
34     H34     1.0039    1.9031    0.0027 H        1 ZINC000033972209    0.0700
35     H35    -0.5459    1.8868   -0.8726 H        1 ZINC000033972209    0.0700
36     H36    -0.5289    1.8773    0.9072 H        1 ZINC000033972209    0.0700
37     H37     0.5123   -0.3556   -0.8948 H        1 ZINC000033972209    0.0600
38     H38     0.5293   -0.3651    0.8851 H        1 ZINC000033972209    0.0600
39     H39     0.1659   -5.3946    0.9138 H        1 ZINC000033972209    0.0900
40     H40    -1.1079   -6.1078   -0.1045 H        1 ZINC000033972209    0.1000
41     H41    -0.8791   -6.1671   -2.5210 H        1 ZINC000033972209    0.1300
42     H42     0.6717   -6.2194   -4.4317 H        1 ZINC000033972209    0.1300
43     H43     4.4337   -3.8669   -3.8437 H        1 ZINC000033972209    0.0900
44     H44     4.9603   -5.5007   -3.3726 H        1 ZINC000033972209    0.0900
45     H45     3.7497   -5.8652   -6.6824 H        1 ZINC000033972209    0.1900
46     H46     8.9410   -3.7241   -4.9282 H        1 ZINC000033972209    0.1400
47     H47    11.2763   -3.1212   -5.4110 H        1 ZINC000033972209    0.1300
48     H48    12.1983   -3.4615   -7.6662 H        1 ZINC000033972209    0.1300
49     H49    10.7931   -4.4074   -9.4501 H        1 ZINC000033972209    0.1300
50     H50     8.4574   -5.0232   -8.9862 H        1 ZINC000033972209    0.1300
51     H51     3.7358   -4.5245   -1.9816 H        1 ZINC000033972209    0.1300
52     H52     2.1773   -4.4708   -0.0771 H        1 ZINC000033972209    0.1300
53     H53    -3.1880   -4.6553   -0.0003 H        1 ZINC000033972209    0.1800
54     H54    -4.8099   -2.6014    0.4554 H        1 ZINC000033972209    0.0700
55     H55    -4.0674   -0.9925    0.6238 H        1 ZINC000033972209    0.0700
56     H56    -3.7891   -0.8634   -1.8368 H        1 ZINC000033972209    0.0500
57     H57    -4.5316   -2.4723   -2.0052 H        1 ZINC000033972209    0.0500
@<TRIPOS>BOND
1     1     2     1
2     1     34    1
3     1     35    1
4     1     36    1
5     2     3     1
6     2     37    1
7     2     38    1
8     3     4     1
9     4     28    1
10    4     5     2
11    5     6     1
12    6     7     1
13    6     27    1
14    7     8     1
15    7     39    1
16    7     40    1
17    8     26    ar
18    8     9     ar
19    9     10    ar
20    9     41    1
21    10    11    ar
22    10    42    1
23    11    12    1
24    11    25    ar
25    12    13    1
26    13    14    1
27    13    43    1
28    13    44    1
29    14    24    1
30    14    15    2
31    15    16    1
32    15    45    1
33    16    17    1
34    17    18    1
35    17    24    2
36    18    23    ar
37    18    19    ar
38    19    20    ar
39    19    46    1
40    20    21    ar
41    20    47    1
42    21    22    ar
43    21    48    1
44    22    23    ar
45    22    49    1
46    23    50    1
47    25    26    ar
48    25    51    1
49    26    52    1
50    27    28    2
51    27    53    1
52    28    29    1
53    29    30    1
54    29    54    1
55    29    55    1
56    30    31    1
57    30    56    1
58    30    57    1
59    31    32    ar
60    31    33    ar
@<TRIPOS>SUBSTRUCTURE
1   ZINC000033972209 1     RESIDUE    1   A     ZIN   1
