@<TRIPOS>MOLECULE
ZINC000043208574
68    71    1     0     0
SMALL
USER_CHARGES
@<TRIPOS>ATOM
1      C1      0.1815    1.5543   -0.0187 C.3      1 ZINC000043208574   -0.1400
2      C2      0.2893    0.0525   -0.2905 C.3      1 ZINC000043208574   -0.0700
3      C3     -0.4200   -0.2844   -1.6036 C.3      1 ZINC000043208574   -0.1400
4      C4      1.7630   -0.3493   -0.3797 C.3      1 ZINC000043208574   -0.0800
5      C5      1.8914   -1.8447   -0.3873 C.2      1 ZINC000043208574   -0.1200
6      C6      0.9376   -2.6618   -0.0072 C.2      1 ZINC000043208574   -0.0800
7      C7      1.2048   -4.1129   -0.0571 C.ar     1 ZINC000043208574    0.1300
8      N8      1.2304   -4.8182    1.0675 N.ar     1 ZINC000043208574   -0.4500
9      C9      1.4652   -6.1143    1.0658 C.ar     1 ZINC000043208574    0.1000
10     C10     1.4827   -6.8675    2.3743 C.3      1 ZINC000043208574   -0.0300
11     C11     0.9449   -8.2814    2.1507 C.3      1 ZINC000043208574   -0.1400
12     C12     0.9890   -9.0744    3.4557 C.3      1 ZINC000043208574    0.1300
13     C13    -0.1724   -8.6368    4.3570 C.3      1 ZINC000043208574   -0.1700
14     C14     0.7676  -10.5623    3.1084 C.3      1 ZINC000043208574   -0.1400
15     O15     2.2217   -8.9545    4.1260 O.3      1 ZINC000043208574   -0.3800
16     C16     2.9669   -7.7610    4.1853 C.3      1 ZINC000043208574    0.1300
17     C17     2.4867   -6.8685    5.3365 C.3      1 ZINC000043208574   -0.1700
18     C18     4.4413   -8.1222    4.4659 C.3      1 ZINC000043208574   -0.1400
19     C19     2.9228   -6.9711    2.8783 C.3      1 ZINC000043208574   -0.1300
20     C20     1.6955   -6.7969   -0.1153 C.ar     1 ZINC000043208574   -0.1500
21     C21     1.6795   -6.1059   -1.3170 C.ar     1 ZINC000043208574   -0.1000
22     C22     1.4244   -4.7389   -1.2922 C.ar     1 ZINC000043208574    0.1300
23     N23     1.3975   -4.0005   -2.4764 N.am     1 ZINC000043208574   -0.6500
24     C24     2.0827   -4.4307   -3.5544 C.2      1 ZINC000043208574    0.6300
25     O25     2.6606   -5.5000   -3.5205 O.2      1 ZINC000043208574   -0.5300
26     C26     2.1316   -3.6042   -4.7753 C.2      1 ZINC000043208574    0.0500
27     N27     2.7588   -3.9177   -5.8846 N.2      1 ZINC000043208574   -0.4500
28     C28     2.5861   -2.9319   -6.7786 C.2      1 ZINC000043208574   -0.0400
29     C29     3.1129   -2.8971   -8.1097 C.1      1 ZINC000043208574    0.3300
30     N30     3.5308   -2.8696   -9.1657 N.1      1 ZINC000043208574   -0.4900
31     C31     1.8083   -1.9571   -6.1845 C.2      1 ZINC000043208574   -0.0100
32     N32     1.5254   -2.3884   -4.9380 N.pl3    1 ZINC000043208574   -0.5300
33     C33    -0.4089   -2.2075    0.4758 C.3      1 ZINC000043208574   -0.0700
34     C34    -0.3588   -0.7273    0.8601 C.3      1 ZINC000043208574   -0.1000
35     H35     0.6936    1.7925    0.9136 H        1 ZINC000043208574    0.0500
36     H36     0.6428    2.1058   -0.8378 H        1 ZINC000043208574    0.0600
37     H37    -0.8688    1.8344    0.0619 H        1 ZINC000043208574    0.0500
38     H38     0.0471    0.2657   -2.4205 H        1 ZINC000043208574    0.0600
39     H39    -0.3416   -1.3547   -1.7947 H        1 ZINC000043208574    0.0600
40     H40    -1.4709   -0.0043   -1.5311 H        1 ZINC000043208574    0.0500
41     H41     2.1929    0.0549   -1.2962 H        1 ZINC000043208574    0.0800
42     H42     2.3004    0.0552    0.4780 H        1 ZINC000043208574    0.0700
43     H43     2.8232   -2.2732   -0.7257 H        1 ZINC000043208574    0.1000
44     H44     0.8662   -6.3380    3.0966 H        1 ZINC000043208574    0.0900
45     H45    -0.0858   -8.2254    1.7937 H        1 ZINC000043208574    0.0800
46     H46     1.5533   -8.7864    1.3973 H        1 ZINC000043208574    0.0800
47     H47    -1.1179   -8.8250    3.8484 H        1 ZINC000043208574    0.0600
48     H48    -0.1422   -9.2019    5.2886 H        1 ZINC000043208574    0.0600
49     H49    -0.0824   -7.5725    4.5745 H        1 ZINC000043208574    0.0600
50     H50     1.5546  -10.8988    2.4335 H        1 ZINC000043208574    0.0600
51     H51     0.7936  -11.1564    4.0219 H        1 ZINC000043208574    0.0600
52     H52    -0.2017  -10.6821    2.6245 H        1 ZINC000043208574    0.0700
53     H53     2.6028   -7.4000    6.2810 H        1 ZINC000043208574    0.0600
54     H54     3.0794   -5.9540    5.3589 H        1 ZINC000043208574    0.0600
55     H55     1.4365   -6.6173    5.1877 H        1 ZINC000043208574    0.0600
56     H56     4.8183   -8.7583    3.6651 H        1 ZINC000043208574    0.0600
57     H57     5.0358   -7.2100    4.5156 H        1 ZINC000043208574    0.0700
58     H58     4.5110   -8.6535    5.4151 H        1 ZINC000043208574    0.0600
59     H59     3.5349   -7.4753    2.1275 H        1 ZINC000043208574    0.0700
60     H60     3.3221   -5.9685    3.0454 H        1 ZINC000043208574    0.0800
61     H61     1.8866   -7.8598   -0.1012 H        1 ZINC000043208574    0.1300
62     H62     1.8567   -6.6180   -2.2513 H        1 ZINC000043208574    0.1700
63     H63     0.8858   -3.1779   -2.5236 H        1 ZINC000043208574    0.4200
64     H64     1.4853   -1.0294   -6.6333 H        1 ZINC000043208574    0.1500
65     H65    -1.1440   -2.3505   -0.3162 H        1 ZINC000043208574    0.0700
66     H66    -0.6985   -2.7971    1.3457 H        1 ZINC000043208574    0.0700
67     H67     0.2347   -0.6041    1.7661 H        1 ZINC000043208574    0.0600
68     H68    -1.3705   -0.3583    1.0286 H        1 ZINC000043208574    0.0600
@<TRIPOS>BOND
1     1     2     1
2     1     35    1
3     1     36    1
4     1     37    1
5     2     34    1
6     2     3     1
7     2     4     1
8     3     38    1
9     3     39    1
10    3     40    1
11    4     5     1
12    4     41    1
13    4     42    1
14    5     6     2
15    5     43    1
16    6     7     1
17    6     33    1
18    7     22    ar
19    7     8     ar
20    8     9     ar
21    9     10    1
22    9     20    ar
23    10    19    1
24    10    11    1
25    10    44    1
26    11    12    1
27    11    45    1
28    11    46    1
29    12    13    1
30    12    14    1
31    12    15    1
32    13    47    1
33    13    48    1
34    13    49    1
35    14    50    1
36    14    51    1
37    14    52    1
38    15    16    1
39    16    17    1
40    16    18    1
41    16    19    1
42    17    53    1
43    17    54    1
44    17    55    1
45    18    56    1
46    18    57    1
47    18    58    1
48    19    59    1
49    19    60    1
50    20    21    ar
51    20    61    1
52    21    22    ar
53    21    62    1
54    22    23    1
55    23    24    am
56    23    63    1
57    24    25    2
58    24    26    1
59    26    32    1
60    26    27    2
61    27    28    1
62    28    29    1
63    28    31    2
64    29    30    3
65    31    32    1
66    31    64    1
67    33    34    1
68    33    65    1
69    33    66    1
70    34    67    1
71    34    68    1
@<TRIPOS>SUBSTRUCTURE
1   ZINC000043208574 1     RESIDUE    1   A     ZIN   1
