@<TRIPOS>MOLECULE
ZINC000000139370
31    32    1     0     0
SMALL
USER_CHARGES
@<TRIPOS>ATOM
1      C1     -0.0187    1.5258    0.0104 C.3      1 ZINC000000139370   -0.1800
2      C2      0.0021   -0.0041    0.0020 C.3      1 ZINC000000139370   -0.1500
3      C3     -1.4333   -0.5336    0.0129 C.3      1 ZINC000000139370    0.0300
4      H4     -1.9701   -0.1109    0.8621 H        1 ZINC000000139370    0.1400
5      N5     -2.1072   -0.1473   -1.2339 N.4      1 ZINC000000139370   -0.6400
6      H6     -3.0538   -0.4965   -1.2267 H        1 ZINC000000139370    0.4400
7      H7     -2.1205    0.8587   -1.3113 H        1 ZINC000000139370    0.4300
8      H8     -1.6103   -0.5386   -2.0201 H        1 ZINC000000139370    0.4300
9      C9     -1.4133   -2.0590    0.1302 C.3      1 ZINC000000139370   -0.0600
10     C10    -2.8242   -2.5711    0.2645 C.2      1 ZINC000000139370   -0.2300
11     C11    -3.4698   -2.8418    1.4098 C.2      1 ZINC000000139370    0.1000
12     N12    -4.7346   -3.2877    1.1384 N.pl3    1 ZINC000000139370   -0.5900
13     C13    -4.9391   -3.3155   -0.2230 C.ar     1 ZINC000000139370    0.1000
14     C14    -6.0184   -3.6773   -1.0221 C.ar     1 ZINC000000139370   -0.1100
15     C15    -5.9130   -3.5936   -2.3934 C.ar     1 ZINC000000139370   -0.0900
16     C16    -4.7392   -3.1514   -2.9875 C.ar     1 ZINC000000139370   -0.1200
17     C17    -3.6665   -2.7909   -2.2214 C.ar     1 ZINC000000139370   -0.1100
18     C18    -3.7535   -2.8618   -0.8300 C.ar     1 ZINC000000139370   -0.1200
19     H19     1.0039    1.9031    0.0027 H        1 ZINC000000139370    0.0800
20     H20    -0.5459    1.8868   -0.8726 H        1 ZINC000000139370    0.0500
21     H21    -0.5289    1.8773    0.9072 H        1 ZINC000000139370    0.0700
22     H22     0.5123   -0.3556   -0.8948 H        1 ZINC000000139370    0.0900
23     H23     0.5293   -0.3651    0.8851 H        1 ZINC000000139370    0.1100
24     H24    -0.9551   -2.4861   -0.7619 H        1 ZINC000000139370    0.0900
25     H25    -0.8366   -2.3483    1.0088 H        1 ZINC000000139370    0.1200
26     H26    -3.0525   -2.7254    2.3991 H        1 ZINC000000139370    0.1800
27     H27    -5.3897   -3.5458    1.8056 H        1 ZINC000000139370    0.4300
28     H28    -6.9360   -4.0229   -0.5693 H        1 ZINC000000139370    0.1300
29     H29    -6.7521   -3.8754   -3.0122 H        1 ZINC000000139370    0.1400
30     H30    -4.6729   -3.0921   -4.0638 H        1 ZINC000000139370    0.1300
31     H31    -2.7563   -2.4477   -2.6907 H        1 ZINC000000139370    0.1100
@<TRIPOS>BOND
1     1     2     1
2     1     19    1
3     1     20    1
4     1     21    1
5     2     3     1
6     2     22    1
7     2     23    1
8     3     4     1
9     3     5     1
10    3     9     1
11    5     6     1
12    5     7     1
13    5     8     1
14    9     10    1
15    9     24    1
16    9     25    1
17    10    18    1
18    10    11    2
19    11    12    1
20    11    26    1
21    12    13    1
22    12    27    1
23    13    18    ar
24    13    14    ar
25    14    15    ar
26    14    28    1
27    15    16    ar
28    15    29    1
29    16    17    ar
30    16    30    1
31    17    18    ar
32    17    31    1
@<TRIPOS>SUBSTRUCTURE
1   ZINC000000139370 1     RESIDUE    1   A     ZIN   1
