@<TRIPOS>MOLECULE
ZINC000058485982
106   110   1     0     0
SMALL
USER_CHARGES
@<TRIPOS>ATOM
1      C1      0.3526    0.9942   -1.5302 C.3      1 ZINC000058485982   -0.1500
2      C2      0.1884   -0.4912   -1.2025 C.3      1 ZINC000058485982   -0.1200
3      C3     -1.2951   -0.8086   -1.0036 C.3      1 ZINC000058485982   -0.1000
4      H4     -1.8553   -0.4931   -1.8838 H        1 ZINC000058485982    0.0700
5      C5     -1.8157   -0.0628    0.2267 C.3      1 ZINC000058485982   -0.1500
6      C6     -1.4715   -2.3146   -0.7995 C.3      1 ZINC000058485982    0.1200
7      N7     -2.8996   -2.6338   -0.7284 N.am     1 ZINC000058485982   -0.7300
8      C8     -3.2970   -3.9093   -0.5505 C.2      1 ZINC000058485982    0.5100
9      O9     -2.4723   -4.7929   -0.4495 O.2      1 ZINC000058485982   -0.5200
10     C10    -4.7659   -4.2376   -0.4773 C.3      1 ZINC000058485982   -0.1700
11     C11    -4.9424   -5.7436   -0.2733 C.3      1 ZINC000058485982    0.1200
12     H12    -4.3821   -6.0591    0.6069 H        1 ZINC000058485982    0.1300
13     O13    -4.4561   -6.4402   -1.4223 O.3      1 ZINC000058485982   -0.5300
14     C14    -6.4258   -6.0610   -0.0743 C.3      1 ZINC000058485982    0.1100
15     H15    -6.7967   -5.5296    0.8021 H        1 ZINC000058485982    0.1100
16     C16    -6.6023   -7.5670    0.1297 C.3      1 ZINC000058485982   -0.1200
17     C17    -5.8952   -7.9934    1.4178 C.3      1 ZINC000058485982   -0.1000
18     C18    -6.5709   -7.3238    2.6162 C.3      1 ZINC000058485982   -0.1500
19     C19    -5.9813   -9.5136    1.5676 C.3      1 ZINC000058485982   -0.1500
20     N20    -7.1788   -5.6370   -1.2573 N.am     1 ZINC000058485982   -0.7200
21     C21    -8.4863   -5.3286   -1.1491 C.2      1 ZINC000058485982    0.5100
22     O22    -9.0158   -5.3062   -0.0581 O.2      1 ZINC000058485982   -0.5000
23     C23    -9.2905   -5.0116   -2.3835 C.3      1 ZINC000058485982    0.1200
24     H24    -8.9785   -5.6652   -3.1981 H        1 ZINC000058485982    0.1300
25     C25    -9.0585   -3.5529   -2.7827 C.3      1 ZINC000058485982   -0.0700
26     C26    -9.7639   -3.2699   -4.0839 C.2      1 ZINC000058485982    0.0400
27     C27    -9.2763   -3.5077   -5.3165 C.2      1 ZINC000058485982    0.0500
28     N28   -10.2358   -3.1063   -6.2063 N.pl3    1 ZINC000058485982   -0.5000
29     C29   -11.2772   -2.6367   -5.4860 C.cat    1 ZINC000058485982    0.3000
30     N30   -10.9899   -2.7424   -4.2174 N.pl3    1 ZINC000058485982   -0.4700
31     H31   -11.5693   -2.4763   -3.4864 H        1 ZINC000058485982    0.4600
32     N32   -10.7136   -5.2217   -2.1066 N.am     1 ZINC000058485982   -0.7100
33     C33   -11.5102   -5.7660   -3.0477 C.2      1 ZINC000058485982    0.5200
34     O34   -11.0324   -6.1702   -4.0866 O.2      1 ZINC000058485982   -0.5300
35     C35   -12.9944   -5.8722   -2.8092 C.3      1 ZINC000058485982   -0.1000
36     C36   -13.7416   -5.6042   -4.1172 C.3      1 ZINC000058485982   -0.0600
37     C37   -15.2253   -5.5890   -3.8540 C.ar     1 ZINC000058485982   -0.0900
38     C38   -15.8533   -4.4099   -3.4186 C.ar     1 ZINC000058485982   -0.0400
39     C39   -15.1238   -3.2253   -3.2192 C.ar     1 ZINC000058485982   -0.1200
40     C40   -15.7660   -2.1021   -2.7972 C.ar     1 ZINC000058485982   -0.1100
41     C41   -17.1391   -2.1073   -2.5583 C.ar     1 ZINC000058485982   -0.1200
42     C42   -17.8778   -3.2358   -2.7401 C.ar     1 ZINC000058485982   -0.0900
43     C43   -17.2499   -4.4151   -3.1762 C.ar     1 ZINC000058485982   -0.0500
44     C44   -17.9792   -5.5993   -3.3756 C.ar     1 ZINC000058485982   -0.1000
45     C45   -17.3371   -6.7225   -3.7990 C.ar     1 ZINC000058485982   -0.1100
46     C46   -15.9652   -6.7161   -4.0422 C.ar     1 ZINC000058485982   -0.1000
47     C47   -13.3310   -7.2782   -2.3084 C.3      1 ZINC000058485982   -0.0700
48     C48   -12.7055   -7.4923   -0.9542 C.ar     1 ZINC000058485982   -0.0900
49     C49   -13.3563   -7.0359    0.2044 C.ar     1 ZINC000058485982   -0.0400
50     C50   -14.5948   -6.3752    0.1337 C.ar     1 ZINC000058485982   -0.1100
51     C51   -15.1959   -5.9474    1.2772 C.ar     1 ZINC000058485982   -0.1100
52     C52   -14.6017   -6.1539    2.5210 C.ar     1 ZINC000058485982   -0.1200
53     C53   -13.4031   -6.7893    2.6282 C.ar     1 ZINC000058485982   -0.1000
54     C54   -12.7522   -7.2464    1.4693 C.ar     1 ZINC000058485982   -0.0500
55     C55   -11.5143   -7.9070    1.5401 C.ar     1 ZINC000058485982   -0.0900
56     C56   -10.9135   -8.3361    0.3964 C.ar     1 ZINC000058485982   -0.1100
57     C57   -11.5097   -8.1337   -0.8466 C.ar     1 ZINC000058485982   -0.1000
58     H58     1.4095    1.2203   -1.6719 H        1 ZINC000058485982    0.0600
59     H59    -0.1945    1.2275   -2.4436 H        1 ZINC000058485982    0.0500
60     H60    -0.0400    1.5931   -0.7084 H        1 ZINC000058485982    0.0600
61     H61     0.5811   -1.0901   -2.0243 H        1 ZINC000058485982    0.0700
62     H62     0.7355   -0.7245   -0.2891 H        1 ZINC000058485982    0.0700
63     H63    -2.8725   -0.2889    0.3684 H        1 ZINC000058485982    0.0500
64     H64    -1.2554   -0.3782    1.1068 H        1 ZINC000058485982    0.0600
65     H65    -1.6900    1.0102    0.0813 H        1 ZINC000058485982    0.0600
66     H66    -1.0208   -2.8498   -1.6353 H        1 ZINC000058485982    0.0700
67     H67    -0.9854   -2.6149    0.1287 H        1 ZINC000058485982    0.0700
68     H68    -3.5591   -1.9271   -0.8092 H        1 ZINC000058485982    0.4000
69     H69    -5.2166   -3.7024    0.3585 H        1 ZINC000058485982    0.1000
70     H70    -5.2520   -3.9373   -1.4056 H        1 ZINC000058485982    0.0900
71     H71    -4.9102   -6.2085   -2.2441 H        1 ZINC000058485982    0.3600
72     H72    -7.6641   -7.8018    0.2033 H        1 ZINC000058485982    0.0700
73     H73    -6.1698   -8.1014   -0.7161 H        1 ZINC000058485982    0.0700
74     H74    -4.8488   -7.6912    1.3751 H        1 ZINC000058485982    0.0800
75     H75    -7.6391   -7.5401    2.5986 H        1 ZINC000058485982    0.0600
76     H76    -6.1375   -7.7085    3.5394 H        1 ZINC000058485982    0.0600
77     H77    -6.4176   -6.2459    2.5643 H        1 ZINC000058485982    0.0500
78     H78    -5.4999   -9.9906    0.7139 H        1 ZINC000058485982    0.0600
79     H79    -5.4776   -9.8174    2.4852 H        1 ZINC000058485982    0.0600
80     H80    -7.0276   -9.8159    1.6103 H        1 ZINC000058485982    0.0500
81     H81    -6.7363   -5.5782   -2.1185 H        1 ZINC000058485982    0.4000
82     H82    -9.4516   -2.8968   -2.0061 H        1 ZINC000058485982    0.1100
83     H83    -7.9899   -3.3745   -2.9024 H        1 ZINC000058485982    0.1300
84     H84    -8.3131   -3.9331   -5.5567 H        1 ZINC000058485982    0.2300
85     H85   -10.1785   -3.1507   -7.1736 H        1 ZINC000058485982    0.4700
86     H86   -12.1970   -2.2429   -5.8924 H        1 ZINC000058485982    0.2600
87     H87   -11.0827   -4.9691   -1.2458 H        1 ZINC000058485982    0.4200
88     H88   -13.2957   -5.1384   -2.0617 H        1 ZINC000058485982    0.1000
89     H89   -13.4341   -4.6392   -4.5201 H        1 ZINC000058485982    0.0600
90     H90   -13.5082   -6.3893   -4.8364 H        1 ZINC000058485982    0.0900
91     H91   -14.0592   -3.2065   -3.3997 H        1 ZINC000058485982    0.1100
92     H92   -15.2031   -1.1931   -2.6448 H        1 ZINC000058485982    0.1200
93     H93   -17.6242   -1.2023   -2.2235 H        1 ZINC000058485982    0.1300
94     H94   -18.9409   -3.2251   -2.5503 H        1 ZINC000058485982    0.1300
95     H95   -19.0435   -5.6185   -3.1936 H        1 ZINC000058485982    0.1300
96     H96   -17.9000   -7.6316   -3.9512 H        1 ZINC000058485982    0.1300
97     H97   -15.4802   -7.6208   -4.3779 H        1 ZINC000058485982    0.1300
98     H98   -14.4128   -7.3867   -2.2302 H        1 ZINC000058485982    0.1000
99     H99   -12.9416   -8.0165   -3.0093 H        1 ZINC000058485982    0.0800
100    H100  -15.0667   -6.2076   -0.8232 H        1 ZINC000058485982    0.1200
101    H101  -16.1476   -5.4400    1.2200 H        1 ZINC000058485982    0.1200
102    H102  -15.0999   -5.8040    3.4131 H        1 ZINC000058485982    0.1200
103    H103  -12.9543   -6.9416    3.5987 H        1 ZINC000058485982    0.1300
104    H104  -11.0416   -8.0731    2.4968 H        1 ZINC000058485982    0.1300
105    H105   -9.9617   -8.8433    0.4536 H        1 ZINC000058485982    0.1200
106    H106  -11.0120   -8.4844   -1.7386 H        1 ZINC000058485982    0.1100
@<TRIPOS>BOND
1     1     2     1
2     1     58    1
3     1     59    1
4     1     60    1
5     2     3     1
6     2     61    1
7     2     62    1
8     3     4     1
9     3     5     1
10    3     6     1
11    5     63    1
12    5     64    1
13    5     65    1
14    6     7     1
15    6     66    1
16    6     67    1
17    7     8     am
18    7     68    1
19    8     9     2
20    8     10    1
21    10    11    1
22    10    69    1
23    10    70    1
24    11    12    1
25    11    13    1
26    11    14    1
27    13    71    1
28    14    15    1
29    14    16    1
30    14    20    1
31    16    17    1
32    16    72    1
33    16    73    1
34    17    18    1
35    17    19    1
36    17    74    1
37    18    75    1
38    18    76    1
39    18    77    1
40    19    78    1
41    19    79    1
42    19    80    1
43    20    21    am
44    20    81    1
45    21    22    2
46    21    23    1
47    23    24    1
48    23    25    1
49    23    32    1
50    25    26    1
51    25    82    1
52    25    83    1
53    26    30    1
54    26    27    2
55    27    28    1
56    27    84    1
57    28    29    ar
58    28    85    1
59    29    30    ar
60    29    86    1
61    30    31    1
62    32    33    am
63    32    87    1
64    33    34    2
65    33    35    1
66    35    36    1
67    35    47    1
68    35    88    1
69    36    37    1
70    36    89    1
71    36    90    1
72    37    46    ar
73    37    38    ar
74    38    43    ar
75    38    39    ar
76    39    40    ar
77    39    91    1
78    40    41    ar
79    40    92    1
80    41    42    ar
81    41    93    1
82    42    43    ar
83    42    94    1
84    43    44    ar
85    44    45    ar
86    44    95    1
87    45    46    ar
88    45    96    1
89    46    97    1
90    47    48    1
91    47    98    1
92    47    99    1
93    48    57    ar
94    48    49    ar
95    49    54    ar
96    49    50    ar
97    50    51    ar
98    50    100   1
99    51    52    ar
100   51    101   1
101   52    53    ar
102   52    102   1
103   53    54    ar
104   53    103   1
105   54    55    ar
106   55    56    ar
107   55    104   1
108   56    57    ar
109   56    105   1
110   57    106   1
@<TRIPOS>SUBSTRUCTURE
1   ZINC000058485982 1     RESIDUE    1   A     ZIN   1
