@<TRIPOS>MOLECULE
ZINC000136188048
51    54    1     0     0
SMALL
USER_CHARGES
@<TRIPOS>ATOM
1      O1      0.0021   -0.0041    0.0020 O.2      1 ZINC000136188048   -0.4400
2      C2     -0.0144    1.2085    0.0087 C.2      1 ZINC000136188048    0.4000
3      C3      1.2803    1.9797    0.0005 C.3      1 ZINC000136188048   -0.0600
4      N4      2.4097    1.0404   -0.0154 N.4      1 ZINC000136188048   -0.3800
5      H5      2.3259    0.4022    0.7616 H        1 ZINC000136188048    0.4300
6      C6      3.6675    1.7879    0.1009 C.3      1 ZINC000136188048   -0.0100
7      C7      4.8424    0.8097    0.1665 C.3      1 ZINC000136188048   -0.1400
8      C8      4.8661   -0.0372   -1.1092 C.3      1 ZINC000136188048   -0.1200
9      C9      5.9900   -1.0713   -1.0159 C.3      1 ZINC000136188048    0.1400
10     N10     6.0889   -1.8006   -2.2826 N.am     1 ZINC000136188048   -0.6200
11     C11     5.3645   -3.0315   -2.6188 C.3      1 ZINC000136188048    0.1400
12     C12     5.7885   -3.4021   -4.0180 C.ar     1 ZINC000136188048   -0.0900
13     C13     5.4561   -4.4373   -4.8603 C.ar     1 ZINC000136188048   -0.1000
14     C14     6.0250   -4.5132   -6.1210 C.ar     1 ZINC000136188048   -0.0800
15     C15     6.9273   -3.5501   -6.5361 C.ar     1 ZINC000136188048   -0.1200
16     C16     7.2679   -2.5077   -5.6987 C.ar     1 ZINC000136188048   -0.0400
17     C17     6.6986   -2.4242   -4.4271 C.ar     1 ZINC000136188048   -0.1600
18     C18     6.8539   -1.4492   -3.3306 C.2      1 ZINC000136188048    0.5600
19     O19     7.5729   -0.4699   -3.3684 O.2      1 ZINC000136188048   -0.5200
20     C20     3.5214   -0.7545   -1.2590 C.3      1 ZINC000136188048   -0.1400
21     C21     2.3965    0.2829   -1.2725 C.3      1 ZINC000136188048   -0.0200
22     C22    -1.2974    1.9262    0.0187 C.ar     1 ZINC000136188048   -0.2000
23     C23    -1.3199    3.3255    0.0206 C.ar     1 ZINC000136188048   -0.0400
24     C24    -2.5255    3.9917    0.0300 C.ar     1 ZINC000136188048   -0.1600
25     C25    -3.7154    3.2788    0.0380 C.ar     1 ZINC000136188048    0.1600
26     F26    -4.8945    3.9384    0.0477 F        1 ZINC000136188048   -0.1200
27     C27    -3.7002    1.8917    0.0357 C.ar     1 ZINC000136188048   -0.1600
28     C28    -2.5015    1.2132    0.0205 C.ar     1 ZINC000136188048   -0.0100
29     H29     1.3211    2.6119   -0.8866 H        1 ZINC000136188048    0.1700
30     H30     1.3381    2.6023    0.8933 H        1 ZINC000136188048    0.1700
31     H31     3.7847    2.4382   -0.7660 H        1 ZINC000136188048    0.1300
32     H32     3.6478    2.3927    1.0075 H        1 ZINC000136188048    0.1400
33     H33     5.7755    1.3667    0.2510 H        1 ZINC000136188048    0.1200
34     H34     4.7264    0.1591    1.0333 H        1 ZINC000136188048    0.0900
35     H35     5.0348    0.6075   -1.9717 H        1 ZINC000136188048    0.1000
36     H36     6.9337   -0.5649   -0.8135 H        1 ZINC000136188048    0.1000
37     H37     5.7732   -1.7717   -0.2094 H        1 ZINC000136188048    0.0900
38     H38     5.6334   -3.8263   -1.9231 H        1 ZINC000136188048    0.1000
39     H39     4.2895   -2.8538   -2.5879 H        1 ZINC000136188048    0.0900
40     H40     4.7523   -5.1908   -4.5388 H        1 ZINC000136188048    0.1300
41     H41     5.7637   -5.3266   -6.7816 H        1 ZINC000136188048    0.1400
42     H42     7.3674   -3.6148   -7.5202 H        1 ZINC000136188048    0.1400
43     H43     7.9733   -1.7584   -6.0264 H        1 ZINC000136188048    0.1300
44     H44     3.5103   -1.3156   -2.1935 H        1 ZINC000136188048    0.1100
45     H45     3.3780   -1.4376   -0.4218 H        1 ZINC000136188048    0.0900
46     H46     1.4372   -0.2234   -1.3793 H        1 ZINC000136188048    0.1400
47     H47     2.5417    0.9647   -2.1105 H        1 ZINC000136188048    0.1300
48     H48    -0.3942    3.8817    0.0151 H        1 ZINC000136188048    0.1400
49     H49    -2.5443    5.0716    0.0315 H        1 ZINC000136188048    0.1500
50     H50    -4.6301    1.3426    0.0420 H        1 ZINC000136188048    0.1500
51     H51    -2.4909    0.1332    0.0184 H        1 ZINC000136188048    0.1500
@<TRIPOS>BOND
1     1     2     2
2     2     3     1
3     2     22    1
4     3     4     1
5     3     29    1
6     3     30    1
7     4     5     1
8     4     21    1
9     4     6     1
10    6     7     1
11    6     31    1
12    6     32    1
13    7     8     1
14    7     33    1
15    7     34    1
16    8     9     1
17    8     20    1
18    8     35    1
19    9     10    1
20    9     36    1
21    9     37    1
22    10    18    am
23    10    11    1
24    11    12    1
25    11    38    1
26    11    39    1
27    12    17    ar
28    12    13    ar
29    13    14    ar
30    13    40    1
31    14    15    ar
32    14    41    1
33    15    16    ar
34    15    42    1
35    16    17    ar
36    16    43    1
37    17    18    1
38    18    19    2
39    20    21    1
40    20    44    1
41    20    45    1
42    21    46    1
43    21    47    1
44    22    28    ar
45    22    23    ar
46    23    24    ar
47    23    48    1
48    24    25    ar
49    24    49    1
50    25    26    1
51    25    27    ar
52    27    28    ar
53    27    50    1
54    28    51    1
@<TRIPOS>SUBSTRUCTURE
1   ZINC000136188048 1     RESIDUE    1   A     ZIN   1
