@<TRIPOS>MOLECULE
ZINC000003943056
63    64    1     0     0
SMALL
USER_CHARGES
@<TRIPOS>ATOM
1      C1     -0.0178    1.4648    0.0101 C.3      1 ZINC000003943056    0.0300
2      N2      0.0021   -0.0041    0.0020 N.3      1 ZINC000003943056   -0.4700
3      C3      0.7062   -0.5275    1.1802 C.3      1 ZINC000003943056    0.0300
4      C4     -1.2808   -0.5170   -0.0776 C.ar     1 ZINC000003943056    0.4200
5      C5     -1.5004   -1.9048   -0.0935 C.ar     1 ZINC000003943056   -0.0700
6      N6     -0.6999   -2.9966   -0.0471 N.2      1 ZINC000003943056   -0.4600
7      C7     -1.4311   -4.0722   -0.0939 C.2      1 ZINC000003943056    0.2600
8      N8     -2.7497   -3.7358   -0.1734 N.pl3    1 ZINC000003943056   -0.4700
9      C9     -3.8790   -4.6664   -0.2437 C.3      1 ZINC000003943056    0.1100
10     C10    -4.2651   -4.8902   -1.7071 C.3      1 ZINC000003943056   -0.1300
11     C11    -5.4445   -5.8621   -1.7805 C.3      1 ZINC000003943056   -0.1100
12     C12    -5.8306   -6.0859   -3.2440 C.3      1 ZINC000003943056   -0.1200
13     C13    -7.0100   -7.0578   -3.3174 C.3      1 ZINC000003943056    0.0900
14     O14    -7.3764   -7.2702   -4.7062 O.3      1 ZINC000003943056   -0.3800
15     C15    -8.4044   -8.1058   -4.9462 C.2      1 ZINC000003943056    0.6400
16     O16    -8.9797   -8.6429   -4.0204 O.2      1 ZINC000003943056   -0.5700
17     N17    -8.7955   -8.3466   -6.2133 N.am     1 ZINC000003943056   -0.6800
18     C18    -9.9141   -9.2559   -6.4745 C.3      1 ZINC000003943056    0.0900
19     H19    -9.9051  -10.0628   -5.7417 H        1 ZINC000003943056    0.0900
20     C20    -9.7768   -9.8425   -7.8808 C.3      1 ZINC000003943056   -0.1100
21     C21    -8.5217  -10.7149   -7.9493 C.3      1 ZINC000003943056   -0.1300
22     C22    -8.3844  -11.3016   -9.3556 C.3      1 ZINC000003943056    0.0900
23     N23    -7.1826  -12.1368   -9.4211 N.pl3    1 ZINC000003943056   -0.6900
24     C24    -6.8524  -12.7698  -10.5879 C.cat    1 ZINC000003943056    0.7400
25     N25    -7.6235  -12.6267  -11.6645 N.pl3    1 ZINC000003943056   -0.7900
26     N26    -5.7598  -13.5292  -10.6475 N.pl3    1 ZINC000003943056   -0.8000
27     H27    -5.5256  -13.9780  -11.4749 H        1 ZINC000003943056    0.4400
28     H28    -5.1982  -13.6333   -9.8635 H        1 ZINC000003943056    0.4400
29     C29   -11.2124   -8.4977   -6.3710 C.2      1 ZINC000003943056    0.4900
30     O30   -11.2492   -7.3111   -6.6485 O.co2    1 ZINC000003943056   -0.6800
31     O31   -12.2259   -9.0710   -6.0097 O.co2    1 ZINC000003943056   -0.6900
32     C32    -2.8253   -2.3659   -0.1751 C.ar     1 ZINC000003943056    0.2900
33     N33    -3.8148   -1.4807   -0.2334 N.ar     1 ZINC000003943056   -0.5400
34     C34    -3.5614   -0.1890   -0.2152 C.ar     1 ZINC000003943056    0.3400
35     N35    -2.3341    0.2915   -0.1352 N.ar     1 ZINC000003943056   -0.5700
36     H36     1.0047    1.8421    0.0024 H        1 ZINC000003943056    0.0800
37     H37    -0.5450    1.8259   -0.8730 H        1 ZINC000003943056    0.0800
38     H38    -0.5280    1.8163    0.9069 H        1 ZINC000003943056    0.0500
39     H39     0.1617   -0.2488    2.0824 H        1 ZINC000003943056    0.0400
40     H40     0.7676   -1.6137    1.1140 H        1 ZINC000003943056    0.1000
41     H41     1.7116   -0.1084    1.2186 H        1 ZINC000003943056    0.0900
42     H42    -1.0494   -5.0823   -0.0731 H        1 ZINC000003943056    0.2200
43     H43    -3.5947   -5.6174    0.2066 H        1 ZINC000003943056    0.1000
44     H44    -4.7285   -4.2482    0.2964 H        1 ZINC000003943056    0.1000
45     H45    -4.5494   -3.9392   -2.1574 H        1 ZINC000003943056    0.0700
46     H46    -3.4156   -5.3083   -2.2471 H        1 ZINC000003943056    0.0700
47     H47    -5.1602   -6.8131   -1.3302 H        1 ZINC000003943056    0.0700
48     H48    -6.2940   -5.4439   -1.2405 H        1 ZINC000003943056    0.0700
49     H49    -6.1149   -5.1349   -3.6943 H        1 ZINC000003943056    0.0800
50     H50    -4.9811   -6.5040   -3.7840 H        1 ZINC000003943056    0.0700
51     H51    -6.7256   -8.0088   -2.8671 H        1 ZINC000003943056    0.0700
52     H52    -7.8595   -6.6397   -2.7773 H        1 ZINC000003943056    0.0700
53     H53    -8.3362   -7.9179   -6.9524 H        1 ZINC000003943056    0.4000
54     H54   -10.6535  -10.4488   -8.1088 H        1 ZINC000003943056    0.0900
55     H55    -9.6965   -9.0328   -8.6061 H        1 ZINC000003943056    0.0800
56     H56    -7.6450  -10.1086   -7.7213 H        1 ZINC000003943056    0.0800
57     H57    -8.6020  -11.5246   -7.2240 H        1 ZINC000003943056    0.0800
58     H58    -9.2611  -11.9078   -9.5836 H        1 ZINC000003943056    0.1000
59     H59    -8.3041  -10.4918  -10.0809 H        1 ZINC000003943056    0.0900
60     H60    -6.6211  -12.2410   -8.6371 H        1 ZINC000003943056    0.4400
61     H61    -8.4192  -12.0737  -11.6211 H        1 ZINC000003943056    0.4400
62     H62    -7.3893  -13.0755  -12.4919 H        1 ZINC000003943056    0.4400
63     H63    -4.3886    0.5037   -0.2641 H        1 ZINC000003943056    0.2100
@<TRIPOS>BOND
1     1     2     1
2     1     36    1
3     1     37    1
4     1     38    1
5     2     3     1
6     2     4     1
7     3     39    1
8     3     40    1
9     3     41    1
10    4     35    ar
11    4     5     ar
12    5     32    ar
13    5     6     1
14    6     7     2
15    7     8     1
16    7     42    1
17    8     9     1
18    8     32    1
19    9     10    1
20    9     43    1
21    9     44    1
22    10    11    1
23    10    45    1
24    10    46    1
25    11    12    1
26    11    47    1
27    11    48    1
28    12    13    1
29    12    49    1
30    12    50    1
31    13    14    1
32    13    51    1
33    13    52    1
34    14    15    1
35    15    16    2
36    15    17    am
37    17    18    1
38    17    53    1
39    18    19    1
40    18    20    1
41    18    29    1
42    20    21    1
43    20    54    1
44    20    55    1
45    21    22    1
46    21    56    1
47    21    57    1
48    22    23    1
49    22    58    1
50    22    59    1
51    23    24    ar
52    23    60    1
53    24    25    ar
54    24    26    ar
55    25    61    1
56    25    62    1
57    26    27    1
58    26    28    1
59    29    30    ar
60    29    31    ar
61    32    33    ar
62    33    34    ar
63    34    35    ar
64    34    63    1
@<TRIPOS>SUBSTRUCTURE
1   ZINC000003943056 1     RESIDUE    1   A     ZIN   1
