@<TRIPOS>MOLECULE
ZINC000000004091
  42   44    0    0    0
SMALL
USER_CHARGES
NO_NAME
@<TRIPOS>ATOM
    1 O1        0.5406    -0.0664    -0.5299 O.2    1 <0>      -0.5300
    2 C2        0.4127     1.1369    -0.4496 C.2    1 <0>       0.5100
    3 C3       -0.9024     1.8774    -0.5543 C.3    1 <0>      -0.1600
    4 C4       -0.5951     3.2794     0.0209 C.3    1 <0>      -0.1300
    5 C5        0.9278     3.3893    -0.2139 C.3    1 <0>       0.1000
    6 N6        1.4180     2.0063    -0.2486 N.am   1 <0>      -0.6200
    7 C7        2.8234     1.6233    -0.0932 C.3    1 <0>       0.1300
    8 C8        3.1273     1.3884     1.3879 C.3    1 <0>      -0.1000
    9 C9        2.3210     0.1883     1.8896 C.3    1 <0>      -0.1200
   10 C10       2.6012    -0.0226     3.3809 C.3    1 <0>       0.1200
   11 N11       4.0522    -0.1460     3.5766 N.pl3  1 <0>      -0.5900
   12 C12       4.5842    -1.2377     4.2432 C.ar   1 <0>       0.4500
   13 C13       3.7516    -2.1268     4.9257 C.ar   1 <0>      -0.2700
   14 C14       4.3302    -3.1999     5.5748 C.ar   1 <0>       0.1800
   15 N15       5.6464    -3.3499     5.5293 N.ar   1 <0>      -0.5200
   16 C16       6.4053    -2.4930     4.8762 C.ar   1 <0>       0.2900
   17 C17       7.8971    -2.7054     4.8528 C.3    1 <0>       0.5500
   18 F18       8.1894    -4.0071     5.2738 F      1 <0>      -0.1500
   19 F19       8.3744    -2.5180     3.5512 F      1 <0>      -0.1600
   20 F20       8.5123    -1.7882     5.7116 F      1 <0>      -0.1600
   21 N21       5.8956    -1.4588     4.2387 N.ar   1 <0>      -0.5400
   22 C22       4.9282     0.9102     3.0515 C.3    1 <0>       0.1200
   23 C23       4.6219     1.1106     1.5639 C.3    1 <0>      -0.1300
   24 H24      -1.2159     1.9526    -1.5956 H      1 <0>       0.1000
   25 H25      -1.6685     1.3804     0.0408 H      1 <0>       0.1000
   26 H26      -1.1314     4.0528    -0.5289 H      1 <0>       0.0900
   27 H27      -0.8300     3.3247     1.0843 H      1 <0>       0.0800
   28 H28       1.1282     3.8883    -1.1620 H      1 <0>       0.0700
   29 H29       1.3976     3.9328     0.6059 H      1 <0>       0.0800
   30 H30       3.0146     0.7077    -0.6529 H      1 <0>       0.0800
   31 H31       3.4616     2.4212    -0.4729 H      1 <0>       0.0800
   32 H32       2.8528     2.2747     1.9599 H      1 <0>       0.0800
   33 H33       1.2576     0.3771     1.7424 H      1 <0>       0.0800
   34 H34       2.6128    -0.7036     1.3350 H      1 <0>       0.0700
   35 H35       2.2274     0.8305     3.9471 H      1 <0>       0.0700
   36 H36       2.1080    -0.9335     3.7201 H      1 <0>       0.0900
   37 H37       2.6819    -1.9790     4.9459 H      1 <0>       0.1500
   38 H38       3.7177    -3.9079     6.1132 H      1 <0>       0.1800
   39 H39       4.7441     1.8394     3.5908 H      1 <0>       0.0700
   40 H40       5.9703     0.6148     3.1734 H      1 <0>       0.1000
   41 H41       4.8920     0.2101     1.0123 H      1 <0>       0.0700
   42 H42       5.1962     1.9560     1.1849 H      1 <0>       0.0800
@<TRIPOS>BOND
   1    1    2 2
   2    2    6 am
   3    2    3 1
   4    3    4 1
   5    3   24 1
   6    3   25 1
   7    4    5 1
   8    4   26 1
   9    4   27 1
  10    5    6 1
  11    5   28 1
  12    5   29 1
  13    6    7 1
  14    7    8 1
  15    7   30 1
  16    7   31 1
  17    8   23 1
  18    8    9 1
  19    8   32 1
  20    9   10 1
  21    9   33 1
  22    9   34 1
  23   10   11 1
  24   10   35 1
  25   10   36 1
  26   11   12 1
  27   11   22 1
  28   12   21 ar
  29   12   13 ar
  30   13   14 ar
  31   13   37 1
  32   14   15 ar
  33   14   38 1
  34   15   16 ar
  35   16   17 1
  36   16   21 ar
  37   17   18 1
  38   17   19 1
  39   17   20 1
  40   22   23 1
  41   22   39 1
  42   22   40 1
  43   23   41 1
  44   23   42 1
