@<TRIPOS>MOLECULE
ZINC000021981353
  29   30    0    0    0
SMALL
USER_CHARGES
NO_NAME
@<TRIPOS>ATOM
    1 N1       -0.0162     1.3436     0.0094 N.am   1 <0>      -0.8300
    2 C2        0.0021    -0.0041     0.0020 C.2    1 <0>       0.6200
    3 O3        1.0629    -0.5974    -0.0113 O.2    1 <0>      -0.5200
    4 C4       -1.2683    -0.7608     0.0101 C.2    1 <0>       0.1200
    5 N5       -1.3891    -2.0702     0.0095 N.2    1 <0>      -0.1900
    6 N6       -2.6423    -2.3695     0.0187 N.pl3  1 <0>      -0.2900
    7 C7       -3.1986    -3.7248     0.0222 C.3    1 <0>       0.3100
    8 H8       -4.2859    -3.6880    -0.0459 H      1 <0>       0.1400
    9 O9       -2.7931    -4.4317     1.2145 O.3    1 <0>      -0.3400
   10 C10      -2.9504    -5.8322     0.8985 C.3    1 <0>       0.0900
   11 H11      -3.9996    -6.1203     0.9639 H      1 <0>       0.1000
   12 C12      -2.1040    -6.6893     1.8417 C.3    1 <0>       0.0900
   13 O13      -2.6163    -6.5824     3.1714 O.3    1 <0>      -0.5700
   14 C14      -2.4450    -5.9681    -0.5549 C.3    1 <0>       0.0500
   15 H15      -3.0541    -6.6849    -1.1056 H      1 <0>       0.0900
   16 O16      -1.0715    -6.3622    -0.5725 O.3    1 <0>      -0.5300
   17 C17      -2.6142    -4.5489    -1.1464 C.3    1 <0>       0.0300
   18 H18      -3.3059    -4.5662    -1.9887 H      1 <0>       0.0900
   19 O19      -1.3493    -4.0204    -1.5498 O.3    1 <0>      -0.5100
   20 C20      -3.3541    -1.2273     0.0255 C.2    1 <0>       0.1900
   21 N21      -2.5052    -0.2313     0.0252 N.2    1 <0>      -0.4800
   22 H22       0.8172     1.8399     0.0041 H      1 <0>       0.4100
   23 H23      -0.8627     1.8171     0.0160 H      1 <0>       0.4100
   24 H24      -2.1427    -7.7301     1.5201 H      1 <0>       0.0700
   25 H25      -1.0714    -6.3408     1.8211 H      1 <0>       0.0700
   26 H26      -2.1270    -7.1013     3.8244 H      1 <0>       0.3900
   27 H27      -0.7025    -6.4625    -1.4607 H      1 <0>       0.3800
   28 H28      -0.9094    -4.5362    -2.2394 H      1 <0>       0.3800
   29 H29      -4.4311    -1.1472     0.0338 H      1 <0>       0.2300
@<TRIPOS>BOND
   1    1    2 am
   2    1   22 1
   3    1   23 1
   4    2    3 2
   5    2    4 1
   6    4   21 1
   7    4    5 2
   8    5    6 1
   9    6    7 1
  10    6   20 1
  11    7    8 1
  12    7   17 1
  13    7    9 1
  14    9   10 1
  15   10   11 1
  16   10   12 1
  17   10   14 1
  18   12   13 1
  19   12   24 1
  20   12   25 1
  21   13   26 1
  22   14   15 1
  23   14   16 1
  24   14   17 1
  25   16   27 1
  26   17   18 1
  27   17   19 1
  28   19   28 1
  29   20   21 2
  30   20   29 1
