@<TRIPOS>MOLECULE
ZINC000000602090
50    52    1     0     0
SMALL
USER_CHARGES
@<TRIPOS>ATOM
1      C1     -0.6984    2.1140    0.1544 C.3      1 ZINC000000602090    0.0200
2      O2     -0.4737    0.7047    0.0824 O.3      1 ZINC000000602090   -0.3000
3      C3     -1.5721   -0.0956    0.0737 C.ar     1 ZINC000000602090    0.1900
4      C4     -2.8403    0.4645    0.1275 C.ar     1 ZINC000000602090   -0.2300
5      C5     -3.9552   -0.3511    0.1181 C.ar     1 ZINC000000602090    0.0400
6      C6     -3.8081   -1.7245    0.0556 C.ar     1 ZINC000000602090   -0.7300
7      S7     -5.2322   -2.7620    0.0443 S.o2     1 ZINC000000602090    2.6600
8      O8     -4.8084   -4.0303    0.5250 O.2      1 ZINC000000602090   -0.9100
9      O9     -6.2791   -2.0130    0.6461 O.2      1 ZINC000000602090   -0.9300
10     N10    -5.6654   -2.9827   -1.5387 N.am     1 ZINC000000602090   -0.9000
11     C11    -5.2055   -4.0504   -2.2206 C.2      1 ZINC000000602090    0.5200
12     C12    -5.5172   -4.1989   -3.6875 C.3      1 ZINC000000602090   -0.1800
13     O13    -4.5407   -4.8916   -1.6537 O.2      1 ZINC000000602090   -0.4600
14     C14    -6.5070   -2.0628   -2.1669 C.ar     1 ZINC000000602090    0.1200
15     C15    -7.8740   -2.2892   -2.2151 C.ar     1 ZINC000000602090   -0.0900
16     C16    -8.7057   -1.3778   -2.8378 C.ar     1 ZINC000000602090   -0.1000
17     C17    -8.1833   -0.2340   -3.4169 C.ar     1 ZINC000000602090   -0.1000
18     C18    -6.8260    0.0081   -3.3788 C.ar     1 ZINC000000602090   -0.1000
19     C19    -5.9739   -0.9013   -2.7478 C.ar     1 ZINC000000602090   -0.0500
20     C20    -4.5240   -0.6492   -2.7029 C.2      1 ZINC000000602090   -0.1000
21     C21    -4.0167    0.4583   -3.2698 C.2      1 ZINC000000602090   -0.1000
22     C22    -2.5661    0.7105   -3.2248 C.ar     1 ZINC000000602090   -0.0100
23     C23    -1.6963   -0.1947   -2.6007 C.ar     1 ZINC000000602090   -0.1300
24     C24    -0.3459    0.0813   -2.5821 C.ar     1 ZINC000000602090    0.0900
25     N25     0.1300    1.1793   -3.1412 N.ar     1 ZINC000000602090   -0.1200
26     O26     1.5245    1.4215   -3.0983 O.3      1 ZINC000000602090   -0.5400
27     C27    -0.6538    2.0582   -3.7393 C.ar     1 ZINC000000602090    0.0700
28     C28    -2.0159    1.8596   -3.8100 C.ar     1 ZINC000000602090   -0.1200
29     C29    -2.5453   -2.2851    0.0015 C.ar     1 ZINC000000602090    0.0200
30     C30    -1.4273   -1.4736    0.0053 C.ar     1 ZINC000000602090   -0.1800
31     H31     0.2590    2.6351    0.1536 H        1 ZINC000000602090    0.1100
32     H32    -1.2862    2.4327   -0.7065 H        1 ZINC000000602090    0.0500
33     H33    -1.2395    2.3494    1.0709 H        1 ZINC000000602090    0.0700
34     H34    -2.9557    1.5371    0.1770 H        1 ZINC000000602090    0.1400
35     H35    -4.9426    0.0844    0.1599 H        1 ZINC000000602090    0.1400
36     H36    -6.0311   -3.3054   -4.0421 H        1 ZINC000000602090    0.0900
37     H37    -4.5896   -4.3298   -4.2447 H        1 ZINC000000602090    0.1100
38     H38    -6.1565   -5.0691   -3.8368 H        1 ZINC000000602090    0.1100
39     H39    -8.2894   -3.1791   -1.7657 H        1 ZINC000000602090    0.1400
40     H40    -9.7698   -1.5593   -2.8732 H        1 ZINC000000602090    0.1400
41     H41    -8.8417    0.4721   -3.9011 H        1 ZINC000000602090    0.1400
42     H42    -6.4231    0.9016   -3.8322 H        1 ZINC000000602090    0.1400
43     H43    -3.8681   -1.3545   -2.2141 H        1 ZINC000000602090    0.1200
44     H44    -4.6726    1.1636   -3.7585 H        1 ZINC000000602090    0.1400
45     H45    -2.0784   -1.0943   -2.1413 H        1 ZINC000000602090    0.1600
46     H46     0.3323   -0.6096   -2.1035 H        1 ZINC000000602090    0.1800
47     H47    -0.2208    2.9425   -4.1832 H        1 ZINC000000602090    0.1800
48     H48    -2.6507    2.5826   -4.3007 H        1 ZINC000000602090    0.1700
49     H49    -2.4330   -3.3581   -0.0476 H        1 ZINC000000602090    0.1500
50     H50    -0.4412   -1.9120   -0.0370 H        1 ZINC000000602090    0.1500
@<TRIPOS>BOND
1     1     2     1
2     1     31    1
3     1     32    1
4     1     33    1
5     2     3     1
6     3     30    ar
7     3     4     ar
8     4     5     ar
9     4     34    1
10    5     6     ar
11    5     35    1
12    6     7     1
13    6     29    ar
14    7     8     2
15    7     9     2
16    7     10    am
17    10    11    am
18    10    14    1
19    11    12    1
20    11    13    2
21    12    36    1
22    12    37    1
23    12    38    1
24    14    19    ar
25    14    15    ar
26    15    16    ar
27    15    39    1
28    16    17    ar
29    16    40    1
30    17    18    ar
31    17    41    1
32    18    19    ar
33    18    42    1
34    19    20    1
35    20    21    2
36    20    43    1
37    21    22    1
38    21    44    1
39    22    28    ar
40    22    23    ar
41    23    24    ar
42    23    45    1
43    24    25    ar
44    24    46    1
45    25    26    1
46    25    27    ar
47    27    28    ar
48    27    47    1
49    28    48    1
50    29    30    ar
51    29    49    1
52    30    50    1
@<TRIPOS>SUBSTRUCTURE
1   ZINC000000602090 1     RESIDUE    1   A     ZIN   1
