@<TRIPOS>MOLECULE
ZINC000072317283
40    42    1     0     0
SMALL
USER_CHARGES
@<TRIPOS>ATOM
1      C1     -0.1207    1.5220    0.0371 C.3      1 ZINC000072317283    0.0900
2      N2     -0.0543    0.0589    0.0044 N.am     1 ZINC000072317283   -0.5500
3      C3     -0.0132   -0.7047   -1.1059 C.2      1 ZINC000072317283    0.6500
4      O4     -0.0241   -0.3053   -2.2567 O.2      1 ZINC000072317283   -0.5400
5      N5      0.0427   -1.9928   -0.7078 N.am     1 ZINC000072317283   -0.5400
6      N6      0.0346   -1.9967    0.6939 N.2      1 ZINC000072317283   -0.2600
7      C7     -0.0173   -0.7691    1.0998 C.2      1 ZINC000072317283    0.2500
8      C8     -0.0431   -0.3216    2.5386 C.3      1 ZINC000072317283    0.1800
9      N9     -0.0008   -1.4943    3.4156 N.am     1 ZINC000072317283   -0.4800
10     C10    -1.1621   -2.0829    3.8069 C.2      1 ZINC000072317283    0.1600
11     C11    -1.1508   -3.1665    4.6162 C.2      1 ZINC000072317283   -0.1900
12     C12     0.0687   -3.6965    5.0621 C.2      1 ZINC000072317283   -0.0700
13     C13     0.0907   -4.9039    5.9635 C.3      1 ZINC000072317283    0.5100
14     F14     0.0553   -4.4893    7.2992 F        1 ZINC000072317283   -0.1700
15     F15    -1.0230   -5.7068    5.6948 F        1 ZINC000072317283   -0.1700
16     F16     1.2601   -5.6364    5.7334 F        1 ZINC000072317283   -0.1600
17     C17     1.2370   -3.1057    4.6694 C.2      1 ZINC000072317283    0.0200
18     O18     2.4327   -3.6007    5.0876 O.3      1 ZINC000072317283   -0.2100
19     C19     3.1802   -2.8379    5.9276 C.ar     1 ZINC000072317283    0.1400
20     C20     2.6654   -1.6501    6.4292 C.ar     1 ZINC000072317283   -0.1500
21     C21     3.4221   -0.8690    7.2850 C.ar     1 ZINC000072317283    0.0000
22     Cl22    2.7702    0.6150    7.9067 Cl       1 ZINC000072317283   -0.0500
23     C23     4.6941   -1.2669    7.6463 C.ar     1 ZINC000072317283   -0.0900
24     C24     5.2195   -2.4605    7.1468 C.ar     1 ZINC000072317283    0.0300
25     C25     6.5380   -2.8768    7.5195 C.1      1 ZINC000072317283    0.2500
26     N26     7.5840   -3.2070    7.8152 N.1      1 ZINC000072317283   -0.3900
27     C27     4.4533   -3.2487    6.2874 C.ar     1 ZINC000072317283   -0.0800
28     C28     1.1882   -1.9801    3.8204 C.2      1 ZINC000072317283    0.5100
29     O29     2.2227   -1.4413    3.4604 O.2      1 ZINC000072317283   -0.5000
30     H30     0.8895    1.9314    0.0458 H        1 ZINC000072317283    0.0800
31     H31    -0.6509    1.8815   -0.8448 H        1 ZINC000072317283    0.1000
32     H32    -0.6500    1.8417    0.9347 H        1 ZINC000072317283    0.0900
33     H33     0.0810   -2.7717   -1.2847 H        1 ZINC000072317283    0.4600
34     H34     0.8211    0.3123    2.7375 H        1 ZINC000072317283    0.1400
35     H35    -0.9574    0.2409    2.7278 H        1 ZINC000072317283    0.1400
36     H36    -2.1051   -1.6801    3.4678 H        1 ZINC000072317283    0.1800
37     H37    -2.0812   -3.6235    4.9193 H        1 ZINC000072317283    0.1700
38     H38     1.6710   -1.3343    6.1501 H        1 ZINC000072317283    0.1400
39     H39     5.2823   -0.6553    8.3144 H        1 ZINC000072317283    0.1500
40     H40     4.8544   -4.1728    5.8980 H        1 ZINC000072317283    0.1500
@<TRIPOS>BOND
1     1     2     1
2     1     30    1
3     1     31    1
4     1     32    1
5     2     7     1
6     2     3     am
7     3     4     2
8     3     5     am
9     5     6     1
10    5     33    1
11    6     7     2
12    7     8     1
13    8     9     1
14    8     34    1
15    8     35    1
16    9     28    am
17    9     10    1
18    10    11    2
19    10    36    1
20    11    12    1
21    11    37    1
22    12    13    1
23    12    17    2
24    13    14    1
25    13    15    1
26    13    16    1
27    17    18    1
28    17    28    1
29    18    19    1
30    19    27    ar
31    19    20    ar
32    20    21    ar
33    20    38    1
34    21    22    1
35    21    23    ar
36    23    24    ar
37    23    39    1
38    24    25    1
39    24    27    ar
40    25    26    3
41    27    40    1
42    28    29    2
@<TRIPOS>SUBSTRUCTURE
1   ZINC000072317283 1     RESIDUE    1   A     ZIN   1
