@<TRIPOS>MOLECULE
ZINC000000009709
29    31    1     0     0
SMALL
USER_CHARGES
@<TRIPOS>ATOM
1      C1     -0.0184    1.5028    0.0103 C.3      1 ZINC000000009709   -0.0600
2      C2      0.0021   -0.0041    0.0020 C.ar     1 ZINC000000009709   -0.0100
3      N3      0.0055   -0.6497   -1.1473 N.ar     1 ZINC000000009709   -0.4400
4      C4      0.0237   -1.9687   -1.2078 C.ar     1 ZINC000000009709   -0.0200
5      C5      0.0399   -2.7236   -0.0550 C.ar     1 ZINC000000009709   -0.1300
6      C6      0.0367   -2.0825    1.1762 C.ar     1 ZINC000000009709   -0.2600
7      C7      0.0229   -0.6978    1.2059 C.ar     1 ZINC000000009709    0.2600
8      O8      0.0196   -0.0304    2.3899 O.3      1 ZINC000000009709   -0.7100
9      C9      0.0567   -3.1500    2.2405 C.3      1 ZINC000000009709    0.1200
10     O10    -0.3461   -4.3682    1.5866 O.3      1 ZINC000000009709   -0.3700
11     C11     0.0626   -4.2082    0.2152 C.3      1 ZINC000000009709    0.1700
12     H12     1.0702   -4.5998    0.0757 H        1 ZINC000000009709    0.0800
13     C13    -0.9011   -4.9186   -0.6999 C.ar     1 ZINC000000009709   -0.0600
14     C14    -2.2569   -4.8914   -0.4311 C.ar     1 ZINC000000009709   -0.0800
15     C15    -3.1412   -5.5428   -1.2701 C.ar     1 ZINC000000009709   -0.1100
16     C16    -2.6694   -6.2222   -2.3791 C.ar     1 ZINC000000009709   -0.0400
17     Cl17   -3.7796   -7.0402   -3.4336 Cl       1 ZINC000000009709   -0.0800
18     C18    -1.3125   -6.2491   -2.6476 C.ar     1 ZINC000000009709   -0.1100
19     C19    -0.4296   -5.5926   -1.8110 C.ar     1 ZINC000000009709   -0.1000
20     H20     1.0042    1.8801    0.0026 H        1 ZINC000000009709    0.0500
21     H21    -0.5455    1.8639   -0.8728 H        1 ZINC000000009709    0.0500
22     H22    -0.5286    1.8543    0.9071 H        1 ZINC000000009709    0.0700
23     H23     0.0255   -2.4603   -2.1694 H        1 ZINC000000009709    0.1200
24     H24     1.0626   -3.2566    2.6467 H        1 ZINC000000009709    0.0600
25     H25    -0.6457   -2.9006    3.0359 H        1 ZINC000000009709    0.0800
26     H26    -2.6250   -4.3613    0.4348 H        1 ZINC000000009709    0.1300
27     H27    -4.2004   -5.5218   -1.0597 H        1 ZINC000000009709    0.1300
28     H28    -0.9435   -6.7796   -3.5130 H        1 ZINC000000009709    0.1300
29     H29     0.6297   -5.6132   -2.0207 H        1 ZINC000000009709    0.1300
@<TRIPOS>BOND
1     1     2     1
2     1     20    1
3     1     21    1
4     1     22    1
5     2     7     ar
6     2     3     ar
7     3     4     ar
8     4     5     ar
9     4     23    1
10    5     11    1
11    5     6     ar
12    6     7     ar
13    6     9     1
14    7     8     1
15    9     10    1
16    9     24    1
17    9     25    1
18    10    11    1
19    11    12    1
20    11    13    1
21    13    19    ar
22    13    14    ar
23    14    15    ar
24    14    26    1
25    15    16    ar
26    15    27    1
27    16    17    1
28    16    18    ar
29    18    19    ar
30    18    28    1
31    19    29    1
@<TRIPOS>SUBSTRUCTURE
1   ZINC000000009709 1     RESIDUE    1   A     ZIN   1
