@<TRIPOS>MOLECULE
ZINC000003994899
47    47    1     0     0
SMALL
USER_CHARGES
@<TRIPOS>ATOM
1      C1     -0.0157    1.3058    0.0092 C.2      1 ZINC000003994899   -0.2000
2      C2      0.0021   -0.0041    0.0020 C.2      1 ZINC000003994899   -0.1600
3      C3      1.3172   -0.7397   -0.0145 C.3      1 ZINC000003994899   -0.1000
4      C4      1.3696   -1.7171    1.1615 C.3      1 ZINC000003994899   -0.1200
5      C5      2.7049   -2.4640    1.1447 C.3      1 ZINC000003994899   -0.1200
6      C6      2.7573   -3.4414    2.3206 C.3      1 ZINC000003994899   -0.1200
7      C7      4.0925   -4.1883    2.3039 C.3      1 ZINC000003994899   -0.1200
8      C8      4.1449   -5.1657    3.4798 C.3      1 ZINC000003994899   -0.1200
9      C9      5.4801   -5.9125    3.4631 C.3      1 ZINC000003994899   -0.1100
10     C10     5.5326   -6.8899    4.6390 C.3      1 ZINC000003994899   -0.1400
11     C11     6.8477   -7.6256    4.6225 C.2      1 ZINC000003994899    0.5200
12     O12     7.6628   -7.3912    3.7556 O.2      1 ZINC000003994899   -0.5200
13     N13     7.1181   -8.5440    5.5712 N.am     1 ZINC000003994899   -0.7200
14     C14     8.3966   -9.2591    5.5551 C.3      1 ZINC000003994899    0.1300
15     H15     9.1824   -8.5925    5.1998 H        1 ZINC000003994899    0.1300
16     C16     8.7331   -9.7384    6.9712 C.3      1 ZINC000003994899   -0.1300
17     C17    10.0137  -10.5779    6.9109 C.3      1 ZINC000003994899   -0.1400
18     C18     9.8240  -11.6984    5.9229 C.2      1 ZINC000003994899    0.5200
19     O19    10.4265  -12.7385    6.0809 O.2      1 ZINC000003994899   -0.5000
20     N20     9.0010  -11.5683    4.8717 N.am     1 ZINC000003994899   -0.6700
21     C21     8.2953  -10.4505    4.6397 C.2      1 ZINC000003994899    0.5100
22     O22     7.5610  -10.4004    3.6765 O.2      1 ZINC000003994899   -0.4800
23     H23     0.9122    1.8585    0.0033 H        1 ZINC000003994899    0.1000
24     H24    -0.9582    1.8330    0.0166 H        1 ZINC000003994899    0.1000
25     H25    -0.9258   -0.5567    0.0079 H        1 ZINC000003994899    0.1100
26     H26     1.4134   -1.2911   -0.9498 H        1 ZINC000003994899    0.0700
27     H27     2.1349   -0.0241    0.0711 H        1 ZINC000003994899    0.0700
28     H28     1.2735   -1.1657    2.0968 H        1 ZINC000003994899    0.0600
29     H29     0.5519   -2.4327    1.0758 H        1 ZINC000003994899    0.0600
30     H30     2.8010   -3.0154    0.2094 H        1 ZINC000003994899    0.0600
31     H31     3.5226   -1.7484    1.2303 H        1 ZINC000003994899    0.0600
32     H32     2.6611   -2.8900    3.2560 H        1 ZINC000003994899    0.0600
33     H33     1.9396   -4.1570    2.2350 H        1 ZINC000003994899    0.0600
34     H34     4.1887   -4.7397    1.3686 H        1 ZINC000003994899    0.0600
35     H35     4.9102   -3.4727    2.3895 H        1 ZINC000003994899    0.0600
36     H36     4.0488   -4.6143    4.4151 H        1 ZINC000003994899    0.0600
37     H37     3.3272   -5.8813    3.3942 H        1 ZINC000003994899    0.0600
38     H38     5.5763   -6.4640    2.5278 H        1 ZINC000003994899    0.0700
39     H39     6.2979   -5.1969    3.5487 H        1 ZINC000003994899    0.0700
40     H40     5.4364   -6.3385    5.5743 H        1 ZINC000003994899    0.1000
41     H41     4.7149   -7.6056    4.5534 H        1 ZINC000003994899    0.1000
42     H42     6.4662   -8.7314    6.2645 H        1 ZINC000003994899    0.4100
43     H43     8.8900   -8.8776    7.6213 H        1 ZINC000003994899    0.1100
44     H44     7.9145  -10.3466    7.3560 H        1 ZINC000003994899    0.0900
45     H45    10.8463   -9.9499    6.5939 H        1 ZINC000003994899    0.1200
46     H46    10.2240  -10.9929    7.8966 H        1 ZINC000003994899    0.1200
47     H47     8.9130  -12.3111    4.2542 H        1 ZINC000003994899    0.4100
@<TRIPOS>BOND
1     1     2     2
2     1     23    1
3     1     24    1
4     2     3     1
5     2     25    1
6     3     4     1
7     3     26    1
8     3     27    1
9     4     5     1
10    4     28    1
11    4     29    1
12    5     6     1
13    5     30    1
14    5     31    1
15    6     7     1
16    6     32    1
17    6     33    1
18    7     8     1
19    7     34    1
20    7     35    1
21    8     9     1
22    8     36    1
23    8     37    1
24    9     10    1
25    9     38    1
26    9     39    1
27    10    11    1
28    10    40    1
29    10    41    1
30    11    12    2
31    11    13    am
32    13    14    1
33    13    42    1
34    14    15    1
35    14    21    1
36    14    16    1
37    16    17    1
38    16    43    1
39    16    44    1
40    17    18    1
41    17    45    1
42    17    46    1
43    18    19    2
44    18    20    am
45    20    21    am
46    20    47    1
47    21    22    2
@<TRIPOS>SUBSTRUCTURE
1   ZINC000003994899 1     RESIDUE    1   A     ZIN   1
