@<TRIPOS>MOLECULE
ZINC000012503488
  33   34    0    0    0
SMALL
USER_CHARGES
NO_NAME
@<TRIPOS>ATOM
    1 N1       -0.0166     1.3706     0.0096 N.pl3  1 <0>      -0.8100
    2 C2        0.0021    -0.0041     0.0020 C.cat  1 <0>       0.7300
    3 N3       -1.0746    -0.7211     0.0029 N.pl3  1 <0>      -0.6500
    4 H4       -1.9783    -0.3686     0.0099 H      1 <0>       0.4500
    5 C5       -0.7262    -2.1496    -0.0082 C.3    1 <0>       0.1100
    6 H6       -1.1052    -2.6372     0.8900 H      1 <0>       0.1500
    7 C7       -1.3261    -2.8085    -1.2660 C.3    1 <0>      -0.1100
    8 S8        0.0195    -2.6154    -2.5047 S.3    1 <0>      -0.2200
    9 C9        1.3814    -2.8239    -1.2864 C.3    1 <0>      -0.0600
   10 H10       1.5851    -3.8804    -1.1117 H      1 <0>       0.1300
   11 C11       2.6451    -2.1008    -1.7567 C.3    1 <0>      -0.1100
   12 C12       3.1838    -2.7822    -3.0162 C.3    1 <0>      -0.1200
   13 C13       4.4475    -2.0590    -3.4864 C.3    1 <0>      -0.0900
   14 C14       4.9863    -2.7404    -4.7459 C.3    1 <0>      -0.1900
   15 C15       6.2309    -2.0281    -5.2090 C.2    1 <0>       0.4900
   16 O16       6.6484    -1.0648    -4.5892 O.co2  1 <0>      -0.7000
   17 O17       6.8204    -2.4152    -6.2036 O.co2  1 <0>      -0.7000
   18 C18       0.8078    -2.1614    -0.0118 C.3    1 <0>       0.1200
   19 H19       1.2012    -2.6507     0.8792 H      1 <0>       0.1500
   20 N20       1.1611    -0.7313    -0.0130 N.pl3  1 <0>      -0.6800
   21 H21       0.8168     1.8670     0.0043 H      1 <0>       0.4400
   22 H22      -0.8631     1.8441     0.0162 H      1 <0>       0.4400
   23 H23      -1.5377    -3.8626    -1.0865 H      1 <0>       0.1300
   24 H24      -2.2250    -2.2820    -1.5867 H      1 <0>       0.1300
   25 H25       2.4068    -1.0608    -1.9798 H      1 <0>       0.0700
   26 H26       3.3998    -2.1401    -0.9712 H      1 <0>       0.0900
   27 H27       3.4221    -3.8221    -2.7930 H      1 <0>       0.0700
   28 H28       2.4291    -2.7428    -3.8016 H      1 <0>       0.0600
   29 H29       4.2092    -1.0190    -3.7096 H      1 <0>       0.0600
   30 H30       5.2022    -2.0983    -2.7009 H      1 <0>       0.0600
   31 H31       5.2245    -3.7804    -4.5227 H      1 <0>       0.0600
   32 H32       4.2316    -2.7011    -5.5313 H      1 <0>       0.0600
   33 H33       2.0603    -0.3678    -0.0240 H      1 <0>       0.4600
@<TRIPOS>BOND
   1    1    2 ar
   2    1   21 1
   3    1   22 1
   4    2   20 ar
   5    2    3 ar
   6    3    4 1
   7    3    5 1
   8    5    6 1
   9    5   18 1
  10    5    7 1
  11    7    8 1
  12    7   23 1
  13    7   24 1
  14    8    9 1
  15    9   10 1
  16    9   11 1
  17    9   18 1
  18   11   12 1
  19   11   25 1
  20   11   26 1
  21   12   13 1
  22   12   27 1
  23   12   28 1
  24   13   14 1
  25   13   29 1
  26   13   30 1
  27   14   15 1
  28   14   31 1
  29   14   32 1
  30   15   16 ar
  31   15   17 ar
  32   18   19 1
  33   18   20 1
  34   20   33 1
