@<TRIPOS>MOLECULE
ZINC000068205235
52    55    1     0     0
SMALL
USER_CHARGES
@<TRIPOS>ATOM
1      C1     -0.0178    1.4648    0.0101 C.3      1 ZINC000068205235   -0.0500
2      N2      0.0021   -0.0041    0.0020 N.4      1 ZINC000068205235   -0.3900
3      H3     -0.9449   -0.3523    0.0092 H        1 ZINC000068205235    0.4300
4      C4      0.7091   -0.4889    1.1935 C.3      1 ZINC000068205235   -0.0100
5      C5      0.6626   -2.0179    1.2320 C.3      1 ZINC000068205235   -0.1400
6      C6      1.3359   -2.5755   -0.0254 C.3      1 ZINC000068205235   -0.1100
7      C7      1.2229   -4.1013   -0.0324 C.3      1 ZINC000068205235    0.1300
8      N8      1.9693   -4.6410   -1.1717 N.pl3    1 ZINC000068205235   -0.7100
9      C9      2.0123   -6.0152   -1.3873 C.2      1 ZINC000068205235    0.4100
10     N10     1.3773   -6.8211   -0.5688 N.2      1 ZINC000068205235   -0.3500
11     N11     1.4076   -8.2049   -0.7673 N.pl3    1 ZINC000068205235   -0.2400
12     C12     0.8498   -9.2548   -0.0859 C.2      1 ZINC000068205235    0.0400
13     C13     0.0086   -9.1723    1.1262 C.ar     1 ZINC000068205235    0.0300
14     C14    -0.3801   -7.9278    1.6259 C.ar     1 ZINC000068205235   -0.1300
15     C15    -1.1656   -7.8547    2.7581 C.ar     1 ZINC000068205235   -0.0800
16     C16    -1.5693   -9.0104    3.4005 C.ar     1 ZINC000068205235   -0.1900
17     C17    -1.1876  -10.2527    2.9109 C.ar     1 ZINC000068205235    0.1100
18     O18    -1.5874  -11.3853    3.5467 O.3      1 ZINC000068205235   -0.3100
19     C19    -2.3984  -11.2233    4.7121 C.3      1 ZINC000068205235    0.6100
20     F20    -3.5754  -10.5483    4.3710 F        1 ZINC000068205235   -0.1600
21     F21    -2.7172  -12.4804    5.2368 F        1 ZINC000068205235   -0.1300
22     F22    -1.6967  -10.4827    5.6693 F        1 ZINC000068205235   -0.1600
23     C23    -0.4049  -10.3380    1.7723 C.ar     1 ZINC000068205235   -0.1100
24     C24     1.2247  -10.4030   -0.7508 C.2      1 ZINC000068205235    0.0500
25     N25     1.9773  -10.0554   -1.7893 N.2      1 ZINC000068205235   -0.4400
26     C26     2.1032   -8.7335   -1.8221 C.2      1 ZINC000068205235    0.1500
27     C27     2.7835   -7.8673   -2.7001 C.2      1 ZINC000068205235    0.0300
28     C28     2.7315   -6.5258   -2.4840 C.2      1 ZINC000068205235   -0.2100
29     C29     0.6371   -2.0045   -1.2626 C.3      1 ZINC000068205235   -0.1500
30     C30     0.6862   -0.4760   -1.2078 C.3      1 ZINC000068205235   -0.0100
31     H31     1.0047    1.8421    0.0024 H        1 ZINC000068205235    0.1200
32     H32    -0.5450    1.8259   -0.8730 H        1 ZINC000068205235    0.1200
33     H33    -0.5280    1.8163    0.9069 H        1 ZINC000068205235    0.1200
34     H34     1.7472   -0.1582    1.1590 H        1 ZINC000068205235    0.1300
35     H35     0.2307   -0.0886    2.0873 H        1 ZINC000068205235    0.1300
36     H36     1.1896   -2.3759    2.1163 H        1 ZINC000068205235    0.1200
37     H37    -0.3751   -2.3497    1.2666 H        1 ZINC000068205235    0.0900
38     H38     2.3873   -2.2878   -0.0338 H        1 ZINC000068205235    0.1000
39     H39     1.6355   -4.5004    0.8942 H        1 ZINC000068205235    0.0800
40     H40     0.1746   -4.3876   -0.1164 H        1 ZINC000068205235    0.0700
41     H41     2.4335   -4.0405   -1.7757 H        1 ZINC000068205235    0.4200
42     H42    -0.0659   -7.0231    1.1268 H        1 ZINC000068205235    0.1400
43     H43    -1.4657   -6.8915    3.1437 H        1 ZINC000068205235    0.1300
44     H44    -2.1834   -8.9469    4.2867 H        1 ZINC000068205235    0.1400
45     H45    -0.1074  -11.3036    1.3906 H        1 ZINC000068205235    0.1500
46     H46     0.9540  -11.4114   -0.4747 H        1 ZINC000068205235    0.2000
47     H47     3.3380   -8.2642   -3.5376 H        1 ZINC000068205235    0.1700
48     H48     3.2488   -5.8517   -3.1507 H        1 ZINC000068205235    0.1500
49     H49     1.1460   -2.3530   -2.1614 H        1 ZINC000068205235    0.1100
50     H50    -0.4011   -2.3360   -1.2797 H        1 ZINC000068205235    0.0900
51     H51     0.1899   -0.0652   -2.0871 H        1 ZINC000068205235    0.1300
52     H52     1.7251   -0.1466   -1.1911 H        1 ZINC000068205235    0.1300
@<TRIPOS>BOND
1     1     2     1
2     1     31    1
3     1     32    1
4     1     33    1
5     2     3     1
6     2     30    1
7     2     4     1
8     4     5     1
9     4     34    1
10    4     35    1
11    5     6     1
12    5     36    1
13    5     37    1
14    6     7     1
15    6     29    1
16    6     38    1
17    7     8     1
18    7     39    1
19    7     40    1
20    8     9     1
21    8     41    1
22    9     28    1
23    9     10    2
24    10    11    1
25    11    26    1
26    11    12    1
27    12    13    1
28    12    24    2
29    13    23    ar
30    13    14    ar
31    14    15    ar
32    14    42    1
33    15    16    ar
34    15    43    1
35    16    17    ar
36    16    44    1
37    17    18    1
38    17    23    ar
39    18    19    1
40    19    20    1
41    19    21    1
42    19    22    1
43    23    45    1
44    24    25    1
45    24    46    1
46    25    26    2
47    26    27    1
48    27    28    2
49    27    47    1
50    28    48    1
51    29    30    1
52    29    49    1
53    29    50    1
54    30    51    1
55    30    52    1
@<TRIPOS>SUBSTRUCTURE
1   ZINC000068205235 1     RESIDUE    1   A     ZIN   1
