@<TRIPOS>MOLECULE
ZINC000003966287
  37   38    0    0    0
SMALL
USER_CHARGES
NO_NAME
@<TRIPOS>ATOM
    1 C1       -0.4240     1.1027     0.4561 C.3    1 <0>      -0.1500
    2 C2       -0.2914    -0.4151     0.3170 C.3    1 <0>       0.0500
    3 O3        0.4168    -0.7232    -0.8853 O.3    1 <0>      -0.3100
    4 C4        0.6219    -2.0388    -1.1611 C.ar   1 <0>       0.1200
    5 C5        0.1455    -3.0112    -0.2943 C.ar   1 <0>      -0.1300
    6 C6        0.3534    -4.3476    -0.5738 C.ar   1 <0>      -0.0900
    7 C7        1.0391    -4.7177    -1.7230 C.ar   1 <0>       0.1900
    8 N8        1.2499    -6.0725    -2.0072 N.am   1 <0>      -0.6600
    9 C9        0.4116    -7.0037    -1.5104 C.2    1 <0>       0.5700
   10 O10      -0.5837    -6.6626    -0.9015 O.2    1 <0>      -0.5100
   11 C11       0.7025    -8.4396    -1.7060 C.ar   1 <0>      -0.2100
   12 C12      -0.1631    -9.4166    -1.1999 C.ar   1 <0>       0.0000
   13 C13       0.1549   -10.7470    -1.4102 C.ar   1 <0>      -0.1800
   14 C14       1.3065   -11.0660    -2.1067 C.ar   1 <0>       0.1600
   15 C15       1.6558   -12.5136    -2.3380 C.3    1 <0>      -0.1100
   16 N16       2.1041   -10.1235    -2.5723 N.ar   1 <0>      -0.4800
   17 C17       1.8419    -8.8444    -2.4032 C.ar   1 <0>       0.1500
   18 C18       1.5154    -3.7434    -2.5906 C.ar   1 <0>      -0.0400
   19 N19       2.2461    -4.1369    -3.8163 N.pl3  1 <0>       0.0400
   20 O20       2.7473    -3.2840    -4.5269 O.2    1 <0>      -0.1300
   21 O21       2.3462    -5.3137    -4.1143 O.2    1 <0>      -0.1800
   22 C22       1.3026    -2.4080    -2.3124 C.ar   1 <0>      -0.0700
   23 H23       0.5683     1.5523     0.4936 H      1 <0>       0.0700
   24 H24      -0.9706     1.4996    -0.3994 H      1 <0>       0.0700
   25 H25      -0.9642     1.3377     1.3732 H      1 <0>       0.0800
   26 H26       0.2552    -0.8120     1.1725 H      1 <0>       0.0700
   27 H27      -1.2836    -0.8647     0.2795 H      1 <0>       0.0700
   28 H28      -0.3878    -2.7231     0.5996 H      1 <0>       0.1500
   29 H29      -0.0170    -5.1046     0.1016 H      1 <0>       0.1700
   30 H30       1.9992    -6.3409    -2.5617 H      1 <0>       0.4300
   31 H31      -1.0558    -9.1393    -0.6591 H      1 <0>       0.1500
   32 H32      -0.4892   -11.5280    -1.0340 H      1 <0>       0.1500
   33 H33       1.2109   -12.8495    -3.2746 H      1 <0>       0.0900
   34 H34       2.7391   -12.6220    -2.3909 H      1 <0>       0.0800
   35 H35       1.2701   -13.1163    -1.5157 H      1 <0>       0.0800
   36 H36       2.5191    -8.1021    -2.7991 H      1 <0>       0.1600
   37 H37       1.6726    -1.6503    -2.9872 H      1 <0>       0.1700
@<TRIPOS>BOND
   1    1    2 1
   2    1   23 1
   3    1   24 1
   4    1   25 1
   5    2    3 1
   6    2   26 1
   7    2   27 1
   8    3    4 1
   9    4   22 ar
  10    4    5 ar
  11    5    6 ar
  12    5   28 1
  13    6    7 ar
  14    6   29 1
  15    7    8 1
  16    7   18 ar
  17    8    9 am
  18    8   30 1
  19    9   10 2
  20    9   11 1
  21   11   17 ar
  22   11   12 ar
  23   12   13 ar
  24   12   31 1
  25   13   14 ar
  26   13   32 1
  27   14   15 1
  28   14   16 ar
  29   15   33 1
  30   15   34 1
  31   15   35 1
  32   16   17 ar
  33   17   36 1
  34   18   19 1
  35   18   22 ar
  36   19   20 2
  37   19   21 2
  38   22   37 1
