@<TRIPOS>MOLECULE
ZINC000001482927
72    78    1     0     0
SMALL
USER_CHARGES
@<TRIPOS>ATOM
1      C1     -2.1426    0.0566   -2.3274 C.3      1 ZINC000001482927    0.0300
2      O2     -1.4275   -0.9127   -1.5585 O.3      1 ZINC000001482927   -0.3000
3      C3     -0.1301   -1.1323   -1.8959 C.ar     1 ZINC000001482927    0.1900
4      C4      0.4714   -0.3645   -2.8797 C.ar     1 ZINC000001482927   -0.2500
5      C5      1.7919   -0.5863   -3.2247 C.ar     1 ZINC000001482927   -0.0300
6      C6      2.5236   -1.5750   -2.5929 C.ar     1 ZINC000001482927   -0.2500
7      C7      1.9383   -2.3527   -1.6072 C.ar     1 ZINC000001482927    0.2000
8      O8      2.6589   -3.3234   -0.9878 O.3      1 ZINC000001482927   -0.3000
9      C9      4.0164   -3.4882   -1.4026 C.3      1 ZINC000001482927    0.0300
10     C10     0.6045   -2.1309   -1.2468 C.ar     1 ZINC000001482927   -0.1100
11     C11    -0.0287   -2.9553   -0.1959 C.2      1 ZINC000001482927    0.1500
12     C12    -0.0649   -4.3173   -0.1532 C.2      1 ZINC000001482927   -0.1700
13     C13    -0.7622   -4.6929    1.0113 C.2      1 ZINC000001482927    0.0700
14     C14    -1.0338   -6.0778    1.4484 C.2      1 ZINC000001482927    0.6000
15     O15    -0.6422   -7.0142    0.7793 O.2      1 ZINC000001482927   -0.5000
16     N16    -1.7156   -6.3030    2.5890 N.am     1 ZINC000001482927   -0.6900
17     C17    -1.9849   -7.6762    3.0224 C.3      1 ZINC000001482927    0.1200
18     C18    -2.7945   -8.3862    1.9681 C.2      1 ZINC000001482927    0.5000
19     O19    -3.1167   -7.7994    0.9490 O.co2    1 ZINC000001482927   -0.6700
20     O20    -3.1273   -9.5473    2.1341 O.co2    1 ZINC000001482927   -0.6800
21     C21    -0.6610   -8.4140    3.2315 C.3      1 ZINC000001482927   -0.0800
22     C22     0.1610   -7.6932    4.3019 C.3      1 ZINC000001482927   -0.1000
23     C23    -0.6224   -7.6689    5.6160 C.3      1 ZINC000001482927   -0.0800
24     C24    -0.9036   -9.1031    6.0687 C.3      1 ZINC000001482927   -0.1100
25     C25    -1.7255   -9.8238    4.9982 C.3      1 ZINC000001482927   -0.0700
26     C26    -0.9422   -9.8482    3.6842 C.3      1 ZINC000001482927   -0.1100
27     C27    -3.0495   -9.0861    4.7891 C.3      1 ZINC000001482927   -0.1100
28     C28    -2.7683   -7.6519    4.3365 C.3      1 ZINC000001482927   -0.0700
29     C29    -1.9463   -6.9312    5.4069 C.3      1 ZINC000001482927   -0.1100
30     N30    -1.1314   -3.5960    1.6451 N.2      1 ZINC000001482927   -0.2500
31     N31    -0.6799   -2.4899    0.9142 N.pl3    1 ZINC000001482927   -0.3200
32     C32    -0.8687   -1.1506    1.2530 C.ar     1 ZINC000001482927    0.2500
33     C33    -2.1440   -0.6646    1.6219 C.ar     1 ZINC000001482927   -0.0900
34     C34    -3.2632   -1.5089    1.6611 C.ar     1 ZINC000001482927   -0.0500
35     C35    -4.4755   -1.0040    2.0217 C.ar     1 ZINC000001482927   -0.1200
36     C36    -4.6187    0.3429    2.3523 C.ar     1 ZINC000001482927    0.0000
37     Cl37   -6.1802    0.9500    2.8070 Cl       1 ZINC000001482927   -0.0600
38     C38    -3.5521    1.1898    2.3243 C.ar     1 ZINC000001482927   -0.1000
39     C39    -2.2852    0.7039    1.9574 C.ar     1 ZINC000001482927    0.1500
40     N40    -1.2213    1.5132    1.9221 N.ar     1 ZINC000001482927   -0.4800
41     C41    -0.0328    1.0737    1.5819 C.ar     1 ZINC000001482927    0.1500
42     C42     0.1880   -0.2562    1.2444 C.ar     1 ZINC000001482927   -0.1800
43     H43    -1.7013    1.0410   -2.1721 H        1 ZINC000001482927    0.0600
44     H44    -2.0862   -0.2044   -3.3842 H        1 ZINC000001482927    0.0600
45     H45    -3.1860    0.0724   -2.0123 H        1 ZINC000001482927    0.1000
46     H46    -0.0928    0.4094   -3.3788 H        1 ZINC000001482927    0.1300
47     H47     2.2545    0.0160   -3.9925 H        1 ZINC000001482927    0.1300
48     H48     3.5544   -1.7416   -2.8690 H        1 ZINC000001482927    0.1400
49     H49     4.4760   -4.2940   -0.8301 H        1 ZINC000001482927    0.1000
50     H50     4.0446   -3.7347   -2.4640 H        1 ZINC000001482927    0.0600
51     H51     4.5641   -2.5617   -1.2300 H        1 ZINC000001482927    0.0600
52     H52     0.3645   -4.9885   -0.8823 H        1 ZINC000001482927    0.1600
53     H53    -2.0281   -5.5558    3.1228 H        1 ZINC000001482927    0.3900
54     H54    -0.1029   -8.4313    2.2953 H        1 ZINC000001482927    0.0800
55     H55     1.1042   -8.2188    4.4509 H        1 ZINC000001482927    0.0500
56     H56     0.3613   -6.6715    3.9794 H        1 ZINC000001482927    0.0500
57     H57    -0.0368   -7.1554    6.3786 H        1 ZINC000001482927    0.0600
58     H58     0.0396   -9.6287    6.2176 H        1 ZINC000001482927    0.0500
59     H59    -1.4617   -9.0858    7.0048 H        1 ZINC000001482927    0.0500
60     H60    -1.9259  -10.8456    5.3207 H        1 ZINC000001482927    0.0600
61     H61    -1.5278  -10.3616    2.9216 H        1 ZINC000001482927    0.1100
62     H62     0.0010  -10.3737    3.8331 H        1 ZINC000001482927    0.0400
63     H63    -3.6351   -9.5996    4.0265 H        1 ZINC000001482927    0.1100
64     H64    -3.6076   -9.0688    5.7253 H        1 ZINC000001482927    0.0400
65     H65    -3.7115   -7.1264    4.1875 H        1 ZINC000001482927    0.0600
66     H66    -2.5044   -6.9139    6.3430 H        1 ZINC000001482927    0.0600
67     H67    -1.7460   -5.9094    5.0844 H        1 ZINC000001482927    0.0500
68     H68    -3.1642   -2.5538    1.4064 H        1 ZINC000001482927    0.1500
69     H69    -5.3368   -1.6550    2.0517 H        1 ZINC000001482927    0.1400
70     H70    -3.6795    2.2307    2.5828 H        1 ZINC000001482927    0.1500
71     H71     0.7977    1.7638    1.5671 H        1 ZINC000001482927    0.1700
72     H72     1.1779   -0.5888    0.9688 H        1 ZINC000001482927    0.1400
@<TRIPOS>BOND
1     1     2     1
2     1     43    1
3     1     44    1
4     1     45    1
5     2     3     1
6     3     10    ar
7     3     4     ar
8     4     5     ar
9     4     46    1
10    5     6     ar
11    5     47    1
12    6     7     ar
13    6     48    1
14    7     8     1
15    7     10    ar
16    8     9     1
17    9     49    1
18    9     50    1
19    9     51    1
20    10    11    1
21    11    31    1
22    11    12    2
23    12    13    1
24    12    52    1
25    13    14    1
26    13    30    2
27    14    15    2
28    14    16    am
29    16    17    1
30    16    53    1
31    17    28    1
32    17    18    1
33    17    21    1
34    18    19    ar
35    18    20    ar
36    21    26    1
37    21    22    1
38    21    54    1
39    22    23    1
40    22    55    1
41    22    56    1
42    23    29    1
43    23    24    1
44    23    57    1
45    24    25    1
46    24    58    1
47    24    59    1
48    25    26    1
49    25    27    1
50    25    60    1
51    26    61    1
52    26    62    1
53    27    28    1
54    27    63    1
55    27    64    1
56    28    29    1
57    28    65    1
58    29    66    1
59    29    67    1
60    30    31    1
61    31    32    1
62    32    42    ar
63    32    33    ar
64    33    39    ar
65    33    34    ar
66    34    35    ar
67    34    68    1
68    35    36    ar
69    35    69    1
70    36    37    1
71    36    38    ar
72    38    39    ar
73    38    70    1
74    39    40    ar
75    40    41    ar
76    41    42    ar
77    41    71    1
78    42    72    1
@<TRIPOS>SUBSTRUCTURE
1   ZINC000001482927 1     RESIDUE    1   A     ZIN   1
