@<TRIPOS>MOLECULE
ZINC000254102438
87    88    1     0     0
SMALL
USER_CHARGES
@<TRIPOS>ATOM
1      C1     -2.0618   -2.2016    1.0486 C.2      1 ZINC000254102438   -0.1800
2      C2     -1.0045   -1.7049    1.6414 C.2      1 ZINC000254102438   -0.1500
3      C3      0.2803   -2.4920    1.6744 C.3      1 ZINC000254102438    0.0900
4      N4      1.3676   -1.6781    1.1146 N.3      1 ZINC000254102438   -0.6300
5      C5      2.5796   -2.3807    1.1298 C.ar     1 ZINC000254102438    0.0700
6      C6      2.8691   -3.2544    0.0832 C.ar     1 ZINC000254102438    0.0900
7      O7      1.9805   -3.4021   -0.9386 O.3      1 ZINC000254102438   -0.4900
8      C8      4.0489   -3.9696    0.0824 C.ar     1 ZINC000254102438   -0.1700
9      C9      4.9681   -3.8205    1.1246 C.ar     1 ZINC000254102438    0.1400
10     N10     6.1362   -4.5808    1.0475 N.am     1 ZINC000254102438   -0.6500
11     C11     6.9549   -4.9120    2.0434 C.2      1 ZINC000254102438    0.5600
12     O12     6.6242   -4.7605    3.2121 O.2      1 ZINC000254102438   -0.5100
13     C13     8.2509   -5.5354    1.7834 C.2      1 ZINC000254102438   -0.1700
14     C14     8.4147   -6.4961    0.6374 C.3      1 ZINC000254102438   -0.1200
15     C15     9.3401   -5.2343    2.5170 C.2      1 ZINC000254102438   -0.0400
16     C16     9.3231   -4.2048    3.5526 C.2      1 ZINC000254102438   -0.1300
17     C17    10.4418   -3.9106    4.2162 C.2      1 ZINC000254102438   -0.1600
18     C18    10.4649   -2.8376    5.2723 C.3      1 ZINC000254102438    0.1300
19     H19    10.6983   -1.8784    4.8129 H        1 ZINC000254102438    0.0900
20     O20    11.4981   -3.1435    6.2187 O.3      1 ZINC000254102438   -0.3600
21     C21    12.7715   -2.5847    5.8898 C.3      1 ZINC000254102438    0.0300
22     C22     9.1268   -2.7757    6.0028 C.3      1 ZINC000254102438    0.1500
23     H23     8.4893   -3.5986    5.6724 H        1 ZINC000254102438    0.1100
24     O24     9.3600   -2.9159    7.4309 O.3      1 ZINC000254102438   -0.3400
25     C25     8.3824   -3.4910    8.1563 C.2      1 ZINC000254102438    0.6400
26     N26     8.5351   -3.6511    9.4858 N.am     1 ZINC000254102438   -0.8300
27     O27     7.3625   -3.8656    7.6124 O.2      1 ZINC000254102438   -0.5700
28     C28     8.4227   -1.4702    5.7332 C.2      1 ZINC000254102438   -0.1400
29     C29     8.3055   -0.9598    4.3194 C.3      1 ZINC000254102438   -0.1200
30     C30     7.9106   -0.7915    6.7282 C.2      1 ZINC000254102438   -0.1400
31     C31     7.1736    0.5084    6.5213 C.3      1 ZINC000254102438   -0.0900
32     H32     7.6555    1.1093    5.7592 H        1 ZINC000254102438    0.1000
33     C33     7.1900    1.2936    7.8423 C.3      1 ZINC000254102438   -0.1400
34     C34     5.7222    0.2087    6.1452 C.3      1 ZINC000254102438    0.1200
35     H35     5.6564   -0.7894    5.7114 H        1 ZINC000254102438    0.0700
36     O36     4.9164    0.2538    7.3277 O.3      1 ZINC000254102438   -0.5600
37     C37     5.2018    1.2390    5.1434 C.3      1 ZINC000254102438    0.1000
38     H38     5.0266    2.1856    5.6657 H        1 ZINC000254102438    0.0600
39     O39     6.1567    1.4549    4.1072 O.3      1 ZINC000254102438   -0.3700
40     C40     6.1238    2.7710    3.5516 C.3      1 ZINC000254102438    0.0300
41     C41     3.8790    0.7545    4.5507 C.3      1 ZINC000254102438   -0.1400
42     C42     4.1214   -0.0797    3.2895 C.3      1 ZINC000254102438   -0.0700
43     H43     5.1555   -0.4124    3.2561 H        1 ZINC000254102438    0.1000
44     C44     3.8164    0.7722    2.0538 C.3      1 ZINC000254102438   -0.1400
45     C45     3.1900   -1.2935    3.3136 C.3      1 ZINC000254102438   -0.0600
46     C46     3.4874   -2.2211    2.1654 C.ar     1 ZINC000254102438   -0.0400
47     C47     4.6858   -2.9287    2.1483 C.ar     1 ZINC000254102438    0.1000
48     O48     5.5754   -2.6918    3.1501 O.3      1 ZINC000254102438   -0.4700
49     H49    -2.0128   -3.1751    0.5835 H        1 ZINC000254102438    0.1000
50     H50    -2.9838   -1.6395    1.0288 H        1 ZINC000254102438    0.1000
51     H51    -1.0535   -0.7315    2.1065 H        1 ZINC000254102438    0.1100
52     H52     0.5179   -2.7565    2.7048 H        1 ZINC000254102438    0.0800
53     H53     0.1651   -3.4005    1.0833 H        1 ZINC000254102438    0.0500
54     H54     1.1423   -1.3660    0.1819 H        1 ZINC000254102438    0.3500
55     H55     2.1194   -2.7880   -1.6725 H        1 ZINC000254102438    0.3900
56     H56     4.2732   -4.6520   -0.7251 H        1 ZINC000254102438    0.1300
57     H57     6.3717   -4.8912    0.1387 H        1 ZINC000254102438    0.4100
58     H58     8.7058   -5.9472   -0.2581 H        1 ZINC000254102438    0.0800
59     H59     9.1859   -7.2263    0.8828 H        1 ZINC000254102438    0.0800
60     H60     7.4710   -7.0110    0.4573 H        1 ZINC000254102438    0.0700
61     H61    10.2564   -5.7755    2.3313 H        1 ZINC000254102438    0.1300
62     H62     8.4051   -3.6854    3.7769 H        1 ZINC000254102438    0.1400
63     H63    11.3508   -4.4552    3.9898 H        1 ZINC000254102438    0.1200
64     H64    12.6904   -1.4988    5.8420 H        1 ZINC000254102438    0.0400
65     H65    13.4980   -2.8615    6.6538 H        1 ZINC000254102438    0.0900
66     H66    13.0975   -2.9676    4.9227 H        1 ZINC000254102438    0.0400
67     H67     9.3493   -3.3520    9.9200 H        1 ZINC000254102438    0.4100
68     H68     7.8308   -4.0654   10.0084 H        1 ZINC000254102438    0.4200
69     H69     7.3872   -1.3391    3.8712 H        1 ZINC000254102438    0.0900
70     H70     8.2830    0.1299    4.3272 H        1 ZINC000254102438    0.0800
71     H71     9.1617   -1.3014    3.7377 H        1 ZINC000254102438    0.0500
72     H72     8.0159   -1.1685    7.7398 H        1 ZINC000254102438    0.1000
73     H73     8.2212    1.4929    8.1338 H        1 ZINC000254102438    0.0500
74     H74     6.6608    2.2374    7.7106 H        1 ZINC000254102438    0.0600
75     H75     6.6995    0.7075    8.6195 H        1 ZINC000254102438    0.0600
76     H76     5.1777   -0.3838    8.0062 H        1 ZINC000254102438    0.3800
77     H77     5.1386    2.9612    3.1259 H        1 ZINC000254102438    0.0500
78     H78     6.3284    3.5011    4.3346 H        1 ZINC000254102438    0.0400
79     H79     6.8795    2.8546    2.7705 H        1 ZINC000254102438    0.0900
80     H80     3.3551    0.1423    5.2879 H        1 ZINC000254102438    0.0800
81     H81     3.2580    1.6156    4.2989 H        1 ZINC000254102438    0.0600
82     H82     4.4683    1.6457    2.0448 H        1 ZINC000254102438    0.0500
83     H83     3.9880    0.1815    1.1540 H        1 ZINC000254102438    0.0500
84     H84     2.7759    1.0956    2.0833 H        1 ZINC000254102438    0.0500
85     H85     3.3388   -1.8346    4.2543 H        1 ZINC000254102438    0.0600
86     H86     2.1564   -0.9544    3.2724 H        1 ZINC000254102438    0.0800
87     H87     5.4610   -3.2642    3.9211 H        1 ZINC000254102438    0.3900
@<TRIPOS>BOND
1     1     2     2
2     1     49    1
3     1     50    1
4     2     3     1
5     2     51    1
6     3     4     1
7     3     52    1
8     3     53    1
9     4     5     1
10    4     54    1
11    5     46    ar
12    5     6     ar
13    6     7     1
14    6     8     ar
15    7     55    1
16    8     9     ar
17    8     56    1
18    9     47    ar
19    9     10    1
20    10    11    am
21    10    57    1
22    11    12    2
23    11    13    1
24    13    14    1
25    13    15    2
26    14    58    1
27    14    59    1
28    14    60    1
29    15    16    1
30    15    61    1
31    16    17    2
32    16    62    1
33    17    18    1
34    17    63    1
35    18    19    1
36    18    20    1
37    18    22    1
38    20    21    1
39    21    64    1
40    21    65    1
41    21    66    1
42    22    23    1
43    22    24    1
44    22    28    1
45    24    25    1
46    25    26    am
47    25    27    2
48    26    67    1
49    26    68    1
50    28    29    1
51    28    30    2
52    29    69    1
53    29    70    1
54    29    71    1
55    30    31    1
56    30    72    1
57    31    32    1
58    31    33    1
59    31    34    1
60    33    73    1
61    33    74    1
62    33    75    1
63    34    35    1
64    34    36    1
65    34    37    1
66    36    76    1
67    37    38    1
68    37    39    1
69    37    41    1
70    39    40    1
71    40    77    1
72    40    78    1
73    40    79    1
74    41    42    1
75    41    80    1
76    41    81    1
77    42    43    1
78    42    44    1
79    42    45    1
80    44    82    1
81    44    83    1
82    44    84    1
83    45    46    1
84    45    85    1
85    45    86    1
86    46    47    ar
87    47    48    1
88    48    87    1
@<TRIPOS>SUBSTRUCTURE
1   ZINC000254102438 1     RESIDUE    1   A     ZIN   1
