@<TRIPOS>MOLECULE
ZINC000003925925
74    77    1     0     0
SMALL
USER_CHARGES
@<TRIPOS>ATOM
1      C1     -0.9833    1.9427    0.4708 C.3      1 ZINC000003925925    0.0300
2      O2     -0.7630    0.5308    0.4776 O.3      1 ZINC000003925925   -0.3200
3      C3     -1.8524   -0.2645    0.3111 C.ar     1 ZINC000003925925    0.1100
4      C4     -3.1036    0.3029    0.1394 C.ar     1 ZINC000003925925   -0.1700
5      C5     -4.2193   -0.5173   -0.0312 C.ar     1 ZINC000003925925   -0.0400
6      C6     -5.5588    0.0810   -0.2156 C.2      1 ZINC000003925925    0.5600
7      O7     -5.6895    1.2895   -0.2187 O.2      1 ZINC000003925925   -0.6300
8      N8     -6.6350   -0.7135   -0.3802 N.pl3    1 ZINC000003925925   -1.1100
9      S9     -8.1352   -0.0434   -0.5867 S.o2     1 ZINC000003925925    2.6400
10     O10    -8.4589    0.6008    0.6378 O.2      1 ZINC000003925925   -1.0200
11     O11    -8.1041    0.6327   -1.8362 O.2      1 ZINC000003925925   -1.0200
12     C12    -9.2791   -1.3713   -0.7679 C.ar     1 ZINC000003925925   -0.6300
13     C13   -10.2632   -1.5700    0.1819 C.ar     1 ZINC000003925925   -0.0300
14     C14   -11.1608   -2.6120    0.0398 C.ar     1 ZINC000003925925   -0.1600
15     C15   -11.0743   -3.4545   -1.0525 C.ar     1 ZINC000003925925   -0.0800
16     C16   -10.0904   -3.2551   -2.0031 C.ar     1 ZINC000003925925   -0.1500
17     C17    -9.1957   -2.2109   -1.8631 C.ar     1 ZINC000003925925    0.0200
18     C18    -8.1233   -1.9936   -2.8993 C.3      1 ZINC000003925925   -0.1500
19     C19    -4.0665   -1.9045   -0.0276 C.ar     1 ZINC000003925925   -0.0900
20     C20    -2.8147   -2.4596    0.1443 C.ar     1 ZINC000003925925   -0.1000
21     C21    -1.7093   -1.6456    0.3075 C.ar     1 ZINC000003925925   -0.1000
22     C22    -0.3458   -2.2596    0.4942 C.3      1 ZINC000003925925    0.0000
23     C23    -0.0390   -2.3640    1.9659 C.2      1 ZINC000003925925   -0.1400
24     C24     0.6455   -1.4768    2.7042 C.2      1 ZINC000003925925    0.0600
25     N25     0.7235   -1.9089    4.0005 N.pl3    1 ZINC000003925925   -0.4800
26     C26     1.3979   -1.1926    5.0861 C.3      1 ZINC000003925925    0.0800
27     C27     0.0762   -3.1135    4.1337 C.ar     1 ZINC000003925925    0.1200
28     C28    -0.1377   -3.9683    5.2130 C.ar     1 ZINC000003925925   -0.1400
29     C29    -0.8342   -5.1280    5.0430 C.ar     1 ZINC000003925925   -0.0700
30     C30    -1.3439   -5.4780    3.7850 C.ar     1 ZINC000003925925   -0.1800
31     C31    -2.0956   -6.7379    3.6181 C.2      1 ZINC000003925925    0.5700
32     O32    -2.5379   -7.0420    2.5272 O.2      1 ZINC000003925925   -0.5400
33     N33    -2.2914   -7.5509    4.6751 N.am     1 ZINC000003925925   -0.7300
34     C34    -3.0372   -8.8009    4.5095 C.3      1 ZINC000003925925    0.1300
35     C35    -3.1149   -9.5302    5.8523 C.3      1 ZINC000003925925   -0.1100
36     H36    -3.5423   -8.8652    6.6027 H        1 ZINC000003925925    0.0900
37     C37    -1.7094   -9.9517    6.2857 C.3      1 ZINC000003925925   -0.1600
38     C38    -3.9979  -10.7713    5.7083 C.3      1 ZINC000003925925   -0.1600
39     C39    -4.2025  -11.4138    7.0817 C.3      1 ZINC000003925925    0.4500
40     F40    -4.7008  -10.4584    7.9740 F        1 ZINC000003925925   -0.1800
41     F41    -5.1140  -12.4693    6.9717 F        1 ZINC000003925925   -0.1800
42     F42    -2.9796  -11.9011    7.5554 F        1 ZINC000003925925   -0.1800
43     C43    -1.1424   -4.6387    2.6931 C.ar     1 ZINC000003925925    0.0100
44     C44    -0.4370   -3.4507    2.8654 C.ar     1 ZINC000003925925   -0.1100
45     H45    -0.0341    2.4593    0.6129 H        1 ZINC000003925925    0.0900
46     H46    -1.4183    2.2380   -0.4840 H        1 ZINC000003925925    0.0600
47     H47    -1.6657    2.2078    1.2784 H        1 ZINC000003925925    0.0500
48     H48    -3.2157    1.3771    0.1379 H        1 ZINC000003925925    0.1300
49     H49   -10.3309   -0.9117    1.0354 H        1 ZINC000003925925    0.1400
50     H50   -11.9294   -2.7677    0.7823 H        1 ZINC000003925925    0.1200
51     H51   -11.7750   -4.2688   -1.1632 H        1 ZINC000003925925    0.1200
52     H52   -10.0225   -3.9137   -2.8563 H        1 ZINC000003925925    0.1200
53     H53    -8.4984   -1.3276   -3.6763 H        1 ZINC000003925925    0.0800
54     H54    -7.2483   -1.5457   -2.4282 H        1 ZINC000003925925    0.1000
55     H55    -7.8474   -2.9503   -3.3429 H        1 ZINC000003925925    0.0700
56     H56    -4.9274   -2.5433   -0.1590 H        1 ZINC000003925925    0.1400
57     H57    -2.6977   -3.5333    0.1472 H        1 ZINC000003925925    0.1200
58     H58    -0.3311   -3.2543    0.0486 H        1 ZINC000003925925    0.0800
59     H59     0.4039   -1.6336    0.0103 H        1 ZINC000003925925    0.0800
60     H60     1.0722   -0.5578    2.3306 H        1 ZINC000003925925    0.1700
61     H61     0.6907   -0.5206    5.5723 H        1 ZINC000003925925    0.0700
62     H62     1.7770   -1.9098    5.8141 H        1 ZINC000003925925    0.0800
63     H63     2.2277   -0.6145    4.6795 H        1 ZINC000003925925    0.0800
64     H64     0.2500   -3.7115    6.1878 H        1 ZINC000003925925    0.1200
65     H65    -0.9946   -5.7838    5.8860 H        1 ZINC000003925925    0.1200
66     H66    -1.9385   -7.3083    5.5455 H        1 ZINC000003925925    0.4000
67     H67    -4.0447   -8.5790    4.1578 H        1 ZINC000003925925    0.0700
68     H68    -2.5292   -9.4334    3.7814 H        1 ZINC000003925925    0.0700
69     H69    -1.3337  -10.7167    5.6061 H        1 ZINC000003925925    0.0600
70     H70    -1.0468   -9.0866    6.2610 H        1 ZINC000003925925    0.0600
71     H71    -1.7464  -10.3522    7.2988 H        1 ZINC000003925925    0.0700
72     H72    -4.9643  -10.4836    5.2942 H        1 ZINC000003925925    0.1200
73     H73    -3.5149  -11.4855    5.0414 H        1 ZINC000003925925    0.1100
74     H74    -1.5334   -4.9043    1.7221 H        1 ZINC000003925925    0.1400
@<TRIPOS>BOND
1     1     2     1
2     1     45    1
3     1     46    1
4     1     47    1
5     2     3     1
6     3     21    ar
7     3     4     ar
8     4     5     ar
9     4     48    1
10    5     6     1
11    5     19    ar
12    6     7     2
13    6     8     1
14    8     9     1
15    9     10    2
16    9     11    2
17    9     12    1
18    12    17    ar
19    12    13    ar
20    13    14    ar
21    13    49    1
22    14    15    ar
23    14    50    1
24    15    16    ar
25    15    51    1
26    16    17    ar
27    16    52    1
28    17    18    1
29    18    53    1
30    18    54    1
31    18    55    1
32    19    20    ar
33    19    56    1
34    20    21    ar
35    20    57    1
36    21    22    1
37    22    23    1
38    22    58    1
39    22    59    1
40    23    44    1
41    23    24    2
42    24    25    1
43    24    60    1
44    25    26    1
45    25    27    1
46    26    61    1
47    26    62    1
48    26    63    1
49    27    44    ar
50    27    28    ar
51    28    29    ar
52    28    64    1
53    29    30    ar
54    29    65    1
55    30    31    1
56    30    43    ar
57    31    32    2
58    31    33    am
59    33    34    1
60    33    66    1
61    34    35    1
62    34    67    1
63    34    68    1
64    35    36    1
65    35    37    1
66    35    38    1
67    37    69    1
68    37    70    1
69    37    71    1
70    38    39    1
71    38    72    1
72    38    73    1
73    39    40    1
74    39    41    1
75    39    42    1
76    43    44    ar
77    43    74    1
@<TRIPOS>SUBSTRUCTURE
1   ZINC000003925925 1     RESIDUE    1   A     ZIN   1
