@<TRIPOS>MOLECULE
ZINC000033953843
44    46    1     0     0
SMALL
USER_CHARGES
@<TRIPOS>ATOM
1      C1     -1.9115    0.0588    1.1035 C.3      1 ZINC000033953843    0.0200
2      O2     -0.7975   -0.6353    0.5384 O.3      1 ZINC000033953843   -0.3000
3      C3      0.1755   -1.0397    1.3946 C.ar     1 ZINC000033953843    0.2200
4      C4      0.0038   -0.8754    2.7651 C.ar     1 ZINC000033953843   -0.2500
5      C5      0.9849   -1.2823    3.6405 C.ar     1 ZINC000033953843    0.0000
6      C6      2.1600   -1.8637    3.1514 C.ar     1 ZINC000033953843   -0.2100
7      C7      3.2099   -2.3002    4.0816 C.2      1 ZINC000033953843    0.1200
8      C8      3.5299   -1.5344    5.1447 C.2      1 ZINC000033953843   -0.2300
9      C9      4.2302   -2.1203    6.3551 C.3      1 ZINC000033953843   -0.0800
10     C10     3.5902   -1.4793    7.5960 C.3      1 ZINC000033953843   -0.1400
11     C11     3.7977    0.0329    7.5356 C.3      1 ZINC000033953843    0.0600
12     N12     3.3333    0.5874    6.2722 N.2      1 ZINC000033953843   -0.5500
13     H13     3.0984    1.5282    6.2482 H        1 ZINC000033953843    0.4300
14     C14     3.2186   -0.0968    5.1724 C.2      1 ZINC000033953843    0.4400
15     C15     2.7572    0.5778    3.9353 C.ar     1 ZINC000033953843   -0.2100
16     C16     3.4458    0.4024    2.7312 C.ar     1 ZINC000033953843    0.0000
17     C17     2.9744    1.0543    1.6046 C.ar     1 ZINC000033953843   -0.1700
18     C18     1.8482    1.8505    1.7051 C.ar     1 ZINC000033953843    0.1500
19     N19     1.2190    1.9971    2.8554 N.ar     1 ZINC000033953843   -0.4700
20     C20     1.6262    1.3929    3.9525 C.ar     1 ZINC000033953843    0.1500
21     C21     2.3309   -2.0285    1.7667 C.ar     1 ZINC000033953843    0.2100
22     O22     3.4673   -2.5914    1.2829 O.3      1 ZINC000033953843   -0.3100
23     C23     3.5710   -2.7268   -0.1359 C.3      1 ZINC000033953843    0.0200
24     C24     1.3344   -1.6202    0.8986 C.ar     1 ZINC000033953843   -0.2500
25     H25    -1.5542    0.9176    1.6718 H        1 ZINC000033953843    0.0700
26     H26    -2.5700    0.4003    0.3048 H        1 ZINC000033953843    0.1100
27     H27    -2.4600   -0.6119    1.7648 H        1 ZINC000033953843    0.0600
28     H28    -0.9026   -0.4264    3.1437 H        1 ZINC000033953843    0.1400
29     H29     0.8480   -1.1528    4.7040 H        1 ZINC000033953843    0.1300
30     H30     3.7254   -3.2343    3.9142 H        1 ZINC000033953843    0.1600
31     H31     4.0892   -3.2008    6.3797 H        1 ZINC000033953843    0.1100
32     H32     5.2936   -1.8834    6.3206 H        1 ZINC000033953843    0.0900
33     H33     2.5231   -1.7009    7.6119 H        1 ZINC000033953843    0.0900
34     H34     4.0605   -1.8766    8.4956 H        1 ZINC000033953843    0.1200
35     H35     3.2484    0.5005    8.3527 H        1 ZINC000033953843    0.1300
36     H36     4.8594    0.2513    7.6512 H        1 ZINC000033953843    0.1200
37     H37     4.3232   -0.2253    2.6814 H        1 ZINC000033953843    0.1500
38     H38     3.4810    0.9424    0.6573 H        1 ZINC000033953843    0.1500
39     H39     1.4781    2.3607    0.8281 H        1 ZINC000033953843    0.1700
40     H40     1.0845    1.5373    4.8756 H        1 ZINC000033953843    0.1600
41     H41     4.5250   -3.1899   -0.3879 H        1 ZINC000033953843    0.1100
42     H42     2.7560   -3.3512   -0.5019 H        1 ZINC000033953843    0.0700
43     H43     3.5112   -1.7424   -0.6001 H        1 ZINC000033953843    0.0600
44     H44     1.4619   -1.7455   -0.1665 H        1 ZINC000033953843    0.1500
@<TRIPOS>BOND
1     1     2     1
2     1     25    1
3     1     26    1
4     1     27    1
5     2     3     1
6     3     24    ar
7     3     4     ar
8     4     5     ar
9     4     28    1
10    5     6     ar
11    5     29    1
12    6     7     1
13    6     21    ar
14    7     8     2
15    7     30    1
16    8     14    1
17    8     9     1
18    9     10    1
19    9     31    1
20    9     32    1
21    10    11    1
22    10    33    1
23    10    34    1
24    11    12    1
25    11    35    1
26    11    36    1
27    12    13    1
28    12    14    2
29    14    15    1
30    15    20    ar
31    15    16    ar
32    16    17    ar
33    16    37    1
34    17    18    ar
35    17    38    1
36    18    19    ar
37    18    39    1
38    19    20    ar
39    20    40    1
40    21    22    1
41    21    24    ar
42    22    23    1
43    23    41    1
44    23    42    1
45    23    43    1
46    24    44    1
@<TRIPOS>SUBSTRUCTURE
1   ZINC000033953843 1     RESIDUE    1   A     ZIN   1
