@<TRIPOS>MOLECULE
ZINC000073069271
  39   42    0    0    0
SMALL
USER_CHARGES
NO_NAME
@<TRIPOS>ATOM
    1 C1       -0.8829     0.6963    -0.0224 C.3    1 <0>      -0.1700
    2 C2       -0.3359    -0.7319     0.0209 C.3    1 <0>       0.1500
    3 C3       -1.4999    -1.7218     0.0987 C.3    1 <0>      -0.1700
    4 N4        0.4463    -0.9922    -1.1902 N.pl3  1 <0>      -0.3200
    5 N5       -0.0442    -0.9262    -2.4986 N.2    1 <0>      -0.2000
    6 C6        0.9127    -1.2141    -3.3488 C.2    1 <0>       0.2100
    7 C7        0.7927    -1.2516    -4.8262 C.ar   1 <0>      -0.0400
    8 C8        1.3471    -2.3144    -5.5441 C.ar   1 <0>      -0.1200
    9 C9        1.2404    -2.3575    -6.9173 C.ar   1 <0>      -0.0600
   10 C10       0.5803    -1.3441    -7.5948 C.ar   1 <0>       0.0100
   11 O11       0.3184    -1.1119    -8.9022 O.3    1 <0>      -0.2300
   12 C12      -0.3673     0.0408    -8.9951 C.2    1 <0>       0.5300
   13 N13      -0.8102     0.6020   -10.1714 N.pl3  1 <0>      -0.7900
   14 N14      -0.5526     0.5514    -7.8048 N.2    1 <0>      -0.5400
   15 C15       0.0194    -0.2719    -6.8828 C.ar   1 <0>       0.0800
   16 C16       0.1240    -0.2324    -5.4941 C.ar   1 <0>      -0.0300
   17 C17       2.1197    -1.4906    -2.5704 C.ar   1 <0>      -0.3000
   18 C18       3.4419    -1.8479    -2.8812 C.ar   1 <0>       0.5600
   19 N19       3.8411    -2.0123    -4.1935 N.pl3  1 <0>      -0.8000
   20 N20       4.2999    -2.0236    -1.8808 N.ar   1 <0>      -0.5700
   21 H21       5.2173    -2.2702    -2.0770 H      1 <0>       0.4500
   22 C22       3.9239    -1.8673    -0.6241 C.ar   1 <0>       0.4200
   23 N23       2.6976    -1.5340    -0.2857 N.ar   1 <0>      -0.4900
   24 C24       1.7665    -1.3304    -1.2173 C.ar   1 <0>       0.3900
   25 H25      -0.0536     1.4015    -0.0778 H      1 <0>       0.0700
   26 H26      -1.5199     0.8149    -0.8989 H      1 <0>       0.0800
   27 H27      -1.4649     0.8899     0.8786 H      1 <0>       0.0900
   28 H28       0.3012    -0.8506     0.8973 H      1 <0>       0.1200
   29 H29      -2.1370    -1.6031    -0.7778 H      1 <0>       0.0800
   30 H30      -1.1102    -2.7393     0.1295 H      1 <0>       0.0700
   31 H31      -2.0819    -1.5281     0.9997 H      1 <0>       0.0900
   32 H32       1.8621    -3.1060    -5.0201 H      1 <0>       0.1400
   33 H33       1.6717    -3.1815    -7.4663 H      1 <0>       0.1500
   34 H34      -0.6323     0.1605   -11.0165 H      1 <0>       0.4300
   35 H35      -1.3003     1.4389   -10.1551 H      1 <0>       0.4400
   36 H36      -0.3099     0.5868    -4.9399 H      1 <0>       0.1500
   37 H37       3.2930    -1.6647    -4.9144 H      1 <0>       0.4400
   38 H38       4.6695    -2.4753    -4.3941 H      1 <0>       0.4300
   39 H39       4.6534    -2.0199     0.1575 H      1 <0>       0.2500
@<TRIPOS>BOND
   1    1    2 1
   2    1   25 1
   3    1   26 1
   4    1   27 1
   5    2    3 1
   6    2    4 1
   7    2   28 1
   8    3   29 1
   9    3   30 1
  10    3   31 1
  11    4   24 1
  12    4    5 1
  13    5    6 2
  14    6    7 1
  15    6   17 1
  16    7   16 ar
  17    7    8 ar
  18    8    9 ar
  19    8   32 1
  20    9   10 ar
  21    9   33 1
  22   10   15 ar
  23   10   11 1
  24   11   12 1
  25   12   13 1
  26   12   14 2
  27   13   34 1
  28   13   35 1
  29   14   15 1
  30   15   16 ar
  31   16   36 1
  32   17   24 ar
  33   17   18 ar
  34   18   19 1
  35   18   20 ar
  36   19   37 1
  37   19   38 1
  38   20   21 1
  39   20   22 ar
  40   22   23 ar
  41   22   39 1
  42   23   24 ar
