@<TRIPOS>MOLECULE
ZINC000058591422
85    89    1     0     0
SMALL
USER_CHARGES
@<TRIPOS>ATOM
1      C1     -0.0657    1.0551    2.5015 C.3      1 ZINC000058591422    0.0300
2      O2     -0.0350   -0.3436    2.2103 O.3      1 ZINC000058591422   -0.2800
3      C3      0.6876   -1.1296    3.0440 C.ar     1 ZINC000058591422    0.4700
4      C4      0.7756   -2.5132    2.8272 C.ar     1 ZINC000058591422   -0.1100
5      N5      0.2713   -3.3653    1.9005 N.2      1 ZINC000058591422   -0.4300
6      C6      0.6672   -4.5759    2.1646 C.2      1 ZINC000058591422    0.2500
7      N7      1.4526   -4.5768    3.2802 N.pl3    1 ZINC000058591422   -0.4700
8      C8      2.0868   -5.7467    3.8928 C.3      1 ZINC000058591422    0.3200
9      H9      3.0616   -5.4713    4.2954 H        1 ZINC000058591422    0.1300
10     O10     2.2386   -6.7888    2.9145 O.3      1 ZINC000058591422   -0.3500
11     C11     2.0697   -8.0446    3.6067 C.3      1 ZINC000058591422    0.0500
12     H12     2.9768   -8.3080    4.1507 H        1 ZINC000058591422    0.1100
13     C13     1.6911   -9.1547    2.6241 C.3      1 ZINC000058591422    0.1300
14     O14     2.7865   -9.4027    1.7405 O.3      1 ZINC000058591422   -0.7300
15     P15     2.7383  -10.5111    0.5738 P.3      1 ZINC000058591422    2.3300
16     O16     2.1554  -11.7629    1.1064 O.2      1 ZINC000058591422   -1.0000
17     N17     1.7900   -9.9470   -0.6971 N.3      1 ZINC000058591422   -1.0200
18     C18     2.2882   -8.6573   -1.1935 C.3      1 ZINC000058591422    0.0800
19     H19     2.8463   -8.1549   -0.4034 H        1 ZINC000058591422    0.1200
20     C20     3.2056   -8.8933   -2.3951 C.3      1 ZINC000058591422   -0.1900
21     C21     1.1241   -7.7964   -1.6117 C.2      1 ZINC000058591422    0.4600
22     O22    -0.0047   -8.2144   -1.5069 O.2      1 ZINC000058591422   -0.4800
23     O23     1.3413   -6.5653   -2.1006 O.3      1 ZINC000058591422   -0.3500
24     C24     0.1732   -5.7924   -2.4831 C.3      1 ZINC000058591422    0.0800
25     C25     0.6162   -4.4274   -3.0135 C.3      1 ZINC000058591422   -0.0700
26     C26     1.5201   -4.6227   -4.2324 C.3      1 ZINC000058591422   -0.1400
27     C27    -0.6147   -3.6129   -3.4166 C.3      1 ZINC000058591422   -0.1400
28     C28     1.3861   -3.6815   -1.9219 C.3      1 ZINC000058591422   -0.1400
29     O29     4.2312  -10.7973    0.0435 O.3      1 ZINC000058591422   -0.6300
30     C30     5.0613  -11.3174    0.9841 C.ar     1 ZINC000058591422    0.0900
31     C31     6.0417  -10.5070    1.5916 C.ar     1 ZINC000058591422   -0.0600
32     C32     6.1865   -9.1539    1.2455 C.ar     1 ZINC000058591422   -0.1000
33     C33     7.1444   -8.4017    1.8535 C.ar     1 ZINC000058591422   -0.1100
34     C34     7.9863   -8.9543    2.8168 C.ar     1 ZINC000058591422   -0.1100
35     C35     7.8752  -10.2621    3.1771 C.ar     1 ZINC000058591422   -0.1000
36     C36     6.8974  -11.0696    2.5711 C.ar     1 ZINC000058591422   -0.0400
37     C37     6.7524  -12.4236    2.9176 C.ar     1 ZINC000058591422   -0.1000
38     C38     5.7944  -13.1779    2.3114 C.ar     1 ZINC000058591422   -0.1000
39     C39     4.9481  -12.6287    1.3524 C.ar     1 ZINC000058591422   -0.1100
40     C40     0.9060   -7.7615    4.5905 C.3      1 ZINC000058591422    0.0500
41     H41    -0.0573   -7.8395    4.0864 H        1 ZINC000058591422    0.0900
42     O42     0.9632   -8.6418    5.7148 O.3      1 ZINC000058591422   -0.5400
43     C43     1.1916   -6.2982    5.0194 C.3      1 ZINC000058591422    0.1100
44     C44    -0.1117   -5.5014    5.1055 C.3      1 ZINC000058591422   -0.1700
45     O45     1.8807   -6.2692    6.2709 O.3      1 ZINC000058591422   -0.5300
46     C46     1.5395   -3.2812    3.7231 C.ar     1 ZINC000058591422    0.3600
47     N47     2.1485   -2.6767    4.7373 N.ar     1 ZINC000058591422   -0.5900
48     C48     2.0388   -1.3687    4.9040 C.ar     1 ZINC000058591422    0.6300
49     N49     2.6886   -0.7737    5.9730 N.pl3    1 ZINC000058591422   -0.8100
50     N50     1.3315   -0.6067    4.0793 N.ar     1 ZINC000058591422   -0.6200
51     H51     0.9483    1.4541    2.4747 H        1 ZINC000058591422    0.0600
52     H52    -0.6775    1.5674    1.7590 H        1 ZINC000058591422    0.1000
53     H53    -0.4912    1.2106    3.4929 H        1 ZINC000058591422    0.0600
54     H54     0.4114   -5.4515    1.5863 H        1 ZINC000058591422    0.2200
55     H55     1.4568  -10.0646    3.1767 H        1 ZINC000058591422    0.1000
56     H56     0.8202   -8.8464    2.0457 H        1 ZINC000058591422    0.0800
57     H57     1.7414  -10.6266   -1.4413 H        1 ZINC000058591422    0.4000
58     H58     2.6734   -9.4713   -3.1505 H        1 ZINC000058591422    0.0800
59     H59     3.5062   -7.9341   -2.8166 H        1 ZINC000058591422    0.1000
60     H60     4.0907   -9.4426   -2.0741 H        1 ZINC000058591422    0.0900
61     H61    -0.3753   -6.3238   -3.2608 H        1 ZINC000058591422    0.0700
62     H62    -0.4708   -5.6533   -1.6148 H        1 ZINC000058591422    0.0700
63     H63     0.9716   -5.1541   -5.0101 H        1 ZINC000058591422    0.0500
64     H64     1.8357   -3.6502   -4.6102 H        1 ZINC000058591422    0.0600
65     H65     2.3970   -5.2029   -3.9452 H        1 ZINC000058591422    0.0600
66     H66    -1.2587   -3.4738   -2.5483 H        1 ZINC000058591422    0.0600
67     H67    -0.2991   -2.6405   -3.7945 H        1 ZINC000058591422    0.0700
68     H68    -1.1633   -4.1443   -4.1943 H        1 ZINC000058591422    0.0600
69     H69     2.2630   -4.2617   -1.6347 H        1 ZINC000058591422    0.0600
70     H70     1.7017   -2.7090   -2.2997 H        1 ZINC000058591422    0.0600
71     H71     0.7422   -3.5423   -1.0535 H        1 ZINC000058591422    0.0700
72     H72     5.5413   -8.7123    0.5004 H        1 ZINC000058591422    0.1200
73     H73     7.2538   -7.3613    1.5852 H        1 ZINC000058591422    0.1300
74     H74     8.7382   -8.3358    3.2842 H        1 ZINC000058591422    0.1300
75     H75     8.5350  -10.6771    3.9246 H        1 ZINC000058591422    0.1300
76     H76     7.3989  -12.8647    3.6619 H        1 ZINC000058591422    0.1400
77     H77     5.6875  -14.2182    2.5811 H        1 ZINC000058591422    0.1400
78     H78     4.1967  -13.2494    0.8871 H        1 ZINC000058591422    0.1500
79     H79     0.8805   -9.5777    5.4861 H        1 ZINC000058591422    0.3900
80     H80    -0.7615   -5.9480    5.8581 H        1 ZINC000058591422    0.0700
81     H81     0.1102   -4.4708    5.3825 H        1 ZINC000058591422    0.0700
82     H82    -0.6122   -5.5177    4.1374 H        1 ZINC000058591422    0.0700
83     H83     1.3838   -6.6600    7.0026 H        1 ZINC000058591422    0.3900
84     H84     3.2129   -1.3147    6.5839 H        1 ZINC000058591422    0.4200
85     H85     2.6192    0.1840    6.1106 H        1 ZINC000058591422    0.4200
@<TRIPOS>BOND
1     1     2     1
2     1     51    1
3     1     52    1
4     1     53    1
5     2     3     1
6     3     50    ar
7     3     4     ar
8     4     46    ar
9     4     5     1
10    5     6     2
11    6     7     1
12    6     54    1
13    7     8     1
14    7     46    1
15    8     9     1
16    8     43    1
17    8     10    1
18    10    11    1
19    11    12    1
20    11    13    1
21    11    40    1
22    13    14    1
23    13    55    1
24    13    56    1
25    14    15    1
26    15    16    2
27    15    17    1
28    15    29    1
29    17    18    1
30    17    57    1
31    18    19    1
32    18    20    1
33    18    21    1
34    20    58    1
35    20    59    1
36    20    60    1
37    21    22    2
38    21    23    1
39    23    24    1
40    24    25    1
41    24    61    1
42    24    62    1
43    25    26    1
44    25    27    1
45    25    28    1
46    26    63    1
47    26    64    1
48    26    65    1
49    27    66    1
50    27    67    1
51    27    68    1
52    28    69    1
53    28    70    1
54    28    71    1
55    29    30    1
56    30    39    ar
57    30    31    ar
58    31    36    ar
59    31    32    ar
60    32    33    ar
61    32    72    1
62    33    34    ar
63    33    73    1
64    34    35    ar
65    34    74    1
66    35    36    ar
67    35    75    1
68    36    37    ar
69    37    38    ar
70    37    76    1
71    38    39    ar
72    38    77    1
73    39    78    1
74    40    41    1
75    40    42    1
76    40    43    1
77    42    79    1
78    43    44    1
79    43    45    1
80    44    80    1
81    44    81    1
82    44    82    1
83    45    83    1
84    46    47    ar
85    47    48    ar
86    48    49    1
87    48    50    ar
88    49    84    1
89    49    85    1
@<TRIPOS>SUBSTRUCTURE
1   ZINC000058591422 1     RESIDUE    1   A     ZIN   1
