@<TRIPOS>MOLECULE
ZINC000095566645
58    61    1     0     0
SMALL
USER_CHARGES
@<TRIPOS>ATOM
1      C1     -1.0355    1.6555   -1.6613 C.3      1 ZINC000095566645    0.0200
2      O2     -0.3872    0.5690   -0.9971 O.3      1 ZINC000095566645   -0.3100
3      C3     -1.1839   -0.3281   -0.3601 C.ar     1 ZINC000095566645    0.1600
4      C4     -0.6053   -1.4139    0.3152 C.ar     1 ZINC000095566645    0.1200
5      N5      0.7866   -1.5625    0.3261 N.am     1 ZINC000095566645   -0.6600
6      C6      1.3979   -2.1061    1.3973 C.2      1 ZINC000095566645    0.5500
7      O7      0.7356   -2.5305    2.3251 O.2      1 ZINC000095566645   -0.5200
8      C8      2.8656   -2.1862    1.4443 C.2      1 ZINC000095566645   -0.2300
9      C9      3.4596   -3.0072    2.3059 C.2      1 ZINC000095566645   -0.0400
10     C10     2.6381   -3.9929    3.0963 C.3      1 ZINC000095566645    0.0500
11     N11     3.2549   -5.3235    3.0117 N.3      1 ZINC000095566645   -0.5400
12     C12     3.6361   -5.6399    1.6293 C.3      1 ZINC000095566645    0.0500
13     C13     4.4033   -6.9637    1.6006 C.3      1 ZINC000095566645   -0.1200
14     C14     3.5173   -8.0740    2.1724 C.3      1 ZINC000095566645   -0.1200
15     C15     3.0946   -7.6972    3.5950 C.3      1 ZINC000095566645   -0.1200
16     C16     2.3653   -6.3521    3.5659 C.3      1 ZINC000095566645    0.0600
17     C17    -1.3958   -2.3344    0.9677 C.ar     1 ZINC000095566645   -0.0500
18     C18    -2.7870   -2.1824    0.9545 C.ar     1 ZINC000095566645   -0.2000
19     C19    -3.3723   -1.0867    0.2725 C.ar     1 ZINC000095566645    0.2200
20     C20    -2.5501   -0.1594   -0.3790 C.ar     1 ZINC000095566645   -0.2000
21     N21    -4.7093   -0.9653    0.2765 N.ar     1 ZINC000095566645   -0.5500
22     C22    -5.4555   -1.8454    0.9003 C.ar     1 ZINC000095566645    0.3500
23     N23    -4.9536   -2.8837    1.5498 N.ar     1 ZINC000095566645   -0.5900
24     C24    -3.6457   -3.0981    1.6086 C.ar     1 ZINC000095566645    0.4700
25     N25    -3.1359   -4.1853    2.2891 N.pl3    1 ZINC000095566645   -0.6400
26     C26    -3.9904   -5.0139    3.0241 C.ar     1 ZINC000095566645    0.1600
27     C27    -3.8204   -6.3918    2.9916 C.ar     1 ZINC000095566645   -0.1100
28     C28    -4.6648   -7.2087    3.7185 C.ar     1 ZINC000095566645   -0.1200
29     C29    -5.6804   -6.6551    4.4788 C.ar     1 ZINC000095566645    0.1000
30     F30    -6.5052   -7.4560    5.1884 F        1 ZINC000095566645   -0.1200
31     C31    -5.8520   -5.2801    4.5134 C.ar     1 ZINC000095566645   -0.0600
32     Cl32   -7.1259   -4.5885    5.4687 Cl       1 ZINC000095566645   -0.0400
33     C33    -5.0062   -4.4593    3.7919 C.ar     1 ZINC000095566645   -0.0700
34     H34    -0.2863    2.2953   -2.1276 H        1 ZINC000095566645    0.1100
35     H35    -1.7069    1.2652   -2.4261 H        1 ZINC000095566645    0.0600
36     H36    -1.6078    2.2348   -0.9367 H        1 ZINC000095566645    0.0600
37     H37     1.3112   -1.2742   -0.4372 H        1 ZINC000095566645    0.4200
38     H38     3.4612   -1.5784    0.7793 H        1 ZINC000095566645    0.1400
39     H39     4.5306   -2.9675    2.4391 H        1 ZINC000095566645    0.1400
40     H40     2.5961   -3.6775    4.1388 H        1 ZINC000095566645    0.0900
41     H41     1.6282   -4.0340    2.6882 H        1 ZINC000095566645    0.0800
42     H42     2.7392   -5.7265    1.0160 H        1 ZINC000095566645    0.0300
43     H43     4.2693   -4.8446    1.2361 H        1 ZINC000095566645    0.0800
44     H44     4.6725   -7.2061    0.5726 H        1 ZINC000095566645    0.0700
45     H45     5.3075   -6.8735    2.2026 H        1 ZINC000095566645    0.0700
46     H46     2.6314   -8.1909    1.5481 H        1 ZINC000095566645    0.0600
47     H47     4.0750   -9.0103    2.1940 H        1 ZINC000095566645    0.0600
48     H48     2.4288   -8.4636    3.9918 H        1 ZINC000095566645    0.0700
49     H49     3.9782   -7.6185    4.2284 H        1 ZINC000095566645    0.0700
50     H50     2.0756   -6.0740    4.5792 H        1 ZINC000095566645    0.0800
51     H51     1.4744   -6.4354    2.9435 H        1 ZINC000095566645    0.0300
52     H52    -0.9449   -3.1680    1.4856 H        1 ZINC000095566645    0.1500
53     H53    -2.9861    0.6792   -0.9016 H        1 ZINC000095566645    0.1500
54     H54    -6.5277   -1.7168    0.8835 H        1 ZINC000095566645    0.2000
55     H55    -2.1851   -4.3749    2.2576 H        1 ZINC000095566645    0.4300
56     H56    -3.0287   -6.8246    2.3981 H        1 ZINC000095566645    0.1400
57     H57    -4.5326   -8.2802    3.6932 H        1 ZINC000095566645    0.1500
58     H58    -5.1397   -3.3879    3.8191 H        1 ZINC000095566645    0.1500
@<TRIPOS>BOND
1     1     2     1
2     1     34    1
3     1     35    1
4     1     36    1
5     2     3     1
6     3     20    ar
7     3     4     ar
8     4     5     1
9     4     17    ar
10    5     6     am
11    5     37    1
12    6     7     2
13    6     8     1
14    8     9     2
15    8     38    1
16    9     10    1
17    9     39    1
18    10    11    1
19    10    40    1
20    10    41    1
21    11    16    1
22    11    12    1
23    12    13    1
24    12    42    1
25    12    43    1
26    13    14    1
27    13    44    1
28    13    45    1
29    14    15    1
30    14    46    1
31    14    47    1
32    15    16    1
33    15    48    1
34    15    49    1
35    16    50    1
36    16    51    1
37    17    18    ar
38    17    52    1
39    18    24    ar
40    18    19    ar
41    19    20    ar
42    19    21    ar
43    20    53    1
44    21    22    ar
45    22    23    ar
46    22    54    1
47    23    24    ar
48    24    25    1
49    25    26    1
50    25    55    1
51    26    33    ar
52    26    27    ar
53    27    28    ar
54    27    56    1
55    28    29    ar
56    28    57    1
57    29    30    1
58    29    31    ar
59    31    32    1
60    31    33    ar
61    33    58    1
@<TRIPOS>SUBSTRUCTURE
1   ZINC000095566645 1     RESIDUE    1   A     ZIN   1
