@<TRIPOS>MOLECULE
ZINC000043152942
41    42    1     0     0
SMALL
USER_CHARGES
@<TRIPOS>ATOM
1      C1     -0.0575    1.4971   -0.0673 C.3      1 ZINC000043152942   -0.0800
2      C2     -0.0219   -0.0092   -0.0434 C.2      1 ZINC000043152942   -0.2300
3      C3      0.0763   -0.7078   -1.2084 C.2      1 ZINC000043152942    0.0200
4      C4      0.1081   -2.1180   -1.1650 C.2      1 ZINC000043152942   -0.1300
5      C5      0.2140   -2.8966   -2.4059 C.2      1 ZINC000043152942    0.4400
6      O6      0.3227   -4.1075   -2.3570 O.2      1 ZINC000043152942   -0.6600
7      N7      0.1908   -2.2697   -3.5988 N.pl3    1 ZINC000043152942   -0.5900
8      O8      0.2930   -3.0203   -4.7951 O.3      1 ZINC000043152942   -0.2500
9      C9      0.2546   -2.2277   -5.9836 C.3      1 ZINC000043152942    0.0900
10     C10     0.3720   -3.1381   -7.2077 C.3      1 ZINC000043152942    0.0800
11     O11    -0.7753   -3.9867   -7.2820 O.3      1 ZINC000043152942   -0.5600
12     C12     0.0381   -2.7660    0.0716 C.2      1 ZINC000043152942    0.3700
13     N13     0.0678   -4.1322    0.1298 N.pl3    1 ZINC000043152942   -0.6500
14     C14     1.2950   -4.8049    0.1620 C.ar     1 ZINC000043152942    0.2500
15     C15     2.4793   -4.0871    0.2535 C.ar     1 ZINC000043152942   -0.1600
16     C16     3.6894   -4.7536    0.2851 C.ar     1 ZINC000043152942   -0.0500
17     C17     3.7224   -6.1348    0.2252 C.ar     1 ZINC000043152942   -0.1300
18     I18     5.5601   -7.1394    0.2735 I        1 ZINC000043152942   -0.0500
19     C19     2.5443   -6.8548    0.1339 C.ar     1 ZINC000043152942   -0.0800
20     C20     1.3299   -6.1945    0.1081 C.ar     1 ZINC000043152942    0.0500
21     F21     0.1794   -6.8973    0.0194 F        1 ZINC000043152942   -0.1400
22     N22    -0.0589   -2.0393    1.2168 N.am     1 ZINC000043152942   -0.5000
23     C23    -0.1311   -2.7292    2.5072 C.3      1 ZINC000043152942    0.0600
24     C24    -0.0842   -0.6947    1.1803 C.2      1 ZINC000043152942    0.5200
25     O25    -0.1714   -0.0644    2.2210 O.2      1 ZINC000043152942   -0.5700
26     H26     0.9591    1.8856   -0.0068 H        1 ZINC000043152942    0.0600
27     H27    -0.5210    1.8349   -0.9943 H        1 ZINC000043152942    0.0600
28     H28    -0.6365    1.8604    0.7818 H        1 ZINC000043152942    0.0700
29     H29     0.1288   -0.1888   -2.1541 H        1 ZINC000043152942    0.1500
30     H30    -0.6879   -1.6818   -6.0259 H        1 ZINC000043152942    0.0300
31     H31     1.0841   -1.5207   -5.9757 H        1 ZINC000043152942    0.0400
32     H32     0.4321   -2.5286   -8.1093 H        1 ZINC000043152942    0.0500
33     H33     1.2707   -3.7488   -7.1214 H        1 ZINC000043152942    0.0400
34     H34    -0.7684   -4.5923   -8.0358 H        1 ZINC000043152942    0.3700
35     H35    -0.7615   -4.6350    0.1487 H        1 ZINC000043152942    0.4200
36     H36     2.4552   -3.0084    0.2997 H        1 ZINC000043152942    0.1300
37     H37     4.6109   -4.1948    0.3563 H        1 ZINC000043152942    0.1300
38     H38     2.5732   -7.9334    0.0872 H        1 ZINC000043152942    0.1400
39     H39     0.8770   -2.9509    2.8576 H        1 ZINC000043152942    0.0700
40     H40    -0.6357   -2.0911    3.2326 H        1 ZINC000043152942    0.0900
41     H41    -0.6882   -3.6589    2.3915 H        1 ZINC000043152942    0.0800
@<TRIPOS>BOND
1     1     2     1
2     1     26    1
3     1     27    1
4     1     28    1
5     2     24    1
6     2     3     2
7     3     4     1
8     3     29    1
9     4     5     1
10    4     12    2
11    5     6     2
12    5     7     1
13    7     8     1
14    8     9     1
15    9     10    1
16    9     30    1
17    9     31    1
18    10    11    1
19    10    32    1
20    10    33    1
21    11    34    1
22    12    13    1
23    12    22    1
24    13    14    1
25    13    35    1
26    14    20    ar
27    14    15    ar
28    15    16    ar
29    15    36    1
30    16    17    ar
31    16    37    1
32    17    18    1
33    17    19    ar
34    19    20    ar
35    19    38    1
36    20    21    1
37    22    23    1
38    22    24    am
39    23    39    1
40    23    40    1
41    23    41    1
42    24    25    2
@<TRIPOS>SUBSTRUCTURE
1   ZINC000043152942 1     RESIDUE    1   A     ZIN   1
