@<TRIPOS>MOLECULE
ZINC000003941695
  45   47    0    0    0
SMALL
USER_CHARGES
NO_NAME
@<TRIPOS>ATOM
    1 C1       -0.1416     1.4558    -1.3244 C.3    1 <0>      -0.1500
    2 C2       -0.1174    -0.0351    -0.9817 C.3    1 <0>       0.0500
    3 O3       -1.3948    -0.6097    -1.2648 O.3    1 <0>      -0.3100
    4 C4       -1.5433    -1.9372    -1.0146 C.ar   1 <0>       0.1400
    5 C5       -0.4803    -2.6681    -0.5014 C.ar   1 <0>      -0.2000
    6 C6       -0.6269    -4.0151    -0.2462 C.ar   1 <0>      -0.0600
    7 C7       -1.8461    -4.6438    -0.5045 C.ar   1 <0>      -0.0600
    8 C8       -2.0078    -6.0878    -0.2319 C.2    1 <0>       0.0700
    9 C9       -1.0046    -7.0063    -0.1519 C.2    1 <0>      -0.1700
   10 C10      -1.5959    -8.2513     0.1213 C.2    1 <0>      -0.1500
   11 C11      -0.8702    -9.5606     0.2952 C.3    1 <0>      -0.0800
   12 C12      -2.9308    -8.0642     0.2006 C.2    1 <0>       0.0000
   13 N13      -3.1953    -6.7404    -0.0084 N.pl3  1 <0>      -0.4100
   14 C14      -4.4658    -6.1492    -0.0043 C.ar   1 <0>       0.1800
   15 C15      -4.7370    -5.0891     0.8502 C.ar   1 <0>      -0.1300
   16 C16      -5.9901    -4.5081     0.8515 C.ar   1 <0>      -0.0100
   17 C17      -6.9740    -4.9813     0.0029 C.ar   1 <0>      -0.6800
   18 S18      -8.5713    -4.2375     0.0076 S.o2   1 <0>       2.7000
   19 N19      -8.5445    -3.0117    -1.1056 N.am   1 <0>      -1.2500
   20 O20      -9.4710    -5.2160    -0.4947 O.2    1 <0>      -0.9600
   21 O21      -8.7235    -3.6216     1.2791 O.2    1 <0>      -0.9600
   22 C22      -6.7068    -6.0367    -0.8496 C.ar   1 <0>       0.0000
   23 C23      -5.4542    -6.6187    -0.8590 C.ar   1 <0>      -0.1400
   24 C24      -2.9124    -3.9054    -1.0205 C.ar   1 <0>      -0.0800
   25 C25      -2.7594    -2.5576    -1.2676 C.ar   1 <0>      -0.1500
   26 H26       0.8327     1.8941    -1.1084 H      1 <0>       0.0800
   27 H27      -0.3702     1.5818    -2.3827 H      1 <0>       0.0700
   28 H28      -0.9047     1.9538    -0.7261 H      1 <0>       0.0700
   29 H29       0.6456    -0.5331    -1.5800 H      1 <0>       0.0600
   30 H30       0.1112    -0.1611     0.0766 H      1 <0>       0.0600
   31 H31       0.4628    -2.1810    -0.3021 H      1 <0>       0.1300
   32 H32       0.2006    -4.5830     0.1527 H      1 <0>       0.1300
   33 H33       0.0507    -6.8130    -0.2761 H      1 <0>       0.1400
   34 H34      -0.6100    -9.6951     1.3451 H      1 <0>       0.0600
   35 H35      -1.5144   -10.3786    -0.0272 H      1 <0>       0.0600
   36 H36       0.0386    -9.5550    -0.3065 H      1 <0>       0.0600
   37 H37      -3.6650    -8.8309     0.3996 H      1 <0>       0.1700
   38 H38      -3.9691    -4.7193     1.5135 H      1 <0>       0.1400
   39 H39      -6.2017    -3.6837     1.5163 H      1 <0>       0.1500
   40 H40      -9.3564    -2.7660    -1.5761 H      1 <0>       0.4200
   41 H41      -7.7169    -2.5394    -1.2871 H      1 <0>       0.4200
   42 H42      -7.4773    -6.4041    -1.5113 H      1 <0>       0.1500
   43 H43      -5.2460    -7.4427    -1.5253 H      1 <0>       0.1400
   44 H44      -3.8573    -4.3882    -1.2217 H      1 <0>       0.1300
   45 H45      -3.5839    -1.9855    -1.6668 H      1 <0>       0.1300
@<TRIPOS>BOND
   1    1    2 1
   2    1   26 1
   3    1   27 1
   4    1   28 1
   5    2    3 1
   6    2   29 1
   7    2   30 1
   8    3    4 1
   9    4   25 ar
  10    4    5 ar
  11    5    6 ar
  12    5   31 1
  13    6    7 ar
  14    6   32 1
  15    7    8 1
  16    7   24 ar
  17    8   13 1
  18    8    9 2
  19    9   10 1
  20    9   33 1
  21   10   11 1
  22   10   12 2
  23   11   34 1
  24   11   35 1
  25   11   36 1
  26   12   13 1
  27   12   37 1
  28   13   14 1
  29   14   23 ar
  30   14   15 ar
  31   15   16 ar
  32   15   38 1
  33   16   17 ar
  34   16   39 1
  35   17   18 1
  36   17   22 ar
  37   18   19 am
  38   18   20 2
  39   18   21 2
  40   19   40 1
  41   19   41 1
  42   22   23 ar
  43   22   42 1
  44   23   43 1
  45   24   25 ar
  46   24   44 1
  47   25   45 1
