@<TRIPOS>MOLECULE
ZINC000003942646
  55   56    0    0    0
SMALL
NO_CHARGES
@<TRIPOS>ATOM
   1 C1            -0.0173     1.4248     0.0099 C.3     
   2 O2             0.0021    -0.0041     0.0020 O.3     
   3 C3            -1.1998    -0.6372     0.0101 C.ar    
   4 C4            -2.3721     0.1058     0.0195 C.ar    
   5 C5            -3.5999    -0.5329     0.0273 C.ar    
   6 O6            -4.7461     0.1957     0.0360 O.3     
   7 C7            -4.6106     1.6183     0.0366 C.3     
   8 C8            -3.6577    -1.9320     0.0257 C.ar    
   9 C9            -4.9636    -2.6199     0.0335 C.2     
  10 C10           -5.2123    -3.5815    -0.8466 C.2     
  11 S11           -6.7712    -4.4027    -0.8373 S.o2    
  12 O12           -6.4393    -5.7842    -0.8157 O.2     
  13 O13           -7.4773    -3.8019     0.2396 O.2     
  14 C14           -7.5283    -3.9546    -2.4236 C.3     
  15 C15           -8.8833    -4.6047    -2.5350 C.ar    
  16 C16           -8.9998    -5.8644    -3.0918 C.ar    
  17 C17          -10.2408    -6.4664    -3.1963 C.ar    
  18 C18          -11.3708    -5.8073    -2.7426 C.ar    
  19 O19          -12.5916    -6.3983    -2.8443 O.3     
  20 C20          -12.6350    -7.7010    -3.4301 C.3     
  21 C21          -11.2542    -4.5372    -2.1810 C.ar    
  22 N22          -12.3930    -3.8665    -1.7203 N.pl3   
  23 C23          -12.2682    -2.5314    -1.1303 C.3     
  24 C24          -13.6301    -2.0349    -0.7183 C.2     
  25 O25          -14.6138    -2.7318    -0.9005 O.co2   
  26 O26          -13.7483    -0.9364    -0.2027 O.co2   
  27 C27          -10.0061    -3.9421    -2.0748 C.ar    
  28 C28           -2.4712    -2.6756     0.0162 C.ar    
  29 O29           -2.5186    -4.0330     0.0141 O.3     
  30 C30           -1.2688    -4.7258     0.0043 C.3     
  31 C31           -1.2501    -2.0242     0.0031 C.ar    
  32 H32            1.0053     1.8021     0.0021 H       
  33 H33           -0.5445     1.7859    -0.8732 H       
  34 H34           -0.5275     1.7763     0.9067 H       
  35 H35           -2.3260     1.1848     0.0211 H       
  36 H36           -5.5991     2.0774     0.0440 H       
  37 H37           -4.0585     1.9302     0.9232 H       
  38 H38           -4.0708     1.9322    -0.8567 H       
  39 H39           -5.7167    -2.3407     0.7554 H       
  40 H40           -4.4591    -3.8607    -1.5686 H       
  41 H41           -7.6391    -2.8717    -2.4803 H       
  42 H42           -6.8924    -4.2979    -3.2396 H       
  43 H43           -8.1196    -6.3799    -3.4466 H       
  44 H44          -10.3284    -7.4506    -3.6322 H       
  45 H45          -13.6653    -8.0560    -3.4506 H       
  46 H46          -12.2462    -7.6550    -4.4473 H       
  47 H47          -12.0265    -8.3856    -2.8391 H       
  48 H48          -13.2648    -4.2857    -1.7916 H       
  49 H49          -11.6192    -2.5797    -0.2559 H       
  50 H50          -11.8392    -1.8487    -1.8638 H       
  51 H51           -9.9122    -2.9580    -1.6398 H       
  52 H52           -0.7081    -4.4509    -0.8891 H       
  53 H53           -0.6958    -4.4541     0.8908 H       
  54 H54           -1.4493    -5.8007     0.0036 H       
  55 H55           -0.3342    -2.5965    -0.0042 H       
@<TRIPOS>BOND
   1    1    2 1
   2    1   32 1
   3    1   33 1
   4    1   34 1
   5    2    3 1
   6    3   31 ar
   7    3    4 ar
   8    4    5 ar
   9    4   35 1
  10    5    6 1
  11    5    8 ar
  12    6    7 1
  13    7   36 1
  14    7   37 1
  15    7   38 1
  16    8    9 1
  17    8   28 ar
  18    9   10 2
  19    9   39 1
  20   10   11 1
  21   10   40 1
  22   11   12 2
  23   11   13 2
  24   11   14 1
  25   14   15 1
  26   14   41 1
  27   14   42 1
  28   15   27 ar
  29   15   16 ar
  30   16   17 ar
  31   16   43 1
  32   17   18 ar
  33   17   44 1
  34   18   19 1
  35   18   21 ar
  36   19   20 1
  37   20   45 1
  38   20   46 1
  39   20   47 1
  40   21   22 1
  41   21   27 ar
  42   22   23 1
  43   22   48 1
  44   23   24 1
  45   23   49 1
  46   23   50 1
  47   24   25 ar
  48   24   26 ar
  49   27   51 1
  50   28   29 1
  51   28   31 ar
  52   29   30 1
  53   30   52 1
  54   30   53 1
  55   30   54 1
  56   31   55 1
