@<TRIPOS>MOLECULE
ZINC000034039290
71    74    1     0     0
SMALL
USER_CHARGES
@<TRIPOS>ATOM
1      C1      0.7682    1.4345    0.9425 C.3      1 ZINC000034039290   -0.1300
2      C2      0.5834   -0.0516    0.7746 C.ar     1 ZINC000034039290   -0.0500
3      C3      0.8216   -0.6407   -0.4545 C.ar     1 ZINC000034039290   -0.1200
4      C4      0.6540   -2.0006   -0.6151 C.ar     1 ZINC000034039290   -0.0500
5      C5      0.2436   -2.7825    0.4659 C.ar     1 ZINC000034039290   -0.1400
6      C6      0.0624   -4.2405    0.3011 C.2      1 ZINC000034039290    0.5700
7      O7     -0.2853   -4.6923   -0.7725 O.2      1 ZINC000034039290   -0.5000
8      N8      0.2827   -5.0688    1.3413 N.am     1 ZINC000034039290   -0.6000
9      C9      0.4950   -4.5196    2.6827 C.3      1 ZINC000034039290    0.0400
10     C10    -0.7653   -4.7284    3.5247 C.3      1 ZINC000034039290   -0.2000
11     C11    -0.5435   -4.1548    4.9257 C.3      1 ZINC000034039290   -0.0100
12     N12    -1.7536   -4.3553    5.7341 N.4      1 ZINC000034039290   -0.6400
13     H13    -2.5318   -3.8845    5.2972 H        1 ZINC000034039290    0.4400
14     H14    -1.9529   -5.3421    5.8023 H        1 ZINC000034039290    0.4400
15     H15    -1.6074   -3.9770    6.6580 H        1 ZINC000034039290    0.4400
16     C16     0.3098   -6.5183    1.1305 C.3      1 ZINC000034039290    0.1900
17     H17     0.3456   -6.7294    0.0617 H        1 ZINC000034039290    0.1500
18     C18     1.5287   -7.1004    1.7986 C.2      1 ZINC000034039290    0.1300
19     C19     2.2971   -7.9568    1.1018 C.2      1 ZINC000034039290   -0.2300
20     C20     1.9360   -8.3177   -0.3161 C.3      1 ZINC000034039290   -0.0300
21     C21     2.7494   -7.4815   -1.2701 C.ar     1 ZINC000034039290   -0.0900
22     C22     2.3373   -6.2018   -1.5916 C.ar     1 ZINC000034039290   -0.1200
23     C23     3.0834   -5.4348   -2.4667 C.ar     1 ZINC000034039290   -0.1200
24     C24     4.2420   -5.9473   -3.0199 C.ar     1 ZINC000034039290   -0.1200
25     C25     4.6546   -7.2266   -2.6976 C.ar     1 ZINC000034039290   -0.1200
26     C26     3.9107   -7.9921   -1.8192 C.ar     1 ZINC000034039290   -0.1000
27     C27     3.4510   -8.5184    1.7101 C.2      1 ZINC000034039290    0.4200
28     O28     4.1707   -9.2975    1.1089 O.2      1 ZINC000034039290   -0.4400
29     C29     3.7423   -8.1188    3.1002 C.ar     1 ZINC000034039290   -0.2100
30     C30     4.8515   -8.6153    3.7828 C.ar     1 ZINC000034039290   -0.0100
31     C31     5.0861   -8.2151    5.0799 C.ar     1 ZINC000034039290   -0.1300
32     C32     4.2241   -7.3233    5.7043 C.ar     1 ZINC000034039290    0.0200
33     Cl33    4.5350   -6.8299    7.3393 Cl       1 ZINC000034039290   -0.0400
34     C34     3.1228   -6.8247    5.0381 C.ar     1 ZINC000034039290   -0.1400
35     C35     2.8690   -7.2165    3.7301 C.ar     1 ZINC000034039290    0.1500
36     O36     1.8024   -6.7389    3.0567 O.3      1 ZINC000034039290   -0.2200
37     C37    -0.9497   -7.1448    1.7321 C.3      1 ZINC000034039290   -0.1100
38     C38    -2.1873   -6.5538    1.0538 C.3      1 ZINC000034039290   -0.1500
39     C39    -0.9214   -8.6586    1.5120 C.3      1 ZINC000034039290   -0.1600
40     C40     0.0055   -2.1820    1.7031 C.ar     1 ZINC000034039290   -0.1300
41     C41     0.1819   -0.8218    1.8516 C.ar     1 ZINC000034039290   -0.1300
42     H42     1.7958    1.6415    1.2413 H        1 ZINC000034039290    0.0800
43     H43     0.5564    1.9360   -0.0018 H        1 ZINC000034039290    0.0800
44     H44     0.0859    1.8011    1.7096 H        1 ZINC000034039290    0.0700
45     H45     1.1391   -0.0346   -1.2900 H        1 ZINC000034039290    0.1400
46     H46     0.8395   -2.4592   -1.5751 H        1 ZINC000034039290    0.1400
47     H47     1.3356   -5.0282    3.1547 H        1 ZINC000034039290    0.1100
48     H48     0.7102   -3.4536    2.6090 H        1 ZINC000034039290    0.1400
49     H49    -1.6059   -4.2198    3.0527 H        1 ZINC000034039290    0.1000
50     H50    -0.9805   -5.7944    3.5984 H        1 ZINC000034039290    0.1100
51     H51     0.2971   -4.6634    5.3976 H        1 ZINC000034039290    0.1400
52     H52    -0.3283   -3.0888    4.8520 H        1 ZINC000034039290    0.1400
53     H53     2.1471   -9.3733   -0.4873 H        1 ZINC000034039290    0.1000
54     H54     0.8752   -8.1281   -0.4804 H        1 ZINC000034039290    0.0900
55     H55     1.4321   -5.8014   -1.1594 H        1 ZINC000034039290    0.1300
56     H56     2.7610   -4.4352   -2.7185 H        1 ZINC000034039290    0.1200
57     H57     4.8245   -5.3482   -3.7041 H        1 ZINC000034039290    0.1200
58     H58     5.5596   -7.6271   -3.1301 H        1 ZINC000034039290    0.1200
59     H59     4.2331   -8.9916   -1.5674 H        1 ZINC000034039290    0.1300
60     H60     5.5224   -9.3092    3.2982 H        1 ZINC000034039290    0.1600
61     H61     5.9438   -8.5969    5.6136 H        1 ZINC000034039290    0.1500
62     H62     2.4594   -6.1311    5.5333 H        1 ZINC000034039290    0.1500
63     H63    -0.9856   -6.9337    2.8009 H        1 ZINC000034039290    0.0800
64     H64    -2.1514   -6.7649   -0.0150 H        1 ZINC000034039290    0.0700
65     H65    -3.0846   -7.0002    1.4824 H        1 ZINC000034039290    0.0600
66     H66    -2.2074   -5.4754    1.2106 H        1 ZINC000034039290    0.0500
67     H67    -0.0398   -9.0796    1.9952 H        1 ZINC000034039290    0.0600
68     H68    -1.8187   -9.1050    1.9406 H        1 ZINC000034039290    0.0700
69     H69    -0.8856   -8.8697    0.4432 H        1 ZINC000034039290    0.0700
70     H70    -0.3126   -2.7814    2.5434 H        1 ZINC000034039290    0.1500
71     H71    -0.0017   -0.3559    2.8085 H        1 ZINC000034039290    0.1300
@<TRIPOS>BOND
1     1     2     1
2     1     42    1
3     1     43    1
4     1     44    1
5     2     41    ar
6     2     3     ar
7     3     4     ar
8     3     45    1
9     4     5     ar
10    4     46    1
11    5     6     1
12    5     40    ar
13    6     7     2
14    6     8     am
15    8     9     1
16    8     16    1
17    9     10    1
18    9     47    1
19    9     48    1
20    10    11    1
21    10    49    1
22    10    50    1
23    11    12    1
24    11    51    1
25    11    52    1
26    12    13    1
27    12    14    1
28    12    15    1
29    16    17    1
30    16    18    1
31    16    37    1
32    18    36    1
33    18    19    2
34    19    20    1
35    19    27    1
36    20    21    1
37    20    53    1
38    20    54    1
39    21    26    ar
40    21    22    ar
41    22    23    ar
42    22    55    1
43    23    24    ar
44    23    56    1
45    24    25    ar
46    24    57    1
47    25    26    ar
48    25    58    1
49    26    59    1
50    27    28    2
51    27    29    1
52    29    35    ar
53    29    30    ar
54    30    31    ar
55    30    60    1
56    31    32    ar
57    31    61    1
58    32    33    1
59    32    34    ar
60    34    35    ar
61    34    62    1
62    35    36    1
63    37    38    1
64    37    39    1
65    37    63    1
66    38    64    1
67    38    65    1
68    38    66    1
69    39    67    1
70    39    68    1
71    39    69    1
72    40    41    ar
73    40    70    1
74    41    71    1
@<TRIPOS>SUBSTRUCTURE
1   ZINC000034039290 1     RESIDUE    1   A     ZIN   1
