@<TRIPOS>MOLECULE
ZINC000299888868
71    76    1     0     0
SMALL
USER_CHARGES
@<TRIPOS>ATOM
1      C1     -1.7374    1.7551    1.7681 C.3      1 ZINC000299888868   -0.1500
2      C2     -1.9107    0.2755    1.9960 C.2      1 ZINC000299888868    0.4600
3      O3     -1.8746   -0.1712    3.1180 O.2      1 ZINC000299888868   -0.5100
4      O4     -2.1052   -0.5460    0.9524 O.3      1 ZINC000299888868   -0.3400
5      C5     -2.2643   -1.9590    1.2465 C.3      1 ZINC000299888868   -0.0100
6      C6     -2.4711   -2.7193   -0.0381 C.2      1 ZINC000299888868    0.3100
7      O7     -2.6017   -2.1215   -1.0792 O.2      1 ZINC000299888868   -0.3800
8      C8     -2.5149   -4.2256   -0.0235 C.3      1 ZINC000299888868    0.0500
9      O9     -1.2554   -4.5577    0.4212 O.3      1 ZINC000299888868   -0.3200
10     C10    -0.3987   -4.0549   -0.6386 C.3      1 ZINC000299888868    0.2300
11     C11     0.4862   -2.9218   -0.1065 C.3      1 ZINC000299888868   -0.1300
12     C12     1.8260   -3.6236    0.2384 C.3      1 ZINC000299888868   -0.1200
13     C13     1.9695   -4.6691   -0.8961 C.3      1 ZINC000299888868   -0.1200
14     C14     0.5271   -5.1677   -1.1369 C.3      1 ZINC000299888868   -0.1400
15     O15    -1.2280   -3.5736   -1.7288 O.3      1 ZINC000299888868   -0.3300
16     C16    -2.3899   -4.4017   -1.5893 C.3      1 ZINC000299888868    0.0400
17     H17    -2.2274   -5.4289   -1.9157 H        1 ZINC000299888868    0.1000
18     C18    -3.7633   -3.8325   -2.0288 C.3      1 ZINC000299888868   -0.1200
19     C19    -4.6182   -4.6460   -1.0640 C.3      1 ZINC000299888868   -0.1000
20     H20    -4.4644   -5.6921   -1.3289 H        1 ZINC000299888868    0.0800
21     C21    -6.0987   -4.4612   -0.9147 C.3      1 ZINC000299888868   -0.0900
22     H22    -6.3190   -3.5247   -0.4023 H        1 ZINC000299888868    0.1000
23     C23    -6.7422   -4.4776   -2.3057 C.3      1 ZINC000299888868   -0.1100
24     C24    -8.1742   -5.0018   -2.2644 C.3      1 ZINC000299888868   -0.0900
25     C25    -8.7276   -4.7791   -0.8758 C.2      1 ZINC000299888868   -0.0400
26     C26    -9.7707   -3.9846   -0.6783 C.2      1 ZINC000299888868   -0.2200
27     C27   -10.2329   -3.7567    0.7064 C.2      1 ZINC000299888868    0.4100
28     O28   -11.3706   -3.3967    0.9444 O.2      1 ZINC000299888868   -0.4500
29     C29    -9.2548   -3.9850    1.7895 C.2      1 ZINC000299888868   -0.2100
30     C30    -8.2287   -4.8012    1.5642 C.2      1 ZINC000299888868   -0.0900
31     C31    -8.0577   -5.5098    0.2568 C.3      1 ZINC000299888868   -0.0300
32     C32    -8.6716   -6.9065    0.3710 C.3      1 ZINC000299888868   -0.1400
33     C33    -6.5706   -5.6658   -0.0715 C.3      1 ZINC000299888868    0.1600
34     F34    -6.3853   -6.8325   -0.8209 F        1 ZINC000299888868   -0.1800
35     C35    -5.7966   -5.8066    1.2356 C.3      1 ZINC000299888868    0.0800
36     H36    -6.0622   -4.9765    1.8901 H        1 ZINC000299888868    0.0800
37     O37    -6.1836   -7.0285    1.8675 O.3      1 ZINC000299888868   -0.5500
38     C38    -4.2728   -5.8152    1.0454 C.3      1 ZINC000299888868   -0.1300
39     C39    -3.9131   -4.5089    0.3513 C.3      1 ZINC000299888868   -0.0300
40     C40    -4.5038   -3.3154    1.1047 C.3      1 ZINC000299888868   -0.1800
41     H41    -1.5919    2.2555    2.7254 H        1 ZINC000299888868    0.1000
42     H42    -0.8680    1.9255    1.1332 H        1 ZINC000299888868    0.1000
43     H43    -2.6270    2.1543    1.2809 H        1 ZINC000299888868    0.1000
44     H44    -1.3697   -2.3288    1.7476 H        1 ZINC000299888868    0.1000
45     H45    -3.1287   -2.1000    1.8953 H        1 ZINC000299888868    0.1200
46     H46     0.6386   -2.1632   -0.8743 H        1 ZINC000299888868    0.0900
47     H47     0.0452   -2.4797    0.7868 H        1 ZINC000299888868    0.0800
48     H48     2.6516   -2.9124    0.2145 H        1 ZINC000299888868    0.0800
49     H49     1.7658   -4.1142    1.2099 H        1 ZINC000299888868    0.0800
50     H50     2.3670   -4.2020   -1.7972 H        1 ZINC000299888868    0.0700
51     H51     2.6095   -5.4920   -0.5778 H        1 ZINC000299888868    0.0800
52     H52     0.3486   -6.0838   -0.5739 H        1 ZINC000299888868    0.0900
53     H53     0.3638   -5.3429   -2.2002 H        1 ZINC000299888868    0.0900
54     H54    -3.8398   -2.7625   -1.8356 H        1 ZINC000299888868    0.1400
55     H55    -3.9871   -4.0702   -3.0687 H        1 ZINC000299888868    0.0900
56     H56    -6.7470   -3.4639   -2.7063 H        1 ZINC000299888868    0.0800
57     H57    -6.1502   -5.1145   -2.9630 H        1 ZINC000299888868    0.0800
58     H58    -8.7823   -4.4635   -2.9915 H        1 ZINC000299888868    0.0900
59     H59    -8.1809   -6.0672   -2.4947 H        1 ZINC000299888868    0.0900
60     H60   -10.2714   -3.5140   -1.5116 H        1 ZINC000299888868    0.1500
61     H61    -9.3708   -3.4986    2.7467 H        1 ZINC000299888868    0.1500
62     H62    -7.4993   -4.9564    2.3454 H        1 ZINC000299888868    0.1400
63     H63    -9.7319   -6.8191    0.6085 H        1 ZINC000299888868    0.0600
64     H64    -8.5537   -7.4338   -0.5757 H        1 ZINC000299888868    0.0700
65     H65    -8.1668   -7.4618    1.1615 H        1 ZINC000299888868    0.0900
66     H66    -5.7360   -7.1954    2.7083 H        1 ZINC000299888868    0.3800
67     H67    -3.7731   -5.8846    2.0116 H        1 ZINC000299888868    0.0900
68     H68    -3.9778   -6.6478    0.4069 H        1 ZINC000299888868    0.0900
69     H69    -4.0621   -3.2590    2.0996 H        1 ZINC000299888868    0.0800
70     H70    -4.2871   -2.3975    0.5584 H        1 ZINC000299888868    0.0800
71     H71    -5.5832   -3.4395    1.1929 H        1 ZINC000299888868    0.0800
@<TRIPOS>BOND
1     1     2     1
2     1     41    1
3     1     42    1
4     1     43    1
5     2     3     2
6     2     4     1
7     4     5     1
8     5     6     1
9     5     44    1
10    5     45    1
11    6     7     2
12    6     8     1
13    8     16    1
14    8     39    1
15    8     9     1
16    9     10    1
17    10    14    1
18    10    11    1
19    10    15    1
20    11    12    1
21    11    46    1
22    11    47    1
23    12    13    1
24    12    48    1
25    12    49    1
26    13    14    1
27    13    50    1
28    13    51    1
29    14    52    1
30    14    53    1
31    15    16    1
32    16    17    1
33    16    18    1
34    18    19    1
35    18    54    1
36    18    55    1
37    19    20    1
38    19    39    1
39    19    21    1
40    21    22    1
41    21    33    1
42    21    23    1
43    23    24    1
44    23    56    1
45    23    57    1
46    24    25    1
47    24    58    1
48    24    59    1
49    25    31    1
50    25    26    2
51    26    27    1
52    26    60    1
53    27    28    2
54    27    29    1
55    29    30    2
56    29    61    1
57    30    31    1
58    30    62    1
59    31    32    1
60    31    33    1
61    32    63    1
62    32    64    1
63    32    65    1
64    33    34    1
65    33    35    1
66    35    36    1
67    35    37    1
68    35    38    1
69    37    66    1
70    38    39    1
71    38    67    1
72    38    68    1
73    39    40    1
74    40    69    1
75    40    70    1
76    40    71    1
@<TRIPOS>SUBSTRUCTURE
1   ZINC000299888868 1     RESIDUE    1   A     ZIN   1
