@<TRIPOS>MOLECULE
ZINC000000538314
59    63    1     0     0
SMALL
USER_CHARGES
@<TRIPOS>ATOM
1      C1     -2.1529   -2.4302    0.9345 C.3      1 ZINC000000538314   -0.1100
2      C2     -1.4090   -2.5917   -0.3660 C.2      1 ZINC000000538314    0.2100
3      C3     -1.9326   -2.0871   -1.5373 C.2      1 ZINC000000538314   -0.2700
4      C4     -3.2565   -1.3672   -1.5314 C.3      1 ZINC000000538314   -0.0800
5      C5     -3.0171    0.1398   -1.4200 C.3      1 ZINC000000538314    0.0600
6      N6     -4.2990    0.8487   -1.5302 N.3      1 ZINC000000538314   -0.5300
7      C7     -5.2305    0.4180   -0.4802 C.3      1 ZINC000000538314    0.0600
8      C8     -6.4537    1.3420   -0.4742 C.3      1 ZINC000000538314   -0.0900
9      C9     -7.0310    1.3731   -1.8739 C.2      1 ZINC000000538314   -0.0700
10     C10    -8.3392    1.1863   -2.0867 C.2      1 ZINC000000538314   -0.0800
11     C11    -8.8782    1.2219   -3.4676 C.ar     1 ZINC000000538314   -0.0500
12     C12    -8.8277    2.4022   -4.2076 C.ar     1 ZINC000000538314   -0.0800
13     C13    -9.3304    2.4307   -5.4920 C.ar     1 ZINC000000538314   -0.1500
14     C14    -9.8853    1.2885   -6.0465 C.ar     1 ZINC000000538314    0.1000
15     F15   -10.3764    1.3209   -7.3047 F        1 ZINC000000538314   -0.1400
16     C16    -9.9376    0.1130   -5.3147 C.ar     1 ZINC000000538314   -0.1500
17     C17    -9.4317    0.0736   -4.0319 C.ar     1 ZINC000000538314   -0.0800
18     C18    -9.2494    0.9438   -0.9415 C.ar     1 ZINC000000538314   -0.0400
19     C19    -9.1115   -0.2096   -0.1709 C.ar     1 ZINC000000538314   -0.0800
20     C20    -9.9607   -0.4310    0.8936 C.ar     1 ZINC000000538314   -0.1500
21     C21   -10.9498    0.4907    1.1969 C.ar     1 ZINC000000538314    0.1000
22     F22   -11.7792    0.2697    2.2402 F        1 ZINC000000538314   -0.1400
23     C23   -11.0906    1.6385    0.4337 C.ar     1 ZINC000000538314   -0.1500
24     C24   -10.2420    1.8714   -0.6288 C.ar     1 ZINC000000538314   -0.0800
25     C25    -6.0789    1.6232   -3.0246 C.3      1 ZINC000000538314   -0.0900
26     C26    -4.8795    0.6814   -2.8685 C.3      1 ZINC000000538314    0.0600
27     C27    -1.2237   -2.2494   -2.7287 C.2      1 ZINC000000538314    0.5300
28     O28    -1.6737   -1.8079   -3.7743 O.2      1 ZINC000000538314   -0.5200
29     N29    -0.0253   -2.9030   -2.7206 N.am     1 ZINC000000538314   -0.4700
30     C30     0.7911   -3.1458   -3.7972 C.2      1 ZINC000000538314    0.0500
31     C31     1.9245   -3.7986   -3.6077 C.2      1 ZINC000000538314   -0.2000
32     S32     1.9811   -4.1547   -1.8725 S.3      1 ZINC000000538314    0.1800
33     C33     0.4283   -3.3739   -1.5261 C.2      1 ZINC000000538314    0.3100
34     N34    -0.2383   -3.2169   -0.3978 N.2      1 ZINC000000538314   -0.5000
35     H35    -1.5793   -2.8879    1.7405 H        1 ZINC000000538314    0.0900
36     H36    -2.2920   -1.3697    1.1443 H        1 ZINC000000538314    0.0900
37     H37    -3.1257   -2.9163    0.8595 H        1 ZINC000000538314    0.0900
38     H38    -3.7915   -1.5828   -2.4563 H        1 ZINC000000538314    0.0800
39     H39    -3.8497   -1.7046   -0.6814 H        1 ZINC000000538314    0.0800
40     H40    -2.5591    0.3648   -0.4568 H        1 ZINC000000538314    0.0800
41     H41    -2.3534    0.4625   -2.2222 H        1 ZINC000000538314    0.0800
42     H42    -5.5493   -0.6060   -0.6747 H        1 ZINC000000538314    0.0400
43     H43    -4.7336    0.4664    0.4888 H        1 ZINC000000538314    0.0800
44     H44    -7.1996    0.9599    0.2227 H        1 ZINC000000538314    0.0800
45     H45    -6.1537    2.3471   -0.1779 H        1 ZINC000000538314    0.0900
46     H46    -8.3960    3.2932   -3.7760 H        1 ZINC000000538314    0.1300
47     H47    -9.2918    3.3446   -6.0661 H        1 ZINC000000538314    0.1400
48     H48   -10.3710   -0.7748   -5.7509 H        1 ZINC000000538314    0.1400
49     H49    -9.4729   -0.8430   -3.4622 H        1 ZINC000000538314    0.1300
50     H50    -8.3413   -0.9289   -0.4070 H        1 ZINC000000538314    0.1300
51     H51    -9.8546   -1.3244    1.4912 H        1 ZINC000000538314    0.1400
52     H52   -11.8630    2.3542    0.6737 H        1 ZINC000000538314    0.1400
53     H53   -10.3525    2.7663   -1.2232 H        1 ZINC000000538314    0.1300
54     H54    -6.5836    1.4221   -3.9696 H        1 ZINC000000538314    0.0800
55     H55    -5.7388    2.6585   -3.0019 H        1 ZINC000000538314    0.0900
56     H56    -4.1295    0.9198   -3.6225 H        1 ZINC000000538314    0.0800
57     H57    -5.2082   -0.3501   -2.9957 H        1 ZINC000000538314    0.0400
58     H58     0.5112   -2.8087   -4.7843 H        1 ZINC000000538314    0.1900
59     H59     2.6608   -4.0602   -4.3532 H        1 ZINC000000538314    0.2100
@<TRIPOS>BOND
1     1     2     1
2     1     35    1
3     1     36    1
4     1     37    1
5     2     34    1
6     2     3     2
7     3     4     1
8     3     27    1
9     4     5     1
10    4     38    1
11    4     39    1
12    5     6     1
13    5     40    1
14    5     41    1
15    6     26    1
16    6     7     1
17    7     8     1
18    7     42    1
19    7     43    1
20    8     9     1
21    8     44    1
22    8     45    1
23    9     10    2
24    9     25    1
25    10    11    1
26    10    18    1
27    11    17    ar
28    11    12    ar
29    12    13    ar
30    12    46    1
31    13    14    ar
32    13    47    1
33    14    15    1
34    14    16    ar
35    16    17    ar
36    16    48    1
37    17    49    1
38    18    24    ar
39    18    19    ar
40    19    20    ar
41    19    50    1
42    20    21    ar
43    20    51    1
44    21    22    1
45    21    23    ar
46    23    24    ar
47    23    52    1
48    24    53    1
49    25    26    1
50    25    54    1
51    25    55    1
52    26    56    1
53    26    57    1
54    27    28    2
55    27    29    am
56    29    33    1
57    29    30    1
58    30    31    2
59    30    58    1
60    31    32    1
61    31    59    1
62    32    33    1
63    33    34    2
@<TRIPOS>SUBSTRUCTURE
1   ZINC000000538314 1     RESIDUE    1   A     ZIN   1
