@<TRIPOS>MOLECULE
ZINC000000007460
  40   43    0    0    0
SMALL
USER_CHARGES
NO_NAME
@<TRIPOS>ATOM
    1 Cl1       0.0013    -0.0042     0.0254 Cl     1 <0>      -0.0700
    2 C2       -0.0223     1.7317     0.0290 C.ar   1 <0>      -0.0500
    3 C3        0.9245     2.4337     0.7541 C.ar   1 <0>      -0.0900
    4 C4        0.9083     3.8146     0.7585 C.ar   1 <0>      -0.1000
    5 C5       -0.0595     4.4989     0.0341 C.ar   1 <0>       0.1600
    6 N6       -0.0779     5.8968     0.0363 N.pl3  1 <0>      -0.6400
    7 C7        1.1094     6.6053     0.1281 C.ar   1 <0>       0.3600
    8 C8        1.1002     8.0134     0.2496 C.ar   1 <0>      -0.1100
    9 C9       -0.0806     8.7623     0.2852 C.ar   1 <0>      -0.0900
   10 C10      -0.0097    10.1190     0.4052 C.ar   1 <0>      -0.1000
   11 C11       1.2189    10.7695     0.4924 C.ar   1 <0>      -0.0900
   12 C12       2.3887    10.0702     0.4609 C.ar   1 <0>      -0.1000
   13 C13       2.3525     8.6752     0.3389 C.ar   1 <0>      -0.0400
   14 C14       3.5157     7.8843     0.2994 C.ar   1 <0>       0.0700
   15 C15       4.8774     8.5236     0.3895 C.3    1 <0>      -0.0200
   16 C16       5.2955     8.6134     1.8345 C.ar   1 <0>      -0.0400
   17 C17       4.9781     9.7268     2.5974 C.ar   1 <0>      -0.1700
   18 C18       5.3784     9.7738     3.9193 C.ar   1 <0>       0.1000
   19 N19       6.0544     8.7764     4.4553 N.ar   1 <0>      -0.4900
   20 C20       6.3736     7.7023     3.7600 C.ar   1 <0>       0.1000
   21 C21       6.0018     7.5820     2.4344 C.ar   1 <0>      -0.1600
   22 N22       3.3985     6.5814     0.1833 N.ar   1 <0>      -0.2100
   23 N23       2.2719     5.9765     0.1091 N.ar   1 <0>      -0.3200
   24 C24      -1.0086     3.7916    -0.6928 C.ar   1 <0>      -0.1400
   25 C25      -0.9845     2.4108    -0.6978 C.ar   1 <0>      -0.0900
   26 H26       1.6765     1.9012     1.3174 H      1 <0>       0.1400
   27 H27       1.6473     4.3620     1.3248 H      1 <0>       0.1500
   28 H28      -0.9219     6.3708    -0.0264 H      1 <0>       0.4200
   29 H29      -1.0398     8.2706     0.2178 H      1 <0>       0.1300
   30 H30      -0.9208    10.6983     0.4328 H      1 <0>       0.1400
   31 H31       1.2451    11.8451     0.5860 H      1 <0>       0.1400
   32 H32       3.3346    10.5870     0.5290 H      1 <0>       0.1400
   33 H33       5.5992     7.9201    -0.1608 H      1 <0>       0.1000
   34 H34       4.8380     9.5245    -0.0402 H      1 <0>       0.1000
   35 H35       4.4253    10.5471     2.1639 H      1 <0>       0.1300
   36 H36       5.1351    10.6375     4.5203 H      1 <0>       0.1600
   37 H37       6.9285     6.9057     4.2332 H      1 <0>       0.1600
   38 H38       6.2660     6.6997     1.8703 H      1 <0>       0.1400
   39 H39      -1.7622     4.3210    -1.2569 H      1 <0>       0.1300
   40 H40      -1.7220     1.8604    -1.2630 H      1 <0>       0.1400
@<TRIPOS>BOND
   1    1    2 1
   2    2   25 ar
   3    2    3 ar
   4    3    4 ar
   5    3   26 1
   6    4    5 ar
   7    4   27 1
   8    5    6 1
   9    5   24 ar
  10    6    7 1
  11    6   28 1
  12    7   23 ar
  13    7    8 ar
  14    8   13 ar
  15    8    9 ar
  16    9   10 ar
  17    9   29 1
  18   10   11 ar
  19   10   30 1
  20   11   12 ar
  21   11   31 1
  22   12   13 ar
  23   12   32 1
  24   13   14 ar
  25   14   15 1
  26   14   22 ar
  27   15   16 1
  28   15   33 1
  29   15   34 1
  30   16   21 ar
  31   16   17 ar
  32   17   18 ar
  33   17   35 1
  34   18   19 ar
  35   18   36 1
  36   19   20 ar
  37   20   21 ar
  38   20   37 1
  39   21   38 1
  40   22   23 ar
  41   24   25 ar
  42   24   39 1
  43   25   40 1
