@<TRIPOS>MOLECULE
ZINC000000602799
66    70    1     0     0
SMALL
USER_CHARGES
@<TRIPOS>ATOM
1      C1     -0.1768   -0.9839    4.1290 C.3      1 ZINC000000602799   -0.0800
2      C2     -0.2731   -1.3512    2.6706 C.2      1 ZINC000000602799   -0.1500
3      C3     -0.1493   -2.5940    2.1415 C.2      1 ZINC000000602799    0.1200
4      C4      0.1070   -3.8281    2.9145 C.ar     1 ZINC000000602799   -0.0400
5      C5     -0.7524   -4.9213    2.7927 C.ar     1 ZINC000000602799   -0.0900
6      C6     -0.5098   -6.0703    3.5147 C.ar     1 ZINC000000602799   -0.1400
7      C7      0.5878   -6.1411    4.3623 C.ar     1 ZINC000000602799    0.1100
8      O8      0.8236   -7.2753    5.0723 O.3      1 ZINC000000602799   -0.5000
9      C9      1.4454   -5.0559    4.4859 C.ar     1 ZINC000000602799   -0.1400
10     C10     1.2122   -3.9051    3.7636 C.ar     1 ZINC000000602799   -0.0800
11     N11    -0.2988   -2.5303    0.7757 N.pl3    1 ZINC000000602799   -0.4700
12     C12    -0.2287   -3.6765   -0.1341 C.3      1 ZINC000000602799    0.1500
13     C13     1.2030   -3.9044   -0.5456 C.ar     1 ZINC000000602799   -0.1500
14     C14     1.7344   -3.2033   -1.6123 C.ar     1 ZINC000000602799   -0.0600
15     C15     3.0465   -3.4104   -1.9916 C.ar     1 ZINC000000602799   -0.1500
16     C16     3.8313   -4.3223   -1.3009 C.ar     1 ZINC000000602799    0.1400
17     O17     5.1225   -4.5275   -1.6717 O.3      1 ZINC000000602799   -0.3100
18     C18     5.8711   -5.4812   -0.9153 C.3      1 ZINC000000602799    0.0200
19     C19     7.2914   -5.5754   -1.4762 C.3      1 ZINC000000602799    0.0600
20     N20     7.9840   -4.2960   -1.2730 N.3      1 ZINC000000602799   -0.5300
21     C21     7.8225   -3.8237    0.1080 C.3      1 ZINC000000602799    0.0500
22     C22     8.6733   -2.5698    0.3225 C.3      1 ZINC000000602799   -0.1200
23     C23     8.2313   -1.4843   -0.6629 C.3      1 ZINC000000602799   -0.1200
24     C24     8.3635   -2.0187   -2.0917 C.3      1 ZINC000000602799   -0.1200
25     C25     7.5218   -3.2885   -2.2362 C.3      1 ZINC000000602799    0.0500
26     C26     3.2959   -5.0242   -0.2306 C.ar     1 ZINC000000602799   -0.2100
27     C27     1.9846   -4.8099    0.1477 C.ar     1 ZINC000000602799   -0.0500
28     C28    -0.5255   -1.2245    0.3913 C.ar     1 ZINC000000602799    0.1000
29     C29    -0.7384   -0.6202   -0.8426 C.ar     1 ZINC000000602799   -0.1100
30     C30    -0.9403    0.7405   -0.9182 C.ar     1 ZINC000000602799   -0.1200
31     C31    -0.9343    1.5238    0.2329 C.ar     1 ZINC000000602799    0.0700
32     O32    -1.1353    2.8656    0.1400 O.3      1 ZINC000000602799   -0.5000
33     C33    -0.7256    0.9438    1.4682 C.ar     1 ZINC000000602799   -0.0900
34     C34    -0.5242   -0.4367    1.5579 C.ar     1 ZINC000000602799   -0.0900
35     H35    -1.1648   -1.0452    4.5852 H        1 ZINC000000602799    0.0700
36     H36     0.4997   -1.6738    4.6335 H        1 ZINC000000602799    0.0600
37     H37     0.2045    0.0329    4.2231 H        1 ZINC000000602799    0.0700
38     H38    -1.6065   -4.8668    2.1340 H        1 ZINC000000602799    0.1300
39     H39    -1.1745   -6.9164    3.4213 H        1 ZINC000000602799    0.1300
40     H40     1.3840   -7.9166    4.6143 H        1 ZINC000000602799    0.3900
41     H41     2.2982   -5.1149    5.1459 H        1 ZINC000000602799    0.1300
42     H42     1.8796   -3.0615    3.8602 H        1 ZINC000000602799    0.1300
43     H43    -0.6074   -4.5650    0.3711 H        1 ZINC000000602799    0.1000
44     H44    -0.8335   -3.4759   -1.0185 H        1 ZINC000000602799    0.1000
45     H45     1.1230   -2.4935   -2.1497 H        1 ZINC000000602799    0.1300
46     H46     3.4609   -2.8630   -2.8253 H        1 ZINC000000602799    0.1300
47     H47     5.9123   -5.1662    0.1274 H        1 ZINC000000602799    0.0700
48     H48     5.3889   -6.4565   -0.9814 H        1 ZINC000000602799    0.0700
49     H49     7.8338   -6.3680   -0.9607 H        1 ZINC000000602799    0.1000
50     H50     7.2470   -5.7993   -2.5420 H        1 ZINC000000602799    0.0900
51     H51     6.7743   -3.5870    0.2907 H        1 ZINC000000602799    0.0400
52     H52     8.1443   -4.6033    0.7985 H        1 ZINC000000602799    0.0700
53     H53     8.5410   -2.2105    1.3431 H        1 ZINC000000602799    0.0700
54     H54     9.7232   -2.8091    0.1535 H        1 ZINC000000602799    0.0700
55     H55     7.1925   -1.2171   -0.4686 H        1 ZINC000000602799    0.0600
56     H56     8.8633   -0.6044   -0.5431 H        1 ZINC000000602799    0.0600
57     H57     8.0100   -1.2656   -2.7960 H        1 ZINC000000602799    0.0700
58     H58     9.4085   -2.2493   -2.2987 H        1 ZINC000000602799    0.0700
59     H59     7.6251   -3.6795   -3.2484 H        1 ZINC000000602799    0.0700
60     H60     6.4750   -3.0544   -2.0426 H        1 ZINC000000602799    0.0600
61     H61     3.9047   -5.7349    0.3085 H        1 ZINC000000602799    0.1300
62     H62     1.5674   -5.3558    0.9810 H        1 ZINC000000602799    0.1200
63     H63    -0.7452   -1.2177   -1.7422 H        1 ZINC000000602799    0.1200
64     H64    -1.1045    1.2042   -1.8797 H        1 ZINC000000602799    0.1300
65     H65    -2.0635    3.1295    0.2022 H        1 ZINC000000602799    0.3900
66     H66    -0.7212    1.5525    2.3603 H        1 ZINC000000602799    0.1300
@<TRIPOS>BOND
1     1     2     1
2     1     35    1
3     1     36    1
4     1     37    1
5     2     34    1
6     2     3     2
7     3     4     1
8     3     11    1
9     4     10    ar
10    4     5     ar
11    5     6     ar
12    5     38    1
13    6     7     ar
14    6     39    1
15    7     8     1
16    7     9     ar
17    8     40    1
18    9     10    ar
19    9     41    1
20    10    42    1
21    11    12    1
22    11    28    1
23    12    13    1
24    12    43    1
25    12    44    1
26    13    27    ar
27    13    14    ar
28    14    15    ar
29    14    45    1
30    15    16    ar
31    15    46    1
32    16    17    1
33    16    26    ar
34    17    18    1
35    18    19    1
36    18    47    1
37    18    48    1
38    19    20    1
39    19    49    1
40    19    50    1
41    20    25    1
42    20    21    1
43    21    22    1
44    21    51    1
45    21    52    1
46    22    23    1
47    22    53    1
48    22    54    1
49    23    24    1
50    23    55    1
51    23    56    1
52    24    25    1
53    24    57    1
54    24    58    1
55    25    59    1
56    25    60    1
57    26    27    ar
58    26    61    1
59    27    62    1
60    28    34    ar
61    28    29    ar
62    29    30    ar
63    29    63    1
64    30    31    ar
65    30    64    1
66    31    32    1
67    31    33    ar
68    32    65    1
69    33    34    ar
70    33    66    1
@<TRIPOS>SUBSTRUCTURE
1   ZINC000000602799 1     RESIDUE    1   A     ZIN   1
