@<TRIPOS>MOLECULE
ZINC000002577049
46    49    1     0     0
SMALL
USER_CHARGES
@<TRIPOS>ATOM
1      C1      0.0404    1.5049    0.0575 C.3      1 ZINC000002577049   -0.1500
2      C2      0.0503   -0.0250    0.0375 C.3      1 ZINC000002577049   -0.1400
3      C3      0.7561   -0.5139   -1.2289 C.3      1 ZINC000002577049    0.1000
4      N4      0.7656   -1.9787   -1.2481 N.pl3    1 ZINC000002577049   -0.4700
5      C5      1.7578   -2.7666   -0.7011 C.ar     1 ZINC000002577049    0.1000
6      C6      2.9402   -2.4772   -0.0287 C.ar     1 ZINC000002577049   -0.1200
7      C7      3.7494   -3.5023    0.4120 C.ar     1 ZINC000002577049   -0.1000
8      C8      3.3970   -4.8254    0.1913 C.ar     1 ZINC000002577049   -0.1400
9      C9      2.2295   -5.1324   -0.4735 C.ar     1 ZINC000002577049   -0.0800
10     C10     1.4024   -4.1068   -0.9232 C.ar     1 ZINC000002577049   -0.0700
11     C11     0.1189   -4.0694   -1.6482 C.2      1 ZINC000002577049   -0.2500
12     C12    -0.6638   -5.2225   -2.1104 C.2      1 ZINC000002577049    0.4900
13     O13    -0.5344   -5.6284   -3.2509 O.2      1 ZINC000002577049   -0.4400
14     C14    -1.6068   -5.8891   -1.1930 C.ar     1 ZINC000002577049   -0.1600
15     C15    -2.2970   -7.1133   -1.5929 C.ar     1 ZINC000002577049   -0.0100
16     C16    -2.0894   -7.6931   -2.8502 C.ar     1 ZINC000002577049   -0.1200
17     C17    -2.7537   -8.8361   -3.1829 C.ar     1 ZINC000002577049   -0.1100
18     C18    -3.6374   -9.4361   -2.2890 C.ar     1 ZINC000002577049   -0.1200
19     C19    -3.8630   -8.8989   -1.0585 C.ar     1 ZINC000002577049   -0.1000
20     C20    -3.1946   -7.7213   -0.6812 C.ar     1 ZINC000002577049   -0.0700
21     C21    -3.4000   -7.1365    0.5795 C.ar     1 ZINC000002577049   -0.0700
22     C22    -2.7451   -5.9959    0.9309 C.ar     1 ZINC000002577049   -0.1400
23     C23    -1.8531   -5.3694    0.0715 C.ar     1 ZINC000002577049   -0.0400
24     C24    -0.2009   -2.7502   -1.7999 C.2      1 ZINC000002577049    0.1400
25     C25    -1.4377   -2.2313   -2.4870 C.3      1 ZINC000002577049   -0.1000
26     H26     1.0655    1.8750    0.0470 H        1 ZINC000002577049    0.0600
27     H27    -0.4891    1.8763   -0.8199 H        1 ZINC000002577049    0.0600
28     H28    -0.4624    1.8532    0.9597 H        1 ZINC000002577049    0.0600
29     H29     0.5797   -0.3964    0.9149 H        1 ZINC000002577049    0.0700
30     H30    -0.9749   -0.3951    0.0480 H        1 ZINC000002577049    0.0700
31     H31     0.2266   -0.1424   -2.1063 H        1 ZINC000002577049    0.0900
32     H32     1.7812   -0.1437   -1.2395 H        1 ZINC000002577049    0.0900
33     H33     3.2243   -1.4503    0.1478 H        1 ZINC000002577049    0.1200
34     H34     4.6667   -3.2729    0.9338 H        1 ZINC000002577049    0.1300
35     H35     4.0407   -5.6187    0.5418 H        1 ZINC000002577049    0.1300
36     H36     1.9576   -6.1635   -0.6448 H        1 ZINC000002577049    0.1200
37     H37    -1.4073   -7.2373   -3.5526 H        1 ZINC000002577049    0.1600
38     H38    -2.5927   -9.2823   -4.1531 H        1 ZINC000002577049    0.1300
39     H39    -4.1518  -10.3412   -2.5765 H        1 ZINC000002577049    0.1200
40     H40    -4.5511   -9.3752   -0.3758 H        1 ZINC000002577049    0.1300
41     H41    -4.0847   -7.5963    1.2769 H        1 ZINC000002577049    0.1300
42     H42    -2.9225   -5.5680    1.9065 H        1 ZINC000002577049    0.1300
43     H43    -1.3520   -4.4658    0.3858 H        1 ZINC000002577049    0.1300
44     H44    -2.2413   -2.1262   -1.7580 H        1 ZINC000002577049    0.0900
45     H45    -1.2243   -1.2607   -2.9350 H        1 ZINC000002577049    0.0800
46     H46    -1.7421   -2.9315   -3.2649 H        1 ZINC000002577049    0.0900
@<TRIPOS>BOND
1     1     2     1
2     1     26    1
3     1     27    1
4     1     28    1
5     2     3     1
6     2     29    1
7     2     30    1
8     3     4     1
9     3     31    1
10    3     32    1
11    4     24    1
12    4     5     1
13    5     10    ar
14    5     6     ar
15    6     7     ar
16    6     33    1
17    7     8     ar
18    7     34    1
19    8     9     ar
20    8     35    1
21    9     10    ar
22    9     36    1
23    10    11    1
24    11    12    1
25    11    24    2
26    12    13    2
27    12    14    1
28    14    23    ar
29    14    15    ar
30    15    20    ar
31    15    16    ar
32    16    17    ar
33    16    37    1
34    17    18    ar
35    17    38    1
36    18    19    ar
37    18    39    1
38    19    20    ar
39    19    40    1
40    20    21    ar
41    21    22    ar
42    21    41    1
43    22    23    ar
44    22    42    1
45    23    43    1
46    24    25    1
47    25    44    1
48    25    45    1
49    25    46    1
@<TRIPOS>SUBSTRUCTURE
1   ZINC000002577049 1     RESIDUE    1   A     ZIN   1




