@<TRIPOS>MOLECULE
ZINC000042893657
63    65    1     0     0
SMALL
USER_CHARGES
@<TRIPOS>ATOM
1      C1      1.9169   -1.2204   -0.9827 C.3      1 ZINC000042893657   -0.1900
2      C2      1.1905   -1.8543   -2.1707 C.3      1 ZINC000042893657    0.1300
3      C3      2.1049   -2.8840   -2.8373 C.3      1 ZINC000042893657   -0.1800
4      F4      0.0258   -2.4861   -1.7219 F        1 ZINC000042893657   -0.1900
5      C5      0.8233   -0.7673   -3.1830 C.3      1 ZINC000042893657   -0.1300
6      C6     -0.1469    0.2240   -2.5375 C.3      1 ZINC000042893657    0.0600
7      H7      0.2856    0.6059   -1.6127 H        1 ZINC000042893657    0.1200
8      N8     -1.4155   -0.4548   -2.2411 N.3      1 ZINC000042893657   -0.6300
9      C9     -2.1848    0.2845   -1.2314 C.3      1 ZINC000042893657    0.0900
10     H10    -1.9683    1.3493   -1.3175 H        1 ZINC000042893657    0.1000
11     C11    -3.6573    0.0518   -1.4521 C.ar     1 ZINC000042893657   -0.1000
12     C12    -4.1117   -1.2084   -1.7967 C.ar     1 ZINC000042893657   -0.0800
13     C13    -5.4592   -1.4271   -2.0000 C.ar     1 ZINC000042893657   -0.1000
14     C14    -6.3623   -0.3756   -1.8576 C.ar     1 ZINC000042893657   -0.0500
15     C15    -7.8123   -0.6048   -2.0745 C.ar     1 ZINC000042893657    0.0100
16     C16    -8.2763   -1.8736   -2.4157 C.ar     1 ZINC000042893657   -0.1300
17     C17    -9.6259   -2.0812   -2.6163 C.ar     1 ZINC000042893657   -0.0200
18     C18   -10.5174   -1.0325   -2.4792 C.ar     1 ZINC000042893657   -0.6600
19     S19   -12.2392   -1.3048   -2.7362 S.o2     1 ZINC000042893657    2.5000
20     C20   -12.8745   -1.7614   -1.0996 C.3      1 ZINC000042893657   -0.6500
21     O21   -12.7401   -0.0343   -3.1289 O.2      1 ZINC000042893657   -0.9400
22     O22   -12.2901   -2.4171   -3.6190 O.2      1 ZINC000042893657   -0.9400
23     C23   -10.0623    0.2291   -2.1406 C.ar     1 ZINC000042893657   -0.0200
24     C24    -8.7154    0.4466   -1.9321 C.ar     1 ZINC000042893657   -0.1300
25     C25    -5.8990    0.8918   -1.5104 C.ar     1 ZINC000042893657   -0.1000
26     C26    -4.5500    1.0979   -1.3039 C.ar     1 ZINC000042893657   -0.0900
27     C27    -1.7950   -0.2039    0.1652 C.3      1 ZINC000042893657    0.4600
28     F28    -0.4577    0.1211    0.4165 F        1 ZINC000042893657   -0.1800
29     F29    -2.6119    0.4121    1.1195 F        1 ZINC000042893657   -0.1800
30     F30    -1.9591   -1.5914    0.2367 F        1 ZINC000042893657   -0.1600
31     C31    -0.3992    1.3690   -3.4843 C.2      1 ZINC000042893657    0.4800
32     O32    -1.5249    1.5970   -3.8739 O.2      1 ZINC000042893657   -0.5100
33     N33     0.6262    2.1395   -3.8983 N.am     1 ZINC000042893657   -0.6900
34     C34     0.3810    3.2525   -4.8188 C.3      1 ZINC000042893657    0.1800
35     C35    -0.6859    3.0341   -5.8092 C.1      1 ZINC000042893657    0.2400
36     N36    -1.5092    2.8654   -6.5735 N.1      1 ZINC000042893657   -0.3900
37     C37     0.5614    4.6714   -4.2755 C.3      1 ZINC000042893657   -0.1500
38     C38     1.5861    4.0899   -5.2516 C.3      1 ZINC000042893657   -0.1400
39     H39     2.8491   -0.7706   -1.3248 H        1 ZINC000042893657    0.0700
40     H40     1.2845   -0.4520   -0.5381 H        1 ZINC000042893657    0.0700
41     H41     2.1348   -1.9869   -0.2390 H        1 ZINC000042893657    0.0700
42     H42     2.3665   -3.6584   -2.1161 H        1 ZINC000042893657    0.0700
43     H43     1.5874   -3.3356   -3.6836 H        1 ZINC000042893657    0.0700
44     H44     3.0124   -2.3917   -3.1869 H        1 ZINC000042893657    0.0700
45     H45     1.7258   -0.2417   -3.4950 H        1 ZINC000042893657    0.0900
46     H46     0.3506   -1.2249   -4.0520 H        1 ZINC000042893657    0.0900
47     H47    -1.9578   -0.5906   -3.0810 H        1 ZINC000042893657    0.3700
48     H48    -3.4108   -2.0225   -1.9071 H        1 ZINC000042893657    0.1400
49     H49    -5.8129   -2.4113   -2.2694 H        1 ZINC000042893657    0.1300
50     H50    -7.5810   -2.6930   -2.5233 H        1 ZINC000042893657    0.1400
51     H51    -9.9866   -3.0641   -2.8812 H        1 ZINC000042893657    0.1500
52     H52   -12.6915   -0.9470   -0.3986 H        1 ZINC000042893657    0.1300
53     H53   -13.9460   -1.9502   -1.1655 H        1 ZINC000042893657    0.1300
54     H54   -12.3677   -2.6614   -0.7513 H        1 ZINC000042893657    0.1300
55     H55   -10.7627    1.0444   -2.0352 H        1 ZINC000042893657    0.1500
56     H56    -8.3611    1.4320   -1.6678 H        1 ZINC000042893657    0.1400
57     H57    -6.5947    1.7103   -1.3991 H        1 ZINC000042893657    0.1300
58     H58    -4.1899    2.0798   -1.0344 H        1 ZINC000042893657    0.1300
59     H59     1.5265    1.9571   -3.5867 H        1 ZINC000042893657    0.4100
60     H60    -0.1100    5.4434   -4.6514 H        1 ZINC000042893657    0.1100
61     H61     0.8626    4.7768   -3.2332 H        1 ZINC000042893657    0.1200
62     H62     2.5614    3.8127   -4.8515 H        1 ZINC000042893657    0.1200
63     H63     1.5888    4.4794   -6.2697 H        1 ZINC000042893657    0.1200
@<TRIPOS>BOND
1     1     2     1
2     1     39    1
3     1     40    1
4     1     41    1
5     2     3     1
6     2     4     1
7     2     5     1
8     3     42    1
9     3     43    1
10    3     44    1
11    5     6     1
12    5     45    1
13    5     46    1
14    6     7     1
15    6     8     1
16    6     31    1
17    8     9     1
18    8     47    1
19    9     10    1
20    9     11    1
21    9     27    1
22    11    26    ar
23    11    12    ar
24    12    13    ar
25    12    48    1
26    13    14    ar
27    13    49    1
28    14    15    1
29    14    25    ar
30    15    24    ar
31    15    16    ar
32    16    17    ar
33    16    50    1
34    17    18    ar
35    17    51    1
36    18    19    1
37    18    23    ar
38    19    20    1
39    19    21    2
40    19    22    2
41    20    52    1
42    20    53    1
43    20    54    1
44    23    24    ar
45    23    55    1
46    24    56    1
47    25    26    ar
48    25    57    1
49    26    58    1
50    27    28    1
51    27    29    1
52    27    30    1
53    31    32    2
54    31    33    am
55    33    34    1
56    33    59    1
57    34    38    1
58    34    35    1
59    34    37    1
60    35    36    3
61    37    38    1
62    37    60    1
63    37    61    1
64    38    62    1
65    38    63    1
@<TRIPOS>SUBSTRUCTURE
1   ZINC000042893657 1     RESIDUE    1   A     ZIN   1
