@<TRIPOS>MOLECULE
ZINC000001888932
  35   34    0    0    0
SMALL
USER_CHARGES
NO_NAME
@<TRIPOS>ATOM
    1 N1       -0.0178     1.4648     0.0101 N.3    1 <0>      -0.8300
    2 C2        0.0021    -0.0041     0.0020 C.3    1 <0>       0.0800
    3 H3       -1.0205    -0.3814     0.0098 H      1 <0>       0.1000
    4 C4        0.7182    -0.4975    -1.2568 C.3    1 <0>      -0.1500
    5 C5       -0.0892    -0.0968    -2.4931 C.3    1 <0>      -0.1200
    6 C6        0.6269    -0.5903    -3.7519 C.3    1 <0>      -0.1500
    7 C7       -0.1806    -0.1896    -4.9882 C.3    1 <0>      -0.0100
    8 N8        0.5070    -0.6633    -6.1968 N.4    1 <0>      -0.6400
    9 H9        0.5935    -1.6681    -6.1626 H      1 <0>       0.4400
   10 H10      -0.0255    -0.3991    -7.0121 H      1 <0>       0.4400
   11 H11       1.4254    -0.2483    -6.2458 H      1 <0>       0.4400
   12 C12       0.7309    -0.5033     1.2229 C.2    1 <0>       0.5100
   13 O13       1.4882     0.2322     1.8201 O.2    1 <0>      -0.5400
   14 N14       0.5413    -1.7671     1.6512 N.am   1 <0>      -0.6900
   15 C15       1.2499    -2.2524     2.8380 C.3    1 <0>       0.0700
   16 H16       1.3520    -1.4401     3.5577 H      1 <0>       0.0900
   17 C17       0.4584    -3.3984     3.4714 C.3    1 <0>       0.0900
   18 O18       0.4241    -4.5079     2.5716 O.3    1 <0>      -0.5500
   19 C19       2.6171    -2.7458     2.4401 C.2    1 <0>       0.5000
   20 O20       3.5434    -2.6778     3.2299 O.co2  1 <0>      -0.7000
   21 O21       2.7968    -3.2131     1.3284 O.co2  1 <0>      -0.6800
   22 H22       0.9191     1.8392     0.0032 H      1 <0>       0.3500
   23 H23      -0.5563     1.8234    -0.7642 H      1 <0>       0.3400
   24 H24       1.7103    -0.0491    -1.3098 H      1 <0>       0.0700
   25 H25       0.8116    -1.5829    -1.2198 H      1 <0>       0.0900
   26 H26      -1.0813    -0.5452    -2.4401 H      1 <0>       0.0800
   27 H27      -0.1826     0.9885    -2.5300 H      1 <0>       0.0700
   28 H28       1.6190    -0.1418    -3.8049 H      1 <0>       0.0900
   29 H29       0.7203    -1.6756    -3.7149 H      1 <0>       0.0900
   30 H30      -1.1726    -0.6380    -4.9352 H      1 <0>       0.1300
   31 H31      -0.2739     0.8958    -5.0251 H      1 <0>       0.1300
   32 H32      -0.0643    -2.3553     1.1735 H      1 <0>       0.3900
   33 H33       0.9383    -3.7003     4.4024 H      1 <0>       0.0600
   34 H34      -0.5590    -3.0665     3.6781 H      1 <0>       0.0400
   35 H35      -0.0625    -5.2726     2.9085 H      1 <0>       0.3700
@<TRIPOS>BOND
   1    1    2 1
   2    1   22 1
   3    1   23 1
   4    2    3 1
   5    2    4 1
   6    2   12 1
   7    4    5 1
   8    4   24 1
   9    4   25 1
  10    5    6 1
  11    5   26 1
  12    5   27 1
  13    6    7 1
  14    6   28 1
  15    6   29 1
  16    7    8 1
  17    7   30 1
  18    7   31 1
  19    8    9 1
  20    8   10 1
  21    8   11 1
  22   12   13 2
  23   12   14 am
  24   14   15 1
  25   14   32 1
  26   15   16 1
  27   15   17 1
  28   15   19 1
  29   17   18 1
  30   17   33 1
  31   17   34 1
  32   18   35 1
  33   19   20 ar
  34   19   21 ar
