@<TRIPOS>MOLECULE
ZINC000021290045
51    55    1     0     0
SMALL
USER_CHARGES
@<TRIPOS>ATOM
1      O1      0.0021   -0.0041    0.0020 O.co2    1 ZINC000021290045   -0.7000
2      C2     -0.0145    1.2150    0.0087 C.2      1 ZINC000021290045    0.5000
3      O3      1.0330    1.8389    0.0021 O.co2    1 ZINC000021290045   -0.7000
4      C4     -1.3296    1.9507    0.0190 C.3      1 ZINC000021290045   -0.1600
5      C5     -2.3810    1.1093    0.7479 C.3      1 ZINC000021290045   -0.0900
6      C6     -3.6975    1.8872    0.8084 C.3      1 ZINC000021290045    0.0700
7      N7     -3.4852    3.1570    1.5147 N.3      1 ZINC000021290045   -0.4500
8      C8     -4.6813    3.8262    1.7018 C.ar     1 ZINC000021290045    0.5600
9      N9     -4.6632    5.0015    2.3241 N.ar     1 ZINC000021290045   -0.5900
10     C10    -5.7757    5.6901    2.5325 C.ar     1 ZINC000021290045    0.5000
11     N11    -5.7429    6.9075    3.1785 N.pl3    1 ZINC000021290045   -0.6900
12     C12    -4.4666    7.4554    3.6442 C.3      1 ZINC000021290045    0.1700
13     C13    -4.7045    8.7853    4.3119 C.ar     1 ZINC000021290045   -0.1000
14     C14    -4.6731    9.9475    3.5646 C.ar     1 ZINC000021290045   -0.0900
15     C15    -4.8908   11.1702    4.1726 C.ar     1 ZINC000021290045   -0.1000
16     C16    -5.1407   11.2329    5.5335 C.ar     1 ZINC000021290045    0.0400
17     O17    -5.3824   12.2906    6.3617 O.3      1 ZINC000021290045   -0.3100
18     C18    -5.9656   11.7232    7.5497 C.3      1 ZINC000021290045    0.2100
19     O19    -5.4340   10.3857    7.5866 O.3      1 ZINC000021290045   -0.3100
20     C20    -5.1724   10.0614    6.2867 C.ar     1 ZINC000021290045    0.0300
21     C21    -4.9595    8.8397    5.6699 C.ar     1 ZINC000021290045   -0.0800
22     C22    -7.0004    5.1436    2.0741 C.ar     1 ZINC000021290045   -0.2200
23     C23    -8.2203    5.8047    2.2525 C.ar     1 ZINC000021290045   -0.0400
24     C24    -9.3698    5.2316    1.7902 C.ar     1 ZINC000021290045   -0.0700
25     Cl25  -10.8843    6.0508    2.0108 Cl       1 ZINC000021290045   -0.0700
26     C26    -9.3433    3.9983    1.1432 C.ar     1 ZINC000021290045   -0.0700
27     C27    -8.1705    3.3295    0.9546 C.ar     1 ZINC000021290045   -0.1000
28     C28    -6.9718    3.8896    1.4170 C.ar     1 ZINC000021290045    0.2200
29     N29    -5.7915    3.2742    1.2508 N.ar     1 ZINC000021290045   -0.5900
30     C30    -2.5145    4.0021    0.8076 C.3      1 ZINC000021290045    0.0700
31     C31    -1.1626    3.2873    0.7470 C.3      1 ZINC000021290045   -0.0900
32     H32    -1.6535    2.1321   -1.0059 H        1 ZINC000021290045    0.0600
33     H33    -2.5353    0.1739    0.2099 H        1 ZINC000021290045    0.0800
34     H34    -2.0379    0.8953    1.7601 H        1 ZINC000021290045    0.0600
35     H35    -4.0470    2.0888   -0.2042 H        1 ZINC000021290045    0.0500
36     H36    -4.4442    1.2967    1.3393 H        1 ZINC000021290045    0.0800
37     H37    -6.5649    7.4013    3.3246 H        1 ZINC000021290045    0.4100
38     H38    -4.0141    6.7666    4.3576 H        1 ZINC000021290045    0.0900
39     H39    -3.7972    7.5901    2.7945 H        1 ZINC000021290045    0.0900
40     H40    -4.4776    9.9007    2.5034 H        1 ZINC000021290045    0.1400
41     H41    -4.8658   12.0768    3.5861 H        1 ZINC000021290045    0.1400
42     H42    -5.6567   12.2827    8.4327 H        1 ZINC000021290045    0.1300
43     H43    -7.0525   11.7013    7.4698 H        1 ZINC000021290045    0.0900
44     H44    -4.9894    7.9295    6.2504 H        1 ZINC000021290045    0.1400
45     H45    -8.2525    6.7613    2.7527 H        1 ZINC000021290045    0.1300
46     H46   -10.2659    3.5653    0.7860 H        1 ZINC000021290045    0.1400
47     H47    -8.1651    2.3738    0.4516 H        1 ZINC000021290045    0.1500
48     H48    -2.8696    4.1938   -0.2050 H        1 ZINC000021290045    0.0400
49     H49    -2.4019    4.9477    1.3379 H        1 ZINC000021290045    0.0900
50     H50    -0.8004    3.1076    1.7592 H        1 ZINC000021290045    0.0700
51     H51    -0.4466    3.9081    0.2085 H        1 ZINC000021290045    0.0800
@<TRIPOS>BOND
1     1     2     ar
2     2     3     ar
3     2     4     1
4     4     31    1
5     4     5     1
6     4     32    1
7     5     6     1
8     5     33    1
9     5     34    1
10    6     7     1
11    6     35    1
12    6     36    1
13    7     8     1
14    7     30    1
15    8     29    ar
16    8     9     ar
17    9     10    ar
18    10    11    1
19    10    22    ar
20    11    12    1
21    11    37    1
22    12    13    1
23    12    38    1
24    12    39    1
25    13    21    ar
26    13    14    ar
27    14    15    ar
28    14    40    1
29    15    16    ar
30    15    41    1
31    16    20    ar
32    16    17    1
33    17    18    1
34    18    19    1
35    18    42    1
36    18    43    1
37    19    20    1
38    20    21    ar
39    21    44    1
40    22    28    ar
41    22    23    ar
42    23    24    ar
43    23    45    1
44    24    25    1
45    24    26    ar
46    26    27    ar
47    26    46    1
48    27    28    ar
49    27    47    1
50    28    29    ar
51    30    31    1
52    30    48    1
53    30    49    1
54    31    50    1
55    31    51    1
@<TRIPOS>SUBSTRUCTURE
1   ZINC000021290045 1     RESIDUE    1   A     ZIN   1
