@<TRIPOS>MOLECULE
ZINC000000602086
  46   49    0    0    0
SMALL
USER_CHARGES
NO_NAME
@<TRIPOS>ATOM
    1 C1       -0.0187     1.5258     0.0104 C.3    1 <0>      -0.1700
    2 C2        0.0021    -0.0041     0.0020 C.3    1 <0>       0.0900
    3 H3       -1.0205    -0.3814     0.0098 H      1 <0>       0.1400
    4 N4        0.6878    -0.4765    -1.2033 N.am   1 <0>      -0.5400
    5 C5        1.9836    -0.1303    -1.4198 C.2    1 <0>       0.3900
    6 N6        2.6592    -0.5084    -2.4620 N.2    1 <0>      -0.5200
    7 C7        2.1057    -1.2898    -3.4232 C.ar   1 <0>       0.1700
    8 C8        2.8314    -1.6970    -4.5433 C.ar   1 <0>      -0.1000
    9 C9        2.2287    -2.4913    -5.4953 C.ar   1 <0>       0.0100
   10 Cl10      3.1333    -2.9969    -6.8881 Cl     1 <0>      -0.0500
   11 C11       0.9057    -2.8927    -5.3530 C.ar   1 <0>      -0.1300
   12 C12       0.1697    -2.5026    -4.2559 C.ar   1 <0>      -0.0300
   13 C13       0.7607    -1.6997    -3.2826 C.ar   1 <0>      -0.2000
   14 C14       0.0262    -1.2584    -2.0880 C.2    1 <0>       0.5500
   15 O15      -1.1332    -1.5804    -1.9038 O.2    1 <0>      -0.5000
   16 C16       0.7421    -0.5109     1.2415 C.3    1 <0>       0.1700
   17 O17       2.0438     0.0763     1.2925 O.3    1 <0>      -0.5200
   18 C18       0.8719    -2.0337     1.1708 C.3    1 <0>       0.1400
   19 N19       1.4730    -2.5307     2.4110 N.pl3  1 <0>      -0.3700
   20 C20       0.9699    -3.4703     3.2301 C.2    1 <0>       0.2500
   21 N21       1.8043    -3.6308     4.2249 N.2    1 <0>      -0.5400
   22 C22       2.8471    -2.8148     4.0762 C.2    1 <0>       0.1900
   23 N23       2.6924    -2.1244     2.9771 N.2    1 <0>      -0.2800
   24 C24      -0.0298    -0.1295     2.4784 C.ar   1 <0>      -0.1600
   25 C25       0.5541     0.6788     3.4351 C.ar   1 <0>      -0.0400
   26 C26      -0.1528     1.0299     4.5698 C.ar   1 <0>      -0.1600
   27 C27      -1.4471     0.5719     4.7491 C.ar   1 <0>       0.1400
   28 F28      -2.1379     0.9156     5.8581 F      1 <0>      -0.1200
   29 C29      -2.0331    -0.2379     3.7913 C.ar   1 <0>      -0.1900
   30 C30      -1.3262    -0.5844     2.6531 C.ar   1 <0>       0.1400
   31 F31      -1.8968    -1.3747     1.7176 F      1 <0>      -0.1200
   32 H32       1.0039     1.9031     0.0027 H      1 <0>       0.0700
   33 H33      -0.5459     1.8868    -0.8726 H      1 <0>       0.0800
   34 H34      -0.5289     1.8773     0.9072 H      1 <0>       0.0900
   35 H35       2.4768     0.4918    -0.6876 H      1 <0>       0.2100
   36 H36       3.8601    -1.3910    -4.6641 H      1 <0>       0.1500
   37 H37       0.4508    -3.5153    -6.1091 H      1 <0>       0.1500
   38 H38      -0.8581    -2.8172    -4.1508 H      1 <0>       0.1500
   39 H39       2.0381     1.0422     1.3386 H      1 <0>       0.3800
   40 H40      -0.1156    -2.4770     1.0426 H      1 <0>       0.1200
   41 H41       1.5047    -2.3056     0.3260 H      1 <0>       0.1000
   42 H42       0.0389    -3.9999     3.0915 H      1 <0>       0.2100
   43 H43       3.6861    -2.7391     4.7520 H      1 <0>       0.2200
   44 H44       1.5638     1.0363     3.2962 H      1 <0>       0.1500
   45 H45       0.3047     1.6614     5.3170 H      1 <0>       0.1500
   46 H46      -3.0426    -0.5956     3.9304 H      1 <0>       0.1500
@<TRIPOS>BOND
   1    1    2 1
   2    1   32 1
   3    1   33 1
   4    1   34 1
   5    2    3 1
   6    2    4 1
   7    2   16 1
   8    4   14 am
   9    4    5 1
  10    5    6 2
  11    5   35 1
  12    6    7 1
  13    7   13 ar
  14    7    8 ar
  15    8    9 ar
  16    8   36 1
  17    9   10 1
  18    9   11 ar
  19   11   12 ar
  20   11   37 1
  21   12   13 ar
  22   12   38 1
  23   13   14 1
  24   14   15 2
  25   16   17 1
  26   16   18 1
  27   16   24 1
  28   17   39 1
  29   18   19 1
  30   18   40 1
  31   18   41 1
  32   19   23 1
  33   19   20 1
  34   20   21 2
  35   20   42 1
  36   21   22 1
  37   22   23 2
  38   22   43 1
  39   24   30 ar
  40   24   25 ar
  41   25   26 ar
  42   25   44 1
  43   26   27 ar
  44   26   45 1
  45   27   28 1
  46   27   29 ar
  47   29   30 ar
  48   29   46 1
  49   30   31 1
