@<TRIPOS>MOLECULE
ZINC000003803180
26    28    1     0     0
SMALL
USER_CHARGES
@<TRIPOS>ATOM
1      O1      0.0021   -0.0041    0.0020 O.2      1 ZINC000003803180   -0.5500
2      C2     -0.0144    1.2081    0.0087 C.2      1 ZINC000003803180    0.5000
3      C3     -1.2346    2.1071    0.0318 C.3      1 ZINC000003803180    0.0200
4      N4     -0.6641    3.4653    0.0313 N.am     1 ZINC000003803180   -0.9600
5      S5     -1.5051    4.8917    0.0528 S.o2     1 ZINC000003803180    2.7000
6      O6     -0.6407    5.8754   -0.4990 O.2      1 ZINC000003803180   -0.8900
7      O7     -2.7936    4.6059   -0.4738 O.2      1 ZINC000003803180   -0.9300
8      C8     -1.7442    5.3308    1.7424 C.2      1 ZINC000003803180   -0.4600
9      C9     -2.3910    6.4255    2.1666 C.2      1 ZINC000003803180   -0.0800
10     Br10   -3.1985    7.7555    1.0920 Br       1 ZINC000003803180    0.0200
11     C11    -2.3471    6.3837    3.6336 C.ar     1 ZINC000003803180   -0.1300
12     C12    -2.8272    7.2120    4.6465 C.ar     1 ZINC000003803180   -0.0600
13     C13    -2.6080    6.8735    5.9637 C.ar     1 ZINC000003803180   -0.1300
14     C14    -1.9134    5.7156    6.2819 C.ar     1 ZINC000003803180   -0.0800
15     C15    -1.4330    4.8880    5.2895 C.ar     1 ZINC000003803180   -0.1100
16     C16    -1.6439    5.2104    3.9551 C.ar     1 ZINC000003803180    0.0800
17     O17    -1.3093    4.6132    2.7935 O.3      1 ZINC000003803180   -0.1200
18     C18     0.6732    3.3209    0.0108 C.2      1 ZINC000003803180    0.6600
19     O19     1.4534    4.2528    0.0048 O.2      1 ZINC000003803180   -0.5600
20     N20     1.0485    2.0367    0.0030 N.pl3    1 ZINC000003803180   -0.6900
21     H21    -1.8455    1.9475   -0.8567 H        1 ZINC000003803180    0.1100
22     H22    -1.8191    1.9370    0.9360 H        1 ZINC000003803180    0.1000
23     H23    -3.3675    8.1141    4.4002 H        1 ZINC000003803180    0.1400
24     H24    -2.9781    7.5123    6.7519 H        1 ZINC000003803180    0.1400
25     H25    -1.7469    5.4600    7.3179 H        1 ZINC000003803180    0.1400
26     H26    -0.8933    3.9894    5.5495 H        1 ZINC000003803180    0.1400
@<TRIPOS>BOND
1     1     2     2
2     2     20    1
3     2     3     1
4     3     4     1
5     3     21    1
6     3     22    1
7     4     5     am
8     4     18    am
9     5     6     2
10    5     7     2
11    5     8     1
12    8     17    1
13    8     9     2
14    9     10    1
15    9     11    1
16    11    16    ar
17    11    12    ar
18    12    13    ar
19    12    23    1
20    13    14    ar
21    13    24    1
22    14    15    ar
23    14    25    1
24    15    16    ar
25    15    26    1
26    16    17    1
27    18    19    2
28    18    20    1
@<TRIPOS>SUBSTRUCTURE
1   ZINC000003803180 1     RESIDUE    1   A     ZIN   1
