@<TRIPOS>MOLECULE
ZINC000095561192
88    93    1     0     0
SMALL
USER_CHARGES
@<TRIPOS>ATOM
1      C1     -6.9088   -9.3001   11.2238 C.3      1 ZINC000095561192   -0.1800
2      C2     -5.4722   -9.5865   10.7822 C.3      1 ZINC000095561192    0.0700
3      C3     -5.1715  -11.0761   10.9595 C.3      1 ZINC000095561192   -0.1500
4      O4     -5.3164   -9.2294    9.4073 O.3      1 ZINC000095561192   -0.3100
5      C5     -5.0592   -7.9238    9.1345 C.ar     1 ZINC000095561192    0.1400
6      C6     -4.8731   -7.0224   10.1745 C.ar     1 ZINC000095561192   -0.2100
7      C7     -4.6116   -5.6969    9.9013 C.ar     1 ZINC000095561192   -0.0600
8      C8     -4.5339   -5.2612    8.5782 C.ar     1 ZINC000095561192   -0.0900
9      C9     -4.2525   -3.8378    8.2808 C.ar     1 ZINC000095561192    0.0200
10     C10    -5.0765   -2.8392    8.7926 C.ar     1 ZINC000095561192   -0.1100
11     C11    -4.8108   -1.5138    8.5129 C.ar     1 ZINC000095561192   -0.0900
12     C12    -3.7265   -1.1668    7.7240 C.ar     1 ZINC000095561192   -0.1200
13     C13    -2.8984   -2.1413    7.2071 C.ar     1 ZINC000095561192   -0.0900
14     C14    -3.1473   -3.4861    7.4840 C.ar     1 ZINC000095561192   -0.1300
15     C15    -2.2652   -4.5330    6.9340 C.2      1 ZINC000095561192    0.5500
16     O16    -2.0286   -5.5321    7.5850 O.2      1 ZINC000095561192   -0.4400
17     N17    -1.7217   -4.3817    5.7100 N.am     1 ZINC000095561192   -0.6600
18     C18    -0.9738   -5.4097    5.1503 C.ar     1 ZINC000095561192    0.4000
19     C19    -0.3211   -5.1941    3.9289 C.ar     1 ZINC000095561192   -0.2000
20     C20     0.4161   -6.1935    3.3682 C.ar     1 ZINC000095561192   -0.0200
21     C21     0.4963   -7.4271    4.0481 C.ar     1 ZINC000095561192   -0.1400
22     C22     1.2378   -8.4943    3.5260 C.ar     1 ZINC000095561192   -0.0100
23     C23     1.2931   -9.6913    4.2237 C.ar     1 ZINC000095561192   -0.1500
24     C24     2.0726  -10.8222    3.6808 C.2      1 ZINC000095561192    0.5700
25     O25     2.6633  -10.7020    2.6251 O.2      1 ZINC000095561192   -0.5300
26     N26     2.1290  -11.9874    4.3558 N.am     1 ZINC000095561192   -0.7100
27     C27     2.9021  -13.1092    3.8173 C.3      1 ZINC000095561192    0.1700
28     H28     2.8324  -13.1095    2.7295 H        1 ZINC000095561192    0.1200
29     C29     2.3509  -14.4039    4.3565 C.2      1 ZINC000095561192    0.5200
30     O30     1.6456  -14.3986    5.3431 O.2      1 ZINC000095561192   -0.5300
31     N31     2.6416  -15.5678    3.7422 N.am     1 ZINC000095561192   -0.6000
32     C32     3.5810  -15.5882    2.6182 C.3      1 ZINC000095561192    0.0700
33     C33     2.0184  -16.8126    4.1986 C.3      1 ZINC000095561192    0.1600
34     C34     0.7280  -17.0316    3.4516 C.ar     1 ZINC000095561192   -0.1200
35     C35    -0.4550  -16.5204    3.9518 C.ar     1 ZINC000095561192   -0.0700
36     C36    -1.6389  -16.7205    3.2676 C.ar     1 ZINC000095561192   -0.1600
37     C37    -1.6399  -17.4331    2.0804 C.ar     1 ZINC000095561192    0.1000
38     F38    -2.7966  -17.6290    1.4105 F        1 ZINC000095561192   -0.1400
39     C39    -0.4543  -17.9442    1.5801 C.ar     1 ZINC000095561192   -0.1600
40     C40     0.7291  -17.7387    2.2636 C.ar     1 ZINC000095561192   -0.0800
41     C41     4.3452  -12.9678    4.2281 C.ar     1 ZINC000095561192   -0.1000
42     C42     4.6645  -12.6736    5.5405 C.ar     1 ZINC000095561192   -0.1000
43     C43     5.9882  -12.5440    5.9173 C.ar     1 ZINC000095561192   -0.1200
44     C44     6.9925  -12.7089    4.9819 C.ar     1 ZINC000095561192   -0.1100
45     C45     6.6731  -13.0040    3.6697 C.ar     1 ZINC000095561192   -0.1200
46     C46     5.3496  -13.1379    3.2938 C.ar     1 ZINC000095561192   -0.1000
47     C47     0.6117   -9.8344    5.4454 C.ar     1 ZINC000095561192   -0.0700
48     C48    -0.1113   -8.8098    5.9642 C.ar     1 ZINC000095561192   -0.1000
49     C49    -0.1875   -7.5817    5.2804 C.ar     1 ZINC000095561192    0.1800
50     N50    -0.8907   -6.5624    5.7830 N.ar     1 ZINC000095561192   -0.4700
51     C51    -4.7213   -6.1694    7.5360 C.ar     1 ZINC000095561192   -0.0400
52     C52    -4.9773   -7.4945    7.8163 C.ar     1 ZINC000095561192   -0.1500
53     H53    -7.5992   -9.8850   10.6160 H        1 ZINC000095561192    0.0700
54     H54    -7.0277   -9.5724   12.2725 H        1 ZINC000095561192    0.0700
55     H55    -7.1231   -8.2388   11.0974 H        1 ZINC000095561192    0.0600
56     H56    -4.7818   -9.0016   11.3899 H        1 ZINC000095561192    0.0700
57     H57    -5.8619  -11.6610   10.3517 H        1 ZINC000095561192    0.0700
58     H58    -4.1480  -11.2802   10.6449 H        1 ZINC000095561192    0.0700
59     H59    -5.2904  -11.3485   12.0082 H        1 ZINC000095561192    0.0800
60     H60    -4.9338   -7.3603   11.1985 H        1 ZINC000095561192    0.1300
61     H61    -4.4673   -4.9963   10.7105 H        1 ZINC000095561192    0.1200
62     H62    -5.9242   -3.1016    9.4083 H        1 ZINC000095561192    0.1300
63     H63    -5.4528   -0.7423    8.9117 H        1 ZINC000095561192    0.1300
64     H64    -3.5284   -0.1265    7.5119 H        1 ZINC000095561192    0.1300
65     H65    -2.0553   -1.8634    6.5921 H        1 ZINC000095561192    0.1300
66     H66    -1.8529   -3.5549    5.2199 H        1 ZINC000095561192    0.4200
67     H67    -0.4026   -4.2381    3.4331 H        1 ZINC000095561192    0.1400
68     H68     0.9255   -6.0453    2.4275 H        1 ZINC000095561192    0.1500
69     H69     1.7617   -8.3860    2.5878 H        1 ZINC000095561192    0.1500
70     H70     1.6576  -12.0832    5.1981 H        1 ZINC000095561192    0.4100
71     H71     4.5825  -15.8121    2.9857 H        1 ZINC000095561192    0.0700
72     H72     3.2765  -16.3533    1.9041 H        1 ZINC000095561192    0.0800
73     H73     3.5829  -14.6144    2.1286 H        1 ZINC000095561192    0.0800
74     H74     2.6935  -17.6474    4.0102 H        1 ZINC000095561192    0.0900
75     H75     1.8128  -16.7456    5.2670 H        1 ZINC000095561192    0.1000
76     H76    -0.4541  -15.9646    4.8779 H        1 ZINC000095561192    0.1400
77     H77    -2.5631  -16.3217    3.6590 H        1 ZINC000095561192    0.1400
78     H78    -0.4539  -18.5004    0.6544 H        1 ZINC000095561192    0.1400
79     H79     1.6540  -18.1370    1.8734 H        1 ZINC000095561192    0.1300
80     H80     3.8799  -12.5448    6.2713 H        1 ZINC000095561192    0.1200
81     H81     6.2377  -12.3134    6.9425 H        1 ZINC000095561192    0.1200
82     H82     8.0266  -12.6069    5.2762 H        1 ZINC000095561192    0.1200
83     H83     7.4578  -13.1325    2.9388 H        1 ZINC000095561192    0.1300
84     H84     5.1001  -13.3684    2.2686 H        1 ZINC000095561192    0.1300
85     H85     0.6641  -10.7726    5.9779 H        1 ZINC000095561192    0.1300
86     H86    -0.6292   -8.9368    6.9034 H        1 ZINC000095561192    0.1400
87     H87    -4.6622   -5.8353    6.5106 H        1 ZINC000095561192    0.1200
88     H88    -5.1222   -8.1982    7.0099 H        1 ZINC000095561192    0.1300
@<TRIPOS>BOND
1     1     2     1
2     1     53    1
3     1     54    1
4     1     55    1
5     2     3     1
6     2     4     1
7     2     56    1
8     3     57    1
9     3     58    1
10    3     59    1
11    4     5     1
12    5     52    ar
13    5     6     ar
14    6     7     ar
15    6     60    1
16    7     8     ar
17    7     61    1
18    8     9     1
19    8     51    ar
20    9     14    ar
21    9     10    ar
22    10    11    ar
23    10    62    1
24    11    12    ar
25    11    63    1
26    12    13    ar
27    12    64    1
28    13    14    ar
29    13    65    1
30    14    15    1
31    15    16    2
32    15    17    am
33    17    18    1
34    17    66    1
35    18    50    ar
36    18    19    ar
37    19    20    ar
38    19    67    1
39    20    21    ar
40    20    68    1
41    21    49    ar
42    21    22    ar
43    22    23    ar
44    22    69    1
45    23    24    1
46    23    47    ar
47    24    25    2
48    24    26    am
49    26    27    1
50    26    70    1
51    27    28    1
52    27    29    1
53    27    41    1
54    29    30    2
55    29    31    am
56    31    32    1
57    31    33    1
58    32    71    1
59    32    72    1
60    32    73    1
61    33    34    1
62    33    74    1
63    33    75    1
64    34    40    ar
65    34    35    ar
66    35    36    ar
67    35    76    1
68    36    37    ar
69    36    77    1
70    37    38    1
71    37    39    ar
72    39    40    ar
73    39    78    1
74    40    79    1
75    41    46    ar
76    41    42    ar
77    42    43    ar
78    42    80    1
79    43    44    ar
80    43    81    1
81    44    45    ar
82    44    82    1
83    45    46    ar
84    45    83    1
85    46    84    1
86    47    48    ar
87    47    85    1
88    48    49    ar
89    48    86    1
90    49    50    ar
91    51    52    ar
92    51    87    1
93    52    88    1
@<TRIPOS>SUBSTRUCTURE
1   ZINC000095561192 1     RESIDUE    1   A     ZIN   1
