@<TRIPOS>MOLECULE
ZINC000206792055
76    80    1     0     0
SMALL
USER_CHARGES
@<TRIPOS>ATOM
1      C1      0.4686   -0.0829    1.8684 C.3      1 ZINC000206792055    0.0300
2      N2      0.0893   -1.3613    1.2520 N.3      1 ZINC000206792055   -0.6700
3      C3      0.9760   -1.6869    0.1270 C.3      1 ZINC000206792055    0.0700
4      H4      1.2611   -0.7696   -0.3882 H        1 ZINC000206792055    0.1100
5      C5      2.2304   -2.3877    0.6526 C.3      1 ZINC000206792055   -0.1800
6      C6      0.2558   -2.5989   -0.8325 C.2      1 ZINC000206792055    0.5200
7      O7     -0.8838   -2.9437   -0.6019 O.2      1 ZINC000206792055   -0.5100
8      N8      0.8783   -3.0314   -1.9470 N.am     1 ZINC000206792055   -0.7200
9      C9      0.1782   -3.9180   -2.8798 C.3      1 ZINC000206792055    0.1400
10     H10    -0.4751   -4.5891   -2.3222 H        1 ZINC000206792055    0.1100
11     C11     1.1854   -4.7271   -3.6556 C.2      1 ZINC000206792055    0.5400
12     O12     2.2097   -4.2076   -4.0454 O.2      1 ZINC000206792055   -0.5100
13     N13     0.9479   -6.0279   -3.9163 N.am     1 ZINC000206792055   -0.6000
14     C14    -0.2908   -6.7574   -3.5897 C.3      1 ZINC000206792055    0.0900
15     C15    -0.3305   -7.9394   -4.5902 C.3      1 ZINC000206792055   -0.1300
16     C16     1.1709   -8.3200   -4.6823 C.3      1 ZINC000206792055   -0.1300
17     C17     1.8789   -6.9528   -4.5792 C.3      1 ZINC000206792055    0.1300
18     H18     2.7858   -7.0490   -3.9824 H        1 ZINC000206792055    0.1100
19     C19     2.2234   -6.4489   -5.9571 C.2      1 ZINC000206792055    0.5000
20     O20     1.7487   -5.4073   -6.3582 O.2      1 ZINC000206792055   -0.4700
21     N21     3.0591   -7.1557   -6.7436 N.am     1 ZINC000206792055   -0.6200
22     C22     3.3770   -6.6907   -8.0151 C.2      1 ZINC000206792055    0.0300
23     C23     4.2045   -7.3097   -8.9155 C.2      1 ZINC000206792055    0.0500
24     C24     4.8800   -8.5958   -8.6238 C.ar     1 ZINC000206792055   -0.0100
25     C25     5.3147   -8.8804   -7.3296 C.ar     1 ZINC000206792055   -0.1300
26     C26     5.9428  -10.0800   -7.0639 C.ar     1 ZINC000206792055   -0.1100
27     C27     6.1414  -10.9995   -8.0783 C.ar     1 ZINC000206792055   -0.1100
28     C28     5.7128  -10.7226   -9.3643 C.ar     1 ZINC000206792055   -0.1100
29     C29     5.0784   -9.5289   -9.6410 C.ar     1 ZINC000206792055   -0.0800
30     N30     4.3535   -6.6744  -10.0610 N.2      1 ZINC000206792055   -0.3800
31     C31     3.7117   -5.5523  -10.2079 C.2      1 ZINC000206792055    0.0600
32     C32     3.7525   -4.7047  -11.4088 C.2      1 ZINC000206792055    0.2600
33     N33     4.4341   -4.9571  -12.5047 N.2      1 ZINC000206792055   -0.4300
34     C34     4.2251   -3.9616  -13.3780 C.2      1 ZINC000206792055   -0.0400
35     C35     3.3927   -3.0743  -12.8021 C.2      1 ZINC000206792055   -0.0600
36     O36     3.0942   -3.5428  -11.5739 O.3      1 ZINC000206792055   -0.1900
37     S37     2.7808   -5.2062   -8.7541 S.3      1 ZINC000206792055    0.2800
38     C38    -0.6585   -3.0804   -3.8489 C.3      1 ZINC000206792055   -0.0900
39     C39    -1.4281   -4.0080   -4.7913 C.3      1 ZINC000206792055   -0.1200
40     C40    -2.2649   -3.1704   -5.7604 C.3      1 ZINC000206792055   -0.1100
41     C41    -3.2541   -2.3119   -4.9696 C.3      1 ZINC000206792055   -0.1200
42     C42    -2.4845   -1.3843   -4.0271 C.3      1 ZINC000206792055   -0.1200
43     C43    -1.6478   -2.2220   -3.0580 C.3      1 ZINC000206792055   -0.1000
44     H44     1.4922   -0.1471    2.2374 H        1 ZINC000206792055    0.0200
45     H45     0.3989    0.7128    1.1268 H        1 ZINC000206792055    0.0700
46     H46    -0.2039    0.1339    2.6984 H        1 ZINC000206792055    0.0700
47     H47     0.0835   -2.1043    1.9347 H        1 ZINC000206792055    0.3500
48     H48     1.9453   -3.3050    1.1678 H        1 ZINC000206792055    0.0600
49     H49     2.8883   -2.6293   -0.1822 H        1 ZINC000206792055    0.0700
50     H50     2.7513   -1.7281    1.3466 H        1 ZINC000206792055    0.0700
51     H51     1.7898   -2.7557   -2.1314 H        1 ZINC000206792055    0.4100
52     H52    -0.2538   -7.1284   -2.5655 H        1 ZINC000206792055    0.0800
53     H53    -1.1587   -6.1129   -3.7295 H        1 ZINC000206792055    0.0900
54     H54    -0.9197   -8.7666   -4.1945 H        1 ZINC000206792055    0.1000
55     H55    -0.7122   -7.6183   -5.5594 H        1 ZINC000206792055    0.0800
56     H56     1.4556   -8.9692   -3.8543 H        1 ZINC000206792055    0.1000
57     H57     1.3905   -8.7943   -5.6388 H        1 ZINC000206792055    0.0900
58     H58     3.4387   -7.9887   -6.4228 H        1 ZINC000206792055    0.4200
59     H59     5.1605   -8.1632   -6.5370 H        1 ZINC000206792055    0.1200
60     H60     6.2802  -10.3014   -6.0622 H        1 ZINC000206792055    0.1300
61     H61     6.6335  -11.9371   -7.8656 H        1 ZINC000206792055    0.1300
62     H62     5.8713  -11.4441  -10.1522 H        1 ZINC000206792055    0.1300
63     H63     4.7439   -9.3140  -10.6452 H        1 ZINC000206792055    0.1300
64     H64     4.6497   -3.8849  -14.3681 H        1 ZINC000206792055    0.1900
65     H65     3.0283   -2.1586  -13.2438 H        1 ZINC000206792055    0.2300
66     H66    -0.0016   -2.4343   -4.4313 H        1 ZINC000206792055    0.0800
67     H67    -0.7234   -4.6195   -5.3547 H        1 ZINC000206792055    0.0700
68     H68    -2.0850   -4.6540   -4.2089 H        1 ZINC000206792055    0.0600
69     H69    -1.6080   -2.5243   -6.3429 H        1 ZINC000206792055    0.0600
70     H70    -2.8131   -3.8312   -6.4318 H        1 ZINC000206792055    0.0600
71     H71    -3.8502   -1.7152   -5.6600 H        1 ZINC000206792055    0.0600
72     H72    -3.9110   -2.9580   -4.3871 H        1 ZINC000206792055    0.0600
73     H73    -1.8276   -0.7383   -4.6096 H        1 ZINC000206792055    0.0600
74     H74    -3.1892   -0.7728   -3.4637 H        1 ZINC000206792055    0.0600
75     H75    -2.3047   -2.8680   -2.4756 H        1 ZINC000206792055    0.0700
76     H76    -1.0995   -1.5611   -2.3866 H        1 ZINC000206792055    0.0600
@<TRIPOS>BOND
1     1     2     1
2     1     44    1
3     1     45    1
4     1     46    1
5     2     3     1
6     2     47    1
7     3     4     1
8     3     5     1
9     3     6     1
10    5     48    1
11    5     49    1
12    5     50    1
13    6     7     2
14    6     8     am
15    8     9     1
16    8     51    1
17    9     10    1
18    9     11    1
19    9     38    1
20    11    12    2
21    11    13    am
22    13    17    1
23    13    14    1
24    14    15    1
25    14    52    1
26    14    53    1
27    15    16    1
28    15    54    1
29    15    55    1
30    16    17    1
31    16    56    1
32    16    57    1
33    17    18    1
34    17    19    1
35    19    20    2
36    19    21    am
37    21    22    1
38    21    58    1
39    22    37    1
40    22    23    2
41    23    24    1
42    23    30    1
43    24    29    ar
44    24    25    ar
45    25    26    ar
46    25    59    1
47    26    27    ar
48    26    60    1
49    27    28    ar
50    27    61    1
51    28    29    ar
52    28    62    1
53    29    63    1
54    30    31    2
55    31    32    1
56    31    37    1
57    32    36    1
58    32    33    2
59    33    34    1
60    34    35    2
61    34    64    1
62    35    36    1
63    35    65    1
64    38    43    1
65    38    39    1
66    38    66    1
67    39    40    1
68    39    67    1
69    39    68    1
70    40    41    1
71    40    69    1
72    40    70    1
73    41    42    1
74    41    71    1
75    41    72    1
76    42    43    1
77    42    73    1
78    42    74    1
79    43    75    1
80    43    76    1
@<TRIPOS>SUBSTRUCTURE
1   ZINC000206792055 1     RESIDUE    1   A     ZIN   1
