@<TRIPOS>MOLECULE
ZINC000000005936
49    51    1     0     0
SMALL
USER_CHARGES
@<TRIPOS>ATOM
1      C1     -0.3001    1.2005    0.4931 C.3      1 ZINC000000005936   -0.1600
2      C2      0.1544   -0.1985    0.0721 C.3      1 ZINC000000005936    0.0600
3      H3     -0.7129   -0.8542   -0.0056 H        1 ZINC000000005936    0.0500
4      C4      0.8573   -0.1197   -1.2845 C.3      1 ZINC000000005936    0.1500
5      H5      1.1628   -1.1191   -1.5941 H        1 ZINC000000005936    0.1100
6      O6     -0.0389    0.4263   -2.2544 O.3      1 ZINC000000005936   -0.5500
7      C7      2.0726    0.7641   -1.1699 C.ar     1 ZINC000000005936   -0.1000
8      C8      1.9460    2.1335   -1.3122 C.ar     1 ZINC000000005936   -0.1000
9      C9      3.0585    2.9458   -1.2076 C.ar     1 ZINC000000005936   -0.1400
10     C10     4.3035    2.3864   -0.9591 C.ar     1 ZINC000000005936    0.1000
11     O11     5.3994    3.1834   -0.8553 O.3      1 ZINC000000005936   -0.5000
12     C12     4.4278    1.0121   -0.8163 C.ar     1 ZINC000000005936   -0.1400
13     C13     3.3115    0.2046   -0.9170 C.ar     1 ZINC000000005936   -0.0800
14     N14     1.0845   -0.7338    1.0752 N.3      1 ZINC000000005936   -0.5200
15     C15     1.5932   -2.0508    0.6714 C.3      1 ZINC000000005936    0.0500
16     C16     2.6648   -2.5110    1.6623 C.3      1 ZINC000000005936   -0.1000
17     C17     2.0568   -2.5863    3.0656 C.3      1 ZINC000000005936    0.1800
18     O18     1.0071   -3.5559    3.0798 O.3      1 ZINC000000005936   -0.5500
19     C19     3.1219   -2.9827    4.0553 C.ar     1 ZINC000000005936   -0.1100
20     C20     4.4387   -2.6252    3.8338 C.ar     1 ZINC000000005936   -0.1100
21     C21     5.4157   -2.9887    4.7417 C.ar     1 ZINC000000005936   -0.1200
22     C22     5.0757   -3.7094    5.8713 C.ar     1 ZINC000000005936   -0.1200
23     C23     3.7588   -4.0661    6.0933 C.ar     1 ZINC000000005936   -0.1200
24     C24     2.7812   -3.6989    5.1875 C.ar     1 ZINC000000005936   -0.1100
25     C25     1.4912   -1.2143    3.4426 C.3      1 ZINC000000005936   -0.1300
26     C26     0.4536   -0.7917    2.4000 C.3      1 ZINC000000005936    0.0600
27     H27     0.5672    1.8561    0.5709 H        1 ZINC000000005936    0.0700
28     H28    -0.9902    1.5976   -0.2512 H        1 ZINC000000005936    0.0600
29     H29    -0.8009    1.1443    1.4596 H        1 ZINC000000005936    0.0600
30     H30    -0.3523    1.3165   -2.0432 H        1 ZINC000000005936    0.3700
31     H31     0.9766    2.5686   -1.5057 H        1 ZINC000000005936    0.1200
32     H32     2.9592    4.0154   -1.3196 H        1 ZINC000000005936    0.1300
33     H33     5.5779    3.4915    0.0437 H        1 ZINC000000005936    0.3900
34     H34     5.3960    0.5741   -0.6231 H        1 ZINC000000005936    0.1300
35     H35     3.4077   -0.8654   -0.8055 H        1 ZINC000000005936    0.1200
36     H36     0.7739   -2.7696    0.6628 H        1 ZINC000000005936    0.0500
37     H37     2.0266   -1.9824   -0.3264 H        1 ZINC000000005936    0.0800
38     H38     3.0311   -3.4955    1.3711 H        1 ZINC000000005936    0.0800
39     H39     3.4909   -1.7998    1.6613 H        1 ZINC000000005936    0.0900
40     H40     0.5761   -3.6563    3.9396 H        1 ZINC000000005936    0.3700
41     H41     4.7043   -2.0621    2.9513 H        1 ZINC000000005936    0.1300
42     H42     6.4446   -2.7100    4.5683 H        1 ZINC000000005936    0.1200
43     H43     5.8391   -3.9941    6.5802 H        1 ZINC000000005936    0.1200
44     H44     3.4933   -4.6295    6.9756 H        1 ZINC000000005936    0.1200
45     H45     1.7523   -3.9775    5.3610 H        1 ZINC000000005936    0.1200
46     H46     1.0190   -1.2722    4.4232 H        1 ZINC000000005936    0.0700
47     H47     2.2988   -0.4827    3.4696 H        1 ZINC000000005936    0.0800
48     H48     0.0594    0.1913    2.6577 H        1 ZINC000000005936    0.0800
49     H49    -0.3604   -1.5163    2.3833 H        1 ZINC000000005936    0.0400
@<TRIPOS>BOND
1     1     2     1
2     1     27    1
3     1     28    1
4     1     29    1
5     2     3     1
6     2     4     1
7     2     14    1
8     4     5     1
9     4     6     1
10    4     7     1
11    6     30    1
12    7     13    ar
13    7     8     ar
14    8     9     ar
15    8     31    1
16    9     10    ar
17    9     32    1
18    10    11    1
19    10    12    ar
20    11    33    1
21    12    13    ar
22    12    34    1
23    13    35    1
24    14    26    1
25    14    15    1
26    15    16    1
27    15    36    1
28    15    37    1
29    16    17    1
30    16    38    1
31    16    39    1
32    17    18    1
33    17    19    1
34    17    25    1
35    18    40    1
36    19    24    ar
37    19    20    ar
38    20    21    ar
39    20    41    1
40    21    22    ar
41    21    42    1
42    22    23    ar
43    22    43    1
44    23    24    ar
45    23    44    1
46    24    45    1
47    25    26    1
48    25    46    1
49    25    47    1
50    26    48    1
51    26    49    1
@<TRIPOS>SUBSTRUCTURE
1   ZINC000000005936 1     RESIDUE    1   A     ZIN   1
