@<TRIPOS>MOLECULE
ZINC000098208524
49    52    1     0     0
SMALL
USER_CHARGES
@<TRIPOS>ATOM
1      C1     -0.0186    1.5198    0.0104 C.3      1 ZINC000098208524   -0.1900
2      C2      0.0021   -0.0041    0.0020 C.3      1 ZINC000098208524    0.1100
3      H3     -1.0518   -0.3420    0.0103 H        1 ZINC000098208524    0.0900
4      O4      0.6213   -0.5511   -1.1623 O.3      1 ZINC000098208524   -0.3000
5      C5      0.9630    0.3543   -2.1182 C.ar     1 ZINC000098208524   -0.0200
6      C6      2.1696    1.0127   -1.9559 C.ar     1 ZINC000098208524   -0.0700
7      C7      2.5381    2.0268   -2.8527 C.ar     1 ZINC000098208524   -0.1200
8      C8      1.7299    2.2281   -3.9578 C.ar     1 ZINC000098208524    0.1700
9      N9      0.6111    1.5334   -4.1168 N.ar     1 ZINC000098208524   -0.5300
10     C10     0.1988    0.6253   -3.2448 C.ar     1 ZINC000098208524    0.4100
11     N11    -0.9952   -0.0494   -3.4683 N.pl3    1 ZINC000098208524   -0.8400
12     C12     3.7320    2.8275   -2.4966 C.2      1 ZINC000098208524   -0.0700
13     C13     4.2113    3.9698   -3.1225 C.2      1 ZINC000098208524    0.1400
14     C14     3.7060    4.6546   -4.2737 C.1      1 ZINC000098208524    0.2600
15     N15     3.3049    5.1980   -5.1872 N.1      1 ZINC000098208524   -0.3600
16     N16     5.3090    4.4027   -2.4247 N.pl3    1 ZINC000098208524   -0.3400
17     C17     6.1163    5.5828   -2.7418 C.3      1 ZINC000098208524    0.0900
18     N18     5.5061    3.5209   -1.3672 N.2      1 ZINC000098208524   -0.2400
19     C19     4.5909    2.5676   -1.4089 C.2      1 ZINC000098208524    0.0600
20     C20     4.6131    1.4375   -0.4333 C.3      1 ZINC000098208524    0.1700
21     N21     3.5259    1.3998    0.5753 N.am     1 ZINC000098208524   -0.6000
22     C22     3.0255    2.5948    1.2673 C.3      1 ZINC000098208524    0.0800
23     C23     3.0848    0.1404    0.7893 C.2      1 ZINC000098208524    0.5400
24     O24     3.7605   -0.7175    0.2171 O.2      1 ZINC000098208524   -0.5400
25     C25     2.0009   -0.4558    1.5498 C.ar     1 ZINC000098208524   -0.0800
26     C26     2.4529   -1.0614    2.7575 C.ar     1 ZINC000098208524   -0.0600
27     C27     1.5857   -1.6860    3.6126 C.ar     1 ZINC000098208524   -0.1500
28     C28     0.2331   -1.7326    3.3133 C.ar     1 ZINC000098208524    0.1200
29     F29    -0.6242   -2.3427    4.1589 F        1 ZINC000098208524   -0.1300
30     C30    -0.2177   -1.1534    2.1453 C.ar     1 ZINC000098208524   -0.1500
31     C31     0.6509   -0.5302    1.2547 C.ar     1 ZINC000098208524   -0.0300
32     H32     1.0040    1.8971    0.0027 H        1 ZINC000098208524    0.0700
33     H33    -0.5458    1.8809   -0.8727 H        1 ZINC000098208524    0.0700
34     H34    -0.5288    1.8713    0.9072 H        1 ZINC000098208524    0.0800
35     H35     2.8336    0.7175   -1.1664 H        1 ZINC000098208524    0.1600
36     H36     1.9908    2.9148   -4.7424 H        1 ZINC000098208524    0.1500
37     H37    -1.5218    0.1456   -4.2593 H        1 ZINC000098208524    0.4100
38     H38    -1.3022   -0.7154   -2.8334 H        1 ZINC000098208524    0.4100
39     H39     5.7099    6.4511   -2.2233 H        1 ZINC000098208524    0.0900
40     H40     7.1446    5.4164   -2.4210 H        1 ZINC000098208524    0.1100
41     H41     6.0953    5.7590   -3.8173 H        1 ZINC000098208524    0.0900
42     H42     4.6286    0.5114   -1.0022 H        1 ZINC000098208524    0.1300
43     H43     5.5619    1.5092    0.1154 H        1 ZINC000098208524    0.0900
44     H44     2.2067    3.0302    0.6945 H        1 ZINC000098208524    0.0600
45     H45     2.6680    2.3175    2.2589 H        1 ZINC000098208524    0.0800
46     H46     3.8305    3.3237    1.3619 H        1 ZINC000098208524    0.0800
47     H47     3.5074   -1.0269    2.9964 H        1 ZINC000098208524    0.1400
48     H48     1.9466   -2.1525    4.5180 H        1 ZINC000098208524    0.1500
49     H49    -1.2700   -1.1751    1.9045 H        1 ZINC000098208524    0.1400
@<TRIPOS>BOND
1     1     2     1
2     1     32    1
3     1     33    1
4     1     34    1
5     2     3     1
6     2     31    1
7     2     4     1
8     4     5     1
9     5     10    ar
10    5     6     ar
11    6     7     ar
12    6     35    1
13    7     8     ar
14    7     12    1
15    8     9     ar
16    8     36    1
17    9     10    ar
18    10    11    1
19    11    37    1
20    11    38    1
21    12    19    1
22    12    13    2
23    13    14    1
24    13    16    1
25    14    15    3
26    16    17    1
27    16    18    1
28    17    39    1
29    17    40    1
30    17    41    1
31    18    19    2
32    19    20    1
33    20    21    1
34    20    42    1
35    20    43    1
36    21    22    1
37    21    23    am
38    22    44    1
39    22    45    1
40    22    46    1
41    23    24    2
42    23    25    1
43    25    31    ar
44    25    26    ar
45    26    27    ar
46    26    47    1
47    27    28    ar
48    27    48    1
49    28    29    1
50    28    30    ar
51    30    31    ar
52    30    49    1
@<TRIPOS>SUBSTRUCTURE
1   ZINC000098208524 1     RESIDUE    1   A     ZIN   1
