@<TRIPOS>MOLECULE
ZINC000082138051
81    86    1     0     0
SMALL
USER_CHARGES
@<TRIPOS>ATOM
1      C1      0.2239    2.4908    0.5286 C.3      1 ZINC000082138051   -0.1300
2      C2      0.0872    0.9669    0.5153 C.3      1 ZINC000082138051    0.0200
3      C3      0.8411    0.3769    1.7088 C.3      1 ZINC000082138051   -0.1300
4      C4     -1.3919    0.5867    0.6078 C.3      1 ZINC000082138051   -0.1400
5      C5      0.6670    0.4217   -0.7644 C.2      1 ZINC000082138051    0.0800
6      N6     -0.0191   -0.0188   -1.7883 N.2      1 ZINC000082138051   -0.2800
7      N7      0.8808   -0.4381   -2.7765 N.pl3    1 ZINC000082138051   -0.3000
8      C8      0.5434   -0.9747   -4.0279 C.ar     1 ZINC000082138051   -0.0100
9      C9      1.3326   -0.7006   -5.1364 C.ar     1 ZINC000082138051   -0.0800
10     C10     1.0002   -1.2285   -6.3687 C.ar     1 ZINC000082138051   -0.2400
11     C11    -0.1219   -2.0329   -6.4991 C.ar     1 ZINC000082138051    0.2800
12     O12    -0.4483   -2.5526   -7.7124 O.3      1 ZINC000082138051   -0.6900
13     C13    -0.9119   -2.3081   -5.3908 C.ar     1 ZINC000082138051   -0.1600
14     Cl14   -2.3162   -3.3156   -5.5542 Cl       1 ZINC000082138051   -0.1000
15     C15    -0.5770   -1.7848   -4.1570 C.ar     1 ZINC000082138051   -0.0400
16     C16     2.1406   -0.2320   -2.3057 C.2      1 ZINC000082138051    0.3200
17     N17     3.3295   -0.5150   -2.9781 N.am     1 ZINC000082138051   -0.6600
18     C18     4.5143   -0.2586   -2.3891 C.2      1 ZINC000082138051    0.7200
19     O19     4.5469    0.2195   -1.2717 O.2      1 ZINC000082138051   -0.5600
20     N20     5.6630   -0.5321   -3.0388 N.am     1 ZINC000082138051   -0.7400
21     C21     6.9509   -0.2533   -2.3986 C.3      1 ZINC000082138051    0.1800
22     C22     8.0697   -0.6468   -3.3284 C.ar     1 ZINC000082138051   -0.0900
23     C23     8.7222   -1.8508   -3.1539 C.ar     1 ZINC000082138051   -0.0800
24     C24     9.7496   -2.2126   -4.0066 C.ar     1 ZINC000082138051   -0.1200
25     C25    10.1270   -1.3703   -5.0364 C.ar     1 ZINC000082138051   -0.0900
26     C26     9.4789   -0.1643   -5.2170 C.ar     1 ZINC000082138051   -0.1200
27     C27     8.4422    0.1996   -4.3662 C.ar     1 ZINC000082138051   -0.0900
28     S28     7.6119    1.7371   -4.5931 S.3      1 ZINC000082138051    0.0600
29     C29     8.5492    2.5091   -5.8698 C.2      1 ZINC000082138051   -0.1700
30     C30     7.9853    2.7305   -7.0838 C.2      1 ZINC000082138051    0.1400
31     N31     8.7024    3.3279   -8.0799 N.pl3    1 ZINC000082138051   -0.3900
32     C32    10.0034    3.7132   -7.8687 C.2      1 ZINC000082138051    0.2000
33     N33    10.4352    4.2561   -8.9980 N.2      1 ZINC000082138051   -0.2800
34     N34     9.4976    4.2304   -9.8785 N.2      1 ZINC000082138051   -0.2100
35     C35     8.4144    3.6736   -9.3723 C.2      1 ZINC000082138051    0.1900
36     C36     7.1303    3.4630  -10.0699 C.ar     1 ZINC000082138051   -0.0100
37     C37     5.9305    3.8186   -9.4534 C.ar     1 ZINC000082138051   -0.0800
38     C38     4.7332    3.6194  -10.1104 C.ar     1 ZINC000082138051   -0.1200
39     C39     4.7163    3.0677  -11.3798 C.ar     1 ZINC000082138051   -0.0700
40     C40     5.8973    2.7103  -12.0025 C.ar     1 ZINC000082138051   -0.1300
41     C41     7.1101    2.9093  -11.3592 C.ar     1 ZINC000082138051   -0.0500
42     S42     8.6171    2.4545  -12.1509 S.3      1 ZINC000082138051   -0.0500
43     C43     8.0572    1.7908  -13.7435 C.3      1 ZINC000082138051   -0.1300
44     C44     9.2688    1.3439  -14.5641 C.3      1 ZINC000082138051    0.1000
45     O45     8.8278    0.8210  -15.8187 O.3      1 ZINC000082138051   -0.5700
46     C46    10.6036    3.4908   -6.6150 C.2      1 ZINC000082138051   -0.0700
47     C47     9.8819    2.9006   -5.6253 C.2      1 ZINC000082138051   -0.0600
48     C48     2.0280    0.3068   -1.0607 C.2      1 ZINC000082138051   -0.2800
49     H49     1.2776    2.7617    0.4628 H        1 ZINC000082138051    0.0600
50     H50    -0.3132    2.9111   -0.3216 H        1 ZINC000082138051    0.0500
51     H51    -0.1955    2.8851    1.4543 H        1 ZINC000082138051    0.0600
52     H52     0.4218    0.7712    2.6344 H        1 ZINC000082138051    0.0600
53     H53     0.7438   -0.7088    1.6994 H        1 ZINC000082138051    0.0500
54     H54     1.8949    0.6478    1.6429 H        1 ZINC000082138051    0.0600
55     H55    -1.9289    1.0070   -0.2424 H        1 ZINC000082138051    0.0600
56     H56    -1.4892   -0.4989    0.5984 H        1 ZINC000082138051    0.0600
57     H57    -1.8112    0.9810    1.5335 H        1 ZINC000082138051    0.0500
58     H58     2.2066   -0.0742   -5.0354 H        1 ZINC000082138051    0.1000
59     H59     1.6141   -1.0145   -7.2311 H        1 ZINC000082138051    0.1100
60     H60    -1.1912   -1.9986   -3.2947 H        1 ZINC000082138051    0.1200
61     H61     3.3035   -0.8964   -3.8696 H        1 ZINC000082138051    0.4100
62     H62     5.6371   -0.9135   -3.9303 H        1 ZINC000082138051    0.4000
63     H63     7.0223    0.8109   -2.1741 H        1 ZINC000082138051    0.0800
64     H64     7.0285   -0.8256   -1.4742 H        1 ZINC000082138051    0.0800
65     H65     8.4304   -2.5110   -2.3505 H        1 ZINC000082138051    0.1300
66     H66    10.2585   -3.1549   -3.8675 H        1 ZINC000082138051    0.1300
67     H67    10.9298   -1.6558   -5.7000 H        1 ZINC000082138051    0.1300
68     H68     9.7746    0.4934   -6.0210 H        1 ZINC000082138051    0.1200
69     H69     6.9630    2.4320   -7.2632 H        1 ZINC000082138051    0.1800
70     H70     5.9385    4.2491   -8.4629 H        1 ZINC000082138051    0.1300
71     H71     3.8051    3.8948   -9.6317 H        1 ZINC000082138051    0.1400
72     H72     3.7747    2.9154  -11.8864 H        1 ZINC000082138051    0.1400
73     H73     5.8761    2.2797  -12.9928 H        1 ZINC000082138051    0.1300
74     H74     7.4006    0.9380  -13.5711 H        1 ZINC000082138051    0.1000
75     H75     7.5143    2.5631  -14.2884 H        1 ZINC000082138051    0.1000
76     H76     9.9254    2.1967  -14.7365 H        1 ZINC000082138051    0.0600
77     H77     9.8118    0.5716  -14.0192 H        1 ZINC000082138051    0.0600
78     H78     9.5448    0.5177  -16.3923 H        1 ZINC000082138051    0.3900
79     H79    11.6262    3.7904   -6.4394 H        1 ZINC000082138051    0.1600
80     H80    10.3302    2.7241   -4.6587 H        1 ZINC000082138051    0.1600
81     H81     2.8455    0.5885   -0.4136 H        1 ZINC000082138051    0.1700
@<TRIPOS>BOND
1     1     2     1
2     1     49    1
3     1     50    1
4     1     51    1
5     2     3     1
6     2     4     1
7     2     5     1
8     3     52    1
9     3     53    1
10    3     54    1
11    4     55    1
12    4     56    1
13    4     57    1
14    5     48    1
15    5     6     2
16    6     7     1
17    7     8     1
18    7     16    1
19    8     15    ar
20    8     9     ar
21    9     10    ar
22    9     58    1
23    10    11    ar
24    10    59    1
25    11    12    1
26    11    13    ar
27    13    14    1
28    13    15    ar
29    15    60    1
30    16    17    1
31    16    48    2
32    17    18    am
33    17    61    1
34    18    19    2
35    18    20    am
36    20    21    1
37    20    62    1
38    21    22    1
39    21    63    1
40    21    64    1
41    22    27    ar
42    22    23    ar
43    23    24    ar
44    23    65    1
45    24    25    ar
46    24    66    1
47    25    26    ar
48    25    67    1
49    26    27    ar
50    26    68    1
51    27    28    1
52    28    29    1
53    29    47    1
54    29    30    2
55    30    31    1
56    30    69    1
57    31    35    1
58    31    32    1
59    32    33    2
60    32    46    1
61    33    34    1
62    34    35    2
63    35    36    1
64    36    41    ar
65    36    37    ar
66    37    38    ar
67    37    70    1
68    38    39    ar
69    38    71    1
70    39    40    ar
71    39    72    1
72    40    41    ar
73    40    73    1
74    41    42    1
75    42    43    1
76    43    44    1
77    43    74    1
78    43    75    1
79    44    45    1
80    44    76    1
81    44    77    1
82    45    78    1
83    46    47    2
84    46    79    1
85    47    80    1
86    48    81    1
@<TRIPOS>SUBSTRUCTURE
1   ZINC000082138051 1     RESIDUE    1   A     ZIN   1
