@<TRIPOS>MOLECULE
ZINC000001547338
62    66    1     0     0
SMALL
USER_CHARGES
@<TRIPOS>ATOM
1      C1     -2.5434   -7.2124    3.3429 C.3      1 ZINC000001547338   -0.0800
2      C2     -1.6727   -6.1549    2.7149 C.2      1 ZINC000001547338   -0.1700
3      C3     -2.1326   -5.1201    2.0406 C.2      1 ZINC000001547338   -0.0700
4      C4     -3.6051   -4.8838    1.8243 C.3      1 ZINC000001547338   -0.1000
5      C5     -1.1127   -4.2234    1.5216 C.ar     1 ZINC000001547338   -0.0700
6      C6     -1.2761   -3.0392    0.7673 C.ar     1 ZINC000001547338    0.0600
7      C7     -2.6324   -2.5717    0.4105 C.ar     1 ZINC000001547338   -0.0800
8      C8     -3.4632   -2.0215    1.3887 C.ar     1 ZINC000001547338   -0.1000
9      C9     -4.7270   -1.5864    1.0516 C.ar     1 ZINC000001547338   -0.1100
10     C10    -5.6245   -0.9924    2.1065 C.3      1 ZINC000001547338   -0.1200
11     C11    -5.1741   -1.6942   -0.2587 C.ar     1 ZINC000001547338    0.1300
12     O12    -6.4202   -1.2632   -0.5870 O.3      1 ZINC000001547338   -0.3100
13     C13    -6.6217    0.1500   -0.6525 C.3      1 ZINC000001547338    0.0400
14     H14    -5.9912    0.6416    0.0884 H        1 ZINC000001547338    0.0500
15     C15    -8.0901    0.4697   -0.3655 C.3      1 ZINC000001547338   -0.0700
16     C16    -8.4197    0.0854    1.0539 C.ar     1 ZINC000001547338   -0.0600
17     C17    -8.8761   -1.1884    1.3369 C.ar     1 ZINC000001547338   -0.1000
18     C18    -9.1784   -1.5409    2.6389 C.ar     1 ZINC000001547338   -0.1200
19     C19    -9.0239   -0.6198    3.6580 C.ar     1 ZINC000001547338   -0.1300
20     C20    -8.5666    0.6537    3.3752 C.ar     1 ZINC000001547338   -0.1200
21     C21    -8.2602    1.0049    2.0737 C.ar     1 ZINC000001547338   -0.1200
22     C22    -6.2594    0.6457   -2.0288 C.2      1 ZINC000001547338    0.4800
23     O23    -6.0375   -0.1507   -2.9248 O.co2    1 ZINC000001547338   -0.6600
24     O24    -6.1881    1.8433   -2.2461 O.co2    1 ZINC000001547338   -0.7000
25     C25    -4.3510   -2.2408   -1.2346 C.ar     1 ZINC000001547338   -0.0700
26     C26    -4.8415   -2.3552   -2.6549 C.3      1 ZINC000001547338   -0.1000
27     C27    -3.0840   -2.6739   -0.9069 C.ar     1 ZINC000001547338   -0.1000
28     C28    -0.1487   -2.3051    0.3565 C.ar     1 ZINC000001547338   -0.0400
29     C29    -0.2855   -1.1247   -0.3935 C.ar     1 ZINC000001547338   -0.0800
30     C30     0.8238   -0.4355   -0.7764 C.ar     1 ZINC000001547338   -0.1200
31     C31     2.0997   -0.8825   -0.4359 C.ar     1 ZINC000001547338   -0.0900
32     C32     2.2725   -2.0206    0.2890 C.ar     1 ZINC000001547338   -0.1300
33     C33     1.1497   -2.7609    0.7036 C.ar     1 ZINC000001547338    0.0000
34     C34     1.2951   -3.9354    1.4510 C.ar     1 ZINC000001547338   -0.0700
35     Br35    3.0248   -4.5434    1.9140 Br       1 ZINC000001547338   -0.0400
36     C36     0.1804   -4.6582    1.8554 C.ar     1 ZINC000001547338   -0.0900
37     S37     0.0778   -6.1431    2.7961 S.3      1 ZINC000001547338    0.0900
38     H38    -1.9157   -7.9500    3.8429 H        1 ZINC000001547338    0.0700
39     H39    -3.2099   -6.7494    4.0705 H        1 ZINC000001547338    0.0800
40     H40    -3.1344   -7.7029    2.5694 H        1 ZINC000001547338    0.0800
41     H41    -3.9769   -4.1918    2.5800 H        1 ZINC000001547338    0.0800
42     H42    -3.7631   -4.4586    0.8332 H        1 ZINC000001547338    0.0800
43     H43    -4.1404   -5.8300    1.9033 H        1 ZINC000001547338    0.0700
44     H44    -3.1163   -1.9373    2.4080 H        1 ZINC000001547338    0.1200
45     H45    -5.4645    0.0847    2.1552 H        1 ZINC000001547338    0.0600
46     H46    -6.6654   -1.1941    1.8534 H        1 ZINC000001547338    0.0900
47     H47    -5.3928   -1.4383    3.0737 H        1 ZINC000001547338    0.0600
48     H48    -8.2630    1.5371   -0.5024 H        1 ZINC000001547338    0.0900
49     H49    -8.7249   -0.0920   -1.0507 H        1 ZINC000001547338    0.0800
50     H50    -8.9969   -1.9080    0.5407 H        1 ZINC000001547338    0.1200
51     H51    -9.5357   -2.5358    2.8599 H        1 ZINC000001547338    0.1200
52     H52    -9.2608   -0.8950    4.6751 H        1 ZINC000001547338    0.1100
53     H53    -8.4461    1.3735    4.1713 H        1 ZINC000001547338    0.1200
54     H54    -7.9029    1.9998    1.8528 H        1 ZINC000001547338    0.1200
55     H55    -4.5041   -1.4907   -3.2266 H        1 ZINC000001547338    0.0900
56     H56    -4.4442   -3.2654   -3.1042 H        1 ZINC000001547338    0.0400
57     H57    -5.9308   -2.3924   -2.6613 H        1 ZINC000001547338    0.0800
58     H58    -2.4445   -3.0988   -1.6664 H        1 ZINC000001547338    0.1200
59     H59    -1.2672   -0.7659   -0.6652 H        1 ZINC000001547338    0.1400
60     H60     0.7140    0.4711   -1.3529 H        1 ZINC000001547338    0.1300
61     H61     2.9636   -0.3171   -0.7526 H        1 ZINC000001547338    0.1300
62     H62     3.2671   -2.3547    0.5450 H        1 ZINC000001547338    0.1300
@<TRIPOS>BOND
1     1     2     1
2     1     38    1
3     1     39    1
4     1     40    1
5     2     37    1
6     2     3     2
7     3     4     1
8     3     5     1
9     4     41    1
10    4     42    1
11    4     43    1
12    5     36    ar
13    5     6     ar
14    6     7     1
15    6     28    ar
16    7     27    ar
17    7     8     ar
18    8     9     ar
19    8     44    1
20    9     10    1
21    9     11    ar
22    10    45    1
23    10    46    1
24    10    47    1
25    11    12    1
26    11    25    ar
27    12    13    1
28    13    14    1
29    13    15    1
30    13    22    1
31    15    16    1
32    15    48    1
33    15    49    1
34    16    21    ar
35    16    17    ar
36    17    18    ar
37    17    50    1
38    18    19    ar
39    18    51    1
40    19    20    ar
41    19    52    1
42    20    21    ar
43    20    53    1
44    21    54    1
45    22    23    ar
46    22    24    ar
47    25    26    1
48    25    27    ar
49    26    55    1
50    26    56    1
51    26    57    1
52    27    58    1
53    28    33    ar
54    28    29    ar
55    29    30    ar
56    29    59    1
57    30    31    ar
58    30    60    1
59    31    32    ar
60    31    61    1
61    32    33    ar
62    32    62    1
63    33    34    ar
64    34    35    1
65    34    36    ar
66    36    37    1
@<TRIPOS>SUBSTRUCTURE
1   ZINC000001547338 1     RESIDUE    1   A     ZIN   1
