@<TRIPOS>MOLECULE
ZINC000003945986
  42   44    0    0    0
SMALL
USER_CHARGES
NO_NAME
@<TRIPOS>ATOM
    1 C1       -0.0109     1.3676     0.2150 C.3    1 <0>       0.0400
    2 O2       -0.0009    -0.0609     0.1784 O.3    1 <0>      -0.2300
    3 N3       -1.2903    -0.6452     0.1464 N.2    1 <0>      -0.3100
    4 C4       -1.4151    -1.9182     0.1120 C.2    1 <0>       0.0900
    5 C5       -2.7874    -2.5401     0.0781 C.3    1 <0>      -0.0500
    6 H6       -3.5441    -1.7556     0.0884 H      1 <0>       0.1200
    7 C7       -2.9385    -3.3844    -1.1975 C.3    1 <0>       0.0400
    8 H8       -2.6863    -2.8204    -2.0954 H      1 <0>       0.1600
    9 C9       -2.0620    -4.6476    -1.0350 C.3    1 <0>      -0.1500
   10 C10      -2.9793    -5.6791    -0.3458 C.3    1 <0>      -0.1400
   11 C11      -4.3268    -4.9456    -0.1547 C.3    1 <0>       0.0400
   12 H12      -5.1787    -5.6209    -0.2347 H      1 <0>       0.1600
   13 C13      -4.2827    -4.2276     1.2036 C.3    1 <0>      -0.1400
   14 C14      -2.9706    -3.4454     1.2995 C.3    1 <0>      -0.0500
   15 H15      -2.1335    -4.1432     1.3246 H      1 <0>       0.1100
   16 C16      -2.9712    -2.6179     2.5590 C.ar   1 <0>      -0.0800
   17 C17      -3.9507    -1.6631     2.7576 C.ar   1 <0>      -0.1000
   18 C18      -3.9524    -0.9033     3.9126 C.ar   1 <0>      -0.0900
   19 C19      -2.9736    -1.0982     4.8700 C.ar   1 <0>      -0.0300
   20 Cl20     -2.9756    -0.1448     6.3207 Cl     1 <0>      -0.0300
   21 C21      -1.9922    -2.0548     4.6710 C.ar   1 <0>      -0.0300
   22 Cl22     -0.7628    -2.3007     5.8718 Cl     1 <0>      -0.0300
   23 C23      -1.9953    -2.8179     3.5175 C.ar   1 <0>      -0.0900
   24 N24      -4.3357    -3.8931    -1.2263 N.4    1 <0>      -0.3900
   25 H25      -4.5489    -4.3017    -2.1239 H      1 <0>       0.4300
   26 C26      -5.2970    -2.8312    -0.9004 C.3    1 <0>      -0.0600
   27 H27       1.0141     1.7377     0.2379 H      1 <0>       0.1100
   28 H28      -0.5156     1.7503    -0.6721 H      1 <0>       0.0600
   29 H29      -0.5388     1.7045     1.1071 H      1 <0>       0.0600
   30 H30      -0.5370    -2.5470     0.1073 H      1 <0>       0.1300
   31 H31      -1.7426    -5.0156    -2.0100 H      1 <0>       0.1100
   32 H32      -1.1968    -4.4309    -0.4083 H      1 <0>       0.1100
   33 H33      -3.1108    -6.5545    -0.9819 H      1 <0>       0.1000
   34 H34      -2.5653    -5.9696     0.6197 H      1 <0>       0.1200
   35 H35      -5.1143    -3.5264     1.2731 H      1 <0>       0.1000
   36 H36      -4.3534    -4.9611     2.0068 H      1 <0>       0.1200
   37 H37      -4.7150    -1.5104     2.0100 H      1 <0>       0.1300
   38 H38      -4.7179    -0.1572     4.0670 H      1 <0>       0.1500
   39 H39      -1.2304    -3.5644     3.3618 H      1 <0>       0.1400
   40 H40      -5.0532    -2.4069     0.0736 H      1 <0>       0.1300
   41 H41      -5.2473    -2.0506    -1.6595 H      1 <0>       0.1300
   42 H42      -6.3037    -3.2482    -0.8734 H      1 <0>       0.1300
@<TRIPOS>BOND
   1    1    2 1
   2    1   27 1
   3    1   28 1
   4    1   29 1
   5    2    3 1
   6    3    4 2
   7    4    5 1
   8    4   30 1
   9    5    6 1
  10    5   14 1
  11    5    7 1
  12    7    8 1
  13    7   24 1
  14    7    9 1
  15    9   10 1
  16    9   31 1
  17    9   32 1
  18   10   11 1
  19   10   33 1
  20   10   34 1
  21   11   12 1
  22   11   13 1
  23   11   24 1
  24   13   14 1
  25   13   35 1
  26   13   36 1
  27   14   15 1
  28   14   16 1
  29   16   23 ar
  30   16   17 ar
  31   17   18 ar
  32   17   37 1
  33   18   19 ar
  34   18   38 1
  35   19   20 1
  36   19   21 ar
  37   21   22 1
  38   21   23 ar
  39   23   39 1
  40   24   25 1
  41   24   26 1
  42   26   40 1
  43   26   41 1
  44   26   42 1
