@<TRIPOS>MOLECULE
ZINC000000004041
47    49    1     0     0
SMALL
USER_CHARGES
@<TRIPOS>ATOM
1      O1      2.7362    0.6936    1.8841 O.3      1 ZINC000000004041   -0.5500
2      C2      1.7044    0.6278    0.8977 C.3      1 ZINC000000004041    0.1100
3      H3      1.1589    1.5713    0.8790 H        1 ZINC000000004041    0.1100
4      C4      0.7421   -0.5109    1.2415 C.3      1 ZINC000000004041    0.0300
5      N5      0.0630   -0.2121    2.5095 N.3      1 ZINC000000004041   -0.5300
6      C6     -0.4609    1.1597    2.5153 C.3      1 ZINC000000004041    0.0500
7      C7     -1.2840    1.3873    3.7853 C.3      1 ZINC000000004041   -0.1100
8      C8     -0.3966    1.1548    5.0113 C.3      1 ZINC000000004041   -0.0800
9      C9     -1.2292    1.3214    6.2841 C.3      1 ZINC000000004041   -0.0800
10     C10    -0.3311    1.2139    7.4894 C.ar     1 ZINC000000004041   -0.0900
11     C11    -0.1009   -0.0187    8.0716 C.ar     1 ZINC000000004041   -0.0900
12     C12     0.7225   -0.1185    9.1770 C.ar     1 ZINC000000004041   -0.1500
13     C13     1.3174    1.0166    9.7011 C.ar     1 ZINC000000004041    0.0900
14     F14     2.1229    0.9202   10.7814 F        1 ZINC000000004041   -0.1400
15     C15     1.0865    2.2505    9.1170 C.ar     1 ZINC000000004041   -0.1500
16     C16     0.2666    2.3472    8.0087 C.ar     1 ZINC000000004041   -0.0900
17     C17     0.1750   -0.2647    4.9559 C.3      1 ZINC000000004041   -0.1100
18     C18     0.9557   -0.4445    3.6520 C.3      1 ZINC000000004041    0.0400
19     C19     2.3182    0.3755   -0.4553 C.ar     1 ZINC000000004041   -0.1100
20     C20     3.3700   -0.5127   -0.5820 C.ar     1 ZINC000000004041   -0.1000
21     C21     3.9334   -0.7445   -1.8227 C.ar     1 ZINC000000004041   -0.1100
22     C22     3.4445   -0.0875   -2.9378 C.ar     1 ZINC000000004041   -0.0300
23     Cl23    4.1513   -0.3786   -4.4965 Cl       1 ZINC000000004041   -0.0700
24     C24     2.3919    0.8013   -2.8103 C.ar     1 ZINC000000004041   -0.1100
25     C25     1.8256    1.0280   -1.5700 C.ar     1 ZINC000000004041   -0.1000
26     H26     3.2636   -0.1137    1.9561 H        1 ZINC000000004041    0.3700
27     H27     0.0017   -0.6130    0.4481 H        1 ZINC000000004041    0.0900
28     H28     1.3007   -1.4418    1.3391 H        1 ZINC000000004041    0.0800
29     H29     0.3692    1.8656    2.4891 H        1 ZINC000000004041    0.0400
30     H30    -1.0936    1.3105    1.6406 H        1 ZINC000000004041    0.0700
31     H31    -1.6597    2.4105    3.7969 H        1 ZINC000000004041    0.0700
32     H32    -2.1223    0.6909    3.8054 H        1 ZINC000000004041    0.0700
33     H33     0.4195    1.8773    5.0126 H        1 ZINC000000004041    0.0700
34     H34    -1.7122    2.2985    6.2769 H        1 ZINC000000004041    0.0700
35     H35    -1.9888    0.5408    6.3262 H        1 ZINC000000004041    0.0800
36     H36    -0.5651   -0.9039    7.6625 H        1 ZINC000000004041    0.1300
37     H37     0.9015   -1.0814    9.6320 H        1 ZINC000000004041    0.1300
38     H38     1.5498    3.1366    9.5251 H        1 ZINC000000004041    0.1300
39     H39     0.0867    3.3095    7.5527 H        1 ZINC000000004041    0.1300
40     H40     0.8416   -0.4218    5.8039 H        1 ZINC000000004041    0.0700
41     H41    -0.6403   -0.9871    4.9945 H        1 ZINC000000004041    0.0700
42     H42     1.3521   -1.4587    3.6029 H        1 ZINC000000004041    0.0700
43     H43     1.7792    0.2690    3.6205 H        1 ZINC000000004041    0.0600
44     H44     3.7517   -1.0252    0.2886 H        1 ZINC000000004041    0.1300
45     H45     4.7553   -1.4381   -1.9215 H        1 ZINC000000004041    0.1400
46     H46     2.0101    1.3147   -3.6804 H        1 ZINC000000004041    0.1400
47     H47     1.0037    1.7215   -1.4704 H        1 ZINC000000004041    0.1300
@<TRIPOS>BOND
1     1     2     1
2     1     26    1
3     2     3     1
4     2     4     1
5     2     19    1
6     4     5     1
7     4     27    1
8     4     28    1
9     5     18    1
10    5     6     1
11    6     7     1
12    6     29    1
13    6     30    1
14    7     8     1
15    7     31    1
16    7     32    1
17    8     9     1
18    8     17    1
19    8     33    1
20    9     10    1
21    9     34    1
22    9     35    1
23    10    16    ar
24    10    11    ar
25    11    12    ar
26    11    36    1
27    12    13    ar
28    12    37    1
29    13    14    1
30    13    15    ar
31    15    16    ar
32    15    38    1
33    16    39    1
34    17    18    1
35    17    40    1
36    17    41    1
37    18    42    1
38    18    43    1
39    19    25    ar
40    19    20    ar
41    20    21    ar
42    20    44    1
43    21    22    ar
44    21    45    1
45    22    23    1
46    22    24    ar
47    24    25    ar
48    24    46    1
49    25    47    1
@<TRIPOS>SUBSTRUCTURE
1   ZINC000000004041 1     RESIDUE    1   A     ZIN   1
