@<TRIPOS>MOLECULE
ZINC000013679213
50    53    1     0     0
SMALL
USER_CHARGES
@<TRIPOS>ATOM
1      C1     -0.3087    1.5073   -0.4643 C.3      1 ZINC000013679213   -0.1900
2      C2     -0.2008   -0.0128   -0.3281 C.3      1 ZINC000013679213    0.0200
3      C3      0.5266   -0.3579    0.9730 C.3      1 ZINC000013679213   -0.1900
4      N4     -1.5475   -0.5992   -0.3066 N.4      1 ZINC000013679213   -0.5100
5      H5     -2.0354   -0.2910    0.5211 H        1 ZINC000013679213    0.4300
6      H6     -2.0561   -0.3039   -1.1264 H        1 ZINC000013679213    0.4300
7      C7     -1.4434   -2.0645   -0.2964 C.3      1 ZINC000013679213   -0.0100
8      C8     -2.8460   -2.6753   -0.2740 C.3      1 ZINC000013679213   -0.1700
9      C9     -2.7376   -4.2014   -0.2634 C.3      1 ZINC000013679213    0.1200
10     N10    -4.0806   -4.7863   -0.2420 N.pl3    1 ZINC000013679213   -0.4600
11     C11    -4.8120   -5.0956    0.8729 C.2      1 ZINC000013679213    0.2300
12     S12    -4.2803   -4.8503    2.5347 S.3      1 ZINC000013679213    0.1300
13     C13    -5.7465   -5.3114    3.3963 C.ar     1 ZINC000013679213   -0.1100
14     C14    -5.8234   -6.5473    4.0242 C.ar     1 ZINC000013679213   -0.0300
15     C15    -6.9762   -6.9091    4.7011 C.ar     1 ZINC000013679213    0.0500
16     C16    -8.0568   -6.0317    4.7507 C.ar     1 ZINC000013679213    0.0800
17     C17    -7.9767   -4.7991    4.1227 C.ar     1 ZINC000013679213   -0.0800
18     C18    -6.8240   -4.4359    3.4524 C.ar     1 ZINC000013679213   -0.0300
19     I19    -6.7077   -2.5709    2.5051 I        1 ZINC000013679213    0.0000
20     O20    -9.0604   -6.6163    5.4701 O.3      1 ZINC000013679213   -0.3000
21     C21    -8.7367   -8.0187    5.5116 C.3      1 ZINC000013679213    0.2100
22     O22    -7.3023   -8.0424    5.3890 O.3      1 ZINC000013679213   -0.3000
23     N23    -5.9676   -5.6014    0.5177 N.2      1 ZINC000013679213   -0.4300
24     C24    -6.0431   -5.6452   -0.8359 C.ar     1 ZINC000013679213   -0.1000
25     C25    -7.0143   -6.0757   -1.7543 C.ar     1 ZINC000013679213    0.5100
26     N26    -8.2214   -6.5971   -1.3171 N.pl3    1 ZINC000013679213   -0.8100
27     N27    -6.7493   -5.9712   -3.0526 N.ar     1 ZINC000013679213   -0.5900
28     C28    -5.6021   -5.4753   -3.4782 C.ar     1 ZINC000013679213    0.3700
29     N29    -4.6629   -5.0600   -2.6536 N.ar     1 ZINC000013679213   -0.5700
30     C30    -4.8412   -5.1201   -1.3387 C.ar     1 ZINC000013679213    0.3200
31     H31     0.6906    1.9425   -0.4803 H        1 ZINC000013679213    0.1100
32     H32    -0.8269    1.7532   -1.3912 H        1 ZINC000013679213    0.0800
33     H33    -0.8665    1.9093    0.3814 H        1 ZINC000013679213    0.0800
34     H34     0.3570   -0.4147   -1.1738 H        1 ZINC000013679213    0.1400
35     H35     0.6034   -1.4408    1.0701 H        1 ZINC000013679213    0.0800
36     H36     1.5258    0.0773    0.9570 H        1 ZINC000013679213    0.1100
37     H37    -0.0313    0.0441    1.8187 H        1 ZINC000013679213    0.0800
38     H38    -0.9164   -2.3975   -1.1905 H        1 ZINC000013679213    0.1400
39     H39    -0.8940   -2.3836    0.5893 H        1 ZINC000013679213    0.1400
40     H40    -3.3731   -2.3423    0.6201 H        1 ZINC000013679213    0.1000
41     H41    -3.3955   -2.3562   -1.1597 H        1 ZINC000013679213    0.1000
42     H42    -2.2105   -4.5344   -1.1575 H        1 ZINC000013679213    0.1100
43     H43    -2.1882   -4.5205    0.6222 H        1 ZINC000013679213    0.1100
44     H44    -4.9847   -7.2265    3.9844 H        1 ZINC000013679213    0.1600
45     H45    -8.8149   -4.1192    4.1611 H        1 ZINC000013679213    0.1500
46     H46    -9.0472   -8.4555    6.4608 H        1 ZINC000013679213    0.1400
47     H47    -9.2012   -8.5438    4.6770 H        1 ZINC000013679213    0.1000
48     H48    -8.4034   -6.6680   -0.3670 H        1 ZINC000013679213    0.4200
49     H49    -8.8844   -6.8911   -1.9612 H        1 ZINC000013679213    0.4100
50     H50    -5.4272   -5.4081   -4.5418 H        1 ZINC000013679213    0.2100
@<TRIPOS>BOND
1     1     2     1
2     1     31    1
3     1     32    1
4     1     33    1
5     2     3     1
6     2     4     1
7     2     34    1
8     3     35    1
9     3     36    1
10    3     37    1
11    4     5     1
12    4     6     1
13    4     7     1
14    7     8     1
15    7     38    1
16    7     39    1
17    8     9     1
18    8     40    1
19    8     41    1
20    9     10    1
21    9     42    1
22    9     43    1
23    10    30    1
24    10    11    1
25    11    12    1
26    11    23    2
27    12    13    1
28    13    18    ar
29    13    14    ar
30    14    15    ar
31    14    44    1
32    15    22    1
33    15    16    ar
34    16    17    ar
35    16    20    1
36    17    18    ar
37    17    45    1
38    18    19    1
39    20    21    1
40    21    22    1
41    21    46    1
42    21    47    1
43    23    24    1
44    24    30    ar
45    24    25    ar
46    25    26    1
47    25    27    ar
48    26    48    1
49    26    49    1
50    27    28    ar
51    28    29    ar
52    28    50    1
53    29    30    ar
@<TRIPOS>SUBSTRUCTURE
1   ZINC000013679213 1     RESIDUE    1   A     ZIN   1
