@<TRIPOS>MOLECULE
ZINC000003940680
  65   66    0    0    0
SMALL
NO_CHARGES
@<TRIPOS>ATOM
   1 C1            -0.0173     1.4248     0.0099 C.3     
   2 O2             0.0021    -0.0041     0.0020 O.3     
   3 C3             0.6734    -0.5824     1.1231 C.3     
   4 C4             0.6333    -2.0848     1.0124 C.ar    
   5 C5            -0.4187    -2.7906     1.5650 C.ar    
   6 C6            -0.4555    -4.1690     1.4634 C.ar    
   7 C7             0.5595    -4.8410     0.8088 C.ar    
   8 C8             1.6114    -4.1349     0.2553 C.ar    
   9 C9             2.7183    -4.8677    -0.4580 C.3     
  10 C10            2.3660    -5.0057    -1.9405 C.3     
  11 H11            2.1577    -4.0205    -2.3577 H       
  12 O12            1.2115    -5.8361    -2.0804 O.3     
  13 C13            3.5246    -5.6281    -2.6763 C.2     
  14 C14            3.3413    -6.7109    -3.3904 C.2     
  15 C15            4.4999    -7.3333    -4.1262 C.3     
  16 H16            5.4141    -6.7671    -3.9479 H       
  17 C17            4.6837    -8.8123    -3.7010 C.3     
  18 H18            3.7184    -9.2929    -3.5424 H       
  19 O19            5.4948    -8.9069    -2.5283 O.3     
  20 C20            5.4076    -9.4216    -4.9273 C.3     
  21 C21            4.7687    -8.7371    -6.1226 C.2     
  22 O22            4.7231    -9.1635    -7.2515 O.2     
  23 C23            4.2003    -7.4171    -5.6373 C.3     
  24 H24            3.1233    -7.3916    -5.8036 H       
  25 C25            4.8706    -6.2563    -6.3750 C.3     
  26 C26            4.4836    -6.3010    -7.8546 C.3     
  27 S27            5.2784    -4.9247    -8.7292 S.3     
  28 C28            4.7093    -5.1440   -10.4376 C.3     
  29 C29            5.3023    -4.0422   -11.3181 C.3     
  30 C30            4.8223    -4.2271   -12.7590 C.3     
  31 C31            5.4065    -3.1419   -13.6263 C.2     
  32 O32            6.1323    -2.3063   -13.1416 O.2     
  33 O33            5.1205    -3.1036   -14.9372 O.3     
  34 C34            5.7183    -2.0303   -15.7112 C.3     
  35 C35            1.6460    -2.7567     0.3531 C.ar    
  36 H36            1.0053     1.8021     0.0021 H       
  37 H37           -0.5445     1.7859    -0.8732 H       
  38 H38           -0.5275     1.7763     0.9067 H       
  39 H39            1.7103    -0.2468     1.1385 H       
  40 H40            0.1775    -0.2725     2.0430 H       
  41 H41           -1.2118    -2.2655     2.0764 H       
  42 H42           -1.2772    -4.7206     1.8958 H       
  43 H43            0.5311    -5.9178     0.7301 H       
  44 H44            3.6486    -4.3088    -0.3561 H       
  45 H45            2.8397    -5.8582    -0.0196 H       
  46 H46            1.3252    -6.7301    -1.7297 H       
  47 H47            4.5060    -5.1814    -2.6148 H       
  48 H48            2.3600    -7.1576    -3.4518 H       
  49 H49            5.6393    -9.8127    -2.2220 H       
  50 H50            6.4744    -9.2013    -4.8878 H       
  51 H51            5.2416   -10.4980    -4.9714 H       
  52 H52            4.5413    -5.3119    -5.9417 H       
  53 H53            5.9530    -6.3420    -6.2798 H       
  54 H54            4.8129    -7.2454    -8.2879 H       
  55 H55            3.4012    -6.2153    -7.9498 H       
  56 H56            5.0329    -6.1173   -10.8063 H       
  57 H57            3.6212    -5.0873   -10.4682 H       
  58 H58            4.9787    -3.0688   -10.9494 H       
  59 H59            6.3904    -4.0989   -11.2875 H       
  60 H60            5.1459    -5.2005   -13.1277 H       
  61 H61            3.7342    -4.1704   -12.7896 H       
  62 H62            5.3926    -1.0696   -15.3122 H       
  63 H63            6.8043    -2.0997   -15.6503 H       
  64 H64            5.4065    -2.1158   -16.7522 H       
  65 H65            2.4677    -2.2051    -0.0793 H       
@<TRIPOS>BOND
   1    1    2 1
   2    1   36 1
   3    1   37 1
   4    1   38 1
   5    2    3 1
   6    3    4 1
   7    3   39 1
   8    3   40 1
   9    4   35 ar
  10    4    5 ar
  11    5    6 ar
  12    5   41 1
  13    6    7 ar
  14    6   42 1
  15    7    8 ar
  16    7   43 1
  17    8    9 1
  18    8   35 ar
  19    9   10 1
  20    9   44 1
  21    9   45 1
  22   10   11 1
  23   10   12 1
  24   10   13 1
  25   12   46 1
  26   13   14 2
  27   13   47 1
  28   14   15 1
  29   14   48 1
  30   15   16 1
  31   15   23 1
  32   15   17 1
  33   17   18 1
  34   17   19 1
  35   17   20 1
  36   19   49 1
  37   20   21 1
  38   20   50 1
  39   20   51 1
  40   21   22 2
  41   21   23 1
  42   23   24 1
  43   23   25 1
  44   25   26 1
  45   25   52 1
  46   25   53 1
  47   26   27 1
  48   26   54 1
  49   26   55 1
  50   27   28 1
  51   28   29 1
  52   28   56 1
  53   28   57 1
  54   29   30 1
  55   29   58 1
  56   29   59 1
  57   30   31 1
  58   30   60 1
  59   30   61 1
  60   31   32 2
  61   31   33 1
  62   33   34 1
  63   34   62 1
  64   34   63 1
  65   34   64 1
  66   35   65 1
