@<TRIPOS>MOLECULE
ZINC000003823825
  46   48    0    0    0
SMALL
USER_CHARGES
NO_NAME
@<TRIPOS>ATOM
    1 C1        2.1001    -0.3412     0.9139 C.3    1 <0>      -0.2000
    2 C2        1.4926    -1.7087     0.7349 C.2    1 <0>       0.4000
    3 O3        2.1996    -2.6941     0.7575 O.2    1 <0>      -0.4600
    4 C4        0.0446    -1.8483     0.5332 C.ar   1 <0>      -0.2200
    5 C5       -0.7745    -0.7129     0.5007 C.ar   1 <0>      -0.0200
    6 C6       -2.1288    -0.8567     0.3134 C.ar   1 <0>      -0.1700
    7 C7       -2.6875    -2.1253     0.1562 C.ar   1 <0>       0.2000
    8 O8       -4.0300    -2.2200    -0.0156 O.3    1 <0>      -0.2900
    9 C9       -4.5522    -3.4418    -0.5388 C.3    1 <0>       0.1200
   10 C10      -6.0761    -3.4512    -0.4018 C.3    1 <0>      -0.1400
   11 C11      -4.1667    -3.5774    -2.0132 C.3    1 <0>      -0.1700
   12 C12      -3.9543    -4.6059     0.2615 C.3    1 <0>       0.0700
   13 H13      -4.3995    -5.5449    -0.0675 H      1 <0>       0.0900
   14 O14      -4.2092    -4.4139     1.6544 O.3    1 <0>      -0.5400
   15 C15      -2.4446    -4.6352     0.0116 C.3    1 <0>       0.1700
   16 H16      -1.9724    -5.3133     0.7225 H      1 <0>       0.1000
   17 N17      -2.1852    -5.1013    -1.3528 N.am   1 <0>      -0.7200
   18 C18      -2.3212    -6.4075    -1.6560 C.2    1 <0>       0.5600
   19 O19      -2.6591    -7.1989    -0.7973 O.2    1 <0>      -0.5300
   20 C20      -2.0596    -6.8775    -3.0319 C.ar   1 <0>      -0.1500
   21 C21      -1.6658    -5.9715    -4.0189 C.ar   1 <0>      -0.0600
   22 C22      -1.4231    -6.4154    -5.3010 C.ar   1 <0>      -0.1600
   23 C23      -1.5698    -7.7587    -5.6117 C.ar   1 <0>       0.1300
   24 F24      -1.3306    -8.1885    -6.8700 F      1 <0>      -0.1300
   25 C25      -1.9605    -8.6625    -4.6356 C.ar   1 <0>      -0.1600
   26 C26      -2.1998    -8.2303    -3.3487 C.ar   1 <0>      -0.0300
   27 C27      -1.8742    -3.2497     0.1847 C.ar   1 <0>      -0.2000
   28 C28      -0.5234    -3.1156     0.3667 C.ar   1 <0>       0.0000
   29 H29       3.1773    -0.4372     1.0495 H      1 <0>       0.0900
   30 H30       1.8976     0.2647     0.0307 H      1 <0>       0.0900
   31 H31       1.6646     0.1378     1.7908 H      1 <0>       0.0900
   32 H32      -0.3447     0.2703     0.6226 H      1 <0>       0.1400
   33 H33      -2.7634     0.0169     0.2880 H      1 <0>       0.1400
   34 H34      -6.4959    -2.6119    -0.9562 H      1 <0>       0.0700
   35 H35      -6.4710    -4.3850    -0.8021 H      1 <0>       0.0800
   36 H36      -6.3468    -3.3636     0.6503 H      1 <0>       0.0800
   37 H37      -3.1023    -3.3740    -2.1306 H      1 <0>       0.0600
   38 H38      -4.3828    -4.5901    -2.3536 H      1 <0>       0.0800
   39 H39      -4.7403    -2.8648    -2.6058 H      1 <0>       0.0800
   40 H40      -3.8573    -5.1157     2.2190 H      1 <0>       0.3900
   41 H41      -1.9156    -4.4699    -2.0380 H      1 <0>       0.4000
   42 H42      -1.5520    -4.9248    -3.7781 H      1 <0>       0.1300
   43 H43      -1.1185    -5.7155    -6.0651 H      1 <0>       0.1400
   44 H44      -2.0733    -9.7078    -4.8828 H      1 <0>       0.1500
   45 H45      -2.5038    -8.9352    -2.5890 H      1 <0>       0.1500
   46 H46       0.1059    -3.9932     0.3859 H      1 <0>       0.1400
@<TRIPOS>BOND
   1    1    2 1
   2    1   29 1
   3    1   30 1
   4    1   31 1
   5    2    3 2
   6    2    4 1
   7    4   28 ar
   8    4    5 ar
   9    5    6 ar
  10    5   32 1
  11    6    7 ar
  12    6   33 1
  13    7   27 ar
  14    7    8 1
  15    8    9 1
  16    9   10 1
  17    9   11 1
  18    9   12 1
  19   10   34 1
  20   10   35 1
  21   10   36 1
  22   11   37 1
  23   11   38 1
  24   11   39 1
  25   12   13 1
  26   12   14 1
  27   12   15 1
  28   14   40 1
  29   15   16 1
  30   15   17 1
  31   15   27 1
  32   17   18 am
  33   17   41 1
  34   18   19 2
  35   18   20 1
  36   20   26 ar
  37   20   21 ar
  38   21   22 ar
  39   21   42 1
  40   22   23 ar
  41   22   43 1
  42   23   24 1
  43   23   25 ar
  44   25   26 ar
  45   25   44 1
  46   26   45 1
  47   27   28 ar
  48   28   46 1
