@<TRIPOS>MOLECULE
ZINC000012504514
69    71    1     0     0
SMALL
USER_CHARGES
@<TRIPOS>ATOM
1      C1      0.1869    1.5346    0.1530 C.3      1 ZINC000012504514   -0.1600
2      C2     -0.0401    0.0274    0.0207 C.3      1 ZINC000012504514   -0.0800
3      H3     -1.1102   -0.1795    0.0124 H        1 ZINC000012504514    0.0800
4      C4      0.6093   -0.6921    1.2046 C.3      1 ZINC000012504514   -0.0100
5      C5     -0.0734   -0.3033    2.4494 C.1      1 ZINC000012504514   -0.1500
6      C6     -0.6179    0.0068    3.4422 C.1      1 ZINC000012504514   -0.2300
7      C7     -1.3005    0.3956    4.6870 C.3      1 ZINC000012504514    0.2400
8      C8     -0.6511   -0.3238    5.8709 C.3      1 ZINC000012504514   -0.1400
9      C9     -1.1823    1.9085    4.8824 C.3      1 ZINC000012504514   -0.1700
10     O10    -2.6802    0.0320    4.6072 O.3      1 ZINC000012504514   -0.5500
11     C11     0.5857   -0.4700   -1.2839 C.3      1 ZINC000012504514   -0.0800
12     H12     1.6398   -0.1965   -1.3304 H        1 ZINC000012504514    0.0800
13     C13     0.4146   -2.0060   -1.4196 C.3      1 ZINC000012504514   -0.1200
14     C14     0.5421   -2.2152   -2.9526 C.3      1 ZINC000012504514   -0.1100
15     C15    -0.2249   -1.0109   -3.5422 C.3      1 ZINC000012504514   -0.0400
16     H16    -1.2661   -1.3134   -3.6540 H        1 ZINC000012504514    0.0800
17     C17     0.2902   -0.6724   -4.8906 C.2      1 ZINC000012504514   -0.0900
18     C18     0.3185   -1.6364   -5.8046 C.2      1 ZINC000012504514   -0.1500
19     C19     0.8205   -1.3523   -7.1580 C.2      1 ZINC000012504514   -0.1300
20     C20     0.7534   -2.2860   -8.1010 C.2      1 ZINC000012504514   -0.1000
21     C21     0.2575   -3.6785   -7.7800 C.3      1 ZINC000012504514   -0.1300
22     C22    -0.8389   -4.0488   -8.7843 C.3      1 ZINC000012504514    0.1100
23     H23    -1.1405   -5.0845   -8.6278 H        1 ZINC000012504514    0.0600
24     O24    -1.9661   -3.1906   -8.5974 O.3      1 ZINC000012504514   -0.5600
25     C25    -0.3018   -3.8834  -10.2069 C.3      1 ZINC000012504514   -0.1100
26     C26     0.0408   -2.4151  -10.4644 C.3      1 ZINC000012504514    0.1100
27     H27    -0.8397   -1.7990  -10.2822 H        1 ZINC000012504514    0.0700
28     O28     0.4624   -2.2548  -11.8204 O.3      1 ZINC000012504514   -0.5700
29     C29     1.1649   -1.9817   -9.5245 C.3      1 ZINC000012504514   -0.1200
30     C30     0.7814    0.6881   -5.2906 C.3      1 ZINC000012504514   -0.0900
31     C31     0.1137    1.7296   -4.3850 C.3      1 ZINC000012504514   -0.1200
32     C32     0.4592    1.3832   -2.9393 C.3      1 ZINC000012504514   -0.1100
33     C33    -0.1779    0.0981   -2.5045 C.3      1 ZINC000012504514   -0.0400
34     C34    -1.6206    0.3870   -2.0850 C.3      1 ZINC000012504514   -0.1500
35     H35     1.2565    1.7377    0.2066 H        1 ZINC000012504514    0.0500
36     H36    -0.2365    2.0433   -0.7131 H        1 ZINC000012504514    0.0700
37     H37    -0.2975    1.8968    1.0598 H        1 ZINC000012504514    0.0500
38     H38     0.5250   -1.7699    1.0654 H        1 ZINC000012504514    0.0900
39     H39     1.6616   -0.4147    1.2654 H        1 ZINC000012504514    0.0900
40     H40     0.4012   -0.0465    5.9318 H        1 ZINC000012504514    0.0700
41     H41    -1.1567   -0.0359    6.7927 H        1 ZINC000012504514    0.0700
42     H42    -0.7354   -1.4016    5.7317 H        1 ZINC000012504514    0.0700
43     H43    -1.6449    2.4210    4.0390 H        1 ZINC000012504514    0.0600
44     H44    -1.6878    2.1964    5.8042 H        1 ZINC000012504514    0.0700
45     H45    -0.1299    2.1858    4.9433 H        1 ZINC000012504514    0.0700
46     H46    -3.1561    0.4520    3.8777 H        1 ZINC000012504514    0.3800
47     H47     1.2071   -2.5333   -0.8886 H        1 ZINC000012504514    0.0700
48     H48    -0.5672   -2.3200   -1.0653 H        1 ZINC000012504514    0.0700
49     H49     1.5882   -2.1913   -3.2579 H        1 ZINC000012504514    0.0700
50     H50     0.0745   -3.1529   -3.2527 H        1 ZINC000012504514    0.0600
51     H51    -0.0272   -2.6284   -5.5541 H        1 ZINC000012504514    0.1100
52     H52     1.2437   -0.3850   -7.3850 H        1 ZINC000012504514    0.1200
53     H53     1.0814   -4.3878   -7.8592 H        1 ZINC000012504514    0.0800
54     H54    -0.1501   -3.6981   -6.7693 H        1 ZINC000012504514    0.0800
55     H55    -2.3581   -3.2429   -7.7150 H        1 ZINC000012504514    0.3800
56     H56     0.5947   -4.4914  -10.3287 H        1 ZINC000012504514    0.0800
57     H57    -1.0589   -4.2092  -10.9202 H        1 ZINC000012504514    0.0800
58     H58     0.6962   -1.3462  -12.0547 H        1 ZINC000012504514    0.3800
59     H59     1.3425   -0.9119   -9.6351 H        1 ZINC000012504514    0.0700
60     H60     2.0744   -2.5332   -9.7627 H        1 ZINC000012504514    0.0800
61     H61     1.8637    0.7374   -5.1708 H        1 ZINC000012504514    0.0700
62     H62     0.5175    0.8825   -6.3301 H        1 ZINC000012504514    0.0700
63     H63     0.4902    2.7237   -4.6262 H        1 ZINC000012504514    0.0600
64     H64    -0.9670    1.7001   -4.5233 H        1 ZINC000012504514    0.0600
65     H65     1.5408    1.2860   -2.8463 H        1 ZINC000012504514    0.0600
66     H66     0.1196    2.1903   -2.2901 H        1 ZINC000012504514    0.0700
67     H67    -2.1908    0.7219   -2.9515 H        1 ZINC000012504514    0.0500
68     H68    -2.0706   -0.5206   -1.6826 H        1 ZINC000012504514    0.0500
69     H69    -1.6282    1.1654   -1.3220 H        1 ZINC000012504514    0.0600
@<TRIPOS>BOND
1     1     2     1
2     1     35    1
3     1     36    1
4     1     37    1
5     2     3     1
6     2     4     1
7     2     11    1
8     4     5     1
9     4     38    1
10    4     39    1
11    5     6     3
12    6     7     1
13    7     8     1
14    7     9     1
15    7     10    1
16    8     40    1
17    8     41    1
18    8     42    1
19    9     43    1
20    9     44    1
21    9     45    1
22    10    46    1
23    11    12    1
24    11    33    1
25    11    13    1
26    13    14    1
27    13    47    1
28    13    48    1
29    14    15    1
30    14    49    1
31    14    50    1
32    15    16    1
33    15    33    1
34    15    17    1
35    17    18    2
36    17    30    1
37    18    19    1
38    18    51    1
39    19    20    2
40    19    52    1
41    20    29    1
42    20    21    1
43    21    22    1
44    21    53    1
45    21    54    1
46    22    23    1
47    22    24    1
48    22    25    1
49    24    55    1
50    25    26    1
51    25    56    1
52    25    57    1
53    26    27    1
54    26    28    1
55    26    29    1
56    28    58    1
57    29    59    1
58    29    60    1
59    30    31    1
60    30    61    1
61    30    62    1
62    31    32    1
63    31    63    1
64    31    64    1
65    32    33    1
66    32    65    1
67    32    66    1
68    33    34    1
69    34    67    1
70    34    68    1
71    34    69    1
@<TRIPOS>SUBSTRUCTURE
1   ZINC000012504514 1     RESIDUE    1   A     ZIN   1
