@<TRIPOS>MOLECULE
ZINC000136977733
42    42    1     0     0
SMALL
USER_CHARGES
@<TRIPOS>ATOM
1      C1      0.0823    1.4510   -0.2163 C.3      1 ZINC000136977733   -0.1900
2      C2      0.0237   -0.0664   -0.0289 C.3      1 ZINC000136977733   -0.0200
3      N3     -1.3740   -0.4850    0.1418 N.4      1 ZINC000136977733   -0.3800
4      H4     -1.7925    0.0392    0.8955 H        1 ZINC000136977733    0.4300
5      C5     -2.1159   -0.2330   -1.1009 C.3      1 ZINC000136977733   -0.0100
6      C6     -3.5996   -0.5332   -0.8788 C.3      1 ZINC000136977733   -0.1900
7      C7     -1.4206   -1.9189    0.4577 C.3      1 ZINC000136977733   -0.0300
8      C8     -0.7562   -2.1642    1.8139 C.3      1 ZINC000136977733    0.1000
9      N9     -0.8026   -3.5942    2.1289 N.am     1 ZINC000136977733   -0.7300
10     C10    -0.2733   -4.0476    3.2824 C.2      1 ZINC000136977733    0.5800
11     O11     0.2429   -3.2698    4.0616 O.2      1 ZINC000136977733   -0.5000
12     C12    -0.3201   -5.4875    3.5997 C.ar     1 ZINC000136977733   -0.1800
13     C13    -0.9058   -6.3812    2.7060 C.ar     1 ZINC000136977733    0.0100
14     C14    -0.9463   -7.7397    3.0126 C.ar     1 ZINC000136977733   -0.0600
15     C15    -1.5467   -8.6631    2.0975 C.1      1 ZINC000136977733    0.2400
16     N16    -2.0230   -9.3956    1.3715 N.1      1 ZINC000136977733   -0.3800
17     C17    -0.3988   -8.2020    4.2166 C.ar     1 ZINC000136977733    0.0700
18     Cl18   -0.4497   -9.8952    4.5965 Cl       1 ZINC000136977733   -0.0200
19     C19     0.1807   -7.3164    5.1004 C.ar     1 ZINC000136977733   -0.2100
20     C20     0.2308   -5.9623    4.8008 C.ar     1 ZINC000136977733    0.2400
21     O21     0.8020   -5.0963    5.6730 O.3      1 ZINC000136977733   -0.2700
22     C22     1.3320   -5.6467    6.8805 C.3      1 ZINC000136977733    0.0100
23     H23     1.1228    1.7753   -0.2311 H        1 ZINC000136977733    0.1100
24     H24    -0.3953    1.7194   -1.1586 H        1 ZINC000136977733    0.0800
25     H25    -0.4388    1.9392    0.6072 H        1 ZINC000136977733    0.0800
26     H26     0.4455   -0.5574   -0.9059 H        1 ZINC000136977733    0.1300
27     H27     0.5971   -0.3457    0.8550 H        1 ZINC000136977733    0.1300
28     H28    -1.9958    0.8109   -1.3904 H        1 ZINC000136977733    0.1400
29     H29    -1.7294   -0.8761   -1.8915 H        1 ZINC000136977733    0.1300
30     H30    -3.7314   -1.6000   -0.6980 H        1 ZINC000136977733    0.0800
31     H31    -3.9590    0.0285   -0.0166 H        1 ZINC000136977733    0.0800
32     H32    -4.1656   -0.2421   -1.7637 H        1 ZINC000136977733    0.1100
33     H33    -2.4588   -2.2488    0.4968 H        1 ZINC000136977733    0.1400
34     H34    -0.8905   -2.4782   -0.3131 H        1 ZINC000136977733    0.1400
35     H35     0.2820   -1.8343    1.7748 H        1 ZINC000136977733    0.0900
36     H36    -1.2864   -1.6049    2.5847 H        1 ZINC000136977733    0.0900
37     H37    -1.2144   -4.2146    1.5073 H        1 ZINC000136977733    0.4100
38     H38    -1.3274   -6.0221    1.7787 H        1 ZINC000136977733    0.1500
39     H39     0.6011   -7.6785    6.0270 H        1 ZINC000136977733    0.1600
40     H40     1.7586   -4.8479    7.4873 H        1 ZINC000136977733    0.1100
41     H41     0.5339   -6.1386    7.4366 H        1 ZINC000136977733    0.0700
42     H42     2.1077   -6.3733    6.6388 H        1 ZINC000136977733    0.0700
@<TRIPOS>BOND
1     1     2     1
2     1     23    1
3     1     24    1
4     1     25    1
5     2     3     1
6     2     26    1
7     2     27    1
8     3     4     1
9     3     5     1
10    3     7     1
11    5     6     1
12    5     28    1
13    5     29    1
14    6     30    1
15    6     31    1
16    6     32    1
17    7     8     1
18    7     33    1
19    7     34    1
20    8     9     1
21    8     35    1
22    8     36    1
23    9     10    am
24    9     37    1
25    10    11    2
26    10    12    1
27    12    20    ar
28    12    13    ar
29    13    14    ar
30    13    38    1
31    14    15    1
32    14    17    ar
33    15    16    3
34    17    18    1
35    17    19    ar
36    19    20    ar
37    19    39    1
38    20    21    1
39    21    22    1
40    22    40    1
41    22    41    1
42    22    42    1
@<TRIPOS>SUBSTRUCTURE
1   ZINC000136977733 1     RESIDUE    1   A     ZIN   1
