@<TRIPOS>MOLECULE
ZINC000033961869
32    35    1     0     0
SMALL
USER_CHARGES
@<TRIPOS>ATOM
1      C1     -0.0169    1.3926    0.0097 C.ar     1 ZINC000033961869   -0.2000
2      C2      1.1636    2.1025    0.0022 C.ar     1 ZINC000033961869    0.1200
3      N3      2.3545    1.5246   -0.0146 N.ar     1 ZINC000033961869   -0.4800
4      C4      2.4240    0.1941   -0.0251 C.ar     1 ZINC000033961869    0.3100
5      O5      3.5253   -0.5862   -0.0576 O.3      1 ZINC000033961869   -0.2700
6      C6      3.1704   -1.9166    0.3358 C.3      1 ZINC000033961869    0.0800
7      C7      1.6732   -2.0243   -0.0192 C.3      1 ZINC000033961869   -0.1000
8      C8      1.2553   -0.5784   -0.0132 C.ar     1 ZINC000033961869   -0.2200
9      C9      0.0021   -0.0041    0.0020 C.ar     1 ZINC000033961869   -0.0200
10     C10     3.9768   -2.9527   -0.4377 C.3      1 ZINC000033961869    0.0600
11     N11     4.6906   -3.8120    0.5205 N.3      1 ZINC000033961869   -0.5200
12     C12     5.6363   -3.0272    1.3261 C.3      1 ZINC000033961869    0.0500
13     C13     4.8713   -1.9851    2.1468 C.3      1 ZINC000033961869   -0.1500
14     C14     3.3725   -2.1138    1.8369 C.3      1 ZINC000033961869   -0.1000
15     C15     2.9283   -3.5375    2.2040 C.3      1 ZINC000033961869   -0.1500
16     C16     3.7456   -4.5370    1.3811 C.3      1 ZINC000033961869    0.0500
17     H17    -0.9604    1.9178    0.0260 H        1 ZINC000033961869    0.1400
18     H18     1.1153    3.1814    0.0102 H        1 ZINC000033961869    0.1600
19     H19     1.5366   -2.4662   -1.0063 H        1 ZINC000033961869    0.1000
20     H20     1.1318   -2.5904    0.7387 H        1 ZINC000033961869    0.1000
21     H21    -0.9028   -0.5935    0.0079 H        1 ZINC000033961869    0.1400
22     H22     3.3046   -3.5608   -1.0432 H        1 ZINC000033961869    0.1000
23     H23     4.6965   -2.4483   -1.0825 H        1 ZINC000033961869    0.1000
24     H24     6.1788   -3.6917    1.9985 H        1 ZINC000033961869    0.0800
25     H25     6.3428   -2.5227    0.6671 H        1 ZINC000033961869    0.0800
26     H26     5.0411   -2.1604    3.2091 H        1 ZINC000033961869    0.0700
27     H27     5.2151   -0.9858    1.8799 H        1 ZINC000033961869    0.0700
28     H28     2.8057   -1.3690    2.3956 H        1 ZINC000033961869    0.0800
29     H29     3.1005   -3.7115    3.2662 H        1 ZINC000033961869    0.0800
30     H30     1.8687   -3.6590    1.9790 H        1 ZINC000033961869    0.0700
31     H31     3.0742   -5.1321    0.7620 H        1 ZINC000033961869    0.0800
32     H32     4.2974   -5.1946    2.0527 H        1 ZINC000033961869    0.0800
@<TRIPOS>BOND
1     1     9     ar
2     1     2     ar
3     1     17    1
4     2     3     ar
5     2     18    1
6     3     4     ar
7     4     8     ar
8     4     5     1
9     5     6     1
10    6     14    1
11    6     7     1
12    6     10    1
13    7     8     1
14    7     19    1
15    7     20    1
16    8     9     ar
17    9     21    1
18    10    11    1
19    10    22    1
20    10    23    1
21    11    16    1
22    11    12    1
23    12    13    1
24    12    24    1
25    12    25    1
26    13    14    1
27    13    26    1
28    13    27    1
29    14    15    1
30    14    28    1
31    15    16    1
32    15    29    1
33    15    30    1
34    16    31    1
35    16    32    1
@<TRIPOS>SUBSTRUCTURE
1   ZINC000033961869 1     RESIDUE    1   A     ZIN   1
