@<TRIPOS>MOLECULE
ZINC000004212146
62    63    1     0     0
SMALL
USER_CHARGES
@<TRIPOS>ATOM
1      C1     -1.9710   -0.1868   -0.8808 C.3      1 ZINC000004212146   -0.1800
2      C2     -2.6909   -0.3246   -2.1975 C.2      1 ZINC000004212146    0.5200
3      O3     -3.5978    0.4314   -2.4749 O.2      1 ZINC000004212146   -0.5300
4      N4     -2.3269   -1.2880   -3.0669 N.am     1 ZINC000004212146   -0.6100
5      C5     -1.3318   -2.2896   -2.6760 C.3      1 ZINC000004212146    0.0900
6      C6     -2.0404   -3.5039   -2.0725 C.3      1 ZINC000004212146   -0.1600
7      C7     -0.9982   -4.4999   -1.5598 C.3      1 ZINC000004212146   -0.0300
8      C8     -1.7035   -5.6504   -0.8389 C.3      1 ZINC000004212146   -0.1100
9      C9     -0.6743   -6.4706   -0.0586 C.3      1 ZINC000004212146    0.0500
10     N10    -1.3137   -7.6824    0.4711 N.3      1 ZINC000004212146   -0.5300
11     C11    -2.6090   -7.3677    1.0871 C.3      1 ZINC000004212146    0.0500
12     C12    -3.3098   -8.6654    1.4957 C.3      1 ZINC000004212146   -0.1200
13     C13    -2.4247   -9.4280    2.4854 C.3      1 ZINC000004212146   -0.1200
14     C14    -1.0649   -9.7009    1.8365 C.3      1 ZINC000004212146   -0.1200
15     C15    -0.4291   -8.3732    1.4181 C.3      1 ZINC000004212146    0.0600
16     C16    -0.2090   -5.0442   -2.7226 C.2      1 ZINC000004212146    0.5300
17     N17    -0.5658   -4.7321   -3.9842 N.am     1 ZINC000004212146   -0.8500
18     O18     0.7471   -5.7632   -2.5230 O.2      1 ZINC000004212146   -0.5200
19     C19    -0.0660   -3.8032   -0.6023 C.ar     1 ZINC000004212146   -0.0600
20     C20     1.2883   -3.7503   -0.8716 C.ar     1 ZINC000004212146   -0.1000
21     C21     2.1437   -3.1112    0.0069 C.ar     1 ZINC000004212146   -0.1100
22     C22     1.6448   -2.5254    1.1551 C.ar     1 ZINC000004212146   -0.1100
23     C23     0.2902   -2.5777    1.4256 C.ar     1 ZINC000004212146   -0.1100
24     C24    -0.5669   -3.2116    0.5440 C.ar     1 ZINC000004212146   -0.0300
25     Cl25   -2.2682   -3.2777    0.8829 Cl       1 ZINC000004212146   -0.0600
26     C26    -2.9263   -1.3336   -4.4029 C.3      1 ZINC000004212146    0.1400
27     C27    -4.4382   -1.5319   -4.2771 C.3      1 ZINC000004212146   -0.1700
28     C28    -2.6434   -0.0196   -5.1339 C.3      1 ZINC000004212146   -0.1700
29     H29    -2.4565   -0.8148   -0.1338 H        1 ZINC000004212146    0.0900
30     H30    -0.9336   -0.4994   -0.9994 H        1 ZINC000004212146    0.0800
31     H31    -2.0023    0.8535   -0.5568 H        1 ZINC000004212146    0.0900
32     H32    -0.7639   -2.5992   -3.5533 H        1 ZINC000004212146    0.0800
33     H33    -0.6546   -1.8601   -1.9378 H        1 ZINC000004212146    0.0900
34     H34    -2.6727   -3.1816   -1.2452 H        1 ZINC000004212146    0.1000
35     H35    -2.6554   -3.9818   -2.8350 H        1 ZINC000004212146    0.0800
36     H36    -2.4449   -5.2469   -0.1493 H        1 ZINC000004212146    0.0900
37     H37    -2.1978   -6.2892   -1.5708 H        1 ZINC000004212146    0.0800
38     H38     0.1442   -6.7516   -0.7212 H        1 ZINC000004212146    0.1000
39     H39    -0.2852   -5.8747    0.7670 H        1 ZINC000004212146    0.0300
40     H40    -2.4504   -6.7473    1.9692 H        1 ZINC000004212146    0.0300
41     H41    -3.2303   -6.8292    0.3715 H        1 ZINC000004212146    0.0800
42     H42    -4.2642   -8.4307    1.9671 H        1 ZINC000004212146    0.0600
43     H43    -3.4811   -9.2802    0.6121 H        1 ZINC000004212146    0.0700
44     H44    -2.2852   -8.8293    3.3855 H        1 ZINC000004212146    0.0600
45     H45    -2.9004  -10.3735    2.7458 H        1 ZINC000004212146    0.0600
46     H46    -0.4154  -10.2061    2.5514 H        1 ZINC000004212146    0.0700
47     H47    -1.2009  -10.3320    0.9583 H        1 ZINC000004212146    0.0700
48     H48     0.5328   -8.5650    0.9428 H        1 ZINC000004212146    0.0700
49     H49    -0.2808   -7.7481    2.2986 H        1 ZINC000004212146    0.0300
50     H50    -1.3305   -4.1571   -4.1438 H        1 ZINC000004212146    0.4000
51     H51    -0.0578   -5.0825   -4.7326 H        1 ZINC000004212146    0.4000
52     H52     1.6788   -4.2085   -1.7682 H        1 ZINC000004212146    0.1500
53     H53     3.2021   -3.0701   -0.2040 H        1 ZINC000004212146    0.1300
54     H54     2.3135   -2.0270    1.8412 H        1 ZINC000004212146    0.1300
55     H55    -0.0995   -2.1199    2.3227 H        1 ZINC000004212146    0.1400
56     H56    -2.4968   -2.1623   -4.9658 H        1 ZINC000004212146    0.0800
57     H57    -4.8818   -0.6547   -3.8061 H        1 ZINC000004212146    0.0800
58     H58    -4.8703   -1.6698   -5.2682 H        1 ZINC000004212146    0.0600
59     H59    -4.6396   -2.4126   -3.6672 H        1 ZINC000004212146    0.0500
60     H60    -1.5664    0.1217   -5.2236 H        1 ZINC000004212146    0.0500
61     H61    -3.0894   -0.0536   -6.1280 H        1 ZINC000004212146    0.0700
62     H62    -3.0730    0.8091   -4.5711 H        1 ZINC000004212146    0.0800
@<TRIPOS>BOND
1     1     2     1
2     1     29    1
3     1     30    1
4     1     31    1
5     2     3     2
6     2     4     am
7     4     5     1
8     4     26    1
9     5     6     1
10    5     32    1
11    5     33    1
12    6     7     1
13    6     34    1
14    6     35    1
15    7     8     1
16    7     16    1
17    7     19    1
18    8     9     1
19    8     36    1
20    8     37    1
21    9     10    1
22    9     38    1
23    9     39    1
24    10    15    1
25    10    11    1
26    11    12    1
27    11    40    1
28    11    41    1
29    12    13    1
30    12    42    1
31    12    43    1
32    13    14    1
33    13    44    1
34    13    45    1
35    14    15    1
36    14    46    1
37    14    47    1
38    15    48    1
39    15    49    1
40    16    17    am
41    16    18    2
42    17    50    1
43    17    51    1
44    19    24    ar
45    19    20    ar
46    20    21    ar
47    20    52    1
48    21    22    ar
49    21    53    1
50    22    23    ar
51    22    54    1
52    23    24    ar
53    23    55    1
54    24    25    1
55    26    27    1
56    26    28    1
57    26    56    1
58    27    57    1
59    27    58    1
60    27    59    1
61    28    60    1
62    28    61    1
63    28    62    1
@<TRIPOS>SUBSTRUCTURE
1   ZINC000004212146 1     RESIDUE    1   A     ZIN   1
