@<TRIPOS>MOLECULE
ZINC000013913142
52    56    1     0     0
SMALL
USER_CHARGES
@<TRIPOS>ATOM
1      O1      0.0136    0.0144   -0.2719 O.co2    1 ZINC000013913142   -0.7000
2      C2     -0.0073    1.2318   -0.1458 C.2      1 ZINC000013913142    0.5400
3      O3      1.0415    1.8546   -0.0423 O.co2    1 ZINC000013913142   -0.6600
4      C4     -1.2884    1.9448   -0.1246 C.2      1 ZINC000013913142   -0.2800
5      C5     -2.4773    1.2539   -0.2403 C.2      1 ZINC000013913142    0.1600
6      N6     -3.6731    1.8626   -0.2241 N.pl3    1 ZINC000013913142   -0.4900
7      C7     -3.7961    3.2362   -0.1096 C.ar     1 ZINC000013913142    0.1400
8      C8     -5.0530    3.8371   -0.1286 C.ar     1 ZINC000013913142    0.1100
9      O9     -6.1696    3.0698   -0.2731 O.3      1 ZINC000013913142   -0.2800
10     C10    -5.9965    1.8452   -0.9963 C.3      1 ZINC000013913142    0.0500
11     C11    -4.8840    1.0340   -0.3266 C.3      1 ZINC000013913142    0.0600
12     H12    -4.6693    0.1482   -0.9244 H        1 ZINC000013913142    0.1300
13     C13    -5.3333    0.6092    1.0729 C.3      1 ZINC000013913142    0.0500
14     F14    -4.3164   -0.1320    1.6842 F        1 ZINC000013913142   -0.2000
15     C15    -5.1693    5.2143   -0.0020 C.ar     1 ZINC000013913142    0.0600
16     N16    -6.4331    5.8073   -0.0153 N.3      1 ZINC000013913142   -0.4800
17     C17    -6.5552    6.7621   -1.1258 C.3      1 ZINC000013913142    0.0400
18     C18    -7.9764    7.3294   -1.1533 C.3      1 ZINC000013913142    0.0500
19     N19    -8.2661    7.9808    0.1317 N.3      1 ZINC000013913142   -0.4900
20     C20    -9.5244    8.5712    0.1185 C.ar     1 ZINC000013913142    0.3700
21     C21   -10.3155    8.4824   -1.0221 C.ar     1 ZINC000013913142   -0.1800
22     C22   -11.5659    9.0743   -1.0214 C.ar     1 ZINC000013913142    0.0300
23     C23   -11.9845    9.7374    0.1243 C.ar     1 ZINC000013913142   -0.1500
24     C24   -11.1473    9.7866    1.2211 C.ar     1 ZINC000013913142    0.1500
25     N25    -9.9616    9.2086    1.1938 N.ar     1 ZINC000013913142   -0.4700
26     H26    -9.3931    9.2579    1.9783 H        1 ZINC000013913142    0.4500
27     C27    -8.1440    7.0261    1.2422 C.3      1 ZINC000013913142    0.0500
28     C28    -6.7227    6.4587    1.2697 C.3      1 ZINC000013913142    0.0500
29     C29    -4.0316    6.0106    0.1389 C.ar     1 ZINC000013913142    0.0400
30     F30    -4.1570    7.3499    0.2651 F        1 ZINC000013913142   -0.1300
31     C31    -2.7819    5.4331    0.1499 C.ar     1 ZINC000013913142   -0.0700
32     C32    -2.6549    4.0474    0.0227 C.ar     1 ZINC000013913142   -0.1300
33     C33    -1.3274    3.4093    0.0266 C.2      1 ZINC000013913142    0.4100
34     O34    -0.3066    4.0644    0.1455 O.2      1 ZINC000013913142   -0.4300
35     H35    -2.4440    0.1798   -0.3485 H        1 ZINC000013913142    0.1700
36     H36    -6.9257    1.2757   -0.9789 H        1 ZINC000013913142    0.1400
37     H37    -5.7189    2.0654   -2.0271 H        1 ZINC000013913142    0.0800
38     H38    -5.5466    1.4954    1.6706 H        1 ZINC000013913142    0.0800
39     H39    -6.2324   -0.0021    0.9959 H        1 ZINC000013913142    0.1000
40     H40    -5.8420    7.5745   -0.9869 H        1 ZINC000013913142    0.0700
41     H41    -6.3485    6.2532   -2.0673 H        1 ZINC000013913142    0.1100
42     H42    -8.0610    8.0594   -1.9583 H        1 ZINC000013913142    0.1100
43     H43    -8.6878    6.5204   -1.3194 H        1 ZINC000013913142    0.0900
44     H44    -9.9582    7.9589   -1.8966 H        1 ZINC000013913142    0.1900
45     H45   -12.2021    9.0219   -1.8926 H        1 ZINC000013913142    0.1800
46     H46   -12.9549   10.2102    0.1572 H        1 ZINC000013913142    0.1800
47     H47   -11.4690   10.3013    2.1145 H        1 ZINC000013913142    0.2100
48     H48    -8.3507    7.5349    2.1837 H        1 ZINC000013913142    0.0900
49     H49    -8.8572    6.2136    1.1033 H        1 ZINC000013913142    0.0900
50     H50    -6.6381    5.7287    2.0747 H        1 ZINC000013913142    0.1000
51     H51    -6.0114    7.2677    1.4358 H        1 ZINC000013913142    0.0700
52     H52    -1.9017    6.0497    0.2565 H        1 ZINC000013913142    0.1600
@<TRIPOS>BOND
1     1     2     ar
2     2     3     ar
3     2     4     1
4     4     33    1
5     4     5     2
6     5     6     1
7     5     35    1
8     6     11    1
9     6     7     1
10    7     32    ar
11    7     8     ar
12    8     9     1
13    8     15    ar
14    9     10    1
15    10    11    1
16    10    36    1
17    10    37    1
18    11    12    1
19    11    13    1
20    13    14    1
21    13    38    1
22    13    39    1
23    15    16    1
24    15    29    ar
25    16    28    1
26    16    17    1
27    17    18    1
28    17    40    1
29    17    41    1
30    18    19    1
31    18    42    1
32    18    43    1
33    19    20    1
34    19    27    1
35    20    25    ar
36    20    21    ar
37    21    22    ar
38    21    44    1
39    22    23    ar
40    22    45    1
41    23    24    ar
42    23    46    1
43    24    25    ar
44    24    47    1
45    25    26    1
46    27    28    1
47    27    48    1
48    27    49    1
49    28    50    1
50    28    51    1
51    29    30    1
52    29    31    ar
53    31    32    ar
54    31    52    1
55    32    33    1
56    33    34    2
@<TRIPOS>SUBSTRUCTURE
1   ZINC000013913142 1     RESIDUE    1   A     ZIN   1
