@<TRIPOS>MOLECULE
ZINC000014128458
60    66    1     0     0
SMALL
USER_CHARGES
@<TRIPOS>ATOM
1      C1      0.8138   -0.9602   -0.7731 C.3      1 ZINC000014128458   -0.1500
2      C2     -0.1408   -0.0178   -0.0371 C.3      1 ZINC000014128458   -0.0800
3      C3     -0.2247    1.3122   -0.7889 C.3      1 ZINC000014128458   -0.1400
4      C4     -1.5310   -0.6526    0.0329 C.3      1 ZINC000014128458    0.0500
5      O5     -2.5176   -0.0686   -0.7865 O.3      1 ZINC000014128458   -0.3100
6      C6     -2.6237    0.2344    0.6226 C.3      1 ZINC000014128458   -0.0100
7      H7     -2.3496    1.2330    0.9627 H        1 ZINC000014128458    0.1500
8      C8     -3.8586   -0.3852    1.2810 C.3      1 ZINC000014128458    0.0100
9      H9     -4.7577    0.2310    1.2740 H        1 ZINC000014128458    0.1500
10     O10    -3.6341   -1.2266    2.4188 O.3      1 ZINC000014128458   -0.2900
11     C11    -4.0341   -1.9040    1.2033 C.3      1 ZINC000014128458    0.0600
12     C12    -3.0155   -2.6960    0.3844 C.3      1 ZINC000014128458    0.0300
13     O13    -3.1292   -4.1257    0.3936 O.3      1 ZINC000014128458   -0.3200
14     C14    -3.5240   -3.4721   -0.8222 C.3      1 ZINC000014128458    0.0300
15     H15    -2.8564   -3.5616   -1.6792 H        1 ZINC000014128458    0.1400
16     C16    -5.0124   -3.5230   -1.1426 C.3      1 ZINC000014128458   -0.1100
17     C17    -5.7964   -2.4295   -0.4406 C.3      1 ZINC000014128458   -0.0200
18     H18    -5.5341   -1.4675   -0.8810 H        1 ZINC000014128458    0.1100
19     C19    -7.2764   -2.6469   -0.5898 C.2      1 ZINC000014128458   -0.0900
20     C20    -8.1726   -2.4737    0.3852 C.2      1 ZINC000014128458   -0.2000
21     C21    -7.8178   -2.0332    1.7861 C.3      1 ZINC000014128458   -0.0600
22     C22    -6.4069   -1.4337    1.7707 C.3      1 ZINC000014128458   -0.1200
23     C23    -5.4742   -2.4101    1.0518 C.3      1 ZINC000014128458   -0.0200
24     C24    -5.6205   -3.8060    1.6610 C.3      1 ZINC000014128458   -0.1600
25     C25    -9.5085   -2.7753   -0.1297 C.2      1 ZINC000014128458    0.5000
26     O26   -10.5359   -2.7093    0.5162 O.2      1 ZINC000014128458   -0.4500
27     O27    -9.4321   -3.1370   -1.4253 O.3      1 ZINC000014128458   -0.3200
28     C28    -8.0294   -3.0866   -1.8160 C.3      1 ZINC000014128458    0.0700
29     C29    -1.5339   -2.1228    0.4066 C.3      1 ZINC000014128458    0.1400
30     H30    -0.9300   -2.6704   -0.3169 H        1 ZINC000014128458    0.1100
31     O31    -0.9724   -2.3130    1.7321 O.3      1 ZINC000014128458   -0.3300
32     C32    -0.2434   -3.4222    1.9317 C.2      1 ZINC000014128458    0.4600
33     O33    -0.1575   -4.2538    1.0594 O.2      1 ZINC000014128458   -0.5000
34     C34     0.4681   -3.6303    3.2438 C.3      1 ZINC000014128458   -0.0800
35     C35     1.2204   -4.9621    3.2104 C.3      1 ZINC000014128458   -0.1700
36     C36     1.9319   -5.1702    4.5225 C.2      1 ZINC000014128458    0.4900
37     O37     1.8453   -4.3310    5.4027 O.co2    1 ZINC000014128458   -0.7000
38     O38     2.5941   -6.1777    4.7038 O.co2    1 ZINC000014128458   -0.7000
39     H39     1.8043   -0.5079   -0.8230 H        1 ZINC000014128458    0.0700
40     H40     0.8736   -1.9077   -0.2375 H        1 ZINC000014128458    0.0600
41     H41     0.4435   -1.1364   -1.7830 H        1 ZINC000014128458    0.0600
42     H42     0.2295    0.1585    0.9728 H        1 ZINC000014128458    0.1000
43     H43    -0.9680    1.9521   -0.3133 H        1 ZINC000014128458    0.0600
44     H44     0.7473    1.8048   -0.7654 H        1 ZINC000014128458    0.0600
45     H45    -0.5133    1.1271   -1.8236 H        1 ZINC000014128458    0.0600
46     H46    -5.1451   -3.4162   -2.2192 H        1 ZINC000014128458    0.1000
47     H47    -5.4062   -4.4918   -0.8353 H        1 ZINC000014128458    0.0900
48     H48    -8.5307   -1.2814    2.1246 H        1 ZINC000014128458    0.0900
49     H49    -7.8428   -2.8921    2.4567 H        1 ZINC000014128458    0.0900
50     H50    -6.4247   -0.4768    1.2490 H        1 ZINC000014128458    0.0700
51     H51    -6.0656   -1.2822    2.7947 H        1 ZINC000014128458    0.0900
52     H52    -6.6511   -4.1438    1.5519 H        1 ZINC000014128458    0.0600
53     H53    -4.9547   -4.4986    1.1463 H        1 ZINC000014128458    0.0800
54     H54    -5.3601   -3.7698    2.7188 H        1 ZINC000014128458    0.0700
55     H55    -7.8892   -2.3660   -2.6217 H        1 ZINC000014128458    0.1200
56     H56    -7.6912   -4.0738   -2.1308 H        1 ZINC000014128458    0.1200
57     H57     1.1757   -2.8173    3.4064 H        1 ZINC000014128458    0.1100
58     H58    -0.2608   -3.6449    4.0541 H        1 ZINC000014128458    0.1100
59     H59     0.5128   -5.7751    3.0479 H        1 ZINC000014128458    0.0700
60     H60     1.9493   -4.9475    2.4002 H        1 ZINC000014128458    0.0700
@<TRIPOS>BOND
1     1     2     1
2     1     39    1
3     1     40    1
4     1     41    1
5     2     3     1
6     2     4     1
7     2     42    1
8     3     43    1
9     3     44    1
10    3     45    1
11    4     6     1
12    4     29    1
13    4     5     1
14    5     6     1
15    6     7     1
16    6     8     1
17    8     9     1
18    8     11    1
19    8     10    1
20    10    11    1
21    11    23    1
22    11    12    1
23    12    14    1
24    12    13    1
25    12    29    1
26    13    14    1
27    14    15    1
28    14    16    1
29    16    17    1
30    16    46    1
31    16    47    1
32    17    18    1
33    17    23    1
34    17    19    1
35    19    28    1
36    19    20    2
37    20    21    1
38    20    25    1
39    21    22    1
40    21    48    1
41    21    49    1
42    22    23    1
43    22    50    1
44    22    51    1
45    23    24    1
46    24    52    1
47    24    53    1
48    24    54    1
49    25    26    2
50    25    27    1
51    27    28    1
52    28    55    1
53    28    56    1
54    29    30    1
55    29    31    1
56    31    32    1
57    32    33    2
58    32    34    1
59    34    35    1
60    34    57    1
61    34    58    1
62    35    36    1
63    35    59    1
64    35    60    1
65    36    37    ar
66    36    38    ar
@<TRIPOS>SUBSTRUCTURE
1   ZINC000014128458 1     RESIDUE    1   A     ZIN   1
