@<TRIPOS>MOLECULE
ZINC000022454198
63    66    1     0     0
SMALL
USER_CHARGES
@<TRIPOS>ATOM
1      C1      3.5470   -2.4904    4.2386 C.3      1 ZINC000022454198   -0.1800
2      C2      2.8807   -1.9798    2.9595 C.3      1 ZINC000022454198   -0.0500
3      N3      1.6912   -2.7916    2.6693 N.4      1 ZINC000022454198   -0.3800
4      H4      1.9624   -3.7567    2.5550 H        1 ZINC000022454198    0.4200
5      C5      0.7384   -2.6791    3.7818 C.3      1 ZINC000022454198   -0.0200
6      C6     -0.4310   -3.6383    3.5506 C.3      1 ZINC000022454198   -0.1900
7      C7      1.0598   -2.3107    1.4332 C.3      1 ZINC000022454198   -0.0100
8      C8      1.9875   -2.5828    0.2474 C.3      1 ZINC000022454198    0.0600
9      H9      1.4775   -2.3219   -0.6800 H        1 ZINC000022454198    0.1000
10     C10     2.3624   -4.0663    0.2232 C.3      1 ZINC000022454198   -0.1200
11     C11     3.3066   -4.3300   -0.9530 C.3      1 ZINC000022454198   -0.1200
12     C12     4.5430   -3.4374   -0.8148 C.3      1 ZINC000022454198   -0.1200
13     C13     4.1049   -1.9721   -0.7605 C.3      1 ZINC000022454198    0.0500
14     N14     3.2041   -1.7715    0.3817 N.3      1 ZINC000022454198   -0.5200
15     C15     2.8729   -0.3499    0.5476 C.3      1 ZINC000022454198    0.0100
16     C16     4.0898    0.3964    1.0304 C.2      1 ZINC000022454198    0.5300
17     O17     5.1392   -0.1913    1.1866 O.2      1 ZINC000022454198   -0.4800
18     N18     4.0120    1.7169    1.2886 N.am     1 ZINC000022454198   -0.5100
19     C19     5.1552    2.4375    1.6306 C.ar     1 ZINC000022454198    0.1600
20     C20     5.8789    2.0917    2.7628 C.ar     1 ZINC000022454198   -0.1000
21     C21     6.9923    2.8253    3.1236 C.ar     1 ZINC000022454198   -0.0800
22     C22     7.3916    3.9097    2.3606 C.ar     1 ZINC000022454198   -0.1100
23     C23     6.6916    4.2579    1.2253 C.ar     1 ZINC000022454198   -0.0500
24     C24     5.5729    3.5144    0.8380 C.ar     1 ZINC000022454198   -0.1400
25     C25     4.8786    3.8387   -0.4143 C.2      1 ZINC000022454198    0.5700
26     O26     5.5652    4.1894   -1.3543 O.2      1 ZINC000022454198   -0.5100
27     N27     3.5705    3.7823   -0.6099 N.am     1 ZINC000022454198   -0.6600
28     C28     2.5980    3.4288    0.3192 C.ar     1 ZINC000022454198    0.1200
29     C29     1.3994    4.1362    0.3524 C.ar     1 ZINC000022454198   -0.0800
30     C30     0.4238    3.7484    1.2589 C.ar     1 ZINC000022454198   -0.1300
31     C31     0.6660    2.6764    2.0942 C.ar     1 ZINC000022454198    0.1100
32     N32     1.8160    2.0319    2.0517 N.ar     1 ZINC000022454198   -0.4800
33     C33     2.7844    2.3822    1.2112 C.ar     1 ZINC000022454198    0.3000
34     H34     3.7448   -3.5582    4.1439 H        1 ZINC000022454198    0.0800
35     H35     4.4859   -1.9596    4.3960 H        1 ZINC000022454198    0.1000
36     H36     2.8851   -2.3174    5.0871 H        1 ZINC000022454198    0.0700
37     H37     2.5863   -0.9390    3.0937 H        1 ZINC000022454198    0.1200
38     H38     3.5829   -2.0546    2.1292 H        1 ZINC000022454198    0.1900
39     H39     1.2387   -2.9346    4.7159 H        1 ZINC000022454198    0.1300
40     H40     0.3642   -1.6569    3.8377 H        1 ZINC000022454198    0.1300
41     H41    -0.8878   -3.4279    2.5836 H        1 ZINC000022454198    0.0800
42     H42    -0.0666   -4.6655    3.5645 H        1 ZINC000022454198    0.0800
43     H43    -1.1717   -3.5049    4.3391 H        1 ZINC000022454198    0.1100
44     H44     0.1143   -2.8315    1.2818 H        1 ZINC000022454198    0.1400
45     H45     0.8758   -1.2392    1.5123 H        1 ZINC000022454198    0.1300
46     H46     2.8603   -4.3311    1.1560 H        1 ZINC000022454198    0.0700
47     H47     1.4607   -4.6677    0.1079 H        1 ZINC000022454198    0.0900
48     H48     3.6107   -5.3767   -0.9485 H        1 ZINC000022454198    0.0800
49     H49     2.7957   -4.1022   -1.8885 H        1 ZINC000022454198    0.0700
50     H50     5.0752   -3.6923    0.1017 H        1 ZINC000022454198    0.0800
51     H51     5.1993   -3.5895   -1.6717 H        1 ZINC000022454198    0.0800
52     H52     4.9819   -1.3348   -0.6477 H        1 ZINC000022454198    0.1000
53     H53     3.5849   -1.7141   -1.6830 H        1 ZINC000022454198    0.0500
54     H54     2.5497    0.0618   -0.4085 H        1 ZINC000022454198    0.0800
55     H55     2.0700   -0.2467    1.2776 H        1 ZINC000022454198    0.1200
56     H56     5.5710    1.2482    3.3629 H        1 ZINC000022454198    0.1300
57     H57     7.5536    2.5522    4.0050 H        1 ZINC000022454198    0.1400
58     H58     8.2558    4.4857    2.6567 H        1 ZINC000022454198    0.1400
59     H59     7.0073    5.1055    0.6352 H        1 ZINC000022454198    0.1400
60     H60     3.2561    4.0130   -1.4981 H        1 ZINC000022454198    0.4200
61     H61     1.2327    4.9698   -0.3137 H        1 ZINC000022454198    0.1600
62     H62    -0.5151    4.2796    1.3109 H        1 ZINC000022454198    0.1600
63     H63    -0.0960    2.3616    2.7919 H        1 ZINC000022454198    0.1700
@<TRIPOS>BOND
1     1     2     1
2     1     34    1
3     1     35    1
4     1     36    1
5     2     3     1
6     2     37    1
7     2     38    1
8     3     4     1
9     3     5     1
10    3     7     1
11    5     6     1
12    5     39    1
13    5     40    1
14    6     41    1
15    6     42    1
16    6     43    1
17    7     8     1
18    7     44    1
19    7     45    1
20    8     9     1
21    8     14    1
22    8     10    1
23    10    11    1
24    10    46    1
25    10    47    1
26    11    12    1
27    11    48    1
28    11    49    1
29    12    13    1
30    12    50    1
31    12    51    1
32    13    14    1
33    13    52    1
34    13    53    1
35    14    15    1
36    15    16    1
37    15    54    1
38    15    55    1
39    16    17    2
40    16    18    am
41    18    33    1
42    18    19    1
43    19    24    ar
44    19    20    ar
45    20    21    ar
46    20    56    1
47    21    22    ar
48    21    57    1
49    22    23    ar
50    22    58    1
51    23    24    ar
52    23    59    1
53    24    25    1
54    25    26    2
55    25    27    am
56    27    28    1
57    27    60    1
58    28    33    ar
59    28    29    ar
60    29    30    ar
61    29    61    1
62    30    31    ar
63    30    62    1
64    31    32    ar
65    31    63    1
66    32    33    ar
@<TRIPOS>SUBSTRUCTURE
1   ZINC000022454198 1     RESIDUE    1   A     ZIN   1
