@<TRIPOS>MOLECULE
ZINC000033821171
  34   35    0    0    0
SMALL
USER_CHARGES
NO_NAME
@<TRIPOS>ATOM
    1 C1       -0.0187     1.5258     0.0104 C.3    1 <0>      -0.1900
    2 C2        0.0021    -0.0041     0.0020 C.3    1 <0>       0.0800
    3 H3        0.5123    -0.3556    -0.8948 H      1 <0>       0.0600
    4 O4       -1.3386    -0.4987     0.0122 O.3    1 <0>      -0.5600
    5 C5        0.7421    -0.5109     1.2415 C.3    1 <0>       0.1000
    6 H6        0.2319    -0.1594     2.1383 H      1 <0>       0.1000
    7 O7        2.0827    -0.0163     1.2314 O.3    1 <0>      -0.5400
    8 C8        0.7628    -2.0407     1.2331 C.3    1 <0>       0.1100
    9 H9        1.2723    -2.3967     0.3377 H      1 <0>       0.1200
   10 C10       1.4908    -2.5560     2.4830 C.3    1 <0>       0.1100
   11 N11       0.7293    -2.1366     3.6690 N.pl3  1 <0>      -0.7000
   12 C12      -0.6515    -2.2974     3.6722 C.ar   1 <0>       0.4100
   13 N13      -1.3421    -2.2571     4.8071 N.ar   1 <0>      -0.5700
   14 H14      -0.8793    -2.1142     5.6475 H      1 <0>       0.4400
   15 C15      -2.6587    -2.4104     4.7989 C.ar   1 <0>       0.6600
   16 N16      -3.3482    -2.3631     6.0010 N.pl3  1 <0>      -0.8000
   17 N17      -3.3356    -2.6078     3.6784 N.ar   1 <0>      -0.5700
   18 C18      -2.7111    -2.6610     2.5018 C.ar   1 <0>       0.5100
   19 N19      -3.4263    -2.8680     1.3284 N.pl3  1 <0>      -0.7900
   20 C20      -1.3288    -2.5046     2.4724 C.ar   1 <0>       0.0100
   21 N21      -0.6155    -2.5564     1.2586 N.pl3  1 <0>      -0.7000
   22 H22       1.0039     1.9031     0.0027 H      1 <0>       0.0800
   23 H23      -0.5459     1.8868    -0.8726 H      1 <0>       0.0600
   24 H24      -0.5289     1.8773     0.9072 H      1 <0>       0.0600
   25 H25      -1.8677    -0.2163    -0.7464 H      1 <0>       0.3800
   26 H26       2.5972    -0.2904     0.4599 H      1 <0>       0.3800
   27 H27       1.5504    -3.6439     2.4508 H      1 <0>       0.0900
   28 H28       2.4949    -2.1339     2.5232 H      1 <0>       0.1200
   29 H29       1.1830    -1.7544     4.4365 H      1 <0>       0.4200
   30 H30      -2.8669    -2.2196     6.8309 H      1 <0>       0.4300
   31 H31      -4.3118    -2.4735     6.0121 H      1 <0>       0.4400
   32 H32      -4.3898    -2.9754     1.3602 H      1 <0>       0.4300
   33 H33      -2.9619    -2.9050     0.4776 H      1 <0>       0.4200
   34 H34      -1.0232    -2.9241     0.4590 H      1 <0>       0.4100
@<TRIPOS>BOND
   1    1    2 1
   2    1   22 1
   3    1   23 1
   4    1   24 1
   5    2    3 1
   6    2    4 1
   7    2    5 1
   8    4   25 1
   9    5    6 1
  10    5    7 1
  11    5    8 1
  12    7   26 1
  13    8    9 1
  14    8   21 1
  15    8   10 1
  16   10   11 1
  17   10   27 1
  18   10   28 1
  19   11   12 1
  20   11   29 1
  21   12   20 ar
  22   12   13 ar
  23   13   14 1
  24   13   15 ar
  25   15   16 1
  26   15   17 ar
  27   16   30 1
  28   16   31 1
  29   17   18 ar
  30   18   19 1
  31   18   20 ar
  32   19   32 1
  33   19   33 1
  34   20   21 1
  35   21   34 1
