@<TRIPOS>MOLECULE
ZINC000003925368
83    87    1     0     0
SMALL
USER_CHARGES
@<TRIPOS>ATOM
1      O1     -0.0873    1.2662   -2.6857 O.2      1 ZINC000003925368   -0.4300
2      C2      0.0295    2.4672   -2.6385 C.2      1 ZINC000003925368    0.3700
3      C3      1.3656    3.0820   -2.3096 C.3      1 ZINC000003925368   -0.1600
4      C4      2.3949    1.9732   -2.0817 C.3      1 ZINC000003925368   -0.1100
5      C5      3.7513    2.5974   -1.7479 C.3      1 ZINC000003925368   -0.1200
6      C6      4.7807    1.4886   -1.5200 C.3      1 ZINC000003925368   -0.1200
7      C7      6.1371    2.1128   -1.1861 C.3      1 ZINC000003925368   -0.1200
8      C8      7.1665    1.0040   -0.9582 C.3      1 ZINC000003925368    0.1300
9      H9      7.1987    0.3429   -1.8241 H        1 ZINC000003925368    0.0900
10     N10     6.8155    0.2287    0.2590 N.am     1 ZINC000003925368   -0.7200
11     C11     7.8331   -0.5237    0.7617 C.2      1 ZINC000003925368    0.4900
12     O12     8.8383   -0.6944    0.1049 O.2      1 ZINC000003925368   -0.5000
13     C13     7.7178   -1.1440    2.1276 C.3      1 ZINC000003925368    0.1400
14     H14     7.2818   -0.4300    2.8293 H        1 ZINC000003925368    0.1000
15     C15     6.8695   -2.4160    2.0734 C.3      1 ZINC000003925368   -0.1200
16     C16     7.7726   -3.5575    2.5689 C.3      1 ZINC000003925368   -0.1200
17     C17     9.1895   -2.9657    2.5794 C.3      1 ZINC000003925368    0.1300
18     N18     9.0613   -1.5126    2.5850 N.am     1 ZINC000003925368   -0.6800
19     C19     9.9852   -0.6027    2.9060 C.2      1 ZINC000003925368    0.5800
20     O20     9.8679   -0.0312    3.9693 O.2      1 ZINC000003925368   -0.4600
21     C21    11.1533   -0.2388    2.0467 C.3      1 ZINC000003925368    0.1200
22     H22    11.4647   -1.1051    1.4631 H        1 ZINC000003925368    0.1100
23     C23    12.3127    0.2357    2.9252 C.3      1 ZINC000003925368   -0.0800
24     C24    13.5254    0.4837    2.0656 C.ar     1 ZINC000003925368   -0.0600
25     C25    14.4232   -0.5395    1.8252 C.ar     1 ZINC000003925368   -0.1000
26     C26    15.5356   -0.3119    1.0368 C.ar     1 ZINC000003925368   -0.1100
27     C27    15.7499    0.9387    0.4883 C.ar     1 ZINC000003925368   -0.1200
28     C28    14.8516    1.9617    0.7280 C.ar     1 ZINC000003925368   -0.1200
29     C29    13.7370    1.7330    1.5129 C.ar     1 ZINC000003925368   -0.1100
30     N30    10.7340    0.8551    1.1351 N.am     1 ZINC000003925368   -0.7000
31     C31    11.3181    0.8542   -0.0987 C.2      1 ZINC000003925368    0.5300
32     O32    12.1887    0.0545   -0.3695 O.2      1 ZINC000003925368   -0.5100
33     C33    10.8594    1.8673   -1.1200 C.3      1 ZINC000003925368    0.1400
34     H34    11.5737    1.9150   -1.9419 H        1 ZINC000003925368    0.1100
35     C35    10.7267    3.2437   -0.4651 C.3      1 ZINC000003925368   -0.1300
36     C36    10.1423    4.2172   -1.4559 C.ar     1 ZINC000003925368   -0.0700
37     C37    10.9762    4.9427   -2.2861 C.ar     1 ZINC000003925368   -0.1200
38     C38    10.4402    5.8357   -3.1950 C.ar     1 ZINC000003925368   -0.1200
39     C39     9.0702    6.0028   -3.2741 C.ar     1 ZINC000003925368   -0.1200
40     C40     8.2363    5.2766   -2.4446 C.ar     1 ZINC000003925368   -0.1200
41     C41     8.7721    4.3805   -1.5386 C.ar     1 ZINC000003925368   -0.1200
42     N42     9.5316    1.4141   -1.6268 N.am     1 ZINC000003925368   -0.7000
43     C43     8.5271    1.6063   -0.7199 C.2      1 ZINC000003925368    0.5400
44     O44     8.7307    2.2627    0.2794 O.2      1 ZINC000003925368   -0.5300
45     C45    -1.1593    3.3513   -2.9145 C.3      1 ZINC000003925368   -0.0700
46     H46    -1.1279    3.9071   -3.8516 H        1 ZINC000003925368    0.1500
47     C47    -1.8522    4.0080   -1.7190 C.3      1 ZINC000003925368   -0.0100
48     O48    -2.4356    2.9183   -2.4396 O.3      1 ZINC000003925368   -0.3300
49     H49     1.6887    3.7132   -3.1374 H        1 ZINC000003925368    0.1100
50     H50     1.2754    3.6853   -1.4064 H        1 ZINC000003925368    0.1000
51     H51     2.0718    1.3420   -1.2539 H        1 ZINC000003925368    0.0700
52     H52     2.4851    1.3699   -2.9850 H        1 ZINC000003925368    0.0700
53     H53     4.0745    3.2286   -2.5757 H        1 ZINC000003925368    0.0700
54     H54     3.6612    3.2007   -0.8446 H        1 ZINC000003925368    0.0700
55     H55     4.4576    0.8574   -0.6921 H        1 ZINC000003925368    0.0700
56     H56     4.8709    0.8853   -2.4232 H        1 ZINC000003925368    0.0700
57     H57     6.4603    2.7440   -2.0139 H        1 ZINC000003925368    0.0900
58     H58     6.0470    2.7162   -0.2828 H        1 ZINC000003925368    0.0800
59     H59     5.9339    0.2560    0.6627 H        1 ZINC000003925368    0.4100
60     H60     6.0012   -2.3154    2.7247 H        1 ZINC000003925368    0.0900
61     H61     6.5488   -2.6092    1.0498 H        1 ZINC000003925368    0.0800
62     H62     7.4815   -3.8622    3.5742 H        1 ZINC000003925368    0.0800
63     H63     7.7210   -4.4055    1.8860 H        1 ZINC000003925368    0.0900
64     H64     9.7206   -3.2935    3.4730 H        1 ZINC000003925368    0.0700
65     H65     9.7305   -3.2857    1.6889 H        1 ZINC000003925368    0.0600
66     H66    12.0309    1.1591    3.4312 H        1 ZINC000003925368    0.0800
67     H67    12.5432   -0.5292    3.6668 H        1 ZINC000003925368    0.0800
68     H68    14.2557   -1.5166    2.2537 H        1 ZINC000003925368    0.1100
69     H69    16.2374   -1.1112    0.8495 H        1 ZINC000003925368    0.1200
70     H70    16.6194    1.1167   -0.1271 H        1 ZINC000003925368    0.1200
71     H71    15.0193    2.9389    0.2998 H        1 ZINC000003925368    0.1200
72     H72    13.0351    2.5322    1.7002 H        1 ZINC000003925368    0.1100
73     H73    10.0864    1.5273    1.3991 H        1 ZINC000003925368    0.4100
74     H74    10.0714    3.1713    0.4029 H        1 ZINC000003925368    0.1400
75     H75    11.7101    3.5924   -0.1498 H        1 ZINC000003925368    0.0700
76     H76    12.0465    4.8122   -2.2243 H        1 ZINC000003925368    0.1200
77     H77    11.0917    6.4031   -3.8430 H        1 ZINC000003925368    0.1200
78     H78     8.6515    6.7010   -3.9837 H        1 ZINC000003925368    0.1200
79     H79     7.1660    5.4074   -2.5061 H        1 ZINC000003925368    0.1200
80     H80     8.1206    3.8131   -0.8905 H        1 ZINC000003925368    0.1300
81     H81     9.3955    1.0256   -2.5051 H        1 ZINC000003925368    0.4200
82     H82    -1.4524    3.8046   -0.7255 H        1 ZINC000003925368    0.1200
83     H83    -2.2817    4.9995   -1.8625 H        1 ZINC000003925368    0.1200
@<TRIPOS>BOND
1     1     2     2
2     2     3     1
3     2     45    1
4     3     4     1
5     3     49    1
6     3     50    1
7     4     5     1
8     4     51    1
9     4     52    1
10    5     6     1
11    5     53    1
12    5     54    1
13    6     7     1
14    6     55    1
15    6     56    1
16    7     8     1
17    7     57    1
18    7     58    1
19    8     9     1
20    8     43    1
21    8     10    1
22    10    11    am
23    10    59    1
24    11    12    2
25    11    13    1
26    13    14    1
27    13    18    1
28    13    15    1
29    15    16    1
30    15    60    1
31    15    61    1
32    16    17    1
33    16    62    1
34    16    63    1
35    17    18    1
36    17    64    1
37    17    65    1
38    18    19    am
39    19    20    2
40    19    21    1
41    21    22    1
42    21    23    1
43    21    30    1
44    23    24    1
45    23    66    1
46    23    67    1
47    24    29    ar
48    24    25    ar
49    25    26    ar
50    25    68    1
51    26    27    ar
52    26    69    1
53    27    28    ar
54    27    70    1
55    28    29    ar
56    28    71    1
57    29    72    1
58    30    31    am
59    30    73    1
60    31    32    2
61    31    33    1
62    33    34    1
63    33    35    1
64    33    42    1
65    35    36    1
66    35    74    1
67    35    75    1
68    36    41    ar
69    36    37    ar
70    37    38    ar
71    37    76    1
72    38    39    ar
73    38    77    1
74    39    40    ar
75    39    78    1
76    40    41    ar
77    40    79    1
78    41    80    1
79    42    43    am
80    42    81    1
81    43    44    2
82    45    46    1
83    45    48    1
84    45    47    1
85    47    48    1
86    47    82    1
87    47    83    1
@<TRIPOS>SUBSTRUCTURE
1   ZINC000003925368 1     RESIDUE    1   A     ZIN   1
