@<TRIPOS>MOLECULE
ZINC000000597083
  44   46    0    0    0
SMALL
USER_CHARGES
NO_NAME
@<TRIPOS>ATOM
    1 C1        0.0088     1.5031     0.0078 C.3    1 <0>      -0.1100
    2 C2        0.0151    -0.0039     0.0008 C.ar   1 <0>      -0.0400
    3 C3       -0.0878    -0.6983    -1.2224 C.ar   1 <0>       0.1300
    4 N4       -0.1983    -0.1966    -2.4705 N.2    1 <0>      -0.5400
    5 C5       -0.2794    -1.0299    -3.4495 C.2    1 <0>       0.3800
    6 N6       -0.3958    -0.6751    -4.7789 N.pl3  1 <0>      -0.6900
    7 C7       -0.4805    -1.7130    -5.8093 C.3    1 <0>       0.1600
    8 C8       -0.6004    -1.0662    -7.1651 C.ar   1 <0>      -0.0500
    9 C9       -1.8480    -0.7695    -7.6814 C.ar   1 <0>      -0.1200
   10 C10      -1.9580    -0.1762    -8.9251 C.ar   1 <0>      -0.0200
   11 C11      -0.8206     0.1208    -9.6523 C.ar   1 <0>      -0.6700
   12 S12      -0.9609     0.8766   -11.2378 S.o2   1 <0>       2.7000
   13 N13      -0.9409     2.5157   -11.0030 N.am   1 <0>      -1.2500
   14 O14       0.2318     0.5574   -11.9414 O.2    1 <0>      -0.9600
   15 O15      -2.2580     0.5563   -11.7216 O.2    1 <0>      -0.9600
   16 C16       0.4270    -0.1746    -9.1354 C.ar   1 <0>      -0.0200
   17 C17       0.5372    -0.7645    -7.8901 C.ar   1 <0>      -0.1200
   18 S18      -0.2202    -2.6827    -2.8536 S.3    1 <0>       0.0500
   19 C19      -0.0793    -2.0960    -1.1981 C.ar   1 <0>      -0.1800
   20 C20       0.0281    -2.7800     0.0099 C.ar   1 <0>      -0.0600
   21 C21       0.0366    -4.2869     0.0222 C.3    1 <0>      -0.1200
   22 C22       0.1275    -2.0805     1.1974 C.ar   1 <0>       0.1100
   23 O23       0.2328    -2.7506     2.3761 O.3    1 <0>      -0.4900
   24 C24       0.1265    -0.6897     1.1841 C.ar   1 <0>      -0.0800
   25 C25       0.2355     0.0702     2.4809 C.3    1 <0>      -0.1200
   26 H26       1.0349     1.8706     0.0175 H      1 <0>       0.0700
   27 H27      -0.4996     1.8685    -0.8844 H      1 <0>       0.0700
   28 H28      -0.5134     1.8601     0.8955 H      1 <0>       0.0700
   29 H29      -0.4216     0.2613    -5.0305 H      1 <0>       0.4200
   30 H30       0.4181    -2.3293    -5.7790 H      1 <0>       0.0900
   31 H31      -1.3552    -2.3368    -5.6257 H      1 <0>       0.0900
   32 H32      -2.7367    -1.0015    -7.1133 H      1 <0>       0.1400
   33 H33      -2.9327     0.0550    -9.3288 H      1 <0>       0.1500
   34 H34      -0.5801     3.0995   -11.6885 H      1 <0>       0.4200
   35 H35      -1.2901     2.8921   -10.1800 H      1 <0>       0.4200
   36 H36       1.3157     0.0578    -9.7034 H      1 <0>       0.1500
   37 H37       1.5119    -0.9953    -7.4863 H      1 <0>       0.1400
   38 H38       1.0624    -4.6452    -0.0630 H      1 <0>       0.0700
   39 H39      -0.3970    -4.6451     0.9560 H      1 <0>       0.0800
   40 H40      -0.5497    -4.6604    -0.8173 H      1 <0>       0.0700
   41 H41       1.1433    -2.9400     2.6408 H      1 <0>       0.3900
   42 H42       1.2766     0.3403     2.6573 H      1 <0>       0.0700
   43 H43      -0.3700     0.9748     2.4239 H      1 <0>       0.0700
   44 H44      -0.1214    -0.5549     3.2994 H      1 <0>       0.0800
@<TRIPOS>BOND
   1    1    2 1
   2    1   26 1
   3    1   27 1
   4    1   28 1
   5    2   24 ar
   6    2    3 ar
   7    3   19 ar
   8    3    4 1
   9    4    5 2
  10    5    6 1
  11    5   18 1
  12    6    7 1
  13    6   29 1
  14    7    8 1
  15    7   30 1
  16    7   31 1
  17    8   17 ar
  18    8    9 ar
  19    9   10 ar
  20    9   32 1
  21   10   11 ar
  22   10   33 1
  23   11   12 1
  24   11   16 ar
  25   12   13 am
  26   12   14 2
  27   12   15 2
  28   13   34 1
  29   13   35 1
  30   16   17 ar
  31   16   36 1
  32   17   37 1
  33   18   19 1
  34   19   20 ar
  35   20   21 1
  36   20   22 ar
  37   21   38 1
  38   21   39 1
  39   21   40 1
  40   22   23 1
  41   22   24 ar
  42   23   41 1
  43   24   25 1
  44   25   42 1
  45   25   43 1
  46   25   44 1
