@<TRIPOS>MOLECULE
ZINC000008195621
93    92    1     0     0
SMALL
USER_CHARGES
@<TRIPOS>ATOM
1      C1      3.2931   -1.5499    0.8033 C.3      1 ZINC000008195621   -0.1500
2      C2      3.0920   -3.0666    0.8067 C.3      1 ZINC000008195621   -0.1300
3      C3      1.5958   -3.3828    0.7570 C.3      1 ZINC000008195621   -0.1200
4      C4      1.3948   -4.8996    0.7604 C.3      1 ZINC000008195621   -0.1200
5      C5     -0.1014   -5.2158    0.7107 C.3      1 ZINC000008195621   -0.1200
6      C6     -0.3025   -6.7325    0.7141 C.3      1 ZINC000008195621   -0.1200
7      C7     -1.7986   -7.0487    0.6645 C.3      1 ZINC000008195621   -0.1200
8      C8     -1.9997   -8.5654    0.6678 C.3      1 ZINC000008195621   -0.1200
9      C9     -3.4958   -8.8817    0.6182 C.3      1 ZINC000008195621   -0.1200
10     C10    -3.6969  -10.3984    0.6216 C.3      1 ZINC000008195621   -0.1200
11     C11    -5.1931  -10.7146    0.5719 C.3      1 ZINC000008195621   -0.1200
12     C12    -5.3942  -12.2313    0.5753 C.3      1 ZINC000008195621   -0.1200
13     C13    -6.8903  -12.5475    0.5256 C.3      1 ZINC000008195621   -0.1200
14     C14    -7.0914  -14.0643    0.5290 C.3      1 ZINC000008195621   -0.1200
15     C15    -8.5875  -14.3805    0.4793 C.3      1 ZINC000008195621   -0.1200
16     C16    -8.7886  -15.8972    0.4827 C.3      1 ZINC000008195621   -0.1200
17     C17   -10.2847  -16.2134    0.4330 C.3      1 ZINC000008195621   -0.1200
18     C18   -10.4858  -17.7301    0.4364 C.3      1 ZINC000008195621    0.0600
19     O19   -11.8832  -18.0255    0.3900 O.3      1 ZINC000008195621   -0.3900
20     C20   -12.1822  -19.4229    0.3892 C.3      1 ZINC000008195621    0.0400
21     C21   -13.6986  -19.6199    0.3380 C.3      1 ZINC000008195621    0.0900
22     H22   -14.1636  -19.0764    1.1605 H        1 ZINC000008195621    0.0700
23     C23   -14.0238  -21.1097    0.4627 C.3      1 ZINC000008195621    0.1400
24     O24   -15.4405  -21.2839    0.5320 O.3      1 ZINC000008195621   -0.7600
25     P25   -16.1409  -22.7271    0.6681 P.3      1 ZINC000008195621    2.2200
26     O26   -15.5662  -23.4645    1.8981 O.co2    1 ZINC000008195621   -1.0900
27     O27   -15.8634  -23.5564   -0.6056 O.co2    1 ZINC000008195621   -1.0800
28     O28   -17.7294  -22.5377    0.8497 O.3      1 ZINC000008195621   -0.7600
29     C29   -18.6194  -23.6272    1.1006 C.3      1 ZINC000008195621    0.1000
30     C30   -20.0506  -23.0995    1.2197 C.3      1 ZINC000008195621   -0.0100
31     N31   -20.4880  -22.5727   -0.0800 N.4      1 ZINC000008195621   -0.2700
32     C32   -20.3170  -23.6061   -1.1099 C.3      1 ZINC000008195621   -0.0600
33     C33   -21.9039  -22.1891   -0.0015 C.3      1 ZINC000008195621   -0.0400
34     C34   -19.6805  -21.3960   -0.4282 C.3      1 ZINC000008195621   -0.0400
35     O35   -14.2016  -19.1249   -0.9046 O.3      1 ZINC000008195621   -0.3700
36     C36   -14.5773  -17.7466   -0.8720 C.3      1 ZINC000008195621    0.0300
37     H37     4.3590   -1.3246    0.8387 H        1 ZINC000008195621    0.0500
38     H38     2.8626   -1.1283   -0.1050 H        1 ZINC000008195621    0.0500
39     H39     2.8009   -1.1162    1.6738 H        1 ZINC000008195621    0.0500
40     H40     3.5841   -3.5003   -0.0638 H        1 ZINC000008195621    0.0600
41     H41     3.5225   -3.4882    1.7150 H        1 ZINC000008195621    0.0600
42     H42     1.1037   -2.9491    1.6275 H        1 ZINC000008195621    0.0600
43     H43     1.1654   -2.9613   -0.1513 H        1 ZINC000008195621    0.0600
44     H44     1.8869   -5.3333   -0.1101 H        1 ZINC000008195621    0.0600
45     H45     1.8252   -5.3211    1.6688 H        1 ZINC000008195621    0.0600
46     H46    -0.5935   -4.7821    1.5813 H        1 ZINC000008195621    0.0600
47     H47    -0.5319   -4.7942   -0.1976 H        1 ZINC000008195621    0.0600
48     H48     0.1897   -7.1662   -0.1564 H        1 ZINC000008195621    0.0600
49     H49     0.1280   -7.1541    1.6225 H        1 ZINC000008195621    0.0600
50     H50    -2.2907   -6.6150    1.5350 H        1 ZINC000008195621    0.0600
51     H51    -2.2291   -6.6272   -0.2439 H        1 ZINC000008195621    0.0600
52     H52    -1.5076   -8.9991   -0.2027 H        1 ZINC000008195621    0.0600
53     H53    -1.5692   -8.9870    1.5762 H        1 ZINC000008195621    0.0600
54     H54    -3.9880   -8.4479    1.4887 H        1 ZINC000008195621    0.0600
55     H55    -3.9263   -8.4601   -0.2902 H        1 ZINC000008195621    0.0600
56     H56    -3.2048  -10.8321   -0.2490 H        1 ZINC000008195621    0.0600
57     H57    -3.2664  -10.8199    1.5299 H        1 ZINC000008195621    0.0600
58     H58    -5.6852  -10.2809    1.4424 H        1 ZINC000008195621    0.0600
59     H59    -5.6236  -10.2930   -0.3365 H        1 ZINC000008195621    0.0600
60     H60    -4.9020  -12.6650   -0.2952 H        1 ZINC000008195621    0.0600
61     H61    -4.9637  -12.6529    1.4836 H        1 ZINC000008195621    0.0600
62     H62    -7.3824  -12.1138    1.3961 H        1 ZINC000008195621    0.0600
63     H63    -7.3208  -12.1260   -0.3827 H        1 ZINC000008195621    0.0600
64     H64    -6.5992  -14.4980   -0.3415 H        1 ZINC000008195621    0.0600
65     H65    -6.6609  -14.4858    1.4373 H        1 ZINC000008195621    0.0600
66     H66    -9.0797  -13.9468    1.3498 H        1 ZINC000008195621    0.0600
67     H67    -9.0180  -13.9589   -0.4290 H        1 ZINC000008195621    0.0600
68     H68    -8.2965  -16.3309   -0.3878 H        1 ZINC000008195621    0.0600
69     H69    -8.3581  -16.3188    1.3910 H        1 ZINC000008195621    0.0600
70     H70   -10.7769  -15.7797    1.3035 H        1 ZINC000008195621    0.0700
71     H71   -10.7152  -15.7919   -0.4753 H        1 ZINC000008195621    0.0700
72     H72    -9.9937  -18.1639   -0.4341 H        1 ZINC000008195621    0.0500
73     H73   -10.0553  -18.1517    1.3447 H        1 ZINC000008195621    0.0500
74     H74   -11.7253  -19.8917   -0.4823 H        1 ZINC000008195621    0.0600
75     H75   -11.7869  -19.8795    1.2965 H        1 ZINC000008195621    0.0600
76     H76   -13.6346  -21.6405   -0.4061 H        1 ZINC000008195621    0.0700
77     H77   -13.5642  -21.5074    1.3675 H        1 ZINC000008195621    0.0700
78     H78   -18.5623  -24.3399    0.2779 H        1 ZINC000008195621    0.0800
79     H79   -18.3359  -24.1214    2.0298 H        1 ZINC000008195621    0.1000
80     H80   -20.7125  -23.9101    1.5245 H        1 ZINC000008195621    0.1400
81     H81   -20.0838  -22.3039    1.9640 H        1 ZINC000008195621    0.1300
82     H82   -20.9162  -24.4792   -0.8515 H        1 ZINC000008195621    0.1200
83     H83   -20.6415  -23.2152   -2.0742 H        1 ZINC000008195621    0.1200
84     H84   -19.2664  -23.8907   -1.1681 H        1 ZINC000008195621    0.1300
85     H85   -22.0307  -21.4223    0.7627 H        1 ZINC000008195621    0.1200
86     H86   -22.2284  -21.7982   -0.9658 H        1 ZINC000008195621    0.1200
87     H87   -22.5030  -23.0622    0.2569 H        1 ZINC000008195621    0.1200
88     H88   -18.6676  -21.7115   -0.6784 H        1 ZINC000008195621    0.1400
89     H89   -20.1257  -20.8905   -1.2852 H        1 ZINC000008195621    0.1100
90     H90   -19.6490  -20.7128    0.4206 H        1 ZINC000008195621    0.1200
91     H91   -15.3598  -17.6008   -0.1273 H        1 ZINC000008195621    0.0300
92     H92   -13.7101  -17.1397   -0.6114 H        1 ZINC000008195621    0.0600
93     H93   -14.9484  -17.4478   -1.8523 H        1 ZINC000008195621    0.0800
@<TRIPOS>BOND
1     1     2     1
2     1     37    1
3     1     38    1
4     1     39    1
5     2     3     1
6     2     40    1
7     2     41    1
8     3     4     1
9     3     42    1
10    3     43    1
11    4     5     1
12    4     44    1
13    4     45    1
14    5     6     1
15    5     46    1
16    5     47    1
17    6     7     1
18    6     48    1
19    6     49    1
20    7     8     1
21    7     50    1
22    7     51    1
23    8     9     1
24    8     52    1
25    8     53    1
26    9     10    1
27    9     54    1
28    9     55    1
29    10    11    1
30    10    56    1
31    10    57    1
32    11    12    1
33    11    58    1
34    11    59    1
35    12    13    1
36    12    60    1
37    12    61    1
38    13    14    1
39    13    62    1
40    13    63    1
41    14    15    1
42    14    64    1
43    14    65    1
44    15    16    1
45    15    66    1
46    15    67    1
47    16    17    1
48    16    68    1
49    16    69    1
50    17    18    1
51    17    70    1
52    17    71    1
53    18    19    1
54    18    72    1
55    18    73    1
56    19    20    1
57    20    21    1
58    20    74    1
59    20    75    1
60    21    22    1
61    21    23    1
62    21    35    1
63    23    24    1
64    23    76    1
65    23    77    1
66    24    25    1
67    25    26    ar
68    25    27    ar
69    25    28    1
70    28    29    1
71    29    30    1
72    29    78    1
73    29    79    1
74    30    31    1
75    30    80    1
76    30    81    1
77    31    32    1
78    31    33    1
79    31    34    1
80    32    82    1
81    32    83    1
82    32    84    1
83    33    85    1
84    33    86    1
85    33    87    1
86    34    88    1
87    34    89    1
88    34    90    1
89    35    36    1
90    36    91    1
91    36    92    1
92    36    93    1
@<TRIPOS>SUBSTRUCTURE
1   ZINC000008195621 1     RESIDUE    1   A     ZIN   1
