@<TRIPOS>MOLECULE
ZINC000000005389
29    30    1     0     0
SMALL
USER_CHARGES
@<TRIPOS>ATOM
1      O1      0.0021   -0.0041    0.0020 O.co2    1 ZINC000000005389   -0.6900
2      C2     -0.0145    1.2207    0.0088 C.2      1 ZINC000000005389    0.4900
3      O3      1.0378    1.8476    0.0021 O.co2    1 ZINC000000005389   -0.6900
4      C4     -1.2502    1.9120    0.0184 C.2      1 ZINC000000005389   -0.1300
5      C5     -2.4113    1.2205    0.0201 C.2      1 ZINC000000005389   -0.1500
6      C6     -3.6950    1.9386    0.0301 C.ar     1 ZINC000000005389    0.0100
7      C7     -3.7183    3.3373    0.0320 C.ar     1 ZINC000000005389   -0.1300
8      C8     -4.9257    4.0029    0.0415 C.ar     1 ZINC000000005389   -0.0800
9      C9     -6.1126    3.2909    0.0495 C.ar     1 ZINC000000005389   -0.1800
10     C10    -7.4278    4.0266    0.0603 C.3      1 ZINC000000005389    0.1500
11     N11    -7.8643    4.2668   -1.3174 N.pl3    1 ZINC000000005389   -0.4000
12     C12    -7.5636    5.3587   -2.0861 C.2      1 ZINC000000005389    0.0300
13     C13    -8.1633    5.1736   -3.2776 C.2      1 ZINC000000005389    0.0000
14     N14    -8.8126    4.0006   -3.2375 N.pl3    1 ZINC000000005389   -0.4800
15     H15    -9.3302    3.6202   -3.9643 H        1 ZINC000000005389    0.4600
16     C16    -8.6338    3.4494   -2.0682 C.cat    1 ZINC000000005389    0.2900
17     C17    -6.0981    1.9069    0.0472 C.ar     1 ZINC000000005389   -0.0900
18     C18    -4.8991    1.2264    0.0320 C.ar     1 ZINC000000005389   -0.1200
19     H19    -1.2649    2.9919    0.0243 H        1 ZINC000000005389    0.1000
20     H20    -2.3966    0.1406    0.0142 H        1 ZINC000000005389    0.1400
21     H21    -2.7930    3.8943    0.0265 H        1 ZINC000000005389    0.1400
22     H22    -4.9454    5.0828    0.0430 H        1 ZINC000000005389    0.1200
23     H23    -8.1755    3.4266    0.5790 H        1 ZINC000000005389    0.1300
24     H24    -7.3066    4.9801    0.5744 H        1 ZINC000000005389    0.1300
25     H25    -6.9614    6.2060   -1.7932 H        1 ZINC000000005389    0.2200
26     H26    -8.1277    5.8509   -4.1181 H        1 ZINC000000005389    0.2200
27     H27    -9.0395    2.5001   -1.7511 H        1 ZINC000000005389    0.2600
28     H28    -7.0286    1.3585    0.0535 H        1 ZINC000000005389    0.1200
29     H29    -4.8894    0.1464    0.0298 H        1 ZINC000000005389    0.1300
@<TRIPOS>BOND
1     1     2     ar
2     2     3     ar
3     2     4     1
4     4     5     2
5     4     19    1
6     5     6     1
7     5     20    1
8     6     18    ar
9     6     7     ar
10    7     8     ar
11    7     21    1
12    8     9     ar
13    8     22    1
14    9     10    1
15    9     17    ar
16    10    11    1
17    10    23    1
18    10    24    1
19    11    16    ar
20    11    12    1
21    12    13    2
22    12    25    1
23    13    14    1
24    13    26    1
25    14    15    1
26    14    16    ar
27    16    27    1
28    17    18    ar
29    17    28    1
30    18    29    1
@<TRIPOS>SUBSTRUCTURE
1   ZINC000000005389 1     RESIDUE    1   A     ZIN   1
