@<TRIPOS>MOLECULE
ZINC000100234914
  43   44    0    0    0
SMALL
USER_CHARGES
NO_NAME
@<TRIPOS>ATOM
    1 C1        0.2542     1.5178    -0.0780 C.2    1 <0>      -0.1200
    2 C2        0.1991     0.1920    -0.0232 C.2    1 <0>       0.0100
    3 N3       -1.0018    -0.4510     0.0561 N.2    1 <0>      -0.4600
    4 C4       -1.1216    -1.7135    -0.1255 C.2    1 <0>       0.1900
    5 C5       -2.4992    -2.3167    -0.0282 C.3    1 <0>      -0.1200
    6 C6        0.0295    -2.6267    -0.4299 C.3    1 <0>      -0.0800
    7 C7       -0.4013    -3.6456    -1.4533 C.2    1 <0>       0.4800
    8 O8        0.1685    -3.7120    -2.5167 O.2    1 <0>      -0.4900
    9 O9       -1.4180    -4.4794    -1.1834 O.3    1 <0>      -0.3500
   10 C10      -1.7786    -5.4350    -2.2155 C.3    1 <0>       0.0300
   11 C11       1.2160    -1.8305    -0.9786 C.3    1 <0>      -0.0900
   12 H12       2.1019    -2.4648    -1.0079 H      1 <0>       0.1800
   13 C13       0.8983    -1.3376    -2.3668 C.ar   1 <0>       0.0100
   14 C14      -0.2727    -0.6420    -2.6020 C.ar   1 <0>      -0.1600
   15 C15      -0.5641    -0.1898    -3.8756 C.ar   1 <0>      -0.0700
   16 C16       0.3157    -0.4328    -4.9135 C.ar   1 <0>      -0.1200
   17 C17       1.4875    -1.1278    -4.6780 C.ar   1 <0>      -0.0600
   18 C18       1.7809    -1.5762    -3.4039 C.ar   1 <0>       0.0100
   19 N19       3.0354    -2.3202    -3.1518 N.pl3  1 <0>       0.0600
   20 O20       3.8710    -2.4212    -4.0322 O.2    1 <0>      -0.1600
   21 O21       3.2321    -2.8315    -2.0639 O.2    1 <0>      -0.1600
   22 C22       1.4664    -0.6339    -0.0539 C.3    1 <0>      -0.0600
   23 C23       2.6084     0.1938    -0.5848 C.2    1 <0>       0.4800
   24 O24       3.1711    -0.1352    -1.6021 O.2    1 <0>      -0.4900
   25 O25       3.0004     1.2965     0.0726 O.3    1 <0>      -0.3500
   26 C26       4.1068     2.0449    -0.4967 C.3    1 <0>       0.0300
   27 H27       1.2099     2.0162    -0.1451 H      1 <0>       0.1300
   28 H28      -0.6570     2.0973    -0.0598 H      1 <0>       0.1200
   29 H29      -3.2237    -1.5338     0.1958 H      1 <0>       0.0900
   30 H30      -2.7566    -2.7896    -0.9759 H      1 <0>       0.0900
   31 H31      -2.5137    -3.0632     0.7660 H      1 <0>       0.0900
   32 H32       0.3327    -3.1398     0.4828 H      1 <0>       0.1500
   33 H33      -2.0703    -4.9005    -3.1196 H      1 <0>       0.0600
   34 H34      -0.9239    -6.0758    -2.4320 H      1 <0>       0.0700
   35 H35      -2.6124    -6.0459    -1.8696 H      1 <0>       0.1100
   36 H36      -0.9602    -0.4521    -1.7911 H      1 <0>       0.1600
   37 H37      -1.4795     0.3531    -4.0596 H      1 <0>       0.1400
   38 H38       0.0877    -0.0802    -5.9085 H      1 <0>       0.1400
   39 H39       2.1748    -1.3180    -5.4890 H      1 <0>       0.1500
   40 H40       1.6980    -0.9848     0.9518 H      1 <0>       0.1300
   41 H41       4.9886     1.4063    -0.5493 H      1 <0>       0.0700
   42 H42       3.8409     2.3805    -1.4990 H      1 <0>       0.0600
   43 H43       4.3215     2.9098     0.1310 H      1 <0>       0.1100
@<TRIPOS>BOND
   1    1    2 2
   2    1   27 1
   3    1   28 1
   4    2   22 1
   5    2    3 1
   6    3    4 2
   7    4    5 1
   8    4    6 1
   9    5   29 1
  10    5   30 1
  11    5   31 1
  12    6    7 1
  13    6   11 1
  14    6   32 1
  15    7    8 2
  16    7    9 1
  17    9   10 1
  18   10   33 1
  19   10   34 1
  20   10   35 1
  21   11   12 1
  22   11   13 1
  23   11   22 1
  24   13   18 ar
  25   13   14 ar
  26   14   15 ar
  27   14   36 1
  28   15   16 ar
  29   15   37 1
  30   16   17 ar
  31   16   38 1
  32   17   18 ar
  33   17   39 1
  34   18   19 1
  35   19   20 2
  36   19   21 2
  37   22   23 1
  38   22   40 1
  39   23   24 2
  40   23   25 1
  41   25   26 1
  42   26   41 1
  43   26   42 1
  44   26   43 1
