@<TRIPOS>MOLECULE
ZINC000034894474
58    61    1     0     0
SMALL
USER_CHARGES
@<TRIPOS>ATOM
1      C1      0.0338    1.6863    0.1797 C.3      1 ZINC000034894474   -0.1900
2      C2     -0.0263    0.1616    0.0679 C.3      1 ZINC000034894474    0.1600
3      H3      0.3325   -0.1479   -0.9137 H        1 ZINC000034894474    0.0900
4      C4     -1.4707   -0.3122    0.2610 C.3      1 ZINC000034894474    0.0300
5      N5     -1.4991   -1.7802    0.3070 N.3      1 ZINC000034894474   -0.4800
6      C6     -2.8150   -2.2562    0.3179 C.ar     1 ZINC000034894474    0.1000
7      C7     -3.8773   -1.3627    0.2807 C.ar     1 ZINC000034894474   -0.1200
8      C8     -5.1757   -1.8334    0.2911 C.ar     1 ZINC000034894474   -0.0900
9      C9     -5.4187   -3.1981    0.3390 C.ar     1 ZINC000034894474    0.0700
10     O10    -6.6976   -3.6607    0.3495 O.3      1 ZINC000034894474   -0.3100
11     C11    -6.8745   -5.0778    0.3997 C.3      1 ZINC000034894474    0.6000
12     F12    -6.2832   -5.5807    1.5636 F        1 ZINC000034894474   -0.1700
13     F13    -8.2410   -5.3774    0.4040 F        1 ZINC000034894474   -0.1300
14     F14    -6.2724   -5.6628   -0.7194 F        1 ZINC000034894474   -0.1700
15     C15    -4.3582   -4.0913    0.3757 C.ar     1 ZINC000034894474   -0.1700
16     C16    -3.0592   -3.6225    0.3601 C.ar     1 ZINC000034894474   -0.1000
17     C17    -0.7447   -2.2919    1.4589 C.3      1 ZINC000034894474    0.0500
18     C18     0.7296   -1.8992    1.3150 C.3      1 ZINC000034894474    0.1700
19     H19     1.1621   -2.4098    0.4546 H        1 ZINC000034894474    0.0900
20     C20     1.4920   -2.2914    2.5821 C.3      1 ZINC000034894474   -0.2300
21     N21     0.8120   -0.4439    1.1138 N.am     1 ZINC000034894474   -0.9900
22     S22     1.8151    0.4875    2.0458 S.o2     1 ZINC000034894474    2.6900
23     O23     3.1051   -0.1022    1.9597 O.2      1 ZINC000034894474   -0.9700
24     O24     1.5528    1.8383    1.6912 O.2      1 ZINC000034894474   -0.9500
25     C25     1.2939    0.3021    3.7187 C.ar     1 ZINC000034894474   -0.6700
26     C26     2.1210   -0.3214    4.6322 C.ar     1 ZINC000034894474   -0.0300
27     C27     1.7130   -0.4674    5.9450 C.ar     1 ZINC000034894474   -0.1500
28     C28     0.4790    0.0104    6.3404 C.ar     1 ZINC000034894474   -0.0600
29     C29    -0.3520    0.6355    5.4257 C.ar     1 ZINC000034894474   -0.1100
30     C30     0.0585    0.7871    4.1146 C.ar     1 ZINC000034894474    0.0100
31     C31    -1.0178    1.4952    3.3200 C.3      1 ZINC000034894474   -0.0900
32     C32    -1.9371    2.1457    4.3754 C.3      1 ZINC000034894474   -0.1500
33     H33    -1.6163    3.1643    4.5939 H        1 ZINC000034894474    0.0800
34     C34    -3.3736    2.1250    3.9203 C.2      1 ZINC000034894474    0.5000
35     O35    -4.2725    2.0640    4.7417 O.co2    1 ZINC000034894474   -0.6900
36     O36    -3.6369    2.1694    2.7307 O.co2    1 ZINC000034894474   -0.6900
37     C37    -1.7300    1.2363    5.6032 C.3      1 ZINC000034894474   -0.0600
38     H38     1.0350    2.0305   -0.0796 H        1 ZINC000034894474    0.0900
39     H39    -0.6910    2.1296   -0.5032 H        1 ZINC000034894474    0.0600
40     H40    -0.1998    1.9852    1.2016 H        1 ZINC000034894474    0.1000
41     H41    -1.8632    0.0887    1.1955 H        1 ZINC000034894474    0.0700
42     H42    -2.0825    0.0375   -0.5706 H        1 ZINC000034894474    0.1000
43     H43    -3.6883   -0.3000    0.2441 H        1 ZINC000034894474    0.1500
44     H44    -6.0021   -1.1386    0.2621 H        1 ZINC000034894474    0.1400
45     H45    -4.5484   -5.1538    0.4130 H        1 ZINC000034894474    0.1300
46     H46    -2.2336   -4.3181    0.3888 H        1 ZINC000034894474    0.1300
47     H47    -1.1472   -1.8634    2.3768 H        1 ZINC000034894474    0.0500
48     H48    -0.8298   -3.3779    1.4961 H        1 ZINC000034894474    0.0900
49     H49     1.5276   -3.3778    2.6632 H        1 ZINC000034894474    0.0900
50     H50     2.5071   -1.8974    2.5320 H        1 ZINC000034894474    0.1000
51     H51     0.9846   -1.8784    3.4540 H        1 ZINC000034894474    0.0800
52     H52     3.0855   -0.6948    4.3212 H        1 ZINC000034894474    0.1400
53     H53     2.3584   -0.9550    6.6606 H        1 ZINC000034894474    0.1300
54     H54     0.1609   -0.1042    7.3661 H        1 ZINC000034894474    0.1200
55     H55    -0.5752    2.2596    2.6813 H        1 ZINC000034894474    0.1000
56     H56    -1.5786    0.7784    2.7203 H        1 ZINC000034894474    0.1000
57     H57    -2.4814    0.4469    5.6202 H        1 ZINC000034894474    0.0800
58     H58    -1.7760    1.8232    6.5206 H        1 ZINC000034894474    0.0700
@<TRIPOS>BOND
1     1     2     1
2     1     38    1
3     1     39    1
4     1     40    1
5     2     3     1
6     2     21    1
7     2     4     1
8     4     5     1
9     4     41    1
10    4     42    1
11    5     6     1
12    5     17    1
13    6     16    ar
14    6     7     ar
15    7     8     ar
16    7     43    1
17    8     9     ar
18    8     44    1
19    9     10    1
20    9     15    ar
21    10    11    1
22    11    12    1
23    11    13    1
24    11    14    1
25    15    16    ar
26    15    45    1
27    16    46    1
28    17    18    1
29    17    47    1
30    17    48    1
31    18    19    1
32    18    20    1
33    18    21    1
34    20    49    1
35    20    50    1
36    20    51    1
37    21    22    am
38    22    23    2
39    22    24    2
40    22    25    1
41    25    30    ar
42    25    26    ar
43    26    27    ar
44    26    52    1
45    27    28    ar
46    27    53    1
47    28    29    ar
48    28    54    1
49    29    37    1
50    29    30    ar
51    30    31    1
52    31    32    1
53    31    55    1
54    31    56    1
55    32    33    1
56    32    34    1
57    32    37    1
58    34    35    ar
59    34    36    ar
60    37    57    1
61    37    58    1
@<TRIPOS>SUBSTRUCTURE
1   ZINC000034894474 1     RESIDUE    1   A     ZIN   1
