@<TRIPOS>MOLECULE
ZINC000003827162
35    37    1     0     0
SMALL
USER_CHARGES
@<TRIPOS>ATOM
1      N1     -0.0167    1.3790    0.0096 N.pl3    1 ZINC000003827162   -0.7900
2      C2      0.0021   -0.0041    0.0020 C.ar     1 ZINC000003827162    0.5400
3      C3     -1.1927   -0.7395    0.0036 C.ar     1 ZINC000003827162   -0.2200
4      C4     -2.6155   -0.4039    0.0132 C.2      1 ZINC000003827162   -0.1300
5      I5     -3.4451    1.5198    0.0281 I        1 ZINC000003827162    0.0600
6      C6     -3.2887   -1.5664    0.0102 C.2      1 ZINC000003827162    0.1000
7      N7     -2.4047   -2.6151   -0.0006 N.pl3    1 ZINC000003827162   -0.4200
8      C8     -2.7810   -4.0310   -0.0072 C.3      1 ZINC000003827162    0.1400
9      H9     -1.8943   -4.6646   -0.0284 H        1 ZINC000003827162    0.1500
10     C10    -3.7100   -4.3465   -1.2056 C.3      1 ZINC000003827162   -0.1500
11     C11    -4.4827   -5.6065   -0.7638 C.3      1 ZINC000003827162    0.0300
12     H12    -3.9939   -6.4998   -1.1527 H        1 ZINC000003827162    0.1700
13     N13    -5.8688   -5.5416   -1.2458 N.4      1 ZINC000003827162   -0.6300
14     H14    -5.8724   -5.4866   -2.2533 H        1 ZINC000003827162    0.4500
15     H15    -6.3661   -6.3691   -0.9524 H        1 ZINC000003827162    0.4500
16     H16    -6.3202   -4.7245   -0.8628 H        1 ZINC000003827162    0.4300
17     C17    -4.4586   -5.6200    0.7747 C.3      1 ZINC000003827162    0.0600
18     H18    -5.4757   -5.5780    1.1644 H        1 ZINC000003827162    0.1000
19     O19    -3.8035   -6.8002    1.2437 O.3      1 ZINC000003827162   -0.5300
20     C20    -3.6680   -4.3689    1.2168 C.3      1 ZINC000003827162    0.0600
21     H21    -4.3476   -3.5440    1.4307 H        1 ZINC000003827162    0.0900
22     O22    -2.8650   -4.6634    2.3617 O.3      1 ZINC000003827162   -0.5300
23     C23    -1.1204   -2.1449   -0.0049 C.ar     1 ZINC000003827162    0.3900
24     N24     0.0809   -2.7204   -0.0151 N.ar     1 ZINC000003827162   -0.4800
25     C25     1.1755   -1.9908   -0.0172 C.ar     1 ZINC000003827162    0.4100
26     N26     1.1531   -0.6702   -0.0125 N.ar     1 ZINC000003827162   -0.5600
27     H27     1.9892   -0.1785   -0.0147 H        1 ZINC000003827162    0.4600
28     H28     0.8167    1.8754    0.0043 H        1 ZINC000003827162    0.4300
29     H29    -0.8632    1.8525    0.0162 H        1 ZINC000003827162    0.4400
30     H30    -4.3646   -1.6611    0.0158 H        1 ZINC000003827162    0.2000
31     H31    -4.3979   -3.5198   -1.3831 H        1 ZINC000003827162    0.1100
32     H32    -3.1222   -4.5535   -2.0999 H        1 ZINC000003827162    0.1300
33     H33    -3.7561   -6.8673    2.2072 H        1 ZINC000003827162    0.4100
34     H34    -3.3725   -4.9355    3.1385 H        1 ZINC000003827162    0.4000
35     H35     2.1319   -2.4923   -0.0255 H        1 ZINC000003827162    0.2600
@<TRIPOS>BOND
1     1     2     1
2     1     28    1
3     1     29    1
4     2     26    ar
5     2     3     ar
6     3     23    ar
7     3     4     1
8     4     5     1
9     4     6     2
10    6     7     1
11    6     30    1
12    7     8     1
13    7     23    1
14    8     9     1
15    8     20    1
16    8     10    1
17    10    11    1
18    10    31    1
19    10    32    1
20    11    12    1
21    11    13    1
22    11    17    1
23    13    14    1
24    13    15    1
25    13    16    1
26    17    18    1
27    17    19    1
28    17    20    1
29    19    33    1
30    20    21    1
31    20    22    1
32    22    34    1
33    23    24    ar
34    24    25    ar
35    25    26    ar
36    25    35    1
37    26    27    1
@<TRIPOS>SUBSTRUCTURE
1   ZINC000003827162 1     RESIDUE    1   A     ZIN   1
