@<TRIPOS>MOLECULE
ZINC000004096500
  36   37    0    0    0
SMALL
USER_CHARGES
NO_NAME
@<TRIPOS>ATOM
    1 N1       -0.0162     1.3436     0.0094 N.am   1 <0>      -0.8500
    2 C2        0.0021    -0.0041     0.0020 C.2    1 <0>       0.6200
    3 O3        1.0644    -0.5983    -0.0113 O.2    1 <0>      -0.5700
    4 C4       -1.2564    -0.7537     0.0100 C.2    1 <0>      -0.1700
    5 C5       -1.3918    -2.1345     0.0095 C.2    1 <0>       0.3800
    6 N6       -0.3728    -3.0654     0.0011 N.pl3  1 <0>      -0.8300
    7 N7       -2.7315    -2.3894     0.0194 N.pl3  1 <0>      -0.4800
    8 C8       -3.3598    -3.7128     0.0234 C.3    1 <0>       0.3100
    9 H9       -2.7797    -4.4137    -0.5769 H      1 <0>       0.1100
   10 O10      -4.7179    -3.6323    -0.4599 O.3    1 <0>      -0.3300
   11 C11      -5.4085    -4.7924     0.0336 C.3    1 <0>       0.0900
   12 H12      -5.3614    -5.5935    -0.7040 H      1 <0>       0.1000
   13 C13      -6.8684    -4.4425     0.3289 C.3    1 <0>       0.1400
   14 O14      -7.5413    -4.1356    -0.8938 O.3    1 <0>      -0.7500
   15 P15      -9.0959    -3.7223    -0.9593 P.3    1 <0>       2.2100
   16 O16      -9.3479    -2.5164    -0.0269 O.2    1 <0>      -1.1100
   17 O17      -9.9657    -4.9155    -0.5045 O.3    1 <0>      -1.1100
   18 O18      -9.4817    -3.3221    -2.4703 O.3    1 <0>      -0.9000
   19 C19      -4.6991    -5.2311     1.3294 C.3    1 <0>       0.0500
   20 H20      -5.3748    -5.1490     2.1808 H      1 <0>       0.0900
   21 O21      -4.2132    -6.5692     1.2053 O.3    1 <0>      -0.5400
   22 C22      -3.5185    -4.2373     1.4733 C.3    1 <0>       0.0300
   23 H23      -3.7751    -3.4242     2.1524 H      1 <0>       0.0900
   24 O24      -2.3361    -4.9100     1.9109 O.3    1 <0>      -0.5400
   25 C25      -3.3809    -1.1898     0.0257 C.2    1 <0>       0.2000
   26 N26      -2.5106    -0.2254     0.0253 N.2    1 <0>      -0.4400
   27 H27       0.8172     1.8399     0.0041 H      1 <0>       0.4000
   28 H28      -0.8627     1.8171     0.0160 H      1 <0>       0.4100
   29 H29       0.5518    -2.7723    -0.0057 H      1 <0>       0.4300
   30 H30      -0.5813    -4.0127     0.0019 H      1 <0>       0.4000
   31 H31      -7.3556    -5.2913     0.8086 H      1 <0>       0.0800
   32 H32      -6.9079    -3.5784     0.9921 H      1 <0>       0.0700
   33 H33     -10.4059    -3.0614    -2.5844 H      1 <0>       0.4200
   34 H34      -3.7576    -6.8968     1.9928 H      1 <0>       0.3800
   35 H35      -2.4209    -5.3309     2.7773 H      1 <0>       0.3900
   36 H36      -4.4533    -1.0617     0.0340 H      1 <0>       0.2200
@<TRIPOS>BOND
   1    1    2 am
   2    1   27 1
   3    1   28 1
   4    2    3 2
   5    2    4 1
   6    4   26 1
   7    4    5 2
   8    5    6 1
   9    5    7 1
  10    6   29 1
  11    6   30 1
  12    7    8 1
  13    7   25 1
  14    8    9 1
  15    8   22 1
  16    8   10 1
  17   10   11 1
  18   11   12 1
  19   11   13 1
  20   11   19 1
  21   13   14 1
  22   13   31 1
  23   13   32 1
  24   14   15 1
  25   15   16 2
  26   15   17 1
  27   15   18 1
  28   18   33 1
  29   19   20 1
  30   19   21 1
  31   19   22 1
  32   21   34 1
  33   22   23 1
  34   22   24 1
  35   24   35 1
  36   25   26 2
  37   25   36 1
