@<TRIPOS>MOLECULE
ZINC000001846151
45    46    1     0     0
SMALL
USER_CHARGES
@<TRIPOS>ATOM
1      C1     -0.0187    1.5258    0.0104 C.3      1 ZINC000001846151   -0.1800
2      C2      0.0021   -0.0041    0.0020 C.3      1 ZINC000001846151    0.0600
3      C3      0.7421   -0.5109    1.2415 C.3      1 ZINC000001846151   -0.1800
4      C4     -1.4333   -0.5336    0.0129 C.3      1 ZINC000001846151   -0.1800
5      N5      0.6897   -0.4778   -1.2066 N.4      1 ZINC000001846151   -0.5000
6      H6      0.7033   -1.4867   -1.2121 H        1 ZINC000001846151    0.4300
7      H7      0.2017   -0.1436   -2.0240 H        1 ZINC000001846151    0.4300
8      C8      2.0678    0.0307   -1.2170 C.3      1 ZINC000001846151   -0.0500
9      C9      2.7840   -0.4628   -2.4758 C.3      1 ZINC000001846151    0.1100
10     H10     2.7213   -1.5498   -2.5270 H        1 ZINC000001846151    0.1400
11     O11     2.1628    0.1050   -3.6307 O.3      1 ZINC000001846151   -0.5400
12     C12     4.2531   -0.0383   -2.4263 C.3      1 ZINC000001846151   -0.1900
13     S13     5.1003   -0.6220   -3.9155 S.3      1 ZINC000001846151    0.0900
14     C14     6.7236   -0.0122   -3.6029 C.2      1 ZINC000001846151    0.0400
15     N15     7.7431   -0.1604   -4.3907 N.2      1 ZINC000001846151   -0.4200
16     C16     8.8982    0.3716   -3.9881 C.2      1 ZINC000001846151    0.1500
17     C17    10.1346    0.2763   -4.7883 C.2      1 ZINC000001846151   -0.1200
18     C18    10.2409   -0.3437   -6.0011 C.2      1 ZINC000001846151   -0.1000
19     C19    11.4894   -0.3042   -6.5571 C.2      1 ZINC000001846151   -0.0500
20     C20    12.4285    0.3496   -5.8086 C.2      1 ZINC000001846151   -0.2500
21     C21    13.8308    0.5272   -6.1841 C.2      1 ZINC000001846151    0.5900
22     N22    14.6690    1.1919   -5.3644 N.am     1 ZINC000001846151   -0.8500
23     O23    14.2410    0.0746   -7.2374 O.2      1 ZINC000001846151   -0.5200
24     S24    11.6924    0.9502   -4.3289 S.3      1 ZINC000001846151    0.1900
25     C25     8.8546    1.0029   -2.7978 C.2      1 ZINC000001846151   -0.2300
26     S26     7.2092    0.8985   -2.1765 S.3      1 ZINC000001846151    0.1000
27     H27     1.0039    1.9031    0.0027 H        1 ZINC000001846151    0.0800
28     H28    -0.5459    1.8868   -0.8726 H        1 ZINC000001846151    0.0800
29     H29    -0.5289    1.8773    0.9072 H        1 ZINC000001846151    0.1100
30     H30     0.2319   -0.1594    2.1383 H        1 ZINC000001846151    0.1100
31     H31     0.7568   -1.6008    1.2356 H        1 ZINC000001846151    0.0800
32     H32     1.7647   -0.1336    1.2338 H        1 ZINC000001846151    0.0800
33     H33    -1.9605   -0.1726   -0.8702 H        1 ZINC000001846151    0.0800
34     H34    -1.4185   -1.6235    0.0069 H        1 ZINC000001846151    0.0800
35     H35    -1.9435   -0.1821    0.9097 H        1 ZINC000001846151    0.1100
36     H36     2.0530    1.1205   -1.2110 H        1 ZINC000001846151    0.1400
37     H37     2.5950   -0.3304   -0.3340 H        1 ZINC000001846151    0.1500
38     H38     2.1814    1.0716   -3.6522 H        1 ZINC000001846151    0.3900
39     H39     4.3157    1.0487   -2.3751 H        1 ZINC000001846151    0.1100
40     H40     4.7269   -0.4714   -1.5454 H        1 ZINC000001846151    0.1200
41     H41     9.4042   -0.8276   -6.4829 H        1 ZINC000001846151    0.1600
42     H42    11.7161   -0.7543   -7.5122 H        1 ZINC000001846151    0.1600
43     H43    14.3422    1.5526   -4.5253 H        1 ZINC000001846151    0.4000
44     H44    15.5990    1.3097   -5.6134 H        1 ZINC000001846151    0.4100
45     H45     9.6849    1.4923   -2.3106 H        1 ZINC000001846151    0.1900
@<TRIPOS>BOND
1     1     2     1
2     1     27    1
3     1     28    1
4     1     29    1
5     2     3     1
6     2     4     1
7     2     5     1
8     3     30    1
9     3     31    1
10    3     32    1
11    4     33    1
12    4     34    1
13    4     35    1
14    5     6     1
15    5     7     1
16    5     8     1
17    8     9     1
18    8     36    1
19    8     37    1
20    9     10    1
21    9     11    1
22    9     12    1
23    11    38    1
24    12    13    1
25    12    39    1
26    12    40    1
27    13    14    1
28    14    26    1
29    14    15    2
30    15    16    1
31    16    17    1
32    16    25    2
33    17    24    1
34    17    18    2
35    18    19    1
36    18    41    1
37    19    20    2
38    19    42    1
39    20    21    1
40    20    24    1
41    21    22    am
42    21    23    2
43    22    43    1
44    22    44    1
45    25    26    1
46    25    45    1
@<TRIPOS>SUBSTRUCTURE
1   ZINC000001846151 1     RESIDUE    1   A     ZIN   1
