@<TRIPOS>MOLECULE
ZINC000028864451
85    90    1     0     0
SMALL
USER_CHARGES
@<TRIPOS>ATOM
1      C1      0.0112   -1.6631    4.4732 C.3      1 ZINC000028864451    0.0700
2      N2      0.0198   -2.0411    3.0578 N.pl3    1 ZINC000028864451   -0.4000
3      C3      0.1434   -3.3057    2.5768 C.2      1 ZINC000028864451    0.0000
4      C4      0.1086   -3.2624    1.2187 C.2      1 ZINC000028864451    0.0700
5      N5      0.2059   -4.3652    0.3511 N.am     1 ZINC000028864451   -0.6300
6      C6      0.1566   -4.1795   -0.9829 C.2      1 ZINC000028864451    0.6000
7      O7      0.1251   -3.0516   -1.4397 O.2      1 ZINC000028864451   -0.5400
8      C8      0.1409   -5.3362   -1.8842 C.2      1 ZINC000028864451   -0.0500
9      C9      0.0715   -6.6608   -1.5070 C.2      1 ZINC000028864451   -0.1300
10     C10     0.0814   -7.4256   -2.6825 C.2      1 ZINC000028864451    0.0600
11     N11     0.0243   -8.8287   -2.7593 N.am     1 ZINC000028864451   -0.6400
12     C12    -0.0473   -9.5630   -1.6315 C.2      1 ZINC000028864451    0.5600
13     O13    -0.0626   -9.0123   -0.5473 O.2      1 ZINC000028864451   -0.5200
14     C14    -0.1073  -11.0356   -1.7121 C.ar     1 ZINC000028864451   -0.1400
15     C15    -0.0839  -11.6687   -2.9586 C.ar     1 ZINC000028864451   -0.0800
16     C16    -0.1393  -13.0311   -3.0339 C.ar     1 ZINC000028864451   -0.1100
17     C17    -0.2190  -13.7937   -1.8632 C.ar     1 ZINC000028864451   -0.0200
18     C18    -0.2783  -15.2620   -1.9436 C.2      1 ZINC000028864451   -0.1200
19     C19    -0.3549  -15.9943   -0.8187 C.2      1 ZINC000028864451   -0.0800
20     C20    -0.4142  -17.4636   -0.8992 C.ar     1 ZINC000028864451   -0.1200
21     C21    -0.3852  -18.1079   -2.1504 C.ar     1 ZINC000028864451    0.1400
22     N22    -0.4365  -19.4111   -2.2496 N.ar     1 ZINC000028864451   -0.4700
23     C23    -0.5185  -20.1966   -1.1697 C.ar     1 ZINC000028864451    0.1300
24     C24    -0.5719  -21.5949   -1.2993 C.ar     1 ZINC000028864451   -0.0900
25     C25    -0.6547  -22.3752   -0.1869 C.ar     1 ZINC000028864451   -0.1000
26     C26    -0.6883  -21.8113    1.0870 C.ar     1 ZINC000028864451   -0.1100
27     C27    -0.6386  -20.4612    1.2539 C.ar     1 ZINC000028864451   -0.1000
28     C28    -0.5522  -19.6246    0.1276 C.ar     1 ZINC000028864451   -0.1000
29     C29    -0.4936  -18.2277    0.2616 C.ar     1 ZINC000028864451   -0.0400
30     C30    -0.2419  -13.1594   -0.6159 C.ar     1 ZINC000028864451   -0.1200
31     C31    -0.1815  -11.7971   -0.5418 C.ar     1 ZINC000028864451   -0.0500
32     C32     0.1552   -6.5677   -3.7342 C.2      1 ZINC000028864451   -0.0100
33     N33     0.1866   -5.2952   -3.2589 N.pl3    1 ZINC000028864451   -0.4000
34     C34     0.2648   -4.0808   -4.0746 C.3      1 ZINC000028864451    0.0700
35     C35    -0.0423   -1.9214    0.8377 C.2      1 ZINC000028864451   -0.1300
36     C36    -0.1018   -1.1748    1.9956 C.2      1 ZINC000028864451   -0.0600
37     C37    -0.2567    0.2812    2.0796 C.2      1 ZINC000028864451    0.6100
38     O38    -0.2047    0.8372    3.1609 O.2      1 ZINC000028864451   -0.5400
39     N39    -0.4565    1.0034    0.9594 N.am     1 ZINC000028864451   -0.7200
40     C40    -0.5009    2.4660    1.0290 C.3      1 ZINC000028864451    0.1000
41     C41    -0.7381    3.0362   -0.3709 C.3      1 ZINC000028864451   -0.0200
42     N42    -0.7826    4.5029   -0.3011 N.4      1 ZINC000028864451   -0.3800
43     H43    -1.4786    4.7867    0.3721 H        1 ZINC000028864451    0.4300
44     C44    -1.1284    5.0460   -1.6219 C.3      1 ZINC000028864451   -0.0400
45     C45    -1.1744    6.5742   -1.5465 C.3      1 ZINC000028864451    0.0400
46     O46     0.0912    7.0622   -1.0927 O.3      1 ZINC000028864451   -0.3600
47     C47     0.4836    6.5423    0.1807 C.3      1 ZINC000028864451    0.0400
48     C48     0.5326    5.0141    0.1087 C.3      1 ZINC000028864451   -0.0500
49     H49    -1.0184   -1.5930    4.8242 H        1 ZINC000028864451    0.0800
50     H50     0.5426   -2.4171    5.0539 H        1 ZINC000028864451    0.0900
51     H51     0.5029   -0.6979    4.5944 H        1 ZINC000028864451    0.1000
52     H52     0.2520   -4.1983    3.1750 H        1 ZINC000028864451    0.1800
53     H53     0.3086   -5.2593    0.7128 H        1 ZINC000028864451    0.4200
54     H54     0.0200   -7.0382   -0.4964 H        1 ZINC000028864451    0.1700
55     H55     0.0364   -9.2680   -3.6241 H        1 ZINC000028864451    0.4100
56     H56    -0.0224  -11.0801   -3.8620 H        1 ZINC000028864451    0.1300
57     H57    -0.1220  -13.5199   -3.9968 H        1 ZINC000028864451    0.1300
58     H58    -0.2603  -15.7512   -2.9063 H        1 ZINC000028864451    0.1300
59     H59    -0.3729  -15.5050    0.1440 H        1 ZINC000028864451    0.1300
60     H60    -0.3195  -17.5125   -3.0491 H        1 ZINC000028864451    0.1600
61     H61    -0.5476  -22.0492   -2.2788 H        1 ZINC000028864451    0.1400
62     H62    -0.6954  -23.4492   -0.2934 H        1 ZINC000028864451    0.1300
63     H63    -0.7550  -22.4535    1.9527 H        1 ZINC000028864451    0.1300
64     H64    -0.6657  -20.0353    2.2460 H        1 ZINC000028864451    0.1300
65     H65    -0.5134  -17.7606    1.2352 H        1 ZINC000028864451    0.1400
66     H66    -0.3038  -13.7473    0.2879 H        1 ZINC000028864451    0.1300
67     H67    -0.1992  -11.3075    0.4206 H        1 ZINC000028864451    0.1400
68     H68     0.1806   -6.8507   -4.7761 H        1 ZINC000028864451    0.1800
69     H69    -0.7375   -3.7873   -4.3864 H        1 ZINC000028864451    0.0800
70     H70     0.7129   -3.2780   -3.4891 H        1 ZINC000028864451    0.1000
71     H71     0.8774   -4.2736   -4.9554 H        1 ZINC000028864451    0.0800
72     H72    -0.1048   -1.5446   -0.1726 H        1 ZINC000028864451    0.1700
73     H73    -0.5709    0.5547    0.1070 H        1 ZINC000028864451    0.4100
74     H74    -1.3119    2.7739    1.6889 H        1 ZINC000028864451    0.0900
75     H75     0.4460    2.8402    1.4180 H        1 ZINC000028864451    0.0900
76     H76     0.0729    2.7284   -1.0308 H        1 ZINC000028864451    0.1400
77     H77    -1.6850    2.6621   -0.7600 H        1 ZINC000028864451    0.1400
78     H78    -0.3761    4.7403   -2.3491 H        1 ZINC000028864451    0.1400
79     H79    -2.1041    4.6675   -1.9266 H        1 ZINC000028864451    0.1400
80     H80    -1.3883    6.9811   -2.5348 H        1 ZINC000028864451    0.1400
81     H81    -1.9540    6.8809   -0.8492 H        1 ZINC000028864451    0.0800
82     H82     1.4696    6.9262    0.4424 H        1 ZINC000028864451    0.1400
83     H83    -0.2393    6.8480    0.9371 H        1 ZINC000028864451    0.0800
84     H84     0.7901    4.6120    1.0886 H        1 ZINC000028864451    0.1500
85     H85     1.2842    4.7083   -0.6191 H        1 ZINC000028864451    0.1400
@<TRIPOS>BOND
1     1     2     1
2     1     49    1
3     1     50    1
4     1     51    1
5     2     36    1
6     2     3     1
7     3     4     2
8     3     52    1
9     4     5     1
10    4     35    1
11    5     6     am
12    5     53    1
13    6     7     2
14    6     8     1
15    8     33    1
16    8     9     2
17    9     10    1
18    9     54    1
19    10    11    1
20    10    32    2
21    11    12    am
22    11    55    1
23    12    13    2
24    12    14    1
25    14    31    ar
26    14    15    ar
27    15    16    ar
28    15    56    1
29    16    17    ar
30    16    57    1
31    17    18    1
32    17    30    ar
33    18    19    2
34    18    58    1
35    19    20    1
36    19    59    1
37    20    29    ar
38    20    21    ar
39    21    22    ar
40    21    60    1
41    22    23    ar
42    23    28    ar
43    23    24    ar
44    24    25    ar
45    24    61    1
46    25    26    ar
47    25    62    1
48    26    27    ar
49    26    63    1
50    27    28    ar
51    27    64    1
52    28    29    ar
53    29    65    1
54    30    31    ar
55    30    66    1
56    31    67    1
57    32    33    1
58    32    68    1
59    33    34    1
60    34    69    1
61    34    70    1
62    34    71    1
63    35    36    2
64    35    72    1
65    36    37    1
66    37    38    2
67    37    39    am
68    39    40    1
69    39    73    1
70    40    41    1
71    40    74    1
72    40    75    1
73    41    42    1
74    41    76    1
75    41    77    1
76    42    43    1
77    42    48    1
78    42    44    1
79    44    45    1
80    44    78    1
81    44    79    1
82    45    46    1
83    45    80    1
84    45    81    1
85    46    47    1
86    47    48    1
87    47    82    1
88    47    83    1
89    48    84    1
90    48    85    1
@<TRIPOS>SUBSTRUCTURE
1   ZINC000028864451 1     RESIDUE    1   A     ZIN   1
