@<TRIPOS>MOLECULE
ZINC000003812168
  63   68    0    0    0
SMALL
USER_CHARGES
NO_NAME
@<TRIPOS>ATOM
    1 C1       -2.4824     1.4363    -1.0558 C.3    1 <0>       0.0200
    2 N2       -1.7950     0.1462    -1.2007 N.3    1 <0>      -0.5400
    3 C3       -0.7127     0.2346    -2.1900 C.3    1 <0>       0.0200
    4 C4       -1.2877    -0.3283     0.0937 C.3    1 <0>       0.0300
    5 C5       -0.9469    -1.8186    -0.0067 C.3    1 <0>       0.0900
    6 H6       -0.2752    -1.9867    -0.8466 H      1 <0>       0.0700
    7 C7       -2.2367    -2.6188    -0.1987 C.3    1 <0>      -0.1300
    8 C8       -2.3868    -2.9984    -1.6710 C.3    1 <0>       0.1100
    9 N9       -1.8491    -4.3388    -1.9048 N.pl3  1 <0>      -0.4700
   10 C10      -0.5737    -4.7467    -1.6536 C.2    1 <0>       0.0900
   11 C11      -0.4319    -6.0659    -1.9331 C.2    1 <0>      -0.1200
   12 C12      -1.7606    -6.5197    -2.4290 C.ar   1 <0>      -0.0900
   13 C13      -2.2718    -7.7489    -2.8354 C.ar   1 <0>      -0.0500
   14 C14      -3.5772    -7.8335    -3.2742 C.ar   1 <0>      -0.1500
   15 C15      -4.3806    -6.7038    -3.3124 C.ar   1 <0>      -0.0900
   16 C16      -3.8934    -5.4870    -2.8873 C.ar   1 <0>      -0.1300
   17 C17      -2.5839    -5.3845    -2.4273 C.ar   1 <0>       0.1000
   18 C18       0.7236    -6.9692    -1.7944 C.2    1 <0>      -0.0500
   19 C19       1.8023    -6.9918    -0.9156 C.2    1 <0>      -0.0400
   20 C20       2.5917    -8.1887    -1.2912 C.2    1 <0>       0.5600
   21 O21       3.6124    -8.5995    -0.7848 O.2    1 <0>      -0.4600
   22 N22       2.0044    -8.8076    -2.3259 N.am   1 <0>      -0.6900
   23 C23       0.9170    -8.1341    -2.7017 C.2    1 <0>       0.5500
   24 O24       0.2185    -8.4148    -3.6553 O.2    1 <0>      -0.4500
   25 C25       2.1567    -6.0654     0.1764 C.2    1 <0>      -0.1300
   26 C26       1.4001    -5.0278     0.6445 C.2    1 <0>       0.1000
   27 N27       2.0878    -4.3321     1.5855 N.pl3  1 <0>      -0.4700
   28 C28       1.6533    -3.1024     2.2555 C.3    1 <0>       0.1100
   29 C29       1.0986    -2.1355     1.2072 C.3    1 <0>       0.0400
   30 O30      -0.3266    -2.2428     1.2094 O.3    1 <0>      -0.3800
   31 C31       3.2957    -4.9504     1.8380 C.ar   1 <0>       0.0900
   32 C32       4.3340    -4.6235     2.7051 C.ar   1 <0>      -0.1400
   33 C33       5.4396    -5.4404     2.7890 C.ar   1 <0>      -0.0900
   34 C34       5.5150    -6.5775     2.0020 C.ar   1 <0>      -0.1500
   35 C35       4.5035    -6.8939     1.1178 C.ar   1 <0>      -0.0700
   36 C36       3.3827    -6.0803     1.0057 C.ar   1 <0>      -0.0700
   37 H37      -2.8480     1.7645    -2.0288 H      1 <0>       0.0700
   38 H38      -3.3228     1.3253    -0.3705 H      1 <0>       0.0700
   39 H39      -1.7866     2.1764    -0.6606 H      1 <0>       0.0300
   40 H40       0.0606     0.9095    -1.8232 H      1 <0>       0.0300
   41 H41      -0.2850    -0.7552    -2.3501 H      1 <0>       0.0700
   42 H42      -1.1105     0.6150    -3.1308 H      1 <0>       0.0700
   43 H43      -0.3916     0.2321     0.3603 H      1 <0>       0.0400
   44 H44      -2.0497    -0.1806     0.8589 H      1 <0>       0.0900
   45 H45      -2.2001    -3.5222     0.4113 H      1 <0>       0.0900
   46 H46      -3.0894    -2.0094     0.1074 H      1 <0>       0.0900
   47 H47      -3.4431    -2.9799    -1.9420 H      1 <0>       0.1000
   48 H48      -1.8418    -2.2812    -2.2870 H      1 <0>       0.0900
   49 H49       0.2170    -4.0995    -1.3052 H      1 <0>       0.1600
   50 H50      -1.6595    -8.6358    -2.8055 H      1 <0>       0.1300
   51 H51      -3.9799    -8.7878    -3.5804 H      1 <0>       0.1200
   52 H52      -5.3930    -6.7783    -3.6796 H      1 <0>       0.1300
   53 H53      -4.5294    -4.6139    -2.9141 H      1 <0>       0.1200
   54 H54       2.3341    -9.6196    -2.7393 H      1 <0>       0.4300
   55 H55       0.3926    -4.8095     0.3253 H      1 <0>       0.1800
   56 H56       0.8770    -3.3413     2.9814 H      1 <0>       0.1000
   57 H57       2.5022    -2.6427     2.7594 H      1 <0>       0.1100
   58 H58       1.3979    -1.1170     1.4490 H      1 <0>       0.0800
   59 H59       1.4856    -2.4128     0.2239 H      1 <0>       0.0700
   60 H60       4.2738    -3.7292     3.3083 H      1 <0>       0.1200
   61 H61       6.2407    -5.1931     3.4684 H      1 <0>       0.1300
   62 H62       6.3726    -7.2297     2.0871 H      1 <0>       0.1200
   63 H63       4.6159    -7.7903     0.5320 H      1 <0>       0.1500
@<TRIPOS>BOND
   1    1    2 1
   2    1   37 1
   3    1   38 1
   4    1   39 1
   5    2    3 1
   6    2    4 1
   7    3   40 1
   8    3   41 1
   9    3   42 1
  10    4    5 1
  11    4   43 1
  12    4   44 1
  13    5    6 1
  14    5   30 1
  15    5    7 1
  16    7    8 1
  17    7   45 1
  18    7   46 1
  19    8    9 1
  20    8   47 1
  21    8   48 1
  22    9   17 1
  23    9   10 1
  24   10   11 2
  25   10   49 1
  26   11   12 1
  27   11   18 1
  28   12   17 ar
  29   12   13 ar
  30   13   14 ar
  31   13   50 1
  32   14   15 ar
  33   14   51 1
  34   15   16 ar
  35   15   52 1
  36   16   17 ar
  37   16   53 1
  38   18   23 1
  39   18   19 2
  40   19   20 1
  41   19   25 1
  42   20   21 2
  43   20   22 am
  44   22   23 am
  45   22   54 1
  46   23   24 2
  47   25   36 1
  48   25   26 2
  49   26   27 1
  50   26   55 1
  51   27   28 1
  52   27   31 1
  53   28   29 1
  54   28   56 1
  55   28   57 1
  56   29   30 1
  57   29   58 1
  58   29   59 1
  59   31   36 ar
  60   31   32 ar
  61   32   33 ar
  62   32   60 1
  63   33   34 ar
  64   33   61 1
  65   34   35 ar
  66   34   62 1
  67   35   36 ar
  68   35   63 1
