@<TRIPOS>MOLECULE
ZINC000261506651
  54   58    0    0    0
SMALL
USER_CHARGES
NO_NAME
@<TRIPOS>ATOM
    1 C1       -0.0178     1.4648     0.0101 C.3    1 <0>      -0.0600
    2 N2        0.0021    -0.0041     0.0020 N.4    1 <0>      -0.2700
    3 C3        0.5140    -0.5070    -1.2798 C.3    1 <0>       0.0100
    4 C4       -0.3746    -0.0007    -2.4178 C.3    1 <0>      -0.2100
    5 C5        0.2625     0.9313    -3.4504 C.3    1 <0>      -0.1700
    6 C6       -0.0758    -0.5121    -3.8284 C.3    1 <0>      -0.1500
    7 C7       -1.3545    -0.5477     0.2773 C.3    1 <0>       0.0500
    8 H8       -2.0017    -0.5047    -0.5988 H      1 <0>       0.1600
    9 C9       -1.9308     0.2440     1.4621 C.3    1 <0>      -0.1400
   10 C10      -1.0710    -0.0221     2.7011 C.3    1 <0>       0.0700
   11 H11      -1.4074     0.6145     3.5194 H      1 <0>       0.1200
   12 O12      -1.2004    -1.4155     3.0886 O.3    1 <0>      -0.3300
   13 C13      -1.0684    -1.6998     4.3937 C.2    1 <0>       0.4600
   14 O14      -0.8519    -0.8138     5.1862 O.2    1 <0>      -0.4800
   15 C15      -1.1902    -3.1241     4.8707 C.3    1 <0>      -0.0300
   16 H16      -0.4263    -3.7350     4.3895 H      1 <0>       0.1200
   17 C17      -2.5759    -3.6651     4.5128 C.3    1 <0>       0.0900
   18 O18      -2.7097    -3.7296     3.0916 O.3    1 <0>      -0.5700
   19 C19      -1.0032    -3.1712     6.3653 C.ar   1 <0>      -0.1000
   20 C20      -1.8632    -2.4724     7.1918 C.ar   1 <0>      -0.0900
   21 C21      -1.6916    -2.5156     8.5628 C.ar   1 <0>      -0.1200
   22 C22      -0.6604    -3.2577     9.1073 C.ar   1 <0>      -0.1000
   23 C23       0.1991    -3.9572     8.2808 C.ar   1 <0>      -0.1200
   24 C24       0.0250    -3.9175     6.9101 C.ar   1 <0>      -0.1000
   25 C25       0.3963     0.2841     2.3875 C.3    1 <0>      -0.1600
   26 C26       0.8183    -0.5229     1.1317 C.3    1 <0>       0.0400
   27 H27       1.8886    -0.4510     0.9380 H      1 <0>       0.1600
   28 C28       0.3574    -1.9850     1.3323 C.3    1 <0>       0.0000
   29 H29       0.6437    -2.4892     2.2553 H      1 <0>       0.1800
   30 O30       0.0368    -2.7515     0.1697 O.3    1 <0>      -0.3100
   31 C31      -1.0950    -1.9993     0.7418 C.3    1 <0>      -0.0100
   32 H32      -1.9223    -2.5326     1.2101 H      1 <0>       0.2000
   33 H33       0.9947     1.8427    -0.1319 H      1 <0>       0.1200
   34 H34      -0.6562     1.8239    -0.7971 H      1 <0>       0.1300
   35 H35      -0.4068     1.8176     0.9653 H      1 <0>       0.1300
   36 H36       1.5333    -0.1509    -1.4288 H      1 <0>       0.1200
   37 H37       0.5075    -1.5969    -1.2711 H      1 <0>       0.1500
   38 H38      -1.4182     0.1751    -2.1567 H      1 <0>       0.1200
   39 H39      -0.3619     1.7207    -3.8689 H      1 <0>       0.1100
   40 H40       1.3147     1.1838    -3.3190 H      1 <0>       0.1000
   41 H41       0.7539    -1.2093    -3.9458 H      1 <0>       0.1100
   42 H42      -0.9227    -0.6724    -4.4956 H      1 <0>       0.1100
   43 H43      -1.9176     1.3090     1.2305 H      1 <0>       0.1200
   44 H44      -2.9548    -0.0774     1.6524 H      1 <0>       0.1300
   45 H45      -2.6966    -4.6628     4.9348 H      1 <0>       0.0700
   46 H46      -3.3405    -3.0035     4.9201 H      1 <0>       0.0600
   47 H47      -3.5659    -4.0645     2.7919 H      1 <0>       0.3900
   48 H48      -2.6689    -1.8926     6.7664 H      1 <0>       0.1200
   49 H49      -2.3631    -1.9691     9.2084 H      1 <0>       0.1300
   50 H50      -0.5259    -3.2909    10.1784 H      1 <0>       0.1300
   51 H51       1.0050    -4.5368     8.7062 H      1 <0>       0.1300
   52 H52       0.6964    -4.4640     6.2644 H      1 <0>       0.1200
   53 H53       0.5141     1.3510     2.1976 H      1 <0>       0.1200
   54 H54       1.0191    -0.0088     3.2328 H      1 <0>       0.1200
@<TRIPOS>BOND
   1    1    2 1
   2    1   33 1
   3    1   34 1
   4    1   35 1
   5    2   26 1
   6    2    3 1
   7    2    7 1
   8    3    4 1
   9    3   36 1
  10    3   37 1
  11    4    6 1
  12    4    5 1
  13    4   38 1
  14    5    6 1
  15    5   39 1
  16    5   40 1
  17    6   41 1
  18    6   42 1
  19    7    8 1
  20    7   31 1
  21    7    9 1
  22    9   10 1
  23    9   43 1
  24    9   44 1
  25   10   11 1
  26   10   12 1
  27   10   25 1
  28   12   13 1
  29   13   14 2
  30   13   15 1
  31   15   16 1
  32   15   17 1
  33   15   19 1
  34   17   18 1
  35   17   45 1
  36   17   46 1
  37   18   47 1
  38   19   24 ar
  39   19   20 ar
  40   20   21 ar
  41   20   48 1
  42   21   22 ar
  43   21   49 1
  44   22   23 ar
  45   22   50 1
  46   23   24 ar
  47   23   51 1
  48   24   52 1
  49   25   26 1
  50   25   53 1
  51   25   54 1
  52   26   27 1
  53   26   28 1
  54   28   29 1
  55   28   31 1
  56   28   30 1
  57   30   31 1
  58   31   32 1
