@<TRIPOS>MOLECULE
ZINC000002009579
58    59    1     0     0
SMALL
USER_CHARGES
@<TRIPOS>ATOM
1      C1     -0.0173    1.4248    0.0099 C.3      1 ZINC000002009579    0.0200
2      O2      0.0021   -0.0041    0.0020 O.3      1 ZINC000002009579   -0.3100
3      C3     -1.2011   -0.6379    0.0101 C.ar     1 ZINC000002009579    0.1100
4      C4     -2.3739    0.0992    0.0195 C.ar     1 ZINC000002009579   -0.1600
5      C5     -3.5965   -0.5469    0.0272 C.ar     1 ZINC000002009579   -0.0400
6      C6     -4.8714    0.2566    0.0374 C.3      1 ZINC000002009579   -0.1100
7      C7     -5.3064    0.5265   -1.3800 C.2      1 ZINC000002009579    0.5100
8      O8     -4.6462    0.1076   -2.3071 O.2      1 ZINC000002009579   -0.5300
9      N9     -6.4292    1.2333   -1.6173 N.am     1 ZINC000002009579   -0.7300
10     C10    -6.8521    1.4957   -2.9952 C.3      1 ZINC000002009579    0.1200
11     C11    -8.1464    2.3114   -2.9849 C.3      1 ZINC000002009579   -0.1300
12     C12    -8.5881    2.5854   -4.4239 C.3      1 ZINC000002009579   -0.0800
13     C13    -9.8630    3.3889   -4.4137 C.ar     1 ZINC000002009579   -0.0900
14     C14   -11.0857    2.7448   -4.4002 C.ar     1 ZINC000002009579   -0.1200
15     C15   -12.2553    3.4819   -4.3909 C.ar     1 ZINC000002009579   -0.1100
16     C16   -12.2018    4.8630   -4.3946 C.ar     1 ZINC000002009579   -0.0900
17     C17   -13.4767    5.6665   -4.3849 C.3      1 ZINC000002009579   -0.1200
18     C18   -10.9787    5.5074   -4.4066 C.ar     1 ZINC000002009579   -0.0800
19     C19   -10.9203    7.0133   -4.4101 C.3      1 ZINC000002009579   -0.1200
20     C20    -9.8094    4.7705   -4.4121 C.ar     1 ZINC000002009579   -0.1100
21     C21    -3.6519   -1.9279    0.0251 C.ar     1 ZINC000002009579   -0.1000
22     C22    -2.4848   -2.6697    0.0163 C.ar     1 ZINC000002009579   -0.1600
23     C23    -1.2569   -2.0287    0.0032 C.ar     1 ZINC000002009579    0.0800
24     O24    -0.1082   -2.7567   -0.0056 O.3      1 ZINC000002009579   -0.3200
25     C25    -0.2418   -4.1795   -0.0006 C.3      1 ZINC000002009579    0.0200
26     C26     1.1466   -4.8221   -0.0118 C.3      1 ZINC000002009579    0.0000
27     N27     1.8485   -4.4933    1.2361 N.4      1 ZINC000002009579   -0.6400
28     H28     2.7641   -4.9171    1.2287 H        1 ZINC000002009579    0.4400
29     H29     1.9421   -3.4918    1.3155 H        1 ZINC000002009579    0.4400
30     H30     1.3213   -4.8451    2.0212 H        1 ZINC000002009579    0.4300
31     H31     1.0053    1.8021    0.0021 H        1 ZINC000002009579    0.1100
32     H32    -0.5445    1.7859   -0.8732 H        1 ZINC000002009579    0.0600
33     H33    -0.5275    1.7763    0.9067 H        1 ZINC000002009579    0.0600
34     H34    -2.3334    1.1784    0.0211 H        1 ZINC000002009579    0.1400
35     H35    -5.6497   -0.3033    0.5559 H        1 ZINC000002009579    0.1100
36     H36    -4.7006    1.2025    0.5514 H        1 ZINC000002009579    0.1100
37     H37    -6.9572    1.5684   -0.8758 H        1 ZINC000002009579    0.4000
38     H38    -6.0738    2.0556   -3.5137 H        1 ZINC000002009579    0.0700
39     H39    -7.0229    0.5498   -3.5092 H        1 ZINC000002009579    0.0700
40     H40    -8.9247    1.7515   -2.4663 H        1 ZINC000002009579    0.0700
41     H41    -7.9756    3.2574   -2.4709 H        1 ZINC000002009579    0.0700
42     H42    -7.8098    3.1454   -4.9424 H        1 ZINC000002009579    0.0800
43     H43    -8.7589    1.6395   -4.9379 H        1 ZINC000002009579    0.0800
44     H44   -11.1275    1.6656   -4.3974 H        1 ZINC000002009579    0.1200
45     H45   -13.2108    2.9786   -4.3811 H        1 ZINC000002009579    0.1200
46     H46   -13.7748    5.8626   -3.3549 H        1 ZINC000002009579    0.0700
47     H47   -13.3143    6.6120   -4.9024 H        1 ZINC000002009579    0.0700
48     H48   -14.2632    5.1061   -4.8903 H        1 ZINC000002009579    0.0700
49     H49   -10.8972    7.3783   -3.3833 H        1 ZINC000002009579    0.0700
50     H50   -10.0215    7.3408   -4.9325 H        1 ZINC000002009579    0.0700
51     H51   -11.8001    7.4098   -4.9169 H        1 ZINC000002009579    0.0700
52     H52    -8.8539    5.2738   -4.4215 H        1 ZINC000002009579    0.1200
53     H53    -4.6087   -2.4288    0.0308 H        1 ZINC000002009579    0.1300
54     H54    -2.5308   -3.7487    0.0154 H        1 ZINC000002009579    0.1400
55     H55    -0.7791   -4.4908    0.8953 H        1 ZINC000002009579    0.0900
56     H56    -0.7956   -4.4955   -0.8846 H        1 ZINC000002009579    0.1100
57     H57     1.0455   -5.9040   -0.0975 H        1 ZINC000002009579    0.1500
58     H58     1.7161   -4.4420   -0.8599 H        1 ZINC000002009579    0.1400
@<TRIPOS>BOND
1     1     2     1
2     1     31    1
3     1     32    1
4     1     33    1
5     2     3     1
6     3     23    ar
7     3     4     ar
8     4     5     ar
9     4     34    1
10    5     6     1
11    5     21    ar
12    6     7     1
13    6     35    1
14    6     36    1
15    7     8     2
16    7     9     am
17    9     10    1
18    9     37    1
19    10    11    1
20    10    38    1
21    10    39    1
22    11    12    1
23    11    40    1
24    11    41    1
25    12    13    1
26    12    42    1
27    12    43    1
28    13    20    ar
29    13    14    ar
30    14    15    ar
31    14    44    1
32    15    16    ar
33    15    45    1
34    16    17    1
35    16    18    ar
36    17    46    1
37    17    47    1
38    17    48    1
39    18    19    1
40    18    20    ar
41    19    49    1
42    19    50    1
43    19    51    1
44    20    52    1
45    21    22    ar
46    21    53    1
47    22    23    ar
48    22    54    1
49    23    24    1
50    24    25    1
51    25    26    1
52    25    55    1
53    25    56    1
54    26    27    1
55    26    57    1
56    26    58    1
57    27    28    1
58    27    29    1
59    27    30    1
@<TRIPOS>SUBSTRUCTURE
1   ZINC000002009579 1     RESIDUE    1   A     ZIN   1
