@<TRIPOS>MOLECULE
ZINC000022010579
76    79    1     0     0
SMALL
USER_CHARGES
@<TRIPOS>ATOM
1      C1      1.7038   -2.8387   -2.2851 C.3      1 ZINC000022010579    0.0300
2      O2      0.6130   -3.0249   -1.3809 O.3      1 ZINC000022010579   -0.3700
3      C3     -0.0058   -1.8081   -0.9583 C.3      1 ZINC000022010579    0.0600
4      C4     -1.1538   -2.1264    0.0017 C.3      1 ZINC000022010579    0.1200
5      H5     -1.6738   -1.2052    0.2644 H        1 ZINC000022010579    0.0700
6      C6     -2.1174   -3.0746   -0.6644 C.ar     1 ZINC000022010579   -0.0300
7      C7     -1.8531   -4.4313   -0.6792 C.ar     1 ZINC000022010579   -0.0700
8      C8     -2.7370   -5.3010   -1.2901 C.ar     1 ZINC000022010579   -0.0800
9      C9     -3.8853   -4.8140   -1.8860 C.ar     1 ZINC000022010579   -0.1800
10     C10    -4.8486   -5.7621   -2.5525 C.3      1 ZINC000022010579    0.5100
11     F11    -5.7970   -6.1954   -1.6198 F        1 ZINC000022010579   -0.1800
12     F12    -5.4957   -5.1060   -3.6051 F        1 ZINC000022010579   -0.1800
13     F13    -4.1474   -6.8651   -3.0514 F        1 ZINC000022010579   -0.1800
14     C14    -4.1502   -3.4574   -1.8701 C.ar     1 ZINC000022010579   -0.0700
15     C15    -3.2683   -2.5881   -1.2557 C.ar     1 ZINC000022010579   -0.1300
16     N16    -0.6162   -2.7494    1.2185 N.3      1 ZINC000022010579   -0.5200
17     C17     0.6662   -2.1409    1.5992 C.3      1 ZINC000022010579    0.0600
18     C18     1.2303   -2.8688    2.8217 C.3      1 ZINC000022010579    0.0500
19     N19     0.2639   -2.7880    3.9258 N.3      1 ZINC000022010579   -0.5300
20     C20     0.8015   -3.4110    5.1427 C.3      1 ZINC000022010579    0.1200
21     C21     2.0293   -2.6300    5.6154 C.3      1 ZINC000022010579   -0.1400
22     C22    -0.2664   -3.3940    6.2388 C.3      1 ZINC000022010579   -0.1200
23     C23     0.3091   -4.0129    7.5164 C.3      1 ZINC000022010579    0.1100
24     N24     0.8290   -5.3505    7.2013 N.am     1 ZINC000022010579   -0.6000
25     C25     0.4278   -6.4269    7.9062 C.2      1 ZINC000022010579    0.5800
26     O26    -0.3716   -6.2963    8.8125 O.2      1 ZINC000022010579   -0.5200
27     C27     0.9600   -7.7663    7.5772 C.ar     1 ZINC000022010579   -0.2400
28     C28     2.1189   -8.2514    8.1937 C.ar     1 ZINC000022010579    0.2100
29     C29     2.8526   -7.4154    9.2105 C.3      1 ZINC000022010579   -0.1100
30     N30     2.5592   -9.4546    7.8700 N.ar     1 ZINC000022010579   -0.5200
31     C31     1.9236  -10.1934    6.9817 C.ar     1 ZINC000022010579    0.3200
32     N32     0.8290   -9.7752    6.3769 N.ar     1 ZINC000022010579   -0.5200
33     C33     0.3158   -8.5873    6.6447 C.ar     1 ZINC000022010579    0.2200
34     C34    -0.9357   -8.1190    5.9478 C.3      1 ZINC000022010579   -0.1100
35     C35     1.7943   -5.4924    6.1027 C.3      1 ZINC000022010579    0.1100
36     C36     1.2022   -4.8569    4.8409 C.3      1 ZINC000022010579   -0.1600
37     C37    -1.0185   -3.3966    3.5451 C.3      1 ZINC000022010579    0.0600
38     C38    -1.5826   -2.6686    2.3227 C.3      1 ZINC000022010579    0.0900
39     H39    -1.7623   -1.6231    2.5729 H        1 ZINC000022010579    0.0500
40     C40    -2.8980   -3.3255    1.8994 C.3      1 ZINC000022010579   -0.1600
41     H41     2.1190   -3.8088   -2.5582 H        1 ZINC000022010579    0.0900
42     H42     1.3498   -2.3296   -3.1816 H        1 ZINC000022010579    0.0400
43     H43     2.4746   -2.2356   -1.8053 H        1 ZINC000022010579    0.0400
44     H44     0.7295   -1.1837   -0.4510 H        1 ZINC000022010579    0.0600
45     H45    -0.3953   -1.2777   -1.8273 H        1 ZINC000022010579    0.0600
46     H46    -0.9560   -4.8118   -0.2136 H        1 ZINC000022010579    0.1400
47     H47    -2.5302   -6.3610   -1.3023 H        1 ZINC000022010579    0.1300
48     H48    -5.0476   -3.0770   -2.3353 H        1 ZINC000022010579    0.1300
49     H49    -3.4753   -1.5282   -1.2433 H        1 ZINC000022010579    0.1300
50     H50     1.3687   -2.2243    0.7700 H        1 ZINC000022010579    0.0900
51     H51     0.5120   -1.0893    1.8412 H        1 ZINC000022010579    0.0400
52     H52     1.4099   -3.9144    2.5714 H        1 ZINC000022010579    0.0500
53     H53     2.1672   -2.4006    3.1234 H        1 ZINC000022010579    0.0800
54     H54     1.7442   -1.6000    5.8299 H        1 ZINC000022010579    0.0700
55     H55     2.4284   -3.0921    6.5183 H        1 ZINC000022010579    0.0600
56     H56     2.7899   -2.6414    4.8347 H        1 ZINC000022010579    0.0600
57     H57    -0.5681   -2.3655    6.4367 H        1 ZINC000022010579    0.0900
58     H58    -1.1316   -3.9711    5.9127 H        1 ZINC000022010579    0.0700
59     H59     1.1172   -3.3864    7.8941 H        1 ZINC000022010579    0.0800
60     H60    -0.4755   -4.0938    8.2688 H        1 ZINC000022010579    0.1000
61     H61     2.4589   -7.6247   10.2051 H        1 ZINC000022010579    0.0900
62     H62     3.9149   -7.6579    9.1818 H        1 ZINC000022010579    0.0900
63     H63     2.7147   -6.3590    8.9800 H        1 ZINC000022010579    0.0800
64     H64     2.3122  -11.1721    6.7416 H        1 ZINC000022010579    0.2000
65     H65    -1.8086   -8.4212    6.5265 H        1 ZINC000022010579    0.0900
66     H66    -0.9172   -7.0328    5.8587 H        1 ZINC000022010579    0.0800
67     H67    -0.9865   -8.5643    4.9542 H        1 ZINC000022010579    0.0900
68     H68     2.7235   -4.9866    6.3651 H        1 ZINC000022010579    0.0800
69     H69     1.9897   -6.5495    5.9223 H        1 ZINC000022010579    0.0800
70     H70     0.3231   -5.4203    4.5280 H        1 ZINC000022010579    0.0700
71     H71     1.9457   -4.8696    4.0439 H        1 ZINC000022010579    0.0800
72     H72    -0.8643   -4.4481    3.3031 H        1 ZINC000022010579    0.0500
73     H73    -1.7210   -3.3131    4.3743 H        1 ZINC000022010579    0.0800
74     H74    -3.6137   -3.2668    2.7194 H        1 ZINC000022010579    0.0600
75     H75    -3.2994   -2.8069    1.0288 H        1 ZINC000022010579    0.0700
76     H76    -2.7178   -4.3708    1.6485 H        1 ZINC000022010579    0.0700
@<TRIPOS>BOND
1     1     2     1
2     1     41    1
3     1     42    1
4     1     43    1
5     2     3     1
6     3     4     1
7     3     44    1
8     3     45    1
9     4     5     1
10    4     6     1
11    4     16    1
12    6     15    ar
13    6     7     ar
14    7     8     ar
15    7     46    1
16    8     9     ar
17    8     47    1
18    9     10    1
19    9     14    ar
20    10    11    1
21    10    12    1
22    10    13    1
23    14    15    ar
24    14    48    1
25    15    49    1
26    16    38    1
27    16    17    1
28    17    18    1
29    17    50    1
30    17    51    1
31    18    19    1
32    18    52    1
33    18    53    1
34    19    20    1
35    19    37    1
36    20    36    1
37    20    21    1
38    20    22    1
39    21    54    1
40    21    55    1
41    21    56    1
42    22    23    1
43    22    57    1
44    22    58    1
45    23    24    1
46    23    59    1
47    23    60    1
48    24    25    am
49    24    35    1
50    25    26    2
51    25    27    1
52    27    33    ar
53    27    28    ar
54    28    29    1
55    28    30    ar
56    29    61    1
57    29    62    1
58    29    63    1
59    30    31    ar
60    31    32    ar
61    31    64    1
62    32    33    ar
63    33    34    1
64    34    65    1
65    34    66    1
66    34    67    1
67    35    36    1
68    35    68    1
69    35    69    1
70    36    70    1
71    36    71    1
72    37    38    1
73    37    72    1
74    37    73    1
75    38    39    1
76    38    40    1
77    40    74    1
78    40    75    1
79    40    76    1
@<TRIPOS>SUBSTRUCTURE
1   ZINC000022010579 1     RESIDUE    1   A     ZIN   1
