@<TRIPOS>MOLECULE
ZINC000003785696
62    63    1     0     0
SMALL
USER_CHARGES
@<TRIPOS>ATOM
1      N1     -0.0116    1.0048    0.0076 N.4      1 ZINC000003785696   -0.6400
2      H2      0.0021   -0.0041    0.0020 H        1 ZINC000003785696    0.4300
3      H3      0.9350    1.3541    0.0004 H        1 ZINC000003785696    0.4300
4      H4     -0.4996    1.3391   -0.8099 H        1 ZINC000003785696    0.4300
5      C5     -0.6992    1.4786    1.2162 C.3      1 ZINC000003785696   -0.0100
6      C6      0.0408    0.9717    2.4557 C.3      1 ZINC000003785696   -0.1500
7      C7     -0.6753    1.4652    3.7145 C.3      1 ZINC000003785696   -0.1200
8      C8      0.0647    0.9583    4.9540 C.3      1 ZINC000003785696   -0.1300
9      C9     -0.6515    1.4517    6.2128 C.3      1 ZINC000003785696    0.1600
10     H10    -1.6981    1.1493    6.1776 H        1 ZINC000003785696    0.0800
11     O11    -0.5694    2.8768    6.2799 O.3      1 ZINC000003785696   -0.7400
12     P12    -1.8668    3.8300    6.2971 P.3      1 ZINC000003785696    2.2700
13     O13    -2.8006    3.4080    7.4533 O.co2    1 ZINC000003785696   -1.0900
14     O14    -2.6191    3.7001    4.9539 O.co2    1 ZINC000003785696   -1.0900
15     C15    -1.3462    5.5605    6.5371 C.3      1 ZINC000003785696   -0.7300
16     C16    -2.5829    6.4502    6.6782 C.3      1 ZINC000003785696   -0.0900
17     C17    -2.1461    7.9026    6.8797 C.3      1 ZINC000003785696   -0.1100
18     C18    -3.3828    8.7923    7.0207 C.3      1 ZINC000003785696   -0.0900
19     C19    -2.9525   10.2229    7.2192 C.ar     1 ZINC000003785696   -0.0700
20     C20    -2.7357   10.7088    8.4950 C.ar     1 ZINC000003785696   -0.1200
21     C21    -2.3410   12.0210    8.6770 C.ar     1 ZINC000003785696   -0.1200
22     C22    -2.1626   12.8472    7.5832 C.ar     1 ZINC000003785696   -0.1300
23     C23    -2.3785   12.3610    6.3073 C.ar     1 ZINC000003785696   -0.1200
24     C24    -2.7690   11.0476    6.1250 C.ar     1 ZINC000003785696   -0.1200
25     C25     0.0036    0.8530    7.4308 C.2      1 ZINC000003785696    0.5200
26     O26     0.5718    1.5693    8.2276 O.2      1 ZINC000003785696   -0.5100
27     N27    -0.0420   -0.4785    7.6345 N.am     1 ZINC000003785696   -0.5900
28     C28    -0.6902   -1.4617    6.7477 C.3      1 ZINC000003785696    0.1000
29     C29    -1.0133   -2.6690    7.6631 C.3      1 ZINC000003785696   -0.1300
30     C30     0.2236   -2.6895    8.5996 C.3      1 ZINC000003785696   -0.1100
31     C31     0.5521   -1.1917    8.7747 C.3      1 ZINC000003785696    0.0700
32     H32     0.1171   -0.8229    9.7036 H        1 ZINC000003785696    0.0700
33     C33     2.0458   -0.9935    8.7943 C.2      1 ZINC000003785696    0.5000
34     O34     2.6511   -0.8166    7.7508 O.co2    1 ZINC000003785696   -0.6900
35     O35     2.6491   -1.0100    9.8537 O.co2    1 ZINC000003785696   -0.7000
36     H36    -0.7140    2.5685    1.2222 H        1 ZINC000003785696    0.1400
37     H37    -1.7218    1.1013    1.2239 H        1 ZINC000003785696    0.1400
38     H38     0.0556   -0.1181    2.4497 H        1 ZINC000003785696    0.0800
39     H39     1.0634    1.3490    2.4480 H        1 ZINC000003785696    0.0800
40     H40    -0.6901    2.5550    3.7205 H        1 ZINC000003785696    0.0900
41     H41    -1.6979    1.0879    3.7222 H        1 ZINC000003785696    0.0800
42     H42     0.0794   -0.1316    4.9480 H        1 ZINC000003785696    0.0800
43     H43     1.0873    1.3356    4.9463 H        1 ZINC000003785696    0.0800
44     H44    -0.7397    5.6357    7.4397 H        1 ZINC000003785696    0.0700
45     H45    -0.7604    5.8863    5.6776 H        1 ZINC000003785696    0.0700
46     H46    -3.1895    6.3751    5.7756 H        1 ZINC000003785696    0.0700
47     H47    -3.1687    6.1245    7.5378 H        1 ZINC000003785696    0.0700
48     H48    -1.5396    7.9778    7.7822 H        1 ZINC000003785696    0.0600
49     H49    -1.5603    8.2284    6.0201 H        1 ZINC000003785696    0.0500
50     H50    -3.9893    8.7172    6.1182 H        1 ZINC000003785696    0.0700
51     H51    -3.9686    8.4665    7.8803 H        1 ZINC000003785696    0.0800
52     H52    -2.8751   10.0633    9.3496 H        1 ZINC000003785696    0.1200
53     H53    -2.1723   12.4009    9.6739 H        1 ZINC000003785696    0.1200
54     H54    -1.8549   13.8726    7.7254 H        1 ZINC000003785696    0.1200
55     H55    -2.2394   13.0066    5.4527 H        1 ZINC000003785696    0.1200
56     H56    -2.9377   10.6677    5.1282 H        1 ZINC000003785696    0.1200
57     H57    -1.6072   -1.0476    6.3283 H        1 ZINC000003785696    0.0700
58     H58    -0.0091   -1.7612    5.9511 H        1 ZINC000003785696    0.0600
59     H59    -1.9289   -2.4964    8.2288 H        1 ZINC000003785696    0.0700
60     H60    -1.0809   -3.5905    7.0849 H        1 ZINC000003785696    0.0700
61     H61    -0.0254   -3.1466    9.5573 H        1 ZINC000003785696    0.0700
62     H62     1.0564   -3.2105    8.1273 H        1 ZINC000003785696    0.0700
@<TRIPOS>BOND
1     1     2     1
2     1     3     1
3     1     4     1
4     1     5     1
5     5     6     1
6     5     36    1
7     5     37    1
8     6     7     1
9     6     38    1
10    6     39    1
11    7     8     1
12    7     40    1
13    7     41    1
14    8     9     1
15    8     42    1
16    8     43    1
17    9     10    1
18    9     11    1
19    9     25    1
20    11    12    1
21    12    13    ar
22    12    14    ar
23    12    15    1
24    15    16    1
25    15    44    1
26    15    45    1
27    16    17    1
28    16    46    1
29    16    47    1
30    17    18    1
31    17    48    1
32    17    49    1
33    18    19    1
34    18    50    1
35    18    51    1
36    19    24    ar
37    19    20    ar
38    20    21    ar
39    20    52    1
40    21    22    ar
41    21    53    1
42    22    23    ar
43    22    54    1
44    23    24    ar
45    23    55    1
46    24    56    1
47    25    26    2
48    25    27    am
49    27    31    1
50    27    28    1
51    28    29    1
52    28    57    1
53    28    58    1
54    29    30    1
55    29    59    1
56    29    60    1
57    30    31    1
58    30    61    1
59    30    62    1
60    31    32    1
61    31    33    1
62    33    34    ar
63    33    35    ar
@<TRIPOS>SUBSTRUCTURE
1   ZINC000003785696 1     RESIDUE    1   A     ZIN   1
