@<TRIPOS>MOLECULE
ZINC000028815572
78    82    1     0     0
SMALL
USER_CHARGES
@<TRIPOS>ATOM
1      C1      2.0856   -9.0415    2.5478 C.3      1 ZINC000028815572    0.1000
2      N2      1.2827   -8.2703    1.5955 N.am     1 ZINC000028815572   -0.6400
3      C3      1.6587   -6.8929    1.2671 C.3      1 ZINC000028815572    0.0700
4      C4      0.1982   -8.8278    1.0216 C.2      1 ZINC000028815572    0.7100
5      O5     -0.2248   -9.8928    1.4280 O.2      1 ZINC000028815572   -0.5800
6      N6     -0.4173   -8.2050   -0.0029 N.am     1 ZINC000028815572   -0.6400
7      C7      0.3272   -7.2895   -0.8784 C.3      1 ZINC000028815572    0.0900
8      C8      0.1310   -7.7294   -2.3327 C.3      1 ZINC000028815572   -0.1200
9      C9     -1.3662   -7.8132   -2.6386 C.3      1 ZINC000028815572   -0.1300
10     C10    -1.5659   -8.2189   -4.1002 C.3      1 ZINC000028815572    0.1100
11     N11    -2.9986   -8.2656   -4.4027 N.am     1 ZINC000028815572   -0.9900
12     C12    -3.6267   -9.5344   -4.7791 C.3      1 ZINC000028815572    0.1600
13     H13    -4.4228   -9.3518   -5.5009 H        1 ZINC000028815572    0.1100
14     C14    -2.5799  -10.4697   -5.3886 C.3      1 ZINC000028815572   -0.0900
15     C15    -3.1384  -11.8681   -5.4755 C.ar     1 ZINC000028815572   -0.1100
16     C16    -2.4865  -12.7776   -6.2854 C.ar     1 ZINC000028815572   -0.0300
17     C17    -2.9575  -14.0870   -6.3980 C.ar     1 ZINC000028815572   -0.0400
18     C18    -2.2795  -15.0269   -7.2391 C.1      1 ZINC000028815572    0.2400
19     N19    -1.7416  -15.7725   -7.9064 N.1      1 ZINC000028815572   -0.4000
20     C20    -4.0952  -14.4747   -5.6841 C.ar     1 ZINC000028815572   -0.0400
21     C21    -4.7404  -13.5653   -4.8818 C.ar     1 ZINC000028815572   -0.1700
22     C22    -4.2706  -12.2523   -4.7720 C.ar     1 ZINC000028815572    0.1500
23     N23    -4.9828  -11.3825   -3.9549 N.3      1 ZINC000028815572   -0.4800
24     C24    -5.5435  -12.0895   -2.7957 C.3      1 ZINC000028815572    0.1000
25     C25    -7.0469  -11.9882   -2.8245 C.2      1 ZINC000028815572    0.0600
26     C26    -7.9010  -12.8762   -3.3680 C.2      1 ZINC000028815572    0.0100
27     N27    -9.1483  -12.4186   -3.1837 N.pl3    1 ZINC000028815572   -0.4700
28     H28    -9.9587  -12.8634   -3.4773 H        1 ZINC000028815572    0.4700
29     C29    -9.0995  -11.2807   -2.5466 C.cat    1 ZINC000028815572    0.2900
30     N30    -7.8069  -10.9788   -2.2981 N.pl3    1 ZINC000028815572   -0.4000
31     C31    -7.3103   -9.7883   -1.6034 C.3      1 ZINC000028815572    0.0500
32     C32    -4.2031  -10.2180   -3.5328 C.3      1 ZINC000028815572    0.0200
33     S33    -3.9080   -6.8842   -4.3190 S.o2     1 ZINC000028815572    2.7000
34     O34    -5.1460   -7.2540   -3.7276 O.2      1 ZINC000028815572   -0.9400
35     O35    -3.0603   -5.8777   -3.7827 O.2      1 ZINC000028815572   -0.9300
36     C36    -4.2721   -6.3985   -5.9731 C.ar     1 ZINC000028815572   -0.4600
37     C37    -3.3568   -5.6422   -6.6800 C.ar     1 ZINC000028815572   -0.0800
38     C38    -3.6528   -5.2656   -7.9814 C.ar     1 ZINC000028815572   -0.0900
39     C39    -4.8638   -5.6657   -8.5248 C.ar     1 ZINC000028815572   -0.1100
40     C40    -5.7297   -6.4214   -7.7569 C.ar     1 ZINC000028815572    0.0800
41     N41    -5.4127   -6.7656   -6.5241 N.ar     1 ZINC000028815572   -0.3900
42     C42    -2.0173   -8.8555   -1.7266 C.3      1 ZINC000028815572   -0.1300
43     C43    -1.8441   -8.4331   -0.2692 C.3      1 ZINC000028815572    0.1300
44     H44     1.6996   -8.8890    3.5557 H        1 ZINC000028815572    0.0600
45     H45     2.0320  -10.1003    2.2944 H        1 ZINC000028815572    0.0700
46     H46     3.1226   -8.7090    2.5017 H        1 ZINC000028815572    0.0700
47     H47     2.2527   -6.4748    2.0798 H        1 ZINC000028815572    0.0800
48     H48     2.2445   -6.8855    0.3479 H        1 ZINC000028815572    0.0600
49     H49     0.7587   -6.2937    1.1292 H        1 ZINC000028815572    0.0700
50     H50    -0.0486   -6.2745   -0.7499 H        1 ZINC000028815572    0.0700
51     H51     1.3870   -7.3237   -0.6262 H        1 ZINC000028815572    0.1000
52     H52     0.5983   -7.0039   -2.9984 H        1 ZINC000028815572    0.0800
53     H53     0.5881   -8.7077   -2.4816 H        1 ZINC000028815572    0.0700
54     H54    -1.8272   -6.8408   -2.4653 H        1 ZINC000028815572    0.1000
55     H55    -1.0811   -7.4895   -4.7492 H        1 ZINC000028815572    0.0800
56     H56    -1.1270   -9.2025   -4.2675 H        1 ZINC000028815572    0.1000
57     H57    -2.3190  -10.1204   -6.3876 H        1 ZINC000028815572    0.1000
58     H58    -1.6881  -10.4736   -4.7618 H        1 ZINC000028815572    0.1000
59     H59    -1.6076  -12.4740   -6.8347 H        1 ZINC000028815572    0.1400
60     H60    -4.4658  -15.4860   -5.7632 H        1 ZINC000028815572    0.1400
61     H61    -5.6190  -13.8668   -4.3308 H        1 ZINC000028815572    0.1300
62     H62    -5.2493  -13.1383   -2.8326 H        1 ZINC000028815572    0.1300
63     H63    -5.1665  -11.6384   -1.8778 H        1 ZINC000028815572    0.1000
64     H64    -7.6293  -13.7957   -3.8652 H        1 ZINC000028815572    0.2200
65     H65    -9.9518  -10.6818   -2.2617 H        1 ZINC000028815572    0.2600
66     H66    -7.3775   -9.9417   -0.5264 H        1 ZINC000028815572    0.1100
67     H67    -6.2711   -9.6125   -1.8813 H        1 ZINC000028815572    0.1200
68     H68    -7.9129   -8.9251   -1.8858 H        1 ZINC000028815572    0.1200
69     H69    -3.3880  -10.5391   -2.8842 H        1 ZINC000028815572    0.0800
70     H70    -4.8474   -9.5212   -2.9968 H        1 ZINC000028815572    0.1000
71     H71    -2.4227   -5.3479   -6.2246 H        1 ZINC000028815572    0.1500
72     H72    -2.9567   -4.6743   -8.5577 H        1 ZINC000028815572    0.1500
73     H73    -5.1274   -5.3902   -9.5352 H        1 ZINC000028815572    0.1500
74     H74    -6.6752   -6.7369   -8.1727 H        1 ZINC000028815572    0.1700
75     H75    -3.0791   -8.9314   -1.9610 H        1 ZINC000028815572    0.0700
76     H76    -1.5401   -9.8232   -1.8813 H        1 ZINC000028815572    0.0700
77     H77    -2.2183   -9.2196    0.3862 H        1 ZINC000028815572    0.0900
78     H78    -2.3957   -7.5105   -0.0881 H        1 ZINC000028815572    0.0600
@<TRIPOS>BOND
1     1     2     1
2     1     44    1
3     1     45    1
4     1     46    1
5     2     3     1
6     2     4     am
7     3     47    1
8     3     48    1
9     3     49    1
10    4     5     2
11    4     6     am
12    6     43    1
13    6     7     1
14    7     8     1
15    7     50    1
16    7     51    1
17    8     9     1
18    8     52    1
19    8     53    1
20    9     10    1
21    9     42    1
22    9     54    1
23    10    11    1
24    10    55    1
25    10    56    1
26    11    12    1
27    11    33    am
28    12    13    1
29    12    32    1
30    12    14    1
31    14    15    1
32    14    57    1
33    14    58    1
34    15    22    ar
35    15    16    ar
36    16    17    ar
37    16    59    1
38    17    18    1
39    17    20    ar
40    18    19    3
41    20    21    ar
42    20    60    1
43    21    22    ar
44    21    61    1
45    22    23    1
46    23    24    1
47    23    32    1
48    24    25    1
49    24    62    1
50    24    63    1
51    25    30    1
52    25    26    2
53    26    27    1
54    26    64    1
55    27    28    1
56    27    29    ar
57    29    30    ar
58    29    65    1
59    30    31    1
60    31    66    1
61    31    67    1
62    31    68    1
63    32    69    1
64    32    70    1
65    33    34    2
66    33    35    2
67    33    36    1
68    36    41    ar
69    36    37    ar
70    37    38    ar
71    37    71    1
72    38    39    ar
73    38    72    1
74    39    40    ar
75    39    73    1
76    40    41    ar
77    40    74    1
78    42    43    1
79    42    75    1
80    42    76    1
81    43    77    1
82    43    78    1
@<TRIPOS>SUBSTRUCTURE
1   ZINC000028815572 1     RESIDUE    1   A     ZIN   1
