@<TRIPOS>MOLECULE
ZINC000001531669
51    53    1     0     0
SMALL
USER_CHARGES
@<TRIPOS>ATOM
1      C1      0.0110    1.3845    0.0753 C.3      1 ZINC000001531669    0.0200
2      O2      0.0553   -0.0439    0.0706 O.3      1 ZINC000001531669   -0.3000
3      C3      0.6501   -0.6389   -0.9961 C.ar     1 ZINC000001531669    0.1300
4      C4      1.1846    0.1388   -2.0134 C.ar     1 ZINC000001531669   -0.1800
5      C5      1.7893   -0.4599   -3.0980 C.ar     1 ZINC000001531669   -0.0700
6      C6      1.8649   -1.8529   -3.1746 C.ar     1 ZINC000001531669   -0.0800
7      C7      2.5119   -2.4955   -4.3341 C.2      1 ZINC000001531669    0.2100
8      C8      3.0321   -1.7069   -5.3132 C.2      1 ZINC000001531669   -0.3100
9      C9      3.6565   -2.3048   -6.4329 C.2      1 ZINC000001531669    0.4300
10     O10     4.1340   -1.6277   -7.3290 O.2      1 ZINC000001531669   -0.4500
11     C11     3.7084   -3.7763   -6.4751 C.ar     1 ZINC000001531669   -0.2300
12     C12     4.3075   -4.4509   -7.5446 C.ar     1 ZINC000001531669    0.1800
13     O13     4.8570   -3.7521   -8.5727 O.3      1 ZINC000001531669   -0.3000
14     C14     6.2039   -3.3048   -8.4064 C.3      1 ZINC000001531669    0.0400
15     C15     4.3372   -5.8366   -7.5483 C.ar     1 ZINC000001531669    0.0400
16     O16     4.9184   -6.5009   -8.5848 O.3      1 ZINC000001531669   -0.3100
17     C17     6.2761   -6.9119   -8.4122 C.3      1 ZINC000001531669    0.0300
18     C18     3.7739   -6.5508   -6.4935 C.ar     1 ZINC000001531669    0.1400
19     O19     3.8076   -7.9097   -6.5057 O.3      1 ZINC000001531669   -0.3200
20     C20     2.7630   -8.5782   -7.2155 C.3      1 ZINC000001531669    0.0400
21     C21     3.1784   -5.8866   -5.4292 C.ar     1 ZINC000001531669    0.0600
22     O22     2.6317   -6.5964   -4.4038 O.3      1 ZINC000001531669   -0.3100
23     C23     3.4556   -6.8200   -3.2578 C.3      1 ZINC000001531669    0.0300
24     C24     3.1401   -4.4981   -5.4107 C.ar     1 ZINC000001531669    0.1500
25     O25     2.5696   -3.8357   -4.3803 O.3      1 ZINC000001531669   -0.2100
26     C26     1.3263   -2.6363   -2.1496 C.ar     1 ZINC000001531669   -0.1300
27     C27     0.7270   -2.0294   -1.0632 C.ar     1 ZINC000001531669    0.1000
28     O28     0.2025   -2.7885   -0.0641 O.3      1 ZINC000001531669   -0.3000
29     C29     0.3066   -4.2068   -0.2039 C.3      1 ZINC000001531669    0.0200
30     H30     1.0266    1.7795    0.0482 H        1 ZINC000001531669    0.0600
31     H31    -0.5383    1.7339   -0.7989 H        1 ZINC000001531669    0.0600
32     H32    -0.4890    1.7294    0.9804 H        1 ZINC000001531669    0.1100
33     H33     1.1265    1.2157   -1.9556 H        1 ZINC000001531669    0.1500
34     H34     2.2042    0.1477   -3.8886 H        1 ZINC000001531669    0.1400
35     H35     2.9685   -0.6315   -5.2362 H        1 ZINC000001531669    0.1700
36     H36     6.4888   -2.6855   -9.2570 H        1 ZINC000001531669    0.1000
37     H37     6.2822   -2.7207   -7.4894 H        1 ZINC000001531669    0.0500
38     H38     6.8682   -4.1668   -8.3459 H        1 ZINC000001531669    0.0400
39     H39     6.9140   -6.0322   -8.3265 H        1 ZINC000001531669    0.0500
40     H40     6.3616   -7.5123   -7.5064 H        1 ZINC000001531669    0.0500
41     H41     6.5884   -7.5048   -9.2719 H        1 ZINC000001531669    0.1000
42     H42     1.7962   -8.2454   -6.8377 H        1 ZINC000001531669    0.0500
43     H43     2.8380   -8.3446   -8.2775 H        1 ZINC000001531669    0.0600
44     H44     2.8578   -9.6547   -7.0727 H        1 ZINC000001531669    0.1000
45     H45     3.6746   -5.8670   -2.7763 H        1 ZINC000001531669    0.0500
46     H46     2.9331   -7.4701   -2.5560 H        1 ZINC000001531669    0.1000
47     H47     4.3874   -7.2935   -3.5670 H        1 ZINC000001531669    0.0500
48     H48     1.3823   -3.7134   -2.2052 H        1 ZINC000001531669    0.1500
49     H49    -0.1499   -4.6914    0.6592 H        1 ZINC000001531669    0.1100
50     H50    -0.2083   -4.5212   -1.1117 H        1 ZINC000001531669    0.0600
51     H51     1.3575   -4.4896   -0.2657 H        1 ZINC000001531669    0.0600
@<TRIPOS>BOND
1     1     2     1
2     1     30    1
3     1     31    1
4     1     32    1
5     2     3     1
6     3     27    ar
7     3     4     ar
8     4     5     ar
9     4     33    1
10    5     6     ar
11    5     34    1
12    6     7     1
13    6     26    ar
14    7     25    1
15    7     8     2
16    8     9     1
17    8     35    1
18    9     10    2
19    9     11    1
20    11    24    ar
21    11    12    ar
22    12    13    1
23    12    15    ar
24    13    14    1
25    14    36    1
26    14    37    1
27    14    38    1
28    15    16    1
29    15    18    ar
30    16    17    1
31    17    39    1
32    17    40    1
33    17    41    1
34    18    19    1
35    18    21    ar
36    19    20    1
37    20    42    1
38    20    43    1
39    20    44    1
40    21    22    1
41    21    24    ar
42    22    23    1
43    23    45    1
44    23    46    1
45    23    47    1
46    24    25    1
47    26    27    ar
48    26    48    1
49    27    28    1
50    28    29    1
51    29    49    1
52    29    50    1
53    29    51    1
@<TRIPOS>SUBSTRUCTURE
1   ZINC000001531669 1     RESIDUE    1   A     ZIN   1
