@<TRIPOS>MOLECULE
ZINC000003977779
63    65    1     0     0
SMALL
USER_CHARGES
@<TRIPOS>ATOM
1      C1     -0.9104    1.9367   -0.4824 C.2      1 ZINC000003977779   -0.1600
2      C2     -0.6662    0.6710   -0.7159 C.2      1 ZINC000003977779   -0.1800
3      C3     -1.7552   -0.3740   -0.4768 C.3      1 ZINC000003977779    0.1700
4      C4     -2.0277   -1.0237   -1.8447 C.3      1 ZINC000003977779   -0.1700
5      C5     -1.1625   -1.4236    0.4560 C.3      1 ZINC000003977779   -0.2100
6      C6     -2.1917   -1.9505    1.4379 C.2      1 ZINC000003977779    0.3500
7      O7     -2.2311   -3.1192    1.7225 O.2      1 ZINC000003977779   -0.4200
8      C8     -3.1126   -0.9023    2.0181 C.3      1 ZINC000003977779    0.0900
9      O9     -2.2619    0.1562    2.5280 O.3      1 ZINC000003977779   -0.5100
10     C10    -3.8692   -0.2962    0.8383 C.3      1 ZINC000003977779    0.1300
11     C11    -4.6250   -1.3341    0.0130 C.3      1 ZINC000003977779   -0.1900
12     O12    -2.8945    0.3085   -0.0137 O.3      1 ZINC000003977779   -0.3700
13     C13    -4.8392    0.7799    1.3193 C.3      1 ZINC000003977779    0.0800
14     H14    -4.2640    1.6474    1.6611 H        1 ZINC000003977779    0.1000
15     O15    -5.6795    1.1953    0.2058 O.3      1 ZINC000003977779   -0.3400
16     C16    -6.1227    2.4622    0.2163 C.2      1 ZINC000003977779    0.4600
17     C17    -6.9977    2.9637   -0.9035 C.3      1 ZINC000003977779   -0.1500
18     O18    -5.8202    3.2006    1.1236 O.2      1 ZINC000003977779   -0.5100
19     C19    -5.7265    0.2893    2.4646 C.3      1 ZINC000003977779    0.1100
20     H20    -6.2872    1.1713    2.8267 H        1 ZINC000003977779    0.0700
21     O21    -6.6841   -0.6427    1.9790 O.3      1 ZINC000003977779   -0.5400
22     C22    -4.8812   -0.2506    3.6072 C.3      1 ZINC000003977779   -0.0500
23     H23    -4.1669    0.5898    3.8462 H        1 ZINC000003977779    0.1000
24     C24    -5.6515   -0.4731    4.8887 C.3      1 ZINC000003977779   -0.0400
25     C25    -6.1283    0.9064    5.4104 C.3      1 ZINC000003977779   -0.1500
26     C26    -6.8992   -1.3377    4.7151 C.3      1 ZINC000003977779   -0.1400
27     C27    -4.7803   -1.0663    5.9984 C.3      1 ZINC000003977779   -0.1000
28     C28    -3.9682   -2.2583    5.5075 C.3      1 ZINC000003977779   -0.1500
29     C29    -3.0906   -1.8255    4.3320 C.3      1 ZINC000003977779    0.1100
30     H30    -2.4654   -2.6607    4.0182 H        1 ZINC000003977779    0.0600
31     O31    -2.2653   -0.7422    4.7576 O.3      1 ZINC000003977779   -0.5400
32     C32    -3.9864   -1.4000    3.1554 C.3      1 ZINC000003977779    0.0100
33     C33    -4.7989   -2.6304    2.7476 C.3      1 ZINC000003977779   -0.1800
34     H34    -0.1408    2.6753   -0.6514 H        1 ZINC000003977779    0.1000
35     H35    -1.8828    2.2421   -0.1251 H        1 ZINC000003977779    0.1100
36     H36     0.3047    0.3662   -1.0774 H        1 ZINC000003977779    0.1300
37     H37    -1.1132   -1.4861   -2.2161 H        1 ZINC000003977779    0.0700
38     H38    -2.8018   -1.7837   -1.7382 H        1 ZINC000003977779    0.0600
39     H39    -2.3614   -0.2615   -2.5490 H        1 ZINC000003977779    0.0700
40     H40    -0.7716   -2.2593   -0.1335 H        1 ZINC000003977779    0.1100
41     H41    -0.3296   -0.9844    1.0163 H        1 ZINC000003977779    0.1200
42     H42    -1.7028    0.5696    1.8560 H        1 ZINC000003977779    0.3700
43     H43    -5.4600   -1.7236    0.5954 H        1 ZINC000003977779    0.1000
44     H44    -5.0028   -0.8692   -0.8977 H        1 ZINC000003977779    0.0800
45     H45    -3.9521   -2.1508   -0.2483 H        1 ZINC000003977779    0.0500
46     H46    -8.0440    2.7881   -0.6536 H        1 ZINC000003977779    0.1100
47     H47    -6.8319    4.0319   -1.0436 H        1 ZINC000003977779    0.1000
48     H48    -6.7499    2.4339   -1.8233 H        1 ZINC000003977779    0.1000
49     H49    -7.2748   -0.2835    1.3028 H        1 ZINC000003977779    0.3800
50     H50    -6.7693    1.3754    4.6638 H        1 ZINC000003977779    0.0500
51     H51    -6.6876    0.7712    6.3361 H        1 ZINC000003977779    0.0600
52     H52    -5.2634    1.5427    5.5980 H        1 ZINC000003977779    0.0600
53     H53    -6.6185   -2.2978    4.2820 H        1 ZINC000003977779    0.0600
54     H54    -7.3668   -1.5000    5.6863 H        1 ZINC000003977779    0.0500
55     H55    -7.6023   -0.8322    4.0532 H        1 ZINC000003977779    0.0600
56     H56    -4.1074   -0.2934    6.3773 H        1 ZINC000003977779    0.0700
57     H57    -5.4291   -1.3879    6.8202 H        1 ZINC000003977779    0.0600
58     H58    -3.3079   -2.5911    6.3226 H        1 ZINC000003977779    0.0600
59     H59    -4.6113   -3.0880    5.2458 H        1 ZINC000003977779    0.0800
60     H60    -1.6806   -0.9600    5.4965 H        1 ZINC000003977779    0.3700
61     H61    -5.2672   -3.0655    3.6304 H        1 ZINC000003977779    0.0700
62     H62    -5.5695   -2.3370    2.0348 H        1 ZINC000003977779    0.1000
63     H63    -4.1387   -3.3654    2.2869 H        1 ZINC000003977779    0.0700
@<TRIPOS>BOND
1     1     2     2
2     1     34    1
3     1     35    1
4     2     3     1
5     2     36    1
6     3     12    1
7     3     4     1
8     3     5     1
9     4     37    1
10    4     38    1
11    4     39    1
12    5     6     1
13    5     40    1
14    5     41    1
15    6     7     2
16    6     8     1
17    8     32    1
18    8     9     1
19    8     10    1
20    9     42    1
21    10    11    1
22    10    12    1
23    10    13    1
24    11    43    1
25    11    44    1
26    11    45    1
27    13    14    1
28    13    15    1
29    13    19    1
30    15    16    1
31    16    17    1
32    16    18    2
33    17    46    1
34    17    47    1
35    17    48    1
36    19    20    1
37    19    21    1
38    19    22    1
39    21    49    1
40    22    23    1
41    22    32    1
42    22    24    1
43    24    25    1
44    24    26    1
45    24    27    1
46    25    50    1
47    25    51    1
48    25    52    1
49    26    53    1
50    26    54    1
51    26    55    1
52    27    28    1
53    27    56    1
54    27    57    1
55    28    29    1
56    28    58    1
57    28    59    1
58    29    30    1
59    29    31    1
60    29    32    1
61    31    60    1
62    32    33    1
63    33    61    1
64    33    62    1
65    33    63    1
@<TRIPOS>SUBSTRUCTURE
1   ZINC000003977779 1     RESIDUE    1   A     ZIN   1
