@<TRIPOS>MOLECULE
ZINC000006482664
  48   51    0    0    0
SMALL
USER_CHARGES
NO_NAME
@<TRIPOS>ATOM
    1 C1       -0.0173     1.4248     0.0099 C.3    1 <0>       0.0200
    2 O2        0.0021    -0.0041     0.0020 O.3    1 <0>      -0.3100
    3 C3        0.6262    -0.6188     1.0422 C.ar   1 <0>       0.1000
    4 C4        1.2019     0.1321     2.0503 C.ar   1 <0>      -0.2000
    5 C5        1.8385    -0.4878     3.1172 C.ar   1 <0>      -0.0400
    6 C6        1.8943    -1.8641     3.1796 C.ar   1 <0>      -0.1000
    7 C7        1.3222    -2.6211     2.1640 C.ar   1 <0>      -0.1100
    8 C8        0.6848    -2.0083     1.1019 C.ar   1 <0>       0.0700
    9 O9        0.1267    -2.7588     0.1146 O.3    1 <0>      -0.4900
   10 C10       2.5431    -2.6040     4.3199 C.3    1 <0>      -0.0800
   11 C11       3.4425    -1.6789     5.1387 C.3    1 <0>      -0.1100
   12 C12       2.6545    -0.4100     5.4646 C.3    1 <0>      -0.0700
   13 H13       1.6744    -0.7011     5.8424 H      1 <0>       0.0700
   14 C14       3.3392     0.4293     6.5123 C.3    1 <0>      -0.0700
   15 H15       3.3857    -0.1251     7.4496 H      1 <0>       0.0800
   16 C16       4.7591     0.8574     6.0979 C.3    1 <0>      -0.1200
   17 C17       5.0664     2.0453     7.0385 C.3    1 <0>      -0.1600
   18 C18       3.7072     2.6113     7.4901 C.3    1 <0>       0.1000
   19 H19       3.6229     3.6586     7.2002 H      1 <0>       0.0600
   20 O20       3.5679     2.4819     8.9064 O.3    1 <0>      -0.5600
   21 C21       2.6369     1.7806     6.7487 C.3    1 <0>      -0.0500
   22 C22       1.3828     1.5823     7.6024 C.3    1 <0>      -0.1300
   23 C23       2.3381     2.5155     5.4412 C.3    1 <0>      -0.1100
   24 C24       1.5957     1.6170     4.4532 C.3    1 <0>      -0.1100
   25 C25       2.4580     0.3811     4.1752 C.3    1 <0>      -0.0500
   26 H26       3.4447     0.6990     3.8384 H      1 <0>       0.0800
   27 H27       1.0053     1.8021     0.0021 H      1 <0>       0.0600
   28 H28      -0.5445     1.7859    -0.8732 H      1 <0>       0.1000
   29 H29      -0.5275     1.7763     0.9067 H      1 <0>       0.0600
   30 H30       1.1562     1.2103     2.0074 H      1 <0>       0.1300
   31 H31       1.3727    -3.6991     2.2074 H      1 <0>       0.1300
   32 H32      -0.7971    -2.9956     0.2751 H      1 <0>       0.3900
   33 H33       1.7677    -3.0134     4.9674 H      1 <0>       0.0800
   34 H34       3.1420    -3.4223     3.9200 H      1 <0>       0.0800
   35 H35       3.7371    -2.1762     6.0628 H      1 <0>       0.0700
   36 H36       4.3297    -1.4221     4.5599 H      1 <0>       0.0700
   37 H37       5.4678     0.0454     6.2609 H      1 <0>       0.0700
   38 H38       4.7746     1.1785     5.0563 H      1 <0>       0.0700
   39 H39       5.6330     1.7000     7.9032 H      1 <0>       0.0700
   40 H40       5.6299     2.8095     6.5032 H      1 <0>       0.0700
   41 H41       4.2342     2.9663     9.4130 H      1 <0>       0.3800
   42 H42       0.9390     2.5522     7.8269 H      1 <0>       0.0500
   43 H43       0.6641     0.9716     7.0560 H      1 <0>       0.0500
   44 H44       1.6519     1.0819     8.5326 H      1 <0>       0.0600
   45 H45       1.7257     3.3911     5.6563 H      1 <0>       0.0700
   46 H46       3.2768     2.8399     4.9920 H      1 <0>       0.0700
   47 H47       0.6633     1.2709     4.8992 H      1 <0>       0.0700
   48 H48       1.3836     2.1715     3.5390 H      1 <0>       0.0700
@<TRIPOS>BOND
   1    1    2 1
   2    1   27 1
   3    1   28 1
   4    1   29 1
   5    2    3 1
   6    3    8 ar
   7    3    4 ar
   8    4    5 ar
   9    4   30 1
  10    5   25 1
  11    5    6 ar
  12    6    7 ar
  13    6   10 1
  14    7    8 ar
  15    7   31 1
  16    8    9 1
  17    9   32 1
  18   10   11 1
  19   10   33 1
  20   10   34 1
  21   11   12 1
  22   11   35 1
  23   11   36 1
  24   12   13 1
  25   12   25 1
  26   12   14 1
  27   14   15 1
  28   14   21 1
  29   14   16 1
  30   16   17 1
  31   16   37 1
  32   16   38 1
  33   17   18 1
  34   17   39 1
  35   17   40 1
  36   18   19 1
  37   18   20 1
  38   18   21 1
  39   20   41 1
  40   21   22 1
  41   21   23 1
  42   22   42 1
  43   22   43 1
  44   22   44 1
  45   23   24 1
  46   23   45 1
  47   23   46 1
  48   24   25 1
  49   24   47 1
  50   24   48 1
  51   25   26 1
