@<TRIPOS>MOLECULE
ZINC000001887575
53    57    1     0     0
SMALL
USER_CHARGES
@<TRIPOS>ATOM
1      C1     -7.6354    3.2447   -0.6144 C.3      1 ZINC000001887575   -0.1500
2      C2     -6.2814    3.6012    0.0025 C.3      1 ZINC000001887575   -0.1300
3      C3     -5.7155    2.3804    0.7308 C.3      1 ZINC000001887575   -0.1100
4      C4     -4.3616    2.7368    1.3477 C.3      1 ZINC000001887575   -0.1000
5      C5     -3.8042    1.5344    2.0651 C.2      1 ZINC000001887575    0.1500
6      C6     -2.9367    0.7080    1.4407 C.2      1 ZINC000001887575   -0.1800
7      C7     -2.5127    0.9742    0.0193 C.3      1 ZINC000001887575   -0.0200
8      C8     -1.2206    1.7498    0.0174 C.ar     1 ZINC000001887575   -0.0800
9      C9     -0.0126    1.0758    0.0080 C.ar     1 ZINC000001887575   -0.1200
10     C10     1.1738    1.7807    0.0004 C.ar     1 ZINC000001887575   -0.1000
11     C11     1.1533    3.1747    0.0081 C.ar     1 ZINC000001887575   -0.0500
12     C12     2.4241    3.9375   -0.0004 C.ar     1 ZINC000001887575   -0.0400
13     C13     3.4290    3.6336    0.9133 C.ar     1 ZINC000001887575   -0.1100
14     C14     4.6130    4.3438    0.8991 C.ar     1 ZINC000001887575   -0.1400
15     C15     4.8058    5.3663   -0.0141 C.ar     1 ZINC000001887575   -0.1200
16     C16     3.8183    5.6851   -0.9242 C.ar     1 ZINC000001887575   -0.1000
17     C17     2.6190    4.9757   -0.9274 C.ar     1 ZINC000001887575    0.0500
18     C18     1.5577    5.3135   -1.8999 C.2      1 ZINC000001887575    0.0700
19     N19     0.3684    4.7204   -2.0223 N.2      1 ZINC000001887575   -0.3500
20     N20    -0.2611    5.3095   -2.9808 N.2      1 ZINC000001887575   -0.1900
21     N21     0.4831    6.2384   -3.4703 N.2      1 ZINC000001887575   -0.1900
22     N22     1.6027    6.2677   -2.8319 N.pl3    1 ZINC000001887575   -0.3700
23     C23    -0.0672    3.8484    0.0234 C.ar     1 ZINC000001887575    0.0100
24     C24    -1.2472    3.1328    0.0308 C.ar     1 ZINC000001887575   -0.1300
25     C25    -2.4271   -0.4114    2.1478 C.2      1 ZINC000001887575    0.5200
26     O26    -1.6372   -1.1704    1.6069 O.2      1 ZINC000001887575   -0.5000
27     N27    -2.8143   -0.6330    3.4098 N.2      1 ZINC000001887575   -0.5600
28     C28    -3.6691    0.1809    4.0086 C.2      1 ZINC000001887575    0.5600
29     N29    -4.2022    0.1717    5.2472 N.2      1 ZINC000001887575   -0.5000
30     C30    -5.0091    1.1871    5.3967 C.2      1 ZINC000001887575    0.3900
31     N31    -5.0363    1.9105    4.2465 N.pl3    1 ZINC000001887575   -0.5000
32     N32    -4.1736    1.2658    3.3479 N.pl3    1 ZINC000001887575   -0.3500
33     H33    -8.0385    4.1144   -1.1333 H        1 ZINC000001887575    0.0600
34     H34    -7.5077    2.4260   -1.3226 H        1 ZINC000001887575    0.0600
35     H35    -8.3245    2.9398    0.1732 H        1 ZINC000001887575    0.0500
36     H36    -6.4090    4.4199    0.7107 H        1 ZINC000001887575    0.0600
37     H37    -5.5922    3.9061   -0.7851 H        1 ZINC000001887575    0.0700
38     H38    -5.5879    1.5617    0.0226 H        1 ZINC000001887575    0.0800
39     H39    -6.4047    2.0755    1.5184 H        1 ZINC000001887575    0.0600
40     H40    -4.4892    3.5555    2.0559 H        1 ZINC000001887575    0.0800
41     H41    -3.6724    3.0417    0.5602 H        1 ZINC000001887575    0.1200
42     H42    -3.2847    1.5531   -0.4878 H        1 ZINC000001887575    0.0800
43     H43    -2.3687    0.0270   -0.5004 H        1 ZINC000001887575    0.0900
44     H44     0.0021   -0.0041    0.0020 H        1 ZINC000001887575    0.1200
45     H45     2.1163    1.2535   -0.0111 H        1 ZINC000001887575    0.1100
46     H46     3.2840    2.8400    1.6313 H        1 ZINC000001887575    0.1200
47     H47     5.3921    4.1024    1.6070 H        1 ZINC000001887575    0.1200
48     H48     5.7342    5.9180   -0.0141 H        1 ZINC000001887575    0.1200
49     H49     3.9750    6.4844   -1.6333 H        1 ZINC000001887575    0.1300
50     H50    -0.0892    4.9281    0.0297 H        1 ZINC000001887575    0.1100
51     H51    -2.1932    3.6536    0.0426 H        1 ZINC000001887575    0.1100
52     H52    -5.5665    1.4163    6.2930 H        1 ZINC000001887575    0.2600
53     H53    -5.5518    2.7150    4.0795 H        1 ZINC000001887575    0.4600
@<TRIPOS>BOND
1     1     2     1
2     1     33    1
3     1     34    1
4     1     35    1
5     2     3     1
6     2     36    1
7     2     37    1
8     3     4     1
9     3     38    1
10    3     39    1
11    4     5     1
12    4     40    1
13    4     41    1
14    5     32    1
15    5     6     2
16    6     7     1
17    6     25    1
18    7     8     1
19    7     42    1
20    7     43    1
21    8     24    ar
22    8     9     ar
23    9     10    ar
24    9     44    1
25    10    11    ar
26    10    45    1
27    11    12    1
28    11    23    ar
29    12    17    ar
30    12    13    ar
31    13    14    ar
32    13    46    1
33    14    15    ar
34    14    47    1
35    15    16    ar
36    15    48    1
37    16    17    ar
38    16    49    1
39    17    18    1
40    18    22    1
41    18    19    2
42    19    20    1
43    20    21    2
44    21    22    1
45    23    24    ar
46    23    50    1
47    24    51    1
48    25    26    2
49    25    27    1
50    27    28    2
51    28    32    1
52    28    29    1
53    29    30    2
54    30    31    1
55    30    52    1
56    31    32    1
57    31    53    1
@<TRIPOS>SUBSTRUCTURE
1   ZINC000001887575 1     RESIDUE    1   A     ZIN   1
