@<TRIPOS>MOLECULE
ZINC000043194077
57    61    1     0     0
SMALL
USER_CHARGES
@<TRIPOS>ATOM
1      O1      0.4695    0.8582   -1.1515 O.2      1 ZINC000043194077   -0.4100
2      C2     -0.1584    1.1287   -0.1458 C.2      1 ZINC000043194077    0.4500
3      C3      0.4196    0.8472    1.1839 C.ar     1 ZINC000043194077   -0.1300
4      C4     -0.2525    1.2487    2.3406 C.ar     1 ZINC000043194077   -0.0600
5      C5      0.2928    0.9821    3.5790 C.ar     1 ZINC000043194077   -0.1300
6      C6      1.5033    0.3184    3.6783 C.ar     1 ZINC000043194077   -0.0800
7      C7      2.1758   -0.0824    2.5378 C.ar     1 ZINC000043194077   -0.1200
8      C8      1.6396    0.1723    1.2911 C.ar     1 ZINC000043194077    0.0200
9      Cl9     2.4843   -0.3316   -0.1394 Cl       1 ZINC000043194077   -0.0400
10     C10    -1.4941    1.7433   -0.2538 C.ar     1 ZINC000043194077   -0.1700
11     C11    -1.6315    3.0997   -0.5721 C.ar     1 ZINC000043194077   -0.0400
12     C12    -2.9070    3.6283   -0.6613 C.ar     1 ZINC000043194077   -0.1600
13     C13    -4.0025    2.8114   -0.4361 C.ar     1 ZINC000043194077    0.1200
14     N14    -3.8552    1.5369   -0.1371 N.ar     1 ZINC000043194077   -0.4700
15     C15    -2.6568    0.9754   -0.0444 C.ar     1 ZINC000043194077    0.2300
16     C16    -2.5404   -0.4590    0.2933 C.2      1 ZINC000043194077    0.0300
17     C17    -3.5804   -1.3626    0.4867 C.2      1 ZINC000043194077    0.0700
18     C18    -5.0302   -1.0910    0.3984 C.ar     1 ZINC000043194077    0.0200
19     C19    -5.8510   -1.8353   -0.4577 C.ar     1 ZINC000043194077   -0.1600
20     C20    -7.1992   -1.5482   -0.5081 C.ar     1 ZINC000043194077    0.1000
21     N21    -7.7159   -0.5883    0.2351 N.ar     1 ZINC000043194077   -0.4700
22     C22    -6.9788    0.1368    1.0546 C.ar     1 ZINC000043194077    0.1000
23     C23    -5.6227   -0.0860    1.1726 C.ar     1 ZINC000043194077   -0.1000
24     N24    -2.9783   -2.5529    0.7748 N.pl3    1 ZINC000043194077   -0.2800
25     C25    -3.6662   -3.8151    1.0575 C.3      1 ZINC000043194077    0.1500
26     C26    -4.0169   -3.8792    2.5217 C.ar     1 ZINC000043194077   -0.1300
27     C27    -3.0811   -4.3219    3.4378 C.ar     1 ZINC000043194077   -0.0100
28     C28    -3.4028   -4.3807    4.7809 C.ar     1 ZINC000043194077   -0.1800
29     C29    -2.3829   -4.8638    5.7796 C.3      1 ZINC000043194077    0.5100
30     F30    -1.6357   -3.7770    6.2461 F        1 ZINC000043194077   -0.1700
31     F31    -3.0363   -5.4762    6.8544 F        1 ZINC000043194077   -0.1700
32     F32    -1.5298   -5.7870    5.1654 F        1 ZINC000043194077   -0.1700
33     C33    -4.6599   -3.9958    5.2081 C.ar     1 ZINC000043194077   -0.0100
34     C34    -5.5955   -3.5526    4.2920 C.ar     1 ZINC000043194077   -0.1800
35     C35    -6.9661   -3.1334    4.7576 C.3      1 ZINC000043194077    0.5100
36     F36    -7.0520   -3.2802    6.1462 F        1 ZINC000043194077   -0.1700
37     F37    -7.1856   -1.7947    4.4157 F        1 ZINC000043194077   -0.1700
38     F38    -7.9331   -3.9362    4.1431 F        1 ZINC000043194077   -0.1700
39     C39    -5.2724   -3.4898    2.9494 C.ar     1 ZINC000043194077   -0.0100
40     N40    -1.7045   -2.3782    0.7555 N.2      1 ZINC000043194077   -0.0600
41     N41    -1.4071   -1.1610    0.4711 N.2      1 ZINC000043194077   -0.2300
42     H42    -1.1969    1.7670    2.2654 H        1 ZINC000043194077    0.1300
43     H43    -0.2261    1.2925    4.4739 H        1 ZINC000043194077    0.1300
44     H44     1.9250    0.1126    4.6510 H        1 ZINC000043194077    0.1400
45     H45     3.1203   -0.5992    2.6228 H        1 ZINC000043194077    0.1400
46     H46    -0.7631    3.7185   -0.7434 H        1 ZINC000043194077    0.1500
47     H47    -3.0475    4.6711   -0.9046 H        1 ZINC000043194077    0.1500
48     H48    -4.9967    3.2274   -0.5066 H        1 ZINC000043194077    0.1700
49     H49    -5.4348   -2.6221   -1.0694 H        1 ZINC000043194077    0.1300
50     H50    -7.8406   -2.1167   -1.1652 H        1 ZINC000043194077    0.1600
51     H51    -7.4443    0.9129    1.6441 H        1 ZINC000043194077    0.1600
52     H52    -5.0255    0.5112    1.8458 H        1 ZINC000043194077    0.1300
53     H53    -4.5777   -3.8733    0.4627 H        1 ZINC000043194077    0.1200
54     H54    -3.0127   -4.6498    0.8035 H        1 ZINC000043194077    0.1300
55     H55    -2.0989   -4.6223    3.1042 H        1 ZINC000043194077    0.1500
56     H56    -4.9112   -4.0417    6.2574 H        1 ZINC000043194077    0.1600
57     H57    -6.0033   -3.1435    2.2337 H        1 ZINC000043194077    0.1500
@<TRIPOS>BOND
1     1     2     2
2     2     3     1
3     2     10    1
4     3     8     ar
5     3     4     ar
6     4     5     ar
7     4     42    1
8     5     6     ar
9     5     43    1
10    6     7     ar
11    6     44    1
12    7     8     ar
13    7     45    1
14    8     9     1
15    10    15    ar
16    10    11    ar
17    11    12    ar
18    11    46    1
19    12    13    ar
20    12    47    1
21    13    14    ar
22    13    48    1
23    14    15    ar
24    15    16    1
25    16    41    1
26    16    17    2
27    17    18    1
28    17    24    1
29    18    23    ar
30    18    19    ar
31    19    20    ar
32    19    49    1
33    20    21    ar
34    20    50    1
35    21    22    ar
36    22    23    ar
37    22    51    1
38    23    52    1
39    24    25    1
40    24    40    1
41    25    26    1
42    25    53    1
43    25    54    1
44    26    39    ar
45    26    27    ar
46    27    28    ar
47    27    55    1
48    28    29    1
49    28    33    ar
50    29    30    1
51    29    31    1
52    29    32    1
53    33    34    ar
54    33    56    1
55    34    35    1
56    34    39    ar
57    35    36    1
58    35    37    1
59    35    38    1
60    39    57    1
61    40    41    2
@<TRIPOS>SUBSTRUCTURE
1   ZINC000043194077 1     RESIDUE    1   A     ZIN   1
