@<TRIPOS>MOLECULE
ZINC000008214636
78    79    1     0     0
SMALL
USER_CHARGES
@<TRIPOS>ATOM
1      C1      0.4356   -1.3738   -1.2706 C.3      1 ZINC000008214636   -0.1500
2      C2      0.1457   -2.8526   -1.0061 C.3      1 ZINC000008214636   -0.1300
3      C3     -1.3606   -3.0532   -0.8280 C.3      1 ZINC000008214636   -0.1200
4      C4     -1.6504   -4.5320   -0.5635 C.3      1 ZINC000008214636   -0.1200
5      C5     -3.1567   -4.7326   -0.3855 C.3      1 ZINC000008214636   -0.1200
6      C6     -3.4465   -6.2115   -0.1210 C.3      1 ZINC000008214636   -0.1200
7      C7     -4.9528   -6.4121    0.0571 C.3      1 ZINC000008214636   -0.1200
8      C8     -5.2426   -7.8909    0.3216 C.3      1 ZINC000008214636    0.0500
9      O9     -6.6495   -8.0782    0.4879 O.3      1 ZINC000008214636   -0.2800
10     C10    -7.0779   -9.3421    0.7315 C.ar     1 ZINC000008214636    0.2000
11     C11    -6.1655  -10.3828    0.8152 C.ar     1 ZINC000008214636   -0.2200
12     C12    -6.6032  -11.6691    1.0627 C.ar     1 ZINC000008214636   -0.0400
13     C13    -7.9532  -11.9300    1.2294 C.ar     1 ZINC000008214636   -0.1600
14     C14    -8.8741  -10.9076    1.1499 C.ar     1 ZINC000008214636   -0.0500
15     C15    -8.4448   -9.6011    0.9053 C.ar     1 ZINC000008214636   -0.1900
16     C16    -9.4248   -8.5021    0.8190 C.2      1 ZINC000008214636    0.5700
17     O17    -9.0472   -7.3662    0.6060 O.2      1 ZINC000008214636   -0.4900
18     N18   -10.7388   -8.7572    0.9762 N.am     1 ZINC000008214636   -0.6800
19     C19   -11.6557   -7.7082    0.9861 C.ar     1 ZINC000008214636    0.2000
20     C20   -12.7660   -7.7646    1.8234 C.ar     1 ZINC000008214636   -0.1600
21     C21   -13.6740   -6.7303    1.8355 C.ar     1 ZINC000008214636   -0.0200
22     C22   -13.4797   -5.6220    1.0056 C.ar     1 ZINC000008214636   -0.1600
23     C23   -14.4501   -4.5118    1.0162 C.2      1 ZINC000008214636    0.5200
24     O24   -15.4199   -4.5596    1.7466 O.2      1 ZINC000008214636   -0.4900
25     O25   -14.2614   -3.4444    0.2157 O.3      1 ZINC000008214636   -0.3600
26     C26   -15.2568   -2.3892    0.2785 C.3      1 ZINC000008214636    0.0300
27     C27   -14.8758   -1.2702   -0.6929 C.3      1 ZINC000008214636   -0.0100
28     N28   -14.9859   -1.7612   -2.0730 N.4      1 ZINC000008214636   -0.2700
29     C29   -14.0220   -2.8495   -2.2838 C.3      1 ZINC000008214636   -0.0500
30     C30   -16.3473   -2.2606   -2.3079 C.3      1 ZINC000008214636   -0.0200
31     C31   -16.4620   -2.7720   -3.7453 C.3      1 ZINC000008214636   -0.1900
32     C32   -14.6985   -0.6647   -3.0073 C.3      1 ZINC000008214636   -0.0100
33     C33   -15.6826    0.4818   -2.7663 C.3      1 ZINC000008214636   -0.1900
34     C34   -12.3630   -5.5685    0.1661 C.ar     1 ZINC000008214636   -0.0400
35     C35   -11.4562   -6.6040    0.1629 C.ar     1 ZINC000008214636   -0.1400
36     H36     1.5087   -1.2309   -1.3974 H        1 ZINC000008214636    0.0500
37     H37    -0.0826   -1.0583   -2.1762 H        1 ZINC000008214636    0.0500
38     H38     0.0870   -0.7786   -0.4265 H        1 ZINC000008214636    0.0500
39     H39     0.4943   -3.4478   -1.8502 H        1 ZINC000008214636    0.0600
40     H40     0.6639   -3.1681   -0.1005 H        1 ZINC000008214636    0.0600
41     H41    -1.7091   -2.4580    0.0160 H        1 ZINC000008214636    0.0600
42     H42    -1.8787   -2.7377   -1.7336 H        1 ZINC000008214636    0.0600
43     H43    -1.3019   -5.1272   -1.4076 H        1 ZINC000008214636    0.0600
44     H44    -1.1323   -4.8475    0.3421 H        1 ZINC000008214636    0.0600
45     H45    -3.5052   -4.1375    0.4586 H        1 ZINC000008214636    0.0600
46     H46    -3.6748   -4.4171   -1.2911 H        1 ZINC000008214636    0.0600
47     H47    -3.0980   -6.8066   -0.9650 H        1 ZINC000008214636    0.0700
48     H48    -2.9284   -6.5269    0.7846 H        1 ZINC000008214636    0.0700
49     H49    -5.3013   -5.8169    0.9011 H        1 ZINC000008214636    0.0700
50     H50    -5.4709   -6.0966   -0.8485 H        1 ZINC000008214636    0.0700
51     H51    -4.8941   -8.4860   -0.5225 H        1 ZINC000008214636    0.0700
52     H52    -4.7245   -8.2064    1.2272 H        1 ZINC000008214636    0.0700
53     H53    -5.1112  -10.1873    0.6863 H        1 ZINC000008214636    0.1400
54     H54    -5.8886  -12.4763    1.1263 H        1 ZINC000008214636    0.1400
55     H55    -8.2858  -12.9392    1.4222 H        1 ZINC000008214636    0.1400
56     H56    -9.9258  -11.1158    1.2805 H        1 ZINC000008214636    0.1300
57     H57   -11.0462   -9.6710    1.0823 H        1 ZINC000008214636    0.4200
58     H58   -12.9154   -8.6210    2.4642 H        1 ZINC000008214636    0.1400
59     H59   -14.5357   -6.7750    2.4849 H        1 ZINC000008214636    0.1400
60     H60   -16.2316   -2.7924    0.0040 H        1 ZINC000008214636    0.1000
61     H61   -15.3007   -1.9910    1.2923 H        1 ZINC000008214636    0.1200
62     H62   -15.5482   -0.4236   -0.5537 H        1 ZINC000008214636    0.1500
63     H63   -13.8503   -0.9551   -0.5000 H        1 ZINC000008214636    0.1400
64     H64   -14.3506   -3.7361   -1.7416 H        1 ZINC000008214636    0.1300
65     H65   -13.9582   -3.0773   -3.3479 H        1 ZINC000008214636    0.1200
66     H66   -13.0419   -2.5427   -1.9185 H        1 ZINC000008214636    0.1200
67     H67   -16.5606   -3.0742   -1.6146 H        1 ZINC000008214636    0.1300
68     H68   -17.0626   -1.4531   -2.1514 H        1 ZINC000008214636    0.1300
69     H69   -17.4722   -3.1425   -3.9196 H        1 ZINC000008214636    0.1000
70     H70   -16.2487   -1.9584   -4.4386 H        1 ZINC000008214636    0.0800
71     H71   -15.7468   -3.5795   -3.9018 H        1 ZINC000008214636    0.0800
72     H72   -13.6805   -0.3091   -2.8481 H        1 ZINC000008214636    0.1300
73     H73   -14.8022   -1.0233   -4.0314 H        1 ZINC000008214636    0.1300
74     H74   -15.5790    0.8404   -1.7423 H        1 ZINC000008214636    0.0800
75     H75   -15.4694    1.2954   -3.4596 H        1 ZINC000008214636    0.1100
76     H76   -16.7007    0.1262   -2.9255 H        1 ZINC000008214636    0.0800
77     H77   -12.2101   -4.7140   -0.4765 H        1 ZINC000008214636    0.1300
78     H78   -10.5932   -6.5632   -0.4851 H        1 ZINC000008214636    0.1500
@<TRIPOS>BOND
1     1     2     1
2     1     36    1
3     1     37    1
4     1     38    1
5     2     3     1
6     2     39    1
7     2     40    1
8     3     4     1
9     3     41    1
10    3     42    1
11    4     5     1
12    4     43    1
13    4     44    1
14    5     6     1
15    5     45    1
16    5     46    1
17    6     7     1
18    6     47    1
19    6     48    1
20    7     8     1
21    7     49    1
22    7     50    1
23    8     9     1
24    8     51    1
25    8     52    1
26    9     10    1
27    10    15    ar
28    10    11    ar
29    11    12    ar
30    11    53    1
31    12    13    ar
32    12    54    1
33    13    14    ar
34    13    55    1
35    14    15    ar
36    14    56    1
37    15    16    1
38    16    17    2
39    16    18    am
40    18    19    1
41    18    57    1
42    19    35    ar
43    19    20    ar
44    20    21    ar
45    20    58    1
46    21    22    ar
47    21    59    1
48    22    23    1
49    22    34    ar
50    23    24    2
51    23    25    1
52    25    26    1
53    26    27    1
54    26    60    1
55    26    61    1
56    27    28    1
57    27    62    1
58    27    63    1
59    28    29    1
60    28    30    1
61    28    32    1
62    29    64    1
63    29    65    1
64    29    66    1
65    30    31    1
66    30    67    1
67    30    68    1
68    31    69    1
69    31    70    1
70    31    71    1
71    32    33    1
72    32    72    1
73    32    73    1
74    33    74    1
75    33    75    1
76    33    76    1
77    34    35    ar
78    34    77    1
79    35    78    1
@<TRIPOS>SUBSTRUCTURE
1   ZINC000008214636 1     RESIDUE    1   A     ZIN   1
