@<TRIPOS>MOLECULE
ZINC000242495760
46    48    1     0     0
SMALL
USER_CHARGES
@<TRIPOS>ATOM
1      C1      0.0383    1.4363   -0.9576 C.3      1 ZINC000242495760    0.0300
2      O2     -0.0660    0.0512   -1.2932 O.3      1 ZINC000242495760   -0.2200
3      N3     -1.3746   -0.4749   -1.1673 N.2      1 ZINC000242495760   -0.2800
4      C4     -1.6025   -1.7275   -1.4441 C.2      1 ZINC000242495760    0.1900
5      C5     -2.9430   -2.3088   -1.1971 C.2      1 ZINC000242495760    0.5800
6      O6     -3.1555   -3.4770   -1.4553 O.2      1 ZINC000242495760   -0.4700
7      N7     -3.9264   -1.5419   -0.6862 N.am     1 ZINC000242495760   -0.6900
8      C8     -5.2517   -2.1166   -0.4420 C.3      1 ZINC000242495760    0.1300
9      H9     -5.2235   -3.1947   -0.2840 H        1 ZINC000242495760    0.1500
10     C10    -6.3023   -1.6750   -1.4467 C.2      1 ZINC000242495760    0.5300
11     O11    -6.5446   -1.9606   -2.6004 O.2      1 ZINC000242495760   -0.4300
12     N12    -6.8567   -0.8422   -0.5490 N.am     1 ZINC000242495760   -0.5600
13     C13    -7.7131    0.2723   -0.5385 C.2      1 ZINC000242495760    0.1000
14     C14    -8.7403    0.4220   -1.5820 C.2      1 ZINC000242495760    0.5200
15     O15    -9.4056    1.4469   -1.6430 O.co2    1 ZINC000242495760   -0.6600
16     O16    -8.9288   -0.4786   -2.3885 O.co2    1 ZINC000242495760   -0.6500
17     C17    -7.5950    1.1887    0.4130 C.2      1 ZINC000242495760   -0.1900
18     C18    -8.5210    2.3726    0.3029 C.3      1 ZINC000242495760    0.1400
19     O19    -8.3363    3.2400    1.4526 O.3      1 ZINC000242495760   -0.3800
20     C20    -9.1619    4.2929    1.5605 C.2      1 ZINC000242495760    0.4500
21     C21    -9.0300    5.2373    2.7275 C.3      1 ZINC000242495760   -0.1400
22     O22   -10.0107    4.4834    0.7221 O.2      1 ZINC000242495760   -0.5100
23     C23    -6.6622    1.1984    1.5791 C.3      1 ZINC000242495760   -0.0100
24     S24    -5.2381    0.0948    1.3308 S.3      1 ZINC000242495760   -0.2400
25     C25    -6.0606   -1.3647    0.6099 C.3      1 ZINC000242495760    0.1300
26     H26    -6.6030   -1.9792    1.3284 H        1 ZINC000242495760    0.1500
27     C27    -0.5235   -2.5690   -2.0047 C.2      1 ZINC000242495760    0.1000
28     C28     0.7434   -2.1281   -2.1331 C.2      1 ZINC000242495760   -0.2300
29     S29     1.7104   -3.4224   -2.8359 S.3      1 ZINC000242495760    0.0500
30     C30     0.2885   -4.4593   -2.8928 C.2      1 ZINC000242495760    0.3500
31     N31     0.2663   -5.7593   -3.3693 N.pl3    1 ZINC000242495760   -0.8100
32     N32    -0.7330   -3.8206   -2.4144 N.2      1 ZINC000242495760   -0.5000
33     H33     1.0710    1.7630   -1.0797 H        1 ZINC000242495760    0.1000
34     H34    -0.6072    2.0190   -1.6147 H        1 ZINC000242495760    0.0600
35     H35    -0.2693    1.5835    0.0777 H        1 ZINC000242495760    0.0600
36     H36    -3.7567   -0.6093   -0.4801 H        1 ZINC000242495760    0.4200
37     H37    -8.2967    2.9257   -0.6092 H        1 ZINC000242495760    0.0900
38     H38    -9.5535    2.0248    0.2724 H        1 ZINC000242495760    0.1000
39     H39    -8.0350    5.6822    2.7242 H        1 ZINC000242495760    0.0900
40     H40    -9.7800    6.0240    2.6448 H        1 ZINC000242495760    0.1000
41     H41    -9.1798    4.6889    3.6575 H        1 ZINC000242495760    0.0900
42     H42    -6.2993    2.2146    1.7331 H        1 ZINC000242495760    0.1200
43     H43    -7.2053    0.8801    2.4689 H        1 ZINC000242495760    0.1000
44     H44     1.1040   -1.1492   -1.8537 H        1 ZINC000242495760    0.2000
45     H45     1.0794   -6.1659   -3.7075 H        1 ZINC000242495760    0.4100
46     H46    -0.5625   -6.2634   -3.3649 H        1 ZINC000242495760    0.4200
@<TRIPOS>BOND
1     1     2     1
2     1     33    1
3     1     34    1
4     1     35    1
5     2     3     1
6     3     4     2
7     4     5     1
8     4     27    1
9     5     6     2
10    5     7     am
11    7     8     1
12    7     36    1
13    8     9     1
14    8     25    1
15    8     10    1
16    10    11    2
17    10    12    am
18    12    25    1
19    12    13    1
20    13    14    1
21    13    17    2
22    14    15    ar
23    14    16    ar
24    17    18    1
25    17    23    1
26    18    19    1
27    18    37    1
28    18    38    1
29    19    20    1
30    20    21    1
31    20    22    2
32    21    39    1
33    21    40    1
34    21    41    1
35    23    24    1
36    23    42    1
37    23    43    1
38    24    25    1
39    25    26    1
40    27    32    1
41    27    28    2
42    28    29    1
43    28    44    1
44    29    30    1
45    30    31    1
46    30    32    2
47    31    45    1
48    31    46    1
@<TRIPOS>SUBSTRUCTURE
1   ZINC000242495760 1     RESIDUE    1   A     ZIN   1
