@<TRIPOS>MOLECULE
ZINC000001645454
53    56    1     0     0
SMALL
USER_CHARGES
@<TRIPOS>ATOM
1      C1      1.3309    1.4470   -2.1651 C.3      1 ZINC000001645454   -0.1500
2      C2      1.4005   -0.0811   -2.1948 C.3      1 ZINC000001645454   -0.1100
3      C3      0.4144   -0.6565   -1.1763 C.3      1 ZINC000001645454   -0.1000
4      C4      0.4344   -2.1614   -1.2523 C.2      1 ZINC000001645454    0.0600
5      C5     -0.4868   -2.8284   -1.9950 C.2      1 ZINC000001645454   -0.2800
6      C6     -0.4540   -4.2358   -2.0551 C.2      1 ZINC000001645454    0.5100
7      O7     -1.2848   -4.8267   -2.7218 O.2      1 ZINC000001645454   -0.4600
8      O8      0.4793   -4.9368   -1.3890 O.3      1 ZINC000001645454   -0.2500
9      C9      1.4156   -4.3118   -0.6401 C.ar     1 ZINC000001645454    0.2400
10     C10     2.3733   -5.0592    0.0381 C.ar     1 ZINC000001645454   -0.2700
11     C11     3.3315   -4.4267    0.8077 C.ar     1 ZINC000001645454    0.2500
12     C12     3.3276   -3.0270    0.9197 C.ar     1 ZINC000001645454   -0.2000
13     C13     4.3262   -2.3262    1.7540 C.2      1 ZINC000001645454   -0.0700
14     C14     4.1144   -1.0471    2.0515 C.2      1 ZINC000001645454   -0.2000
15     C15     2.8648   -0.3571    1.5707 C.3      1 ZINC000001645454    0.1400
16     C16     1.7601   -0.5291    2.6152 C.3      1 ZINC000001645454   -0.1800
17     C17     3.1527    1.1337    1.3821 C.3      1 ZINC000001645454   -0.1400
18     O18     2.4295   -0.9121    0.3297 O.3      1 ZINC000001645454   -0.2800
19     C19     2.3850   -2.2629    0.2311 C.ar     1 ZINC000001645454    0.2400
20     C20     1.4195   -2.9066   -0.5541 C.ar     1 ZINC000001645454   -0.2100
21     O21     4.2965   -5.1233    1.4573 O.3      1 ZINC000001645454   -0.2900
22     C22     4.1270   -6.5215    1.6470 C.3      1 ZINC000001645454    0.0900
23     H23     3.3814   -6.6941    2.4231 H        1 ZINC000001645454    0.0800
24     C24     5.4587   -7.1419    2.0742 C.3      1 ZINC000001645454   -0.1500
25     C25     3.6621   -7.1684    0.3435 C.3      1 ZINC000001645454   -0.1600
26     H26     4.4056   -6.9929   -0.4341 H        1 ZINC000001645454    0.0900
27     C27     3.4912   -8.6741    0.5545 C.3      1 ZINC000001645454   -0.1400
28     C28     2.3295   -6.5610   -0.0816 C.3      1 ZINC000001645454    0.1700
29     H29     1.5361   -6.9505    0.5564 H        1 ZINC000001645454    0.1100
30     O30     2.0605   -6.9154   -1.4396 O.3      1 ZINC000001645454   -0.5300
31     H31     0.3203    1.7696   -2.4155 H        1 ZINC000001645454    0.0500
32     H32     1.5894    1.8031   -1.1679 H        1 ZINC000001645454    0.0600
33     H33     2.0334    1.8569   -2.8908 H        1 ZINC000001645454    0.0600
34     H34     1.1420   -0.4373   -3.1920 H        1 ZINC000001645454    0.0600
35     H35     2.4111   -0.4038   -1.9444 H        1 ZINC000001645454    0.0700
36     H36     0.7013   -0.3395   -0.1736 H        1 ZINC000001645454    0.1000
37     H37    -0.5897   -0.2948   -1.3982 H        1 ZINC000001645454    0.0800
38     H38    -1.2430   -2.2811   -2.5382 H        1 ZINC000001645454    0.1600
39     H39     5.2056   -2.8398    2.1134 H        1 ZINC000001645454    0.1400
40     H40     4.8391   -0.5028    2.6388 H        1 ZINC000001645454    0.1400
41     H41     2.0530   -0.0307    3.5393 H        1 ZINC000001645454    0.0800
42     H42     0.8355   -0.0886    2.2421 H        1 ZINC000001645454    0.0700
43     H43     1.6048   -1.5906    2.8084 H        1 ZINC000001645454    0.0600
44     H44     3.9462    1.2602    0.6457 H        1 ZINC000001645454    0.0700
45     H45     2.2505    1.6368    1.0341 H        1 ZINC000001645454    0.0700
46     H46     3.4663    1.5662    2.3322 H        1 ZINC000001645454    0.0800
47     H47     5.7894   -6.6856    3.0073 H        1 ZINC000001645454    0.0700
48     H48     5.3298   -8.2144    2.2200 H        1 ZINC000001645454    0.0900
49     H49     6.2057   -6.9677    1.2998 H        1 ZINC000001645454    0.0700
50     H50     2.7484   -8.8499    1.3326 H        1 ZINC000001645454    0.0600
51     H51     3.1595   -9.1359   -0.3754 H        1 ZINC000001645454    0.0700
52     H52     4.4438   -9.1091    0.8567 H        1 ZINC000001645454    0.0700
53     H53     2.7130   -6.5808   -2.0700 H        1 ZINC000001645454    0.3700
@<TRIPOS>BOND
1     1     2     1
2     1     31    1
3     1     32    1
4     1     33    1
5     2     3     1
6     2     34    1
7     2     35    1
8     3     4     1
9     3     36    1
10    3     37    1
11    4     20    1
12    4     5     2
13    5     6     1
14    5     38    1
15    6     7     2
16    6     8     1
17    8     9     1
18    9     20    ar
19    9     10    ar
20    10    28    1
21    10    11    ar
22    11    12    ar
23    11    21    1
24    12    19    ar
25    12    13    1
26    13    14    2
27    13    39    1
28    14    15    1
29    14    40    1
30    15    16    1
31    15    17    1
32    15    18    1
33    16    41    1
34    16    42    1
35    16    43    1
36    17    44    1
37    17    45    1
38    17    46    1
39    18    19    1
40    19    20    ar
41    21    22    1
42    22    23    1
43    22    24    1
44    22    25    1
45    24    47    1
46    24    48    1
47    24    49    1
48    25    26    1
49    25    27    1
50    25    28    1
51    27    50    1
52    27    51    1
53    27    52    1
54    28    29    1
55    28    30    1
56    30    53    1
@<TRIPOS>SUBSTRUCTURE
1   ZINC000001645454 1     RESIDUE    1   A     ZIN   1
