@<TRIPOS>MOLECULE
ZINC000000000984
30    30    1     0     0
SMALL
USER_CHARGES
@<TRIPOS>ATOM
1      C1     -0.0187    1.5258    0.0104 C.3      1 ZINC000000000984   -0.1700
2      C2      0.0021   -0.0041    0.0020 C.3      1 ZINC000000000984    0.1100
3      N3     -1.3723   -0.5112    0.0124 N.am     1 ZINC000000000984   -0.6100
4      C4     -2.0716   -0.7579   -1.2510 C.3      1 ZINC000000000984    0.1000
5      C5     -1.8159   -2.1971   -1.7029 C.3      1 ZINC000000000984   -0.1700
6      C6     -1.9934   -0.7507    1.1843 C.2      1 ZINC000000000984    0.5300
7      O7     -1.4145   -0.5464    2.2303 O.2      1 ZINC000000000984   -0.5200
8      C8     -3.4072   -1.2723    1.1950 C.3      1 ZINC000000000984   -0.1500
9      S9     -3.9581   -1.4908    2.9095 S.3      1 ZINC000000000984    0.0500
10     C10    -5.6025   -2.0957    2.7233 C.ar     1 ZINC000000000984    0.0400
11     C11    -6.3746   -2.3844    3.8490 C.ar     1 ZINC000000000984   -0.0800
12     C12    -7.6612   -2.8575    3.6491 C.ar     1 ZINC000000000984   -0.0800
13     C13    -8.1032   -3.0153    2.3414 C.ar     1 ZINC000000000984    0.1000
14     Cl14   -9.7067   -3.6042    2.0321 Cl       1 ZINC000000000984    0.0000
15     N15    -7.3044   -2.7173    1.3349 N.ar     1 ZINC000000000984   -0.2200
16     N16    -6.1134   -2.2734    1.5134 N.ar     1 ZINC000000000984   -0.2400
17     H17     1.0039    1.9031    0.0027 H        1 ZINC000000000984    0.0700
18     H18    -0.5459    1.8868   -0.8726 H        1 ZINC000000000984    0.0600
19     H19    -0.5289    1.8773    0.9072 H        1 ZINC000000000984    0.0600
20     H20     0.5123   -0.3556   -0.8948 H        1 ZINC000000000984    0.0800
21     H21     0.5293   -0.3651    0.8851 H        1 ZINC000000000984    0.0900
22     H22    -3.1417   -0.6062   -1.1097 H        1 ZINC000000000984    0.0800
23     H23    -1.7041   -0.0678   -2.0105 H        1 ZINC000000000984    0.0900
24     H24    -0.7458   -2.3488   -1.8443 H        1 ZINC000000000984    0.0600
25     H25    -2.1835   -2.8871   -0.9434 H        1 ZINC000000000984    0.0600
26     H26    -2.3362   -2.3807   -2.6429 H        1 ZINC000000000984    0.0700
27     H27    -4.0610   -0.5603    0.6912 H        1 ZINC000000000984    0.1300
28     H28    -3.4450   -2.2302    0.6764 H        1 ZINC000000000984    0.1300
29     H29    -5.9814   -2.2437    4.8450 H        1 ZINC000000000984    0.1700
30     H30    -8.3017   -3.0970    4.4851 H        1 ZINC000000000984    0.1700
@<TRIPOS>BOND
1     1     2     1
2     1     17    1
3     1     18    1
4     1     19    1
5     2     3     1
6     2     20    1
7     2     21    1
8     3     4     1
9     3     6     am
10    4     5     1
11    4     22    1
12    4     23    1
13    5     24    1
14    5     25    1
15    5     26    1
16    6     7     2
17    6     8     1
18    8     9     1
19    8     27    1
20    8     28    1
21    9     10    1
22    10    16    ar
23    10    11    ar
24    11    12    ar
25    11    29    1
26    12    13    ar
27    12    30    1
28    13    14    1
29    13    15    ar
30    15    16    ar
@<TRIPOS>SUBSTRUCTURE
1   ZINC000000000984 1     RESIDUE    1   A     ZIN   1
