@<TRIPOS>MOLECULE
ZINC000077024226
53    56    1     0     0
SMALL
USER_CHARGES
@<TRIPOS>ATOM
1      C1     -0.3164    1.6823    0.1306 C.3      1 ZINC000077024226   -0.1200
2      C2     -0.1452    0.1889    0.0240 C.cat    1 ZINC000077024226    0.3600
3      N3     -0.2033   -0.4924   -1.0849 N.pl3    1 ZINC000077024226   -0.4500
4      H4     -0.3628   -0.1145   -1.9639 H        1 ZINC000077024226    0.4700
5      C5     -0.0083   -1.8010   -0.8276 C.ar     1 ZINC000077024226    0.0500
6      C6      0.0296   -2.9554   -1.6399 C.ar     1 ZINC000077024226   -0.0500
7      C7     -0.1699   -2.8460   -3.0925 C.2      1 ZINC000077024226    0.5200
8      O8     -0.1361   -3.8494   -3.7920 O.co2    1 ZINC000077024226   -0.6400
9      O9     -0.3697   -1.7514   -3.6019 O.co2    1 ZINC000077024226   -0.6800
10     C10     0.2581   -4.1998   -1.0540 C.ar     1 ZINC000077024226   -0.1100
11     C11     0.4464   -4.3032    0.3173 C.ar     1 ZINC000077024226    0.1600
12     N12     0.6744   -5.5570    0.8939 N.3      1 ZINC000077024226   -0.4800
13     C13     1.9334   -5.5668    1.6529 C.3      1 ZINC000077024226    0.0200
14     C14     2.1134   -6.9356    2.3145 C.3      1 ZINC000077024226    0.0600
15     O15     2.0788   -7.9532    1.3102 O.3      1 ZINC000077024226   -0.3800
16     C16     0.8663   -7.9729    0.5521 C.3      1 ZINC000077024226    0.0600
17     C17     0.6736   -6.6145   -0.1274 C.3      1 ZINC000077024226    0.0000
18     C18     0.4107   -3.1721    1.1207 C.ar     1 ZINC000077024226   -0.1400
19     C19     0.1850   -1.9253    0.5584 C.ar     1 ZINC000077024226    0.1000
20     N20     0.0981   -0.6445    1.0700 N.pl3    1 ZINC000077024226   -0.4400
21     C21     0.2390   -0.2578    2.4760 C.3      1 ZINC000077024226    0.1500
22     C22     1.6921   -0.0027    2.7837 C.ar     1 ZINC000077024226   -0.1300
23     C23     2.0810    0.3100    4.0726 C.ar     1 ZINC000077024226   -0.0100
24     C24     1.0520    0.3958    5.1702 C.3      1 ZINC000077024226   -0.1500
25     C25     3.4141    0.5435    4.3549 C.ar     1 ZINC000077024226   -0.1800
26     C26     3.8383    0.8840    5.7603 C.3      1 ZINC000077024226    0.5100
27     F27     5.2237    1.0746    5.7961 F        1 ZINC000077024226   -0.1700
28     F28     3.1954    2.0570    6.1702 F        1 ZINC000077024226   -0.1700
29     F29     3.4893   -0.1636    6.6194 F        1 ZINC000077024226   -0.1700
30     C30     4.3579    0.4643    3.3483 C.ar     1 ZINC000077024226   -0.0500
31     C31     3.9688    0.1520    2.0589 C.ar     1 ZINC000077024226   -0.1100
32     C32     2.6368   -0.0870    1.7778 C.ar     1 ZINC000077024226   -0.0700
33     H33     0.6615    2.1631    0.1013 H        1 ZINC000077024226    0.1200
34     H34    -0.9218    2.0391   -0.7026 H        1 ZINC000077024226    0.1200
35     H35    -0.8125    1.9250    1.0703 H        1 ZINC000077024226    0.1100
36     H36     0.2883   -5.0867   -1.6695 H        1 ZINC000077024226    0.1600
37     H37     2.7672   -5.3766    0.9772 H        1 ZINC000077024226    0.0600
38     H38     1.9019   -4.7931    2.4200 H        1 ZINC000077024226    0.0900
39     H39     3.0727   -6.9667    2.8313 H        1 ZINC000077024226    0.1100
40     H40     1.3083   -7.1028    3.0300 H        1 ZINC000077024226    0.0600
41     H41     0.9235   -8.7541   -0.2058 H        1 ZINC000077024226    0.1100
42     H42     0.0249   -8.1702    1.2163 H        1 ZINC000077024226    0.0600
43     H43    -0.2775   -6.6056   -0.6599 H        1 ZINC000077024226    0.1000
44     H44     1.4873   -6.4411   -0.8316 H        1 ZINC000077024226    0.0700
45     H45     0.5585   -3.2635    2.1866 H        1 ZINC000077024226    0.1400
46     H46    -0.3365    0.6488    2.6629 H        1 ZINC000077024226    0.1300
47     H47    -0.1316   -1.0611    3.1127 H        1 ZINC000077024226    0.1300
48     H48     0.8929   -0.5943    5.5974 H        1 ZINC000077024226    0.0900
49     H49     1.4051    1.0742    5.9470 H        1 ZINC000077024226    0.0800
50     H50     0.1138    0.7698    4.7603 H        1 ZINC000077024226    0.0800
51     H51     5.3993    0.6468    3.5688 H        1 ZINC000077024226    0.1500
52     H52     4.7062    0.0904    1.2722 H        1 ZINC000077024226    0.1400
53     H53     2.3328   -0.3310    0.7706 H        1 ZINC000077024226    0.1200
@<TRIPOS>BOND
1     1     2     1
2     1     33    1
3     1     34    1
4     1     35    1
5     2     20    ar
6     2     3     ar
7     3     4     1
8     3     5     1
9     5     19    ar
10    5     6     ar
11    6     7     1
12    6     10    ar
13    7     8     ar
14    7     9     ar
15    10    11    ar
16    10    36    1
17    11    12    1
18    11    18    ar
19    12    17    1
20    12    13    1
21    13    14    1
22    13    37    1
23    13    38    1
24    14    15    1
25    14    39    1
26    14    40    1
27    15    16    1
28    16    17    1
29    16    41    1
30    16    42    1
31    17    43    1
32    17    44    1
33    18    19    ar
34    18    45    1
35    19    20    1
36    20    21    1
37    21    22    1
38    21    46    1
39    21    47    1
40    22    32    ar
41    22    23    ar
42    23    24    1
43    23    25    ar
44    24    48    1
45    24    49    1
46    24    50    1
47    25    26    1
48    25    30    ar
49    26    27    1
50    26    28    1
51    26    29    1
52    30    31    ar
53    30    51    1
54    31    32    ar
55    31    52    1
56    32    53    1
@<TRIPOS>SUBSTRUCTURE
1   ZINC000077024226 1     RESIDUE    1   A     ZIN   1
