@<TRIPOS>MOLECULE
ZINC000000003955
  38   40    0    0    0
SMALL
USER_CHARGES
NO_NAME
@<TRIPOS>ATOM
    1 C1       -0.0187     1.5258     0.0104 C.3    1 <0>      -0.1500
    2 C2        0.0021    -0.0041     0.0020 C.3    1 <0>      -0.0900
    3 C3        0.7421    -0.5109     1.2415 C.3    1 <0>      -0.1300
    4 H4        0.2852    -0.0874     2.1360 H      1 <0>       0.0700
    5 C5        2.1879    -0.0922     1.1696 C.2    1 <0>       0.5100
    6 O6        2.6616     0.6161     2.0417 O.co2  1 <0>      -0.7000
    7 O7        2.8841    -0.4617     0.2394 O.co2  1 <0>      -0.6900
    8 C8        0.6567    -2.0144     1.2978 C.ar   1 <0>      -0.0600
    9 C9        1.1795    -2.7741     0.2673 C.ar   1 <0>      -0.0700
   10 C10       1.1025    -4.1522     0.3155 C.ar   1 <0>      -0.1500
   11 C11       0.4996    -4.7750     1.4008 C.ar   1 <0>       0.1400
   12 N12       0.4204    -6.1702     1.4529 N.am   1 <0>      -0.5500
   13 C13      -0.1923    -6.9516     2.5332 C.3    1 <0>       0.1400
   14 C14      -0.0362    -8.4011     2.1466 C.ar   1 <0>      -0.0800
   15 C15      -0.4043    -9.5818     2.7483 C.ar   1 <0>      -0.1000
   16 C16      -0.1162   -10.7899     2.1349 C.ar   1 <0>      -0.0900
   17 C17       0.5415   -10.8129     0.9180 C.ar   1 <0>      -0.1300
   18 C18       0.9152    -9.6342     0.3057 C.ar   1 <0>      -0.0400
   19 C19       0.6281    -8.4127     0.9174 C.ar   1 <0>      -0.1500
   20 C20       0.8879    -7.0164     0.5189 C.2    1 <0>       0.5500
   21 O21       1.4482    -6.6792    -0.5059 O.2    1 <0>      -0.5000
   22 C22      -0.0240    -4.0090     2.4343 C.ar   1 <0>      -0.1600
   23 C23       0.0608    -2.6315     2.3824 C.ar   1 <0>      -0.1000
   24 H24       1.0039     1.9031     0.0027 H      1 <0>       0.0600
   25 H25      -0.5459     1.8868    -0.8726 H      1 <0>       0.0400
   26 H26      -0.5289     1.8773     0.9072 H      1 <0>       0.0500
   27 H27      -1.0205    -0.3814     0.0098 H      1 <0>       0.0500
   28 H28       0.5123    -0.3556    -0.8948 H      1 <0>       0.0700
   29 H29       1.6481    -2.2892    -0.5763 H      1 <0>       0.1400
   30 H30       1.5103    -4.7449    -0.4899 H      1 <0>       0.1500
   31 H31       0.3223    -6.7575     3.4743 H      1 <0>       0.1000
   32 H32      -1.2490    -6.7000     2.6247 H      1 <0>       0.1000
   33 H33      -0.9172    -9.5670     3.6986 H      1 <0>       0.1300
   34 H34      -0.4057   -11.7165     2.6081 H      1 <0>       0.1300
   35 H35       0.7638   -11.7581     0.4451 H      1 <0>       0.1300
   36 H36       1.4288    -9.6566    -0.6441 H      1 <0>       0.1300
   37 H37      -0.4938    -4.4902     3.2794 H      1 <0>       0.1200
   38 H38      -0.3458    -2.0354     3.1859 H      1 <0>       0.1200
@<TRIPOS>BOND
   1    1    2 1
   2    1   24 1
   3    1   25 1
   4    1   26 1
   5    2    3 1
   6    2   27 1
   7    2   28 1
   8    3    4 1
   9    3    5 1
  10    3    8 1
  11    5    6 ar
  12    5    7 ar
  13    8   23 ar
  14    8    9 ar
  15    9   10 ar
  16    9   29 1
  17   10   11 ar
  18   10   30 1
  19   11   12 1
  20   11   22 ar
  21   12   20 am
  22   12   13 1
  23   13   14 1
  24   13   31 1
  25   13   32 1
  26   14   19 ar
  27   14   15 ar
  28   15   16 ar
  29   15   33 1
  30   16   17 ar
  31   16   34 1
  32   17   18 ar
  33   17   35 1
  34   18   19 ar
  35   18   36 1
  36   19   20 1
  37   20   21 2
  38   22   23 ar
  39   22   37 1
  40   23   38 1
