@<TRIPOS>MOLECULE
ZINC000064540331
  50   54    0    0    0
SMALL
USER_CHARGES
NO_NAME
@<TRIPOS>ATOM
    1 O1        0.0021    -0.0041     0.0020 O.2    1 <0>      -0.5100
    2 C2       -0.0144     1.2124     0.0087 C.2    1 <0>       0.6000
    3 N3        1.1435     1.9020     0.0014 N.am   1 <0>      -0.7100
    4 C4        2.4220     1.1869    -0.0147 C.3    1 <0>       0.1200
    5 H5        2.3244     0.2776    -0.6077 H      1 <0>       0.1000
    6 C6        2.8260     0.8241     1.4198 C.3    1 <0>      -0.1000
    7 C7        4.1803     0.1050     1.3796 C.3    1 <0>      -0.1500
    8 C8        5.2141     1.0329     0.7355 C.3    1 <0>       0.0400
    9 N9        4.5685     2.3009     0.3686 N.3    1 <0>      -0.5200
   10 C10       4.0509     2.9910     1.5581 C.3    1 <0>       0.0500
   11 C11       2.9836     2.1195     2.2261 C.3    1 <0>      -0.1500
   12 C12       3.5038     2.0833    -0.6240 C.3    1 <0>       0.0900
   13 H13       3.0663     3.0416    -0.9040 H      1 <0>       0.0900
   14 C14       4.0927     1.4091    -1.8648 C.3    1 <0>      -0.0700
   15 C15       5.0708     2.3442    -2.5281 C.ar   1 <0>      -0.1200
   16 C16       4.6413     3.2363    -3.4985 C.ar   1 <0>      -0.0800
   17 C17       5.5765     4.0780    -4.0814 C.ar   1 <0>      -0.1700
   18 C18       6.8960     4.0003    -3.6786 C.ar   1 <0>       0.0900
   19 N19       7.2689     3.1390    -2.7521 N.ar   1 <0>      -0.4900
   20 C20       6.4064     2.3272    -2.1726 C.ar   1 <0>       0.1200
   21 C21      -1.2971     1.9299     0.0187 C.2    1 <0>      -0.0300
   22 C22      -2.5213     1.3420     0.0267 C.2    1 <0>      -0.1000
   23 C23      -3.4948     2.4334     0.0349 C.ar   1 <0>      -0.1500
   24 C24      -4.8901     2.4933     0.0449 C.ar   1 <0>      -0.0600
   25 C25      -5.5158     3.7083     0.0508 C.ar   1 <0>      -0.1400
   26 C26      -4.7740     4.8813     0.0464 C.ar   1 <0>      -0.0800
   27 C27      -3.3962     4.8437     0.0361 C.ar   1 <0>      -0.1100
   28 C28      -2.7375     3.6199     0.0309 C.ar   1 <0>       0.0700
   29 O29      -1.4359     3.2721     0.0271 O.3    1 <0>      -0.1900
   30 H30       1.1303     2.8719     0.0067 H      1 <0>       0.4100
   31 H31       2.0650     0.1898     1.8745 H      1 <0>       0.0800
   32 H32       4.4930    -0.1418     2.3942 H      1 <0>       0.0700
   33 H33       4.0917    -0.8079     0.7906 H      1 <0>       0.0700
   34 H34       6.0200     1.2266     1.4434 H      1 <0>       0.0800
   35 H35       5.6206     0.5597    -0.1584 H      1 <0>       0.0800
   36 H36       4.8664     3.1687     2.2592 H      1 <0>       0.0800
   37 H37       3.6103     3.9434     1.2632 H      1 <0>       0.0700
   38 H38       2.0345     2.6551     2.2458 H      1 <0>       0.0600
   39 H39       3.2917     1.8808     3.2441 H      1 <0>       0.0700
   40 H40       4.6068     0.4938    -1.5714 H      1 <0>       0.0800
   41 H41       3.2906     1.1677    -2.5623 H      1 <0>       0.0800
   42 H42       3.6031     3.2745    -3.7937 H      1 <0>       0.1300
   43 H43       5.2774     4.7852    -4.8408 H      1 <0>       0.1300
   44 H44       7.6306     4.6522    -4.1279 H      1 <0>       0.1500
   45 H45       6.7491     1.6350    -1.4177 H      1 <0>       0.1500
   46 H46      -2.7331     0.2829     0.0264 H      1 <0>       0.1700
   47 H47      -5.4721     1.5835     0.0476 H      1 <0>       0.1300
   48 H48      -6.5947     3.7559     0.0585 H      1 <0>       0.1300
   49 H49      -5.2821     5.8343     0.0508 H      1 <0>       0.1400
   50 H50      -2.8297     5.7632     0.0321 H      1 <0>       0.1400
@<TRIPOS>BOND
   1    1    2 2
   2    2    3 am
   3    2   21 1
   4    3    4 1
   5    3   30 1
   6    4    5 1
   7    4   12 1
   8    4    6 1
   9    6   11 1
  10    6    7 1
  11    6   31 1
  12    7    8 1
  13    7   32 1
  14    7   33 1
  15    8    9 1
  16    8   34 1
  17    8   35 1
  18    9   10 1
  19    9   12 1
  20   10   11 1
  21   10   36 1
  22   10   37 1
  23   11   38 1
  24   11   39 1
  25   12   13 1
  26   12   14 1
  27   14   15 1
  28   14   40 1
  29   14   41 1
  30   15   20 ar
  31   15   16 ar
  32   16   17 ar
  33   16   42 1
  34   17   18 ar
  35   17   43 1
  36   18   19 ar
  37   18   44 1
  38   19   20 ar
  39   20   45 1
  40   21   29 1
  41   21   22 2
  42   22   23 1
  43   22   46 1
  44   23   28 ar
  45   23   24 ar
  46   24   25 ar
  47   24   47 1
  48   25   26 ar
  49   25   48 1
  50   26   27 ar
  51   26   49 1
  52   27   28 ar
  53   27   50 1
  54   28   29 1
