@<TRIPOS>MOLECULE
ZINC000008214468
99    103   1     0     0
SMALL
USER_CHARGES
@<TRIPOS>ATOM
1      C1      8.6826   -2.0626    1.6314 C.3      1 ZINC000008214468    0.0200
2      O2      9.2275   -3.0483    0.7519 O.3      1 ZINC000008214468   -0.3000
3      C3      8.9248   -2.9322   -0.5689 C.ar     1 ZINC000008214468    0.1400
4      C4      8.1287   -1.8922   -1.0048 C.ar     1 ZINC000008214468   -0.1700
5      C5      7.8178   -1.7732   -2.3658 C.ar     1 ZINC000008214468   -0.1000
6      C6      6.9703   -0.6664   -2.8341 C.2      1 ZINC000008214468    0.4000
7      O7      6.4627    0.0910   -2.0322 O.2      1 ZINC000008214468   -0.4000
8      C8      6.7342   -0.4740   -4.2950 C.2      1 ZINC000008214468    0.5000
9      O9      5.8830   -1.1265   -4.8633 O.2      1 ZINC000008214468   -0.4900
10     N10     7.4661    0.4243   -4.9834 N.am     1 ZINC000008214468   -0.5800
11     C11     8.5666    1.1318   -4.3242 C.3      1 ZINC000008214468    0.0700
12     C12     7.1612    0.6931   -6.3909 C.3      1 ZINC000008214468    0.1000
13     H13     6.3177    0.0778   -6.7039 H        1 ZINC000008214468    0.1600
14     C14     6.8055    2.1713   -6.5623 C.3      1 ZINC000008214468   -0.0900
15     C15     5.6013    2.4995   -5.7178 C.ar     1 ZINC000008214468   -0.0800
16     C16     4.3335    2.4257   -6.2640 C.ar     1 ZINC000008214468   -0.1100
17     C17     3.2286    2.7265   -5.4900 C.ar     1 ZINC000008214468   -0.1000
18     C18     3.3917    3.1015   -4.1683 C.ar     1 ZINC000008214468   -0.0300
19     Cl19    2.0044    3.4790   -3.1953 Cl       1 ZINC000008214468   -0.0700
20     C20     4.6608    3.1752   -3.6222 C.ar     1 ZINC000008214468   -0.1000
21     C21     5.7645    2.8687   -4.3956 C.ar     1 ZINC000008214468   -0.0900
22     C22     8.3640    0.3645   -7.2371 C.2      1 ZINC000008214468    0.5200
23     O23     9.4676    0.3309   -6.7353 O.2      1 ZINC000008214468   -0.5200
24     N24     8.2134    0.1079   -8.5516 N.am     1 ZINC000008214468   -0.6000
25     C25     6.9055    0.2850   -9.1874 C.3      1 ZINC000008214468    0.1400
26     C26     5.9359   -0.7262   -8.6319 C.ar     1 ZINC000008214468   -0.1200
27     C27     6.1582   -2.0766   -8.8269 C.ar     1 ZINC000008214468   -0.1200
28     C28     5.2689   -3.0041   -8.3174 C.ar     1 ZINC000008214468   -0.1200
29     C29     4.1575   -2.5813   -7.6125 C.ar     1 ZINC000008214468   -0.1000
30     C30     3.9356   -1.2310   -7.4167 C.ar     1 ZINC000008214468   -0.0900
31     C31     4.8273   -0.3036   -7.9226 C.ar     1 ZINC000008214468   -0.1200
32     C32     9.3576   -0.3482   -9.3447 C.3      1 ZINC000008214468    0.1400
33     C33     9.1387   -1.8025   -9.7665 C.3      1 ZINC000008214468   -0.1300
34     C34     9.1641   -2.7017   -8.5289 C.3      1 ZINC000008214468   -0.0900
35     C35     9.1261   -4.1462   -8.9566 C.ar     1 ZINC000008214468   -0.0400
36     C36     7.9330   -4.8525   -8.9660 C.ar     1 ZINC000008214468   -0.1900
37     C37     7.9370   -6.1759   -9.3645 C.ar     1 ZINC000008214468    0.1000
38     N38     9.0573   -6.7664   -9.7320 N.ar     1 ZINC000008214468   -0.4900
39     C39    10.2100   -6.1258   -9.7355 C.ar     1 ZINC000008214468    0.1000
40     C40    10.2825   -4.7989   -9.3556 C.ar     1 ZINC000008214468   -0.1700
41     C41     9.4964    0.5288  -10.5908 C.3      1 ZINC000008214468   -0.1200
42     C42     9.7606    1.9757  -10.1693 C.3      1 ZINC000008214468   -0.0800
43     C43    10.0190    2.8162  -11.3931 C.ar     1 ZINC000008214468   -0.0400
44     C44    11.2869    2.8891  -11.9493 C.ar     1 ZINC000008214468   -0.1700
45     C45    11.4860    3.6703  -13.0718 C.ar     1 ZINC000008214468    0.1000
46     N46    10.4878    4.3411  -13.6125 N.ar     1 ZINC000008214468   -0.4900
47     C47     9.2692    4.2954  -13.1106 C.ar     1 ZINC000008214468    0.1000
48     C48     8.9932    3.5305  -11.9930 C.ar     1 ZINC000008214468   -0.1700
49     C49     8.3166   -2.7108   -3.2794 C.ar     1 ZINC000008214468   -0.1700
50     C50     9.1121   -3.7482   -2.8362 C.ar     1 ZINC000008214468    0.1400
51     O51     9.5971   -4.6586   -3.7225 O.3      1 ZINC000008214468   -0.3000
52     C52     9.2432   -4.4798   -5.0953 C.3      1 ZINC000008214468    0.0300
53     C53     9.4238   -3.8605   -1.4818 C.ar     1 ZINC000008214468    0.0700
54     O54    10.2070   -4.8820   -1.0494 O.3      1 ZINC000008214468   -0.3100
55     C55    11.6171   -4.6516   -1.0217 C.3      1 ZINC000008214468    0.0400
56     H56     9.0375   -1.0754    1.3352 H        1 ZINC000008214468    0.0600
57     H57     7.5943   -2.0888    1.5769 H        1 ZINC000008214468    0.0600
58     H58     9.0004   -2.2716    2.6528 H        1 ZINC000008214468    0.1100
59     H59     7.7456   -1.1714   -0.2977 H        1 ZINC000008214468    0.1500
60     H60     9.4668    0.5184   -4.3611 H        1 ZINC000008214468    0.0800
61     H61     8.7495    2.0766   -4.8362 H        1 ZINC000008214468    0.0800
62     H62     8.3022    1.3270   -3.2849 H        1 ZINC000008214468    0.0700
63     H63     7.6484    2.7867   -6.2478 H        1 ZINC000008214468    0.0900
64     H64     6.5802    2.3717   -7.6098 H        1 ZINC000008214468    0.0900
65     H65     4.2064    2.1333   -7.2959 H        1 ZINC000008214468    0.1300
66     H66     2.2383    2.6692   -5.9169 H        1 ZINC000008214468    0.1400
67     H67     4.7887    3.4682   -2.5906 H        1 ZINC000008214468    0.1300
68     H68     6.7551    2.9258   -3.9694 H        1 ZINC000008214468    0.1300
69     H69     6.5367    1.2907   -8.9858 H        1 ZINC000008214468    0.0800
70     H70     7.0023    0.1424  -10.2636 H        1 ZINC000008214468    0.1000
71     H71     7.0266   -2.4069   -9.3777 H        1 ZINC000008214468    0.1400
72     H72     5.4422   -4.0591   -8.4704 H        1 ZINC000008214468    0.1200
73     H73     3.4622   -3.3060   -7.2151 H        1 ZINC000008214468    0.1200
74     H74     3.0671   -0.9007   -6.8663 H        1 ZINC000008214468    0.1200
75     H75     4.6540    0.7514   -7.7696 H        1 ZINC000008214468    0.1300
76     H76    10.2661   -0.2761   -8.7467 H        1 ZINC000008214468    0.1100
77     H77     8.1729   -1.8953  -10.2632 H        1 ZINC000008214468    0.0800
78     H78     9.9303   -2.1052  -10.4518 H        1 ZINC000008214468    0.0800
79     H79    10.0762   -2.5144   -7.9623 H        1 ZINC000008214468    0.0800
80     H80     8.2975   -2.4849   -7.9043 H        1 ZINC000008214468    0.0800
81     H81     7.0123   -4.3747   -8.6655 H        1 ZINC000008214468    0.1400
82     H82     7.0118   -6.7330   -9.3746 H        1 ZINC000008214468    0.1500
83     H83    11.1070   -6.6428  -10.0426 H        1 ZINC000008214468    0.1600
84     H84    11.2294   -4.2796   -9.3609 H        1 ZINC000008214468    0.1300
85     H85    10.3278    0.1695  -11.1972 H        1 ZINC000008214468    0.0800
86     H86     8.5757    0.4821  -11.1723 H        1 ZINC000008214468    0.0700
87     H87     8.8912    2.3640   -9.6387 H        1 ZINC000008214468    0.0800
88     H88    10.6312    2.0101   -9.5144 H        1 ZINC000008214468    0.0800
89     H89    12.1087    2.3425  -11.5106 H        1 ZINC000008214468    0.1300
90     H90    12.4707    3.7323  -13.5111 H        1 ZINC000008214468    0.1600
91     H91     8.4768    4.8588  -13.5807 H        1 ZINC000008214468    0.1600
92     H92     7.9930    3.4968  -11.5869 H        1 ZINC000008214468    0.1300
93     H93     8.0786   -2.6224   -4.3292 H        1 ZINC000008214468    0.1400
94     H94     8.1589   -4.5189   -5.1991 H        1 ZINC000008214468    0.0600
95     H95     9.6066   -3.5121   -5.4412 H        1 ZINC000008214468    0.0600
96     H96     9.6942   -5.2720   -5.6930 H        1 ZINC000008214468    0.1000
97     H97    11.8354   -3.8143   -0.3588 H        1 ZINC000008214468    0.0500
98     H98    12.1241   -5.5451   -0.6575 H        1 ZINC000008214468    0.1000
99     H99    11.9672   -4.4196   -2.0275 H        1 ZINC000008214468    0.0500
@<TRIPOS>BOND
1     1     2     1
2     1     56    1
3     1     57    1
4     1     58    1
5     2     3     1
6     3     53    ar
7     3     4     ar
8     4     5     ar
9     4     59    1
10    5     6     1
11    5     49    ar
12    6     7     2
13    6     8     1
14    8     9     2
15    8     10    am
16    10    11    1
17    10    12    1
18    11    60    1
19    11    61    1
20    11    62    1
21    12    13    1
22    12    14    1
23    12    22    1
24    14    15    1
25    14    63    1
26    14    64    1
27    15    21    ar
28    15    16    ar
29    16    17    ar
30    16    65    1
31    17    18    ar
32    17    66    1
33    18    19    1
34    18    20    ar
35    20    21    ar
36    20    67    1
37    21    68    1
38    22    23    2
39    22    24    am
40    24    25    1
41    24    32    1
42    25    26    1
43    25    69    1
44    25    70    1
45    26    31    ar
46    26    27    ar
47    27    28    ar
48    27    71    1
49    28    29    ar
50    28    72    1
51    29    30    ar
52    29    73    1
53    30    31    ar
54    30    74    1
55    31    75    1
56    32    33    1
57    32    41    1
58    32    76    1
59    33    34    1
60    33    77    1
61    33    78    1
62    34    35    1
63    34    79    1
64    34    80    1
65    35    40    ar
66    35    36    ar
67    36    37    ar
68    36    81    1
69    37    38    ar
70    37    82    1
71    38    39    ar
72    39    40    ar
73    39    83    1
74    40    84    1
75    41    42    1
76    41    85    1
77    41    86    1
78    42    43    1
79    42    87    1
80    42    88    1
81    43    48    ar
82    43    44    ar
83    44    45    ar
84    44    89    1
85    45    46    ar
86    45    90    1
87    46    47    ar
88    47    48    ar
89    47    91    1
90    48    92    1
91    49    50    ar
92    49    93    1
93    50    51    1
94    50    53    ar
95    51    52    1
96    52    94    1
97    52    95    1
98    52    96    1
99    53    54    1
100   54    55    1
101   55    97    1
102   55    98    1
103   55    99    1
@<TRIPOS>SUBSTRUCTURE
1   ZINC000008214468 1     RESIDUE    1   A     ZIN   1
