@<TRIPOS>MOLECULE
ZINC000003803518
  28   29    0    0    0
SMALL
USER_CHARGES
NO_NAME
@<TRIPOS>ATOM
    1 O1        0.0021    -0.0041     0.0020 O.co2  1 <0>      -1.1800
    2 P2       -0.0192     1.5624     0.0106 P.3    1 <0>       2.2600
    3 O3        1.4506     2.1047    -0.0005 O.co2  1 <0>      -1.1800
    4 O4       -0.7769     2.0814    -1.2586 O.co2  1 <0>      -1.1700
    5 C5       -0.8725     2.1503     1.5105 C.3    1 <0>      -1.0300
    6 O6       -0.8918     3.5792     1.5184 O.3    1 <0>      -0.5100
    7 C7       -2.3078     1.6208     1.5214 C.3    1 <0>      -0.0200
    8 C8       -3.0367     2.1200     0.3005 C.2    1 <0>      -0.0200
    9 C9       -3.0317     1.5511    -0.9250 C.2    1 <0>       0.1500
   10 N10      -3.7943     2.2850    -1.7389 N.2    1 <0>      -0.5000
   11 C11      -4.2888     3.3124    -1.0629 C.2    1 <0>       0.1500
   12 C12      -5.1374     4.3739    -1.4360 C.2    1 <0>      -0.0800
   13 C13      -5.4861     5.3058    -0.5085 C.2    1 <0>      -0.1600
   14 C14      -4.9973     5.1980     0.8040 C.2    1 <0>      -0.2000
   15 C15      -4.1851     4.1761     1.1463 C.2    1 <0>       0.0900
   16 N16      -3.8322     3.2309     0.2271 N.pl3  1 <0>      -0.3500
   17 P17       0.0093     1.5464     2.9874 P.3    1 <0>       2.2300
   18 O18       0.1422    -0.0129     2.9150 O.co2  1 <0>      -1.1700
   19 O19       1.4364     2.1902     3.0432 O.co2  1 <0>      -1.1800
   20 O20      -0.7932     1.9430     4.2732 O.co2  1 <0>      -1.2200
   21 H21      -1.3315     3.9623     2.2897 H      1 <0>       0.2900
   22 H22      -2.2931     0.5309     1.5154 H      1 <0>       0.0800
   23 H23      -2.8180     1.9723     2.4182 H      1 <0>       0.0300
   24 H24      -2.4996     0.6525    -1.2003 H      1 <0>       0.1800
   25 H25      -5.5069     4.4469    -2.4482 H      1 <0>       0.1200
   26 H26      -6.1354     6.1250    -0.7801 H      1 <0>       0.1100
   27 H27      -5.2725     5.9365     1.5424 H      1 <0>       0.1200
   28 H28      -3.8147     4.1029     2.1581 H      1 <0>       0.1400
@<TRIPOS>BOND
   1    1    2 ar
   2    2    3 ar
   3    2    4 ar
   4    2    5 1
   5    5    6 1
   6    5    7 1
   7    5   17 1
   8    6   21 1
   9    7    8 1
  10    7   22 1
  11    7   23 1
  12    8   16 1
  13    8    9 2
  14    9   10 1
  15    9   24 1
  16   10   11 2
  17   11   16 1
  18   11   12 1
  19   12   13 2
  20   12   25 1
  21   13   14 1
  22   13   26 1
  23   14   15 2
  24   14   27 1
  25   15   16 1
  26   15   28 1
  27   17   18 ar
  28   17   19 ar
  29   17   20 ar
