@<TRIPOS>MOLECULE
ZINC000059270596
30    30    1     0     0
SMALL
USER_CHARGES
@<TRIPOS>ATOM
1      F1     -1.3642    2.2207    3.5524 F        1 ZINC000059270596   -0.1400
2      C2     -0.6545    1.3643    2.7039 C.3      1 ZINC000059270596    0.4700
3      F3      0.6837    1.3109    3.1082 F        1 ZINC000059270596   -0.1300
4      F4     -1.2111    0.0822    2.7634 F        1 ZINC000059270596   -0.1200
5      C5     -0.7330    1.8882    1.2685 C.3      1 ZINC000059270596   -0.2800
6      C6     -0.1817    3.3144    1.2153 C.3      1 ZINC000059270596    0.4800
7      F7      1.2095    3.2822    1.3585 F        1 ZINC000059270596   -0.1300
8      F8     -0.5107    3.8960   -0.0138 F        1 ZINC000059270596   -0.1300
9      F9     -0.7400    4.0692    2.2526 F        1 ZINC000059270596   -0.1300
10     C10     0.0950    0.9868    0.3505 C.3      1 ZINC000059270596    0.4800
11     F11    -0.1314   -0.3528    0.6844 F        1 ZINC000059270596   -0.1400
12     F12    -0.2796    1.2056   -0.9795 F        1 ZINC000059270596   -0.1300
13     F13     1.4532    1.2833    0.5073 F        1 ZINC000059270596   -0.1300
14     C14    -2.1909    1.8873    0.8043 C.3      1 ZINC000059270596    0.0600
15     F15    -2.3468    2.7995   -0.2448 F        1 ZINC000059270596   -0.0900
16     C16    -2.5719    0.4860    0.3226 C.3      1 ZINC000059270596    0.2300
17     F17    -1.7432    0.1177   -0.7426 F        1 ZINC000059270596   -0.1100
18     F18    -2.4160   -0.4262    1.3718 F        1 ZINC000059270596   -0.1000
19     C19    -4.0298    0.4851   -0.1415 C.3      1 ZINC000059270596    0.2400
20     F20    -4.1857    1.3973   -1.1907 F        1 ZINC000059270596   -0.1200
21     F21    -4.3782   -0.7962   -0.5820 F        1 ZINC000059270596   -0.1100
22     C22    -4.9362    0.8879    1.0234 C.3      1 ZINC000059270596    0.2400
23     F23    -6.2693    0.8871    0.5990 F        1 ZINC000059270596   -0.1200
24     F24    -4.7803   -0.0243    2.0726 F        1 ZINC000059270596   -0.1200
25     C25    -4.5552    2.2893    1.5051 C.3      1 ZINC000059270596    0.2400
26     F26    -4.7111    3.2015    0.4560 F        1 ZINC000059270596   -0.1200
27     F27    -5.3840    2.6576    2.5704 F        1 ZINC000059270596   -0.1100
28     C28    -3.0973    2.2901    1.9693 C.3      1 ZINC000059270596    0.2400
29     F29    -2.9414    1.3779    3.0185 F        1 ZINC000059270596   -0.1200
30     F30    -2.7489    3.5715    2.4098 F        1 ZINC000059270596   -0.1100
@<TRIPOS>BOND
1     1     2     1
2     2     3     1
3     2     4     1
4     2     5     1
5     5     6     1
6     5     10    1
7     5     14    1
8     6     7     1
9     6     8     1
10    6     9     1
11    10    11    1
12    10    12    1
13    10    13    1
14    14    28    1
15    14    15    1
16    14    16    1
17    16    17    1
18    16    18    1
19    16    19    1
20    19    20    1
21    19    21    1
22    19    22    1
23    22    23    1
24    22    24    1
25    22    25    1
26    25    26    1
27    25    27    1
28    25    28    1
29    28    29    1
30    28    30    1
@<TRIPOS>SUBSTRUCTURE
1   ZINC000059270596 1     RESIDUE    1   A     ZIN   1
