@<TRIPOS>MOLECULE
ZINC000000642576
  41   43    0    0    0
SMALL
USER_CHARGES
NO_NAME
@<TRIPOS>ATOM
    1 C1        1.5420    -4.8160     3.9992 C.3    1 <0>      -0.1500
    2 C2        0.4648    -3.9400     3.3564 C.3    1 <0>       0.0600
    3 O3       -0.1207    -4.6423     2.2284 O.3    1 <0>      -0.3500
    4 C4       -1.0891    -4.0063     1.5506 C.2    1 <0>       0.4700
    5 O5       -1.4360    -2.8993     1.8885 O.2    1 <0>      -0.4800
    6 C6       -1.7436    -4.6728     0.3680 C.3    1 <0>       0.0900
    7 H7       -2.1367    -5.6436     0.6698 H      1 <0>       0.1200
    8 C8       -0.7116    -4.8641    -0.7452 C.3    1 <0>      -0.1800
    9 O9       -2.8127    -3.8534    -0.1091 O.3    1 <0>      -0.2800
   10 C10      -3.7949    -4.4711    -0.8179 C.ar   1 <0>       0.1500
   11 C11      -4.8166    -3.7232    -1.3843 C.ar   1 <0>      -0.1300
   12 C12      -5.8144    -4.3506    -2.1042 C.ar   1 <0>      -0.0500
   13 C13      -5.7946    -5.7288    -2.2612 C.ar   1 <0>       0.0400
   14 O14      -6.7767    -6.3465    -2.9703 O.3    1 <0>      -0.2000
   15 C15      -6.7436    -6.2487    -4.3183 C.2    1 <0>       0.4300
   16 N16      -5.8868    -5.5320    -4.9954 N.2    1 <0>      -0.5000
   17 C17      -6.1525    -5.6727    -6.3235 C.ar   1 <0>       0.0500
   18 C18      -5.5754    -5.1522    -7.4821 C.ar   1 <0>      -0.0500
   19 C19      -6.0884    -5.4940    -8.7144 C.ar   1 <0>      -0.1000
   20 C20      -7.1744    -6.3519    -8.8088 C.ar   1 <0>      -0.0200
   21 Cl21     -7.8081    -6.7721   -10.3694 Cl     1 <0>      -0.0400
   22 C22      -7.7546    -6.8745    -7.6692 C.ar   1 <0>      -0.0700
   23 C23      -7.2509    -6.5402    -6.4229 C.ar   1 <0>       0.0100
   24 O24      -7.5839    -6.8795    -5.1565 O.3    1 <0>      -0.1900
   25 C25      -4.7726    -6.4767    -1.6951 C.ar   1 <0>      -0.0500
   26 C26      -3.7722    -5.8486    -0.9793 C.ar   1 <0>      -0.2000
   27 H27       1.9815    -4.2888     4.8459 H      1 <0>       0.0800
   28 H28       1.0943    -5.7480     4.3442 H      1 <0>       0.0700
   29 H29       2.3176    -5.0353     3.2654 H      1 <0>       0.0700
   30 H30      -0.3108    -3.7207     4.0902 H      1 <0>       0.0700
   31 H31       0.9125    -3.0080     3.0114 H      1 <0>       0.0700
   32 H32      -0.3185    -3.8933    -1.0470 H      1 <0>       0.0800
   33 H33       0.1038    -5.4892    -0.3812 H      1 <0>       0.0900
   34 H34      -1.1850    -5.3462    -1.6005 H      1 <0>       0.0800
   35 H35      -4.8321    -2.6502    -1.2620 H      1 <0>       0.1500
   36 H36      -6.6103    -3.7684    -2.5446 H      1 <0>       0.1400
   37 H37      -4.7300    -4.4837    -7.4134 H      1 <0>       0.1500
   38 H38      -5.6427    -5.0914    -9.6119 H      1 <0>       0.1500
   39 H39      -8.5999    -7.5419    -7.7499 H      1 <0>       0.1500
   40 H40      -4.7573    -7.5496    -1.8170 H      1 <0>       0.1400
   41 H41      -2.9765    -6.4308    -0.5386 H      1 <0>       0.1400
@<TRIPOS>BOND
   1    1    2 1
   2    1   27 1
   3    1   28 1
   4    1   29 1
   5    2    3 1
   6    2   30 1
   7    2   31 1
   8    3    4 1
   9    4    5 2
  10    4    6 1
  11    6    7 1
  12    6    8 1
  13    6    9 1
  14    8   32 1
  15    8   33 1
  16    8   34 1
  17    9   10 1
  18   10   26 ar
  19   10   11 ar
  20   11   12 ar
  21   11   35 1
  22   12   13 ar
  23   12   36 1
  24   13   14 1
  25   13   25 ar
  26   14   15 1
  27   15   24 1
  28   15   16 2
  29   16   17 1
  30   17   23 ar
  31   17   18 ar
  32   18   19 ar
  33   18   37 1
  34   19   20 ar
  35   19   38 1
  36   20   21 1
  37   20   22 ar
  38   22   23 ar
  39   22   39 1
  40   23   24 1
  41   25   26 ar
  42   25   40 1
  43   26   41 1
