@<TRIPOS>MOLECULE
ZINC000001534779
46    47    1     0     0
SMALL
USER_CHARGES
@<TRIPOS>ATOM
1      C1     -0.0173    1.4248    0.0099 C.3      1 ZINC000001534779    0.0200
2      O2      0.0021   -0.0041    0.0020 O.3      1 ZINC000001534779   -0.2800
3      C3     -1.1982   -0.6364    0.0101 C.ar     1 ZINC000001534779    0.2500
4      C4     -2.3707    0.0979    0.0194 C.ar     1 ZINC000001534779   -0.3000
5      C5     -3.5971   -0.5552    0.0272 C.ar     1 ZINC000001534779    0.3100
6      N6     -4.7756    0.1835    0.0361 N.pl3    1 ZINC000001534779   -0.8500
7      C7     -3.6506   -1.9487    0.0256 C.ar     1 ZINC000001534779   -0.1700
8      Cl8    -5.1886   -2.7538    0.0347 Cl       1 ZINC000001534779   -0.0600
9      C9     -2.4995   -2.6832    0.0164 C.ar     1 ZINC000001534779    0.0300
10     C10    -1.2567   -2.0396    0.0031 C.ar     1 ZINC000001534779   -0.2200
11     C11    -0.0165   -2.8299   -0.0073 C.2      1 ZINC000001534779    0.5200
12     O12     1.0617   -2.2688   -0.0188 O.2      1 ZINC000001534779   -0.4900
13     O13    -0.0754   -4.1766   -0.0041 O.3      1 ZINC000001534779   -0.3600
14     C14     1.1882   -4.8918   -0.0149 C.3      1 ZINC000001534779    0.0700
15     C15     0.9217   -6.3984   -0.0094 C.3      1 ZINC000001534779   -0.1500
16     C16     2.2532   -7.1519   -0.0208 C.3      1 ZINC000001534779   -0.0100
17     N17     1.9972   -8.5984   -0.0155 N.4      1 ZINC000001534779   -0.3800
18     H18     1.4089   -8.8320    0.7702 H        1 ZINC000001534779    0.4200
19     C19     3.2711   -9.3188    0.0978 C.3      1 ZINC000001534779   -0.0100
20     C20     3.0048  -10.8231    0.1854 C.3      1 ZINC000001534779   -0.1500
21     C21     2.2688  -11.2800   -1.0774 C.3      1 ZINC000001534779   -0.1400
22     C22     0.9778  -10.4696   -1.2254 C.3      1 ZINC000001534779   -0.1500
23     C23     1.3208   -8.9787   -1.2614 C.3      1 ZINC000001534779   -0.0100
24     H24     1.0053    1.8021    0.0021 H        1 ZINC000001534779    0.1100
25     H25    -0.5445    1.7859   -0.8732 H        1 ZINC000001534779    0.0600
26     H26    -0.5275    1.7763    0.9067 H        1 ZINC000001534779    0.0600
27     H27    -2.3329    1.1772    0.0211 H        1 ZINC000001534779    0.1500
28     H28    -4.7403    1.1528    0.0369 H        1 ZINC000001534779    0.4100
29     H29    -5.6326   -0.2707    0.0415 H        1 ZINC000001534779    0.4100
30     H30    -2.5482   -3.7621    0.0152 H        1 ZINC000001534779    0.1500
31     H31     1.7489   -4.6253   -0.9109 H        1 ZINC000001534779    0.0800
32     H32     1.7660   -4.6218    0.8690 H        1 ZINC000001534779    0.0800
33     H33     0.3610   -6.6649    0.8865 H        1 ZINC000001534779    0.1000
34     H34     0.3438   -6.6683   -0.8933 H        1 ZINC000001534779    0.1000
35     H35     2.8138   -6.8854   -0.9168 H        1 ZINC000001534779    0.1300
36     H36     2.8310   -6.8819    0.8631 H        1 ZINC000001534779    0.1400
37     H37     3.8856   -9.1094   -0.7778 H        1 ZINC000001534779    0.1300
38     H38     3.7952   -8.9902    0.9953 H        1 ZINC000001534779    0.1300
39     H39     3.9519  -11.3562    0.2677 H        1 ZINC000001534779    0.1100
40     H40     2.3905  -11.0336    1.0609 H        1 ZINC000001534779    0.0900
41     H41     2.9035  -11.1166   -1.9484 H        1 ZINC000001534779    0.0800
42     H42     2.0266  -12.3395   -0.9950 H        1 ZINC000001534779    0.0900
43     H43     0.4761  -10.7501   -2.1515 H        1 ZINC000001534779    0.1100
44     H44     0.3215  -10.6728   -0.3792 H        1 ZINC000001534779    0.0900
45     H45     0.4045   -8.3979   -1.3669 H        1 ZINC000001534779    0.1300
46     H46     1.9769   -8.7777   -2.1084 H        1 ZINC000001534779    0.1300
@<TRIPOS>BOND
1     1     2     1
2     1     24    1
3     1     25    1
4     1     26    1
5     2     3     1
6     3     10    ar
7     3     4     ar
8     4     5     ar
9     4     27    1
10    5     6     1
11    5     7     ar
12    6     28    1
13    6     29    1
14    7     8     1
15    7     9     ar
16    9     10    ar
17    9     30    1
18    10    11    1
19    11    12    2
20    11    13    1
21    13    14    1
22    14    15    1
23    14    31    1
24    14    32    1
25    15    16    1
26    15    33    1
27    15    34    1
28    16    17    1
29    16    35    1
30    16    36    1
31    17    18    1
32    17    23    1
33    17    19    1
34    19    20    1
35    19    37    1
36    19    38    1
37    20    21    1
38    20    39    1
39    20    40    1
40    21    22    1
41    21    41    1
42    21    42    1
43    22    23    1
44    22    43    1
45    22    44    1
46    23    45    1
47    23    46    1
@<TRIPOS>SUBSTRUCTURE
1   ZINC000001534779 1     RESIDUE    1   A     ZIN   1
