@<TRIPOS>MOLECULE
ZINC000027520427
75    77    1     0     0
SMALL
USER_CHARGES
@<TRIPOS>ATOM
1      C1     -0.3313    2.2945   -0.9010 C.3      1 ZINC000027520427    0.0200
2      O2     -0.4873    0.8741   -0.8940 O.3      1 ZINC000027520427   -0.3100
3      C3      0.1726    0.1762   -1.8554 C.ar     1 ZINC000027520427    0.1800
4      C4      0.9588    0.8443   -2.7829 C.ar     1 ZINC000027520427   -0.2300
5      C5      1.6290    0.1326   -3.7589 C.ar     1 ZINC000027520427    0.0200
6      C6      1.5164   -1.2445   -3.8122 C.ar     1 ZINC000027520427   -0.7200
7      S7      2.3720   -2.1493   -5.0587 S.o2     1 ZINC000027520427    2.6900
8      O8      1.6695   -3.3741   -5.2191 O.2      1 ZINC000027520427   -0.9400
9      O9      2.6037   -1.2407   -6.1264 O.2      1 ZINC000027520427   -0.9600
10     N10     3.8601   -2.5404   -4.4463 N.am     1 ZINC000027520427   -0.9800
11     C11     4.0441   -3.7964   -3.7148 C.3      1 ZINC000027520427    0.1300
12     C12     4.5599   -4.8730   -4.6717 C.3      1 ZINC000027520427   -0.1200
13     C13     4.8703   -6.1481   -3.8852 C.3      1 ZINC000027520427   -0.1500
14     C14     3.4926   -5.1716   -5.7265 C.3      1 ZINC000027520427   -0.1400
15     C15     4.9925   -1.6305   -4.6359 C.3      1 ZINC000027520427    0.0800
16     C16     5.1306   -0.7258   -3.4099 C.3      1 ZINC000027520427    0.0800
17     H17     4.1862   -0.2125   -3.2289 H        1 ZINC000027520427    0.1100
18     O18     5.4687   -1.5175   -2.2693 O.3      1 ZINC000027520427   -0.5500
19     C19     6.2324    0.3062   -3.6591 C.3      1 ZINC000027520427    0.1200
20     H20     6.0190    0.8505   -4.5791 H        1 ZINC000027520427    0.1000
21     C21     7.5795   -0.4074   -3.7894 C.3      1 ZINC000027520427   -0.1000
22     C22     8.6447    0.5935   -4.1563 C.ar     1 ZINC000027520427   -0.0600
23     C23     8.9134    0.8610   -5.4856 C.ar     1 ZINC000027520427   -0.1100
24     C24     9.8905    1.7791   -5.8221 C.ar     1 ZINC000027520427   -0.1100
25     C25    10.5986    2.4301   -4.8292 C.ar     1 ZINC000027520427   -0.1200
26     C26    10.3293    2.1632   -3.4999 C.ar     1 ZINC000027520427   -0.1100
27     C27     9.3492    1.2483   -3.1634 C.ar     1 ZINC000027520427   -0.1000
28     N28     6.2842    1.2460   -2.5365 N.am     1 ZINC000027520427   -0.7200
29     C29     6.7776    2.4869   -2.7187 C.2      1 ZINC000027520427    0.5600
30     O30     7.1797    2.8262   -3.8145 O.2      1 ZINC000027520427   -0.5100
31     C31     6.8299    3.4355   -1.5857 C.ar     1 ZINC000027520427   -0.0900
32     C32     6.4919    3.0099   -0.3001 C.ar     1 ZINC000027520427   -0.1400
33     C33     6.5409    3.8973    0.7560 C.ar     1 ZINC000027520427   -0.0800
34     C34     6.9241    5.2084    0.5458 C.ar     1 ZINC000027520427   -0.1700
35     C35     7.2628    5.6424   -0.7308 C.ar     1 ZINC000027520427    0.2100
36     N36     7.6492    6.9688   -0.9383 N.pl3    1 ZINC000027520427   -0.8800
37     C37     7.2227    4.7571   -1.7971 C.ar     1 ZINC000027520427   -0.1000
38     C38     7.5897    5.2244   -3.1820 C.3      1 ZINC000027520427   -0.1100
39     C39     0.7338   -1.9127   -2.8888 C.ar     1 ZINC000027520427    0.0200
40     C40     0.0658   -1.2060   -1.9076 C.ar     1 ZINC000027520427   -0.1700
41     H41     0.7219    2.5450   -0.7738 H        1 ZINC000027520427    0.0600
42     H42    -0.6880    2.6946   -1.8501 H        1 ZINC000027520427    0.0600
43     H43    -0.9089    2.7275   -0.0842 H        1 ZINC000027520427    0.1100
44     H44     1.0466    1.9199   -2.7421 H        1 ZINC000027520427    0.1400
45     H45     2.2412    0.6522   -4.4811 H        1 ZINC000027520427    0.1400
46     H46     4.7666   -3.6470   -2.9125 H        1 ZINC000027520427    0.0900
47     H47     3.0910   -4.1131   -3.2912 H        1 ZINC000027520427    0.0800
48     H48     5.4665   -4.5189   -5.1623 H        1 ZINC000027520427    0.0700
49     H49     3.9636   -6.5022   -3.3946 H        1 ZINC000027520427    0.0600
50     H50     5.2378   -6.9151   -4.5669 H        1 ZINC000027520427    0.0600
51     H51     5.6307   -5.9354   -3.1337 H        1 ZINC000027520427    0.0600
52     H52     2.5859   -5.5256   -5.2359 H        1 ZINC000027520427    0.0700
53     H53     3.2714   -4.2632   -6.2869 H        1 ZINC000027520427    0.0400
54     H54     3.8600   -5.9386   -6.4083 H        1 ZINC000027520427    0.0500
55     H55     5.9066   -2.2101   -4.7647 H        1 ZINC000027520427    0.1000
56     H56     4.8224   -1.0186   -5.5218 H        1 ZINC000027520427    0.1100
57     H57     6.2997   -2.0036   -2.3603 H        1 ZINC000027520427    0.3800
58     H58     7.8347   -0.8781   -2.8400 H        1 ZINC000027520427    0.0800
59     H59     7.5135   -1.1690   -4.5664 H        1 ZINC000027520427    0.0900
60     H60     8.3601    0.3525   -6.2613 H        1 ZINC000027520427    0.1100
61     H61    10.1009    1.9876   -6.8607 H        1 ZINC000027520427    0.1200
62     H62    11.3625    3.1468   -5.0921 H        1 ZINC000027520427    0.1100
63     H63    10.8828    2.6715   -2.7242 H        1 ZINC000027520427    0.1100
64     H64     9.1388    1.0398   -2.1248 H        1 ZINC000027520427    0.1100
65     H65     5.9633    0.9752   -1.6621 H        1 ZINC000027520427    0.4000
66     H66     6.1915    1.9863   -0.1316 H        1 ZINC000027520427    0.1200
67     H67     6.2786    3.5661    1.7499 H        1 ZINC000027520427    0.1300
68     H68     6.9603    5.8983    1.3760 H        1 ZINC000027520427    0.1200
69     H69     7.6811    7.5871   -0.1915 H        1 ZINC000027520427    0.4000
70     H70     7.8855    7.2716   -1.8290 H        1 ZINC000027520427    0.4000
71     H71     8.6307    4.9739   -3.3860 H        1 ZINC000027520427    0.0700
72     H72     6.9478    4.7333   -3.9132 H        1 ZINC000027520427    0.1000
73     H73     7.4562    6.3042   -3.2484 H        1 ZINC000027520427    0.0500
74     H74     0.6477   -2.9884   -2.9323 H        1 ZINC000027520427    0.1500
75     H75    -0.5454   -1.7284   -1.1865 H        1 ZINC000027520427    0.1400
@<TRIPOS>BOND
1     1     2     1
2     1     41    1
3     1     42    1
4     1     43    1
5     2     3     1
6     3     40    ar
7     3     4     ar
8     4     5     ar
9     4     44    1
10    5     6     ar
11    5     45    1
12    6     7     1
13    6     39    ar
14    7     8     2
15    7     9     2
16    7     10    am
17    10    11    1
18    10    15    1
19    11    12    1
20    11    46    1
21    11    47    1
22    12    13    1
23    12    14    1
24    12    48    1
25    13    49    1
26    13    50    1
27    13    51    1
28    14    52    1
29    14    53    1
30    14    54    1
31    15    16    1
32    15    55    1
33    15    56    1
34    16    17    1
35    16    18    1
36    16    19    1
37    18    57    1
38    19    20    1
39    19    21    1
40    19    28    1
41    21    22    1
42    21    58    1
43    21    59    1
44    22    27    ar
45    22    23    ar
46    23    24    ar
47    23    60    1
48    24    25    ar
49    24    61    1
50    25    26    ar
51    25    62    1
52    26    27    ar
53    26    63    1
54    27    64    1
55    28    29    am
56    28    65    1
57    29    30    2
58    29    31    1
59    31    37    ar
60    31    32    ar
61    32    33    ar
62    32    66    1
63    33    34    ar
64    33    67    1
65    34    35    ar
66    34    68    1
67    35    36    1
68    35    37    ar
69    36    69    1
70    36    70    1
71    37    38    1
72    38    71    1
73    38    72    1
74    38    73    1
75    39    40    ar
76    39    74    1
77    40    75    1
@<TRIPOS>SUBSTRUCTURE
1   ZINC000027520427 1     RESIDUE    1   A     ZIN   1
