@<TRIPOS>MOLECULE
ZINC000003962535
47    50    1     0     0
SMALL
USER_CHARGES
@<TRIPOS>ATOM
1      O1      0.0019   -0.0040    0.0124 O.2      1 ZINC000003962535   -0.5400
2      C2     -0.0145    1.2141    0.0105 C.2      1 ZINC000003962535    0.6100
3      N3      1.1435    1.9036    0.0014 N.am     1 ZINC000003962535   -0.6700
4      C4      2.3642    1.2234    0.0918 C.ar     1 ZINC000003962535    0.1300
5      C5      3.4252    1.7896    0.7861 C.ar     1 ZINC000003962535   -0.1100
6      C6      4.6286    1.1183    0.8747 C.ar     1 ZINC000003962535   -0.1000
7      C7      4.7780   -0.1212    0.2700 C.ar     1 ZINC000003962535    0.0900
8      O8      5.9634   -0.7817    0.3578 O.3      1 ZINC000003962535   -0.3100
9      C9      6.0468   -2.0534   -0.2885 C.3      1 ZINC000003962535    0.6000
10     F10     5.8037   -1.8977   -1.6574 F        1 ZINC000003962535   -0.1600
11     F11     7.3253   -2.5894   -0.1000 F        1 ZINC000003962535   -0.1300
12     F12     5.0932   -2.9183    0.2590 F        1 ZINC000003962535   -0.1600
13     C13     3.7186   -0.6875   -0.4237 C.ar     1 ZINC000003962535   -0.1700
14     C14     2.5126   -0.0202   -0.5080 C.ar     1 ZINC000003962535   -0.0800
15     C15    -1.2493    1.9049    0.0121 C.2      1 ZINC000003962535   -0.4000
16     C16    -2.4927    1.3174    0.0212 C.2      1 ZINC000003962535    0.2900
17     N17    -2.6919   -0.0606    0.0306 N.pl3    1 ZINC000003962535   -0.7000
18     C18    -4.0524   -0.6040    0.0399 C.3      1 ZINC000003962535    0.1600
19     C19    -3.9918   -2.1097    0.0489 C.ar     1 ZINC000003962535   -0.0500
20     C20    -3.7539   -2.8168    1.2422 C.ar     1 ZINC000003962535   -0.0900
21     C21    -3.5651   -2.1487    2.4629 C.ar     1 ZINC000003962535   -0.1000
22     C22    -3.3377   -2.8687    3.5957 C.ar     1 ZINC000003962535   -0.1100
23     C23    -3.2897   -4.2611    3.5605 C.ar     1 ZINC000003962535   -0.1000
24     C24    -3.4684   -4.9407    2.3953 C.ar     1 ZINC000003962535   -0.0900
25     C25    -3.7056   -4.2326    1.2040 C.ar     1 ZINC000003962535    0.1200
26     N26    -3.8858   -4.8731    0.0448 N.ar     1 ZINC000003962535   -0.4600
27     C27    -4.1081   -4.2176   -1.0687 C.ar     1 ZINC000003962535    0.1300
28     C28    -4.1720   -2.8265   -1.1000 C.ar     1 ZINC000003962535   -0.1500
29     C29    -3.5239    2.2377    0.0205 C.2      1 ZINC000003962535   -0.2000
30     C30    -3.1412    3.5169    0.0113 C.2      1 ZINC000003962535   -0.1700
31     S31    -1.4409    3.6526    0.0104 S.3      1 ZINC000003962535    0.1900
32     H32     1.1313    2.8711   -0.0679 H        1 ZINC000003962535    0.4100
33     H33     3.3093    2.7549    1.2563 H        1 ZINC000003962535    0.1400
34     H34     5.4539    1.5585    1.4147 H        1 ZINC000003962535    0.1400
35     H35     3.8358   -1.6524   -0.8946 H        1 ZINC000003962535    0.1400
36     H36     1.6879   -0.4611   -1.0482 H        1 ZINC000003962535    0.1500
37     H37    -1.9299   -0.6608    0.0309 H        1 ZINC000003962535    0.4200
38     H38    -4.5765   -0.2561    0.9300 H        1 ZINC000003962535    0.0800
39     H39    -4.5843   -0.2670   -0.8499 H        1 ZINC000003962535    0.0800
40     H40    -3.5997   -1.0700    2.5028 H        1 ZINC000003962535    0.1300
41     H41    -3.1923   -2.3541    4.5340 H        1 ZINC000003962535    0.1300
42     H42    -3.1074   -4.8095    4.4728 H        1 ZINC000003962535    0.1300
43     H43    -3.4281   -6.0199    2.3856 H        1 ZINC000003962535    0.1400
44     H44    -4.2484   -4.7710   -1.9854 H        1 ZINC000003962535    0.1600
45     H45    -4.3568   -2.3148   -2.0330 H        1 ZINC000003962535    0.1400
46     H46    -4.5631    1.9437    0.0266 H        1 ZINC000003962535    0.1500
47     H47    -3.8201    4.3568    0.0091 H        1 ZINC000003962535    0.1700
@<TRIPOS>BOND
1     1     2     2
2     2     3     am
3     2     15    1
4     3     4     1
5     3     32    1
6     4     14    ar
7     4     5     ar
8     5     6     ar
9     5     33    1
10    6     7     ar
11    6     34    1
12    7     8     1
13    7     13    ar
14    8     9     1
15    9     10    1
16    9     11    1
17    9     12    1
18    13    14    ar
19    13    35    1
20    14    36    1
21    15    31    1
22    15    16    2
23    16    17    1
24    16    29    1
25    17    18    1
26    17    37    1
27    18    19    1
28    18    38    1
29    18    39    1
30    19    28    ar
31    19    20    ar
32    20    25    ar
33    20    21    ar
34    21    22    ar
35    21    40    1
36    22    23    ar
37    22    41    1
38    23    24    ar
39    23    42    1
40    24    25    ar
41    24    43    1
42    25    26    ar
43    26    27    ar
44    27    28    ar
45    27    44    1
46    28    45    1
47    29    30    2
48    29    46    1
49    30    31    1
50    30    47    1
@<TRIPOS>SUBSTRUCTURE
1   ZINC000003962535 1     RESIDUE    1   A     ZIN   1
