@<TRIPOS>MOLECULE
ZINC000001649503
  43   46    0    0    0
SMALL
USER_CHARGES
NO_NAME
@<TRIPOS>ATOM
    1 N1       -0.0140     1.3434     0.0267 N.am   1 <0>      -0.8800
    2 C2        0.0021    -0.0041     0.0020 C.2    1 <0>       0.5900
    3 O3        1.0569    -0.5976    -0.1187 O.2    1 <0>      -0.5600
    4 C4       -1.2566    -0.7572     0.1211 C.2    1 <0>      -0.5100
    5 C5       -1.2281    -2.1262     0.2225 C.2    1 <0>       0.3500
    6 O6       -0.0421    -2.7518     0.1935 O.3    1 <0>      -0.6000
    7 C7       -2.4755    -2.9476     0.3650 C.3    1 <0>      -0.1200
    8 C8       -3.6996    -2.1954    -0.1424 C.3    1 <0>      -0.0600
    9 H9       -4.5966    -2.7646     0.1014 H      1 <0>       0.0800
   10 C10      -3.6215    -2.0047    -1.6562 C.3    1 <0>      -0.1200
   11 C11      -4.9162    -1.3676    -2.1587 C.3    1 <0>      -0.0700
   12 H12      -5.7630    -1.9874    -1.8639 H      1 <0>       0.0800
   13 C13      -4.8905    -1.2343    -3.6783 C.3    1 <0>      -0.0800
   14 C14      -6.1102    -0.5027    -4.1720 C.ar   1 <0>      -0.0100
   15 C15      -6.5102    -0.6758    -5.4822 C.ar   1 <0>      -0.1400
   16 C16      -7.6260    -0.0162    -5.9697 C.ar   1 <0>      -0.0700
   17 C17      -8.3571     0.8251    -5.1553 C.ar   1 <0>      -0.1700
   18 C18      -7.9746     1.0134    -3.8351 C.ar   1 <0>       0.1700
   19 O19      -8.6884     1.8377    -3.0291 O.3    1 <0>      -0.4800
   20 C20      -6.8451     0.3453    -3.3388 C.ar   1 <0>      -0.1900
   21 C21      -6.4387     0.5414    -1.9362 C.2    1 <0>       0.4000
   22 O22      -7.1678     1.0894    -1.1366 O.2    1 <0>      -0.4100
   23 C23      -5.0681     0.0314    -1.5415 C.3    1 <0>      -0.1800
   24 C24      -4.9892    -0.1051    -0.0393 C.2    1 <0>       0.3600
   25 O25      -5.8505     0.3472     0.6761 O.2    1 <0>      -0.4200
   26 C26      -3.7805    -0.8151     0.5258 C.3    1 <0>       0.0600
   27 O27      -3.8963    -0.9762     1.9409 O.3    1 <0>      -0.5200
   28 C28      -2.5354    -0.0440     0.1371 C.2    1 <0>       0.3900
   29 O29      -2.5958     1.1328    -0.1543 O.2    1 <0>      -0.5300
   30 H30       0.8201     1.8386     0.0195 H      1 <0>       0.3800
   31 H31      -0.8596     1.8180     0.0478 H      1 <0>       0.4000
   32 H32      -2.3621    -3.8695    -0.2054 H      1 <0>       0.0800
   33 H33      -2.6204    -3.1960     1.4164 H      1 <0>       0.0900
   34 H34      -2.7799    -1.3554    -1.8974 H      1 <0>       0.0900
   35 H35      -3.4826    -2.9727    -2.1374 H      1 <0>       0.0900
   36 H36      -3.9976    -0.6838    -3.9749 H      1 <0>       0.1000
   37 H37      -4.8630    -2.2281    -4.1251 H      1 <0>       0.0900
   38 H38      -5.9484    -1.3304    -6.1320 H      1 <0>       0.1300
   39 H39      -7.9268    -0.1611    -6.9968 H      1 <0>       0.1300
   40 H40      -9.2251     1.3360    -5.5452 H      1 <0>       0.1300
   41 H41      -9.4043     1.3974    -2.5509 H      1 <0>       0.4000
   42 H42      -4.2939     0.7018    -1.9147 H      1 <0>       0.1500
   43 H43      -3.9736    -0.1436     2.4266 H      1 <0>       0.3800
@<TRIPOS>BOND
   1    1    2 am
   2    1   30 1
   3    1   31 1
   4    2    3 2
   5    2    4 1
   6    4   28 1
   7    4    5 2
   8    5    6 1
   9    5    7 1
  10    7    8 1
  11    7   32 1
  12    7   33 1
  13    8    9 1
  14    8   26 1
  15    8   10 1
  16   10   11 1
  17   10   34 1
  18   10   35 1
  19   11   12 1
  20   11   23 1
  21   11   13 1
  22   13   14 1
  23   13   36 1
  24   13   37 1
  25   14   20 ar
  26   14   15 ar
  27   15   16 ar
  28   15   38 1
  29   16   17 ar
  30   16   39 1
  31   17   18 ar
  32   17   40 1
  33   18   19 1
  34   18   20 ar
  35   19   41 1
  36   20   21 1
  37   21   22 2
  38   21   23 1
  39   23   24 1
  40   23   42 1
  41   24   25 2
  42   24   26 1
  43   26   27 1
  44   26   28 1
  45   27   43 1
  46   28   29 2
