@<TRIPOS>MOLECULE
ZINC000003986713
48    51    1     0     0
SMALL
USER_CHARGES
@<TRIPOS>ATOM
1      C1     -1.6488    1.5990   -0.7769 C.3      1 ZINC000003986713   -0.1900
2      C2     -1.5166    0.0748   -0.7886 C.3      1 ZINC000003986713    0.1200
3      H3     -1.3117   -0.2799    0.2215 H        1 ZINC000003986713    0.0600
4      O4     -2.7349   -0.5054   -1.2591 O.3      1 ZINC000003986713   -0.5600
5      C5     -0.3678   -0.3304   -1.7143 C.3      1 ZINC000003986713   -0.1600
6      H6     -0.4303    0.1362   -2.6974 H        1 ZINC000003986713    0.1400
7      C7      0.9998   -0.2177   -1.0726 C.2      1 ZINC000003986713    0.5200
8      O8      1.6496    0.7042   -0.6259 O.2      1 ZINC000003986713   -0.4100
9      N9      1.2138   -1.5578   -1.1939 N.am     1 ZINC000003986713   -0.4800
10     C10     2.1956   -1.9948   -2.0976 C.2      1 ZINC000003986713    0.2000
11     C11     3.5804   -1.9420   -1.8313 C.2      1 ZINC000003986713    0.4400
12     O12     4.4459   -2.4715   -2.6955 O.co2    1 ZINC000003986713   -0.6500
13     O13     4.0228   -1.3625   -0.7156 O.co2    1 ZINC000003986713   -0.6500
14     C14     1.6745   -2.4712   -3.2474 C.2      1 ZINC000003986713   -0.2900
15     S15     2.5992   -3.0842   -4.6163 S.3      1 ZINC000003986713    0.2900
16     C16     2.1031   -4.7746   -4.5883 C.2      1 ZINC000003986713    0.0500
17     N17     2.4243   -5.6637   -5.4761 N.2      1 ZINC000003986713   -0.4800
18     C18     1.9559   -6.8969   -5.2908 C.2      1 ZINC000003986713    0.1000
19     C19     2.2468   -8.0027   -6.2259 C.2      1 ZINC000003986713   -0.0300
20     C20     1.8085   -9.2491   -6.1029 C.2      1 ZINC000003986713   -0.1700
21     C21     2.3241  -10.0731   -7.2603 C.3      1 ZINC000003986713    0.0700
22     H22     1.5385  -10.2137   -8.0028 H        1 ZINC000003986713    0.1500
23     C23     2.8295  -11.4284   -6.7619 C.3      1 ZINC000003986713   -0.1800
24     N24     3.4405   -9.2878   -7.8372 N.4      1 ZINC000003986713   -0.5200
25     H25     4.3185   -9.5552   -7.4180 H        1 ZINC000003986713    0.4300
26     H26     3.4752   -9.4005   -8.8393 H        1 ZINC000003986713    0.4400
27     C27     3.0857   -7.8929   -7.4783 C.3      1 ZINC000003986713    0.0400
28     C28     1.1982   -7.0635   -4.1890 C.2      1 ZINC000003986713   -0.2500
29     S29     1.1010   -5.5191   -3.3466 S.3      1 ZINC000003986713    0.1400
30     C30     0.1673   -2.3934   -3.1679 C.3      1 ZINC000003986713   -0.0500
31     H31    -0.2711   -3.3844   -3.2850 H        1 ZINC000003986713    0.0900
32     C32    -0.3748   -1.4418   -4.2362 C.3      1 ZINC000003986713   -0.1500
33     C33    -0.1211   -1.8439   -1.7647 C.3      1 ZINC000003986713    0.0800
34     H34    -0.7826   -2.4631   -1.1588 H        1 ZINC000003986713    0.1400
35     H35    -0.7196    2.0416   -0.4180 H        1 ZINC000003986713    0.0700
36     H36    -1.8538    1.9537   -1.7870 H        1 ZINC000003986713    0.0700
37     H37    -2.4672    1.8877   -0.1174 H        1 ZINC000003986713    0.0600
38     H38    -3.5074   -0.2901   -0.7189 H        1 ZINC000003986713    0.3800
39     H39     1.1832   -9.6166   -5.3026 H        1 ZINC000003986713    0.1700
40     H40     2.0072  -11.9758   -6.3011 H        1 ZINC000003986713    0.1100
41     H41     3.2216  -12.0014   -7.6022 H        1 ZINC000003986713    0.0800
42     H42     3.6198  -11.2737   -6.0273 H        1 ZINC000003986713    0.0800
43     H43     2.5138   -7.4301   -8.2826 H        1 ZINC000003986713    0.1500
44     H44     3.9870   -7.3149   -7.2743 H        1 ZINC000003986713    0.1500
45     H45     0.7340   -7.9864   -3.8740 H        1 ZINC000003986713    0.1800
46     H46    -0.2017   -1.8682   -5.2243 H        1 ZINC000003986713    0.0700
47     H47    -1.4446   -1.2974   -4.0851 H        1 ZINC000003986713    0.0700
48     H48     0.1356   -0.4816   -4.1604 H        1 ZINC000003986713    0.0600
@<TRIPOS>BOND
1     1     2     1
2     1     35    1
3     1     36    1
4     1     37    1
5     2     3     1
6     2     4     1
7     2     5     1
8     4     38    1
9     5     6     1
10    5     33    1
11    5     7     1
12    7     8     2
13    7     9     am
14    9     33    1
15    9     10    1
16    10    11    1
17    10    14    2
18    11    12    ar
19    11    13    ar
20    14    15    1
21    14    30    1
22    15    16    1
23    16    29    1
24    16    17    2
25    17    18    1
26    18    19    1
27    18    28    2
28    19    27    1
29    19    20    2
30    20    21    1
31    20    39    1
32    21    22    1
33    21    23    1
34    21    24    1
35    23    40    1
36    23    41    1
37    23    42    1
38    24    25    1
39    24    26    1
40    24    27    1
41    27    43    1
42    27    44    1
43    28    29    1
44    28    45    1
45    30    31    1
46    30    32    1
47    30    33    1
48    32    46    1
49    32    47    1
50    32    48    1
51    33    34    1
@<TRIPOS>SUBSTRUCTURE
1   ZINC000003986713 1     RESIDUE    1   A     ZIN   1
