@<TRIPOS>MOLECULE
ZINC000003988394
66    67    1     0     0
SMALL
USER_CHARGES
@<TRIPOS>ATOM
1      C1      0.9230    2.2352    0.9438 C.3      1 ZINC000003988394   -0.1500
2      C2      0.8168    0.7284    0.7009 C.3      1 ZINC000003988394    0.0600
3      O3      1.3655    0.0146    1.8401 O.3      1 ZINC000003988394   -0.3500
4      C4      1.3480   -1.3264    1.7850 C.2      1 ZINC000003988394    0.4600
5      O5      0.8893   -1.8854    0.8170 O.2      1 ZINC000003988394   -0.4900
6      C6      1.9003   -2.1349    2.9306 C.3      1 ZINC000003988394    0.1100
7      H7      1.3469   -1.9015    3.8402 H        1 ZINC000003988394    0.0900
8      C8      3.3780   -1.7925    3.1307 C.3      1 ZINC000003988394   -0.1500
9      N9      1.7658   -3.5664    2.6294 N.3      1 ZINC000003988394   -1.0500
10     P10     1.4393   -4.4484    4.0251 P.3      1 ZINC000003988394    2.5600
11     O11     2.5453   -4.2688    4.9921 O.2      1 ZINC000003988394   -1.0000
12     N12     0.0016   -3.9035    4.7096 N.3      1 ZINC000003988394   -1.0900
13     C13    -0.2196   -4.5156    6.0266 C.3      1 ZINC000003988394    0.1100
14     H14     0.3259   -5.4574    6.0858 H        1 ZINC000003988394    0.1200
15     C15     0.2788   -3.5679    7.1195 C.3      1 ZINC000003988394   -0.1900
16     C16    -1.6916   -4.7747    6.2193 C.2      1 ZINC000003988394    0.4600
17     O17    -2.4759   -4.4798    5.3488 O.2      1 ZINC000003988394   -0.4800
18     O18    -2.1313   -5.3331    7.3579 O.3      1 ZINC000003988394   -0.3600
19     C19    -3.5618   -5.5535    7.4745 C.3      1 ZINC000003988394    0.0600
20     C20    -3.8705   -6.1929    8.8298 C.3      1 ZINC000003988394   -0.1500
21     C21     1.2816   -6.2063    3.6065 C.2      1 ZINC000003988394   -0.6000
22     C22     0.4245   -7.0751    4.1757 C.2      1 ZINC000003988394   -0.1400
23     C23     0.6331   -8.3257    3.5583 C.2      1 ZINC000003988394   -0.1800
24     C24     1.6168   -8.1483    2.6366 C.2      1 ZINC000003988394    0.0900
25     C25     2.1687   -9.1902    1.7457 C.2      1 ZINC000003988394    0.1600
26     C26     2.5746   -8.9244    0.4899 C.2      1 ZINC000003988394   -0.2000
27     C27     2.5348   -7.5770   -0.1839 C.3      1 ZINC000003988394   -0.0400
28     C28     3.8485   -6.8373    0.0770 C.3      1 ZINC000003988394   -0.0900
29     C29     4.9997   -7.5908   -0.5923 C.3      1 ZINC000003988394   -0.1500
30     C30     3.7608   -5.4231   -0.5001 C.3      1 ZINC000003988394   -0.1500
31     S31     3.1611  -10.4214   -0.2305 S.3      1 ZINC000003988394    0.0900
32     C32     2.7972  -11.2857    1.2597 C.2      1 ZINC000003988394    0.3500
33     N33     3.0091  -12.6382    1.4716 N.pl3    1 ZINC000003988394   -0.8100
34     N34     2.3054  -10.4598    2.1302 N.2      1 ZINC000003988394   -0.5300
35     O35     1.9969   -6.8568    2.6725 O.3      1 ZINC000003988394   -0.1200
36     H36     1.9699    2.5093    1.0745 H        1 ZINC000003988394    0.0700
37     H37     0.5111    2.7710    0.0887 H        1 ZINC000003988394    0.0800
38     H38     0.3637    2.4988    1.8415 H        1 ZINC000003988394    0.0700
39     H39    -0.2300    0.4543    0.5703 H        1 ZINC000003988394    0.0700
40     H40     1.3761    0.4648   -0.1967 H        1 ZINC000003988394    0.0700
41     H41     3.4778   -0.7304    3.3542 H        1 ZINC000003988394    0.0800
42     H42     3.7775   -2.3773    3.9592 H        1 ZINC000003988394    0.1000
43     H43     3.9314   -2.0260    2.2211 H        1 ZINC000003988394    0.0800
44     H44     1.0572   -3.7234    1.9284 H        1 ZINC000003988394    0.3900
45     H45    -0.0102   -2.8965    4.7723 H        1 ZINC000003988394    0.3900
46     H46    -0.2036   -2.5971    7.0064 H        1 ZINC000003988394    0.0700
47     H47     0.0362   -3.9823    8.0981 H        1 ZINC000003988394    0.0900
48     H48     1.3588   -3.4493    7.0328 H        1 ZINC000003988394    0.1100
49     H49    -4.0839   -4.6000    7.3952 H        1 ZINC000003988394    0.0700
50     H50    -3.8935   -6.2169    6.6758 H        1 ZINC000003988394    0.0700
51     H51    -3.5388   -5.5295    9.6285 H        1 ZINC000003988394    0.0700
52     H52    -4.9443   -6.3583    8.9173 H        1 ZINC000003988394    0.0800
53     H53    -3.3483   -7.1464    8.9091 H        1 ZINC000003988394    0.0700
54     H54    -0.2875   -6.8558    4.9575 H        1 ZINC000003988394    0.1500
55     H55     0.1124   -9.2466    3.7759 H        1 ZINC000003988394    0.1600
56     H56     2.4005   -7.7113   -1.2573 H        1 ZINC000003988394    0.0800
57     H57     1.7046   -6.9950    0.2161 H        1 ZINC000003988394    0.0800
58     H58     4.0267   -6.7812    1.1509 H        1 ZINC000003988394    0.0800
59     H59     5.9356   -7.0639   -0.4064 H        1 ZINC000003988394    0.0600
60     H60     5.0621   -8.5984   -0.1812 H        1 ZINC000003988394    0.0500
61     H61     4.8215   -7.6470   -1.6662 H        1 ZINC000003988394    0.0500
62     H62     2.9407   -4.8863   -0.0233 H        1 ZINC000003988394    0.0600
63     H63     4.6967   -4.8961   -0.3142 H        1 ZINC000003988394    0.0600
64     H64     3.5826   -5.4793   -1.5740 H        1 ZINC000003988394    0.0500
65     H65     3.3867  -13.1864    0.7661 H        1 ZINC000003988394    0.4200
66     H66     2.7798  -13.0371    2.3256 H        1 ZINC000003988394    0.4200
@<TRIPOS>BOND
1     1     2     1
2     1     36    1
3     1     37    1
4     1     38    1
5     2     3     1
6     2     39    1
7     2     40    1
8     3     4     1
9     4     5     2
10    4     6     1
11    6     7     1
12    6     8     1
13    6     9     1
14    8     41    1
15    8     42    1
16    8     43    1
17    9     10    1
18    9     44    1
19    10    11    2
20    10    12    1
21    10    21    1
22    12    13    1
23    12    45    1
24    13    14    1
25    13    15    1
26    13    16    1
27    15    46    1
28    15    47    1
29    15    48    1
30    16    17    2
31    16    18    1
32    18    19    1
33    19    20    1
34    19    49    1
35    19    50    1
36    20    51    1
37    20    52    1
38    20    53    1
39    21    35    1
40    21    22    2
41    22    23    1
42    22    54    1
43    23    24    2
44    23    55    1
45    24    25    1
46    24    35    1
47    25    34    1
48    25    26    2
49    26    27    1
50    26    31    1
51    27    28    1
52    27    56    1
53    27    57    1
54    28    29    1
55    28    30    1
56    28    58    1
57    29    59    1
58    29    60    1
59    29    61    1
60    30    62    1
61    30    63    1
62    30    64    1
63    31    32    1
64    32    33    1
65    32    34    2
66    33    65    1
67    33    66    1
@<TRIPOS>SUBSTRUCTURE
1   ZINC000003988394 1     RESIDUE    1   A     ZIN   1
