@<TRIPOS>MOLECULE
ZINC000003861537
29    29    1     0     0
SMALL
USER_CHARGES
@<TRIPOS>ATOM
1      C1     -0.0184    1.5028    0.0103 C.3      1 ZINC000003861537   -0.1200
2      C2      0.0021   -0.0041    0.0020 C.2      1 ZINC000003861537   -0.1300
3      C3      0.0046   -0.6047   -1.1446 C.2      1 ZINC000003861537   -0.1600
4      C4      0.0134   -2.0959   -1.3126 C.3      1 ZINC000003861537   -0.1200
5      C5      0.4423   -2.7708   -0.0079 C.3      1 ZINC000003861537    0.1400
6      O6      1.8306   -2.5258    0.2258 O.3      1 ZINC000003861537   -0.5500
7      C7      0.1950   -4.2777   -0.1028 C.3      1 ZINC000003861537   -0.0800
8      C8      1.0063   -4.8556   -1.2641 C.3      1 ZINC000003861537   -0.1500
9      C9      0.6251   -4.9484    1.2033 C.3      1 ZINC000003861537   -0.1500
10     C10    -0.3860   -2.1791    1.1395 C.3      1 ZINC000003861537   -0.1500
11     C11     0.0243   -0.7148    1.3236 C.3      1 ZINC000003861537   -0.0900
12     H12     1.0042    1.8801    0.0026 H        1 ZINC000003861537    0.0700
13     H13    -0.5455    1.8639   -0.8728 H        1 ZINC000003861537    0.0600
14     H14    -0.5286    1.8543    0.9071 H        1 ZINC000003861537    0.0600
15     H15    -0.0002    0.0053   -2.0358 H        1 ZINC000003861537    0.1100
16     H16    -0.9866   -2.4350   -1.5829 H        1 ZINC000003861537    0.0800
17     H17     0.7109   -2.3661   -2.1054 H        1 ZINC000003861537    0.0800
18     H18     2.0571   -1.5888    0.3031 H        1 ZINC000003861537    0.3700
19     H19    -0.8657   -4.4617   -0.2736 H        1 ZINC000003861537    0.0800
20     H20     2.0670   -4.6716   -1.0933 H        1 ZINC000003861537    0.0600
21     H21     0.8301   -5.9291   -1.3317 H        1 ZINC000003861537    0.0500
22     H22     0.6999   -4.3778   -2.1947 H        1 ZINC000003861537    0.0500
23     H23     1.6858   -4.7644    1.3741 H        1 ZINC000003861537    0.0600
24     H24     0.0471   -4.5367    2.0307 H        1 ZINC000003861537    0.0500
25     H25     0.4489   -6.0219    1.1357 H        1 ZINC000003861537    0.0500
26     H26    -1.4464   -2.2381    0.8943 H        1 ZINC000003861537    0.0700
27     H27    -0.1878   -2.7322    2.0576 H        1 ZINC000003861537    0.0800
28     H28     1.0276   -0.6712    1.7472 H        1 ZINC000003861537    0.0800
29     H29    -0.6742   -0.2265    2.0032 H        1 ZINC000003861537    0.0800
@<TRIPOS>BOND
1     1     2     1
2     1     12    1
3     1     13    1
4     1     14    1
5     2     11    1
6     2     3     2
7     3     4     1
8     3     15    1
9     4     5     1
10    4     16    1
11    4     17    1
12    5     6     1
13    5     7     1
14    5     10    1
15    6     18    1
16    7     8     1
17    7     9     1
18    7     19    1
19    8     20    1
20    8     21    1
21    8     22    1
22    9     23    1
23    9     24    1
24    9     25    1
25    10    11    1
26    10    26    1
27    10    27    1
28    11    28    1
29    11    29    1
@<TRIPOS>SUBSTRUCTURE
1   ZINC000003861537 1     RESIDUE    1   A     ZIN   1
