@<TRIPOS>MOLECULE
ZINC000072319783
64    67    1     0     0
SMALL
USER_CHARGES
@<TRIPOS>ATOM
1      C1      2.9362   -3.6769   -0.2161 C.3      1 ZINC000072319783    0.0400
2      O2      2.3925   -2.5692    0.5046 O.3      1 ZINC000072319783   -0.2600
3      N3      1.0411   -2.7978    1.0164 N.3      1 ZINC000072319783   -0.3600
4      C4      1.0238   -2.7761    2.4852 C.3      1 ZINC000072319783    0.0100
5      C5      0.0963   -1.8179    0.4642 C.3      1 ZINC000072319783    0.0800
6      C6     -1.3051   -2.1793    0.8843 C.ar     1 ZINC000072319783   -0.1000
7      C7     -1.9595   -1.4147    1.8372 C.ar     1 ZINC000072319783   -0.0600
8      C8     -3.2429   -1.7373    2.2338 C.ar     1 ZINC000072319783   -0.1600
9      C9     -3.8898   -2.8292    1.6748 C.ar     1 ZINC000072319783    0.1600
10     O10    -5.1476   -3.1520    2.0677 O.3      1 ZINC000072319783   -0.4800
11     C11    -3.2368   -3.5964    0.7016 C.ar     1 ZINC000072319783   -0.1400
12     C12    -1.9335   -3.2647    0.3162 C.ar     1 ZINC000072319783    0.0000
13     C13    -1.2172   -4.1164   -0.6999 C.3      1 ZINC000072319783   -0.0800
14     C14    -2.2151   -4.6284   -1.7354 C.3      1 ZINC000072319783   -0.0300
15     H15    -2.6028   -3.7817   -2.3019 H        1 ZINC000072319783    0.0900
16     C16    -1.5202   -5.5941   -2.6986 C.3      1 ZINC000072319783   -0.1100
17     C17    -2.5819   -6.1873   -3.6194 C.3      1 ZINC000072319783   -0.0900
18     H18    -3.2079   -5.3701   -3.9778 H        1 ZINC000072319783    0.1000
19     C19    -1.9716   -6.8708   -4.8269 C.3      1 ZINC000072319783    0.0400
20     H20    -1.2105   -6.2186   -5.2552 H        1 ZINC000072319783    0.1400
21     N21    -3.0226   -7.0970   -5.8281 N.4      1 ZINC000072319783   -0.3700
22     H22    -3.7383   -7.6906   -5.4362 H        1 ZINC000072319783    0.4300
23     C23    -3.6131   -5.8096   -6.2175 C.3      1 ZINC000072319783   -0.0500
24     C24    -2.4409   -7.7465   -7.0104 C.3      1 ZINC000072319783   -0.0500
25     C25    -1.3438   -8.1869   -4.4779 C.2      1 ZINC000072319783    0.3000
26     O26    -0.4237   -8.7051   -5.3049 O.3      1 ZINC000072319783   -0.5700
27     C27    -1.6787   -8.8798   -3.3414 C.2      1 ZINC000072319783   -0.4800
28     C28    -1.0524  -10.1829   -3.0671 C.2      1 ZINC000072319783    0.5900
29     N29    -1.4603  -10.9183   -2.0139 N.am     1 ZINC000072319783   -0.8700
30     O30    -0.1665  -10.5963   -3.7909 O.2      1 ZINC000072319783   -0.5500
31     C31    -2.6550   -8.3298   -2.4023 C.2      1 ZINC000072319783    0.3900
32     O32    -2.7997   -8.8223   -1.3024 O.2      1 ZINC000072319783   -0.4800
33     C33    -3.4710   -7.1474   -2.8315 C.3      1 ZINC000072319783    0.0600
34     O34    -4.5717   -7.5718   -3.6380 O.3      1 ZINC000072319783   -0.5500
35     C35    -3.9498   -6.4505   -1.5859 C.2      1 ZINC000072319783    0.3800
36     O36    -4.8943   -6.9264   -0.9860 O.2      1 ZINC000072319783   -0.4300
37     C37    -3.3624   -5.3309   -1.0603 C.2      1 ZINC000072319783   -0.2600
38     C38    -3.8957   -4.7616    0.0928 C.2      1 ZINC000072319783    0.2600
39     O39    -5.0296   -5.2566    0.6348 O.3      1 ZINC000072319783   -0.4600
40     H40     3.9394   -3.4281   -0.5622 H        1 ZINC000072319783    0.0900
41     H41     2.9828   -4.5480    0.4374 H        1 ZINC000072319783    0.0500
42     H42     2.3009   -3.8995   -1.0735 H        1 ZINC000072319783    0.0500
43     H43     1.4261   -1.8270    2.8393 H        1 ZINC000072319783    0.0400
44     H44    -0.0011   -2.8906    2.8381 H        1 ZINC000072319783    0.0900
45     H45     1.6335   -3.5946    2.8679 H        1 ZINC000072319783    0.0800
46     H46     0.3430   -0.8243    0.8386 H        1 ZINC000072319783    0.0600
47     H47     0.1621   -1.8228   -0.6238 H        1 ZINC000072319783    0.1000
48     H48    -1.4623   -0.5608    2.2730 H        1 ZINC000072319783    0.1300
49     H49    -3.7430   -1.1384    2.9806 H        1 ZINC000072319783    0.1400
50     H50    -5.8434   -2.7255    1.5490 H        1 ZINC000072319783    0.4000
51     H51    -0.4515   -3.5211   -1.1972 H        1 ZINC000072319783    0.1000
52     H52    -0.7487   -4.9630   -0.1980 H        1 ZINC000072319783    0.1000
53     H53    -0.7793   -5.0555   -3.2896 H        1 ZINC000072319783    0.1000
54     H54    -1.0346   -6.3907   -2.1351 H        1 ZINC000072319783    0.0900
55     H55    -2.8220   -5.1236   -6.5202 H        1 ZINC000072319783    0.1200
56     H56    -4.3001   -5.9619   -7.0499 H        1 ZINC000072319783    0.1200
57     H57    -4.1555   -5.3879   -5.3713 H        1 ZINC000072319783    0.1200
58     H58    -1.6678   -7.1054   -7.4337 H        1 ZINC000072319783    0.1200
59     H59    -2.0027   -8.7018   -6.7215 H        1 ZINC000072319783    0.1400
60     H60    -3.2208   -7.9144   -7.7533 H        1 ZINC000072319783    0.1100
61     H61    -2.2158  -10.6248   -1.4809 H        1 ZINC000072319783    0.4000
62     H62    -0.9985  -11.7410   -1.7888 H        1 ZINC000072319783    0.3900
63     H63    -5.1764   -8.1791   -3.1901 H        1 ZINC000072319783    0.4100
64     H64    -4.8798   -5.8991    1.3418 H        1 ZINC000072319783    0.4100
@<TRIPOS>BOND
1     1     2     1
2     1     40    1
3     1     41    1
4     1     42    1
5     2     3     1
6     3     4     1
7     3     5     1
8     4     43    1
9     4     44    1
10    4     45    1
11    5     6     1
12    5     46    1
13    5     47    1
14    6     12    ar
15    6     7     ar
16    7     8     ar
17    7     48    1
18    8     9     ar
19    8     49    1
20    9     10    1
21    9     11    ar
22    10    50    1
23    11    38    1
24    11    12    ar
25    12    13    1
26    13    14    1
27    13    51    1
28    13    52    1
29    14    15    1
30    14    37    1
31    14    16    1
32    16    17    1
33    16    53    1
34    16    54    1
35    17    18    1
36    17    33    1
37    17    19    1
38    19    20    1
39    19    21    1
40    19    25    1
41    21    22    1
42    21    23    1
43    21    24    1
44    23    55    1
45    23    56    1
46    23    57    1
47    24    58    1
48    24    59    1
49    24    60    1
50    25    26    1
51    25    27    2
52    27    28    1
53    27    31    1
54    28    29    am
55    28    30    2
56    29    61    1
57    29    62    1
58    31    32    2
59    31    33    1
60    33    34    1
61    33    35    1
62    34    63    1
63    35    36    2
64    35    37    1
65    37    38    2
66    38    39    1
67    39    64    1
@<TRIPOS>SUBSTRUCTURE
1   ZINC000072319783 1     RESIDUE    1   A     ZIN   1
