@<TRIPOS>MOLECULE
ZINC000003827020
27    29    1     0     0
SMALL
USER_CHARGES
@<TRIPOS>ATOM
1      O1      0.0021   -0.0041    0.0020 O.2      1 ZINC000003827020   -0.9500
2      S2     -0.0172    1.4168    0.0098 S.o2     1 ZINC000003827020    2.6900
3      O3     -0.7037    2.1977   -0.9587 O.2      1 ZINC000003827020   -0.9500
4      N4     -0.5951    1.8853    1.5105 N.am     1 ZINC000003827020   -1.1000
5      C5      0.0055    3.1361    2.0064 C.3      1 ZINC000003827020    0.3000
6      H6     -0.1417    3.9469    1.2930 H        1 ZINC000003827020    0.1000
7      C7     -0.5279    3.5233    3.3938 C.3      1 ZINC000003827020   -0.1200
8      C8      0.7073    4.0856    4.1395 C.3      1 ZINC000003827020   -0.1200
9      C9      1.8819    3.9404    3.1376 C.3      1 ZINC000003827020    0.0600
10     N10     1.4417    2.8730    2.2183 N.3      1 ZINC000003827020   -0.5300
11     C11     2.1975    2.6625    1.0918 C.ar     1 ZINC000003827020    0.2300
12     C12     3.5021    3.1528    1.0358 C.ar     1 ZINC000003827020   -0.1900
13     C13     4.2922    2.9135   -0.0681 C.ar     1 ZINC000003827020   -0.0300
14     C14     3.7994    2.1813   -1.1325 C.ar     1 ZINC000003827020   -0.1700
15     C15     2.5013    1.7053   -1.0954 C.ar     1 ZINC000003827020    0.0100
16     C16     1.6696    1.9517   -0.0034 C.ar     1 ZINC000003827020   -0.7100
17     H17    -1.2606    1.3820    2.0052 H        1 ZINC000003827020    0.4300
18     H18    -1.2997    4.2879    3.3051 H        1 ZINC000003827020    0.0900
19     H19    -0.9175    2.6460    3.9103 H        1 ZINC000003827020    0.0900
20     H20     0.5522    5.1346    4.3918 H        1 ZINC000003827020    0.0900
21     H21     0.9034    3.5036    5.0400 H        1 ZINC000003827020    0.0800
22     H22     2.0323    4.8687    2.5864 H        1 ZINC000003827020    0.0700
23     H23     2.7950    3.6500    3.6572 H        1 ZINC000003827020    0.1000
24     H24     3.8960    3.7244    1.8631 H        1 ZINC000003827020    0.1300
25     H25     5.3002    3.2997   -0.1019 H        1 ZINC000003827020    0.1300
26     H26     4.4254    1.9823   -1.9897 H        1 ZINC000003827020    0.1400
27     H27     2.1145    1.1320   -1.9249 H        1 ZINC000003827020    0.1300
@<TRIPOS>BOND
1     1     2     2
2     2     16    1
3     2     3     2
4     2     4     am
5     4     5     1
6     4     17    1
7     5     6     1
8     5     10    1
9     5     7     1
10    7     8     1
11    7     18    1
12    7     19    1
13    8     9     1
14    8     20    1
15    8     21    1
16    9     10    1
17    9     22    1
18    9     23    1
19    10    11    1
20    11    16    ar
21    11    12    ar
22    12    13    ar
23    12    24    1
24    13    14    ar
25    13    25    1
26    14    15    ar
27    14    26    1
28    15    16    ar
29    15    27    1
@<TRIPOS>SUBSTRUCTURE
1   ZINC000003827020 1     RESIDUE    1   A     ZIN   1
