@<TRIPOS>MOLECULE
ZINC000001607808
19    20    1     0     0
SMALL
USER_CHARGES
@<TRIPOS>ATOM
1      N1     -0.0168    1.3866    0.0097 N.pl3    1 ZINC000001607808   -0.7900
2      C2      0.0021   -0.0041    0.0020 C.ar     1 ZINC000001607808    0.4400
3      N3     -1.1434   -0.6613    0.0040 N.ar     1 ZINC000001607808   -0.2400
4      N4     -1.1972   -1.9495   -0.0032 N.ar     1 ZINC000001607808    0.1000
5      O5     -2.4495   -2.6104   -0.0012 O.3      1 ZINC000001607808   -0.4200
6      C6     -0.0416   -2.6706   -0.0132 C.ar     1 ZINC000001607808    0.0400
7      C7     -0.0448   -4.0659   -0.0218 C.ar     1 ZINC000001607808   -0.0600
8      C8      1.1392   -4.7440   -0.0321 C.ar     1 ZINC000001607808   -0.0900
9      C9      2.3544   -4.0637   -0.0336 C.ar     1 ZINC000001607808   -0.0600
10     C10     2.3928   -2.7015   -0.0250 C.ar     1 ZINC000001607808   -0.0900
11     C11     1.1922   -1.9765   -0.0153 C.ar     1 ZINC000001607808    0.0800
12     N12     1.1730   -0.6343   -0.0125 N.ar     1 ZINC000001607808   -0.0700
13     O13     2.2141   -0.0022   -0.0181 O.3      1 ZINC000001607808   -0.3800
14     H14     0.8166    1.8830    0.0044 H        1 ZINC000001607808    0.4300
15     H15    -0.8633    1.8601    0.0163 H        1 ZINC000001607808    0.4300
16     H16    -0.9797   -4.6065   -0.0200 H        1 ZINC000001607808    0.1700
17     H17     1.1339   -5.8240   -0.0387 H        1 ZINC000001607808    0.1600
18     H18     3.2784   -4.6229   -0.0415 H        1 ZINC000001607808    0.1600
19     H19     3.3407   -2.1840   -0.0256 H        1 ZINC000001607808    0.1700
@<TRIPOS>BOND
1     1     2     1
2     1     14    1
3     1     15    1
4     2     12    ar
5     2     3     ar
6     3     4     ar
7     4     5     1
8     4     6     ar
9     6     11    ar
10    6     7     ar
11    7     8     ar
12    7     16    1
13    8     9     ar
14    8     17    1
15    9     10    ar
16    9     18    1
17    10    11    ar
18    10    19    1
19    11    12    ar
20    12    13    1
@<TRIPOS>SUBSTRUCTURE
1   ZINC000001607808 1     RESIDUE    1   A     ZIN   1
