@<TRIPOS>MOLECULE
ZINC000005761533
  37   38    0    0    0
SMALL
USER_CHARGES
NO_NAME
@<TRIPOS>ATOM
    1 C1       -0.0187     1.5258     0.0104 C.3    1 <0>      -0.1500
    2 C2        0.0021    -0.0041     0.0020 C.3    1 <0>      -0.0500
    3 C3        0.7182    -0.4975    -1.2568 C.3    1 <0>      -0.1500
    4 C4        0.7309    -0.5033     1.2229 C.ar   1 <0>      -0.1300
    5 C5        2.0551    -0.1452     1.4324 C.ar   1 <0>       0.1300
    6 O6        2.6915     0.6546     0.5366 O.3    1 <0>      -0.4900
    7 C7        2.7290    -0.6009     2.5529 C.ar   1 <0>      -0.1400
    8 C8        2.0738    -1.4228     3.4728 C.ar   1 <0>      -0.0300
    9 C9        2.7865    -1.9103     4.6675 C.2    1 <0>      -0.1100
   10 C10       2.1548    -2.7000     5.5502 C.2    1 <0>      -0.1000
   11 C11       2.8674    -3.1875     6.7448 C.ar   1 <0>      -0.0600
   12 C12       4.1988    -2.8249     6.9647 C.ar   1 <0>      -0.1100
   13 C13       4.8590    -3.2845     8.0850 C.ar   1 <0>      -0.1200
   14 C14       4.2063    -4.1031     8.9898 C.ar   1 <0>      -0.1200
   15 C15       2.8878    -4.4664     8.7786 C.ar   1 <0>      -0.1200
   16 C16       2.2130    -4.0098     7.6658 C.ar   1 <0>      -0.1100
   17 C17       0.7411    -1.7808     3.2572 C.ar   1 <0>      -0.1500
   18 C18       0.0740    -1.3149     2.1368 C.ar   1 <0>       0.1200
   19 O19      -1.2228    -1.6626     1.9259 O.3    1 <0>      -0.4900
   20 H20       1.0039     1.9031     0.0027 H      1 <0>       0.0600
   21 H21      -0.5459     1.8868    -0.8726 H      1 <0>       0.0600
   22 H22      -0.5289     1.8773     0.9072 H      1 <0>       0.0500
   23 H23      -1.0205    -0.3814     0.0098 H      1 <0>       0.0800
   24 H24       1.7408    -0.1202    -1.2645 H      1 <0>       0.0700
   25 H25       0.7330    -1.5874    -1.2628 H      1 <0>       0.0500
   26 H26       0.1910    -0.1364    -2.1398 H      1 <0>       0.0600
   27 H27       2.6116     1.5993     0.7266 H      1 <0>       0.3900
   28 H28       3.7596    -0.3216     2.7151 H      1 <0>       0.1300
   29 H29       3.8169    -1.6321     4.8327 H      1 <0>       0.1300
   30 H30       1.1244    -2.9783     5.3850 H      1 <0>       0.1200
   31 H31       4.7097    -2.1866     6.2590 H      1 <0>       0.1300
   32 H32       5.8881    -3.0051     8.2564 H      1 <0>       0.1200
   33 H33       4.7285    -4.4606     9.8650 H      1 <0>       0.1200
   34 H34       2.3849    -5.1059     9.4888 H      1 <0>       0.1200
   35 H35       1.1840    -4.2941     7.5022 H      1 <0>       0.1200
   36 H36       0.2304    -2.4164     3.9655 H      1 <0>       0.1300
   37 H37      -1.8623    -1.0523     2.3178 H      1 <0>       0.3900
@<TRIPOS>BOND
   1    1    2 1
   2    1   20 1
   3    1   21 1
   4    1   22 1
   5    2    3 1
   6    2    4 1
   7    2   23 1
   8    3   24 1
   9    3   25 1
  10    3   26 1
  11    4   18 ar
  12    4    5 ar
  13    5    6 1
  14    5    7 ar
  15    6   27 1
  16    7    8 ar
  17    7   28 1
  18    8    9 1
  19    8   17 ar
  20    9   10 2
  21    9   29 1
  22   10   11 1
  23   10   30 1
  24   11   16 ar
  25   11   12 ar
  26   12   13 ar
  27   12   31 1
  28   13   14 ar
  29   13   32 1
  30   14   15 ar
  31   14   33 1
  32   15   16 ar
  33   15   34 1
  34   16   35 1
  35   17   18 ar
  36   17   36 1
  37   18   19 1
  38   19   37 1
