@<TRIPOS>MOLECULE
ZINC000008602992
49    52    1     0     0
SMALL
USER_CHARGES
@<TRIPOS>ATOM
1      C1     -0.0187    1.5258    0.0104 C.3      1 ZINC000008602992   -0.1300
2      C2      0.0021   -0.0041    0.0020 C.3      1 ZINC000008602992   -0.0600
3      C3      0.7761   -0.5050   -1.2044 C.3      1 ZINC000008602992   -0.1000
4      C4      2.1436    0.1901   -1.1727 C.3      1 ZINC000008602992   -0.1200
5      C5      2.9006   -0.0690    0.1286 C.3      1 ZINC000008602992   -0.0600
6      H6      3.2016   -1.1161    0.1619 H        1 ZINC000008602992    0.0800
7      C7      2.0627    0.2484    1.3676 C.3      1 ZINC000008602992   -0.0700
8      H8      1.8619    1.3192    1.4037 H        1 ZINC000008602992    0.0800
9      C9      2.7598   -0.1792    2.6550 C.3      1 ZINC000008602992   -0.1100
10     C10     4.2731   -0.0250    2.5698 C.3      1 ZINC000008602992   -0.0900
11     C11     4.6058    1.0303    1.5433 C.2      1 ZINC000008602992   -0.0100
12     C12     5.2636    2.1306    1.8923 C.2      1 ZINC000008602992   -0.2400
13     C13     5.5789    3.1639    0.9078 C.2      1 ZINC000008602992    0.3900
14     O14     6.1993    4.1518    1.2417 O.2      1 ZINC000008602992   -0.4600
15     C15     5.1319    3.0012   -0.5235 C.3      1 ZINC000008602992   -0.1700
16     C16     3.8685    2.1345   -0.5539 C.3      1 ZINC000008602992   -0.1100
17     C17     4.1574    0.8121    0.1226 C.3      1 ZINC000008602992   -0.0400
18     C18     5.2721    0.0841   -0.6313 C.3      1 ZINC000008602992   -0.1400
19     C19     0.7501   -0.5311    1.2545 C.3      1 ZINC000008602992   -0.0800
20     H20     0.9514   -1.5987    1.1663 H        1 ZINC000008602992    0.0800
21     C21    -0.2701   -0.2727    2.3692 C.3      1 ZINC000008602992   -0.1100
22     C22    -1.6139   -0.6926    1.7138 C.3      1 ZINC000008602992   -0.1600
23     C23    -1.4127   -0.5452    0.1856 C.3      1 ZINC000008602992    0.1100
24     H24    -1.4817   -1.5186   -0.3001 H        1 ZINC000008602992    0.0500
25     O25    -2.3863    0.3486   -0.3580 O.3      1 ZINC000008602992   -0.5600
26     H26     1.0039    1.9031    0.0027 H        1 ZINC000008602992    0.0600
27     H27    -0.5459    1.8868   -0.8726 H        1 ZINC000008602992    0.0600
28     H28    -0.5289    1.8773    0.9072 H        1 ZINC000008602992    0.0500
29     H29     0.9057   -1.5855   -1.1417 H        1 ZINC000008602992    0.0600
30     H30     0.2470   -0.2447   -2.1211 H        1 ZINC000008602992    0.0700
31     H31     2.7431   -0.1726   -2.0077 H        1 ZINC000008602992    0.0600
32     H32     1.9961    1.2640   -1.2871 H        1 ZINC000008602992    0.0800
33     H33     2.3880    0.4311    3.4780 H        1 ZINC000008602992    0.0700
34     H34     2.5216   -1.2238    2.8559 H        1 ZINC000008602992    0.0700
35     H35     4.6639    0.2761    3.5417 H        1 ZINC000008602992    0.0800
36     H36     4.7200   -0.9743    2.2744 H        1 ZINC000008602992    0.0800
37     H37     5.5697    2.2637    2.9194 H        1 ZINC000008602992    0.1300
38     H38     4.9137    3.9797   -0.9512 H        1 ZINC000008602992    0.1000
39     H39     5.9206    2.5170   -1.0993 H        1 ZINC000008602992    0.1000
40     H40     3.0656    2.6408   -0.0182 H        1 ZINC000008602992    0.0700
41     H41     3.5683    1.9630   -1.5876 H        1 ZINC000008602992    0.0900
42     H42     6.1732    0.6973   -0.6286 H        1 ZINC000008602992    0.0600
43     H43     5.4792   -0.8682   -0.1430 H        1 ZINC000008602992    0.0600
44     H44     4.9581   -0.0956   -1.6595 H        1 ZINC000008602992    0.0700
45     H45    -0.0553   -0.8922    3.2399 H        1 ZINC000008602992    0.0700
46     H46    -0.2863    0.7830    2.6401 H        1 ZINC000008602992    0.0700
47     H47    -1.8528   -1.7229    1.9774 H        1 ZINC000008602992    0.0700
48     H48    -2.4133   -0.0275    2.0403 H        1 ZINC000008602992    0.0700
49     H49    -3.2996    0.0521   -0.2437 H        1 ZINC000008602992    0.3800
@<TRIPOS>BOND
1     1     2     1
2     1     26    1
3     1     27    1
4     1     28    1
5     2     19    1
6     2     23    1
7     2     3     1
8     3     4     1
9     3     29    1
10    3     30    1
11    4     5     1
12    4     31    1
13    4     32    1
14    5     6     1
15    5     17    1
16    5     7     1
17    7     8     1
18    7     9     1
19    7     19    1
20    9     10    1
21    9     33    1
22    9     34    1
23    10    11    1
24    10    35    1
25    10    36    1
26    11    17    1
27    11    12    2
28    12    13    1
29    12    37    1
30    13    14    2
31    13    15    1
32    15    16    1
33    15    38    1
34    15    39    1
35    16    17    1
36    16    40    1
37    16    41    1
38    17    18    1
39    18    42    1
40    18    43    1
41    18    44    1
42    19    20    1
43    19    21    1
44    21    22    1
45    21    45    1
46    21    46    1
47    22    23    1
48    22    47    1
49    22    48    1
50    23    24    1
51    23    25    1
52    25    49    1
@<TRIPOS>SUBSTRUCTURE
1   ZINC000008602992 1     RESIDUE    1   A     ZIN   1
