@<TRIPOS>MOLECULE
ZINC000001734034
49    50    1     0     0
SMALL
USER_CHARGES
@<TRIPOS>ATOM
1      C1     -0.2754    1.5846    1.4784 C.3      1 ZINC000001734034   -0.1500
2      C2      0.3130    0.2372    1.0549 C.3      1 ZINC000001734034    0.0400
3      N3     -0.5746   -0.8458    1.4988 N.3      1 ZINC000001734034   -0.5300
4      C4     -1.8638   -0.7912    0.7966 C.3      1 ZINC000001734034    0.0500
5      C5     -2.8901   -1.6417    1.5478 C.3      1 ZINC000001734034   -0.1500
6      C6      0.0654   -2.1564    1.3232 C.3      1 ZINC000001734034    0.0500
7      C7      1.1095   -2.3654    2.4218 C.3      1 ZINC000001734034    0.0700
8      O8      0.4487   -2.4196    3.7136 O.3      1 ZINC000001734034   -0.3200
9      C9      1.2357   -2.5034    4.7977 C.2      1 ZINC000001734034    0.4400
10     O10     2.4363   -2.4376    4.6791 O.2      1 ZINC000001734034   -0.4900
11     C11     0.6218   -2.6794    6.1627 C.3      1 ZINC000001734034    0.2500
12     O12    -0.5942   -1.9326    6.2380 O.3      1 ZINC000001734034   -0.5200
13     C13     0.3303   -4.1391    6.3979 C.ar     1 ZINC000001734034   -0.0800
14     C14     1.2351   -5.0997    5.9864 C.ar     1 ZINC000001734034   -0.1100
15     C15     0.9677   -6.4387    6.2022 C.ar     1 ZINC000001734034   -0.1200
16     C16    -0.2044   -6.8170    6.8299 C.ar     1 ZINC000001734034   -0.1100
17     C17    -1.1089   -5.8563    7.2422 C.ar     1 ZINC000001734034   -0.1200
18     C18    -0.8394   -4.5172    7.0302 C.ar     1 ZINC000001734034   -0.0800
19     C19     1.5819   -2.1833    7.2130 C.ar     1 ZINC000001734034   -0.1200
20     C20     1.2248   -1.1296    8.0334 C.ar     1 ZINC000001734034   -0.1000
21     C21     2.1054   -0.6745    8.9969 C.ar     1 ZINC000001734034   -0.1200
22     C22     3.3430   -1.2735    9.1402 C.ar     1 ZINC000001734034   -0.1100
23     C23     3.6998   -2.3278    8.3204 C.ar     1 ZINC000001734034   -0.1200
24     C24     2.8174   -2.7856    7.3599 C.ar     1 ZINC000001734034   -0.0700
25     H25    -0.3704    1.6146    2.5638 H        1 ZINC000001734034    0.0600
26     H26     0.3832    2.3883    1.1490 H        1 ZINC000001734034    0.0600
27     H27    -1.2581    1.7109    1.0240 H        1 ZINC000001734034    0.0600
28     H28     0.4080    0.2073   -0.0305 H        1 ZINC000001734034    0.0300
29     H29     1.2956    0.1109    1.5093 H        1 ZINC000001734034    0.0700
30     H30    -2.2101    0.2414    0.7526 H        1 ZINC000001734034    0.0800
31     H31    -1.7429   -1.1774   -0.2155 H        1 ZINC000001734034    0.0300
32     H32    -2.5340   -2.6700    1.6102 H        1 ZINC000001734034    0.0500
33     H33    -3.0266   -1.2428    2.5530 H        1 ZINC000001734034    0.0600
34     H34    -3.8409   -1.6181    1.0154 H        1 ZINC000001734034    0.0600
35     H35    -0.6892   -2.9405    1.3852 H        1 ZINC000001734034    0.0900
36     H36     0.5510   -2.1958    0.3482 H        1 ZINC000001734034    0.0600
37     H37     1.6401   -3.3011    2.2456 H        1 ZINC000001734034    0.0700
38     H38     1.8189   -1.5379    2.4111 H        1 ZINC000001734034    0.0700
39     H39    -0.4960   -0.9974    6.0126 H        1 ZINC000001734034    0.3900
40     H40     2.1509   -4.8042    5.4961 H        1 ZINC000001734034    0.1200
41     H41     1.6743   -7.1892    5.8801 H        1 ZINC000001734034    0.1300
42     H42    -0.4137   -7.8631    6.9978 H        1 ZINC000001734034    0.1300
43     H43    -2.0247   -6.1519    7.7322 H        1 ZINC000001734034    0.1300
44     H44    -1.5460   -3.7666    7.3524 H        1 ZINC000001734034    0.1400
45     H45     0.2579   -0.6617    7.9214 H        1 ZINC000001734034    0.1300
46     H46     1.8267    0.1492    9.6374 H        1 ZINC000001734034    0.1300
47     H47     4.0313   -0.9175    9.8925 H        1 ZINC000001734034    0.1200
48     H48     4.6668   -2.7955    8.4322 H        1 ZINC000001734034    0.1300
49     H49     3.0961   -3.6094    6.7194 H        1 ZINC000001734034    0.1200
@<TRIPOS>BOND
1     1     2     1
2     1     25    1
3     1     26    1
4     1     27    1
5     2     3     1
6     2     28    1
7     2     29    1
8     3     4     1
9     3     6     1
10    4     5     1
11    4     30    1
12    4     31    1
13    5     32    1
14    5     33    1
15    5     34    1
16    6     7     1
17    6     35    1
18    6     36    1
19    7     8     1
20    7     37    1
21    7     38    1
22    8     9     1
23    9     10    2
24    9     11    1
25    11    12    1
26    11    13    1
27    11    19    1
28    12    39    1
29    13    18    ar
30    13    14    ar
31    14    15    ar
32    14    40    1
33    15    16    ar
34    15    41    1
35    16    17    ar
36    16    42    1
37    17    18    ar
38    17    43    1
39    18    44    1
40    19    24    ar
41    19    20    ar
42    20    21    ar
43    20    45    1
44    21    22    ar
45    21    46    1
46    22    23    ar
47    22    47    1
48    23    24    ar
49    23    48    1
50    24    49    1
@<TRIPOS>SUBSTRUCTURE
1   ZINC000001734034 1     RESIDUE    1   A     ZIN   1
