@<TRIPOS>MOLECULE
ZINC000003861755
  41   42    0    0    0
SMALL
USER_CHARGES
NO_NAME
@<TRIPOS>ATOM
    1 O1        0.0021    -0.0041     0.0020 O.2    1 <0>      -0.5300
    2 C2       -0.0144     1.2136     0.0087 C.2    1 <0>       0.5500
    3 C3       -1.2461     1.9113     0.0302 C.2    1 <0>      -0.3100
    4 C4       -1.2363     3.2615     0.0376 C.2    1 <0>       0.2000
    5 N5       -0.0428     3.9305     0.0245 N.am   1 <0>      -0.5200
    6 C6       -0.0320     5.3955     0.0326 C.3    1 <0>       0.3100
    7 H7       -1.0461     5.7861    -0.0522 H      1 <0>       0.1300
    8 O8        0.7993     5.9037    -1.0328 O.3    1 <0>      -0.3300
    9 C9        1.1710     7.2445    -0.6719 C.3    1 <0>       0.0900
   10 H10       0.4626     7.9536    -1.1005 H      1 <0>       0.1000
   11 C11       2.5820     7.5478    -1.1797 C.3    1 <0>       0.1400
   12 O12       2.5808     7.5638    -2.6086 O.3    1 <0>      -0.7600
   13 P13       3.9013     7.8521    -3.4834 P.3    1 <0>       2.2900
   14 O14       4.5234     9.1979    -3.0487 O.co2  1 <0>      -1.1000
   15 O15       4.9246     6.7161    -3.2611 O.co2  1 <0>      -1.1100
   16 O16       3.5073     7.9219    -5.0429 O.3    1 <0>      -1.1000
   17 P17       4.2559     8.4607    -6.3626 P.3    1 <0>       2.3500
   18 O18       5.0004     9.7736    -6.0325 O.co2  1 <0>      -1.1100
   19 O19       5.2704     7.4013    -6.8478 O.co2  1 <0>      -1.1200
   20 O20       3.1714     8.7352    -7.5204 O.3    1 <0>      -1.1000
   21 P21       3.2041     9.5373    -8.9160 P.3    1 <0>       2.2800
   22 O22       4.5007     9.1883    -9.6803 O.2    1 <0>      -1.1200
   23 O23       3.1633    11.0565    -8.6379 O.3    1 <0>      -1.1200
   24 O24       1.9283     9.1199    -9.8049 O.3    1 <0>      -0.9100
   25 C25       1.1341     7.3318     0.8662 C.3    1 <0>       0.0500
   26 H26       2.1287     7.5403     1.2604 H      1 <0>       0.0900
   27 O27       0.2095     8.3364     1.2881 O.3    1 <0>      -0.5400
   28 C28       0.6528     5.9291     1.3166 C.3    1 <0>       0.0300
   29 H29       1.4975     5.2987     1.5944 H      1 <0>       0.1000
   30 O30      -0.2800     6.0318     2.3942 O.3    1 <0>      -0.5500
   31 C31       1.1209     3.2557     0.0046 C.2    1 <0>       0.6900
   32 O32       2.1700     3.8702    -0.0065 O.2    1 <0>      -0.4900
   33 N33       1.1403     1.9098     0.0014 N.am   1 <0>      -0.6600
   34 H34      -2.1811     1.3708     0.0400 H      1 <0>       0.1700
   35 H35      -2.1661     3.8107     0.0536 H      1 <0>       0.1800
   36 H36       2.9015     8.5205    -0.8058 H      1 <0>       0.0700
   37 H37       3.2687     6.7790    -0.8255 H      1 <0>       0.0600
   38 H38       1.8831     9.5657   -10.6618 H      1 <0>       0.4000
   39 H39       0.1461     8.4342     2.2481 H      1 <0>       0.3700
   40 H40       0.0826     6.4437     3.1904 H      1 <0>       0.3800
   41 H41       1.9882     1.4389    -0.0127 H      1 <0>       0.4300
@<TRIPOS>BOND
   1    1    2 2
   2    2   33 am
   3    2    3 1
   4    3    4 2
   5    3   34 1
   6    4    5 1
   7    4   35 1
   8    5    6 1
   9    5   31 am
  10    6    7 1
  11    6   28 1
  12    6    8 1
  13    8    9 1
  14    9   10 1
  15    9   11 1
  16    9   25 1
  17   11   12 1
  18   11   36 1
  19   11   37 1
  20   12   13 1
  21   13   14 ar
  22   13   15 ar
  23   13   16 1
  24   16   17 1
  25   17   18 ar
  26   17   19 ar
  27   17   20 1
  28   20   21 1
  29   21   22 2
  30   21   23 1
  31   21   24 1
  32   24   38 1
  33   25   26 1
  34   25   27 1
  35   25   28 1
  36   27   39 1
  37   28   29 1
  38   28   30 1
  39   30   40 1
  40   31   32 2
  41   31   33 am
  42   33   41 1
