@<TRIPOS>MOLECULE
ZINC000000025672
31    32    1     0     0
SMALL
USER_CHARGES
@<TRIPOS>ATOM
1      C1     -0.0184    1.5028    0.0103 C.3      1 ZINC000000025672   -0.0900
2      C2      0.0021   -0.0041    0.0020 C.2      1 ZINC000000025672   -0.2500
3      C3     -1.1526   -0.7039    0.0037 C.2      1 ZINC000000025672    0.1700
4      N4     -1.1160   -2.0718   -0.0039 N.am     1 ZINC000000025672   -0.5300
5      C5     -2.3687   -2.8312   -0.0021 C.3      1 ZINC000000025672    0.3000
6      H6     -3.2193   -2.1584    0.1071 H        1 ZINC000000025672    0.1200
7      C7     -2.4992   -3.6565   -1.3014 C.3      1 ZINC000000025672   -0.1900
8      C8     -3.1605   -4.9757   -0.8435 C.3      1 ZINC000000025672    0.0800
9      H9     -2.5046   -5.8223   -1.0463 H        1 ZINC000000025672    0.0800
10     O10    -4.4217   -5.1546   -1.4911 O.3      1 ZINC000000025672   -0.5600
11     C11    -3.3514   -4.7913    0.6783 C.3      1 ZINC000000025672    0.0900
12     H12    -4.3537   -4.4206    0.8929 H        1 ZINC000000025672    0.1000
13     C13    -3.1055   -6.1124    1.4099 C.3      1 ZINC000000025672    0.0800
14     O14    -3.3996   -5.9498    2.7988 O.3      1 ZINC000000025672   -0.5700
15     O15    -2.3620   -3.8096    1.0602 O.3      1 ZINC000000025672   -0.3500
16     C16     0.0598   -2.7257   -0.0134 C.2      1 ZINC000000025672    0.7000
17     O17     0.0693   -3.9416   -0.0204 O.2      1 ZINC000000025672   -0.5200
18     N18     1.2256   -2.0531   -0.0157 N.am     1 ZINC000000025672   -0.6600
19     C19     1.2322   -0.7047   -0.0135 C.2      1 ZINC000000025672    0.5500
20     O20     2.2865   -0.0953   -0.0160 O.2      1 ZINC000000025672   -0.5100
21     H21     1.0042    1.8801    0.0026 H        1 ZINC000000025672    0.0800
22     H22    -0.5455    1.8639   -0.8728 H        1 ZINC000000025672    0.0700
23     H23    -0.5286    1.8543    0.9071 H        1 ZINC000000025672    0.0700
24     H24    -2.1006   -0.1866    0.0113 H        1 ZINC000000025672    0.1800
25     H25    -3.1353   -3.1397   -2.0199 H        1 ZINC000000025672    0.1000
26     H26    -1.5163   -3.8510   -1.7306 H        1 ZINC000000025672    0.1000
27     H27    -4.3640   -5.2163   -2.4544 H        1 ZINC000000025672    0.3900
28     H28    -3.7492   -6.8855    0.9903 H        1 ZINC000000025672    0.0700
29     H29    -2.0621   -6.4046    1.2913 H        1 ZINC000000025672    0.0600
30     H30    -3.2657   -6.7496    3.3255 H        1 ZINC000000025672    0.3800
31     H31     2.0644   -2.5402   -0.0226 H        1 ZINC000000025672    0.4300
@<TRIPOS>BOND
1     1     2     1
2     1     21    1
3     1     22    1
4     1     23    1
5     2     19    1
6     2     3     2
7     3     4     1
8     3     24    1
9     4     5     1
10    4     16    am
11    5     6     1
12    5     15    1
13    5     7     1
14    7     8     1
15    7     25    1
16    7     26    1
17    8     9     1
18    8     10    1
19    8     11    1
20    10    27    1
21    11    12    1
22    11    13    1
23    11    15    1
24    13    14    1
25    13    28    1
26    13    29    1
27    14    30    1
28    16    17    2
29    16    18    am
30    18    19    am
31    18    31    1
32    19    20    2
@<TRIPOS>SUBSTRUCTURE
1   ZINC000000025672 1     RESIDUE    1   A     ZIN   1
