@<TRIPOS>MOLECULE
ZINC000000003189
26    28    1     0     0
SMALL
USER_CHARGES
@<TRIPOS>ATOM
1      Cl1     0.0021   -0.0041    0.0020 Cl       1 ZINC000000003189   -0.0300
2      C2     -0.0215    1.7317    0.0116 C.ar     1 ZINC000000003189   -0.0200
3      C3     -1.2281    2.4073    0.0325 C.ar     1 ZINC000000003189   -0.0900
4      C4     -1.2464    3.7896    0.0406 C.ar     1 ZINC000000003189   -0.0900
5      C5     -0.0592    4.4973    0.0277 C.ar     1 ZINC000000003189   -0.0500
6      C6     -0.0807    6.0042    0.0366 C.3      1 ZINC000000003189   -0.1200
7      C7      0.3665    6.7573    1.2911 C.3      1 ZINC000000003189   -0.1200
8      C8      1.2187    6.8354    0.0228 C.3      1 ZINC000000003189   -0.1800
9      H9      2.2016    6.3643    0.0062 H        1 ZINC000000003189    0.1600
10     C10     0.9716    8.0092   -0.9489 C.3      1 ZINC000000003189    0.0300
11     N11    -0.5042    8.1790   -0.9633 N.4      1 ZINC000000003189   -0.5400
12     H12    -0.8094    8.6837   -0.1447 H        1 ZINC000000003189    0.4300
13     H13    -0.7962    8.6576   -1.8022 H        1 ZINC000000003189    0.4400
14     C14    -1.0203    6.7121   -0.9631 C.3      1 ZINC000000003189    0.0600
15     C15     1.1479    3.8237    0.0073 C.ar     1 ZINC000000003189   -0.0900
16     C16     1.1681    2.4408    0.0040 C.ar     1 ZINC000000003189   -0.0300
17     Cl17    2.6835    1.5944   -0.0217 Cl       1 ZINC000000003189   -0.0300
18     H18    -2.1561    1.8549    0.0422 H        1 ZINC000000003189    0.1500
19     H19    -2.1889    4.3168    0.0566 H        1 ZINC000000003189    0.1400
20     H20    -0.1990    7.6458    1.5719 H        1 ZINC000000003189    0.1100
21     H21     0.7536    6.1659    2.1208 H        1 ZINC000000003189    0.1300
22     H22     1.4549    8.9147   -0.5820 H        1 ZINC000000003189    0.1400
23     H23     1.3354    7.7605   -1.9459 H        1 ZINC000000003189    0.1400
24     H24    -0.9581    6.2870   -1.9649 H        1 ZINC000000003189    0.1500
25     H25    -2.0451    6.6697   -0.5941 H        1 ZINC000000003189    0.1400
26     H26     2.0751    4.3774   -0.0028 H        1 ZINC000000003189    0.1400
@<TRIPOS>BOND
1     1     2     1
2     2     16    ar
3     2     3     ar
4     3     4     ar
5     3     18    1
6     4     5     ar
7     4     19    1
8     5     6     1
9     5     15    ar
10    6     8     1
11    6     14    1
12    6     7     1
13    7     8     1
14    7     20    1
15    7     21    1
16    8     9     1
17    8     10    1
18    10    11    1
19    10    22    1
20    10    23    1
21    11    12    1
22    11    13    1
23    11    14    1
24    14    24    1
25    14    25    1
26    15    16    ar
27    15    26    1
28    16    17    1
@<TRIPOS>SUBSTRUCTURE
1   ZINC000000003189 1     RESIDUE    1   A     ZIN   1
