@<TRIPOS>MOLECULE
ZINC000004081455
81    85    1     0     0
SMALL
USER_CHARGES
@<TRIPOS>ATOM
1      C1     -1.1967   -2.2651    0.4875 C.2      1 ZINC000004081455   -0.2000
2      C2     -1.1937   -3.4243   -0.1226 C.2      1 ZINC000004081455   -0.1100
3      C3      0.0955   -4.1877   -0.2837 C.3      1 ZINC000004081455   -0.1200
4      C4     -2.4818   -3.9954   -0.6642 C.3      1 ZINC000004081455   -0.0500
5      H5     -3.3125   -3.3284   -0.4539 H        1 ZINC000004081455    0.0700
6      C6     -2.7273   -5.3948   -0.0381 C.3      1 ZINC000004081455   -0.1200
7      C7     -2.6413   -6.3999   -1.2229 C.3      1 ZINC000004081455   -0.1200
8      C8     -3.1803   -5.5373   -2.3800 C.3      1 ZINC000004081455   -0.0600
9      C9     -4.6783   -5.3056   -2.1643 C.3      1 ZINC000004081455   -0.1400
10     C10    -2.9154   -6.0606   -3.7721 C.3      1 ZINC000004081455   -0.1000
11     C11    -3.3613   -5.0018   -4.7921 C.3      1 ZINC000004081455   -0.1100
12     C12    -2.7053   -3.6459   -4.5494 C.3      1 ZINC000004081455   -0.0300
13     C13    -1.2123   -3.8093   -4.8591 C.3      1 ZINC000004081455   -0.1500
14     C14    -2.8779   -3.1745   -3.0984 C.3      1 ZINC000004081455   -0.0600
15     H15    -3.9389   -3.0055   -2.8769 H        1 ZINC000004081455    0.0700
16     C16    -2.1601   -1.8422   -2.8853 C.3      1 ZINC000004081455   -0.1100
17     C17    -2.7358   -0.7854   -3.8386 C.3      1 ZINC000004081455   -0.1100
18     C18    -2.5768   -1.2671   -5.2780 C.3      1 ZINC000004081455   -0.0600
19     H19    -1.4864   -1.4388   -5.4275 H        1 ZINC000004081455    0.0600
20     C20    -2.9232   -0.1694   -6.2860 C.3      1 ZINC000004081455   -0.0400
21     C21    -4.3094    0.4059   -6.0272 C.3      1 ZINC000004081455   -0.1500
22     C22    -1.8994    0.9698   -6.1118 C.3      1 ZINC000004081455   -0.1100
23     C23    -2.1749    2.0594   -7.1431 C.3      1 ZINC000004081455   -0.1500
24     C24    -2.0065    1.5190   -8.5565 C.3      1 ZINC000004081455    0.1200
25     H25    -0.9503    1.2724   -8.7224 H        1 ZINC000004081455    0.0500
26     O26    -2.3792    2.5349   -9.4971 O.3      1 ZINC000004081455   -0.5700
27     C27    -2.8478    0.2718   -8.8178 C.3      1 ZINC000004081455   -0.0400
28     C28    -4.2875    0.6688   -9.1435 C.3      1 ZINC000004081455   -0.1300
29     C29    -2.2627   -0.3849  -10.0944 C.3      1 ZINC000004081455   -0.1500
30     C30    -2.7551   -0.7324   -7.6904 C.3      1 ZINC000004081455   -0.0600
31     H31    -1.7094   -1.1390   -7.7258 H        1 ZINC000004081455    0.0600
32     C32    -3.6641   -1.9432   -7.8889 C.3      1 ZINC000004081455   -0.1100
33     C33    -3.1814   -3.0526   -6.9410 C.3      1 ZINC000004081455   -0.1100
34     C34    -3.3023   -2.5850   -5.4908 C.3      1 ZINC000004081455   -0.0300
35     C35    -4.7993   -2.4672   -5.1595 C.3      1 ZINC000004081455   -0.1600
36     C36    -2.3546   -4.2426   -2.1693 C.3      1 ZINC000004081455   -0.0700
37     H37    -1.2998   -4.4488   -2.3811 H        1 ZINC000004081455    0.0800
38     H38    -0.2751   -1.8565    0.8751 H        1 ZINC000004081455    0.0900
39     H39    -2.1199   -1.7159    0.5991 H        1 ZINC000004081455    0.0900
40     H40     0.2387   -4.8443    0.5745 H        1 ZINC000004081455    0.0700
41     H41     0.0529   -4.7846   -1.1948 H        1 ZINC000004081455    0.0600
42     H42     0.9275   -3.4864   -0.3474 H        1 ZINC000004081455    0.0600
43     H43    -1.9490   -5.6148    0.6930 H        1 ZINC000004081455    0.0600
44     H44    -3.7057   -5.4343    0.4309 H        1 ZINC000004081455    0.0700
45     H45    -1.6139   -6.6963   -1.4100 H        1 ZINC000004081455    0.0700
46     H46    -3.2857   -7.2580   -1.0525 H        1 ZINC000004081455    0.0600
47     H47    -4.8354   -4.8142   -1.2041 H        1 ZINC000004081455    0.0600
48     H48    -5.0671   -4.6743   -2.9633 H        1 ZINC000004081455    0.0600
49     H49    -5.1989   -6.2632   -2.1718 H        1 ZINC000004081455    0.0500
50     H50    -1.8560   -6.2880   -3.8964 H        1 ZINC000004081455    0.0600
51     H51    -3.4894   -6.9807   -3.9338 H        1 ZINC000004081455    0.0600
52     H52    -3.0568   -5.3485   -5.7902 H        1 ZINC000004081455    0.0600
53     H53    -4.4417   -4.9272   -4.7859 H        1 ZINC000004081455    0.0700
54     H54    -1.0882   -4.1172   -5.8973 H        1 ZINC000004081455    0.0500
55     H55    -0.7018   -2.8598   -4.6983 H        1 ZINC000004081455    0.0600
56     H56    -0.7857   -4.5671   -4.2019 H        1 ZINC000004081455    0.0500
57     H57    -2.3400   -1.5034   -1.8584 H        1 ZINC000004081455    0.0600
58     H58    -1.0924   -1.9389   -3.0398 H        1 ZINC000004081455    0.0600
59     H59    -3.7759   -0.6068   -3.5867 H        1 ZINC000004081455    0.0600
60     H60    -2.1731    0.1430   -3.7016 H        1 ZINC000004081455    0.0600
61     H61    -4.4056    0.6615   -4.9720 H        1 ZINC000004081455    0.0500
62     H62    -4.4498    1.3016   -6.6323 H        1 ZINC000004081455    0.0600
63     H63    -5.0650   -0.3337   -6.2923 H        1 ZINC000004081455    0.0600
64     H64    -1.9905    1.3814   -5.1088 H        1 ZINC000004081455    0.0700
65     H65    -0.8972    0.5676   -6.2579 H        1 ZINC000004081455    0.0600
66     H66    -3.1636    2.4903   -7.0116 H        1 ZINC000004081455    0.0800
67     H67    -1.4443    2.8700   -6.9908 H        1 ZINC000004081455    0.0600
68     H68    -1.8517    3.3428   -9.4330 H        1 ZINC000004081455    0.3700
69     H69    -4.3115    1.2004  -10.0948 H        1 ZINC000004081455    0.0600
70     H70    -4.9048   -0.2269   -9.2121 H        1 ZINC000004081455    0.0500
71     H71    -4.6729    1.3162   -8.3557 H        1 ZINC000004081455    0.0600
72     H72    -1.2183   -0.6454   -9.9230 H        1 ZINC000004081455    0.0500
73     H73    -2.8279   -1.2864  -10.3309 H        1 ZINC000004081455    0.0600
74     H74    -2.3306    0.3153  -10.9269 H        1 ZINC000004081455    0.0600
75     H75    -4.6999   -1.7007   -7.6897 H        1 ZINC000004081455    0.0700
76     H76    -3.5804   -2.3166   -8.9126 H        1 ZINC000004081455    0.0600
77     H77    -3.8040   -3.9365   -7.0927 H        1 ZINC000004081455    0.0600
78     H78    -2.1497   -3.2882   -7.1907 H        1 ZINC000004081455    0.0600
79     H79    -5.2454   -3.4614   -5.1351 H        1 ZINC000004081455    0.0600
80     H80    -4.9197   -1.9909   -4.1865 H        1 ZINC000004081455    0.0600
81     H81    -5.2939   -1.8657   -5.9222 H        1 ZINC000004081455    0.0600
@<TRIPOS>BOND
1     1     2     2
2     1     38    1
3     1     39    1
4     2     3     1
5     2     4     1
6     3     40    1
7     3     41    1
8     3     42    1
9     4     5     1
10    4     36    1
11    4     6     1
12    6     7     1
13    6     43    1
14    6     44    1
15    7     8     1
16    7     45    1
17    7     46    1
18    8     36    1
19    8     9     1
20    8     10    1
21    9     47    1
22    9     48    1
23    9     49    1
24    10    11    1
25    10    50    1
26    10    51    1
27    11    12    1
28    11    52    1
29    11    53    1
30    12    34    1
31    12    13    1
32    12    14    1
33    13    54    1
34    13    55    1
35    13    56    1
36    14    15    1
37    14    16    1
38    14    36    1
39    16    17    1
40    16    57    1
41    16    58    1
42    17    18    1
43    17    59    1
44    17    60    1
45    18    19    1
46    18    34    1
47    18    20    1
48    20    30    1
49    20    21    1
50    20    22    1
51    21    61    1
52    21    62    1
53    21    63    1
54    22    23    1
55    22    64    1
56    22    65    1
57    23    24    1
58    23    66    1
59    23    67    1
60    24    25    1
61    24    26    1
62    24    27    1
63    26    68    1
64    27    28    1
65    27    29    1
66    27    30    1
67    28    69    1
68    28    70    1
69    28    71    1
70    29    72    1
71    29    73    1
72    29    74    1
73    30    31    1
74    30    32    1
75    32    33    1
76    32    75    1
77    32    76    1
78    33    34    1
79    33    77    1
80    33    78    1
81    34    35    1
82    35    79    1
83    35    80    1
84    35    81    1
85    36    37    1
@<TRIPOS>SUBSTRUCTURE
1   ZINC000004081455 1     RESIDUE    1   A     ZIN   1
