@<TRIPOS>MOLECULE
ZINC000100018343
33    35    1     0     0
SMALL
USER_CHARGES
@<TRIPOS>ATOM
1      O1     -4.6307   -0.7725   -2.1715 O.2      1 ZINC000100018343   -0.4700
2      C2     -4.3414    0.0787   -1.3561 C.2      1 ZINC000100018343    0.3800
3      C3     -5.2463    0.4331   -0.2572 C.ar     1 ZINC000100018343   -0.4000
4      C4     -6.5772   -0.0126   -0.2533 C.ar     1 ZINC000100018343    0.2300
5      O5     -7.0467   -0.7705   -1.2752 O.3      1 ZINC000100018343   -0.5000
6      C6     -7.4065    0.3267    0.8011 C.ar     1 ZINC000100018343   -0.3100
7      C7     -6.9218    1.1041    1.8454 C.ar     1 ZINC000100018343    0.3300
8      O8     -7.7410    1.4288    2.8770 O.3      1 ZINC000100018343   -0.6900
9      C9     -5.6068    1.5523    1.8445 C.ar     1 ZINC000100018343   -0.2900
10     C10    -4.7614    1.2274    0.7987 C.ar     1 ZINC000100018343    0.2100
11     O11    -3.4847    1.6775    0.7968 O.3      1 ZINC000100018343   -0.3000
12     C12    -2.5132    0.9781    0.0192 C.3      1 ZINC000100018343    0.1500
13     H13    -2.3461   -0.0099    0.4482 H        1 ZINC000100018343    0.0900
14     C14    -1.2194    1.7509    0.0173 C.ar     1 ZINC000100018343   -0.0600
15     C15    -1.2416    3.1328    0.0308 C.ar     1 ZINC000100018343   -0.0800
16     C16    -0.0572    3.8465    0.0234 C.ar     1 ZINC000100018343   -0.1300
17     C17     1.1551    3.1764    0.0081 C.ar     1 ZINC000100018343    0.0800
18     O18     2.3208    3.8768    0.0003 O.3      1 ZINC000100018343   -0.4900
19     C19     1.1775    1.7847    0.0004 C.ar     1 ZINC000100018343    0.0800
20     O20     2.3652    1.1224   -0.0150 O.3      1 ZINC000100018343   -0.4900
21     C21    -0.0126    1.0758    0.0080 C.ar     1 ZINC000100018343   -0.1000
22     C22    -3.0246    0.8315   -1.4213 C.3      1 ZINC000100018343    0.0400
23     H23    -3.1802    1.8163   -1.8619 H        1 ZINC000100018343    0.0900
24     O24    -2.0805    0.0939   -2.2002 O.3      1 ZINC000100018343   -0.5400
25     H25    -6.9367   -1.7219   -1.1421 H        1 ZINC000100018343    0.3900
26     H26    -8.4314   -0.0136    0.8125 H        1 ZINC000100018343    0.1100
27     H27    -5.2433    2.1562    2.6628 H        1 ZINC000100018343    0.1200
28     H28    -2.1861    3.6564    0.0427 H        1 ZINC000100018343    0.1400
29     H29    -0.0774    4.9263    0.0297 H        1 ZINC000100018343    0.1300
30     H30     2.6491    4.0842   -0.8853 H        1 ZINC000100018343    0.3800
31     H31     2.7000    0.9359   -0.9028 H        1 ZINC000100018343    0.3800
32     H32     0.0021   -0.0041    0.0020 H        1 ZINC000100018343    0.1400
33     H33    -2.3449   -0.0337   -3.1215 H        1 ZINC000100018343    0.3900
@<TRIPOS>BOND
1     1     2     2
2     2     22    1
3     2     3     1
4     3     10    ar
5     3     4     ar
6     4     5     1
7     4     6     ar
8     5     25    1
9     6     7     ar
10    6     26    1
11    7     8     1
12    7     9     ar
13    9     10    ar
14    9     27    1
15    10    11    1
16    11    12    1
17    12    13    1
18    12    14    1
19    12    22    1
20    14    21    ar
21    14    15    ar
22    15    16    ar
23    15    28    1
24    16    17    ar
25    16    29    1
26    17    18    1
27    17    19    ar
28    18    30    1
29    19    20    1
30    19    21    ar
31    20    31    1
32    21    32    1
33    22    23    1
34    22    24    1
35    24    33    1
@<TRIPOS>SUBSTRUCTURE
1   ZINC000100018343 1     RESIDUE    1   A     ZIN   1
