@<TRIPOS>MOLECULE
ZINC000035836133
  56   59    0    0    0
SMALL
USER_CHARGES
NO_NAME
@<TRIPOS>ATOM
    1 C1       -0.0178     1.4608     0.0101 C.3    1 <0>       0.0700
    2 N2        0.0021    -0.0041     0.0020 N.pl3  1 <0>      -0.4700
    3 C3        0.0080    -0.7840    -1.1223 C.2    1 <0>       0.1200
    4 C4        0.0270    -2.0816    -0.7792 C.2    1 <0>      -0.2700
    5 C5        0.0395    -3.2578    -1.7212 C.3    1 <0>       0.0900
    6 N6       -1.3173    -3.8093    -1.8339 N.4    1 <0>      -0.5100
    7 H7       -1.6347    -4.1101    -0.9246 H      1 <0>       0.4300
    8 H8       -1.9403    -3.0999    -2.1899 H      1 <0>       0.4200
    9 C9       -1.3052    -4.9559    -2.7522 C.3    1 <0>      -0.0100
   10 C10      -2.7184    -5.5303    -2.8696 C.3    1 <0>      -0.1200
   11 C11      -3.6367    -4.4954    -3.5237 C.3    1 <0>      -0.1500
   12 C12      -5.0580    -5.0607    -3.6080 C.3    1 <0>       0.1200
   13 N13      -5.0123    -6.3531    -4.3053 N.pl3  1 <0>      -0.5800
   14 C14      -5.8154    -6.5890    -5.4016 C.ar   1 <0>       0.5800
   15 N15      -6.6283    -5.6289    -5.8230 N.ar   1 <0>      -0.5700
   16 C16      -7.4121    -5.8149    -6.8682 C.ar   1 <0>       0.2700
   17 C17      -7.3762    -7.0473    -7.5337 C.ar   1 <0>      -0.2900
   18 C18      -8.2347    -7.2993    -8.7070 C.2    1 <0>       0.5900
   19 O19      -8.9859    -6.4315    -9.1083 O.2    1 <0>      -0.5100
   20 N20      -8.1861    -8.4913    -9.3340 N.am   1 <0>      -0.5900
   21 O21      -9.0099    -8.7331   -10.4601 O.3    1 <0>      -0.3100
   22 C22      -6.5037    -8.0340    -7.0562 C.ar   1 <0>       0.2300
   23 N23      -5.7486    -7.7674    -6.0073 N.ar   1 <0>      -0.5700
   24 C24      -4.0944    -7.3894    -3.8129 C.3    1 <0>       0.1200
   25 C25      -2.6839    -6.7980    -3.7262 C.3    1 <0>      -0.1300
   26 C26       0.0339    -2.1375     0.6846 C.ar   1 <0>      -0.1000
   27 C27       0.0519    -3.1772     1.6159 C.ar   1 <0>      -0.0900
   28 C28       0.0536    -2.8911     2.9522 C.ar   1 <0>      -0.1200
   29 C29       0.0375    -1.5746     3.3914 C.ar   1 <0>      -0.0900
   30 C30       0.0196    -0.5331     2.4894 C.ar   1 <0>      -0.1100
   31 C31       0.0236    -0.8010     1.1246 C.ar   1 <0>       0.0900
   32 H32       1.0048     1.8381     0.0023 H      1 <0>       0.0800
   33 H33      -0.5450     1.8219    -0.8730 H      1 <0>       0.0900
   34 H34      -0.5280     1.8123     0.9069 H      1 <0>       0.0900
   35 H35      -0.0017    -0.4107    -2.1357 H      1 <0>       0.1800
   36 H36       0.3824    -2.9329    -2.7036 H      1 <0>       0.1300
   37 H37       0.7125    -4.0242    -1.3367 H      1 <0>       0.1300
   38 H38      -0.9623    -4.6310    -3.7345 H      1 <0>       0.1300
   39 H39      -0.6322    -5.7222    -2.3676 H      1 <0>       0.1300
   40 H40      -3.0952    -5.7735    -1.8761 H      1 <0>       0.1000
   41 H41      -3.6425    -3.5843    -2.9253 H      1 <0>       0.0700
   42 H42      -3.2746    -4.2701    -4.5268 H      1 <0>       0.0800
   43 H43      -5.4554    -5.2016    -2.6029 H      1 <0>       0.0700
   44 H44      -5.6940    -4.3694    -4.1610 H      1 <0>       0.1100
   45 H45      -8.0716    -5.0289    -7.2054 H      1 <0>       0.1900
   46 H46      -7.5868    -9.1836    -9.0139 H      1 <0>       0.4100
   47 H47      -8.9052    -9.6154   -10.8418 H      1 <0>       0.3900
   48 H48      -6.4472    -8.9971    -7.5416 H      1 <0>       0.1700
   49 H49      -4.4133    -7.7202    -2.8245 H      1 <0>       0.0700
   50 H50      -4.0946    -8.2347    -4.5011 H      1 <0>       0.1100
   51 H51      -2.3308    -6.5510    -4.7275 H      1 <0>       0.0800
   52 H52      -2.0115    -7.5258    -3.2721 H      1 <0>       0.0900
   53 H53       0.0642    -4.2041     1.2815 H      1 <0>       0.1200
   54 H54       0.0672    -3.6959     3.6723 H      1 <0>       0.1300
   55 H55       0.0387    -1.3645     4.4507 H      1 <0>       0.1400
   56 H56       0.0069     0.4880     2.8411 H      1 <0>       0.1300
@<TRIPOS>BOND
   1    1    2 1
   2    1   32 1
   3    1   33 1
   4    1   34 1
   5    2   31 1
   6    2    3 1
   7    3    4 2
   8    3   35 1
   9    4    5 1
  10    4   26 1
  11    5    6 1
  12    5   36 1
  13    5   37 1
  14    6    7 1
  15    6    8 1
  16    6    9 1
  17    9   10 1
  18    9   38 1
  19    9   39 1
  20   10   25 1
  21   10   11 1
  22   10   40 1
  23   11   12 1
  24   11   41 1
  25   11   42 1
  26   12   13 1
  27   12   43 1
  28   12   44 1
  29   13   14 1
  30   13   24 1
  31   14   23 ar
  32   14   15 ar
  33   15   16 ar
  34   16   17 ar
  35   16   45 1
  36   17   18 1
  37   17   22 ar
  38   18   19 2
  39   18   20 am
  40   20   21 1
  41   20   46 1
  42   21   47 1
  43   22   23 ar
  44   22   48 1
  45   24   25 1
  46   24   49 1
  47   24   50 1
  48   25   51 1
  49   25   52 1
  50   26   31 ar
  51   26   27 ar
  52   27   28 ar
  53   27   53 1
  54   28   29 ar
  55   28   54 1
  56   29   30 ar
  57   29   55 1
  58   30   31 ar
  59   30   56 1
