@<TRIPOS>MOLECULE
ZINC000003952532
80    82    1     0     0
SMALL
USER_CHARGES
@<TRIPOS>ATOM
1      C1     -0.0178    1.4608    0.0101 C.3      1 ZINC000003952532    0.0900
2      N2      0.0021   -0.0041    0.0020 N.am     1 ZINC000003952532   -0.7300
3      C3     -1.1558   -0.6938    0.0094 C.2      1 ZINC000003952532    0.5000
4      O4     -2.2142   -0.1017    0.0227 O.2      1 ZINC000003952532   -0.5200
5      C5     -1.1354   -2.2006    0.0011 C.3      1 ZINC000003952532    0.1300
6      H6     -0.6252   -2.5521   -0.8957 H        1 ZINC000003952532    0.1300
7      C7     -0.3954   -2.7074    1.2406 C.3      1 ZINC000003952532   -0.0900
8      C8     -0.2675   -4.2074    1.1710 C.ar     1 ZINC000003952532   -0.0800
9      C9     -1.2549   -5.0110    1.7096 C.ar     1 ZINC000003952532   -0.1100
10     C10    -1.1375   -6.3869    1.6457 C.ar     1 ZINC000003952532   -0.1200
11     C11    -0.0330   -6.9591    1.0428 C.ar     1 ZINC000003952532   -0.1200
12     C12     0.9539   -6.1555    0.5034 C.ar     1 ZINC000003952532   -0.1200
13     C13     0.8345   -4.7796    0.5635 C.ar     1 ZINC000003952532   -0.1100
14     N14    -2.5098   -2.7077    0.0115 N.am     1 ZINC000003952532   -0.5800
15     C15    -3.4060   -2.3720    1.1207 C.3      1 ZINC000003952532    0.0700
16     C16    -2.9497   -3.4830   -0.9994 C.2      1 ZINC000003952532    0.5200
17     O17    -2.2077   -3.7609   -1.9176 O.2      1 ZINC000003952532   -0.5300
18     C18    -4.3635   -4.0046   -0.9887 C.3      1 ZINC000003952532    0.1400
19     H19    -4.5180   -4.6172   -0.1004 H        1 ZINC000003952532    0.1300
20     C20    -5.3412   -2.8279   -0.9730 C.3      1 ZINC000003952532   -0.1000
21     C21    -6.7496   -3.3467   -0.8385 C.ar     1 ZINC000003952532   -0.0800
22     C22    -7.4818   -3.6494   -1.9847 C.ar     1 ZINC000003952532   -0.1100
23     C23    -8.7563   -4.1198   -1.8983 C.ar     1 ZINC000003952532   -0.1000
24     C24    -9.3452   -4.3041   -0.6361 C.ar     1 ZINC000003952532   -0.0500
25     C25   -10.6583   -4.7884   -0.5069 C.ar     1 ZINC000003952532   -0.1100
26     C26   -11.1957   -4.9546    0.7323 C.ar     1 ZINC000003952532   -0.1100
27     C27   -10.4633   -4.6517    1.8788 C.ar     1 ZINC000003952532   -0.1100
28     C28    -9.1894   -4.1809    1.7925 C.ar     1 ZINC000003952532   -0.1100
29     C29    -8.6003   -3.9962    0.5299 C.ar     1 ZINC000003952532   -0.0500
30     C30    -7.2855   -3.5179    0.4011 C.ar     1 ZINC000003952532   -0.0900
31     N31    -4.5940   -4.8152   -2.1871 N.am     1 ZINC000003952532   -0.5800
32     C32    -4.4479   -4.2159   -3.5159 C.3      1 ZINC000003952532    0.0700
33     C33    -4.9406   -6.1121   -2.0670 C.2      1 ZINC000003952532    0.5500
34     O34    -5.0619   -6.6095   -0.9639 O.2      1 ZINC000003952532   -0.5300
35     C35    -5.1721   -6.9259   -3.2704 C.2      1 ZINC000003952532   -0.1700
36     C36    -5.5140   -8.2057   -3.1519 C.2      1 ZINC000003952532   -0.0900
37     C37    -5.7512   -9.0394   -4.3847 C.3      1 ZINC000003952532   -0.1100
38     C38    -4.8607  -10.2827   -4.3386 C.3      1 ZINC000003952532    0.0600
39     C39    -3.3922   -9.8566   -4.2859 C.3      1 ZINC000003952532   -0.1800
40     C40    -5.1979  -11.1057   -3.0936 C.3      1 ZINC000003952532   -0.1800
41     N41    -5.0919  -11.0954   -5.5402 N.4      1 ZINC000003952532   -0.6300
42     H42    -4.8695  -10.5527   -6.3613 H        1 ZINC000003952532    0.4300
43     H43    -4.5046  -11.9154   -5.5098 H        1 ZINC000003952532    0.4400
44     H44    -6.0603  -11.3765   -5.5750 H        1 ZINC000003952532    0.4300
45     H45     1.0048    1.8381    0.0023 H        1 ZINC000003952532    0.0800
46     H46    -0.5450    1.8219   -0.8730 H        1 ZINC000003952532    0.0600
47     H47    -0.5280    1.8123    0.9069 H        1 ZINC000003952532    0.0600
48     H48     0.8486   -0.4776   -0.0086 H        1 ZINC000003952532    0.4000
49     H49     0.5976   -2.2595    1.2794 H        1 ZINC000003952532    0.0900
50     H50    -0.9537   -2.4315    2.1352 H        1 ZINC000003952532    0.0900
51     H51    -2.1178   -4.5639    2.1806 H        1 ZINC000003952532    0.1200
52     H52    -1.9086   -7.0148    2.0672 H        1 ZINC000003952532    0.1200
53     H53     0.0590   -8.0341    0.9936 H        1 ZINC000003952532    0.1200
54     H54     1.8170   -6.6026    0.0327 H        1 ZINC000003952532    0.1200
55     H55     1.6056   -4.1518    0.1420 H        1 ZINC000003952532    0.1200
56     H56    -3.9412   -1.4510    0.8894 H        1 ZINC000003952532    0.0800
57     H57    -4.1216   -3.1810    1.2672 H        1 ZINC000003952532    0.0700
58     H58    -2.8221   -2.2341    2.0307 H        1 ZINC000003952532    0.0800
59     H59    -5.1119   -2.1762   -0.1298 H        1 ZINC000003952532    0.1100
60     H60    -5.2482   -2.2659   -1.9023 H        1 ZINC000003952532    0.0900
61     H61    -7.0316   -3.5083   -2.9561 H        1 ZINC000003952532    0.1200
62     H62    -9.3119   -4.3499   -2.7954 H        1 ZINC000003952532    0.1200
63     H63   -11.2379   -5.0269   -1.3864 H        1 ZINC000003952532    0.1300
64     H64   -12.2051   -5.3265    0.8288 H        1 ZINC000003952532    0.1200
65     H65   -10.9137   -4.7923    2.8503 H        1 ZINC000003952532    0.1300
66     H66    -8.6341   -3.9500    2.6896 H        1 ZINC000003952532    0.1300
67     H67    -6.7045   -3.2836    1.2808 H        1 ZINC000003952532    0.1300
68     H68    -3.4192   -4.3335   -3.8564 H        1 ZINC000003952532    0.0700
69     H69    -5.1209   -4.7130   -4.2146 H        1 ZINC000003952532    0.0700
70     H70    -4.6950   -3.1555   -3.4654 H        1 ZINC000003952532    0.0700
71     H71    -5.0644   -6.4842   -4.2500 H        1 ZINC000003952532    0.1300
72     H72    -5.6217   -8.6474   -2.1723 H        1 ZINC000003952532    0.1400
73     H73    -6.7974   -9.3430   -4.4222 H        1 ZINC000003952532    0.1100
74     H74    -5.5109   -8.4531   -5.2716 H        1 ZINC000003952532    0.1000
75     H75    -3.2206   -9.2535   -3.3942 H        1 ZINC000003952532    0.1100
76     H76    -2.7578  -10.7423   -4.2530 H        1 ZINC000003952532    0.0800
77     H77    -3.1519   -9.2703   -5.1728 H        1 ZINC000003952532    0.0800
78     H78    -6.2441  -11.4093   -3.1312 H        1 ZINC000003952532    0.0800
79     H79    -4.5635  -11.9914   -3.0608 H        1 ZINC000003952532    0.0900
80     H80    -5.0264  -10.5027   -2.2020 H        1 ZINC000003952532    0.1100
@<TRIPOS>BOND
1     1     2     1
2     1     45    1
3     1     46    1
4     1     47    1
5     2     3     am
6     2     48    1
7     3     4     2
8     3     5     1
9     5     6     1
10    5     7     1
11    5     14    1
12    7     8     1
13    7     49    1
14    7     50    1
15    8     13    ar
16    8     9     ar
17    9     10    ar
18    9     51    1
19    10    11    ar
20    10    52    1
21    11    12    ar
22    11    53    1
23    12    13    ar
24    12    54    1
25    13    55    1
26    14    15    1
27    14    16    am
28    15    56    1
29    15    57    1
30    15    58    1
31    16    17    2
32    16    18    1
33    18    19    1
34    18    20    1
35    18    31    1
36    20    21    1
37    20    59    1
38    20    60    1
39    21    30    ar
40    21    22    ar
41    22    23    ar
42    22    61    1
43    23    24    ar
44    23    62    1
45    24    29    ar
46    24    25    ar
47    25    26    ar
48    25    63    1
49    26    27    ar
50    26    64    1
51    27    28    ar
52    27    65    1
53    28    29    ar
54    28    66    1
55    29    30    ar
56    30    67    1
57    31    32    1
58    31    33    am
59    32    68    1
60    32    69    1
61    32    70    1
62    33    34    2
63    33    35    1
64    35    36    2
65    35    71    1
66    36    37    1
67    36    72    1
68    37    38    1
69    37    73    1
70    37    74    1
71    38    39    1
72    38    40    1
73    38    41    1
74    39    75    1
75    39    76    1
76    39    77    1
77    40    78    1
78    40    79    1
79    40    80    1
80    41    42    1
81    41    43    1
82    41    44    1
@<TRIPOS>SUBSTRUCTURE
1   ZINC000003952532 1     RESIDUE    1   A     ZIN   1
