@<TRIPOS>MOLECULE
ZINC000000001957
34    36    1     0     0
SMALL
USER_CHARGES
@<TRIPOS>ATOM
1      O1     -4.6042    2.2630    2.3839 O.co2    1 ZINC000000001957   -0.6800
2      C2     -5.3941    2.1650    1.4604 C.2      1 ZINC000000001957    0.5000
3      O3     -6.5817    2.0089    1.6879 O.co2    1 ZINC000000001957   -0.7000
4      C4     -4.9025    2.2370    0.0376 C.3      1 ZINC000000001957   -0.1300
5      C5     -3.4082    2.4320    0.0317 C.2      1 ZINC000000001957    0.1700
6      N6     -2.5107    1.4817    0.0225 N.2      1 ZINC000000001957   -0.2900
7      N7     -1.2399    2.0695    0.0192 N.pl3    1 ZINC000000001957   -0.3300
8      C8     -0.0168    1.3842    0.0097 C.ar     1 ZINC000000001957    0.1700
9      C9      1.1771    2.0929    0.0021 C.ar     1 ZINC000000001957   -0.1200
10     C10     2.3808    1.4161   -0.0131 C.ar     1 ZINC000000001957   -0.1200
11     C11     2.3975    0.0313   -0.0207 C.ar     1 ZINC000000001957    0.0700
12     F12     3.5761   -0.6290   -0.0350 F        1 ZINC000000001957   -0.1400
13     C13     1.2078   -0.6773   -0.0131 C.ar     1 ZINC000000001957   -0.1200
14     C14     0.0021   -0.0041    0.0020 C.ar     1 ZINC000000001957   -0.1000
15     C15    -1.3963    3.4114    0.0326 C.2      1 ZINC000000001957    0.0600
16     C16    -2.7360    3.6701    0.0346 C.2      1 ZINC000000001957   -0.1800
17     C17    -3.3702    5.0125    0.0438 C.ar     1 ZINC000000001957    0.0200
18     C18    -4.3691    5.3197   -0.8774 C.ar     1 ZINC000000001957   -0.1000
19     C19    -4.9587    6.5674   -0.8622 C.ar     1 ZINC000000001957   -0.1100
20     C20    -4.5522    7.5163    0.0602 C.ar     1 ZINC000000001957   -0.0400
21     Cl21   -5.2932    9.0861    0.0705 Cl       1 ZINC000000001957   -0.0800
22     C22    -3.5563    7.2174    0.9741 C.ar     1 ZINC000000001957   -0.1100
23     C23    -2.9642    5.9708    0.9698 C.ar     1 ZINC000000001957   -0.1000
24     H24    -5.3803    3.0750   -0.4699 H        1 ZINC000000001957    0.0800
25     H25    -5.1500    1.3100   -0.4796 H        1 ZINC000000001957    0.0800
26     H26     1.1644    3.1728    0.0083 H        1 ZINC000000001957    0.1400
27     H27     3.3096    1.9671   -0.0190 H        1 ZINC000000001957    0.1400
28     H28     1.2228   -1.7572   -0.0194 H        1 ZINC000000001957    0.1400
29     H29    -0.9256   -0.5571    0.0083 H        1 ZINC000000001957    0.1500
30     H30    -0.6046    4.1459    0.0385 H        1 ZINC000000001957    0.1800
31     H31    -4.6843    4.5813   -1.5998 H        1 ZINC000000001957    0.1300
32     H32    -5.7358    6.8053   -1.5735 H        1 ZINC000000001957    0.1300
33     H33    -3.2419    7.9611    1.6914 H        1 ZINC000000001957    0.1300
34     H34    -2.1875    5.7385    1.6834 H        1 ZINC000000001957    0.1300
@<TRIPOS>BOND
1     1     2     ar
2     2     3     ar
3     2     4     1
4     4     5     1
5     4     24    1
6     4     25    1
7     5     16    1
8     5     6     2
9     6     7     1
10    7     8     1
11    7     15    1
12    8     14    ar
13    8     9     ar
14    9     10    ar
15    9     26    1
16    10    11    ar
17    10    27    1
18    11    12    1
19    11    13    ar
20    13    14    ar
21    13    28    1
22    14    29    1
23    15    16    2
24    15    30    1
25    16    17    1
26    17    23    ar
27    17    18    ar
28    18    19    ar
29    18    31    1
30    19    20    ar
31    19    32    1
32    20    21    1
33    20    22    ar
34    22    23    ar
35    22    33    1
36    23    34    1
@<TRIPOS>SUBSTRUCTURE
1   ZINC000000001957 1     RESIDUE    1   A     ZIN   1
