@<TRIPOS>MOLECULE
ZINC000027637698
  44   45    0    0    0
SMALL
USER_CHARGES
NO_NAME
@<TRIPOS>ATOM
    1 C1       -0.0187     1.5258     0.0104 C.3    1 <0>      -0.1800
    2 C2        0.0021    -0.0041     0.0020 C.3    1 <0>      -0.1500
    3 C3       -1.4333    -0.5336     0.0129 C.3    1 <0>       0.0200
    4 H4       -1.9701    -0.1109     0.8621 H      1 <0>       0.1400
    5 C5       -1.4133    -2.0590     0.1302 C.3    1 <0>      -0.1800
    6 N6       -2.1072    -0.1473    -1.2339 N.4    1 <0>      -0.5100
    7 H7       -2.0484     0.8531    -1.3520 H      1 <0>       0.4300
    8 H8       -1.6598    -0.6049    -2.0139 H      1 <0>       0.4300
    9 C9       -3.5184    -0.5510    -1.1732 C.3    1 <0>      -0.0500
   10 C10      -4.2203    -0.1485    -2.4717 C.3    1 <0>       0.1400
   11 H11      -4.0806     0.9186    -2.6447 H      1 <0>       0.1300
   12 O12      -3.6631    -0.8848    -3.5624 O.3    1 <0>      -0.5500
   13 C13      -5.6925    -0.4510    -2.3616 C.ar   1 <0>      -0.1500
   14 C14      -6.1513    -1.7413    -2.5489 C.ar   1 <0>      -0.1100
   15 C15      -7.5010    -2.0098    -2.4495 C.ar   1 <0>      -0.1100
   16 C16      -8.4034    -0.9939    -2.1628 C.ar   1 <0>      -0.0500
   17 C17      -9.8638    -1.3544    -2.0836 C.3    1 <0>      -0.0900
   18 C18     -10.6475    -0.2639    -1.3562 C.3    1 <0>      -0.1200
   19 C19     -10.3091     1.0861    -1.9994 C.3    1 <0>      -0.1200
   20 C20      -8.8653     1.4391    -1.6477 C.3    1 <0>      -0.0900
   21 C21      -7.9457     0.2906    -1.9706 C.ar   1 <0>      -0.0700
   22 C22      -6.5865     0.5581    -2.0677 C.ar   1 <0>      -0.1000
   23 H23       1.0039     1.9031     0.0027 H      1 <0>       0.0800
   24 H24      -0.5459     1.8868    -0.8726 H      1 <0>       0.0500
   25 H25      -0.5289     1.8773     0.9072 H      1 <0>       0.0700
   26 H26       0.5123    -0.3556    -0.8948 H      1 <0>       0.0900
   27 H27       0.5293    -0.3651     0.8851 H      1 <0>       0.1100
   28 H28      -0.9132    -2.3457     1.0553 H      1 <0>       0.1100
   29 H29      -2.4359    -2.4363     0.1380 H      1 <0>       0.0800
   30 H30      -0.8764    -2.4817    -0.7190 H      1 <0>       0.0800
   31 H31      -3.5820    -1.6316    -1.0456 H      1 <0>       0.1400
   32 H32      -4.0018    -0.0565    -0.3306 H      1 <0>       0.1400
   33 H33      -3.7516    -1.8438    -3.4755 H      1 <0>       0.3900
   34 H34      -5.4557    -2.5366    -2.7727 H      1 <0>       0.1200
   35 H35      -7.8587    -3.0182    -2.5961 H      1 <0>       0.1300
   36 H36     -10.2606    -1.4703    -3.0922 H      1 <0>       0.0800
   37 H37      -9.9729    -2.2956    -1.5448 H      1 <0>       0.0800
   38 H38     -11.7164    -0.4566    -1.4482 H      1 <0>       0.0700
   39 H39     -10.3659    -0.2497    -0.3033 H      1 <0>       0.0700
   40 H40     -10.4161     1.0142    -3.0817 H      1 <0>       0.0700
   41 H41     -10.9791     1.8546    -1.6140 H      1 <0>       0.0700
   42 H42      -8.5601     2.3156    -2.2192 H      1 <0>       0.0800
   43 H43      -8.7993     1.6640    -0.5832 H      1 <0>       0.0800
   44 H44      -6.2267     1.5651    -1.9163 H      1 <0>       0.1300
@<TRIPOS>BOND
   1    1    2 1
   2    1   23 1
   3    1   24 1
   4    1   25 1
   5    2    3 1
   6    2   26 1
   7    2   27 1
   8    3    4 1
   9    3    5 1
  10    3    6 1
  11    5   28 1
  12    5   29 1
  13    5   30 1
  14    6    7 1
  15    6    8 1
  16    6    9 1
  17    9   10 1
  18    9   31 1
  19    9   32 1
  20   10   11 1
  21   10   12 1
  22   10   13 1
  23   12   33 1
  24   13   22 ar
  25   13   14 ar
  26   14   15 ar
  27   14   34 1
  28   15   16 ar
  29   15   35 1
  30   16   21 ar
  31   16   17 1
  32   17   18 1
  33   17   36 1
  34   17   37 1
  35   18   19 1
  36   18   38 1
  37   18   39 1
  38   19   20 1
  39   19   40 1
  40   19   41 1
  41   20   21 1
  42   20   42 1
  43   20   43 1
  44   21   22 ar
  45   22   44 1
