@<TRIPOS>MOLECULE
ZINC000008463351
43    46    1     0     0
SMALL
USER_CHARGES
@<TRIPOS>ATOM
1      C1     -0.0173    1.4248    0.0099 C.3      1 ZINC000008463351    0.0200
2      O2      0.0021   -0.0041    0.0020 O.3      1 ZINC000008463351   -0.3000
3      C3     -1.1988   -0.6367    0.0101 C.ar     1 ZINC000008463351    0.1800
4      C4     -2.3919    0.0841    0.0195 C.ar     1 ZINC000008463351   -0.2600
5      C5     -3.5886   -0.6029    0.0282 C.ar     1 ZINC000008463351    0.1400
6      N6     -3.6157   -1.9223    0.0289 N.ar     1 ZINC000008463351   -0.4900
7      C7     -2.5027   -2.6374    0.0204 C.ar     1 ZINC000008463351    0.2000
8      C8     -1.2791   -2.0267    0.0034 C.ar     1 ZINC000008463351   -0.1800
9      C9     -0.0112   -2.8528   -0.0147 C.3      1 ZINC000008463351   -0.0800
10     C10     0.1566   -3.5128    1.3567 C.3      1 ZINC000008463351   -0.1200
11     C11    -0.6149   -4.8160    1.4266 C.3      1 ZINC000008463351   -0.1400
12     C12    -2.1219   -4.6542    1.3973 C.3      1 ZINC000008463351   -0.0900
13     C13    -2.5931   -4.1502    0.0247 C.3      1 ZINC000008463351   -0.3800
14     H14    -3.6256   -4.4565   -0.1432 H        1 ZINC000008463351    0.1300
15     S15    -1.5332   -4.8412   -1.2751 S.o      1 ZINC000008463351    1.4100
16     O16    -1.8767   -6.2029   -1.4923 O.2      1 ZINC000008463351   -0.8100
17     C17    -2.1237   -4.0462   -2.7325 C.2      1 ZINC000008463351   -0.0700
18     N18    -3.0761   -4.4989   -3.4946 N.2      1 ZINC000008463351   -0.4200
19     C19    -3.2793   -3.6426   -4.5286 C.ar     1 ZINC000008463351    0.0300
20     C20    -4.1557   -3.6364   -5.6166 C.ar     1 ZINC000008463351   -0.0500
21     C21    -4.1198   -2.6066   -6.5139 C.ar     1 ZINC000008463351   -0.1300
22     C22    -3.2198   -1.5625   -6.3572 C.ar     1 ZINC000008463351   -0.0900
23     C23    -2.3451   -1.5478   -5.2913 C.ar     1 ZINC000008463351   -0.1200
24     C24    -2.3674   -2.5851   -4.3694 C.ar     1 ZINC000008463351    0.0700
25     N25    -1.6543   -2.8667   -3.2213 N.pl3    1 ZINC000008463351   -0.5600
26     H26     1.0053    1.8021    0.0021 H        1 ZINC000008463351    0.1100
27     H27    -0.5445    1.7859   -0.8732 H        1 ZINC000008463351    0.0600
28     H28    -0.5275    1.7763    0.9067 H        1 ZINC000008463351    0.0600
29     H29    -2.3798    1.1640    0.0204 H        1 ZINC000008463351    0.1400
30     H30    -4.5176   -0.0522    0.0349 H        1 ZINC000008463351    0.1600
31     H31    -0.0854   -3.6210   -0.7844 H        1 ZINC000008463351    0.0600
32     H32     0.8436   -2.2076   -0.2179 H        1 ZINC000008463351    0.1000
33     H33     1.2139   -3.7123    1.5316 H        1 ZINC000008463351    0.0900
34     H34    -0.2120   -2.8362    2.1277 H        1 ZINC000008463351    0.0800
35     H35    -0.3176   -5.4395    0.5834 H        1 ZINC000008463351    0.0500
36     H36    -0.3403   -5.3315    2.3469 H        1 ZINC000008463351    0.0900
37     H37    -2.5893   -5.6169    1.6043 H        1 ZINC000008463351    0.0800
38     H38    -2.4202   -3.9400    2.1648 H        1 ZINC000008463351    0.0800
39     H39    -4.8601   -4.4444   -5.7483 H        1 ZINC000008463351    0.1300
40     H40    -4.7987   -2.6056   -7.3539 H        1 ZINC000008463351    0.1300
41     H41    -3.2039   -0.7558   -7.0752 H        1 ZINC000008463351    0.1300
42     H42    -1.6460   -0.7329   -5.1743 H        1 ZINC000008463351    0.1300
43     H43    -0.9486   -2.3244   -2.8353 H        1 ZINC000008463351    0.4200
@<TRIPOS>BOND
1     1     2     1
2     1     26    1
3     1     27    1
4     1     28    1
5     2     3     1
6     3     8     ar
7     3     4     ar
8     4     5     ar
9     4     29    1
10    5     6     ar
11    5     30    1
12    6     7     ar
13    7     13    1
14    7     8     ar
15    8     9     1
16    9     10    1
17    9     31    1
18    9     32    1
19    10    11    1
20    10    33    1
21    10    34    1
22    11    12    1
23    11    35    1
24    11    36    1
25    12    13    1
26    12    37    1
27    12    38    1
28    13    14    1
29    13    15    1
30    15    16    2
31    15    17    1
32    17    25    1
33    17    18    2
34    18    19    1
35    19    24    ar
36    19    20    ar
37    20    21    ar
38    20    39    1
39    21    22    ar
40    21    40    1
41    22    23    ar
42    22    41    1
43    23    24    ar
44    23    42    1
45    24    25    1
46    25    43    1
@<TRIPOS>SUBSTRUCTURE
1   ZINC000008463351 1     RESIDUE    1   A     ZIN   1
