@<TRIPOS>MOLECULE
ZINC000003820402
57    58    1     0     0
SMALL
USER_CHARGES
@<TRIPOS>ATOM
1      C1      0.1629    1.5753    0.1549 C.3      1 ZINC000003820402   -0.1500
2      C2      0.1688    0.0453    0.1562 C.3      1 ZINC000003820402    0.0600
3      O3      0.9158   -0.4272    1.2790 O.3      1 ZINC000003820402   -0.4000
4      C4      0.9836   -1.8514    1.3742 C.3      1 ZINC000003820402    0.2200
5      O5      1.8982   -2.3511    0.3965 O.3      1 ZINC000003820402   -0.3900
6      C6      3.2728   -2.1385    0.7242 C.3      1 ZINC000003820402    0.0600
7      C7      4.1562   -2.7104   -0.3864 C.3      1 ZINC000003820402    0.1500
8      H8      5.1994   -2.4704   -0.1807 H        1 ZINC000003820402    0.1100
9      C9      3.7475   -2.0998   -1.7284 C.3      1 ZINC000003820402   -0.1000
10     C10     4.7094   -2.5754   -2.8191 C.3      1 ZINC000003820402   -0.1000
11     H11     4.7384   -3.6649   -2.8281 H        1 ZINC000003820402    0.0800
12     C12     6.1107   -2.0302   -2.5364 C.3      1 ZINC000003820402   -0.1300
13     C13     4.2364   -2.0743   -4.1594 C.2      1 ZINC000003820402    0.4600
14     O14     3.2292   -1.4030   -4.2348 O.2      1 ZINC000003820402   -0.6000
15     N15     4.9327   -2.3722   -5.2742 N.am     1 ZINC000003820402   -0.5400
16     O16     4.4883   -1.9015   -6.5335 O.3      1 ZINC000003820402   -0.7000
17     N17     3.9914   -4.1651   -0.4412 N.am     1 ZINC000003820402   -0.7100
18     C18     4.9753   -4.9362   -0.9449 C.2      1 ZINC000003820402    0.5500
19     O19     5.9997   -4.4246   -1.3538 O.2      1 ZINC000003820402   -0.5200
20     C20     4.8092   -6.4018   -1.0002 C.ar     1 ZINC000003820402   -0.1300
21     C21     3.6302   -6.9912   -0.5360 C.ar     1 ZINC000003820402   -0.0700
22     C22     3.4791   -8.3588   -0.5892 C.ar     1 ZINC000003820402   -0.1300
23     C23     4.4974   -9.1530   -1.1038 C.ar     1 ZINC000003820402    0.1100
24     O24     4.3448  -10.5004   -1.1546 O.3      1 ZINC000003820402   -0.2600
25     C25     5.1346  -11.2625   -0.3534 C.ar     1 ZINC000003820402    0.1200
26     C26     5.1093  -12.6454   -0.4653 C.ar     1 ZINC000003820402   -0.1500
27     C27     5.9132  -13.4178    0.3504 C.ar     1 ZINC000003820402   -0.0800
28     C28     6.7421  -12.8142    1.2780 C.ar     1 ZINC000003820402   -0.1500
29     C29     6.7691  -11.4364    1.3915 C.ar     1 ZINC000003820402   -0.0800
30     C30     5.9718  -10.6591    0.5740 C.ar     1 ZINC000003820402   -0.1900
31     C31     5.6716   -8.5704   -1.5670 C.ar     1 ZINC000003820402   -0.1500
32     C32     5.8282   -7.2031   -1.5221 C.ar     1 ZINC000003820402   -0.0400
33     H33     1.1872    1.9425    0.0904 H        1 ZINC000003820402    0.0600
34     H34    -0.4069    1.9358   -0.7016 H        1 ZINC000003820402    0.0700
35     H35    -0.2957    1.9377    1.0749 H        1 ZINC000003820402    0.0600
36     H36    -0.8555   -0.3218    0.2207 H        1 ZINC000003820402    0.0500
37     H37     0.6274   -0.3170   -0.7639 H        1 ZINC000003820402    0.0600
38     H38     1.3263   -2.1331    2.3698 H        1 ZINC000003820402    0.0900
39     H39    -0.0050   -2.2749    1.1969 H        1 ZINC000003820402    0.0900
40     H40     3.4613   -1.0696    0.8244 H        1 ZINC000003820402    0.0700
41     H41     3.5034   -2.6379    1.6653 H        1 ZINC000003820402    0.0500
42     H42     2.7334   -2.4133   -1.9764 H        1 ZINC000003820402    0.0800
43     H43     3.7852   -1.0127   -1.6595 H        1 ZINC000003820402    0.0700
44     H44     6.4528   -2.3926   -1.5670 H        1 ZINC000003820402    0.0700
45     H45     6.7960   -2.3689   -3.3134 H        1 ZINC000003820402    0.0500
46     H46     6.0817   -0.9406   -2.5273 H        1 ZINC000003820402    0.0400
47     H47     5.7383   -2.9091   -5.2139 H        1 ZINC000003820402    0.3500
48     H48     3.1741   -4.5732   -0.1150 H        1 ZINC000003820402    0.4000
49     H49     2.8388   -6.3749   -0.1357 H        1 ZINC000003820402    0.1400
50     H50     2.5684   -8.8151   -0.2303 H        1 ZINC000003820402    0.1400
51     H51     4.4616  -13.1173   -1.1892 H        1 ZINC000003820402    0.1300
52     H52     5.8939  -14.4942    0.2637 H        1 ZINC000003820402    0.1300
53     H53     7.3692  -13.4200    1.9153 H        1 ZINC000003820402    0.1200
54     H54     7.4171  -10.9675    2.1171 H        1 ZINC000003820402    0.1300
55     H55     5.9933   -9.5830    0.6631 H        1 ZINC000003820402    0.1300
56     H56     6.4603   -9.1907   -1.9665 H        1 ZINC000003820402    0.1400
57     H57     6.7405   -6.7512   -1.8824 H        1 ZINC000003820402    0.1500
@<TRIPOS>BOND
1     1     2     1
2     1     33    1
3     1     34    1
4     1     35    1
5     2     3     1
6     2     36    1
7     2     37    1
8     3     4     1
9     4     5     1
10    4     38    1
11    4     39    1
12    5     6     1
13    6     7     1
14    6     40    1
15    6     41    1
16    7     8     1
17    7     9     1
18    7     17    1
19    9     10    1
20    9     42    1
21    9     43    1
22    10    11    1
23    10    12    1
24    10    13    1
25    12    44    1
26    12    45    1
27    12    46    1
28    13    14    2
29    13    15    am
30    15    16    1
31    15    47    1
32    17    18    am
33    17    48    1
34    18    19    2
35    18    20    1
36    20    32    ar
37    20    21    ar
38    21    22    ar
39    21    49    1
40    22    23    ar
41    22    50    1
42    23    24    1
43    23    31    ar
44    24    25    1
45    25    30    ar
46    25    26    ar
47    26    27    ar
48    26    51    1
49    27    28    ar
50    27    52    1
51    28    29    ar
52    28    53    1
53    29    30    ar
54    29    54    1
55    30    55    1
56    31    32    ar
57    31    56    1
58    32    57    1
@<TRIPOS>SUBSTRUCTURE
1   ZINC000003820402 1     RESIDUE    1   A     ZIN   1
