@<TRIPOS>MOLECULE
ZINC000144763934
48    52    1     0     0
SMALL
USER_CHARGES
@<TRIPOS>ATOM
1      O1     -1.1080    1.2131    0.7171 O.3      1 ZINC000144763934   -0.5300
2      N2     -0.6264    2.5017    1.0526 N.ar     1 ZINC000144763934   -0.1100
3      C3     -1.3873    3.3033    1.7745 C.ar     1 ZINC000144763934    0.0800
4      C4     -0.9570    4.5700    2.1252 C.ar     1 ZINC000144763934   -0.1100
5      C5      0.2915    5.0002    1.7108 C.ar     1 ZINC000144763934   -0.0300
6      C6      1.0741    4.1284    0.9474 C.ar     1 ZINC000144763934   -0.0600
7      C7      2.4193    4.5391    0.4775 C.ar     1 ZINC000144763934    0.2300
8      C8      3.5276    3.7338    0.7824 C.ar     1 ZINC000144763934   -0.1500
9      C9      3.3450    2.4675    1.5788 C.3      1 ZINC000144763934    0.1500
10     H10     2.3663    2.0397    1.3616 H        1 ZINC000144763934    0.1500
11     N11     4.3896    1.5069    1.2150 N.pl3    1 ZINC000144763934   -0.6800
12     C12     4.1467    0.1533    1.3156 C.ar     1 ZINC000144763934    0.4900
13     C13     5.1472   -0.7934    0.9737 C.ar     1 ZINC000144763934   -0.0100
14     N14     6.3511   -0.4211    0.5455 N.ar     1 ZINC000144763934   -0.4500
15     C15     7.2657   -1.3087    0.2337 C.ar     1 ZINC000144763934    0.1200
16     C16     7.0216   -2.6769    0.3348 C.ar     1 ZINC000144763934   -0.1300
17     C17     5.8047   -3.1229    0.7685 C.ar     1 ZINC000144763934   -0.0600
18     C18     4.8301   -2.1663    1.1012 C.ar     1 ZINC000144763934    0.1400
19     N19     3.6113   -2.5136    1.5350 N.ar     1 ZINC000144763934   -0.5400
20     C20     2.7257   -1.5937    1.8371 C.ar     1 ZINC000144763934    0.3600
21     N21     2.9750   -0.2976    1.7393 N.ar     1 ZINC000144763934   -0.5700
22     C22     3.4425    2.7857    3.0722 C.3      1 ZINC000144763934    0.4400
23     F23     2.4450    3.7030    3.4196 F        1 ZINC000144763934   -0.1700
24     F24     3.2730    1.6102    3.8114 F        1 ZINC000144763934   -0.1600
25     F25     4.6987    3.3348    3.3509 F        1 ZINC000144763934   -0.1800
26     C26     4.7698    4.0997    0.3560 C.ar     1 ZINC000144763934   -0.0200
27     C27     4.8971    5.2905   -0.3861 C.ar     1 ZINC000144763934   -0.0800
28     C28     6.1463    5.7256   -0.8562 C.ar     1 ZINC000144763934   -0.0900
29     C29     6.2324    6.8816   -1.5709 C.ar     1 ZINC000144763934   -0.1000
30     C30     5.0962    7.6407   -1.8431 C.ar     1 ZINC000144763934   -0.0800
31     C31     3.8683    7.2497   -1.4027 C.ar     1 ZINC000144763934   -0.0200
32     Cl32    2.4682    8.2136   -1.7553 Cl       1 ZINC000144763934   -0.0300
33     C33     3.7389    6.0601   -0.6611 C.ar     1 ZINC000144763934    0.1400
34     N34     2.5464    5.6502   -0.2222 N.ar     1 ZINC000144763934   -0.4300
35     C35     0.5718    2.8657    0.6398 C.ar     1 ZINC000144763934    0.0800
36     H36    -2.3611    2.9647    2.0960 H        1 ZINC000144763934    0.1900
37     H37    -1.5887    5.2169    2.7159 H        1 ZINC000144763934    0.1700
38     H38     0.6521    5.9846    1.9702 H        1 ZINC000144763934    0.1600
39     H39     5.2520    1.8231    0.9032 H        1 ZINC000144763934    0.4300
40     H40     8.2318   -0.9704   -0.1104 H        1 ZINC000144763934    0.1700
41     H41     7.7935   -3.3844    0.0704 H        1 ZINC000144763934    0.1500
42     H42     5.5979   -4.1796    0.8527 H        1 ZINC000144763934    0.1500
43     H43     1.7522   -1.9078    2.1836 H        1 ZINC000144763934    0.2100
44     H44     5.6341    3.4926    0.5816 H        1 ZINC000144763934    0.1500
45     H45     7.0348    5.1466   -0.6518 H        1 ZINC000144763934    0.1400
46     H46     7.1945    7.2147   -1.9313 H        1 ZINC000144763934    0.1500
47     H47     5.1909    8.5539   -2.4120 H        1 ZINC000144763934    0.1500
48     H48     1.1658    2.1821    0.0513 H        1 ZINC000144763934    0.1800
@<TRIPOS>BOND
1     1     2     1
2     2     35    ar
3     2     3     ar
4     3     4     ar
5     3     36    1
6     4     5     ar
7     4     37    1
8     5     6     ar
9     5     38    1
10    6     7     1
11    6     35    ar
12    7     34    ar
13    7     8     ar
14    8     9     1
15    8     26    ar
16    9     10    1
17    9     11    1
18    9     22    1
19    11    12    1
20    11    39    1
21    12    21    ar
22    12    13    ar
23    13    18    ar
24    13    14    ar
25    14    15    ar
26    15    16    ar
27    15    40    1
28    16    17    ar
29    16    41    1
30    17    18    ar
31    17    42    1
32    18    19    ar
33    19    20    ar
34    20    21    ar
35    20    43    1
36    22    23    1
37    22    24    1
38    22    25    1
39    26    27    ar
40    26    44    1
41    27    33    ar
42    27    28    ar
43    28    29    ar
44    28    45    1
45    29    30    ar
46    29    46    1
47    30    31    ar
48    30    47    1
49    31    32    1
50    31    33    ar
51    33    34    ar
52    35    48    1
@<TRIPOS>SUBSTRUCTURE
1   ZINC000144763934 1     RESIDUE    1   A     ZIN   1
