@<TRIPOS>MOLECULE
ZINC000117532869
31    32    1     0     0
SMALL
USER_CHARGES
@<TRIPOS>ATOM
1      O1      0.0021   -0.0041    0.0020 O.co2    1 ZINC000117532869   -0.6900
2      C2     -0.0145    1.2150    0.0087 C.2      1 ZINC000117532869    0.4900
3      O3      1.0330    1.8389    0.0021 O.co2    1 ZINC000117532869   -0.6900
4      C4     -1.3296    1.9507    0.0190 C.3      1 ZINC000117532869    0.0500
5      N5     -2.4301    0.9837    0.0189 N.am     1 ZINC000117532869   -0.6700
6      C6     -3.7068    1.4156    0.0273 C.2      1 ZINC000117532869    0.5500
7      O7     -3.9451    2.6077    0.0349 O.2      1 ZINC000117532869   -0.5400
8      C8     -4.8163    0.4406    0.0273 C.ar     1 ZINC000117532869    0.0700
9      N9     -4.5479   -0.8610    0.0245 N.ar     1 ZINC000117532869   -0.4300
10     C10    -5.5000   -1.7639    0.0247 C.ar     1 ZINC000117532869    0.1000
11     C11    -6.8469   -1.3873    0.0276 C.ar     1 ZINC000117532869   -0.0700
12     C12    -7.9139   -2.4170    0.0279 C.ar     1 ZINC000117532869   -0.0300
13     C13    -9.2544   -2.0351    0.0249 C.ar     1 ZINC000117532869   -0.1000
14     C14   -10.2440   -2.9974    0.0253 C.ar     1 ZINC000117532869   -0.1000
15     C15    -9.9080   -4.3389    0.0285 C.ar     1 ZINC000117532869   -0.1100
16     C16    -8.5782   -4.7248    0.0314 C.ar     1 ZINC000117532869   -0.0300
17     Cl17   -8.1650   -6.4109    0.0348 Cl       1 ZINC000117532869   -0.0600
18     C18    -7.5800   -3.7704    0.0253 C.ar     1 ZINC000117532869   -0.1000
19     C19    -7.1745   -0.0312    0.0306 C.ar     1 ZINC000117532869   -0.1000
20     C20    -6.1401    0.8974    0.0360 C.ar     1 ZINC000117532869    0.1200
21     O21    -6.4092    2.2271    0.0396 O.3      1 ZINC000117532869   -0.4700
22     H22    -1.3917    2.5717    0.9126 H        1 ZINC000117532869    0.0700
23     H23    -1.4001    2.5813   -0.8673 H        1 ZINC000117532869    0.0700
24     H24    -2.2400    0.0325    0.0128 H        1 ZINC000117532869    0.4200
25     H25    -5.2401   -2.8122    0.0224 H        1 ZINC000117532869    0.1700
26     H26    -9.5184   -0.9879    0.0228 H        1 ZINC000117532869    0.1300
27     H27   -11.2828   -2.7021    0.0233 H        1 ZINC000117532869    0.1400
28     H28   -10.6857   -5.0883    0.0291 H        1 ZINC000117532869    0.1400
29     H29    -6.5430   -4.0719    0.0276 H        1 ZINC000117532869    0.1400
30     H30    -8.2059    0.2890    0.0328 H        1 ZINC000117532869    0.1500
31     H31    -6.4893    2.6098    0.9241 H        1 ZINC000117532869    0.4000
@<TRIPOS>BOND
1     1     2     ar
2     2     3     ar
3     2     4     1
4     4     5     1
5     4     22    1
6     4     23    1
7     5     6     am
8     5     24    1
9     6     7     2
10    6     8     1
11    8     20    ar
12    8     9     ar
13    9     10    ar
14    10    11    ar
15    10    25    1
16    11    12    1
17    11    19    ar
18    12    18    ar
19    12    13    ar
20    13    14    ar
21    13    26    1
22    14    15    ar
23    14    27    1
24    15    16    ar
25    15    28    1
26    16    17    1
27    16    18    ar
28    18    29    1
29    19    20    ar
30    19    30    1
31    20    21    1
32    21    31    1
@<TRIPOS>SUBSTRUCTURE
1   ZINC000117532869 1     RESIDUE    1   A     ZIN   1
