@<TRIPOS>MOLECULE
ZINC000034633903
  16   16    0    0    0
SMALL
USER_CHARGES
NO_NAME
@<TRIPOS>ATOM
    1 O1        0.0021    -0.0041     0.0020 O.co2  1 <0>      -0.6700
    2 C2       -0.0145     1.2215     0.0088 C.2    1 <0>       0.4900
    3 O3        1.0385     1.8487     0.0021 O.co2  1 <0>      -0.6700
    4 C4       -1.2455     1.9101     0.0183 C.2    1 <0>      -0.1000
    5 C5       -2.4102     1.2163     0.0201 C.2    1 <0>      -0.1400
    6 C6       -3.6895     1.9319     0.0300 C.2    1 <0>       0.1000
    7 C7       -4.9449     1.3616     0.0390 C.2    1 <0>       0.0200
    8 N8       -5.8365     2.3879     0.0467 N.pl3  1 <0>      -0.5100
    9 C9       -5.1311     3.5491     0.0426 C.cat  1 <0>       0.2800
   10 N10      -3.8581     3.2801     0.0382 N.pl3  1 <0>      -0.4800
   11 H11      -3.1441     3.9367     0.0349 H      1 <0>       0.4600
   12 H12      -1.2602     2.9899     0.0243 H      1 <0>       0.1000
   13 H13      -2.3956     0.1365     0.0142 H      1 <0>       0.1700
   14 H14      -5.1748     0.3064     0.0396 H      1 <0>       0.2300
   15 H15      -6.8030     2.3058     0.0537 H      1 <0>       0.4600
   16 H16      -5.5599     4.5403     0.0463 H      1 <0>       0.2600
@<TRIPOS>BOND
   1    1    2 ar
   2    2    3 ar
   3    2    4 1
   4    4    5 2
   5    4   12 1
   6    5    6 1
   7    5   13 1
   8    6   10 1
   9    6    7 2
  10    7    8 1
  11    7   14 1
  12    8    9 ar
  13    8   15 1
  14    9   10 ar
  15    9   16 1
  16   10   11 1
