@<TRIPOS>MOLECULE
ZINC000001544509
  55   57    0    0    0
SMALL
USER_CHARGES
NO_NAME
@<TRIPOS>ATOM
    1 C1       -0.0184     1.5028     0.0103 C.3    1 <0>      -0.0900
    2 C2        0.0021    -0.0041     0.0020 C.ar   1 <0>       0.3700
    3 N3        0.0052    -0.6372    -1.1539 N.ar   1 <0>      -0.5800
    4 C4        0.0234    -1.9651    -1.2061 C.ar   1 <0>       0.3700
    5 O5        0.0269    -2.6059    -2.4005 O.3    1 <0>      -0.3000
    6 C6        0.0102    -1.7908    -3.5741 C.3    1 <0>       0.0700
    7 C7        0.0170    -2.6846    -4.8159 C.3    1 <0>      -0.1200
    8 C8       -0.0008    -1.8119    -6.0724 C.3    1 <0>      -0.1100
    9 C9        0.0059    -2.7056    -7.3142 C.3    1 <0>      -0.1500
   10 C10      -0.0119    -1.8329    -8.5708 C.3    1 <0>      -0.0100
   11 N11      -0.0054    -2.6910    -9.7631 N.4    1 <0>      -0.3800
   12 H12       0.7832    -3.3190    -9.7199 H      1 <0>       0.4200
   13 C13       0.1018    -1.8553   -10.9650 C.3    1 <0>      -0.0100
   14 C14       0.1906    -2.7475   -12.2050 C.3    1 <0>      -0.1500
   15 C15      -1.0687    -3.6143   -12.2947 C.3    1 <0>      -0.1400
   16 C16      -1.2104    -4.4266   -11.0042 C.3    1 <0>      -0.1500
   17 C17      -1.2481    -3.4708    -9.8096 C.3    1 <0>      -0.0100
   18 C18       0.0394    -2.6881    -0.0177 C.ar   1 <0>      -0.2500
   19 C19       0.0354    -1.9817     1.1843 C.ar   1 <0>       0.2600
   20 C20       0.0523    -2.7012     2.4807 C.ar   1 <0>      -0.0800
   21 C21       0.0781    -4.0947     2.5066 C.ar   1 <0>      -0.0600
   22 C22       0.0942    -4.7599     3.7149 C.ar   1 <0>      -0.1600
   23 C23       0.0848    -4.0449     4.9019 C.ar   1 <0>       0.1300
   24 F24       0.1010    -4.7004     6.0831 F      1 <0>      -0.1300
   25 C25       0.0591    -2.6595     4.8810 C.ar   1 <0>      -0.1600
   26 C26       0.0482    -1.9859     3.6773 C.ar   1 <0>      -0.0400
   27 N27       0.0217    -0.6490     1.1496 N.ar   1 <0>      -0.5300
   28 H28       1.0042     1.8801     0.0026 H      1 <0>       0.0900
   29 H29      -0.5455     1.8639    -0.8728 H      1 <0>       0.0900
   30 H30      -0.5286     1.8543     0.9071 H      1 <0>       0.0900
   31 H31      -0.8884    -1.1740    -3.5753 H      1 <0>       0.0700
   32 H32       0.8913    -1.1492    -3.5834 H      1 <0>       0.0700
   33 H33       0.9157    -3.3014    -4.8147 H      1 <0>       0.0800
   34 H34      -0.8641    -3.3262    -4.8066 H      1 <0>       0.0800
   35 H35      -0.8995    -1.1950    -6.0736 H      1 <0>       0.0800
   36 H36       0.8803    -1.1702    -6.0817 H      1 <0>       0.0800
   37 H37       0.9046    -3.3225    -7.3130 H      1 <0>       0.0900
   38 H38      -0.8752    -3.3472    -7.3049 H      1 <0>       0.0900
   39 H39      -0.9106    -1.2161    -8.5720 H      1 <0>       0.1300
   40 H40       0.8692    -1.1913    -8.5801 H      1 <0>       0.1300
   41 H41      -0.7768    -1.2147   -11.0411 H      1 <0>       0.1300
   42 H42       0.9967    -1.2367   -10.8982 H      1 <0>       0.1300
   43 H43       0.2683    -2.1251   -13.0964 H      1 <0>       0.1100
   44 H44       1.0691    -3.3884   -12.1301 H      1 <0>       0.0900
   45 H45      -1.9427    -2.9754   -12.4210 H      1 <0>       0.0800
   46 H46      -0.9851    -4.2918   -13.1444 H      1 <0>       0.0900
   47 H47      -2.1340    -5.0044   -11.0373 H      1 <0>       0.1100
   48 H48      -0.3610    -5.1023   -10.9043 H      1 <0>       0.0900
   49 H49      -1.3491    -4.0450    -8.8886 H      1 <0>       0.1300
   50 H50      -2.0982    -2.7963    -9.9113 H      1 <0>       0.1300
   51 H51       0.0540    -3.7680    -0.0259 H      1 <0>       0.1600
   52 H52       0.0851    -4.6527     1.5819 H      1 <0>       0.1400
   53 H53       0.1138    -5.8395     3.7359 H      1 <0>       0.1400
   54 H54       0.0515    -2.1063     5.8085 H      1 <0>       0.1400
   55 H55       0.0283    -0.9062     3.6619 H      1 <0>       0.1500
@<TRIPOS>BOND
   1    1    2 1
   2    1   28 1
   3    1   29 1
   4    1   30 1
   5    2   27 ar
   6    2    3 ar
   7    3    4 ar
   8    4    5 1
   9    4   18 ar
  10    5    6 1
  11    6    7 1
  12    6   31 1
  13    6   32 1
  14    7    8 1
  15    7   33 1
  16    7   34 1
  17    8    9 1
  18    8   35 1
  19    8   36 1
  20    9   10 1
  21    9   37 1
  22    9   38 1
  23   10   11 1
  24   10   39 1
  25   10   40 1
  26   11   12 1
  27   11   17 1
  28   11   13 1
  29   13   14 1
  30   13   41 1
  31   13   42 1
  32   14   15 1
  33   14   43 1
  34   14   44 1
  35   15   16 1
  36   15   45 1
  37   15   46 1
  38   16   17 1
  39   16   47 1
  40   16   48 1
  41   17   49 1
  42   17   50 1
  43   18   19 ar
  44   18   51 1
  45   19   20 1
  46   19   27 ar
  47   20   26 ar
  48   20   21 ar
  49   21   22 ar
  50   21   52 1
  51   22   23 ar
  52   22   53 1
  53   23   24 1
  54   23   25 ar
  55   25   26 ar
  56   25   54 1
  57   26   55 1
