@<TRIPOS>MOLECULE
ZINC000036330844
67    68    1     0     0
SMALL
USER_CHARGES
@<TRIPOS>ATOM
1      C1      0.0353    1.5398    0.0294 C.3      1 ZINC000036330844   -0.1500
2      C2      0.0529    0.0099    0.0169 C.3      1 ZINC000036330844   -0.1300
3      C3      0.7822   -0.5019    1.2608 C.3      1 ZINC000036330844   -0.1200
4      C4      0.7998   -2.0317    1.2483 C.3      1 ZINC000036330844   -0.1200
5      C5      1.5290   -2.5436    2.4921 C.3      1 ZINC000036330844   -0.1200
6      C6      1.5466   -4.0734    2.4797 C.3      1 ZINC000036330844   -0.1400
7      C7      2.2758   -4.5852    3.7235 C.3      1 ZINC000036330844    0.1100
8      N8      2.2927   -6.0501    3.7115 N.am     1 ZINC000036330844   -0.6100
9      C9      3.3987   -6.7647    3.0694 C.3      1 ZINC000036330844    0.1700
10     C10     4.4904   -7.0115    4.0785 C.ar     1 ZINC000036330844   -0.1200
11     C11     5.4939   -6.0771    4.2537 C.ar     1 ZINC000036330844   -0.1000
12     C12     6.4953   -6.3035    5.1793 C.ar     1 ZINC000036330844   -0.1200
13     C13     6.4930   -7.4642    5.9301 C.ar     1 ZINC000036330844   -0.0700
14     C14     7.5850   -7.7113    6.9388 C.3      1 ZINC000036330844   -0.0700
15     C15     7.1667   -7.1375    8.2941 C.3      1 ZINC000036330844   -0.0600
16     C16     5.8782   -7.8182    8.7603 C.3      1 ZINC000036330844   -0.1400
17     C17     8.2754   -7.3884    9.3182 C.3      1 ZINC000036330844   -0.1400
18     C18     6.9283   -5.6323    8.1590 C.3      1 ZINC000036330844   -0.1400
19     C19     5.4888   -8.3980    5.7559 C.ar     1 ZINC000036330844   -0.1200
20     C20     4.4852   -8.1698    4.8330 C.ar     1 ZINC000036330844   -0.0900
21     C21     1.2907   -6.7403    4.2913 C.2      1 ZINC000036330844    0.7100
22     O22     1.3047   -7.9561    4.2813 O.2      1 ZINC000036330844   -0.5700
23     N23     0.2732   -6.0829    4.8820 N.am     1 ZINC000036330844   -0.6800
24     C24    -0.8146   -6.7975    5.4028 C.ar     1 ZINC000036330844    0.1300
25     C25    -0.6161   -8.0458    5.9748 C.ar     1 ZINC000036330844   -0.0600
26     C26    -1.6894   -8.7487    6.4882 C.ar     1 ZINC000036330844   -0.1400
27     C27    -2.9630   -8.2090    6.4326 C.ar     1 ZINC000036330844    0.1100
28     F28    -4.0102   -8.8984    6.9357 F        1 ZINC000036330844   -0.1300
29     C29    -3.1651   -6.9632    5.8623 C.ar     1 ZINC000036330844   -0.1700
30     C30    -2.0936   -6.2538    5.3521 C.ar     1 ZINC000036330844    0.1000
31     F31    -2.2902   -5.0384    4.7961 F        1 ZINC000036330844   -0.1300
32     H32     1.0587    1.9149    0.0307 H        1 ZINC000036330844    0.0500
33     H33    -0.4842    1.9044   -0.8567 H        1 ZINC000036330844    0.0500
34     H34    -0.4811    1.8899    0.9232 H        1 ZINC000036330844    0.0500
35     H35    -0.9705   -0.3652    0.0156 H        1 ZINC000036330844    0.0600
36     H36     0.5694   -0.3402   -0.8768 H        1 ZINC000036330844    0.0600
37     H37     1.8056   -0.1267    1.2621 H        1 ZINC000036330844    0.0600
38     H38     0.2657   -0.1518    2.1545 H        1 ZINC000036330844    0.0600
39     H39    -0.2236   -2.4069    1.2470 H        1 ZINC000036330844    0.0600
40     H40     1.3162   -2.3819    0.3545 H        1 ZINC000036330844    0.0600
41     H41     2.5524   -2.1684    2.4934 H        1 ZINC000036330844    0.0700
42     H42     1.0126   -2.1934    3.3859 H        1 ZINC000036330844    0.0600
43     H43     0.5232   -4.4485    2.4784 H        1 ZINC000036330844    0.0700
44     H44     2.0630   -4.4235    1.5859 H        1 ZINC000036330844    0.0700
45     H45     3.2992   -4.2101    3.7248 H        1 ZINC000036330844    0.0900
46     H46     1.7594   -4.2351    4.6173 H        1 ZINC000036330844    0.0700
47     H47     3.0392   -7.7182    2.6824 H        1 ZINC000036330844    0.1000
48     H48     3.7914   -6.1643    2.2488 H        1 ZINC000036330844    0.0900
49     H49     5.4957   -5.1702    3.6671 H        1 ZINC000036330844    0.1200
50     H50     7.2797   -5.5738    5.3156 H        1 ZINC000036330844    0.1200
51     H51     7.7549   -8.7837    7.0350 H        1 ZINC000036330844    0.0700
52     H52     8.5030   -7.2264    6.6066 H        1 ZINC000036330844    0.0700
53     H53     6.0481   -8.8905    8.8565 H        1 ZINC000036330844    0.0500
54     H54     5.5802   -7.4094    9.7258 H        1 ZINC000036330844    0.0500
55     H55     5.0884   -7.6394    8.0307 H        1 ZINC000036330844    0.0600
56     H56     9.1934   -6.9035    8.9860 H        1 ZINC000036330844    0.0600
57     H57     7.9774   -6.9796   10.2837 H        1 ZINC000036330844    0.0600
58     H58     8.4453   -8.4608    9.4144 H        1 ZINC000036330844    0.0600
59     H59     6.1385   -5.4536    7.4293 H        1 ZINC000036330844    0.0600
60     H60     6.6303   -5.2235    9.1245 H        1 ZINC000036330844    0.0500
61     H61     7.8463   -5.1474    7.8268 H        1 ZINC000036330844    0.0500
62     H62     5.4868   -9.3047    6.3427 H        1 ZINC000036330844    0.1200
63     H63     3.7006   -8.8994    4.6969 H        1 ZINC000036330844    0.1300
64     H64     0.2936   -5.1153    4.9468 H        1 ZINC000036330844    0.4100
65     H65     0.3769   -8.4681    6.0186 H        1 ZINC000036330844    0.1600
66     H66    -1.5345   -9.7206    6.9331 H        1 ZINC000036330844    0.1500
67     H67    -4.1596   -6.5440    5.8195 H        1 ZINC000036330844    0.1500
@<TRIPOS>BOND
1     1     2     1
2     1     32    1
3     1     33    1
4     1     34    1
5     2     3     1
6     2     35    1
7     2     36    1
8     3     4     1
9     3     37    1
10    3     38    1
11    4     5     1
12    4     39    1
13    4     40    1
14    5     6     1
15    5     41    1
16    5     42    1
17    6     7     1
18    6     43    1
19    6     44    1
20    7     8     1
21    7     45    1
22    7     46    1
23    8     9     1
24    8     21    am
25    9     10    1
26    9     47    1
27    9     48    1
28    10    20    ar
29    10    11    ar
30    11    12    ar
31    11    49    1
32    12    13    ar
33    12    50    1
34    13    14    1
35    13    19    ar
36    14    15    1
37    14    51    1
38    14    52    1
39    15    16    1
40    15    17    1
41    15    18    1
42    16    53    1
43    16    54    1
44    16    55    1
45    17    56    1
46    17    57    1
47    17    58    1
48    18    59    1
49    18    60    1
50    18    61    1
51    19    20    ar
52    19    62    1
53    20    63    1
54    21    22    2
55    21    23    am
56    23    24    1
57    23    64    1
58    24    30    ar
59    24    25    ar
60    25    26    ar
61    25    65    1
62    26    27    ar
63    26    66    1
64    27    28    1
65    27    29    ar
66    29    30    ar
67    29    67    1
68    30    31    1
@<TRIPOS>SUBSTRUCTURE
1   ZINC000036330844 1     RESIDUE    1   A     ZIN   1
