@<TRIPOS>MOLECULE
ZINC000000001439
54    56    1     0     0
SMALL
USER_CHARGES
@<TRIPOS>ATOM
1      C1     -0.1660    1.8413   -0.7567 C.3      1 ZINC000000001439   -0.0600
2      N2      0.0931    0.3958   -0.7178 N.4      1 ZINC000000001439   -0.2600
3      C3     -1.1666   -0.3196   -0.4749 C.3      1 ZINC000000001439   -0.0200
4      C4     -2.1553   -0.0081   -1.6002 C.3      1 ZINC000000001439   -0.1400
5      C5     -3.5138   -0.6308   -1.2724 C.3      1 ZINC000000001439    0.0200
6      C6     -3.9692   -0.1576    0.0840 C.2      1 ZINC000000001439    0.5200
7      N7     -4.1503    1.1582    0.3129 N.am     1 ZINC000000001439   -0.8500
8      O8     -4.1726   -0.9608    0.9696 O.2      1 ZINC000000001439   -0.5100
9      C9     -4.5211   -0.2154   -2.3135 C.ar     1 ZINC000000001439   -0.0900
10     C10    -4.1114    0.4924   -3.4280 C.ar     1 ZINC000000001439   -0.1200
11     C11    -5.0354    0.8734   -4.3830 C.ar     1 ZINC000000001439   -0.1100
12     C12    -6.3690    0.5462   -4.2238 C.ar     1 ZINC000000001439   -0.1000
13     C13    -6.7785   -0.1625   -3.1098 C.ar     1 ZINC000000001439   -0.1100
14     C14    -5.8539   -0.5472   -2.1569 C.ar     1 ZINC000000001439   -0.1000
15     C15    -3.3894   -2.1326   -1.2648 C.ar     1 ZINC000000001439   -0.0900
16     C16    -2.7098   -2.7647   -0.2403 C.ar     1 ZINC000000001439   -0.1000
17     C17    -2.5957   -4.1423   -0.2334 C.ar     1 ZINC000000001439   -0.1200
18     C18    -3.1615   -4.8879   -1.2506 C.ar     1 ZINC000000001439   -0.1000
19     C19    -3.8419   -4.2559   -2.2746 C.ar     1 ZINC000000001439   -0.1200
20     C20    -3.9597   -2.8786   -2.2793 C.ar     1 ZINC000000001439   -0.1000
21     C21     0.6562   -0.0336   -2.0035 C.3      1 ZINC000000001439   -0.0100
22     C22     1.9267    0.7658   -2.3007 C.3      1 ZINC000000001439   -0.1500
23     C23     2.9490    0.5217   -1.1869 C.3      1 ZINC000000001439   -0.1400
24     C24     2.3246    0.9033    0.1583 C.3      1 ZINC000000001439   -0.1500
25     C25     1.0393    0.0989    0.3644 C.3      1 ZINC000000001439   -0.0100
26     H26     0.7686    2.3733   -0.9343 H        1 ZINC000000001439    0.1300
27     H27    -0.8686    2.0629   -1.5601 H        1 ZINC000000001439    0.1200
28     H28    -0.5904    2.1601    0.1953 H        1 ZINC000000001439    0.1200
29     H29    -0.9754   -1.3924   -0.4458 H        1 ZINC000000001439    0.1400
30     H30    -1.5882    0.0002    0.4781 H        1 ZINC000000001439    0.1300
31     H31    -2.2649    1.0718   -1.6990 H        1 ZINC000000001439    0.1000
32     H32    -1.7821   -0.4226   -2.5367 H        1 ZINC000000001439    0.1100
33     H33    -3.9876    1.8006   -0.3955 H        1 ZINC000000001439    0.4000
34     H34    -4.4434    1.4628    1.1859 H        1 ZINC000000001439    0.4100
35     H35    -3.0695    0.7480   -3.5524 H        1 ZINC000000001439    0.1200
36     H36    -4.7154    1.4270   -5.2533 H        1 ZINC000000001439    0.1300
37     H37    -7.0909    0.8444   -4.9695 H        1 ZINC000000001439    0.1300
38     H38    -7.8205   -0.4178   -2.9852 H        1 ZINC000000001439    0.1300
39     H39    -6.1739   -1.1008   -1.2865 H        1 ZINC000000001439    0.1200
40     H40    -2.2678   -2.1822    0.5544 H        1 ZINC000000001439    0.1200
41     H41    -2.0641   -4.6361    0.5666 H        1 ZINC000000001439    0.1300
42     H42    -3.0718   -5.9641   -1.2456 H        1 ZINC000000001439    0.1300
43     H43    -4.2837   -4.8384   -3.0696 H        1 ZINC000000001439    0.1300
44     H44    -4.4913   -2.3848   -3.0794 H        1 ZINC000000001439    0.1300
45     H45     0.8980   -1.0954   -1.9572 H        1 ZINC000000001439    0.1300
46     H46    -0.0737    0.1378   -2.7947 H        1 ZINC000000001439    0.1300
47     H47     2.3443    0.4442   -3.2548 H        1 ZINC000000001439    0.1100
48     H48     1.6860    1.8278   -2.3474 H        1 ZINC000000001439    0.0900
49     H49     3.2286   -0.5318   -1.1732 H        1 ZINC000000001439    0.0800
50     H50     3.8342    1.1326   -1.3643 H        1 ZINC000000001439    0.0900
51     H51     3.0265    0.6801    0.9618 H        1 ZINC000000001439    0.1100
52     H52     2.0921    1.9682    0.1626 H        1 ZINC000000001439    0.0900
53     H53     0.5922    0.3681    1.3213 H        1 ZINC000000001439    0.1300
54     H54     1.2729   -0.9658    0.3602 H        1 ZINC000000001439    0.1300
@<TRIPOS>BOND
1     1     2     1
2     1     26    1
3     1     27    1
4     1     28    1
5     2     25    1
6     2     3     1
7     2     21    1
8     3     4     1
9     3     29    1
10    3     30    1
11    4     5     1
12    4     31    1
13    4     32    1
14    5     6     1
15    5     9     1
16    5     15    1
17    6     7     am
18    6     8     2
19    7     33    1
20    7     34    1
21    9     14    ar
22    9     10    ar
23    10    11    ar
24    10    35    1
25    11    12    ar
26    11    36    1
27    12    13    ar
28    12    37    1
29    13    14    ar
30    13    38    1
31    14    39    1
32    15    20    ar
33    15    16    ar
34    16    17    ar
35    16    40    1
36    17    18    ar
37    17    41    1
38    18    19    ar
39    18    42    1
40    19    20    ar
41    19    43    1
42    20    44    1
43    21    22    1
44    21    45    1
45    21    46    1
46    22    23    1
47    22    47    1
48    22    48    1
49    23    24    1
50    23    49    1
51    23    50    1
52    24    25    1
53    24    51    1
54    24    52    1
55    25    53    1
56    25    54    1
@<TRIPOS>SUBSTRUCTURE
1   ZINC000000001439 1     RESIDUE    1   A     ZIN   1
