@<TRIPOS>MOLECULE
ZINC000095100106
  46   50    0    0    0
SMALL
NO_CHARGES
@<TRIPOS>ATOM
   1 C1            -0.1766     0.7683    -0.0051 C.3     
   2 N2            -0.0461    -0.6846     0.1300 N.pl3   
   3 N3             0.0043    -1.6257    -0.9113 N.2     
   4 C4             0.1242    -2.8012    -0.3525 C.2     
   5 N5             0.1515    -2.6503     0.9711 N.2     
   6 C6             0.0549    -1.3815     1.2751 C.2     
   7 C7             0.0486    -0.8029     2.6666 C.3     
   8 O8             1.3887    -0.5087     3.0663 O.3     
   9 C9             1.5601     0.0225     4.3032 C.2     
  10 N10            0.5157     0.2349     5.0670 N.2     
  11 N11            0.6700     0.7800     6.3429 N.pl3   
  12 C12            1.9219     1.0992     6.8094 C.2     
  13 N13            1.7679     1.5905     8.0299 N.2     
  14 N14            0.5187     1.5939     8.3397 N.2     
  15 C15           -0.1972     1.1081     7.3424 C.2     
  16 C16           -1.6659     0.9494     7.3148 C.ar    
  17 C17           -2.2933     0.4126     6.1871 C.ar    
  18 F18           -1.5582     0.0363     5.1178 F       
  19 C19           -3.6675     0.2673     6.1688 C.ar    
  20 C20           -4.4218     0.6516     7.2628 C.ar    
  21 C21           -3.8083     1.1837     8.3826 C.ar    
  22 C22           -2.4345     1.3299     8.4184 C.ar    
  23 F23           -1.8370     1.8498     9.5129 F       
  24 C24            3.0412     0.8708     5.9879 C.2     
  25 C25            2.8568     0.3330     4.7521 C.2     
  26 C26            4.0428     0.0807     3.8572 C.3     
  27 C27            5.3925     0.1394     4.5920 C.3     
  28 C28            5.8209    -1.0651     3.7374 C.3     
  29 C29            4.3274    -1.4114     3.6176 C.3     
  30 H30            0.8143     1.2171    -0.0751 H       
  31 H31           -0.7448     0.9998    -0.9060 H       
  32 H32           -0.6963     1.1689     0.8652 H       
  33 H33            0.1899    -3.7423    -0.8783 H       
  34 H34           -0.5428     0.1127     2.6767 H       
  35 H35           -0.3867    -1.5243     3.3581 H       
  36 H36           -4.1538    -0.1470     5.2980 H       
  37 H37           -5.4954     0.5359     7.2424 H       
  38 H38           -4.4039     1.4814     9.2329 H       
  39 H39            4.0341     1.1151     6.3356 H       
  40 H40            4.0162     0.6725     2.9423 H       
  41 H41            5.9625     1.0455     4.3864 H       
  42 H42            5.3202    -0.0840     5.6564 H       
  43 H43            6.2818    -0.7863     2.7898 H       
  44 H44            6.3985    -1.8077     4.2879 H       
  45 H45            3.9640    -2.0589     4.4157 H       
  46 H46            4.0376    -1.7574     2.6255 H       
@<TRIPOS>BOND
   1    1    2 1
   2    1   30 1
   3    1   31 1
   4    1   32 1
   5    2    6 1
   6    2    3 1
   7    3    4 2
   8    4    5 1
   9    4   33 1
  10    5    6 2
  11    6    7 1
  12    7    8 1
  13    7   34 1
  14    7   35 1
  15    8    9 1
  16    9   25 1
  17    9   10 2
  18   10   11 1
  19   11   15 1
  20   11   12 1
  21   12   13 2
  22   12   24 1
  23   13   14 1
  24   14   15 2
  25   15   16 1
  26   16   22 ar
  27   16   17 ar
  28   17   18 1
  29   17   19 ar
  30   19   20 ar
  31   19   36 1
  32   20   21 ar
  33   20   37 1
  34   21   22 ar
  35   21   38 1
  36   22   23 1
  37   24   25 2
  38   24   39 1
  39   25   26 1
  40   26   29 1
  41   26   27 1
  42   26   40 1
  43   27   28 1
  44   27   41 1
  45   27   42 1
  46   28   29 1
  47   28   43 1
  48   28   44 1
  49   29   45 1
  50   29   46 1
