@<TRIPOS>MOLECULE
ZINC000000001754
  45   47    0    0    0
SMALL
USER_CHARGES
NO_NAME
@<TRIPOS>ATOM
    1 C1       -0.0187     1.5258     0.0104 C.3    1 <0>      -0.1600
    2 C2        0.0021    -0.0041     0.0020 C.3    1 <0>      -0.1000
    3 C3        0.7309    -0.5033     1.2229 C.ar   1 <0>       0.1000
    4 N4        2.0221    -0.7902     1.1300 N.ar   1 <0>      -0.4500
    5 H5        2.4643    -0.6701     0.2750 H      1 <0>       0.4400
    6 C6        2.7275    -1.2296     2.1466 C.ar   1 <0>       0.2400
    7 C7        4.1926    -1.5363     1.9720 C.3    1 <0>      -0.0600
    8 C8        4.3672    -3.0043     1.6797 C.ar   1 <0>      -0.1100
    9 C9        4.5348    -3.9008     2.7185 C.ar   1 <0>      -0.1100
   10 C10       4.6949    -5.2474     2.4504 C.ar   1 <0>      -0.1100
   11 C11       4.6869    -5.6976     1.1434 C.ar   1 <0>      -0.1000
   12 C12       4.5184    -4.8013     0.1046 C.ar   1 <0>      -0.1100
   13 C13       4.3540    -3.4552     0.3730 C.ar   1 <0>      -0.1100
   14 C14       2.1154    -1.4128     3.3959 C.ar   1 <0>      -0.0800
   15 C15       2.8285    -1.8798     4.5119 C.ar   1 <0>      -0.1700
   16 C16       2.1840    -2.0395     5.7038 C.ar   1 <0>       0.1500
   17 O17       2.8747    -2.4912     6.7840 O.3    1 <0>      -0.2900
   18 C18       4.2623    -2.7751     6.5945 C.3    1 <0>       0.0100
   19 C19       0.8178    -1.7436     5.8303 C.ar   1 <0>       0.2000
   20 O20       0.2032    -1.9128     7.0303 O.3    1 <0>      -0.2800
   21 C21      -1.1884    -1.5949     7.0971 C.3    1 <0>       0.0100
   22 C22       0.0983    -1.2874     4.7630 C.ar   1 <0>      -0.2100
   23 C23       0.7332    -1.1136     3.5252 C.ar   1 <0>       0.0400
   24 C24       0.0460    -0.6418     2.3920 C.ar   1 <0>      -0.0900
   25 H25       1.0039     1.9031     0.0027 H      1 <0>       0.0600
   26 H26      -0.5459     1.8868    -0.8726 H      1 <0>       0.0800
   27 H27      -0.5289     1.8773     0.9072 H      1 <0>       0.0700
   28 H28      -1.0205    -0.3814     0.0098 H      1 <0>       0.1200
   29 H29       0.5123    -0.3556    -0.8948 H      1 <0>       0.0900
   30 H30       4.5901    -0.9509     1.1429 H      1 <0>       0.1200
   31 H31       4.7286    -1.2817     2.8863 H      1 <0>       0.1300
   32 H32       4.5410    -3.5490     3.7396 H      1 <0>       0.1200
   33 H33       4.8265    -5.9477     3.2620 H      1 <0>       0.1300
   34 H34       4.8127    -6.7496     0.9339 H      1 <0>       0.1300
   35 H35       4.5126    -5.1530    -0.9165 H      1 <0>       0.1300
   36 H36       4.2224    -2.7549    -0.4386 H      1 <0>       0.1200
   37 H37       3.8800    -2.1113     4.4272 H      1 <0>       0.1600
   38 H38       4.3746    -3.5458     5.8319 H      1 <0>       0.0600
   39 H39       4.7780    -1.8696     6.2747 H      1 <0>       0.0700
   40 H40       4.6927    -3.1264     7.5322 H      1 <0>       0.1200
   41 H41      -1.5540    -1.7742     8.1082 H      1 <0>       0.1200
   42 H42      -1.3344    -0.5461     6.8386 H      1 <0>       0.0700
   43 H43      -1.7384    -2.2220     6.3954 H      1 <0>       0.0700
   44 H44      -0.9525    -1.0627     4.8715 H      1 <0>       0.1700
   45 H45      -1.0045    -0.3975     2.4471 H      1 <0>       0.1800
@<TRIPOS>BOND
   1    1    2 1
   2    1   25 1
   3    1   26 1
   4    1   27 1
   5    2    3 1
   6    2   28 1
   7    2   29 1
   8    3   24 ar
   9    3    4 ar
  10    4    5 1
  11    4    6 ar
  12    6    7 1
  13    6   14 ar
  14    7    8 1
  15    7   30 1
  16    7   31 1
  17    8   13 ar
  18    8    9 ar
  19    9   10 ar
  20    9   32 1
  21   10   11 ar
  22   10   33 1
  23   11   12 ar
  24   11   34 1
  25   12   13 ar
  26   12   35 1
  27   13   36 1
  28   14   23 ar
  29   14   15 ar
  30   15   16 ar
  31   15   37 1
  32   16   17 1
  33   16   19 ar
  34   17   18 1
  35   18   38 1
  36   18   39 1
  37   18   40 1
  38   19   20 1
  39   19   22 ar
  40   20   21 1
  41   21   41 1
  42   21   42 1
  43   21   43 1
  44   22   23 ar
  45   22   44 1
  46   23   24 ar
  47   24   45 1
