@<TRIPOS>MOLECULE
ZINC000004674528
38    40    1     0     0
SMALL
USER_CHARGES
@<TRIPOS>ATOM
1      C1     -0.0165    1.3641    0.0095 C.2      1 ZINC000004674528    0.0600
2      C2      1.2390    1.8390    0.0001 C.2      1 ZINC000004674528   -0.1800
3      C3      1.6490    3.2892    0.0044 C.3      1 ZINC000004674528   -0.0400
4      C4      1.8954    3.7538   -1.4324 C.3      1 ZINC000004674528   -0.1100
5      C5      2.3116    5.2261   -1.4280 C.3      1 ZINC000004674528   -0.1000
6      C6      3.6649    5.3736   -0.7267 C.3      1 ZINC000004674528   -0.1500
7      C7      4.1125    6.8352   -0.7958 C.3      1 ZINC000004674528   -0.0100
8      N8      4.2396    7.2459   -2.1992 N.4      1 ZINC000004674528   -0.5100
9      H9      4.5859    8.1927   -2.2415 H        1 ZINC000004674528    0.4300
10     H10     4.8856    6.6312   -2.6713 H        1 ZINC000004674528    0.4300
11     C11     2.9305    7.1755   -2.8594 C.3      1 ZINC000004674528   -0.0100
12     C12     2.4375    5.7269   -2.8697 C.3      1 ZINC000004674528   -0.1500
13     C13     2.1351    0.6802   -0.0147 C.ar     1 ZINC000004674528   -0.1000
14     C14     3.5225    0.5267   -0.0291 C.ar     1 ZINC000004674528   -0.0800
15     C15     4.0662   -0.7270   -0.0415 C.ar     1 ZINC000004674528   -0.1400
16     C16     3.2499   -1.8495   -0.0402 C.ar     1 ZINC000004674528   -0.1000
17     C17     1.8781   -1.7209   -0.0260 C.ar     1 ZINC000004674528   -0.1300
18     C18     1.3031   -0.4545   -0.0128 C.ar     1 ZINC000004674528    0.0900
19     N19     0.0021   -0.0041    0.0020 N.pl3    1 ZINC000004674528   -0.5900
20     H20    -0.9091    1.9719    0.0254 H        1 ZINC000004674528    0.1700
21     H21     0.8556    3.8897    0.4495 H        1 ZINC000004674528    0.0700
22     H22     2.5633    3.4065    0.5861 H        1 ZINC000004674528    0.0700
23     H23     2.6887    3.1533   -1.8774 H        1 ZINC000004674528    0.0700
24     H24     0.9810    3.6364   -2.0140 H        1 ZINC000004674528    0.0700
25     H25     1.5608    5.8155   -0.9016 H        1 ZINC000004674528    0.0900
26     H26     3.5694    5.0711    0.3161 H        1 ZINC000004674528    0.1100
27     H27     4.4027    4.7432   -1.2231 H        1 ZINC000004674528    0.0900
28     H28     3.3742    7.4647   -0.2990 H        1 ZINC000004674528    0.1300
29     H29     5.0757    6.9438   -0.2972 H        1 ZINC000004674528    0.1300
30     H30     2.2174    7.7977   -2.3185 H        1 ZINC000004674528    0.1300
31     H31     3.0211    7.5353   -3.8843 H        1 ZINC000004674528    0.1300
32     H32     3.1498    5.1039   -3.4105 H        1 ZINC000004674528    0.0900
33     H33     1.4646    5.6770   -3.3586 H        1 ZINC000004674528    0.1100
34     H34     4.1639    1.3956   -0.0309 H        1 ZINC000004674528    0.1200
35     H35     5.1396   -0.8453   -0.0527 H        1 ZINC000004674528    0.1200
36     H36     3.6944   -2.8337   -0.0508 H        1 ZINC000004674528    0.1300
37     H37     1.2514   -2.6005   -0.0255 H        1 ZINC000004674528    0.1200
38     H38    -0.7842   -0.5721    0.0064 H        1 ZINC000004674528    0.4200
@<TRIPOS>BOND
1     1     19    1
2     1     2     2
3     1     20    1
4     2     3     1
5     2     13    1
6     3     4     1
7     3     21    1
8     3     22    1
9     4     5     1
10    4     23    1
11    4     24    1
12    5     12    1
13    5     6     1
14    5     25    1
15    6     7     1
16    6     26    1
17    6     27    1
18    7     8     1
19    7     28    1
20    7     29    1
21    8     9     1
22    8     10    1
23    8     11    1
24    11    12    1
25    11    30    1
26    11    31    1
27    12    32    1
28    12    33    1
29    13    18    ar
30    13    14    ar
31    14    15    ar
32    14    34    1
33    15    16    ar
34    15    35    1
35    16    17    ar
36    16    36    1
37    17    18    ar
38    17    37    1
39    18    19    1
40    19    38    1
@<TRIPOS>SUBSTRUCTURE
1   ZINC000004674528 1     RESIDUE    1   A     ZIN   1
