@<TRIPOS>MOLECULE
ZINC000003938683
  40   41    0    0    0
SMALL
NO_CHARGES
@<TRIPOS>ATOM
   1 O1            -1.6860     0.2059    -2.5415 O.2     
   2 C2            -1.8029     1.4135    -2.4558 C.2     
   3 N3            -1.5988     2.1887    -3.5392 N.am    
   4 O4            -1.2484     1.5974    -4.7772 O.3     
   5 C5            -1.0629     2.5365    -5.8381 C.3     
   6 C6            -0.6893     1.7902    -7.1204 C.3     
   7 H7            -1.4460     1.0357    -7.3353 H       
   8 O8             0.5802     1.1566    -6.9501 O.3     
   9 C9            -0.6127     2.7813    -8.2835 C.3     
  10 O10           -0.3788     2.0701    -9.5007 O.3     
  11 C11           -2.1734     2.0282    -1.1693 C.ar    
  12 C12           -2.1952     3.4196    -1.0359 C.ar    
  13 C13           -2.5420     3.9900     0.1682 C.ar    
  14 C14           -2.8713     3.1901     1.2543 C.ar    
  15 F15           -3.2100     3.7610     2.4310 F       
  16 C16           -2.8548     1.8110     1.1378 C.ar    
  17 F17           -3.1773     1.0396     2.1990 F       
  18 C18           -2.5121     1.2198    -0.0723 C.ar    
  19 N19           -2.4949    -0.1654    -0.1933 N.pl3   
  20 C20           -3.6136    -0.8375    -0.6969 C.ar    
  21 C21           -4.6932    -0.1182    -1.1908 C.ar    
  22 C22           -5.7970    -0.7846    -1.6876 C.ar    
  23 C23           -5.8282    -2.1672    -1.6932 C.ar    
  24 I24           -7.5050    -3.1717    -2.4472 I       
  25 C25           -4.7542    -2.8887    -1.2024 C.ar    
  26 C26           -3.6443    -2.2285    -0.7092 C.ar    
  27 F27           -2.5957    -2.9326    -0.2299 F       
  28 H28           -1.6920     3.1518    -3.4709 H       
  29 H29           -1.9870     3.0922    -5.9973 H       
  30 H30           -0.2634     3.2290    -5.5747 H       
  31 H31            1.3027     1.7693    -6.7558 H       
  32 H32           -1.5526     3.3284    -8.3572 H       
  33 H33            0.2034     3.4828    -8.1100 H       
  34 H34           -0.3186     2.6368   -10.2820 H       
  35 H35           -1.9397     4.0469    -1.8771 H       
  36 H36           -2.5576     5.0653     0.2685 H       
  37 H37           -1.7071    -0.6657     0.0715 H       
  38 H38           -4.6706     0.9615    -1.1864 H       
  39 H39           -6.6369    -0.2249    -2.0718 H       
  40 H40           -4.7814    -3.9683    -1.2085 H       
@<TRIPOS>BOND
   1    1    2 2
   2    2    3 am
   3    2   11 1
   4    3    4 1
   5    3   28 1
   6    4    5 1
   7    5    6 1
   8    5   29 1
   9    5   30 1
  10    6    7 1
  11    6    8 1
  12    6    9 1
  13    8   31 1
  14    9   10 1
  15    9   32 1
  16    9   33 1
  17   10   34 1
  18   11   18 ar
  19   11   12 ar
  20   12   13 ar
  21   12   35 1
  22   13   14 ar
  23   13   36 1
  24   14   15 1
  25   14   16 ar
  26   16   17 1
  27   16   18 ar
  28   18   19 1
  29   19   20 1
  30   19   37 1
  31   20   26 ar
  32   20   21 ar
  33   21   22 ar
  34   21   38 1
  35   22   23 ar
  36   22   39 1
  37   23   24 1
  38   23   25 ar
  39   25   26 ar
  40   25   40 1
  41   26   27 1
