@<TRIPOS>MOLECULE
ZINC000008674216
69    73    1     0     0
SMALL
USER_CHARGES
@<TRIPOS>ATOM
1      C1      0.5143    0.2852   -1.3468 C.3      1 ZINC000008674216    0.0100
2      N2     -0.0053   -0.0116   -0.0052 N.3      1 ZINC000008674216   -0.5000
3      C3      0.1743    1.1355    0.8946 C.3      1 ZINC000008674216    0.0300
4      C4     -1.4157   -0.4181   -0.0651 C.3      1 ZINC000008674216    0.0900
5      H5     -1.8708    0.0097   -0.9584 H        1 ZINC000008674216    0.0500
6      C6     -2.1268    0.1070    1.1443 C.2      1 ZINC000008674216    0.3500
7      O7     -2.5521    1.3790    1.1423 O.3      1 ZINC000008674216   -0.6300
8      C8     -2.3594   -0.6665    2.2548 C.2      1 ZINC000008674216   -0.5100
9      C9     -3.0439   -0.0905    3.4232 C.2      1 ZINC000008674216    0.6000
10     O10    -3.3249    1.0928    3.4413 O.2      1 ZINC000008674216   -0.5700
11     N11    -3.3596   -0.8742    4.4733 N.am     1 ZINC000008674216   -0.7400
12     C12    -4.1422   -0.3289    5.5852 C.3      1 ZINC000008674216    0.2800
13     N13    -5.5643   -0.6335    5.3788 N.3      1 ZINC000008674216   -0.5300
14     C14    -5.9122   -1.9611    5.9469 C.3      1 ZINC000008674216    0.0400
15     C15    -7.4499   -1.8811    6.1191 C.3      1 ZINC000008674216   -0.1200
16     C16    -7.6722   -0.4174    6.5643 C.3      1 ZINC000008674216   -0.1300
17     C17    -6.4233    0.3436    6.0823 C.3      1 ZINC000008674216    0.0400
18     C18    -1.9256   -2.0640    2.2754 C.2      1 ZINC000008674216    0.3900
19     O19    -2.2986   -2.8170    3.1512 O.2      1 ZINC000008674216   -0.5000
20     C20    -0.9999   -2.5498    1.1773 C.3      1 ZINC000008674216    0.0800
21     O21     0.3578   -2.1921    1.4432 O.3      1 ZINC000008674216   -0.5000
22     C22    -1.1874   -4.0496    1.0585 C.2      1 ZINC000008674216    0.3700
23     O23    -1.5895   -4.7010    2.0033 O.2      1 ZINC000008674216   -0.4700
24     C24    -0.8883   -4.6691   -0.1592 C.2      1 ZINC000008674216   -0.4600
25     C25    -1.0471   -6.0420   -0.2458 C.2      1 ZINC000008674216    0.3200
26     O26    -1.4317   -6.7543    0.8355 O.3      1 ZINC000008674216   -0.6200
27     C27    -0.7932   -6.7160   -1.5278 C.ar     1 ZINC000008674216   -0.0800
28     C28    -0.6336   -8.1071   -1.5849 C.ar     1 ZINC000008674216    0.1300
29     O29    -0.7282   -8.8528   -0.4555 O.3      1 ZINC000008674216   -0.4800
30     C30    -0.3786   -8.7159   -2.8051 C.ar     1 ZINC000008674216   -0.1600
31     C31    -0.2816   -7.9542   -3.9528 C.ar     1 ZINC000008674216   -0.1200
32     C32    -0.4449   -6.5786   -3.9003 C.ar     1 ZINC000008674216   -0.1400
33     C33    -0.7080   -5.9581   -2.6995 C.ar     1 ZINC000008674216   -0.0800
34     C34    -0.9270   -4.4694   -2.6423 C.3      1 ZINC000008674216    0.1700
35     C35    -0.2139   -3.8060   -3.8222 C.3      1 ZINC000008674216   -0.1800
36     O36    -2.3269   -4.1931   -2.7186 O.3      1 ZINC000008674216   -0.5300
37     C37    -0.3726   -3.9063   -1.3343 C.3      1 ZINC000008674216    0.0400
38     H38     0.7042   -4.0737   -1.3558 H        1 ZINC000008674216    0.0400
39     C39    -0.5785   -2.4117   -1.2788 C.3      1 ZINC000008674216   -0.0900
40     C40    -1.4919   -1.9442   -0.1485 C.3      1 ZINC000008674216   -0.0300
41     H41    -2.5176   -2.2512   -0.3528 H        1 ZINC000008674216    0.0800
42     H42     1.5568    0.5949   -1.2723 H        1 ZINC000008674216    0.0600
43     H43     0.4439   -0.6068   -1.9693 H        1 ZINC000008674216    0.0800
44     H44    -0.0720    1.0878   -1.7942 H        1 ZINC000008674216    0.0100
45     H45    -0.4334    1.9701    0.5451 H        1 ZINC000008674216    0.0300
46     H46    -0.1344    0.8584    1.9026 H        1 ZINC000008674216    0.0700
47     H47     1.2239    1.4292    0.9039 H        1 ZINC000008674216    0.0400
48     H48    -3.0685   -1.7993    4.4929 H        1 ZINC000008674216    0.4100
49     H49    -3.8065   -0.7774    6.5202 H        1 ZINC000008674216    0.0400
50     H50    -4.0049    0.7515    5.6306 H        1 ZINC000008674216    0.0800
51     H51    -5.6437   -2.7584    5.2538 H        1 ZINC000008674216    0.0800
52     H52    -5.4242   -2.1071    6.9105 H        1 ZINC000008674216    0.0400
53     H53    -7.9547   -2.0776    5.1733 H        1 ZINC000008674216    0.0700
54     H54    -7.7883   -2.5742    6.8894 H        1 ZINC000008674216    0.0600
55     H55    -8.5678   -0.0110    6.0943 H        1 ZINC000008674216    0.0700
56     H56    -7.7545   -0.3604    7.6497 H        1 ZINC000008674216    0.0600
57     H57    -5.8894    0.7599    6.9365 H        1 ZINC000008674216    0.0400
58     H58    -6.7151    1.1411    5.3989 H        1 ZINC000008674216    0.0800
59     H59     0.7304   -2.6180    2.2274 H        1 ZINC000008674216    0.3600
60     H60    -1.6237   -9.1630   -0.2629 H        1 ZINC000008674216    0.3900
61     H61    -0.2553   -9.7876   -2.8574 H        1 ZINC000008674216    0.1200
62     H62    -0.0766   -8.4338   -4.8986 H        1 ZINC000008674216    0.1100
63     H63    -0.3660   -5.9921   -4.8037 H        1 ZINC000008674216    0.1200
64     H64    -0.6160   -4.1977   -4.7566 H        1 ZINC000008674216    0.0500
65     H65    -0.3712   -2.7282   -3.7825 H        1 ZINC000008674216    0.0700
66     H66     0.8536   -4.0196   -3.7683 H        1 ZINC000008674216    0.0600
67     H67    -2.7475   -4.5134   -3.5283 H        1 ZINC000008674216    0.3500
68     H68     0.3933   -1.9330   -1.1580 H        1 ZINC000008674216    0.0800
69     H69    -1.0050   -2.0859   -2.2275 H        1 ZINC000008674216    0.0500
@<TRIPOS>BOND
1     1     2     1
2     1     42    1
3     1     43    1
4     1     44    1
5     2     3     1
6     2     4     1
7     3     45    1
8     3     46    1
9     3     47    1
10    4     5     1
11    4     40    1
12    4     6     1
13    6     7     1
14    6     8     2
15    8     9     1
16    8     18    1
17    9     10    2
18    9     11    am
19    11    12    1
20    11    48    1
21    12    13    1
22    12    49    1
23    12    50    1
24    13    17    1
25    13    14    1
26    14    15    1
27    14    51    1
28    14    52    1
29    15    16    1
30    15    53    1
31    15    54    1
32    16    17    1
33    16    55    1
34    16    56    1
35    17    57    1
36    17    58    1
37    18    19    2
38    18    20    1
39    20    40    1
40    20    21    1
41    20    22    1
42    21    59    1
43    22    23    2
44    22    24    1
45    24    37    1
46    24    25    2
47    25    26    1
48    25    27    1
49    27    33    ar
50    27    28    ar
51    28    29    1
52    28    30    ar
53    29    60    1
54    30    31    ar
55    30    61    1
56    31    32    ar
57    31    62    1
58    32    33    ar
59    32    63    1
60    33    34    1
61    34    35    1
62    34    36    1
63    34    37    1
64    35    64    1
65    35    65    1
66    35    66    1
67    36    67    1
68    37    38    1
69    37    39    1
70    39    40    1
71    39    68    1
72    39    69    1
73    40    41    1
@<TRIPOS>SUBSTRUCTURE
1   ZINC000008674216 1     RESIDUE    1   A     ZIN   1
