@<TRIPOS>MOLECULE
ZINC000035310420
68    72    1     0     0
SMALL
USER_CHARGES
@<TRIPOS>ATOM
1      C1      0.9056    1.8674    0.5765 C.3      1 ZINC000035310420   -0.1500
2      C2      0.7281    0.3616    0.3717 C.3      1 ZINC000035310420   -0.6100
3      S3      1.3472   -0.5240    1.8288 S.o2     1 ZINC000035310420    2.4900
4      O4      2.7599   -0.4025    1.9231 O.2      1 ZINC000035310420   -0.9300
5      O5      0.5140   -0.2777    2.9532 O.2      1 ZINC000035310420   -0.9300
6      C6      1.0813   -2.2252    1.4552 C.ar     1 ZINC000035310420   -0.6600
7      C7     -0.1131   -2.8298    1.8028 C.ar     1 ZINC000035310420   -0.0200
8      C8     -0.3288   -4.1653    1.5131 C.ar     1 ZINC000035310420   -0.1400
9      C9      0.6479   -4.9020    0.8749 C.ar     1 ZINC000035310420   -0.0500
10     C10     1.8537   -4.2979    0.5216 C.ar     1 ZINC000035310420   -0.0600
11     C11     2.9068   -5.0840   -0.1646 C.ar     1 ZINC000035310420   -0.0100
12     C12     3.5027   -4.5929   -1.3165 C.ar     1 ZINC000035310420   -0.1000
13     C13     4.4953   -5.3367   -1.9601 C.ar     1 ZINC000035310420   -0.1100
14     C14     5.1284   -4.8104   -3.1868 C.2      1 ZINC000035310420    0.5600
15     O15     6.0697   -5.3968   -3.6847 O.2      1 ZINC000035310420   -0.5200
16     N16     4.6623   -3.6800   -3.7540 N.am     1 ZINC000035310420   -0.7200
17     C17     5.2900   -3.1581   -4.9704 C.3      1 ZINC000035310420    0.1500
18     C18     4.6779   -3.8420   -6.1960 C.3      1 ZINC000035310420   -0.1300
19     C19     5.2938   -3.2495   -7.4655 C.3      1 ZINC000035310420    0.0600
20     N20     5.0347   -1.8048   -7.5085 N.3      1 ZINC000035310420   -0.5400
21     C21     5.4906   -1.2257   -8.7793 C.3      1 ZINC000035310420    0.0200
22     C22     5.6534   -1.1201   -6.3662 C.3      1 ZINC000035310420    0.0600
23     C23     5.0483   -1.6490   -5.0639 C.3      1 ZINC000035310420   -0.1300
24     C24     4.8917   -6.5718   -1.4511 C.ar     1 ZINC000035310420   -0.0200
25     C25     5.9635   -7.3648   -2.1535 C.3      1 ZINC000035310420   -0.1200
26     C26     4.3024   -7.0739   -0.2984 C.ar     1 ZINC000035310420    0.1400
27     C27     3.3092   -6.3268    0.3529 C.ar     1 ZINC000035310420   -0.0600
28     C28     2.8933   -7.1185    1.5201 C.ar     1 ZINC000035310420   -0.1500
29     C29     3.6606   -8.2959    1.5028 C.ar     1 ZINC000035310420    0.3400
30     N30     3.4911   -9.2056    2.4550 N.ar     1 ZINC000035310420   -0.5000
31     C31     2.6179   -9.0393    3.4260 C.ar     1 ZINC000035310420    0.1600
32     C32     1.8292   -7.9035    3.5034 C.ar     1 ZINC000035310420   -0.1700
33     C33     0.8372   -7.7404    4.6261 C.3      1 ZINC000035310420   -0.1100
34     C34     1.9611   -6.9203    2.5388 C.ar     1 ZINC000035310420   -0.0200
35     N35     4.4998   -8.2477    0.4104 N.pl3    1 ZINC000035310420   -0.5900
36     C36     2.0631   -2.9506    0.8111 C.ar     1 ZINC000035310420   -0.0100
37     H37     1.9628    2.0928    0.7166 H        1 ZINC000035310420    0.0700
38     H38     0.5336    2.3995   -0.2991 H        1 ZINC000035310420    0.0900
39     H39     0.3470    2.1826    1.4577 H        1 ZINC000035310420    0.0700
40     H40    -0.3291    0.1362    0.2316 H        1 ZINC000035310420    0.1400
41     H41     1.2867    0.0464   -0.5096 H        1 ZINC000035310420    0.1400
42     H42    -0.8803   -2.2571    2.3028 H        1 ZINC000035310420    0.1500
43     H43    -1.2633   -4.6322    1.7872 H        1 ZINC000035310420    0.1400
44     H44     0.4787   -5.9447    0.6499 H        1 ZINC000035310420    0.1300
45     H45     3.1995   -3.6365   -1.7161 H        1 ZINC000035310420    0.1300
46     H46     3.9112   -3.2121   -3.3567 H        1 ZINC000035310420    0.4000
47     H47     6.3618   -3.3541   -4.9401 H        1 ZINC000035310420    0.0900
48     H48     4.8839   -4.9117   -6.1566 H        1 ZINC000035310420    0.0700
49     H49     3.6003   -3.6784   -6.2038 H        1 ZINC000035310420    0.0700
50     H50     6.3695   -3.4257   -7.4636 H        1 ZINC000035310420    0.0400
51     H51     4.8497   -3.7244   -8.3404 H        1 ZINC000035310420    0.0800
52     H52     4.9614   -1.7005   -9.6055 H        1 ZINC000035310420    0.0700
53     H53     5.2867   -0.1550   -8.7846 H        1 ZINC000035310420    0.0700
54     H54     6.5621   -1.3921   -8.8907 H        1 ZINC000035310420    0.0300
55     H55     6.7274   -1.3062   -6.3695 H        1 ZINC000035310420    0.0400
56     H56     5.4705   -0.0483   -6.4427 H        1 ZINC000035310420    0.0800
57     H57     3.9765   -1.4509   -5.0539 H        1 ZINC000035310420    0.0800
58     H58     5.5188   -1.1518   -4.2157 H        1 ZINC000035310420    0.0800
59     H59     6.9443   -7.0075   -1.8398 H        1 ZINC000035310420    0.0800
60     H60     5.8620   -8.4194   -1.8974 H        1 ZINC000035310420    0.0500
61     H61     5.8595   -7.2411   -3.2315 H        1 ZINC000035310420    0.1000
62     H62     2.5141   -9.8062    4.1793 H        1 ZINC000035310420    0.1700
63     H63     1.3183   -7.2396    5.4662 H        1 ZINC000035310420    0.0700
64     H64    -0.0065   -7.1424    4.2815 H        1 ZINC000035310420    0.0700
65     H65     0.4822   -8.7211    4.9426 H        1 ZINC000035310420    0.0700
66     H66     1.3594   -6.0241    2.5738 H        1 ZINC000035310420    0.1400
67     H67     5.1346   -8.9402    0.1689 H        1 ZINC000035310420    0.4200
68     H68     2.9951   -2.4773    0.5394 H        1 ZINC000035310420    0.1500
@<TRIPOS>BOND
1     1     2     1
2     1     37    1
3     1     38    1
4     1     39    1
5     2     3     1
6     2     40    1
7     2     41    1
8     3     4     2
9     3     5     2
10    3     6     1
11    6     36    ar
12    6     7     ar
13    7     8     ar
14    7     42    1
15    8     9     ar
16    8     43    1
17    9     10    ar
18    9     44    1
19    10    11    1
20    10    36    ar
21    11    27    ar
22    11    12    ar
23    12    13    ar
24    12    45    1
25    13    14    1
26    13    24    ar
27    14    15    2
28    14    16    am
29    16    17    1
30    16    46    1
31    17    23    1
32    17    18    1
33    17    47    1
34    18    19    1
35    18    48    1
36    18    49    1
37    19    20    1
38    19    50    1
39    19    51    1
40    20    21    1
41    20    22    1
42    21    52    1
43    21    53    1
44    21    54    1
45    22    23    1
46    22    55    1
47    22    56    1
48    23    57    1
49    23    58    1
50    24    25    1
51    24    26    ar
52    25    59    1
53    25    60    1
54    25    61    1
55    26    35    1
56    26    27    ar
57    27    28    1
58    28    34    ar
59    28    29    ar
60    29    30    ar
61    29    35    1
62    30    31    ar
63    31    32    ar
64    31    62    1
65    32    33    1
66    32    34    ar
67    33    63    1
68    33    64    1
69    33    65    1
70    34    66    1
71    35    67    1
72    36    68    1
@<TRIPOS>SUBSTRUCTURE
1   ZINC000035310420 1     RESIDUE    1   A     ZIN   1
