@<TRIPOS>MOLECULE
ZINC000001485409
56    59    1     0     0
SMALL
USER_CHARGES
@<TRIPOS>ATOM
1      C1     -0.1766   -0.9784    0.5230 C.1      1 ZINC000001485409   -0.1700
2      C2     -0.0843    0.1806    0.3603 C.1      1 ZINC000001485409   -0.2200
3      C3      0.0314    1.6338    0.1564 C.3      1 ZINC000001485409    0.2300
4      N4      1.4456    2.0007    0.0486 N.pl3    1 ZINC000001485409   -0.6100
5      C5      2.0699    2.1314   -1.2702 C.3      1 ZINC000001485409    0.1600
6      C6      1.9247    3.5505   -1.7563 C.ar     1 ZINC000001485409   -0.1100
7      C7      1.2936    4.4737   -0.9695 C.ar     1 ZINC000001485409   -0.0200
8      C8      1.1599    5.7860   -1.4189 C.ar     1 ZINC000001485409   -0.1900
9      C9      1.6743    6.1579   -2.6810 C.ar     1 ZINC000001485409    0.1600
10     C10     2.3148    5.1978   -3.4667 C.ar     1 ZINC000001485409   -0.0800
11     C11     2.4387    3.9081   -2.9970 C.ar     1 ZINC000001485409   -0.0400
12     Br12    3.3058    2.6062   -4.0595 Br       1 ZINC000001485409   -0.0300
13     N13     1.5321    7.4407   -3.0980 N.2      1 ZINC000001485409   -0.5200
14     C14     0.9358    8.3319   -2.3658 C.2      1 ZINC000001485409    0.4000
15     C15     0.8184    9.7355   -2.9018 C.3      1 ZINC000001485409   -0.1200
16     N16     0.4117    8.0637   -1.1414 N.am     1 ZINC000001485409   -0.6500
17     C17     0.4905    6.8192   -0.6153 C.2      1 ZINC000001485409    0.5500
18     O18     0.0246    6.5651    0.4802 O.2      1 ZINC000001485409   -0.5000
19     C19     2.1952    2.2249    1.1980 C.ar     1 ZINC000001485409    0.2400
20     C20     3.5376    2.5791    1.0937 C.ar     1 ZINC000001485409   -0.2000
21     C21     4.2822    2.8016    2.2293 C.ar     1 ZINC000001485409   -0.0100
22     C22     3.6893    2.6717    3.4887 C.ar     1 ZINC000001485409   -0.1900
23     C23     4.4846    2.9101    4.7081 C.2      1 ZINC000001485409    0.5700
24     O24     5.6570    3.2199    4.6185 O.2      1 ZINC000001485409   -0.5400
25     N25     3.9116    2.7844    5.9215 N.am     1 ZINC000001485409   -0.7300
26     C26     4.7014    3.0211    7.1325 C.3      1 ZINC000001485409    0.1700
27     C27     3.8325    2.8168    8.3468 C.ar     1 ZINC000001485409   -0.1600
28     C28     3.1162    3.8754    8.8834 C.ar     1 ZINC000001485409   -0.0600
29     C29     2.3294    3.6407   10.0010 C.ar     1 ZINC000001485409   -0.1700
30     C30     2.2858    2.3686   10.5387 C.ar     1 ZINC000001485409    0.1100
31     N31     2.9809    1.3849   10.0015 N.ar     1 ZINC000001485409   -0.4800
32     C32     3.7353    1.5702    8.9360 C.ar     1 ZINC000001485409    0.1200
33     C33     2.3412    2.3159    3.5900 C.ar     1 ZINC000001485409   -0.0400
34     C34     1.6005    2.1003    2.4505 C.ar     1 ZINC000001485409   -0.2000
35     H35    -0.2591   -2.0150    0.6684 H        1 ZINC000001485409    0.2200
36     H36    -0.4877    1.9146   -0.7600 H        1 ZINC000001485409    0.1000
37     H37    -0.4160    2.1561    1.0021 H        1 ZINC000001485409    0.1000
38     H38     3.1277    1.8785   -1.1981 H        1 ZINC000001485409    0.1000
39     H39     1.5817    1.4553   -1.9720 H        1 ZINC000001485409    0.1000
40     H40     0.9007    4.1874   -0.0051 H        1 ZINC000001485409    0.1500
41     H41     2.7139    5.4649   -4.4341 H        1 ZINC000001485409    0.1500
42     H42     1.2832    9.7884   -3.8864 H        1 ZINC000001485409    0.1100
43     H43    -0.2342   10.0070   -2.9819 H        1 ZINC000001485409    0.1000
44     H44     1.3214   10.4261   -2.2250 H        1 ZINC000001485409    0.1000
45     H45    -0.0230    8.7708   -0.6394 H        1 ZINC000001485409    0.4200
46     H46     3.9951    2.6790    0.1205 H        1 ZINC000001485409    0.1300
47     H47     5.3236    3.0760    2.1478 H        1 ZINC000001485409    0.1400
48     H48     2.9764    2.5373    5.9930 H        1 ZINC000001485409    0.4000
49     H49     5.5381    2.3232    7.1628 H        1 ZINC000001485409    0.0800
50     H50     5.0807    4.0429    7.1250 H        1 ZINC000001485409    0.0800
51     H51     3.1699    4.8596    8.4419 H        1 ZINC000001485409    0.1400
52     H52     1.7582    4.4422   10.4456 H        1 ZINC000001485409    0.1400
53     H53     1.6757    2.1777   11.4092 H        1 ZINC000001485409    0.1600
54     H54     4.2903    0.7404    8.5241 H        1 ZINC000001485409    0.1600
55     H55     1.8805    2.2144    4.5616 H        1 ZINC000001485409    0.1200
56     H56     0.5588    1.8257    2.5282 H        1 ZINC000001485409    0.1300
@<TRIPOS>BOND
1     1     2     3
2     1     35    1
3     2     3     1
4     3     4     1
5     3     36    1
6     3     37    1
7     4     5     1
8     4     19    1
9     5     6     1
10    5     38    1
11    5     39    1
12    6     11    ar
13    6     7     ar
14    7     8     ar
15    7     40    1
16    8     17    1
17    8     9     ar
18    9     10    ar
19    9     13    1
20    10    11    ar
21    10    41    1
22    11    12    1
23    13    14    2
24    14    15    1
25    14    16    1
26    15    42    1
27    15    43    1
28    15    44    1
29    16    17    am
30    16    45    1
31    17    18    2
32    19    34    ar
33    19    20    ar
34    20    21    ar
35    20    46    1
36    21    22    ar
37    21    47    1
38    22    23    1
39    22    33    ar
40    23    24    2
41    23    25    am
42    25    26    1
43    25    48    1
44    26    27    1
45    26    49    1
46    26    50    1
47    27    32    ar
48    27    28    ar
49    28    29    ar
50    28    51    1
51    29    30    ar
52    29    52    1
53    30    31    ar
54    30    53    1
55    31    32    ar
56    32    54    1
57    33    34    ar
58    33    55    1
59    34    56    1
@<TRIPOS>SUBSTRUCTURE
1   ZINC000001485409 1     RESIDUE    1   A     ZIN   1
