@<TRIPOS>MOLECULE
ZINC000003989688
26    27    1     0     0
SMALL
USER_CHARGES
@<TRIPOS>ATOM
1      C1     -0.0187    1.5258    0.0104 C.3      1 ZINC000003989688   -0.1500
2      C2      0.0021   -0.0041    0.0020 C.3      1 ZINC000003989688   -0.0400
3      C3      0.7074   -0.4901   -1.2379 C.2      1 ZINC000003989688    0.1900
4      N4      0.1563   -0.7422   -2.3873 N.2      1 ZINC000003989688   -0.3600
5      O5      0.9936   -1.1162   -3.1814 O.3      1 ZINC000003989688    0.0900
6      C6      2.1948   -1.1388   -2.5961 C.2      1 ZINC000003989688    0.1500
7      C7      3.4976   -1.5433   -3.2364 C.3      1 ZINC000003989688   -0.0200
8      H8      4.3058   -1.4588   -2.5099 H        1 ZINC000003989688    0.1500
9      C9      3.7864   -0.6362   -4.4382 C.3      1 ZINC000003989688    0.0700
10     N10     4.9761   -1.1295   -5.1337 N.pl3    1 ZINC000003989688   -0.6300
11     C11     5.3082   -2.4003   -5.1156 C.cat    1 ZINC000003989688    0.5000
12     N12     4.6172   -3.3195   -4.4805 N.pl3    1 ZINC000003989688   -0.6300
13     H13     4.9210   -4.2404   -4.5049 H        1 ZINC000003989688    0.4500
14     C14     3.4008   -2.9896   -3.7359 C.3      1 ZINC000003989688    0.0700
15     N15     2.0239   -0.7369   -1.3596 N.2      1 ZINC000003989688   -0.4400
16     H16     1.0039    1.9031    0.0027 H        1 ZINC000003989688    0.0600
17     H17    -0.5459    1.8868   -0.8726 H        1 ZINC000003989688    0.0600
18     H18    -0.5289    1.8773    0.9072 H        1 ZINC000003989688    0.0800
19     H19     0.5293   -0.3651    0.8851 H        1 ZINC000003989688    0.1000
20     H20    -1.0205   -0.3814    0.0098 H        1 ZINC000003989688    0.1000
21     H21     2.9346   -0.6498   -5.1183 H        1 ZINC000003989688    0.1200
22     H22     3.9622    0.3824   -4.0923 H        1 ZINC000003989688    0.1300
23     H23     5.5333   -0.5022   -5.6204 H        1 ZINC000003989688    0.4500
24     H24     6.1955   -2.7053   -5.6504 H        1 ZINC000003989688    0.2300
25     H25     3.2998   -3.6638   -2.8854 H        1 ZINC000003989688    0.1300
26     H26     2.5343   -3.0921   -4.3892 H        1 ZINC000003989688    0.1200
@<TRIPOS>BOND
1     1     2     1
2     1     16    1
3     1     17    1
4     1     18    1
5     2     3     1
6     2     19    1
7     2     20    1
8     3     15    1
9     3     4     2
10    4     5     1
11    5     6     1
12    6     7     1
13    6     15    2
14    7     8     1
15    7     14    1
16    7     9     1
17    9     10    1
18    9     21    1
19    9     22    1
20    10    11    ar
21    10    23    1
22    11    12    ar
23    11    24    1
24    12    13    1
25    12    14    1
26    14    25    1
27    14    26    1
@<TRIPOS>SUBSTRUCTURE
1   ZINC000003989688 1     RESIDUE    1   A     ZIN   1
