@<TRIPOS>MOLECULE
ZINC000115705166
45    48    1     0     0
SMALL
USER_CHARGES
@<TRIPOS>ATOM
1      F1     -2.3659    0.1314   -0.0887 F        1 ZINC000115705166   -0.1600
2      C2     -1.2977   -0.7666    0.0108 C.3      1 ZINC000115705166    0.5200
3      F3     -1.3279   -1.6493   -1.0741 F        1 ZINC000115705166   -0.1700
4      F4     -1.4061   -1.4898    1.2035 F        1 ZINC000115705166   -0.1600
5      C5      0.0021   -0.0041    0.0020 C.ar     1 ZINC000115705166    0.0600
6      C6      1.1988   -0.6947   -0.0131 C.ar     1 ZINC000115705166   -0.1200
7      C7      2.3893    0.0165   -0.0207 C.ar     1 ZINC000115705166   -0.0400
8      C8      2.3306    1.4015   -0.0127 C.ar     1 ZINC000115705166   -0.1600
9      C9      3.5966    2.2189   -0.0209 C.3      1 ZINC000115705166    0.1600
10     N10     3.9931    2.4912   -1.4046 N.pl3    1 ZINC000115705166   -0.7000
11     C11     5.1387    3.2339   -1.6661 C.ar     1 ZINC000115705166    0.4400
12     C12     5.9040    3.7156   -0.6091 C.ar     1 ZINC000115705166   -0.1900
13     C13     7.0419    4.4529   -0.8837 C.ar     1 ZINC000115705166    0.0400
14     C14     7.3772    4.6845   -2.2109 C.ar     1 ZINC000115705166   -0.1200
15     C15     8.6076    5.4829   -2.5570 C.3      1 ZINC000115705166    0.0000
16     C16     9.7884    4.5555   -2.6859 C.2      1 ZINC000115705166   -0.1800
17     C17    10.6826    4.2617   -1.7289 C.2      1 ZINC000115705166    0.1000
18     N18    11.6129    3.3819   -2.2138 N.pl3    1 ZINC000115705166   -0.5700
19     C19    11.3354    3.0794   -3.5259 C.ar     1 ZINC000115705166    0.2900
20     N20    11.9226    2.2958   -4.4203 N.ar     1 ZINC000115705166   -0.4700
21     C21    11.4452    2.1594   -5.6393 C.ar     1 ZINC000115705166    0.1600
22     C22    10.3095    2.8392   -6.0548 C.ar     1 ZINC000115705166   -0.1100
23     Cl23    9.7137    2.6424   -7.6734 Cl       1 ZINC000115705166   -0.0400
24     C24     9.6559    3.6749   -5.1671 C.ar     1 ZINC000115705166   -0.0300
25     C25    10.1761    3.7976   -3.8768 C.ar     1 ZINC000115705166   -0.1400
26     C26     6.5717    4.1762   -3.2105 C.ar     1 ZINC000115705166    0.1500
27     N27     5.4947    3.4719   -2.9192 N.ar     1 ZINC000115705166   -0.5000
28     H28     4.9483    3.1229   -3.6406 H        1 ZINC000115705166    0.4400
29     C29     1.0962    2.0232    0.0025 C.ar     1 ZINC000115705166    0.1400
30     N30    -0.0158    1.3146    0.0093 N.ar     1 ZINC000115705166   -0.4400
31     H31     1.2070   -1.7746   -0.0186 H        1 ZINC000115705166    0.1600
32     H32     3.3396   -0.4965   -0.0328 H        1 ZINC000115705166    0.1500
33     H33     3.4242    3.1609    0.4998 H        1 ZINC000115705166    0.1100
34     H34     4.3896    1.6656    0.4822 H        1 ZINC000115705166    0.1000
35     H35     3.4563    2.1533   -2.1384 H        1 ZINC000115705166    0.4200
36     H36     5.6140    3.5163    0.4119 H        1 ZINC000115705166    0.1800
37     H37     7.6558    4.8394   -0.0836 H        1 ZINC000115705166    0.1800
38     H38     8.4493    6.0031   -3.5017 H        1 ZINC000115705166    0.1000
39     H39     8.8017    6.2109   -1.7694 H        1 ZINC000115705166    0.1100
40     H40    10.6702    4.6603   -0.7252 H        1 ZINC000115705166    0.1900
41     H41    12.3584    3.0248   -1.7063 H        1 ZINC000115705166    0.4300
42     H42    11.9536    1.5079   -6.3346 H        1 ZINC000115705166    0.1800
43     H43     8.7694    4.2162   -5.4630 H        1 ZINC000115705166    0.1400
44     H44     6.8290    4.3537   -4.2443 H        1 ZINC000115705166    0.2000
45     H45     1.0418    3.1018    0.0084 H        1 ZINC000115705166    0.1700
@<TRIPOS>BOND
1     1     2     1
2     2     3     1
3     2     4     1
4     2     5     1
5     5     30    ar
6     5     6     ar
7     6     7     ar
8     6     31    1
9     7     8     ar
10    7     32    1
11    8     9     1
12    8     29    ar
13    9     10    1
14    9     33    1
15    9     34    1
16    10    11    1
17    10    35    1
18    11    27    ar
19    11    12    ar
20    12    13    ar
21    12    36    1
22    13    14    ar
23    13    37    1
24    14    15    1
25    14    26    ar
26    15    16    1
27    15    38    1
28    15    39    1
29    16    25    1
30    16    17    2
31    17    18    1
32    17    40    1
33    18    19    1
34    18    41    1
35    19    25    ar
36    19    20    ar
37    20    21    ar
38    21    22    ar
39    21    42    1
40    22    23    1
41    22    24    ar
42    24    25    ar
43    24    43    1
44    26    27    ar
45    26    44    1
46    27    28    1
47    29    30    ar
48    29    45    1
@<TRIPOS>SUBSTRUCTURE
1   ZINC000115705166 1     RESIDUE    1   A     ZIN   1
