@<TRIPOS>MOLECULE
ZINC000072190123
  41   42    0    0    0
SMALL
USER_CHARGES
NO_NAME
@<TRIPOS>ATOM
    1 C1       -0.0187     1.5258     0.0104 C.3    1 <0>      -0.1400
    2 C2        0.0021    -0.0041     0.0020 C.3    1 <0>       0.0600
    3 H3        0.5123    -0.3556    -0.8948 H      1 <0>       0.0700
    4 N4       -1.3761    -0.5125     0.0124 N.3    1 <0>      -0.6700
    5 C5       -1.9244    -0.5753    -1.3489 C.3    1 <0>       0.1000
    6 C6       -3.3361    -1.1002    -1.2982 C.ar   1 <0>      -0.1200
    7 C7       -3.5702    -2.4602    -1.3836 C.ar   1 <0>      -0.0700
    8 C8       -4.8633    -2.9440    -1.3374 C.ar   1 <0>      -0.1500
    9 C9       -5.9275    -2.0639    -1.2047 C.ar   1 <0>       0.1300
   10 O10      -7.2006    -2.5373    -1.1585 O.3    1 <0>      -0.3100
   11 C11      -8.2466    -1.5735    -1.0208 C.3    1 <0>       0.1100
   12 C12      -9.5781    -2.2785    -0.9879 C.ar   1 <0>      -0.1300
   13 C13      -9.6333    -3.6560    -1.0803 C.ar   1 <0>      -0.0700
   14 C14     -10.8548    -4.3031    -1.0502 C.ar   1 <0>      -0.1300
   15 C15     -12.0221    -3.5730    -0.9283 C.ar   1 <0>      -0.0900
   16 C16     -11.9694    -2.1948    -0.8362 C.ar   1 <0>      -0.1500
   17 C17     -10.7465    -1.5463    -0.8595 C.ar   1 <0>       0.1000
   18 F18     -10.6938    -0.1994    -0.7695 F      1 <0>      -0.1400
   19 C19      -5.6900    -0.6998    -1.1187 C.ar   1 <0>      -0.2100
   20 C20      -4.3947    -0.2214    -1.1606 C.ar   1 <0>      -0.0500
   21 C21       0.7309    -0.5033     1.2229 C.2    1 <0>       0.5200
   22 N22       2.0187    -0.1613     1.4257 N.am   1 <0>      -0.8500
   23 O23       0.1587    -1.2128     2.0229 O.2    1 <0>      -0.5300
   24 H24       1.0039     1.9031     0.0027 H      1 <0>       0.0600
   25 H25      -0.5459     1.8868    -0.8726 H      1 <0>       0.0700
   26 H26      -0.5289     1.8773     0.9072 H      1 <0>       0.0700
   27 H27      -1.4257    -1.4134     0.4641 H      1 <0>       0.3600
   28 H28      -1.9233     0.4226    -1.7874 H      1 <0>       0.0800
   29 H29      -1.3112    -1.2401    -1.9573 H      1 <0>       0.0400
   30 H30      -2.7414    -3.1449    -1.4869 H      1 <0>       0.1300
   31 H31      -5.0457    -4.0063    -1.4048 H      1 <0>       0.1300
   32 H32      -8.1075    -1.0163    -0.0943 H      1 <0>       0.0800
   33 H33      -8.2204    -0.8856    -1.8659 H      1 <0>       0.0800
   34 H34      -8.7219    -4.2275    -1.1764 H      1 <0>       0.1400
   35 H35     -10.8969    -5.3799    -1.1225 H      1 <0>       0.1300
   36 H36     -12.9757    -4.0794    -0.9053 H      1 <0>       0.1400
   37 H37     -12.8816    -1.6245    -0.7415 H      1 <0>       0.1400
   38 H38      -6.5168    -0.0126    -1.0157 H      1 <0>       0.1300
   39 H39      -4.2092     0.8404    -1.0934 H      1 <0>       0.1300
   40 H40       2.4764     0.4061     0.7859 H      1 <0>       0.4000
   41 H41       2.4879    -0.4826     2.2116 H      1 <0>       0.4000
@<TRIPOS>BOND
   1    1    2 1
   2    1   24 1
   3    1   25 1
   4    1   26 1
   5    2    3 1
   6    2    4 1
   7    2   21 1
   8    4    5 1
   9    4   27 1
  10    5    6 1
  11    5   28 1
  12    5   29 1
  13    6   20 ar
  14    6    7 ar
  15    7    8 ar
  16    7   30 1
  17    8    9 ar
  18    8   31 1
  19    9   10 1
  20    9   19 ar
  21   10   11 1
  22   11   12 1
  23   11   32 1
  24   11   33 1
  25   12   17 ar
  26   12   13 ar
  27   13   14 ar
  28   13   34 1
  29   14   15 ar
  30   14   35 1
  31   15   16 ar
  32   15   36 1
  33   16   17 ar
  34   16   37 1
  35   17   18 1
  36   19   20 ar
  37   19   38 1
  38   20   39 1
  39   21   22 am
  40   21   23 2
  41   22   40 1
  42   22   41 1
