@<TRIPOS>MOLECULE
ZINC000028124370
70    73    1     0     0
SMALL
USER_CHARGES
@<TRIPOS>ATOM
1      C1     -0.9914   -2.3207   -4.1782 C.3      1 ZINC000028124370   -0.1500
2      C2     -1.0642   -3.1987   -2.9273 C.3      1 ZINC000028124370    0.0500
3      O3      0.2366   -3.3086   -2.3461 O.3      1 ZINC000028124370   -0.3100
4      C4      0.3474   -4.0598   -1.2198 C.ar     1 ZINC000028124370    0.1500
5      C5      1.5983   -4.2007   -0.5994 C.ar     1 ZINC000028124370    0.1300
6      N6      2.7207   -3.5669   -1.1453 N.am     1 ZINC000028124370   -0.6600
7      C7      3.9537   -4.0554   -0.9054 C.2      1 ZINC000028124370    0.5500
8      O8      4.0859   -5.1051   -0.3054 O.2      1 ZINC000028124370   -0.5200
9      C9      5.1394   -3.3192   -1.3692 C.2      1 ZINC000028124370   -0.2100
10     C10     6.3563   -3.8013   -1.1325 C.2      1 ZINC000028124370   -0.0400
11     C11     7.5712   -3.0469   -1.6077 C.3      1 ZINC000028124370    0.0700
12     N12     8.4684   -2.7979   -0.4715 N.3      1 ZINC000028124370   -0.5400
13     C13     9.0198   -4.0559    0.0494 C.3      1 ZINC000028124370    0.0200
14     C14     9.5419   -1.8663   -0.8427 C.3      1 ZINC000028124370    0.0200
15     C15     1.7286   -4.9581    0.5432 C.ar     1 ZINC000028124370   -0.0700
16     C16     0.6031   -5.5918    1.0888 C.ar     1 ZINC000028124370   -0.1300
17     C17    -0.6601   -5.4511    0.4645 C.ar     1 ZINC000028124370    0.1800
18     C18    -0.7689   -4.6699   -0.6960 C.ar     1 ZINC000028124370   -0.1900
19     N19    -1.7401   -6.0545    0.9829 N.ar     1 ZINC000028124370   -0.4800
20     C20    -1.6738   -6.7850    2.0666 C.ar     1 ZINC000028124370    0.1900
21     C21    -0.4631   -6.9785    2.7509 C.ar     1 ZINC000028124370   -0.1100
22     C22    -0.4215   -7.7834    3.9345 C.1      1 ZINC000028124370    0.2500
23     N23    -0.3885   -8.4220    4.8735 N.1      1 ZINC000028124370   -0.4000
24     C24     0.7059   -6.3758    2.2617 C.ar     1 ZINC000028124370    0.2900
25     N25     1.9159   -6.5415    2.9045 N.pl3    1 ZINC000028124370   -0.7000
26     C26     2.5220   -7.8022    2.9409 C.ar     1 ZINC000028124370    0.1600
27     C27     2.3777   -8.6735    1.8694 C.ar     1 ZINC000028124370   -0.1100
28     C28     2.9761   -9.9180    1.9056 C.ar     1 ZINC000028124370   -0.1600
29     C29     3.7210  -10.2978    3.0117 C.ar     1 ZINC000028124370    0.1200
30     O30     4.3102  -11.5232    3.0461 O.3      1 ZINC000028124370   -0.3000
31     C31     4.1196  -12.3669    1.9086 C.3      1 ZINC000028124370    0.1000
32     C32     4.8399  -13.6727    2.1255 C.ar     1 ZINC000028124370   -0.0700
33     C33     6.1556  -13.8107    1.7250 C.ar     1 ZINC000028124370   -0.1000
34     C34     6.8178  -15.0082    1.9233 C.ar     1 ZINC000028124370   -0.0900
35     C35     6.1647  -16.0685    2.5221 C.ar     1 ZINC000028124370   -0.1400
36     C36     4.8467  -15.9312    2.9242 C.ar     1 ZINC000028124370    0.1000
37     F37     4.2072  -16.9672    3.5099 F        1 ZINC000028124370   -0.1400
38     C38     4.1864  -14.7301    2.7299 C.ar     1 ZINC000028124370   -0.1300
39     C39     3.8663   -9.4276    4.0839 C.ar     1 ZINC000028124370   -0.0300
40     Cl40    4.7992   -9.9040    5.4682 Cl       1 ZINC000028124370   -0.0500
41     C41     3.2731   -8.1805    4.0465 C.ar     1 ZINC000028124370   -0.1100
42     H42    -0.3084   -2.7707   -4.8987 H        1 ZINC000028124370    0.0700
43     H43    -1.9836   -2.2368   -4.6215 H        1 ZINC000028124370    0.0800
44     H44    -0.6303   -1.3290   -3.9055 H        1 ZINC000028124370    0.0700
45     H45    -1.7472   -2.7487   -2.2068 H        1 ZINC000028124370    0.0700
46     H46    -1.4253   -4.1903   -3.2000 H        1 ZINC000028124370    0.0700
47     H47     2.6110   -2.7761   -1.6963 H        1 ZINC000028124370    0.4200
48     H48     5.0220   -2.3871   -1.9020 H        1 ZINC000028124370    0.1300
49     H49     6.4736   -4.7333   -0.5997 H        1 ZINC000028124370    0.1300
50     H50     8.0937   -3.6369   -2.3607 H        1 ZINC000028124370    0.0600
51     H51     7.2618   -2.0960   -2.0415 H        1 ZINC000028124370    0.0900
52     H52     9.5828   -4.5589   -0.7368 H        1 ZINC000028124370    0.0300
53     H53     9.6804   -3.8426    0.8898 H        1 ZINC000028124370    0.0700
54     H54     8.2053   -4.6995    0.3817 H        1 ZINC000028124370    0.0700
55     H55     9.1070   -0.9182   -1.1589 H        1 ZINC000028124370    0.0700
56     H56    10.1915   -1.6995    0.0166 H        1 ZINC000028124370    0.0700
57     H57    10.1238   -2.2901   -1.6612 H        1 ZINC000028124370    0.0300
58     H58     2.6934   -5.0638    1.0168 H        1 ZINC000028124370    0.1700
59     H59    -1.7264   -4.5543   -1.1821 H        1 ZINC000028124370    0.1500
60     H60    -2.5725   -7.2501    2.4441 H        1 ZINC000028124370    0.1700
61     H61     2.3462   -5.7840    3.3311 H        1 ZINC000028124370    0.4200
62     H62     1.7972   -8.3784    1.0078 H        1 ZINC000028124370    0.1300
63     H63     2.8633  -10.5956    1.0723 H        1 ZINC000028124370    0.1400
64     H64     3.0551  -12.5574    1.7719 H        1 ZINC000028124370    0.0800
65     H65     4.5177  -11.8753    1.0209 H        1 ZINC000028124370    0.0800
66     H66     6.6667  -12.9827    1.2565 H        1 ZINC000028124370    0.1300
67     H67     7.8457  -15.1151    1.6096 H        1 ZINC000028124370    0.1400
68     H68     6.6819  -17.0040    2.6763 H        1 ZINC000028124370    0.1400
69     H69     3.1586  -14.6217    3.0434 H        1 ZINC000028124370    0.1400
70     H70     3.3859   -7.5034    4.8804 H        1 ZINC000028124370    0.1400
@<TRIPOS>BOND
1     1     2     1
2     1     42    1
3     1     43    1
4     1     44    1
5     2     3     1
6     2     45    1
7     2     46    1
8     3     4     1
9     4     18    ar
10    4     5     ar
11    5     6     1
12    5     15    ar
13    6     7     am
14    6     47    1
15    7     8     2
16    7     9     1
17    9     10    2
18    9     48    1
19    10    11    1
20    10    49    1
21    11    12    1
22    11    50    1
23    11    51    1
24    12    13    1
25    12    14    1
26    13    52    1
27    13    53    1
28    13    54    1
29    14    55    1
30    14    56    1
31    14    57    1
32    15    16    ar
33    15    58    1
34    16    24    ar
35    16    17    ar
36    17    18    ar
37    17    19    ar
38    18    59    1
39    19    20    ar
40    20    21    ar
41    20    60    1
42    21    22    1
43    21    24    ar
44    22    23    3
45    24    25    1
46    25    26    1
47    25    61    1
48    26    41    ar
49    26    27    ar
50    27    28    ar
51    27    62    1
52    28    29    ar
53    28    63    1
54    29    30    1
55    29    39    ar
56    30    31    1
57    31    32    1
58    31    64    1
59    31    65    1
60    32    38    ar
61    32    33    ar
62    33    34    ar
63    33    66    1
64    34    35    ar
65    34    67    1
66    35    36    ar
67    35    68    1
68    36    37    1
69    36    38    ar
70    38    69    1
71    39    40    1
72    39    41    ar
73    41    70    1
@<TRIPOS>SUBSTRUCTURE
1   ZINC000028124370 1     RESIDUE    1   A     ZIN   1
