@<TRIPOS>MOLECULE
ZINC000118868440
74    78    1     0     0
SMALL
USER_CHARGES
@<TRIPOS>ATOM
1      C1      0.3558    3.1442   -1.1406 C.3      1 ZINC000118868440   -0.1500
2      C2      0.4076    1.8041   -0.4041 C.3      1 ZINC000118868440   -0.1300
3      C3      0.9925    0.7357   -1.3299 C.3      1 ZINC000118868440    0.1400
4      H4      1.9633    1.0666   -1.6989 H        1 ZINC000118868440    0.0700
5      C5      1.1603   -0.5734   -0.5558 C.3      1 ZINC000118868440   -0.1700
6      N6      0.0872    0.5212   -2.4615 N.pl3    1 ZINC000118868440   -0.7200
7      C7      0.5815    0.0292   -3.6630 C.ar     1 ZINC000118868440    0.2700
8      C8      1.9464   -0.1630   -3.8279 C.ar     1 ZINC000118868440   -0.1900
9      C9      2.4374   -0.6567   -5.0336 C.ar     1 ZINC000118868440   -0.0600
10     C10     3.8931   -0.8619   -5.2100 C.2      1 ZINC000118868440    0.5400
11     O11     4.3308   -1.2148   -6.2874 O.2      1 ZINC000118868440   -0.5200
12     N12     4.7328   -0.6574   -4.1758 N.am     1 ZINC000118868440   -0.7400
13     C13     6.1731   -0.8605   -4.3504 C.3      1 ZINC000118868440    0.1400
14     H14     6.3774   -1.1375   -5.3846 H        1 ZINC000118868440    0.1100
15     C15     6.9147    0.4365   -4.0144 C.3      1 ZINC000118868440   -0.1200
16     C16     6.7409    0.7355   -2.5167 C.3      1 ZINC000118868440    0.0800
17     H17     7.1331    1.7157   -2.2455 H        1 ZINC000118868440    0.1100
18     C18     5.2393    0.5924   -2.1772 C.3      1 ZINC000118868440   -0.1900
19     C19     5.0564   -0.8959   -1.8140 C.3      1 ZINC000118868440   -0.1800
20     C20     6.4641   -1.5168   -1.9669 C.3      1 ZINC000118868440    0.0800
21     H21     6.6402   -2.3199   -1.2513 H        1 ZINC000118868440    0.1100
22     C22     6.6460   -1.9811   -3.4200 C.3      1 ZINC000118868440   -0.1200
23     N23     7.4058   -0.3637   -1.7677 N.3      1 ZINC000118868440   -0.4500
24     C24     7.5287   -0.0502   -0.4260 C.ar     1 ZINC000118868440    0.3400
25     C25     8.3589    1.0015   -0.0397 C.ar     1 ZINC000118868440   -0.1900
26     C26     8.4786    1.3102    1.2875 C.ar     1 ZINC000118868440    0.0000
27     C27     7.7534    0.5485    2.2208 C.ar     1 ZINC000118868440   -0.2400
28     C28     7.8484    0.8413    3.6560 C.2      1 ZINC000118868440    0.4300
29     O29     8.5564    1.7462    4.0448 O.2      1 ZINC000118868440   -0.4600
30     C30     7.0662    0.0177    4.6465 C.3      1 ZINC000118868440   -0.2200
31     C31     7.7474   -0.3275    5.9722 C.3      1 ZINC000118868440   -0.1500
32     C32     6.6181    0.7042    5.9383 C.3      1 ZINC000118868440   -0.1500
33     C33     6.9396   -0.4926    1.7607 C.ar     1 ZINC000118868440    0.1800
34     N34     6.8506   -0.7511    0.4737 N.ar     1 ZINC000118868440   -0.5200
35     C35     1.5591   -0.9593   -6.0771 C.ar     1 ZINC000118868440   -0.1000
36     C36     2.0961   -1.4939   -7.3797 C.3      1 ZINC000118868440   -0.1200
37     C37     0.2047   -0.7711   -5.9190 C.ar     1 ZINC000118868440   -0.0400
38     C38    -0.2978   -0.2805   -4.7117 C.ar     1 ZINC000118868440   -0.2100
39     C39    -1.7504   -0.0788   -4.5427 C.2      1 ZINC000118868440    0.5800
40     N40    -2.6024   -0.4714   -5.5105 N.am     1 ZINC000118868440   -0.8500
41     O41    -2.1783    0.4415   -3.5306 O.2      1 ZINC000118868440   -0.5500
42     H42     1.3634    3.4340   -1.4389 H        1 ZINC000118868440    0.0500
43     H43    -0.2719    3.0479   -2.0265 H        1 ZINC000118868440    0.0600
44     H44    -0.0609    3.9054   -0.4810 H        1 ZINC000118868440    0.0600
45     H45     1.0353    1.9005    0.4818 H        1 ZINC000118868440    0.0800
46     H46    -0.6000    1.5144   -0.1058 H        1 ZINC000118868440    0.0700
47     H47     1.5771   -1.3346   -1.2154 H        1 ZINC000118868440    0.0600
48     H48     1.8339   -0.4139    0.2861 H        1 ZINC000118868440    0.0700
49     H49     0.1896   -0.9043   -0.1868 H        1 ZINC000118868440    0.0600
50     H50    -0.8574    0.7228   -2.3718 H        1 ZINC000118868440    0.4200
51     H51     2.6265    0.0705   -3.0221 H        1 ZINC000118868440    0.1300
52     H52     4.3834   -0.3758   -3.3158 H        1 ZINC000118868440    0.4300
53     H53     7.9742    0.3209   -4.2430 H        1 ZINC000118868440    0.0900
54     H54     6.5003    1.2565   -4.6009 H        1 ZINC000118868440    0.0800
55     H55     4.9805    1.2247   -1.3279 H        1 ZINC000118868440    0.0800
56     H56     4.6286    0.8495   -3.0426 H        1 ZINC000118868440    0.1000
57     H57     4.7076   -0.9954   -0.7861 H        1 ZINC000118868440    0.0900
58     H58     4.3558   -1.3707   -2.5009 H        1 ZINC000118868440    0.1000
59     H59     6.0384   -2.8682   -3.5986 H        1 ZINC000118868440    0.0800
60     H60     7.6956   -2.2130   -3.6004 H        1 ZINC000118868440    0.0900
61     H61     8.9028    1.5671   -0.7818 H        1 ZINC000118868440    0.1400
62     H62     9.1156    2.1200    1.6110 H        1 ZINC000118868440    0.1500
63     H63     6.3981   -0.7274    4.2146 H        1 ZINC000118868440    0.1300
64     H64     7.5276   -1.3000    6.4127 H        1 ZINC000118868440    0.1100
65     H65     8.7613    0.0410    6.1281 H        1 ZINC000118868440    0.1000
66     H66     6.8891    1.7515    6.0718 H        1 ZINC000118868440    0.1000
67     H67     5.6553    0.4104    6.3565 H        1 ZINC000118868440    0.1100
68     H68     6.3772   -1.0855    2.4668 H        1 ZINC000118868440    0.1700
69     H69     2.2580   -2.5683   -7.2924 H        1 ZINC000118868440    0.0700
70     H70     1.3782   -1.2982   -8.1763 H        1 ZINC000118868440    0.0500
71     H71     3.0404   -1.0019   -7.6127 H        1 ZINC000118868440    0.1000
72     H72    -0.4706   -1.0067   -6.7282 H        1 ZINC000118868440    0.1300
73     H73    -2.2610   -0.8865   -6.3180 H        1 ZINC000118868440    0.4000
74     H74    -3.5568   -0.3389   -5.3995 H        1 ZINC000118868440    0.4100
@<TRIPOS>BOND
1     1     2     1
2     1     42    1
3     1     43    1
4     1     44    1
5     2     3     1
6     2     45    1
7     2     46    1
8     3     4     1
9     3     5     1
10    3     6     1
11    5     47    1
12    5     48    1
13    5     49    1
14    6     7     1
15    6     50    1
16    7     38    ar
17    7     8     ar
18    8     9     ar
19    8     51    1
20    9     10    1
21    9     35    ar
22    10    11    2
23    10    12    am
24    12    13    1
25    12    52    1
26    13    14    1
27    13    22    1
28    13    15    1
29    15    16    1
30    15    53    1
31    15    54    1
32    16    17    1
33    16    23    1
34    16    18    1
35    18    19    1
36    18    55    1
37    18    56    1
38    19    20    1
39    19    57    1
40    19    58    1
41    20    21    1
42    20    22    1
43    20    23    1
44    22    59    1
45    22    60    1
46    23    24    1
47    24    34    ar
48    24    25    ar
49    25    26    ar
50    25    61    1
51    26    27    ar
52    26    62    1
53    27    28    1
54    27    33    ar
55    28    29    2
56    28    30    1
57    30    32    1
58    30    31    1
59    30    63    1
60    31    32    1
61    31    64    1
62    31    65    1
63    32    66    1
64    32    67    1
65    33    34    ar
66    33    68    1
67    35    36    1
68    35    37    ar
69    36    69    1
70    36    70    1
71    36    71    1
72    37    38    ar
73    37    72    1
74    38    39    1
75    39    40    am
76    39    41    2
77    40    73    1
78    40    74    1
@<TRIPOS>SUBSTRUCTURE
1   ZINC000118868440 1     RESIDUE    1   A     ZIN   1
