@<TRIPOS>MOLECULE
ZINC000005934092
39    40    1     0     0
SMALL
USER_CHARGES
@<TRIPOS>ATOM
1      O1      0.0021   -0.0041    0.0020 O.co2    1 ZINC000005934092   -0.6700
2      C2     -0.0145    1.2150    0.0087 C.2      1 ZINC000005934092    0.5000
3      O3      1.0330    1.8389    0.0021 O.co2    1 ZINC000005934092   -0.6900
4      C4     -1.3296    1.9507    0.0190 C.3      1 ZINC000005934092   -0.0100
5      O5     -2.4031    1.0074    0.0189 O.3      1 ZINC000005934092   -0.2800
6      C6     -3.6658    1.5097    0.0276 C.ar     1 ZINC000005934092    0.1400
7      C7     -3.8676    2.8823    0.0303 C.ar     1 ZINC000005934092   -0.2200
8      C8     -5.1522    3.3904    0.0386 C.ar     1 ZINC000005934092   -0.0700
9      C9     -6.2363    2.5323    0.0449 C.ar     1 ZINC000005934092   -0.1500
10     C10    -7.6365    3.0893    0.0545 C.3      1 ZINC000005934092   -0.0700
11     C11    -8.1198    3.2792   -1.3847 C.3      1 ZINC000005934092    0.1200
12     N12    -9.4810    3.8207   -1.3753 N.am     1 ZINC000005934092   -1.1200
13     S13   -10.1222    4.4729   -2.7558 S.o2     1 ZINC000005934092    2.7000
14     O14   -11.4474    4.8716   -2.4333 O.2      1 ZINC000005934092   -0.9600
15     O15    -9.1445    5.3677   -3.2685 O.2      1 ZINC000005934092   -0.9500
16     C16   -10.2671    3.1679   -3.9307 C.ar     1 ZINC000005934092   -0.6800
17     C17    -9.2188    2.8899   -4.7878 C.ar     1 ZINC000005934092   -0.0200
18     C18    -9.3325    1.8661   -5.7096 C.ar     1 ZINC000005934092   -0.1400
19     C19   -10.4944    1.1199   -5.7740 C.ar     1 ZINC000005934092   -0.0600
20     C20   -11.5424    1.3973   -4.9163 C.ar     1 ZINC000005934092   -0.1400
21     C21   -11.4270    2.4183   -3.9916 C.ar     1 ZINC000005934092   -0.0200
22     C22    -6.0379    1.1639    0.0418 C.ar     1 ZINC000005934092   -0.0700
23     C23    -4.7553    0.6508    0.0281 C.ar     1 ZINC000005934092   -0.1600
24     H24    -1.3917    2.5717    0.9126 H        1 ZINC000005934092    0.0600
25     H25    -1.4001    2.5813   -0.8673 H        1 ZINC000005934092    0.0600
26     H26    -3.0211    3.5530    0.0261 H        1 ZINC000005934092    0.1300
27     H27    -5.3098    4.4589    0.0407 H        1 ZINC000005934092    0.1200
28     H28    -8.2997    2.3962    0.5720 H        1 ZINC000005934092    0.0800
29     H29    -7.6418    4.0501    0.5693 H        1 ZINC000005934092    0.0800
30     H30    -7.4566    3.9723   -1.9022 H        1 ZINC000005934092    0.0800
31     H31    -8.1145    2.3184   -1.8995 H        1 ZINC000005934092    0.0700
32     H32   -10.0067    3.7972   -0.5605 H        1 ZINC000005934092    0.4200
33     H33    -8.3110    3.4729   -4.7376 H        1 ZINC000005934092    0.1400
34     H34    -8.5138    1.6494   -6.3797 H        1 ZINC000005934092    0.1300
35     H35   -10.5835    0.3204   -6.4946 H        1 ZINC000005934092    0.1300
36     H36   -12.4503    0.8145   -4.9668 H        1 ZINC000005934092    0.1300
37     H37   -12.2458    2.6351   -3.3215 H        1 ZINC000005934092    0.1400
38     H38    -6.8863    0.4957    0.0464 H        1 ZINC000005934092    0.1200
39     H39    -4.6008   -0.4180    0.0258 H        1 ZINC000005934092    0.1300
@<TRIPOS>BOND
1     1     2     ar
2     2     3     ar
3     2     4     1
4     4     5     1
5     4     24    1
6     4     25    1
7     5     6     1
8     6     23    ar
9     6     7     ar
10    7     8     ar
11    7     26    1
12    8     9     ar
13    8     27    1
14    9     10    1
15    9     22    ar
16    10    11    1
17    10    28    1
18    10    29    1
19    11    12    1
20    11    30    1
21    11    31    1
22    12    13    am
23    12    32    1
24    13    14    2
25    13    15    2
26    13    16    1
27    16    21    ar
28    16    17    ar
29    17    18    ar
30    17    33    1
31    18    19    ar
32    18    34    1
33    19    20    ar
34    19    35    1
35    20    21    ar
36    20    36    1
37    21    37    1
38    22    23    ar
39    22    38    1
40    23    39    1
@<TRIPOS>SUBSTRUCTURE
1   ZINC000005934092 1     RESIDUE    1   A     ZIN   1
