@<TRIPOS>MOLECULE
ZINC000003612873
  33   35    0    0    0
SMALL
USER_CHARGES
NO_NAME
@<TRIPOS>ATOM
    1 C1        0.6311    -0.4004     1.3955 C.3    1 <0>      -0.1600
    2 C2        0.0200    -0.0497     0.0374 C.3    1 <0>      -0.1100
    3 C3       -1.3917    -0.6328    -0.0525 C.3    1 <0>       0.0000
    4 C4       -2.2577    -0.1078     1.0635 C.2    1 <0>       0.0800
    5 C5       -2.7649    -0.8189     2.0885 C.2    1 <0>       0.0000
    6 N6       -3.4774     0.0155     2.8600 N.pl3  1 <0>      -0.4700
    7 H7       -3.9520    -0.2344     3.6682 H      1 <0>       0.4700
    8 C8       -3.4310     1.2166     2.3520 C.cat  1 <0>       0.3100
    9 N9       -2.6751     1.1847     1.2334 N.pl3  1 <0>      -0.5100
   10 C10      -2.0222    -0.3336    -1.4291 C.3    1 <0>      -0.0700
   11 C11      -1.6748    -1.5278    -2.2921 C.ar   1 <0>      -0.1100
   12 C12      -1.6952    -1.6757    -3.6687 C.ar   1 <0>      -0.0700
   13 C13      -1.3312    -2.8769    -4.2448 C.ar   1 <0>      -0.1500
   14 C14      -0.9442    -3.9375    -3.4436 C.ar   1 <0>       0.1100
   15 F15      -0.5871    -5.1138    -4.0040 F      1 <0>      -0.1300
   16 C16      -0.9236    -3.7906    -2.0679 C.ar   1 <0>      -0.1400
   17 C17      -1.2885    -2.5865    -1.4909 C.ar   1 <0>      -0.0700
   18 C18      -1.3502    -2.1756    -0.0353 C.3    1 <0>      -0.0700
   19 H19       1.6429     0.0009     1.4532 H      1 <0>       0.0700
   20 H20       0.0229     0.0318     2.1901 H      1 <0>       0.0500
   21 H21       0.6629    -1.4839     1.5108 H      1 <0>       0.0700
   22 H22      -0.0269     1.0338    -0.0710 H      1 <0>       0.0700
   23 H23       0.6372    -0.4681    -0.7577 H      1 <0>       0.0900
   24 H24      -2.6228    -1.8758     2.2594 H      1 <0>       0.2200
   25 H25      -3.9139     2.0920     2.7606 H      1 <0>       0.2700
   26 H26      -2.4713     1.9361     0.6548 H      1 <0>       0.4700
   27 H27      -3.1039    -0.2358    -1.3365 H      1 <0>       0.0900
   28 H28      -1.5943     0.5756    -1.8515 H      1 <0>       0.0900
   29 H29      -1.9973    -0.8488    -4.2942 H      1 <0>       0.1400
   30 H30      -1.3479    -2.9886    -5.3189 H      1 <0>       0.1400
   31 H31      -0.6221    -4.6179    -1.4425 H      1 <0>       0.1400
   32 H32      -0.4635    -2.5245     0.4941 H      1 <0>       0.1000
   33 H33      -2.2513    -2.5727     0.4320 H      1 <0>       0.0900
@<TRIPOS>BOND
   1    1    2 1
   2    1   19 1
   3    1   20 1
   4    1   21 1
   5    2    3 1
   6    2   22 1
   7    2   23 1
   8    3   18 1
   9    3    4 1
  10    3   10 1
  11    4    9 1
  12    4    5 2
  13    5    6 1
  14    5   24 1
  15    6    7 1
  16    6    8 ar
  17    8    9 ar
  18    8   25 1
  19    9   26 1
  20   10   11 1
  21   10   27 1
  22   10   28 1
  23   11   17 ar
  24   11   12 ar
  25   12   13 ar
  26   12   29 1
  27   13   14 ar
  28   13   30 1
  29   14   15 1
  30   14   16 ar
  31   16   17 ar
  32   16   31 1
  33   17   18 1
  34   18   32 1
  35   18   33 1
