@<TRIPOS>MOLECULE
ZINC000001912267
41    42    1     0     0
SMALL
USER_CHARGES
@<TRIPOS>ATOM
1      C1     -0.0187    1.5258    0.0104 C.3      1 ZINC000001912267   -0.1500
2      C2      0.0021   -0.0041    0.0020 C.3      1 ZINC000001912267   -0.0500
3      C3     -1.4117   -0.5257    0.0127 C.2      1 ZINC000001912267    0.0900
4      N4     -2.1221   -0.7911    1.0791 N.2      1 ZINC000001912267   -0.2700
5      N5     -3.3790   -1.2526    0.6676 N.pl3    1 ZINC000001912267   -0.3600
6      C6     -4.4784   -1.6599    1.5460 C.3      1 ZINC000001912267    0.1300
7      C7     -5.3591   -0.4479    1.8563 C.3      1 ZINC000001912267    0.0600
8      O8     -6.4315   -0.8451    2.7131 O.3      1 ZINC000001912267   -0.5700
9      C9     -3.3977   -1.2547   -0.6908 C.2      1 ZINC000001912267    0.1000
10     C10    -4.5509   -1.6763   -1.5646 C.3      1 ZINC000001912267   -0.0700
11     C11    -5.4396   -0.4654   -1.8556 C.3      1 ZINC000001912267   -0.1500
12     C12    -2.1921   -0.8035   -1.1177 C.2      1 ZINC000001912267   -0.0800
13     O13    -1.8056   -0.6540   -2.4151 O.3      1 ZINC000001912267   -0.2100
14     C14    -2.0437    0.5403   -3.0181 C.ar     1 ZINC000001912267    0.1200
15     C15    -2.6576    1.5616   -2.3102 C.ar     1 ZINC000001912267   -0.1200
16     C16    -2.9037    2.7906   -2.9258 C.ar     1 ZINC000001912267    0.0100
17     C17    -3.5376    3.8453   -2.1934 C.1      1 ZINC000001912267    0.2500
18     N18    -4.0404    4.6819   -1.6123 N.1      1 ZINC000001912267   -0.3900
19     C19    -2.5310    2.9895   -4.2541 C.ar     1 ZINC000001912267   -0.0600
20     C20    -1.9139    1.9598   -4.9624 C.ar     1 ZINC000001912267    0.0200
21     C21    -1.5289    2.1586   -6.3272 C.1      1 ZINC000001912267    0.2500
22     N22    -1.2235    2.3164   -7.4100 N.1      1 ZINC000001912267   -0.3900
23     C23    -1.6668    0.7356   -4.3374 C.ar     1 ZINC000001912267   -0.0700
24     H24     1.0039    1.9031    0.0027 H        1 ZINC000001912267    0.0700
25     H25    -0.5459    1.8868   -0.8726 H        1 ZINC000001912267    0.0600
26     H26    -0.5289    1.8773    0.9072 H        1 ZINC000001912267    0.0600
27     H27     0.5123   -0.3556   -0.8948 H        1 ZINC000001912267    0.0900
28     H28     0.5293   -0.3651    0.8851 H        1 ZINC000001912267    0.0900
29     H29    -5.0753   -2.4253    1.0501 H        1 ZINC000001912267    0.1100
30     H30    -4.0721   -2.0610    2.4745 H        1 ZINC000001912267    0.1100
31     H31    -4.7623    0.3176    2.3522 H        1 ZINC000001912267    0.0600
32     H32    -5.7655   -0.0468    0.9277 H        1 ZINC000001912267    0.0500
33     H33    -7.0316   -0.1254    2.9517 H        1 ZINC000001912267    0.3900
34     H34    -4.1679   -2.0795   -2.5021 H        1 ZINC000001912267    0.1000
35     H35    -5.1347   -2.4407   -1.0520 H        1 ZINC000001912267    0.0800
36     H36    -4.8558    0.2990   -2.3683 H        1 ZINC000001912267    0.0600
37     H37    -6.2737   -0.7703   -2.4876 H        1 ZINC000001912267    0.0700
38     H38    -5.8226   -0.0622   -0.9181 H        1 ZINC000001912267    0.0600
39     H39    -2.9463    1.4065   -1.2811 H        1 ZINC000001912267    0.1400
40     H40    -2.7202    3.9387   -4.7334 H        1 ZINC000001912267    0.1500
41     H41    -1.1883   -0.0627   -4.8854 H        1 ZINC000001912267    0.1500
@<TRIPOS>BOND
1     1     2     1
2     1     24    1
3     1     25    1
4     1     26    1
5     2     3     1
6     2     27    1
7     2     28    1
8     3     12    1
9     3     4     2
10    4     5     1
11    5     6     1
12    5     9     1
13    6     7     1
14    6     29    1
15    6     30    1
16    7     8     1
17    7     31    1
18    7     32    1
19    8     33    1
20    9     10    1
21    9     12    2
22    10    11    1
23    10    34    1
24    10    35    1
25    11    36    1
26    11    37    1
27    11    38    1
28    12    13    1
29    13    14    1
30    14    23    ar
31    14    15    ar
32    15    16    ar
33    15    39    1
34    16    17    1
35    16    19    ar
36    17    18    3
37    19    20    ar
38    19    40    1
39    20    21    1
40    20    23    ar
41    21    22    3
42    23    41    1
@<TRIPOS>SUBSTRUCTURE
1   ZINC000001912267 1     RESIDUE    1   A     ZIN   1
