@<TRIPOS>MOLECULE
ZINC000000538083
56    57    1     0     0
SMALL
USER_CHARGES
@<TRIPOS>ATOM
1      C1     -0.9525    1.3923    0.5002 C.3      1 ZINC000000538083    0.0800
2      N2     -0.8643   -0.0670    0.5955 N.am     1 ZINC000000538083   -0.5600
3      C3     -0.6923   -0.6486    1.7988 C.2      1 ZINC000000538083    0.5600
4      O4     -0.6106    0.0355    2.8046 O.2      1 ZINC000000538083   -0.5300
5      C5     -0.6081   -2.0470    1.8873 C.2      1 ZINC000000538083   -0.4000
6      C6     -0.7031   -2.7915    0.7445 C.2      1 ZINC000000538083    0.4800
7      N7     -0.6246   -4.1595    0.8016 N.pl3    1 ZINC000000538083   -0.7200
8      C8     -0.2976   -4.8223    2.0665 C.3      1 ZINC000000538083    0.1300
9      C9     -0.1551   -6.3274    1.8316 C.3      1 ZINC000000538083    0.0400
10     N10     0.1729   -6.9921    3.0999 N.3      1 ZINC000000538083   -0.5200
11     C11    -0.9421   -6.8908    4.0510 C.3      1 ZINC000000538083    0.0500
12     C12    -0.4398   -7.2070    5.4612 C.3      1 ZINC000000538083    0.0800
13     O13     0.5173   -6.2227    5.8578 O.3      1 ZINC000000538083   -0.5600
14     C14     0.5493   -8.3945    2.8774 C.3      1 ZINC000000538083    0.0500
15     C15     1.9722   -8.4581    2.3186 C.3      1 ZINC000000538083   -0.1100
16     C16     2.3504   -9.9163    2.0513 C.3      1 ZINC000000538083   -0.0900
17     C17     3.7519   -9.9790    1.5010 C.ar     1 ZINC000000538083   -0.0300
18     C18     3.9623   -9.9104    0.1364 C.ar     1 ZINC000000538083   -0.1200
19     C19     5.2479   -9.9679   -0.3684 C.ar     1 ZINC000000538083   -0.0500
20     C20     6.3231  -10.0935    0.4913 C.ar     1 ZINC000000538083   -0.0500
21     N21     7.6996  -10.1556   -0.0493 N.pl3    1 ZINC000000538083    0.0300
22     O22     7.8850  -10.0959   -1.2516 O.2      1 ZINC000000538083   -0.1600
23     O23     8.6470  -10.2663    0.7082 O.2      1 ZINC000000538083   -0.1600
24     C24     6.1127  -10.1608    1.8559 C.ar     1 ZINC000000538083   -0.0500
25     C25     4.8274  -10.0995    2.3610 C.ar     1 ZINC000000538083   -0.1200
26     N26    -0.8782   -2.1571   -0.4613 N.am     1 ZINC000000538083   -0.5500
27     C27    -0.9810   -2.9462   -1.6913 C.3      1 ZINC000000538083    0.0700
28     C28    -0.9613   -0.8151   -0.5185 C.2      1 ZINC000000538083    0.7100
29     O29    -1.1163   -0.2701   -1.5942 O.2      1 ZINC000000538083   -0.5400
30     H30    -1.9930    1.7008    0.6011 H        1 ZINC000000538083    0.0700
31     H31    -0.3606    1.8448    1.2958 H        1 ZINC000000538083    0.0900
32     H32    -0.5694    1.7170   -0.4673 H        1 ZINC000000538083    0.0900
33     H33    -0.4699   -2.5279    2.8444 H        1 ZINC000000538083    0.1600
34     H34    -0.7857   -4.6882    0.0045 H        1 ZINC000000538083    0.4000
35     H35     0.6407   -4.4245    2.4532 H        1 ZINC000000538083    0.0900
36     H36    -1.0940   -4.6410    2.7882 H        1 ZINC000000538083    0.0800
37     H37    -1.0933   -6.7253    1.4449 H        1 ZINC000000538083    0.0400
38     H38     0.6413   -6.5087    1.1098 H        1 ZINC000000538083    0.0900
39     H39    -1.3484   -5.8796    4.0282 H        1 ZINC000000538083    0.0900
40     H40    -1.7209   -7.6016    3.7748 H        1 ZINC000000538083    0.0500
41     H41    -1.2793   -7.1983    6.1564 H        1 ZINC000000538083    0.0500
42     H42     0.0275   -8.1917    5.4682 H        1 ZINC000000538083    0.0400
43     H43     0.8791   -6.3606    6.7439 H        1 ZINC000000538083    0.3800
44     H44     0.5053   -8.9368    3.8219 H        1 ZINC000000538083    0.0800
45     H45    -0.1411   -8.8475    2.1659 H        1 ZINC000000538083    0.0400
46     H46     2.0226   -7.8932    1.3878 H        1 ZINC000000538083    0.0700
47     H47     2.6660   -8.0295    3.0418 H        1 ZINC000000538083    0.0800
48     H48     2.2999  -10.4813    2.9821 H        1 ZINC000000538083    0.0800
49     H49     1.6565  -10.3449    1.3281 H        1 ZINC000000538083    0.0800
50     H50     3.1223   -9.8122   -0.5352 H        1 ZINC000000538083    0.1500
51     H51     5.4123   -9.9149   -1.4345 H        1 ZINC000000538083    0.1500
52     H52     6.9528  -10.2587    2.5276 H        1 ZINC000000538083    0.1500
53     H53     4.6631  -10.1521    3.4271 H        1 ZINC000000538083    0.1500
54     H54    -2.0277   -3.1789   -1.8873 H        1 ZINC000000538083    0.0800
55     H55    -0.5737   -2.3744   -2.5250 H        1 ZINC000000538083    0.1000
56     H56    -0.4182   -3.8726   -1.5767 H        1 ZINC000000538083    0.0800
@<TRIPOS>BOND
1     1     2     1
2     1     30    1
3     1     31    1
4     1     32    1
5     2     28    am
6     2     3     am
7     3     4     2
8     3     5     1
9     5     6     2
10    5     33    1
11    6     7     1
12    6     26    1
13    7     8     1
14    7     34    1
15    8     9     1
16    8     35    1
17    8     36    1
18    9     10    1
19    9     37    1
20    9     38    1
21    10    11    1
22    10    14    1
23    11    12    1
24    11    39    1
25    11    40    1
26    12    13    1
27    12    41    1
28    12    42    1
29    13    43    1
30    14    15    1
31    14    44    1
32    14    45    1
33    15    16    1
34    15    46    1
35    15    47    1
36    16    17    1
37    16    48    1
38    16    49    1
39    17    25    ar
40    17    18    ar
41    18    19    ar
42    18    50    1
43    19    20    ar
44    19    51    1
45    20    21    1
46    20    24    ar
47    21    22    2
48    21    23    2
49    24    25    ar
50    24    52    1
51    25    53    1
52    26    27    1
53    26    28    am
54    27    54    1
55    27    55    1
56    27    56    1
57    28    29    2
@<TRIPOS>SUBSTRUCTURE
1   ZINC000000538083 1     RESIDUE    1   A     ZIN   1
