@<TRIPOS>MOLECULE
ZINC000001543218
57    60    1     0     0
SMALL
USER_CHARGES
@<TRIPOS>ATOM
1      O1      0.0184   -1.7028   -0.7633 O.co2    1 ZINC000001543218   -0.6700
2      C2      0.1816   -0.4945   -0.7592 C.2      1 ZINC000001543218    0.5000
3      O3      1.3067   -0.0311   -0.8372 O.co2    1 ZINC000001543218   -0.6900
4      C4     -1.0076    0.4261   -0.6639 C.3      1 ZINC000001543218   -0.0100
5      O5     -2.2056   -0.3493   -0.5900 O.3      1 ZINC000001543218   -0.2800
6      C6     -3.3775    0.3329   -0.4990 C.ar     1 ZINC000001543218    0.1400
7      C7     -3.3683    1.7171   -0.4876 C.ar     1 ZINC000001543218   -0.2200
8      C8     -4.5608    2.4091   -0.3966 C.ar     1 ZINC000001543218   -0.0800
9      C9     -5.7518    1.7170   -0.3209 C.ar     1 ZINC000001543218   -0.1700
10     C10    -5.7661    0.3276   -0.3325 C.ar     1 ZINC000001543218   -0.0400
11     C11    -4.5814   -0.3658   -0.4236 C.ar     1 ZINC000001543218   -0.1000
12     C12    -4.5204   -1.8708   -0.4256 C.3      1 ZINC000001543218   -0.0600
13     C13    -5.8883   -2.4636   -0.7576 C.3      1 ZINC000001543218   -0.1000
14     C14    -6.9308   -1.8209    0.1648 C.3      1 ZINC000001543218    0.1400
15     O15    -6.4818   -1.8888    1.5197 O.3      1 ZINC000001543218   -0.5400
16     C16    -8.2648   -2.5572    0.0266 C.3      1 ZINC000001543218    0.0600
17     O17    -9.2783   -1.8740    0.8105 O.3      1 ZINC000001543218   -0.3500
18     C18   -10.5184   -2.3984    0.7966 C.2      1 ZINC000001543218    0.6600
19     O19   -10.7475   -3.3995    0.1472 O.2      1 ZINC000001543218   -0.5500
20     N20   -11.5056   -1.8128    1.5029 N.am     1 ZINC000001543218   -0.5100
21     C21   -12.8149   -2.3017    1.4144 C.ar     1 ZINC000001543218    0.1500
22     C22   -13.1241   -3.5582    1.9185 C.ar     1 ZINC000001543218   -0.1000
23     C23   -14.4164   -4.0373    1.8300 C.ar     1 ZINC000001543218   -0.1100
24     C24   -15.4020   -3.2673    1.2402 C.ar     1 ZINC000001543218   -0.1100
25     C25   -15.0974   -2.0157    0.7373 C.ar     1 ZINC000001543218   -0.1100
26     C26   -13.8081   -1.5287    0.8274 C.ar     1 ZINC000001543218   -0.1100
27     C27   -11.2221   -0.7155    2.3254 C.ar     1 ZINC000001543218    0.1300
28     C28   -10.8323    0.4931    1.7634 C.ar     1 ZINC000001543218   -0.1100
29     C29   -10.5539    1.5736    2.5773 C.ar     1 ZINC000001543218   -0.1100
30     C30   -10.6629    1.4530    3.9505 C.ar     1 ZINC000001543218   -0.1100
31     C31   -11.0509    0.2509    4.5133 C.ar     1 ZINC000001543218   -0.1100
32     C32   -11.3358   -0.8319    3.7045 C.ar     1 ZINC000001543218   -0.1100
33     C33    -7.1039   -0.3603   -0.2538 C.3      1 ZINC000001543218   -0.1000
34     H34    -0.9185    1.0434    0.2300 H        1 ZINC000001543218    0.0600
35     H35    -1.0430    1.0663   -1.5454 H        1 ZINC000001543218    0.0600
36     H36    -2.4331    2.2538   -0.5491 H        1 ZINC000001543218    0.1300
37     H37    -4.5605    3.4890   -0.3845 H        1 ZINC000001543218    0.1200
38     H38    -6.6825    2.2606   -0.2514 H        1 ZINC000001543218    0.1100
39     H39    -3.7957   -2.2001   -1.1703 H        1 ZINC000001543218    0.0900
40     H40    -4.2070   -2.2191    0.5585 H        1 ZINC000001543218    0.0900
41     H41    -6.1377   -2.2517   -1.7973 H        1 ZINC000001543218    0.0800
42     H42    -5.8702   -3.5414   -0.5962 H        1 ZINC000001543218    0.0800
43     H43    -7.0954   -1.4991    2.1574 H        1 ZINC000001543218    0.3800
44     H44    -8.5648   -2.5722   -1.0212 H        1 ZINC000001543218    0.0800
45     H45    -8.1545   -3.5798    0.3876 H        1 ZINC000001543218    0.0800
46     H46   -12.3547   -4.1602    2.3789 H        1 ZINC000001543218    0.1300
47     H47   -14.6573   -5.0146    2.2216 H        1 ZINC000001543218    0.1300
48     H48   -16.4117   -3.6444    1.1719 H        1 ZINC000001543218    0.1300
49     H49   -15.8693   -1.4167    0.2772 H        1 ZINC000001543218    0.1300
50     H50   -13.5708   -0.5512    0.4344 H        1 ZINC000001543218    0.1300
51     H51   -10.7466    0.5878    0.6910 H        1 ZINC000001543218    0.1200
52     H52   -10.2503    2.5136    2.1407 H        1 ZINC000001543218    0.1300
53     H53   -10.4443    2.2993    4.5848 H        1 ZINC000001543218    0.1300
54     H54   -11.1351    0.1598    5.5861 H        1 ZINC000001543218    0.1300
55     H55   -11.6388   -1.7704    4.1447 H        1 ZINC000001543218    0.1200
56     H56    -7.7240    0.1531    0.4811 H        1 ZINC000001543218    0.0800
57     H57    -7.5936   -0.3209   -1.2268 H        1 ZINC000001543218    0.0800
@<TRIPOS>BOND
1     1     2     ar
2     2     3     ar
3     2     4     1
4     4     5     1
5     4     34    1
6     4     35    1
7     5     6     1
8     6     11    ar
9     6     7     ar
10    7     8     ar
11    7     36    1
12    8     9     ar
13    8     37    1
14    9     10    ar
15    9     38    1
16    10    33    1
17    10    11    ar
18    11    12    1
19    12    13    1
20    12    39    1
21    12    40    1
22    13    14    1
23    13    41    1
24    13    42    1
25    14    15    1
26    14    16    1
27    14    33    1
28    15    43    1
29    16    17    1
30    16    44    1
31    16    45    1
32    17    18    1
33    18    19    2
34    18    20    am
35    20    21    1
36    20    27    1
37    21    26    ar
38    21    22    ar
39    22    23    ar
40    22    46    1
41    23    24    ar
42    23    47    1
43    24    25    ar
44    24    48    1
45    25    26    ar
46    25    49    1
47    26    50    1
48    27    32    ar
49    27    28    ar
50    28    29    ar
51    28    51    1
52    29    30    ar
53    29    52    1
54    30    31    ar
55    30    53    1
56    31    32    ar
57    31    54    1
58    32    55    1
59    33    56    1
60    33    57    1
@<TRIPOS>SUBSTRUCTURE
1   ZINC000001543218 1     RESIDUE    1   A     ZIN   1
