@<TRIPOS>MOLECULE
ZINC000071295104
45    47    1     0     0
SMALL
USER_CHARGES
@<TRIPOS>ATOM
1      C1     -0.0152    1.5241    0.0769 C.3      1 ZINC000071295104   -0.1500
2      C2      0.0048   -0.0057    0.0609 C.3      1 ZINC000071295104   -0.1400
3      C3     -1.4309   -0.5345    0.0518 C.3      1 ZINC000071295104    0.1200
4      N4     -1.4117   -1.9993    0.0364 N.am     1 ZINC000071295104   -0.7100
5      C5     -2.5700   -2.6883    0.0263 C.2      1 ZINC000071295104    0.6000
6      O6     -3.6311   -2.0940    0.0299 O.2      1 ZINC000071295104   -0.5500
7      C7     -2.5507   -4.1618    0.0109 C.ar     1 ZINC000071295104   -0.1200
8      N8     -1.3905   -4.8122   -0.0992 N.ar     1 ZINC000071295104   -0.1500
9      N9     -1.3026   -6.0927   -0.1189 N.ar     1 ZINC000071295104   -0.2500
10     C10    -2.3810   -6.8796   -0.0295 C.ar     1 ZINC000071295104    0.1300
11     C11    -2.2713   -8.2883   -0.0518 C.ar     1 ZINC000071295104   -0.0100
12     C12    -0.9444   -8.9333   -0.1761 C.ar     1 ZINC000071295104   -0.1100
13     C13    -0.2108   -9.2548    0.9673 C.ar     1 ZINC000071295104    0.1600
14     F14    -0.7101   -8.9786    2.1918 F        1 ZINC000071295104   -0.1300
15     C15     1.0277   -9.8570    0.8439 C.ar     1 ZINC000071295104   -0.1900
16     C16     1.5418  -10.1417   -0.4082 C.ar     1 ZINC000071295104   -0.0400
17     C17     0.8231   -9.8273   -1.5467 C.ar     1 ZINC000071295104   -0.2200
18     C18    -0.4217   -9.2290   -1.4399 C.ar     1 ZINC000071295104    0.1800
19     O19    -1.1277   -8.9206   -2.5586 O.3      1 ZINC000071295104   -0.3100
20     C20    -0.5261   -9.2413   -3.8145 C.3      1 ZINC000071295104    0.0300
21     C21    -3.4187   -9.0600    0.0442 C.ar     1 ZINC000071295104   -0.0600
22     C22    -4.6678   -8.4647    0.1615 C.ar     1 ZINC000071295104   -0.1100
23     C23    -4.7991   -7.1059    0.1849 C.ar     1 ZINC000071295104   -0.0800
24     C24    -3.6639   -6.2935    0.0908 C.ar     1 ZINC000071295104   -0.1400
25     C25    -3.7507   -4.8791    0.1175 C.ar     1 ZINC000071295104    0.3100
26     N26    -4.9634   -4.2362    0.2376 N.pl3    1 ZINC000071295104   -0.8100
27     H27     1.0076    1.9008    0.0834 H        1 ZINC000071295104    0.0600
28     H28    -0.5316    1.8900   -0.8106 H        1 ZINC000071295104    0.0600
29     H29    -0.5359    1.8713    0.9693 H        1 ZINC000071295104    0.0600
30     H30     0.5255   -0.3529   -0.8315 H        1 ZINC000071295104    0.0700
31     H31     0.5212   -0.3716    0.9483 H        1 ZINC000071295104    0.0700
32     H32    -1.9516   -0.1872    0.9442 H        1 ZINC000071295104    0.0700
33     H33    -1.9472   -0.1685   -0.8357 H        1 ZINC000071295104    0.0700
34     H34    -0.5654   -2.4732    0.0335 H        1 ZINC000071295104    0.4100
35     H35     1.5957  -10.1056    1.7282 H        1 ZINC000071295104    0.1400
36     H36     2.5100  -10.6119   -0.4971 H        1 ZINC000071295104    0.1400
37     H37     1.2312  -10.0523   -2.5210 H        1 ZINC000071295104    0.1400
38     H38    -0.3471  -10.3152   -3.8679 H        1 ZINC000071295104    0.0600
39     H39    -1.1931   -8.9434   -4.6235 H        1 ZINC000071295104    0.1000
40     H40     0.4208   -8.7099   -3.9100 H        1 ZINC000071295104    0.0600
41     H41    -3.3404  -10.1370    0.0273 H        1 ZINC000071295104    0.1400
42     H42    -5.5483   -9.0857    0.2349 H        1 ZINC000071295104    0.1400
43     H43    -5.7779   -6.6588    0.2766 H        1 ZINC000071295104    0.1300
44     H44    -5.7727   -4.7506    0.3835 H        1 ZINC000071295104    0.4000
45     H45    -5.0079   -3.2692    0.1762 H        1 ZINC000071295104    0.4300
@<TRIPOS>BOND
1     1     2     1
2     1     27    1
3     1     28    1
4     1     29    1
5     2     3     1
6     2     30    1
7     2     31    1
8     3     4     1
9     3     32    1
10    3     33    1
11    4     5     am
12    4     34    1
13    5     6     2
14    5     7     1
15    7     25    ar
16    7     8     ar
17    8     9     ar
18    9     10    ar
19    10    24    ar
20    10    11    ar
21    11    12    1
22    11    21    ar
23    12    18    ar
24    12    13    ar
25    13    14    1
26    13    15    ar
27    15    16    ar
28    15    35    1
29    16    17    ar
30    16    36    1
31    17    18    ar
32    17    37    1
33    18    19    1
34    19    20    1
35    20    38    1
36    20    39    1
37    20    40    1
38    21    22    ar
39    21    41    1
40    22    23    ar
41    22    42    1
42    23    24    ar
43    23    43    1
44    24    25    ar
45    25    26    1
46    26    44    1
47    26    45    1
@<TRIPOS>SUBSTRUCTURE
1   ZINC000071295104 1     RESIDUE    1   A     ZIN   1
