@<TRIPOS>MOLECULE
ZINC000059258964
  64   68    0    0    0
SMALL
USER_CHARGES
NO_NAME
@<TRIPOS>ATOM
    1 C1       -1.1197     0.8297    -0.1969 C.3    1 <0>       0.0900
    2 N2       -0.8093    -0.6000    -0.1204 N.am   1 <0>      -0.7300
    3 C3       -0.0522    -1.1772    -1.0743 C.2    1 <0>       0.5600
    4 O4        0.3731    -0.5115    -1.9982 O.2    1 <0>      -0.5300
    5 C5        0.2612    -2.6201    -0.9971 C.ar   1 <0>      -0.1400
    6 C6       -0.2312    -3.3876     0.0604 C.ar   1 <0>      -0.0700
    7 C7        0.0615    -4.7350     0.1334 C.ar   1 <0>      -0.1300
    8 C8        0.8414    -5.3318    -0.8376 C.ar   1 <0>      -0.0600
    9 C9        1.3390    -4.5760    -1.8996 C.ar   1 <0>      -0.0700
   10 C10       2.1757    -5.2193    -2.9411 C.ar   1 <0>       0.2600
   11 C11       2.3654    -6.6060    -2.9058 C.ar   1 <0>      -0.2100
   12 C12       3.1347    -7.2109    -3.8612 C.ar   1 <0>       0.0100
   13 C13       3.7115    -6.4065    -4.8530 C.ar   1 <0>      -0.2700
   14 C14       3.4833    -5.0076    -4.8364 C.ar   1 <0>       0.3900
   15 N15       2.7212    -4.4705    -3.8852 N.ar   1 <0>      -0.4800
   16 N16       4.0445    -4.2563    -5.7952 N.ar   1 <0>      -0.5500
   17 C17       4.7916    -4.8115    -6.7309 C.ar   1 <0>       0.6000
   18 N18       5.3505    -3.9992    -7.6990 N.pl3  1 <0>      -0.5800
   19 C19       6.2576    -4.5499    -8.7184 C.3    1 <0>       0.0900
   20 C20       7.5263    -3.6900    -8.7518 C.3    1 <0>       0.0500
   21 O21       7.1601    -2.3164    -8.9031 O.3    1 <0>      -0.3800
   22 C22       6.3830    -1.7954    -7.8222 C.3    1 <0>       0.0500
   23 C23       5.0513    -2.5592    -7.7446 C.3    1 <0>       0.1200
   24 H24       4.4462    -2.3320    -8.6223 H      1 <0>       0.0800
   25 C25       4.2960    -2.1508    -6.4783 C.3    1 <0>      -0.1300
   26 N26       5.0301    -6.1188    -6.7820 N.ar   1 <0>      -0.5800
   27 C27       4.5216    -6.9475    -5.8809 C.ar   1 <0>       0.5400
   28 N28       4.7744    -8.3006    -5.9430 N.pl3  1 <0>      -0.6700
   29 C29       5.9284    -8.8885    -5.2443 C.3    1 <0>       0.1100
   30 C30       6.7041    -9.7589    -6.2396 C.3    1 <0>       0.0500
   31 O31       5.8036   -10.6779    -6.8627 O.3    1 <0>      -0.3800
   32 C32       4.7729   -10.0557    -7.6335 C.3    1 <0>       0.0500
   33 C33       3.8950    -9.2013    -6.7050 C.3    1 <0>       0.1400
   34 H34       3.3436    -9.8485    -6.0230 H      1 <0>       0.0800
   35 C35       2.9131    -8.3763    -7.5395 C.3    1 <0>      -0.1600
   36 C36       1.0440    -3.2188    -1.9827 C.ar   1 <0>      -0.0100
   37 H37      -0.1934     1.4040    -0.1812 H      1 <0>       0.0600
   38 H38      -1.6592     1.0354    -1.1214 H      1 <0>       0.0600
   39 H39      -1.7376     1.1135     0.6551 H      1 <0>       0.0800
   40 H40      -1.1486    -1.1312     0.6169 H      1 <0>       0.4000
   41 H41      -0.8416    -2.9265     0.8227 H      1 <0>       0.1300
   42 H42      -0.3209    -5.3247     0.9535 H      1 <0>       0.1400
   43 H43       1.0669    -6.3861    -0.7745 H      1 <0>       0.1400
   44 H44       1.9061    -7.1961    -2.1265 H      1 <0>       0.1400
   45 H45       3.2935    -8.2791    -3.8514 H      1 <0>       0.1400
   46 H46       6.5170    -5.5772    -8.4627 H      1 <0>       0.1100
   47 H47       5.7718    -4.5254    -9.6939 H      1 <0>       0.0800
   48 H48       8.0783    -3.8193    -7.8208 H      1 <0>       0.0500
   49 H49       8.1508    -3.9950    -9.5915 H      1 <0>       0.1100
   50 H50       6.9308    -1.9177    -6.8878 H      1 <0>       0.0600
   51 H51       6.1850    -0.7372    -7.9931 H      1 <0>       0.1100
   52 H52       4.1981    -1.0656    -6.4477 H      1 <0>       0.0500
   53 H53       3.3052    -2.6050    -6.4837 H      1 <0>       0.0900
   54 H54       4.8468    -2.4907    -5.6012 H      1 <0>       0.0800
   55 H55       6.5744    -8.0943    -4.8699 H      1 <0>       0.0800
   56 H56       5.5807    -9.5021    -4.4132 H      1 <0>       0.0700
   57 H57       7.1605    -9.1245    -6.9994 H      1 <0>       0.0600
   58 H58       7.4809   -10.3118    -5.7113 H      1 <0>       0.1000
   59 H59       5.2222    -9.4224    -8.3985 H      1 <0>       0.0600
   60 H60       4.1602   -10.8222    -8.1082 H      1 <0>       0.1000
   61 H61       2.3129    -9.0431    -8.1586 H      1 <0>       0.0800
   62 H62       2.2595    -7.8097    -6.8763 H      1 <0>       0.0600
   63 H63       3.4674    -7.6885    -8.1780 H      1 <0>       0.0700
   64 H64       1.4270    -2.6299    -2.8030 H      1 <0>       0.1500
@<TRIPOS>BOND
   1    1    2 1
   2    1   37 1
   3    1   38 1
   4    1   39 1
   5    2    3 am
   6    2   40 1
   7    3    4 2
   8    3    5 1
   9    5   36 ar
  10    5    6 ar
  11    6    7 ar
  12    6   41 1
  13    7    8 ar
  14    7   42 1
  15    8    9 ar
  16    8   43 1
  17    9   10 1
  18    9   36 ar
  19   10   15 ar
  20   10   11 ar
  21   11   12 ar
  22   11   44 1
  23   12   13 ar
  24   12   45 1
  25   13   27 ar
  26   13   14 ar
  27   14   15 ar
  28   14   16 ar
  29   16   17 ar
  30   17   18 1
  31   17   26 ar
  32   18   23 1
  33   18   19 1
  34   19   20 1
  35   19   46 1
  36   19   47 1
  37   20   21 1
  38   20   48 1
  39   20   49 1
  40   21   22 1
  41   22   23 1
  42   22   50 1
  43   22   51 1
  44   23   24 1
  45   23   25 1
  46   25   52 1
  47   25   53 1
  48   25   54 1
  49   26   27 ar
  50   27   28 1
  51   28   33 1
  52   28   29 1
  53   29   30 1
  54   29   55 1
  55   29   56 1
  56   30   31 1
  57   30   57 1
  58   30   58 1
  59   31   32 1
  60   32   33 1
  61   32   59 1
  62   32   60 1
  63   33   34 1
  64   33   35 1
  65   35   61 1
  66   35   62 1
  67   35   63 1
  68   36   64 1
