@<TRIPOS>MOLECULE
ZINC000014950391
77    79    1     0     0
SMALL
USER_CHARGES
@<TRIPOS>ATOM
1      N1     -1.1664    1.4372    0.3411 N.pl3    1 ZINC000014950391   -0.7900
2      C2     -0.9781    0.1217    0.2515 C.cat    1 ZINC000014950391    0.7400
3      N3      0.2553   -0.3791    0.2965 N.pl3    1 ZINC000014950391   -0.8000
4      H4      1.0164    0.2142    0.3946 H        1 ZINC000014950391    0.4400
5      H5      0.3925   -1.3372    0.2313 H        1 ZINC000014950391    0.4400
6      N6     -2.0513   -0.7150    0.1132 N.pl3    1 ZINC000014950391   -0.6900
7      C7     -3.4079   -0.1642    0.0637 C.3      1 ZINC000014950391    0.0900
8      C8     -4.4159   -1.3044   -0.0937 C.3      1 ZINC000014950391   -0.1300
9      C9     -5.8327   -0.7292   -0.1455 C.3      1 ZINC000014950391   -0.1300
10     C10    -6.8407   -1.8694   -0.3029 C.3      1 ZINC000014950391    0.1500
11     H11    -6.6954   -2.5957    0.4967 H        1 ZINC000014950391    0.1200
12     N12    -6.6402   -2.5230   -1.5986 N.am     1 ZINC000014950391   -0.6900
13     C13    -5.7157   -3.4952   -1.7271 C.2      1 ZINC000014950391    0.5500
14     O14    -5.0497   -3.8290   -0.7700 O.2      1 ZINC000014950391   -0.5500
15     C15    -5.5095   -4.1675   -3.0600 C.3      1 ZINC000014950391    0.1300
16     H16    -4.6581   -4.8454   -2.9994 H        1 ZINC000014950391    0.1100
17     C17    -5.2467   -3.1078   -4.1345 C.3      1 ZINC000014950391   -0.1300
18     C18    -5.1766   -3.7838   -5.5057 C.3      1 ZINC000014950391   -0.1200
19     C19    -6.5148   -4.4605   -5.8117 C.3      1 ZINC000014950391   -0.1400
20     C20    -6.7919   -5.5356   -4.7561 C.3      1 ZINC000014950391    0.1000
21     N21    -6.7161   -4.9234   -3.4223 N.am     1 ZINC000014950391   -0.6100
22     C22    -7.7361   -5.0488   -2.5502 C.2      1 ZINC000014950391    0.5200
23     O23    -7.6917   -4.4811   -1.4794 O.2      1 ZINC000014950391   -0.5000
24     C24    -8.9318   -5.8943   -2.9058 C.3      1 ZINC000014950391    0.0900
25     H25    -9.1864   -5.7408   -3.9545 H        1 ZINC000014950391    0.1100
26     N26   -10.0720   -5.5088   -2.0636 N.3      1 ZINC000014950391   -0.8200
27     C27    -8.6009   -7.3696   -2.6720 C.3      1 ZINC000014950391   -0.1100
28     C28    -9.7505   -8.2230   -3.1423 C.ar     1 ZINC000014950391   -0.0900
29     C29   -10.7727   -8.5474   -2.2700 C.ar     1 ZINC000014950391   -0.1200
30     C30   -11.8272   -9.3301   -2.7015 C.ar     1 ZINC000014950391   -0.1100
31     C31   -11.8598   -9.7882   -4.0053 C.ar     1 ZINC000014950391   -0.1200
32     C32   -10.8381   -9.4630   -4.8779 C.ar     1 ZINC000014950391   -0.1100
33     C33    -9.7857   -8.6767   -4.4476 C.ar     1 ZINC000014950391   -0.1100
34     C34    -8.2405   -1.3160   -0.2307 C.2      1 ZINC000014950391    0.5100
35     O35    -8.9963   -1.4539   -1.1692 O.2      1 ZINC000014950391   -0.4800
36     N36    -8.6525   -0.6677    0.8768 N.am     1 ZINC000014950391   -0.6700
37     C37    -9.9864   -0.2618    0.9943 C.ar     1 ZINC000014950391    0.2000
38     C38   -10.3153    0.8241    1.7951 C.ar     1 ZINC000014950391   -0.1500
39     C39   -11.6329    1.2223    1.9090 C.ar     1 ZINC000014950391   -0.0300
40     C40   -12.6241    0.5410    1.2267 C.ar     1 ZINC000014950391   -0.0600
41     N41   -14.0352    0.9704    1.3511 N.pl3    1 ZINC000014950391    0.0300
42     O42   -14.3222    1.9229    2.0538 O.2      1 ZINC000014950391   -0.1600
43     O43   -14.9093    0.3712    0.7507 O.2      1 ZINC000014950391   -0.1600
44     C44   -12.2998   -0.5404    0.4282 C.ar     1 ZINC000014950391   -0.0300
45     C45   -10.9835   -0.9403    0.3059 C.ar     1 ZINC000014950391   -0.1300
46     H46    -0.4053    2.0305    0.4391 H        1 ZINC000014950391    0.4400
47     H47    -2.0644    1.8022    0.3043 H        1 ZINC000014950391    0.4400
48     H48    -1.9142   -1.6731    0.0480 H        1 ZINC000014950391    0.4400
49     H49    -3.6139    0.3780    0.9866 H        1 ZINC000014950391    0.0900
50     H50    -3.4933    0.5158   -0.7839 H        1 ZINC000014950391    0.0900
51     H51    -4.2100   -1.8466   -1.0166 H        1 ZINC000014950391    0.0900
52     H52    -4.3306   -1.9844    0.7539 H        1 ZINC000014950391    0.0900
53     H53    -6.0386   -0.1870    0.7774 H        1 ZINC000014950391    0.0800
54     H54    -5.9180   -0.0492   -0.9931 H        1 ZINC000014950391    0.0800
55     H55    -7.1728   -2.2560   -2.3641 H        1 ZINC000014950391    0.4100
56     H56    -6.0554   -2.3769   -4.1301 H        1 ZINC000014950391    0.0700
57     H57    -4.3014   -2.6063   -3.9274 H        1 ZINC000014950391    0.0800
58     H58    -4.9653   -3.0352   -6.2693 H        1 ZINC000014950391    0.0800
59     H59    -4.3839   -4.5319   -5.5016 H        1 ZINC000014950391    0.0700
60     H60    -7.3115   -3.7170   -5.7915 H        1 ZINC000014950391    0.0700
61     H61    -6.4719   -4.9219   -6.7983 H        1 ZINC000014950391    0.0900
62     H62    -7.7872   -5.9520   -4.9113 H        1 ZINC000014950391    0.0900
63     H63    -6.0461   -6.3266   -4.8357 H        1 ZINC000014950391    0.0800
64     H64   -10.9036   -6.0163   -2.3263 H        1 ZINC000014950391    0.3500
65     H65    -9.8608   -5.6419   -1.0860 H        1 ZINC000014950391    0.3500
66     H66    -7.7015   -7.6329   -3.2286 H        1 ZINC000014950391    0.0800
67     H67    -8.4331   -7.5402   -1.6086 H        1 ZINC000014950391    0.0800
68     H68   -10.7472   -8.1895   -1.2513 H        1 ZINC000014950391    0.1200
69     H69   -12.6254   -9.5841   -2.0198 H        1 ZINC000014950391    0.1300
70     H70   -12.6833  -10.4003   -4.3422 H        1 ZINC000014950391    0.1300
71     H71   -10.8634   -9.8212   -5.8964 H        1 ZINC000014950391    0.1300
72     H72    -8.9875   -8.4227   -5.1293 H        1 ZINC000014950391    0.1200
73     H73    -8.0244   -0.4826    1.5924 H        1 ZINC000014950391    0.4200
74     H74    -9.5417    1.3564    2.3285 H        1 ZINC000014950391    0.1500
75     H75   -11.8894    2.0664    2.5319 H        1 ZINC000014950391    0.1600
76     H76   -13.0762   -1.0702   -0.1037 H        1 ZINC000014950391    0.1600
77     H77   -10.7309   -1.7847   -0.3182 H        1 ZINC000014950391    0.1700
@<TRIPOS>BOND
1     1     2     ar
2     1     46    1
3     1     47    1
4     2     3     ar
5     2     6     ar
6     3     4     1
7     3     5     1
8     6     7     1
9     6     48    1
10    7     8     1
11    7     49    1
12    7     50    1
13    8     9     1
14    8     51    1
15    8     52    1
16    9     10    1
17    9     53    1
18    9     54    1
19    10    11    1
20    10    12    1
21    10    34    1
22    12    13    am
23    12    55    1
24    13    14    2
25    13    15    1
26    15    16    1
27    15    21    1
28    15    17    1
29    17    18    1
30    17    56    1
31    17    57    1
32    18    19    1
33    18    58    1
34    18    59    1
35    19    20    1
36    19    60    1
37    19    61    1
38    20    21    1
39    20    62    1
40    20    63    1
41    21    22    am
42    22    23    2
43    22    24    1
44    24    25    1
45    24    26    1
46    24    27    1
47    26    64    1
48    26    65    1
49    27    28    1
50    27    66    1
51    27    67    1
52    28    33    ar
53    28    29    ar
54    29    30    ar
55    29    68    1
56    30    31    ar
57    30    69    1
58    31    32    ar
59    31    70    1
60    32    33    ar
61    32    71    1
62    33    72    1
63    34    35    2
64    34    36    am
65    36    37    1
66    36    73    1
67    37    45    ar
68    37    38    ar
69    38    39    ar
70    38    74    1
71    39    40    ar
72    39    75    1
73    40    41    1
74    40    44    ar
75    41    42    2
76    41    43    2
77    44    45    ar
78    44    76    1
79    45    77    1
@<TRIPOS>SUBSTRUCTURE
1   ZINC000014950391 1     RESIDUE    1   A     ZIN   1
