@<TRIPOS>MOLECULE
ZINC000005700104
33    35    1     0     0
SMALL
USER_CHARGES
@<TRIPOS>ATOM
1      C1     -0.0178    1.4608    0.0101 C.3      1 ZINC000005700104    0.1000
2      N2      0.0021   -0.0041    0.0020 N.am     1 ZINC000005700104   -0.6200
3      C3     -1.2577   -0.7669    0.0038 C.3      1 ZINC000005700104    0.1500
4      C4     -1.1442   -2.2743   -0.0048 C.ar     1 ZINC000005700104   -0.1500
5      C5     -2.2612   -3.0710   -0.0043 C.ar     1 ZINC000005700104   -0.0200
6      C6     -2.1176   -4.4633   -0.0129 C.ar     1 ZINC000005700104   -0.0800
7      C7     -3.3095   -5.3305   -0.0130 C.2      1 ZINC000005700104    0.1600
8      N8     -4.4852   -4.7937   -0.0104 N.2      1 ZINC000005700104   -0.2500
9      N9     -5.6451   -5.5727    0.0157 N.am     1 ZINC000005700104   -0.5600
10     C10    -5.5856   -6.8776    0.3431 C.2      1 ZINC000005700104    0.4900
11     O11    -6.5831   -7.5659    0.2900 O.2      1 ZINC000005700104   -0.5200
12     C12    -4.2712   -7.4787    0.7758 C.3      1 ZINC000005700104   -0.1400
13     C13    -3.1361   -6.8262   -0.0223 C.3      1 ZINC000005700104   -0.1200
14     C14    -0.8391   -5.0275   -0.0220 C.ar     1 ZINC000005700104   -0.0500
15     C15     0.2755   -4.2175   -0.0220 C.ar     1 ZINC000005700104   -0.1600
16     C16     0.1313   -2.8347   -0.0139 C.ar     1 ZINC000005700104    0.1900
17     N17     1.2521   -2.0057   -0.0142 N.am     1 ZINC000005700104   -0.6600
18     C18     1.1712   -0.6693   -0.0127 C.2      1 ZINC000005700104    0.7100
19     O19     2.2033   -0.0266   -0.0136 O.2      1 ZINC000005700104   -0.5700
20     H20     1.0048    1.8381    0.0023 H        1 ZINC000005700104    0.1000
21     H21    -0.5450    1.8219   -0.8730 H        1 ZINC000005700104    0.0700
22     H22    -0.5280    1.8123    0.9069 H        1 ZINC000005700104    0.0700
23     H23    -1.8247   -0.4776    0.8886 H        1 ZINC000005700104    0.0800
24     H24    -1.8330   -0.4681   -0.8724 H        1 ZINC000005700104    0.0800
25     H25    -3.2454   -2.6265    0.0031 H        1 ZINC000005700104    0.1500
26     H26    -6.5000   -5.1702   -0.2036 H        1 ZINC000005700104    0.4300
27     H27    -4.1218   -7.2999    1.8406 H        1 ZINC000005700104    0.1100
28     H28    -4.2803   -8.5515    0.5832 H        1 ZINC000005700104    0.1200
29     H29    -3.1564   -7.1935   -1.0484 H        1 ZINC000005700104    0.1000
30     H30    -2.1793   -7.0800    0.4341 H        1 ZINC000005700104    0.1100
31     H31    -0.7245   -6.1014   -0.0287 H        1 ZINC000005700104    0.1400
32     H32     1.2619   -4.6571   -0.0286 H        1 ZINC000005700104    0.1400
33     H33     2.1311   -2.4161   -0.0196 H        1 ZINC000005700104    0.4300
@<TRIPOS>BOND
1     1     2     1
2     1     20    1
3     1     21    1
4     1     22    1
5     2     18    am
6     2     3     1
7     3     4     1
8     3     23    1
9     3     24    1
10    4     16    ar
11    4     5     ar
12    5     6     ar
13    5     25    1
14    6     7     1
15    6     14    ar
16    7     13    1
17    7     8     2
18    8     9     1
19    9     10    am
20    9     26    1
21    10    11    2
22    10    12    1
23    12    13    1
24    12    27    1
25    12    28    1
26    13    29    1
27    13    30    1
28    14    15    ar
29    14    31    1
30    15    16    ar
31    15    32    1
32    16    17    1
33    17    18    am
34    17    33    1
35    18    19    2
@<TRIPOS>SUBSTRUCTURE
1   ZINC000005700104 1     RESIDUE    1   A     ZIN   1
