@<TRIPOS>MOLECULE
ZINC000002047214
62    67    1     0     0
SMALL
USER_CHARGES
@<TRIPOS>ATOM
1      C1     -0.0187    1.5258    0.0104 C.3      1 ZINC000002047214   -0.1500
2      C2      0.0021   -0.0041    0.0020 C.3      1 ZINC000002047214    0.0500
3      O3     -1.3386   -0.4987    0.0122 O.3      1 ZINC000002047214   -0.3100
4      C4     -1.4982   -1.8473    0.0064 C.ar     1 ZINC000002047214    0.1500
5      C5     -0.3839   -2.6768   -0.0029 C.ar     1 ZINC000002047214   -0.2100
6      C6     -0.5417   -4.0456   -0.0082 C.ar     1 ZINC000002047214   -0.0200
7      C7     -1.8239   -4.5987   -0.0043 C.ar     1 ZINC000002047214   -0.0800
8      C8     -1.9976   -6.0661   -0.0095 C.2      1 ZINC000002047214    0.3500
9      N9     -1.0209   -6.9415   -0.0122 N.2      1 ZINC000002047214   -0.4900
10     C10    -1.5276   -8.1914   -0.0163 C.ar     1 ZINC000002047214    0.0700
11     C11    -0.9403   -9.4630   -0.0203 C.ar     1 ZINC000002047214   -0.0600
12     C12    -1.7242  -10.5775   -0.0245 C.ar     1 ZINC000002047214   -0.1100
13     C13    -3.1203  -10.4654   -0.0244 C.ar     1 ZINC000002047214   -0.0200
14     C14    -3.9575  -11.6828   -0.0290 C.2      1 ZINC000002047214    0.3400
15     N15    -5.2688  -11.6962   -0.0351 N.2      1 ZINC000002047214   -0.4800
16     C16    -5.7118  -12.9772   -0.0387 C.ar     1 ZINC000002047214    0.0800
17     C17    -6.9872  -13.5506   -0.0449 C.ar     1 ZINC000002047214   -0.0900
18     C18    -7.1199  -14.9264   -0.0468 C.ar     1 ZINC000002047214    0.1100
19     N19    -8.3950  -15.5023   -0.0535 N.3      1 ZINC000002047214   -0.4900
20     C20    -9.1946  -15.0246    1.0832 C.3      1 ZINC000002047214    0.0600
21     C21   -10.6042  -15.6143    0.9956 C.3      1 ZINC000002047214    0.0500
22     N22   -10.5195  -17.0814    0.9946 N.3      1 ZINC000002047214   -0.5500
23     C23   -11.8583  -17.6860    0.9877 C.3      1 ZINC000002047214    0.0200
24     C24    -9.7199  -17.5591   -0.1421 C.3      1 ZINC000002047214    0.0500
25     C25    -8.3103  -16.9694   -0.0544 C.3      1 ZINC000002047214    0.0500
26     C26    -5.9909  -15.7431   -0.0426 C.ar     1 ZINC000002047214   -0.1400
27     C27    -4.7289  -15.1886   -0.0361 C.ar     1 ZINC000002047214   -0.0800
28     C28    -4.5782  -13.8094   -0.0345 C.ar     1 ZINC000002047214    0.0300
29     N29    -3.4810  -12.9660   -0.0336 N.pl3    1 ZINC000002047214   -0.5900
30     C30    -3.7214   -9.2081   -0.0196 C.ar     1 ZINC000002047214   -0.0500
31     C31    -2.9306   -8.0724   -0.0162 C.ar     1 ZINC000002047214    0.0400
32     N32    -3.2020   -6.7165   -0.0064 N.pl3    1 ZINC000002047214   -0.5900
33     C33    -2.9415   -3.7616    0.0050 C.ar     1 ZINC000002047214   -0.0600
34     C34    -2.7754   -2.3937    0.0157 C.ar     1 ZINC000002047214   -0.1500
35     H35     1.0039    1.9031    0.0027 H        1 ZINC000002047214    0.0800
36     H36    -0.5459    1.8868   -0.8726 H        1 ZINC000002047214    0.0700
37     H37    -0.5289    1.8773    0.9072 H        1 ZINC000002047214    0.0700
38     H38     0.5123   -0.3556   -0.8948 H        1 ZINC000002047214    0.0700
39     H39     0.5293   -0.3651    0.8851 H        1 ZINC000002047214    0.0700
40     H40     0.6074   -2.2482   -0.0062 H        1 ZINC000002047214    0.1400
41     H41     0.3251   -4.6898   -0.0158 H        1 ZINC000002047214    0.1400
42     H42     0.1353   -9.5603   -0.0204 H        1 ZINC000002047214    0.1400
43     H43    -1.2654  -11.5552   -0.0283 H        1 ZINC000002047214    0.1300
44     H44    -7.8648  -12.9211   -0.0478 H        1 ZINC000002047214    0.1300
45     H45    -8.7259  -15.3397    2.0155 H        1 ZINC000002047214    0.0500
46     H46    -9.2532  -13.9365    1.0549 H        1 ZINC000002047214    0.0900
47     H47   -11.1904  -15.2844    1.8534 H        1 ZINC000002047214    0.0800
48     H48   -11.0830  -15.2771    0.0763 H        1 ZINC000002047214    0.0500
49     H49   -12.3966  -17.3665    0.0954 H        1 ZINC000002047214    0.0300
50     H50   -11.7664  -18.7722    0.9871 H        1 ZINC000002047214    0.0700
51     H51   -12.4051  -17.3681    1.8753 H        1 ZINC000002047214    0.0700
52     H52    -9.6613  -18.6472   -0.1137 H        1 ZINC000002047214    0.0800
53     H53   -10.1886  -17.2440   -1.0743 H        1 ZINC000002047214    0.0500
54     H54    -7.7242  -17.2993   -0.9122 H        1 ZINC000002047214    0.0900
55     H55    -7.8315  -17.3066    0.8649 H        1 ZINC000002047214    0.0600
56     H56    -6.1053  -16.8171   -0.0442 H        1 ZINC000002047214    0.1400
57     H57    -3.8580  -15.8274   -0.0328 H        1 ZINC000002047214    0.1300
58     H58    -2.5488  -13.2340   -0.0343 H        1 ZINC000002047214    0.4200
59     H59    -4.7979   -9.1206   -0.0192 H        1 ZINC000002047214    0.1400
60     H60    -4.0800   -6.3042    0.0007 H        1 ZINC000002047214    0.4300
61     H61    -3.9348   -4.1856    0.0078 H        1 ZINC000002047214    0.1300
62     H62    -3.6392   -1.7456    0.0229 H        1 ZINC000002047214    0.1400
@<TRIPOS>BOND
1     1     2     1
2     1     35    1
3     1     36    1
4     1     37    1
5     2     3     1
6     2     38    1
7     2     39    1
8     3     4     1
9     4     34    ar
10    4     5     ar
11    5     6     ar
12    5     40    1
13    6     7     ar
14    6     41    1
15    7     8     1
16    7     33    ar
17    8     32    1
18    8     9     2
19    9     10    1
20    10    31    ar
21    10    11    ar
22    11    12    ar
23    11    42    1
24    12    13    ar
25    12    43    1
26    13    14    1
27    13    30    ar
28    14    29    1
29    14    15    2
30    15    16    1
31    16    28    ar
32    16    17    ar
33    17    18    ar
34    17    44    1
35    18    19    1
36    18    26    ar
37    19    25    1
38    19    20    1
39    20    21    1
40    20    45    1
41    20    46    1
42    21    22    1
43    21    47    1
44    21    48    1
45    22    23    1
46    22    24    1
47    23    49    1
48    23    50    1
49    23    51    1
50    24    25    1
51    24    52    1
52    24    53    1
53    25    54    1
54    25    55    1
55    26    27    ar
56    26    56    1
57    27    28    ar
58    27    57    1
59    28    29    1
60    29    58    1
61    30    31    ar
62    30    59    1
63    31    32    1
64    32    60    1
65    33    34    ar
66    33    61    1
67    34    62    1
@<TRIPOS>SUBSTRUCTURE
1   ZINC000002047214 1     RESIDUE    1   A     ZIN   1
