@<TRIPOS>MOLECULE
ZINC000029052268
  43   46    0    0    0
SMALL
USER_CHARGES
NO_NAME
@<TRIPOS>ATOM
    1 C1       -0.0173     1.4248     0.0099 C.3    1 <0>       0.0300
    2 O2        0.0021    -0.0041     0.0020 O.3    1 <0>      -0.3000
    3 C3       -1.2001    -0.6374     0.0101 C.2    1 <0>       0.1200
    4 C4       -2.4368    -0.0571     0.0190 C.2    1 <0>      -0.3100
    5 C5       -3.3875    -1.0966     0.0252 C.2    1 <0>       0.2000
    6 C6       -4.8499    -0.9071     0.0350 C.2    1 <0>       0.1400
    7 C7       -5.7704    -1.9071     0.0469 C.2    1 <0>      -0.1500
    8 C8       -7.0868    -1.2736     0.0534 C.ar   1 <0>      -0.1100
    9 C9       -8.3964    -1.7635     0.0652 C.ar   1 <0>      -0.0700
   10 C10      -9.4471    -0.8903     0.0682 C.ar   1 <0>      -0.1500
   11 C11      -9.2254     0.4800     0.0596 C.ar   1 <0>      -0.0900
   12 C12      -7.9430     0.9853     0.0476 C.ar   1 <0>      -0.1300
   13 C13      -6.8574     0.1163     0.0448 C.ar   1 <0>       0.1100
   14 N14      -5.4934     0.3101     0.0397 N.pl3  1 <0>      -0.5900
   15 N15      -2.7728    -2.2684     0.0203 N.2    1 <0>      -0.4900
   16 C16      -1.4372    -2.0841     0.0046 C.2    1 <0>      -0.0300
   17 C17      -0.4641    -3.0821    -0.0047 C.2    1 <0>       0.1300
   18 C18      -0.8443    -4.4330     0.0026 C.2    1 <0>      -0.0300
   19 C19       0.0112    -5.5301     0.0005 C.2    1 <0>      -0.0700
   20 C20       1.5176    -5.4919    -0.0102 C.3    1 <0>      -0.1000
   21 C21      -0.7887    -6.6708     0.0101 C.2    1 <0>      -0.2200
   22 C22      -2.0879    -6.2731     0.0177 C.2    1 <0>       0.0900
   23 C23      -3.2833    -7.1907     0.0293 C.3    1 <0>      -0.1000
   24 N24      -2.1360    -4.9188     0.0194 N.pl3  1 <0>      -0.5100
   25 H25       1.0053     1.8021     0.0021 H      1 <0>       0.1000
   26 H26      -0.5445     1.7859    -0.8732 H      1 <0>       0.0600
   27 H27      -0.5275     1.7763     0.9067 H      1 <0>       0.0600
   28 H28      -2.6467     1.0023     0.0210 H      1 <0>       0.1400
   29 H29      -5.5673    -2.9678     0.0507 H      1 <0>       0.1500
   30 H30      -8.5766    -2.8283     0.0715 H      1 <0>       0.1200
   31 H31     -10.4584    -1.2693     0.0769 H      1 <0>       0.1200
   32 H32     -10.0665     1.1573     0.0622 H      1 <0>       0.1300
   33 H33      -7.7819     2.0531     0.0403 H      1 <0>       0.1200
   34 H34      -5.0527     1.1742     0.0374 H      1 <0>       0.4200
   35 H35       0.5825    -2.8157    -0.0177 H      1 <0>       0.1600
   36 H36       1.8880    -5.4791     1.0149 H      1 <0>       0.0800
   37 H37       1.8998    -6.3742    -0.5236 H      1 <0>       0.0700
   38 H38       1.8547    -4.5948    -0.5295 H      1 <0>       0.0700
   39 H39      -0.4376    -7.6921     0.0108 H      1 <0>       0.1500
   40 H40      -3.5641    -7.4087     1.0597 H      1 <0>       0.0800
   41 H41      -4.1172    -6.7076    -0.4800 H      1 <0>       0.0700
   42 H42      -3.0334    -8.1195    -0.4834 H      1 <0>       0.0900
   43 H43      -2.9432    -4.3810     0.0248 H      1 <0>       0.4400
@<TRIPOS>BOND
   1    1    2 1
   2    1   25 1
   3    1   26 1
   4    1   27 1
   5    2    3 1
   6    3   16 1
   7    3    4 2
   8    4    5 1
   9    4   28 1
  10    5    6 1
  11    5   15 2
  12    6   14 1
  13    6    7 2
  14    7    8 1
  15    7   29 1
  16    8   13 ar
  17    8    9 ar
  18    9   10 ar
  19    9   30 1
  20   10   11 ar
  21   10   31 1
  22   11   12 ar
  23   11   32 1
  24   12   13 ar
  25   12   33 1
  26   13   14 1
  27   14   34 1
  28   15   16 1
  29   16   17 2
  30   17   18 1
  31   17   35 1
  32   18   24 1
  33   18   19 2
  34   19   20 1
  35   19   21 1
  36   20   36 1
  37   20   37 1
  38   20   38 1
  39   21   22 2
  40   21   39 1
  41   22   23 1
  42   22   24 1
  43   23   40 1
  44   23   41 1
  45   23   42 1
  46   24   43 1
