@<TRIPOS>MOLECULE
ZINC000013915654
  14   14    0    0    0
SMALL
USER_CHARGES
NO_NAME
@<TRIPOS>ATOM
    1 N1       -0.0162     1.3436     0.0094 N.am   1 <0>      -0.8600
    2 C2        0.0021    -0.0041     0.0020 C.2    1 <0>       0.5900
    3 O3        1.0633    -0.5977    -0.0113 O.2    1 <0>      -0.5400
    4 C4       -1.2648    -0.7587     0.0101 C.2    1 <0>      -0.1300
    5 N5       -2.4254    -0.1207     0.0190 N.2    1 <0>      -0.4000
    6 C6       -3.5638    -0.7940     0.0258 C.2    1 <0>       0.0500
    7 F7       -4.7320    -0.1154     0.0349 F      1 <0>      -0.1500
    8 C8       -3.5855    -2.1688     0.0234 C.2    1 <0>       0.1400
    9 N9       -2.4379    -2.8785     0.0144 N.pl3  1 <0>      -0.5700
   10 C10      -1.2558    -2.2241     0.0021 C.2    1 <0>       0.4700
   11 O11      -0.2039    -2.8397    -0.0066 O.2    1 <0>      -0.5400
   12 H12       0.8172     1.8399     0.0041 H      1 <0>       0.3900
   13 H13      -0.8627     1.8171     0.0160 H      1 <0>       0.4000
   14 H14      -4.5330    -2.6872     0.0291 H      1 <0>       0.1500
@<TRIPOS>BOND
   1    1    2 am
   2    1   12 1
   3    1   13 1
   4    2    3 2
   5    2    4 1
   6    4   10 1
   7    4    5 2
   8    5    6 1
   9    6    7 1
  10    6    8 2
  11    8    9 1
  12    8   14 1
  13    9   10 1
  14   10   11 2
