@<TRIPOS>MOLECULE
ZINC000001608917
  28   27    0    0    0
SMALL
USER_CHARGES
NO_NAME
@<TRIPOS>ATOM
    1 C1       -0.0160     1.3266     0.0093 C.2    1 <0>      -0.0900
    2 C2        0.0021    -0.0041     0.0020 C.2    1 <0>      -0.1600
    3 C3       -1.2926    -0.7753     0.0102 C.3    1 <0>      -0.1100
    4 C4        1.2845    -0.7214    -0.0141 C.2    1 <0>       0.5000
    5 O5        2.3286    -0.0995    -0.0207 O.2    1 <0>      -0.5100
    6 O6        1.3028    -2.0693    -0.0215 O.3    1 <0>      -0.3500
    7 C7        2.6053    -2.7108    -0.0374 C.3    1 <0>       0.0700
    8 C8        2.4254    -4.2301    -0.0438 C.3    1 <0>       0.0700
    9 O9        1.7821    -4.6361    -1.2806 O.3    1 <0>      -0.3500
   10 C10       1.5494    -5.9536    -1.4456 C.2    1 <0>       0.5000
   11 O11       1.8752    -6.7414    -0.5793 O.2    1 <0>      -0.5100
   12 C12       0.9017    -6.4373    -2.6727 C.2    1 <0>      -0.1600
   13 C13       0.6719    -7.7380    -2.8356 C.2    1 <0>      -0.0900
   14 C14       0.4978    -5.4605    -3.7469 C.3    1 <0>      -0.1200
   15 H15       0.9119     1.8793     0.0034 H      1 <0>       0.1200
   16 H16      -0.9585     1.8539     0.0167 H      1 <0>       0.1300
   17 H17      -1.6146    -0.9557    -1.0154 H      1 <0>       0.0700
   18 H18      -1.1445    -1.7285     0.5176 H      1 <0>       0.0700
   19 H19      -2.0553    -0.1993     0.5345 H      1 <0>       0.0700
   20 H20       3.1497    -2.4056    -0.9310 H      1 <0>       0.0900
   21 H21       3.1667    -2.4151     0.8489 H      1 <0>       0.1000
   22 H22       3.4001    -4.7117     0.0339 H      1 <0>       0.1000
   23 H23       1.8054    -4.5262     0.8024 H      1 <0>       0.0900
   24 H24       0.1959    -8.0935    -3.7375 H      1 <0>       0.1300
   25 H25       0.9614    -8.4380    -2.0658 H      1 <0>       0.1200
   26 H26       0.7643    -4.4498    -3.4377 H      1 <0>       0.0800
   27 H27       1.0158    -5.7054    -4.6741 H      1 <0>       0.0700
   28 H28      -0.5790    -5.5198    -3.9056 H      1 <0>       0.0700
@<TRIPOS>BOND
   1    1    2 2
   2    1   15 1
   3    1   16 1
   4    2    3 1
   5    2    4 1
   6    3   17 1
   7    3   18 1
   8    3   19 1
   9    4    5 2
  10    4    6 1
  11    6    7 1
  12    7    8 1
  13    7   20 1
  14    7   21 1
  15    8    9 1
  16    8   22 1
  17    8   23 1
  18    9   10 1
  19   10   11 2
  20   10   12 1
  21   12   13 2
  22   12   14 1
  23   13   24 1
  24   13   25 1
  25   14   26 1
  26   14   27 1
  27   14   28 1
