@<TRIPOS>MOLECULE
ZINC000003633833
42    45    1     0     0
SMALL
USER_CHARGES
@<TRIPOS>ATOM
1      O1      0.0021   -0.0041    0.0020 O.2      1 ZINC000003633833   -0.5100
2      C2     -0.0144    1.2115    0.0087 C.2      1 ZINC000003633833    0.5800
3      N3     -1.1024    1.9843    0.0291 N.pl3    1 ZINC000003633833   -0.7200
4      C4     -1.0073    3.3034    0.0346 C.2      1 ZINC000003633833    0.5200
5      O5     -1.9725    4.0367    0.0533 O.2      1 ZINC000003633833   -0.5400
6      C6      0.4173    3.8128    0.0160 C.3      1 ZINC000003633833   -0.0900
7      H7      0.6305    4.3942    0.9130 H        1 ZINC000003633833    0.1100
8      C8      0.6776    4.6458   -1.2407 C.3      1 ZINC000003633833   -0.0500
9      C9      2.0610    5.2396   -1.1722 C.ar     1 ZINC000003633833   -0.0800
10     C10     2.2435    6.4872   -0.5793 C.ar     1 ZINC000003633833   -0.0900
11     C11     3.4798    7.0515   -0.5007 C.ar     1 ZINC000003633833   -0.1200
12     C12     4.5907    6.3682   -1.0243 C.ar     1 ZINC000003633833   -0.0200
13     C13     5.8812    6.9191   -0.9607 C.ar     1 ZINC000003633833   -0.1500
14     C14     6.9373    6.2261   -1.4798 C.ar     1 ZINC000003633833    0.1200
15     O15     8.1853    6.7602   -1.4176 O.3      1 ZINC000003633833   -0.3100
16     C16     9.2498    5.9885   -1.9774 C.3      1 ZINC000003633833    0.1000
17     C17    10.5492    6.7349   -1.8176 C.ar     1 ZINC000003633833   -0.1200
18     C18    10.5653    7.9695   -1.1973 C.ar     1 ZINC000003633833   -0.0700
19     C19    11.7573    8.6545   -1.0505 C.ar     1 ZINC000003633833   -0.1300
20     C20    12.9340    8.1056   -1.5245 C.ar     1 ZINC000003633833   -0.0900
21     C21    12.9203    6.8710   -2.1458 C.ar     1 ZINC000003633833   -0.1500
22     C22    11.7284    6.1812   -2.2873 C.ar     1 ZINC000003633833    0.1000
23     F23    11.7137    4.9743   -2.8944 F        1 ZINC000003633833   -0.1400
24     C24     6.7514    4.9739   -2.0742 C.ar     1 ZINC000003633833   -0.2000
25     C25     5.5150    4.4134   -2.1514 C.ar     1 ZINC000003633833   -0.0600
26     C26     4.4047    5.0988   -1.6277 C.ar     1 ZINC000003633833   -0.0800
27     C27     3.1143    4.5465   -1.6855 C.ar     1 ZINC000003633833   -0.0700
28     S28     1.4025    2.2770    0.0009 S.3      1 ZINC000003633833   -0.4000
29     H29     0.5989    4.0087   -2.1216 H        1 ZINC000003633833    0.0800
30     H30    -0.0589    5.4468   -1.3047 H        1 ZINC000003633833    0.0900
31     H31     1.3915    7.0145   -0.1764 H        1 ZINC000003633833    0.1200
32     H32     3.6063    8.0194   -0.0386 H        1 ZINC000003633833    0.1300
33     H33     6.0373    7.8853   -0.5042 H        1 ZINC000003633833    0.1300
34     H34     9.3150    5.0309   -1.4609 H        1 ZINC000003633833    0.0800
35     H35     9.0568    5.8177   -3.0365 H        1 ZINC000003633833    0.0800
36     H36     9.6464    8.3997   -0.8272 H        1 ZINC000003633833    0.1400
37     H37    11.7690    9.6195   -0.5656 H        1 ZINC000003633833    0.1300
38     H38    13.8645    8.6418   -1.4097 H        1 ZINC000003633833    0.1300
39     H39    13.8397    6.4426   -2.5166 H        1 ZINC000003633833    0.1400
40     H40     7.6020    4.4447   -2.4778 H        1 ZINC000003633833    0.1300
41     H41     5.3862    3.4457   -2.6135 H        1 ZINC000003633833    0.1300
42     H42     2.9580    3.5786   -2.1385 H        1 ZINC000003633833    0.1300
@<TRIPOS>BOND
1     1     2     2
2     2     28    1
3     2     3     1
4     3     4     1
5     4     5     2
6     4     6     1
7     6     7     1
8     6     8     1
9     6     28    1
10    8     9     1
11    8     29    1
12    8     30    1
13    9     27    ar
14    9     10    ar
15    10    11    ar
16    10    31    1
17    11    12    ar
18    11    32    1
19    12    26    ar
20    12    13    ar
21    13    14    ar
22    13    33    1
23    14    15    1
24    14    24    ar
25    15    16    1
26    16    17    1
27    16    34    1
28    16    35    1
29    17    22    ar
30    17    18    ar
31    18    19    ar
32    18    36    1
33    19    20    ar
34    19    37    1
35    20    21    ar
36    20    38    1
37    21    22    ar
38    21    39    1
39    22    23    1
40    24    25    ar
41    24    40    1
42    25    26    ar
43    25    41    1
44    26    27    ar
45    27    42    1
@<TRIPOS>SUBSTRUCTURE
1   ZINC000003633833 1     RESIDUE    1   A     ZIN   1
