@<TRIPOS>MOLECULE
ZINC000100004621
41    43    1     0     0
SMALL
USER_CHARGES
@<TRIPOS>ATOM
1      C1      0.6577   -0.5698   -0.9008 C.3      1 ZINC000100004621   -0.1500
2      C2     -0.1383   -1.3775    0.1263 C.3      1 ZINC000100004621    0.0500
3      N3      0.5817   -1.3898    1.4021 N.am     1 ZINC000100004621   -0.5500
4      C4      0.0428   -0.7967    2.4858 C.2      1 ZINC000100004621    0.6300
5      O5      0.7564   -0.4542    3.4100 O.2      1 ZINC000100004621   -0.5200
6      C6     -1.4048   -0.5639    2.5511 C.2      1 ZINC000100004621   -0.4900
7      C7     -2.1416   -0.9884    3.6600 C.2      1 ZINC000100004621    0.3700
8      O8     -1.5403   -1.6189    4.6904 O.3      1 ZINC000100004621   -0.6000
9      C9     -3.5845   -0.7305    3.6751 C.ar     1 ZINC000100004621   -0.1400
10     C10    -4.3689   -1.1350    4.7629 C.ar     1 ZINC000100004621    0.0400
11     Cl11   -3.6377   -1.9494    6.1105 Cl       1 ZINC000100004621   -0.0300
12     C12    -5.7234   -0.8830    4.7583 C.ar     1 ZINC000100004621   -0.1700
13     C13    -6.3110   -0.2322    3.6835 C.ar     1 ZINC000100004621   -0.0600
14     C14    -5.5528    0.1721    2.6057 C.ar     1 ZINC000100004621   -0.1900
15     C15    -4.1828   -0.0708    2.5865 C.ar     1 ZINC000100004621    0.2100
16     N16    -3.4217    0.3341    1.5087 N.am     1 ZINC000100004621   -0.5400
17     C17    -4.0756    1.0202    0.3915 C.3      1 ZINC000100004621    0.0700
18     C18    -2.0960    0.1208    1.4596 C.2      1 ZINC000100004621    0.5500
19     O19    -1.4628    0.4950    0.4885 O.2      1 ZINC000100004621   -0.5500
20     C20     1.8283   -2.0169    1.4956 C.ar     1 ZINC000100004621    0.1800
21     C21     2.3444   -2.7055    0.4054 C.ar     1 ZINC000100004621   -0.1800
22     C22     3.5757   -3.3238    0.5010 C.ar     1 ZINC000100004621   -0.1000
23     C23     4.2943   -3.2581    1.6807 C.ar     1 ZINC000100004621   -0.1700
24     C24     3.7830   -2.5737    2.7681 C.ar     1 ZINC000100004621   -0.1000
25     C25     2.5553   -1.9477    2.6769 C.ar     1 ZINC000100004621   -0.1800
26     H26     1.6378   -1.0257   -1.0410 H        1 ZINC000100004621    0.0500
27     H27     0.1220   -0.5607   -1.8500 H        1 ZINC000100004621    0.0500
28     H28     0.7803    0.4525   -0.5430 H        1 ZINC000100004621    0.0600
29     H29    -1.1184   -0.9216    0.2666 H        1 ZINC000100004621    0.1700
30     H30    -0.2610   -2.3998   -0.2315 H        1 ZINC000100004621    0.0400
31     H31    -6.3307   -1.1940    5.5955 H        1 ZINC000100004621    0.1300
32     H32    -7.3739   -0.0405    3.6911 H        1 ZINC000100004621    0.1300
33     H33    -6.0227    0.6779    1.7752 H        1 ZINC000100004621    0.1300
34     H34    -4.0706    2.0951    0.5723 H        1 ZINC000100004621    0.0600
35     H35    -3.5382    0.8046   -0.5319 H        1 ZINC000100004621    0.0900
36     H36    -5.1045    0.6714    0.3030 H        1 ZINC000100004621    0.0700
37     H37     1.7833   -2.7578   -0.5159 H        1 ZINC000100004621    0.1200
38     H38     3.9776   -3.8594   -0.3463 H        1 ZINC000100004621    0.1100
39     H39     5.2567   -3.7428    1.7530 H        1 ZINC000100004621    0.1100
40     H40     4.3464   -2.5249    3.6882 H        1 ZINC000100004621    0.1200
41     H41     2.1567   -1.4130    3.5265 H        1 ZINC000100004621    0.1700
@<TRIPOS>BOND
1     1     2     1
2     1     26    1
3     1     27    1
4     1     28    1
5     2     3     1
6     2     29    1
7     2     30    1
8     3     4     am
9     3     20    1
10    4     5     2
11    4     6     1
12    6     18    1
13    6     7     2
14    7     8     1
15    7     9     1
16    9     15    ar
17    9     10    ar
18    10    11    1
19    10    12    ar
20    12    13    ar
21    12    31    1
22    13    14    ar
23    13    32    1
24    14    15    ar
25    14    33    1
26    15    16    1
27    16    17    1
28    16    18    am
29    17    34    1
30    17    35    1
31    17    36    1
32    18    19    2
33    20    25    ar
34    20    21    ar
35    21    22    ar
36    21    37    1
37    22    23    ar
38    22    38    1
39    23    24    ar
40    23    39    1
41    24    25    ar
42    24    40    1
43    25    41    1
@<TRIPOS>SUBSTRUCTURE
1   ZINC000100004621 1     RESIDUE    1   A     ZIN   1
