@<TRIPOS>MOLECULE
ZINC000068268153
  49   52    0    0    0
SMALL
USER_CHARGES
NO_NAME
@<TRIPOS>ATOM
    1 C1       -0.5199     2.2049    -0.8853 C.3    1 <0>       0.0300
    2 O2       -0.2939     0.8072    -0.6915 O.3    1 <0>      -0.3900
    3 C3        0.3664     0.1680    -1.7857 C.3    1 <0>       0.0700
    4 C4        0.5550    -1.3172    -1.4704 C.3    1 <0>      -0.0700
    5 C5        1.2513    -1.9913    -2.6243 C.ar   1 <0>       0.1400
    6 C6        2.4143    -2.7039    -2.3945 C.ar   1 <0>      -0.1600
    7 C7        3.0514    -3.3217    -3.4562 C.ar   1 <0>      -0.0500
    8 C8        2.4867    -3.1987    -4.7313 C.ar   1 <0>      -0.0700
    9 C9        3.1248    -3.8384    -5.9006 C.2    1 <0>       0.0500
   10 C10       4.4680    -3.8324    -6.2109 C.2    1 <0>       0.0600
   11 C11       5.5567    -3.1660    -5.4097 C.3    1 <0>      -0.0700
   12 N12       4.6374    -4.5158    -7.3380 N.2    1 <0>      -0.4600
   13 C13       3.4633    -4.9608    -7.7661 C.2    1 <0>       0.1500
   14 C14       3.0866    -5.7272    -8.8941 C.2    1 <0>       0.3300
   15 N15       4.0427    -6.1585    -9.8068 N.pl3  1 <0>      -0.5900
   16 C16       5.4787    -5.9758    -9.5428 C.3    1 <0>       0.0600
   17 C17       6.1841    -7.3203    -9.7546 C.3    1 <0>       0.0500
   18 O18       5.8358    -7.8370   -11.0413 O.3    1 <0>      -0.3800
   19 C19       4.4429    -8.1154   -11.2027 C.3    1 <0>       0.0500
   20 C20       3.6485    -6.8168   -11.0625 C.3    1 <0>       0.0800
   21 C21       1.7538    -6.0399    -9.0733 C.2    1 <0>      -0.3200
   22 C22       0.8048    -5.6000    -8.1478 C.2    1 <0>       0.1800
   23 N23       1.1577    -4.8919    -7.1066 N.2    1 <0>      -0.3200
   24 N24       2.4966    -4.5579    -6.8838 N.pl3  1 <0>      -0.2400
   25 C25       1.3101    -2.4617    -4.8793 C.ar   1 <0>       0.1400
   26 N26       0.7386    -1.8966    -3.8363 N.ar   1 <0>      -0.4800
   27 H27       0.4351     2.7114    -1.0249 H      1 <0>       0.0400
   28 H28      -1.1423     2.3534    -1.7677 H      1 <0>       0.0400
   29 H29      -1.0248     2.6159    -0.0111 H      1 <0>       0.0900
   30 H30      -0.2377     0.2743    -2.6868 H      1 <0>       0.0600
   31 H31       1.3398     0.6323    -1.9440 H      1 <0>       0.0500
   32 H32       1.1590    -1.4235    -0.5693 H      1 <0>       0.0900
   33 H33      -0.4184    -1.7815    -1.3121 H      1 <0>       0.0900
   34 H34       2.8212    -2.7769    -1.3967 H      1 <0>       0.1400
   35 H35       3.9610    -3.8841    -3.3051 H      1 <0>       0.1400
   36 H36       5.9483    -3.8686    -4.6742 H      1 <0>       0.0800
   37 H37       6.3597    -2.8536    -6.0773 H      1 <0>       0.0800
   38 H38       5.1494    -2.2939    -4.8983 H      1 <0>       0.0800
   39 H39       5.8869    -5.2348   -10.2301 H      1 <0>       0.0800
   40 H40       5.6236    -5.6431    -8.5150 H      1 <0>       0.1400
   41 H41       7.2634    -7.1778    -9.6994 H      1 <0>       0.1100
   42 H42       5.8689    -8.0224    -8.9828 H      1 <0>       0.0600
   43 H43       4.2695    -8.5451   -12.1893 H      1 <0>       0.1100
   44 H44       4.1214    -8.8205   -10.4361 H      1 <0>       0.0600
   45 H45       2.5817    -7.0394   -11.0429 H      1 <0>       0.1000
   46 H46       3.8712    -6.1578   -11.9017 H      1 <0>       0.0800
   47 H47       1.4455    -6.6236    -9.9280 H      1 <0>       0.1500
   48 H48      -0.2360    -5.8480    -8.2945 H      1 <0>       0.2000
   49 H49       0.8629    -2.3576    -5.8568 H      1 <0>       0.1500
@<TRIPOS>BOND
   1    1    2 1
   2    1   27 1
   3    1   28 1
   4    1   29 1
   5    2    3 1
   6    3    4 1
   7    3   30 1
   8    3   31 1
   9    4    5 1
  10    4   32 1
  11    4   33 1
  12    5   26 ar
  13    5    6 ar
  14    6    7 ar
  15    6   34 1
  16    7    8 ar
  17    7   35 1
  18    8    9 1
  19    8   25 ar
  20    9   24 1
  21    9   10 2
  22   10   11 1
  23   10   12 1
  24   11   36 1
  25   11   37 1
  26   11   38 1
  27   12   13 2
  28   13   24 1
  29   13   14 1
  30   14   15 1
  31   14   21 2
  32   15   20 1
  33   15   16 1
  34   16   17 1
  35   16   39 1
  36   16   40 1
  37   17   18 1
  38   17   41 1
  39   17   42 1
  40   18   19 1
  41   19   20 1
  42   19   43 1
  43   19   44 1
  44   20   45 1
  45   20   46 1
  46   21   22 1
  47   21   47 1
  48   22   23 2
  49   22   48 1
  50   23   24 1
  51   25   26 ar
  52   25   49 1
