@<TRIPOS>MOLECULE
ZINC000013487046
  25   26    0    0    0
SMALL
USER_CHARGES
NO_NAME
@<TRIPOS>ATOM
    1 N1       -1.8485     0.9937     0.2721 N.pl3  1 <0>      -0.7200
    2 H2       -1.7893     0.1473     0.7422 H      1 <0>       0.4500
    3 H3       -2.5079     1.1140    -0.4291 H      1 <0>       0.4400
    4 C4       -1.0436     1.9738     0.5872 C.cat  1 <0>       0.6300
    5 N5       -1.0957     3.1628    -0.1138 N.pl3  1 <0>      -0.6300
    6 C6        0.0683     3.9130    -0.3053 C.ar   1 <0>       0.1000
    7 C7        1.3002     3.2768    -0.3903 C.ar   1 <0>      -0.1300
    8 C8        2.4482     4.0209    -0.5794 C.ar   1 <0>      -0.0900
    9 C9        2.3723     5.3977    -0.6842 C.ar   1 <0>      -0.1000
   10 C10       1.1475     6.0341    -0.6001 C.ar   1 <0>      -0.0900
   11 C11      -0.0050     5.2956    -0.4167 C.ar   1 <0>      -0.1200
   12 C12      -0.0821     1.8108     1.6884 C.2    1 <0>      -0.3300
   13 C13       0.5615     0.6531     2.0111 C.2    1 <0>      -0.0200
   14 C14       1.4086     0.7829     3.0894 C.2    1 <0>      -0.1600
   15 C15       1.4553     2.0045     3.6289 C.2    1 <0>      -0.1900
   16 S16       0.4265     3.0797     2.7942 S.3    1 <0>       0.3200
   17 H17      -1.9400     3.4773    -0.4733 H      1 <0>       0.4400
   18 H18       1.3602     2.2016    -0.3082 H      1 <0>       0.1300
   19 H19       3.4064     3.5269    -0.6452 H      1 <0>       0.1400
   20 H20       3.2716     5.9772    -0.8318 H      1 <0>       0.1400
   21 H21       1.0917     7.1095    -0.6820 H      1 <0>       0.1400
   22 H22      -0.9613     5.7932    -0.3511 H      1 <0>       0.1400
   23 H23       0.4207    -0.2738     1.4750 H      1 <0>       0.1600
   24 H24       1.9919    -0.0420     3.4710 H      1 <0>       0.1600
   25 H25       2.0661     2.2762     4.4772 H      1 <0>       0.1900
@<TRIPOS>BOND
   1    1    2 1
   2    1    3 1
   3    1    4 ar
   4    4    5 ar
   5    4   12 1
   6    5    6 1
   7    5   17 1
   8    6   11 ar
   9    6    7 ar
  10    7    8 ar
  11    7   18 1
  12    8    9 ar
  13    8   19 1
  14    9   10 ar
  15    9   20 1
  16   10   11 ar
  17   10   21 1
  18   11   22 1
  19   12   16 1
  20   12   13 2
  21   13   14 1
  22   13   23 1
  23   14   15 2
  24   14   24 1
  25   15   16 1
  26   15   25 1
