@<TRIPOS>MOLECULE
ZINC000022010625
69    75    1     0     0
SMALL
USER_CHARGES
@<TRIPOS>ATOM
1      C1     -0.0187    1.5258    0.0104 C.3      1 ZINC000022010625   -0.1700
2      C2      0.0021   -0.0041    0.0020 C.3      1 ZINC000022010625   -0.1400
3      C3      0.7182   -0.4975   -1.2568 C.3      1 ZINC000022010625    0.1300
4      O4      0.0306   -0.0215   -2.4155 O.3      1 ZINC000022010625   -0.5200
5      C5      2.1396    0.0158   -1.2638 C.2      1 ZINC000022010625    0.4700
6      O6      2.4678    0.9648   -1.9359 O.2      1 ZINC000022010625   -0.4200
7      O7      3.0261   -0.6396   -0.4800 O.3      1 ZINC000022010625   -0.3600
8      C8      3.2103   -2.0409   -0.8110 C.3      1 ZINC000022010625    0.1400
9      C9      1.8824   -2.7094   -1.0498 C.2      1 ZINC000022010625   -0.2100
10     C10     0.7396   -2.0053   -1.2667 C.2      1 ZINC000022010625    0.0300
11     C11    -0.4587   -2.6918   -1.5027 C.2      1 ZINC000022010625   -0.1200
12     C12    -0.4788   -4.0703   -1.5050 C.2      1 ZINC000022010625    0.1700
13     C13    -1.6013   -5.0118   -1.7264 C.ar     1 ZINC000022010625    0.1800
14     C14    -1.1035   -6.3210   -1.6217 C.ar     1 ZINC000022010625   -0.1200
15     C15     0.3704   -6.2044   -1.3285 C.3      1 ZINC000022010625    0.1400
16     N16     0.6730   -4.7678   -1.2747 N.am     1 ZINC000022010625   -0.5000
17     C17     1.8312   -4.1188   -1.0493 C.2      1 ZINC000022010625    0.5500
18     O18     2.8496   -4.7584   -0.8418 O.2      1 ZINC000022010625   -0.5200
19     C19    -1.9314   -7.3887   -1.7819 C.ar     1 ZINC000022010625   -0.0700
20     C20    -1.4084   -8.7977   -1.6713 C.3      1 ZINC000022010625    0.0400
21     N21    -1.5091   -9.2494   -0.2771 N.4      1 ZINC000022010625   -0.3900
22     H22    -1.0314   -8.5945    0.3237 H        1 ZINC000022010625    0.4200
23     C23    -0.8900  -10.5749   -0.1463 C.3      1 ZINC000022010625    0.0000
24     C24    -0.9779  -11.0377    1.3096 C.3      1 ZINC000022010625    0.0200
25     N25    -2.3885  -11.0943    1.7184 N.3      1 ZINC000022010625   -0.5400
26     C26    -2.5182  -11.5897    3.0953 C.3      1 ZINC000022010625    0.0200
27     C27    -3.0284   -9.7796    1.5692 C.3      1 ZINC000022010625    0.0300
28     C28    -2.9236   -9.3275    0.1110 C.3      1 ZINC000022010625   -0.0100
29     C29    -3.2912   -7.1405   -2.0534 C.ar     1 ZINC000022010625   -0.0600
30     C30    -4.2025   -8.1919   -2.2305 C.ar     1 ZINC000022010625   -0.1500
31     C31    -5.5158   -7.9185   -2.4930 C.ar     1 ZINC000022010625    0.1200
32     O32    -6.3805   -8.9556   -2.6691 O.3      1 ZINC000022010625   -0.3000
33     C33    -7.7760   -8.6558   -2.5625 C.3      1 ZINC000022010625    0.0200
34     C34    -8.0593   -7.3884   -3.3798 C.3      1 ZINC000022010625    0.0200
35     O35    -7.2752   -6.3205   -2.8386 O.3      1 ZINC000022010625   -0.2900
36     C36    -5.9651   -6.5914   -2.5838 C.ar     1 ZINC000022010625    0.0900
37     C37    -5.0987   -5.5484   -2.4179 C.ar     1 ZINC000022010625   -0.0800
38     C38    -3.7409   -5.7974   -2.1488 C.ar     1 ZINC000022010625    0.1500
39     N39    -2.8816   -4.7916   -1.9834 N.ar     1 ZINC000022010625   -0.4000
40     H40     1.0039    1.9031    0.0027 H        1 ZINC000022010625    0.0600
41     H41    -0.5459    1.8868   -0.8726 H        1 ZINC000022010625    0.0700
42     H42    -0.5289    1.8773    0.9072 H        1 ZINC000022010625    0.0800
43     H43     0.5293   -0.3651    0.8851 H        1 ZINC000022010625    0.0900
44     H44    -1.0205   -0.3814    0.0098 H        1 ZINC000022010625    0.1000
45     H45    -0.0188    0.9423   -2.4754 H        1 ZINC000022010625    0.4000
46     H46     3.8194   -2.1201   -1.7114 H        1 ZINC000022010625    0.1000
47     H47     3.7209   -2.5403    0.0124 H        1 ZINC000022010625    0.1400
48     H48    -1.3692   -2.1397   -1.6829 H        1 ZINC000022010625    0.1700
49     H49     0.5987   -6.6704   -0.3699 H        1 ZINC000022010625    0.1100
50     H50     0.9480   -6.6785   -2.1220 H        1 ZINC000022010625    0.1200
51     H51    -1.9983   -9.4553   -2.3098 H        1 ZINC000022010625    0.1500
52     H52    -0.3656   -8.8240   -1.9874 H        1 ZINC000022010625    0.1500
53     H53    -1.4141  -11.2854   -0.7856 H        1 ZINC000022010625    0.1400
54     H54     0.1561  -10.5186   -0.4471 H        1 ZINC000022010625    0.1400
55     H55    -0.5319  -12.0278    1.4041 H        1 ZINC000022010625    0.1300
56     H56    -0.4423  -10.3348    1.9477 H        1 ZINC000022010625    0.0600
57     H57    -1.9844  -10.9234    3.7729 H        1 ZINC000022010625    0.0400
58     H58    -3.5719  -11.6216    3.3722 H        1 ZINC000022010625    0.0800
59     H59    -2.0944  -12.5917    3.1623 H        1 ZINC000022010625    0.0900
60     H60    -4.0783   -9.8518    1.8530 H        1 ZINC000022010625    0.1200
61     H61    -2.5266   -9.0559    2.2115 H        1 ZINC000022010625    0.0600
62     H62    -3.3850   -8.3462    0.0008 H        1 ZINC000022010625    0.1300
63     H63    -3.4373  -10.0445   -0.5295 H        1 ZINC000022010625    0.1400
64     H64    -3.8670   -9.2160   -2.1598 H        1 ZINC000022010625    0.1500
65     H65    -8.3615   -9.4862   -2.9572 H        1 ZINC000022010625    0.1400
66     H66    -8.0366   -8.4855   -1.5179 H        1 ZINC000022010625    0.0900
67     H67    -7.7853   -7.5541   -4.4217 H        1 ZINC000022010625    0.0900
68     H68    -9.1179   -7.1373   -3.3133 H        1 ZINC000022010625    0.1400
69     H69    -5.4565   -4.5322   -2.4935 H        1 ZINC000022010625    0.1600
@<TRIPOS>BOND
1     1     2     1
2     1     40    1
3     1     41    1
4     1     42    1
5     2     3     1
6     2     43    1
7     2     44    1
8     3     10    1
9     3     4     1
10    3     5     1
11    4     45    1
12    5     6     2
13    5     7     1
14    7     8     1
15    8     9     1
16    8     46    1
17    8     47    1
18    9     17    1
19    9     10    2
20    10    11    1
21    11    12    2
22    11    48    1
23    12    16    1
24    12    13    1
25    13    39    ar
26    13    14    ar
27    14    15    1
28    14    19    ar
29    15    16    1
30    15    49    1
31    15    50    1
32    16    17    am
33    17    18    2
34    19    20    1
35    19    29    ar
36    20    21    1
37    20    51    1
38    20    52    1
39    21    22    1
40    21    28    1
41    21    23    1
42    23    24    1
43    23    53    1
44    23    54    1
45    24    25    1
46    24    55    1
47    24    56    1
48    25    26    1
49    25    27    1
50    26    57    1
51    26    58    1
52    26    59    1
53    27    28    1
54    27    60    1
55    27    61    1
56    28    62    1
57    28    63    1
58    29    38    ar
59    29    30    ar
60    30    31    ar
61    30    64    1
62    31    36    ar
63    31    32    1
64    32    33    1
65    33    34    1
66    33    65    1
67    33    66    1
68    34    35    1
69    34    67    1
70    34    68    1
71    35    36    1
72    36    37    ar
73    37    38    ar
74    37    69    1
75    38    39    ar
@<TRIPOS>SUBSTRUCTURE
1   ZINC000022010625 1     RESIDUE    1   A     ZIN   1
