@<TRIPOS>MOLECULE
ZINC000000004861
  30   32    0    0    0
SMALL
USER_CHARGES
NO_NAME
@<TRIPOS>ATOM
    1 C1       -0.0173     1.4248     0.0099 C.3    1 <0>       0.0200
    2 O2        0.0021    -0.0041     0.0020 O.3    1 <0>      -0.2800
    3 C3       -1.2015    -0.6381     0.0101 C.2    1 <0>       0.1200
    4 C4       -1.3217    -1.9960     0.0093 C.2    1 <0>      -0.1500
    5 C5       -0.1990    -2.9508    -0.0002 C.2    1 <0>       0.3200
    6 N6        1.0807    -2.6025    -0.0035 N.2    1 <0>      -0.4800
    7 C7        1.8261    -3.7211    -0.0115 C.2    1 <0>      -0.0400
    8 C8        3.1750    -4.0141    -0.0184 C.2    1 <0>       0.1900
    9 N9        3.5812    -5.2944    -0.0262 N.pl3  1 <0>      -0.5100
   10 C10       2.7131    -6.3355    -0.0282 C.2    1 <0>       0.0400
   11 C11       1.3741    -6.1518    -0.0219 C.2    1 <0>      -0.0900
   12 C12       0.8659    -4.8370    -0.0130 C.2    1 <0>       0.1000
   13 N13      -0.3384    -4.2794    -0.0009 N.2    1 <0>      -0.5300
   14 S14      -3.0260    -2.4302     0.0213 S.3    1 <0>       0.2700
   15 C15      -3.4937    -0.7355     0.0269 C.2    1 <0>      -0.5500
   16 S16      -5.1540    -0.1460     0.0404 S.o    1 <0>       1.3700
   17 C17      -5.5520    -0.0067    -1.7239 C.3    1 <0>      -0.5000
   18 O18      -5.8747    -1.2332     0.6041 O.2    1 <0>      -0.8500
   19 C19      -2.4055     0.0399     0.0257 C.2    1 <0>      -0.1000
   20 H20       1.0053     1.8021     0.0021 H      1 <0>       0.1000
   21 H21      -0.5445     1.7859    -0.8732 H      1 <0>       0.0500
   22 H22      -0.5275     1.7763     0.9067 H      1 <0>       0.0500
   23 H23       3.9022    -3.2156    -0.0178 H      1 <0>       0.1900
   24 H24       4.5330    -5.4812    -0.0310 H      1 <0>       0.4300
   25 H25       3.1033    -7.3425    -0.0354 H      1 <0>       0.1800
   26 H26       0.7042    -6.9989    -0.0240 H      1 <0>       0.1600
   27 H27      -5.4586    -0.9848    -2.1958 H      1 <0>       0.0800
   28 H28      -6.5735     0.3559    -1.8384 H      1 <0>       0.1100
   29 H29      -4.8630     0.6926    -2.1977 H      1 <0>       0.1100
   30 H30      -2.4629     1.1183     0.0286 H      1 <0>       0.1600
@<TRIPOS>BOND
   1    1    2 1
   2    1   20 1
   3    1   21 1
   4    1   22 1
   5    2    3 1
   6    3   19 1
   7    3    4 2
   8    4    5 1
   9    4   14 1
  10    5   13 1
  11    5    6 2
  12    6    7 1
  13    7   12 1
  14    7    8 2
  15    8    9 1
  16    8   23 1
  17    9   10 1
  18    9   24 1
  19   10   11 2
  20   10   25 1
  21   11   12 1
  22   11   26 1
  23   12   13 2
  24   14   15 1
  25   15   16 1
  26   15   19 2
  27   16   17 1
  28   16   18 2
  29   17   27 1
  30   17   28 1
  31   17   29 1
  32   19   30 1
