@<TRIPOS>MOLECULE
ZINC000039959796
64    66    1     0     0
SMALL
USER_CHARGES
@<TRIPOS>ATOM
1      C1      0.4101    1.6658    0.0547 C.3      1 ZINC000039959796   -0.1200
2      C2      0.2343    0.1692    0.0773 C.2      1 ZINC000039959796   -0.1100
3      C3      0.3872   -0.5880    1.3712 C.3      1 ZINC000039959796   -0.1300
4      C4     -0.0514   -0.4735   -1.0279 C.2      1 ZINC000039959796   -0.1900
5      C5     -0.0824    0.2639   -2.3418 C.3      1 ZINC000039959796   -0.0800
6      C6      0.8489   -0.4297   -3.3380 C.3      1 ZINC000039959796   -0.1000
7      C7      0.8179    0.3076   -4.6519 C.2      1 ZINC000039959796    0.0000
8      C8     -0.2562    0.0004   -5.6633 C.3      1 ZINC000039959796   -0.1600
9      C9      1.7247    1.2157   -4.9150 C.2      1 ZINC000039959796   -0.2800
10     C10     1.6232    2.0398   -6.1726 C.3      1 ZINC000039959796    0.0300
11     N11     1.6445    3.4671   -5.8258 N.4      1 ZINC000039959796   -0.5000
12     H12     0.8644    3.6781   -5.2216 H        1 ZINC000039959796    0.4400
13     H13     2.5071    3.6848   -5.3498 H        1 ZINC000039959796    0.4400
14     C14     1.5455    4.2704   -7.0517 C.3      1 ZINC000039959796   -0.0400
15     C15     1.5676    5.7570   -6.6905 C.3      1 ZINC000039959796   -0.0400
16     N16     1.4687    6.5603   -7.9164 N.4      1 ZINC000039959796   -0.5000
17     H17     2.2487    6.3494   -8.5207 H        1 ZINC000039959796    0.4300
18     H18     0.6061    6.3427   -8.3924 H        1 ZINC000039959796    0.4400
19     C19     1.4899    7.9877   -7.5696 C.3      1 ZINC000039959796    0.0300
20     C20     2.8474    8.3443   -6.9605 C.3      1 ZINC000039959796   -0.1000
21     C21     3.9547    8.0492   -7.9742 C.3      1 ZINC000039959796   -0.1200
22     C22     3.7267    8.8841   -9.2360 C.3      1 ZINC000039959796   -0.0900
23     C23     3.7488   10.3707   -8.8748 C.3      1 ZINC000039959796   -0.1200
24     C24     2.6415   10.6658   -7.8610 C.3      1 ZINC000039959796   -0.1000
25     C25     2.8695    9.8309   -6.5993 C.3      1 ZINC000039959796   -0.1100
26     C26     1.2841   10.3091   -8.4701 C.3      1 ZINC000039959796   -0.1100
27     C27     1.2620    8.8225   -8.8313 C.3      1 ZINC000039959796   -0.1000
28     C28     2.3693    8.5274   -9.8451 C.3      1 ZINC000039959796   -0.1300
29     H29     0.5526    2.0302    1.0720 H        1 ZINC000039959796    0.0700
30     H30     1.2820    1.9201   -0.5479 H        1 ZINC000039959796    0.0600
31     H31    -0.4773    2.1294   -0.3763 H        1 ZINC000039959796    0.0600
32     H32     0.6226    0.1097    2.1749 H        1 ZINC000039959796    0.0700
33     H33    -0.5438   -1.1062    1.6011 H        1 ZINC000039959796    0.0700
34     H34     1.1933   -1.3152    1.2736 H        1 ZINC000039959796    0.0700
35     H35    -0.2647   -1.5318   -0.9974 H        1 ZINC000039959796    0.1100
36     H36    -1.0992    0.2640   -2.7345 H        1 ZINC000039959796    0.0700
37     H37     0.2485    1.2913   -2.1898 H        1 ZINC000039959796    0.0700
38     H38     1.8658   -0.4298   -2.9453 H        1 ZINC000039959796    0.0800
39     H39     0.5180   -1.4571   -3.4900 H        1 ZINC000039959796    0.0900
40     H40    -0.8592   -0.8361   -5.3100 H        1 ZINC000039959796    0.0900
41     H41    -0.8917    0.8760   -5.7957 H        1 ZINC000039959796    0.0800
42     H42     0.2053   -0.2610   -6.6155 H        1 ZINC000039959796    0.0800
43     H43     2.5451    1.3738   -4.2305 H        1 ZINC000039959796    0.1400
44     H44     2.4659    1.8119   -6.8253 H        1 ZINC000039959796    0.1400
45     H45     0.6913    1.8047   -6.6868 H        1 ZINC000039959796    0.1400
46     H46     2.3882    4.0425   -7.7044 H        1 ZINC000039959796    0.1500
47     H47     0.6136    4.0353   -7.5659 H        1 ZINC000039959796    0.1500
48     H48     0.7250    5.9849   -6.0378 H        1 ZINC000039959796    0.1600
49     H49     2.4995    5.9921   -6.1763 H        1 ZINC000039959796    0.1500
50     H50     0.7011    8.1979   -6.8474 H        1 ZINC000039959796    0.1500
51     H51     3.0098    7.7496   -6.0616 H        1 ZINC000039959796    0.0900
52     H52     4.9217    8.3033   -7.5403 H        1 ZINC000039959796    0.1000
53     H53     3.9389    6.9902   -8.2316 H        1 ZINC000039959796    0.0500
54     H54     4.5155    8.6739   -9.9582 H        1 ZINC000039959796    0.0900
55     H55     4.7159   10.6248   -8.4408 H        1 ZINC000039959796    0.0800
56     H56     3.5864   10.9655   -9.7736 H        1 ZINC000039959796    0.0800
57     H57     2.6573   11.7248   -7.6037 H        1 ZINC000039959796    0.0900
58     H58     2.0807   10.0411   -5.8770 H        1 ZINC000039959796    0.0800
59     H59     3.8366   10.0850   -6.1653 H        1 ZINC000039959796    0.0900
60     H60     0.4952   10.5193   -7.7479 H        1 ZINC000039959796    0.0800
61     H61     1.1217   10.9039   -9.3690 H        1 ZINC000039959796    0.0900
62     H62     0.2949    8.5684   -9.2653 H        1 ZINC000039959796    0.1000
63     H63     2.2068    9.1222  -10.7440 H        1 ZINC000039959796    0.1000
64     H64     2.3535    7.4684  -10.1024 H        1 ZINC000039959796    0.0500
@<TRIPOS>BOND
1     1     2     1
2     1     29    1
3     1     30    1
4     1     31    1
5     2     3     1
6     2     4     2
7     3     32    1
8     3     33    1
9     3     34    1
10    4     5     1
11    4     35    1
12    5     6     1
13    5     36    1
14    5     37    1
15    6     7     1
16    6     38    1
17    6     39    1
18    7     8     1
19    7     9     2
20    8     40    1
21    8     41    1
22    8     42    1
23    9     10    1
24    9     43    1
25    10    11    1
26    10    44    1
27    10    45    1
28    11    12    1
29    11    13    1
30    11    14    1
31    14    15    1
32    14    46    1
33    14    47    1
34    15    16    1
35    15    48    1
36    15    49    1
37    16    17    1
38    16    18    1
39    16    19    1
40    19    27    1
41    19    20    1
42    19    50    1
43    20    25    1
44    20    21    1
45    20    51    1
46    21    22    1
47    21    52    1
48    21    53    1
49    22    28    1
50    22    23    1
51    22    54    1
52    23    24    1
53    23    55    1
54    23    56    1
55    24    25    1
56    24    26    1
57    24    57    1
58    25    58    1
59    25    59    1
60    26    27    1
61    26    60    1
62    26    61    1
63    27    28    1
64    27    62    1
65    28    63    1
66    28    64    1
@<TRIPOS>SUBSTRUCTURE
1   ZINC000039959796 1     RESIDUE    1   A     ZIN   1
