@<TRIPOS>MOLECULE
ZINC000003806784
30    31    1     0     0
SMALL
USER_CHARGES
@<TRIPOS>ATOM
1      N1     -0.4760   -1.2408    0.0228 N.1      1 ZINC000003806784   -0.3900
2      C2     -0.3545   -0.1117   -0.0030 C.1      1 ZINC000003806784    0.2100
3      C3     -0.1970    1.3515   -0.0365 C.3      1 ZINC000003806784   -0.0300
4      H4      0.8528    1.6256   -0.1411 H        1 ZINC000003806784    0.1600
5      C5     -0.8156    2.0034    1.2263 C.3      1 ZINC000003806784    0.3100
6      H6     -0.4110    3.0040    1.3791 H        1 ZINC000003806784    0.1400
7      N7     -0.5802    1.1677    2.4063 N.am     1 ZINC000003806784   -0.5400
8      C8     -1.5414    0.2961    2.8223 C.2      1 ZINC000003806784    0.2000
9      C9     -1.3119   -0.4713    3.9140 C.2      1 ZINC000003806784   -0.3100
10     C10    -0.0812   -0.3457    4.5907 C.2      1 ZINC000003806784    0.5100
11     N11     0.1785   -1.1133    5.7023 N.pl3    1 ZINC000003806784   -0.8100
12     N12     0.8249    0.5166    4.1489 N.2      1 ZINC000003806784   -0.6100
13     C13     0.5864    1.2609    3.0705 C.2      1 ZINC000003806784    0.6600
14     O14     1.4359    2.0464    2.6838 O.2      1 ZINC000003806784   -0.5400
15     O15    -2.2245    2.0665    0.9169 O.3      1 ZINC000003806784   -0.3600
16     C16    -2.3340    2.4420   -0.4663 C.3      1 ZINC000003806784    0.0500
17     H17    -2.4290    3.5246   -0.5501 H        1 ZINC000003806784    0.1100
18     C18    -3.5524    1.7628   -1.0948 C.3      1 ZINC000003806784    0.0800
19     O19    -4.7451    2.2808   -0.5021 O.3      1 ZINC000003806784   -0.5600
20     C20    -1.0459    1.9727   -1.1723 C.3      1 ZINC000003806784    0.0900
21     H21    -1.2772    1.2236   -1.9295 H        1 ZINC000003806784    0.0900
22     O22    -0.3650    3.0830   -1.7603 O.3      1 ZINC000003806784   -0.5400
23     H23    -2.4764    0.2184    2.2872 H        1 ZINC000003806784    0.1800
24     H24    -2.0600   -1.1685    4.2614 H        1 ZINC000003806784    0.1600
25     H25    -0.4859   -1.7432    6.0227 H        1 ZINC000003806784    0.4200
26     H26     1.0260   -1.0247    6.1657 H        1 ZINC000003806784    0.4100
27     H27    -3.5648    1.9587   -2.1670 H        1 ZINC000003806784    0.0700
28     H28    -3.4983    0.6878   -0.9225 H        1 ZINC000003806784    0.0600
29     H29    -5.5588    1.8942   -0.8534 H        1 ZINC000003806784    0.3900
30     H30    -0.8773    3.5442   -2.4384 H        1 ZINC000003806784    0.4000
@<TRIPOS>BOND
1     1     2     3
2     2     3     1
3     3     4     1
4     3     20    1
5     3     5     1
6     5     6     1
7     5     7     1
8     5     15    1
9     7     13    am
10    7     8     1
11    8     9     2
12    8     23    1
13    9     10    1
14    9     24    1
15    10    11    1
16    10    12    2
17    11    25    1
18    11    26    1
19    12    13    1
20    13    14    2
21    15    16    1
22    16    17    1
23    16    18    1
24    16    20    1
25    18    19    1
26    18    27    1
27    18    28    1
28    19    29    1
29    20    21    1
30    20    22    1
31    22    30    1
@<TRIPOS>SUBSTRUCTURE
1   ZINC000003806784 1     RESIDUE    1   A     ZIN   1
