@<TRIPOS>MOLECULE
ZINC000028711707
95    100   1     0     0
SMALL
USER_CHARGES
@<TRIPOS>ATOM
1      C1      0.9086   -9.9399   13.3023 C.3      1 ZINC000028711707   -0.1200
2      C2      0.3273   -9.3659   12.0359 C.ar     1 ZINC000028711707   -0.0500
3      C3     -0.8532   -8.6351   12.0847 C.ar     1 ZINC000028711707   -0.1200
4      C4     -1.3918   -8.1101   10.9522 C.ar     1 ZINC000028711707   -0.0600
5      C5     -0.7580   -8.2992    9.7010 C.ar     1 ZINC000028711707   -0.1000
6      C6     -1.1548   -7.8411    8.4343 C.2      1 ZINC000028711707   -0.0300
7      C7     -0.3499   -8.1767    7.4211 C.2      1 ZINC000028711707   -0.2200
8      C8     -0.5739   -7.8040    6.0168 C.2      1 ZINC000028711707    0.6100
9      O9     -1.5486   -7.1436    5.7108 O.2      1 ZINC000028711707   -0.5100
10     N10     0.3007   -8.1939    5.0683 N.am     1 ZINC000028711707   -0.7000
11     C11     0.0227   -7.9164    3.6570 C.3      1 ZINC000028711707    0.1700
12     C12    -1.2477   -8.6090    3.2356 C.2      1 ZINC000028711707    0.5200
13     O13    -1.9022   -9.2239    4.0507 O.2      1 ZINC000028711707   -0.4900
14     N14    -1.6565   -8.5450    1.9529 N.am     1 ZINC000028711707   -0.7200
15     C15    -2.8304   -9.3067    1.5194 C.3      1 ZINC000028711707    0.1400
16     H16    -3.5625   -9.3365    2.3263 H        1 ZINC000028711707    0.1200
17     C17    -2.4088  -10.7330    1.1603 C.3      1 ZINC000028711707   -0.0800
18     C18    -1.9116  -11.4362    2.3970 C.ar     1 ZINC000028711707   -0.0800
19     C19    -0.5742  -11.3686    2.7401 C.ar     1 ZINC000028711707   -0.1100
20     C20    -0.1182  -12.0137    3.8744 C.ar     1 ZINC000028711707   -0.1100
21     C21    -0.9997  -12.7260    4.6660 C.ar     1 ZINC000028711707   -0.1100
22     C22    -2.3372  -12.7928    4.3234 C.ar     1 ZINC000028711707   -0.1100
23     C23    -2.7940  -12.1442    3.1914 C.ar     1 ZINC000028711707   -0.1000
24     C24    -3.4410   -8.6443    0.3113 C.2      1 ZINC000028711707    0.5200
25     O25    -2.9445   -7.6352   -0.1428 O.2      1 ZINC000028711707   -0.5200
26     N26    -4.5389   -9.1731   -0.2644 N.am     1 ZINC000028711707   -0.7300
27     C27    -5.1325   -8.5291   -1.4388 C.3      1 ZINC000028711707    0.1200
28     C28    -6.3585   -9.3247   -1.8915 C.3      1 ZINC000028711707   -0.1100
29     C29    -7.4419   -9.2544   -0.8116 C.3      1 ZINC000028711707   -0.1500
30     C30    -8.6933   -9.9846   -1.3040 C.3      1 ZINC000028711707   -0.0100
31     N31    -9.1834   -9.3488   -2.5329 N.4      1 ZINC000028711707   -0.3800
32     H32    -9.3631   -8.3718   -2.3563 H        1 ZINC000028711707    0.4200
33     C33   -10.4267  -10.0047   -2.9595 C.3      1 ZINC000028711707    0.0000
34     C34   -10.8988   -9.3930   -4.2800 C.3      1 ZINC000028711707   -0.1200
35     C35   -12.1611  -10.1173   -4.7579 C.3      1 ZINC000028711707   -0.1500
36     C36   -12.6707   -9.4481   -6.0371 C.3      1 ZINC000028711707    0.0600
37     O37   -12.9227   -8.0649   -5.7816 O.3      1 ZINC000028711707   -0.3700
38     C38   -11.7681   -7.3264   -5.3770 C.3      1 ZINC000028711707    0.0600
39     C39   -11.2223   -7.9104   -4.0713 C.3      1 ZINC000028711707   -0.1700
40     C40    -8.1776   -9.4757   -3.5945 C.3      1 ZINC000028711707   -0.0100
41     C41    -6.9064   -8.7260   -3.1902 C.3      1 ZINC000028711707   -0.1400
42     C42    -0.1040   -6.3954    3.4325 C.3      1 ZINC000028711707   -0.1300
43     C43     1.3062   -5.9625    2.9600 C.3      1 ZINC000028711707   -0.1300
44     C44     1.7434   -7.1453    2.0606 C.3      1 ZINC000028711707   -0.1200
45     C45     1.1972   -8.3932    2.7847 C.3      1 ZINC000028711707   -0.1300
46     S46     1.0107   -9.1233    7.9974 S.3      1 ZINC000028711707    0.1100
47     C47     0.4323   -9.0365    9.6573 C.ar     1 ZINC000028711707   -0.1200
48     C48     0.9695   -9.5621   10.8367 C.ar     1 ZINC000028711707   -0.0900
49     H49     1.5849   -9.2138   13.7533 H        1 ZINC000028711707    0.0800
50     H50     0.1034  -10.1690   14.0004 H        1 ZINC000028711707    0.0700
51     H51     1.4578  -10.8520   13.0691 H        1 ZINC000028711707    0.0700
52     H52    -1.3485   -8.4827   13.0323 H        1 ZINC000028711707    0.1300
53     H53    -2.3103   -7.5447   11.0077 H        1 ZINC000028711707    0.1300
54     H54    -2.0511   -7.2566    8.2882 H        1 ZINC000028711707    0.1500
55     H55     1.1142   -8.6583    5.3202 H        1 ZINC000028711707    0.4000
56     H56    -1.1734   -7.9946    1.3168 H        1 ZINC000028711707    0.4100
57     H57    -3.2639  -11.2733    0.7541 H        1 ZINC000028711707    0.0800
58     H58    -1.6129  -10.7002    0.4163 H        1 ZINC000028711707    0.0800
59     H59     0.1144  -10.8121    2.1216 H        1 ZINC000028711707    0.1100
60     H60     0.9268  -11.9614    4.1421 H        1 ZINC000028711707    0.1200
61     H61    -0.6432  -13.2305    5.5519 H        1 ZINC000028711707    0.1200
62     H62    -3.0258  -13.3496    4.9417 H        1 ZINC000028711707    0.1200
63     H63    -3.8390  -12.1964    2.9237 H        1 ZINC000028711707    0.1100
64     H64    -4.9360   -9.9802    0.0988 H        1 ZINC000028711707    0.4000
65     H65    -5.4328   -7.5130   -1.1830 H        1 ZINC000028711707    0.0800
66     H66    -4.4004   -8.4993   -2.2457 H        1 ZINC000028711707    0.0800
67     H67    -6.0767  -10.3641   -2.0598 H        1 ZINC000028711707    0.1000
68     H68    -7.0786   -9.7291    0.0999 H        1 ZINC000028711707    0.1100
69     H69    -7.6855   -8.2118   -0.6076 H        1 ZINC000028711707    0.0900
70     H70    -8.4487  -11.0271   -1.5074 H        1 ZINC000028711707    0.1300
71     H71    -9.4667   -9.9367   -0.5374 H        1 ZINC000028711707    0.1300
72     H72   -10.2465  -11.0709   -3.0968 H        1 ZINC000028711707    0.1300
73     H73   -11.1931   -9.8609   -2.1979 H        1 ZINC000028711707    0.1300
74     H74   -10.1137   -9.4929   -5.0295 H        1 ZINC000028711707    0.1000
75     H75   -11.9265  -11.1620   -4.9619 H        1 ZINC000028711707    0.0900
76     H76   -12.9286  -10.0594   -3.9860 H        1 ZINC000028711707    0.0800
77     H77   -11.9188   -9.5419   -6.8207 H        1 ZINC000028711707    0.0600
78     H78   -13.5929   -9.9324   -6.3581 H        1 ZINC000028711707    0.1100
79     H79   -11.0044   -7.3925   -6.1520 H        1 ZINC000028711707    0.0600
80     H80   -12.0401   -6.2823   -5.2226 H        1 ZINC000028711707    0.1000
81     H81   -11.9707   -7.8079   -3.2856 H        1 ZINC000028711707    0.0900
82     H82   -10.3162   -7.3768   -3.7844 H        1 ZINC000028711707    0.0700
83     H83    -7.9440  -10.5291   -3.7491 H        1 ZINC000028711707    0.1300
84     H84    -8.5703   -9.0520   -4.5188 H        1 ZINC000028711707    0.1300
85     H85    -7.1389   -7.6723   -3.0356 H        1 ZINC000028711707    0.0900
86     H86    -6.1603   -8.8228   -3.9789 H        1 ZINC000028711707    0.1200
87     H87    -0.8459   -6.1839    2.6625 H        1 ZINC000028711707    0.0800
88     H88    -0.3653   -5.8928    4.3637 H        1 ZINC000028711707    0.0900
89     H89     1.2539   -5.0384    2.3844 H        1 ZINC000028711707    0.0800
90     H90     1.9811   -5.8526    3.8088 H        1 ZINC000028711707    0.0700
91     H91     1.2998   -7.0549    1.0691 H        1 ZINC000028711707    0.0700
92     H92     2.8302   -7.1900    1.9907 H        1 ZINC000028711707    0.0800
93     H93     1.9741   -8.8311    3.4115 H        1 ZINC000028711707    0.0800
94     H94     0.8483   -9.1249    2.0561 H        1 ZINC000028711707    0.0800
95     H95     1.8892  -10.1274   10.8045 H        1 ZINC000028711707    0.1300
@<TRIPOS>BOND
1     1     2     1
2     1     49    1
3     1     50    1
4     1     51    1
5     2     48    ar
6     2     3     ar
7     3     4     ar
8     3     52    1
9     4     5     ar
10    4     53    1
11    5     47    ar
12    5     6     1
13    6     7     2
14    6     54    1
15    7     8     1
16    7     46    1
17    8     9     2
18    8     10    am
19    10    11    1
20    10    55    1
21    11    45    1
22    11    12    1
23    11    42    1
24    12    13    2
25    12    14    am
26    14    15    1
27    14    56    1
28    15    16    1
29    15    17    1
30    15    24    1
31    17    18    1
32    17    57    1
33    17    58    1
34    18    23    ar
35    18    19    ar
36    19    20    ar
37    19    59    1
38    20    21    ar
39    20    60    1
40    21    22    ar
41    21    61    1
42    22    23    ar
43    22    62    1
44    23    63    1
45    24    25    2
46    24    26    am
47    26    27    1
48    26    64    1
49    27    28    1
50    27    65    1
51    27    66    1
52    28    41    1
53    28    29    1
54    28    67    1
55    29    30    1
56    29    68    1
57    29    69    1
58    30    31    1
59    30    70    1
60    30    71    1
61    31    32    1
62    31    33    1
63    31    40    1
64    33    34    1
65    33    72    1
66    33    73    1
67    34    39    1
68    34    35    1
69    34    74    1
70    35    36    1
71    35    75    1
72    35    76    1
73    36    37    1
74    36    77    1
75    36    78    1
76    37    38    1
77    38    39    1
78    38    79    1
79    38    80    1
80    39    81    1
81    39    82    1
82    40    41    1
83    40    83    1
84    40    84    1
85    41    85    1
86    41    86    1
87    42    43    1
88    42    87    1
89    42    88    1
90    43    44    1
91    43    89    1
92    43    90    1
93    44    45    1
94    44    91    1
95    44    92    1
96    45    93    1
97    45    94    1
98    46    47    1
99    47    48    ar
100   48    95    1
@<TRIPOS>SUBSTRUCTURE
1   ZINC000028711707 1     RESIDUE    1   A     ZIN   1
