@<TRIPOS>MOLECULE
ZINC000001548719
75    78    1     0     0
SMALL
USER_CHARGES
@<TRIPOS>ATOM
1      C1     -0.0187    1.5258    0.0104 C.3      1 ZINC000001548719   -0.1500
2      C2      0.0021   -0.0041    0.0020 C.3      1 ZINC000001548719    0.0600
3      O3      0.6709   -0.4649   -1.1737 O.3      1 ZINC000001548719   -0.3900
4      C4      0.7457   -1.8880   -1.2798 C.3      1 ZINC000001548719    0.0900
5      C5      1.4669   -2.2599   -2.5497 C.2      1 ZINC000001548719   -0.1400
6      C6      2.3994   -3.2035   -2.5311 C.2      1 ZINC000001548719   -0.1100
7      C7      3.1061   -3.5679   -3.7754 C.ar     1 ZINC000001548719   -0.0500
8      C8      2.7966   -2.9149   -4.9712 C.ar     1 ZINC000001548719   -0.1100
9      C9      3.4547   -3.2546   -6.1309 C.ar     1 ZINC000001548719   -0.0700
10     C10     4.4329   -4.2525   -6.1125 C.ar     1 ZINC000001548719   -0.0100
11     C11     5.1395   -4.6169   -7.3570 C.2      1 ZINC000001548719    0.2400
12     N12     4.9386   -4.0708   -8.5352 N.2      1 ZINC000001548719   -0.4600
13     C13     5.7503   -4.6410   -9.4394 C.2      1 ZINC000001548719    0.0700
14     C14     5.8273   -4.3032  -10.8798 C.ar     1 ZINC000001548719   -0.0700
15     C15     7.0515   -4.3595  -11.5463 C.ar     1 ZINC000001548719   -0.0500
16     C16     7.1203   -4.0446  -12.8866 C.ar     1 ZINC000001548719   -0.2000
17     C17     5.9712   -3.6710  -13.5740 C.ar     1 ZINC000001548719    0.2200
18     N18     6.0437   -3.3525  -14.9318 N.pl3    1 ZINC000001548719   -0.7400
19     C19     4.8335   -2.9587  -15.6575 C.3      1 ZINC000001548719    0.1400
20     C20     4.5909   -1.4598  -15.4691 C.3      1 ZINC000001548719   -0.1700
21     C21     5.0097   -3.2636  -17.1464 C.3      1 ZINC000001548719   -0.1600
22     C22     4.7500   -3.6145  -12.9124 C.ar     1 ZINC000001548719   -0.2000
23     C23     4.6747   -3.9336  -11.5733 C.ar     1 ZINC000001548719   -0.0400
24     C24     6.5038   -5.6020   -8.7845 C.2      1 ZINC000001548719    0.0500
25     C25     7.5293   -6.4790   -9.3812 C.ar     1 ZINC000001548719   -0.0900
26     C26     7.2828   -7.1162  -10.6004 C.ar     1 ZINC000001548719   -0.0300
27     C27     8.2428   -7.9344  -11.1545 C.ar     1 ZINC000001548719   -0.1900
28     C28     9.4556   -8.1270  -10.5020 C.ar     1 ZINC000001548719    0.2300
29     N29    10.4256   -8.9572  -11.0663 N.pl3    1 ZINC000001548719   -0.7400
30     C30    11.7040   -9.1614  -10.3805 C.3      1 ZINC000001548719    0.1400
31     C31    12.3038  -10.5023  -10.8082 C.3      1 ZINC000001548719   -0.1600
32     C32    12.6669   -8.0311  -10.7494 C.3      1 ZINC000001548719   -0.1700
33     C33     9.7047   -7.4943   -9.2889 C.ar     1 ZINC000001548719   -0.2000
34     C34     8.7518   -6.6701   -8.7315 C.ar     1 ZINC000001548719   -0.0600
35     N35     6.1109   -5.5717   -7.4660 N.pl3    1 ZINC000001548719   -0.5600
36     C36     4.7426   -4.9052   -4.9163 C.ar     1 ZINC000001548719   -0.1100
37     C37     4.0880   -4.5616   -3.7557 C.ar     1 ZINC000001548719   -0.1000
38     H38     1.0039    1.9031    0.0027 H        1 ZINC000001548719    0.0600
39     H39    -0.5459    1.8868   -0.8726 H        1 ZINC000001548719    0.0600
40     H40    -0.5289    1.8773    0.9072 H        1 ZINC000001548719    0.0700
41     H41     0.5293   -0.3651    0.8851 H        1 ZINC000001548719    0.0500
42     H42    -1.0205   -0.3814    0.0098 H        1 ZINC000001548719    0.0500
43     H43     1.2883   -2.2882   -0.4233 H        1 ZINC000001548719    0.0600
44     H44    -0.2614   -2.3044   -1.2986 H        1 ZINC000001548719    0.0600
45     H45     1.2246   -1.7582   -3.4749 H        1 ZINC000001548719    0.1200
46     H46     2.6417   -3.7052   -1.6058 H        1 ZINC000001548719    0.1200
47     H47     2.0407   -2.1438   -4.9854 H        1 ZINC000001548719    0.1300
48     H48     3.2149   -2.7504   -7.0554 H        1 ZINC000001548719    0.1400
49     H49     7.9446   -4.6493  -11.0127 H        1 ZINC000001548719    0.1200
50     H50     8.0678   -4.0877  -13.4030 H        1 ZINC000001548719    0.1200
51     H51     6.8954   -3.3920  -15.3944 H        1 ZINC000001548719    0.4000
52     H52     3.9805   -3.5162  -15.2709 H        1 ZINC000001548719    0.0800
53     H53     5.4440   -0.9022  -15.8557 H        1 ZINC000001548719    0.0600
54     H54     3.6905   -1.1668  -16.0090 H        1 ZINC000001548719    0.0600
55     H55     4.4654   -1.2426  -14.4084 H        1 ZINC000001548719    0.0600
56     H56     5.1826   -4.3314  -17.2806 H        1 ZINC000001548719    0.0600
57     H57     4.1093   -2.9706  -17.6863 H        1 ZINC000001548719    0.0700
58     H58     5.8628   -2.7060  -17.5330 H        1 ZINC000001548719    0.0600
59     H59     3.8587   -3.3240  -13.4487 H        1 ZINC000001548719    0.1200
60     H60     3.7256   -3.8898  -11.0598 H        1 ZINC000001548719    0.1200
61     H61     6.3408   -6.9676  -11.1074 H        1 ZINC000001548719    0.1300
62     H62     8.0530   -8.4272  -12.0967 H        1 ZINC000001548719    0.1200
63     H63    10.2533   -9.3988  -11.9126 H        1 ZINC000001548719    0.4000
64     H64    11.5418   -9.1632   -9.3026 H        1 ZINC000001548719    0.0800
65     H65    12.4660  -10.5005  -11.8861 H        1 ZINC000001548719    0.0600
66     H66    13.2549  -10.6543  -10.2979 H        1 ZINC000001548719    0.0700
67     H67    11.6177  -11.3076  -10.5454 H        1 ZINC000001548719    0.0600
68     H68    13.6180   -8.1830  -10.2391 H        1 ZINC000001548719    0.0600
69     H69    12.8291   -8.0293  -11.8272 H        1 ZINC000001548719    0.0600
70     H70    12.2396   -7.0758  -10.4446 H        1 ZINC000001548719    0.0600
71     H71    10.6478   -7.6463   -8.7850 H        1 ZINC000001548719    0.1200
72     H72     8.9459   -6.1791   -7.7894 H        1 ZINC000001548719    0.1200
73     H73     6.4546   -6.1281   -6.7496 H        1 ZINC000001548719    0.4200
74     H74     5.4985   -5.6764   -4.9019 H        1 ZINC000001548719    0.1200
75     H75     4.3276   -5.0657   -2.8311 H        1 ZINC000001548719    0.1300
@<TRIPOS>BOND
1     1     2     1
2     1     38    1
3     1     39    1
4     1     40    1
5     2     3     1
6     2     41    1
7     2     42    1
8     3     4     1
9     4     5     1
10    4     43    1
11    4     44    1
12    5     6     2
13    5     45    1
14    6     7     1
15    6     46    1
16    7     37    ar
17    7     8     ar
18    8     9     ar
19    8     47    1
20    9     10    ar
21    9     48    1
22    10    11    1
23    10    36    ar
24    11    35    1
25    11    12    2
26    12    13    1
27    13    14    1
28    13    24    2
29    14    23    ar
30    14    15    ar
31    15    16    ar
32    15    49    1
33    16    17    ar
34    16    50    1
35    17    18    1
36    17    22    ar
37    18    19    1
38    18    51    1
39    19    20    1
40    19    21    1
41    19    52    1
42    20    53    1
43    20    54    1
44    20    55    1
45    21    56    1
46    21    57    1
47    21    58    1
48    22    23    ar
49    22    59    1
50    23    60    1
51    24    25    1
52    24    35    1
53    25    34    ar
54    25    26    ar
55    26    27    ar
56    26    61    1
57    27    28    ar
58    27    62    1
59    28    29    1
60    28    33    ar
61    29    30    1
62    29    63    1
63    30    31    1
64    30    32    1
65    30    64    1
66    31    65    1
67    31    66    1
68    31    67    1
69    32    68    1
70    32    69    1
71    32    70    1
72    33    34    ar
73    33    71    1
74    34    72    1
75    35    73    1
76    36    37    ar
77    36    74    1
78    37    75    1
@<TRIPOS>SUBSTRUCTURE
1   ZINC000001548719 1     RESIDUE    1   A     ZIN   1
