@<TRIPOS>MOLECULE
ZINC000008214358
91    92    1     0     0
SMALL
USER_CHARGES
@<TRIPOS>ATOM
1      C1     -0.3989    1.7682   -0.6575 C.3      1 ZINC000008214358   -0.1500
2      C2     -0.3324    0.2487   -0.4917 C.3      1 ZINC000008214358   -0.1300
3      C3     -1.7474   -0.3315   -0.5361 C.3      1 ZINC000008214358   -0.1200
4      C4     -1.6810   -1.8511   -0.3703 C.3      1 ZINC000008214358   -0.1200
5      C5     -3.0960   -2.4313   -0.4148 C.3      1 ZINC000008214358   -0.1200
6      C6     -3.0296   -3.9509   -0.2490 C.3      1 ZINC000008214358   -0.1200
7      C7     -4.4446   -4.5311   -0.2934 C.3      1 ZINC000008214358   -0.1200
8      C8     -4.3782   -6.0506   -0.1276 C.3      1 ZINC000008214358   -0.1200
9      C9     -5.7932   -6.6308   -0.1720 C.3      1 ZINC000008214358   -0.1200
10     C10    -5.7267   -8.1504   -0.0062 C.3      1 ZINC000008214358   -0.1200
11     C11    -7.1417   -8.7306   -0.0507 C.3      1 ZINC000008214358   -0.1200
12     C12    -7.0753  -10.2501    0.1151 C.3      1 ZINC000008214358   -0.1100
13     C13    -8.4940  -10.8221    0.1477 C.3      1 ZINC000008214358    0.0900
14     C14    -9.2263  -10.2530    1.2908 C.1      1 ZINC000008214358    0.2100
15     N15    -9.7915   -9.8138    2.1729 N.1      1 ZINC000008214358   -0.4100
16     C16    -8.4272  -12.3439    0.2914 C.3      1 ZINC000008214358   -0.1000
17     C17    -9.8451  -12.9186    0.2950 C.3      1 ZINC000008214358   -0.1600
18     C18    -9.7846  -14.4241    0.5609 C.3      1 ZINC000008214358   -0.0100
19     N19   -11.1460  -14.9759    0.5644 N.4      1 ZINC000008214358   -0.3900
20     H20   -11.7115  -14.4720    1.2310 H        1 ZINC000008214358    0.4300
21     C21   -11.7323  -14.8412   -0.7758 C.3      1 ZINC000008214358   -0.0600
22     C22   -11.0979  -16.3959    0.9373 C.3      1 ZINC000008214358   -0.0100
23     C23   -12.5228  -16.9389    1.0625 C.3      1 ZINC000008214358   -0.1000
24     C24   -12.4734  -18.3957    1.4451 C.ar     1 ZINC000008214358   -0.0700
25     C25   -12.4311  -19.3669    0.4622 C.ar     1 ZINC000008214358   -0.1500
26     C26   -12.3858  -20.7045    0.8101 C.ar     1 ZINC000008214358   -0.0700
27     C27   -12.3826  -21.0734    2.1411 C.ar     1 ZINC000008214358   -0.2000
28     C28   -12.4251  -20.1006    3.1296 C.ar     1 ZINC000008214358    0.1400
29     O29   -12.4217  -20.4610    4.4399 O.3      1 ZINC000008214358   -0.3200
30     C30   -12.3732  -21.8599    4.7278 C.3      1 ZINC000008214358    0.0200
31     C31   -12.4648  -18.7593    2.7781 C.ar     1 ZINC000008214358   -0.1500
32     C32    -9.2074  -10.4693   -1.1319 C.ar     1 ZINC000008214358   -0.0400
33     C33   -10.4093   -9.7876   -1.0872 C.ar     1 ZINC000008214358   -0.1600
34     C34   -11.0664   -9.4623   -2.2597 C.ar     1 ZINC000008214358   -0.0700
35     C35   -10.5231   -9.8179   -3.4788 C.ar     1 ZINC000008214358   -0.2000
36     C36    -9.3170  -10.5022   -3.5264 C.ar     1 ZINC000008214358    0.1400
37     O37    -8.7801  -10.8528   -4.7246 O.3      1 ZINC000008214358   -0.3100
38     C38    -9.5116  -10.4849   -5.8958 C.3      1 ZINC000008214358    0.0200
39     C39    -8.6570  -10.8223   -2.3490 C.ar     1 ZINC000008214358   -0.1400
40     H40     0.6092    2.1816   -0.6258 H        1 ZINC000008214358    0.0500
41     H41    -0.8606    2.0094   -1.6150 H        1 ZINC000008214358    0.0500
42     H42    -0.9926    2.1962    0.1502 H        1 ZINC000008214358    0.0500
43     H43     0.2613   -0.1793   -1.2994 H        1 ZINC000008214358    0.0600
44     H44     0.1293    0.0075    0.4658 H        1 ZINC000008214358    0.0600
45     H45    -2.3412    0.0965    0.2716 H        1 ZINC000008214358    0.0600
46     H46    -2.2091   -0.0904   -1.4936 H        1 ZINC000008214358    0.0600
47     H47    -1.0873   -2.2791   -1.1781 H        1 ZINC000008214358    0.0600
48     H48    -1.2193   -2.0923    0.5871 H        1 ZINC000008214358    0.0600
49     H49    -3.6897   -2.0033    0.3930 H        1 ZINC000008214358    0.0600
50     H50    -3.5577   -2.1901   -1.3722 H        1 ZINC000008214358    0.0600
51     H51    -2.4359   -4.3789   -1.0567 H        1 ZINC000008214358    0.0600
52     H52    -2.5679   -4.1920    0.7085 H        1 ZINC000008214358    0.0600
53     H53    -5.0383   -4.1031    0.5143 H        1 ZINC000008214358    0.0600
54     H54    -4.9063   -4.2899   -1.2509 H        1 ZINC000008214358    0.0600
55     H55    -3.7844   -6.4786   -0.9353 H        1 ZINC000008214358    0.0600
56     H56    -3.9165   -6.2918    0.8299 H        1 ZINC000008214358    0.0600
57     H57    -6.3869   -6.2028    0.6357 H        1 ZINC000008214358    0.0600
58     H58    -6.2549   -6.3897   -1.1295 H        1 ZINC000008214358    0.0600
59     H59    -5.1330   -8.5784   -0.8140 H        1 ZINC000008214358    0.0700
60     H60    -5.2650   -8.3916    0.9512 H        1 ZINC000008214358    0.0600
61     H61    -7.7355   -8.3026    0.7570 H        1 ZINC000008214358    0.0600
62     H62    -7.6034   -8.4894   -1.0082 H        1 ZINC000008214358    0.0700
63     H63    -6.5280  -10.6834   -0.7221 H        1 ZINC000008214358    0.0900
64     H64    -6.5646  -10.4920    1.0472 H        1 ZINC000008214358    0.0800
65     H65    -7.8672  -12.7635   -0.5443 H        1 ZINC000008214358    0.1000
66     H66    -7.9294  -12.5990    1.2270 H        1 ZINC000008214358    0.0900
67     H67   -10.4312  -12.4349    1.0764 H        1 ZINC000008214358    0.0900
68     H68   -10.3123  -12.7392   -0.6733 H        1 ZINC000008214358    0.1000
69     H69    -9.1985  -14.9078   -0.2205 H        1 ZINC000008214358    0.1300
70     H70    -9.3174  -14.6035    1.5292 H        1 ZINC000008214358    0.1300
71     H71   -12.7425  -15.2506   -0.7733 H        1 ZINC000008214358    0.1300
72     H72   -11.7680  -13.7875   -1.0526 H        1 ZINC000008214358    0.1300
73     H73   -11.1215  -15.3855   -1.4960 H        1 ZINC000008214358    0.1300
74     H74   -10.5621  -16.9551    0.1703 H        1 ZINC000008214358    0.1300
75     H75   -10.5829  -16.5036    1.8919 H        1 ZINC000008214358    0.1300
76     H76   -13.0586  -16.3797    1.8295 H        1 ZINC000008214358    0.1000
77     H77   -13.0378  -16.8312    0.1079 H        1 ZINC000008214358    0.1000
78     H78   -12.4338  -19.0804   -0.5791 H        1 ZINC000008214358    0.1300
79     H79   -12.3531  -21.4614    0.0403 H        1 ZINC000008214358    0.1300
80     H80   -12.3476  -22.1183    2.4123 H        1 ZINC000008214358    0.1300
81     H81   -12.3758  -22.0089    5.8076 H        1 ZINC000008214358    0.1100
82     H82   -13.2429  -22.3510    4.2912 H        1 ZINC000008214358    0.0600
83     H83   -11.4641  -22.2867    4.3043 H        1 ZINC000008214358    0.0600
84     H84   -12.4979  -18.0002    3.5456 H        1 ZINC000008214358    0.1300
85     H85   -10.8359   -9.5089   -0.1350 H        1 ZINC000008214358    0.1200
86     H86   -12.0054   -8.9301   -2.2222 H        1 ZINC000008214358    0.1300
87     H87   -11.0369   -9.5640   -4.3942 H        1 ZINC000008214358    0.1300
88     H88   -10.4974  -10.9493   -5.8693 H        1 ZINC000008214358    0.0600
89     H89    -9.6214   -9.4010   -5.9300 H        1 ZINC000008214358    0.0600
90     H90    -8.9740  -10.8238   -6.7813 H        1 ZINC000008214358    0.1100
91     H91    -7.7180  -11.3548   -2.3834 H        1 ZINC000008214358    0.1400
@<TRIPOS>BOND
1     1     2     1
2     1     40    1
3     1     41    1
4     1     42    1
5     2     3     1
6     2     43    1
7     2     44    1
8     3     4     1
9     3     45    1
10    3     46    1
11    4     5     1
12    4     47    1
13    4     48    1
14    5     6     1
15    5     49    1
16    5     50    1
17    6     7     1
18    6     51    1
19    6     52    1
20    7     8     1
21    7     53    1
22    7     54    1
23    8     9     1
24    8     55    1
25    8     56    1
26    9     10    1
27    9     57    1
28    9     58    1
29    10    11    1
30    10    59    1
31    10    60    1
32    11    12    1
33    11    61    1
34    11    62    1
35    12    13    1
36    12    63    1
37    12    64    1
38    13    14    1
39    13    16    1
40    13    32    1
41    14    15    3
42    16    17    1
43    16    65    1
44    16    66    1
45    17    18    1
46    17    67    1
47    17    68    1
48    18    19    1
49    18    69    1
50    18    70    1
51    19    20    1
52    19    21    1
53    19    22    1
54    21    71    1
55    21    72    1
56    21    73    1
57    22    23    1
58    22    74    1
59    22    75    1
60    23    24    1
61    23    76    1
62    23    77    1
63    24    31    ar
64    24    25    ar
65    25    26    ar
66    25    78    1
67    26    27    ar
68    26    79    1
69    27    28    ar
70    27    80    1
71    28    29    1
72    28    31    ar
73    29    30    1
74    30    81    1
75    30    82    1
76    30    83    1
77    31    84    1
78    32    39    ar
79    32    33    ar
80    33    34    ar
81    33    85    1
82    34    35    ar
83    34    86    1
84    35    36    ar
85    35    87    1
86    36    37    1
87    36    39    ar
88    37    38    1
89    38    88    1
90    38    89    1
91    38    90    1
92    39    91    1
@<TRIPOS>SUBSTRUCTURE
1   ZINC000008214358 1     RESIDUE    1   A     ZIN   1
