@<TRIPOS>MOLECULE
ZINC000004102171
74    75    1     0     0
SMALL
USER_CHARGES
@<TRIPOS>ATOM
1      C1     -0.0225    1.8097    0.0120 C.3      1 ZINC000004102171   -0.1200
2      S2      0.0021   -0.0041    0.0020 S.3      1 ZINC000004102171   -0.2700
3      C3     -1.7597   -0.4361    0.0165 C.3      1 ZINC000004102171   -0.0800
4      C4     -1.9115   -1.9586    0.0098 C.3      1 ZINC000004102171   -0.0900
5      C5     -3.3974   -2.3230    0.0220 C.3      1 ZINC000004102171    0.0800
6      H6     -3.8986   -1.8326   -0.8124 H        1 ZINC000004102171    0.0900
7      N7     -3.9987   -1.8791    1.2820 N.am     1 ZINC000004102171   -0.6900
8      C8     -5.3199   -1.6202    1.3438 C.2      1 ZINC000004102171    0.5100
9      O9     -6.0110   -1.7547    0.3563 O.2      1 ZINC000004102171   -0.5400
10     C10    -5.9385   -1.1636    2.6399 C.3      1 ZINC000004102171    0.1400
11     H11    -5.4722   -0.2305    2.9562 H        1 ZINC000004102171    0.1100
12     C12    -5.7206   -2.2320    3.7133 C.3      1 ZINC000004102171   -0.0900
13     C13    -6.2297   -1.7246    5.0378 C.ar     1 ZINC000004102171   -0.0600
14     C14    -5.3855   -1.0271    5.8814 C.ar     1 ZINC000004102171   -0.1000
15     C15    -5.8526   -0.5616    7.0964 C.ar     1 ZINC000004102171   -0.1100
16     C16    -7.1639   -0.7932    7.4675 C.ar     1 ZINC000004102171   -0.1200
17     C17    -8.0083   -1.4899    6.6234 C.ar     1 ZINC000004102171   -0.1100
18     C18    -7.5425   -1.9517    5.4066 C.ar     1 ZINC000004102171   -0.1100
19     N19    -7.3751   -0.9509    2.4472 N.am     1 ZINC000004102171   -0.7000
20     C20    -8.0434   -0.0979    3.2485 C.2      1 ZINC000004102171    0.5100
21     O21    -7.4556    0.4936    4.1291 O.2      1 ZINC000004102171   -0.5200
22     C22    -9.5212    0.1210    3.0502 C.3      1 ZINC000004102171    0.1000
23     N23   -10.0091    1.0855    4.0391 N.am     1 ZINC000004102171   -0.7100
24     C24   -11.3101    1.4373    4.0525 C.2      1 ZINC000004102171    0.5100
25     O25   -12.0769    0.9553    3.2459 O.2      1 ZINC000004102171   -0.5400
26     C26   -11.8119    2.4295    5.0697 C.3      1 ZINC000004102171    0.1000
27     N27   -13.2485    2.6422    4.8770 N.am     1 ZINC000004102171   -0.7100
28     C28   -13.9169    3.4952    5.6783 C.2      1 ZINC000004102171    0.4800
29     O29   -13.3290    4.0867    6.5589 O.2      1 ZINC000004102171   -0.5400
30     C30   -15.3947    3.7141    5.4800 C.3      1 ZINC000004102171    0.0800
31     H31   -15.8752    2.7630    5.2504 H        1 ZINC000004102171    0.1100
32     N32   -15.9761    4.2726    6.7080 N.3      1 ZINC000004102171   -0.8100
33     C33   -15.6149    4.6894    4.3220 C.3      1 ZINC000004102171   -0.0700
34     C34   -17.0908    4.8137    4.0436 C.ar     1 ZINC000004102171   -0.0800
35     C35   -17.6975    3.9587    3.1421 C.ar     1 ZINC000004102171   -0.1000
36     C36   -19.0502    4.0705    2.8853 C.ar     1 ZINC000004102171   -0.1500
37     C37   -19.8001    5.0414    3.5330 C.ar     1 ZINC000004102171    0.1000
38     O38   -21.1311    5.1531    3.2824 O.3      1 ZINC000004102171   -0.5000
39     C39   -19.1891    5.8978    4.4374 C.ar     1 ZINC000004102171   -0.1500
40     C40   -17.8370    5.7787    4.6944 C.ar     1 ZINC000004102171   -0.0700
41     C41    -3.5494   -3.8166   -0.1084 C.2      1 ZINC000004102171    0.4900
42     O42    -3.9399   -4.4748    0.8407 O.co2    1 ZINC000004102171   -0.6800
43     O43    -3.2817   -4.3669   -1.1630 O.co2    1 ZINC000004102171   -0.6900
44     H44     1.0001    2.1870    0.0043 H        1 ZINC000004102171    0.1000
45     H45    -0.5497    2.1708   -0.8711 H        1 ZINC000004102171    0.0700
46     H46    -0.5327    2.1613    0.9088 H        1 ZINC000004102171    0.0700
47     H47    -2.2264   -0.0284    0.9132 H        1 ZINC000004102171    0.0800
48     H48    -2.2434   -0.0189   -0.8667 H        1 ZINC000004102171    0.0800
49     H49    -1.4447   -2.3663   -0.8869 H        1 ZINC000004102171    0.0900
50     H50    -1.4277   -2.3759    0.8930 H        1 ZINC000004102171    0.0700
51     H51    -3.4459   -1.7716    2.0718 H        1 ZINC000004102171    0.3900
52     H52    -6.2612   -3.1379    3.4391 H        1 ZINC000004102171    0.0900
53     H53    -4.6565   -2.4542    3.7940 H        1 ZINC000004102171    0.0900
54     H54    -4.3610   -0.8461    5.5915 H        1 ZINC000004102171    0.1200
55     H55    -5.1928   -0.0173    7.7558 H        1 ZINC000004102171    0.1100
56     H56    -7.5285   -0.4302    8.4170 H        1 ZINC000004102171    0.1100
57     H57    -9.0327   -1.6712    6.9135 H        1 ZINC000004102171    0.1100
58     H58    -8.2022   -2.4960    4.7471 H        1 ZINC000004102171    0.1100
59     H59    -7.8452   -1.4240    1.7429 H        1 ZINC000004102171    0.4100
60     H60    -9.6999    0.5075    2.0468 H        1 ZINC000004102171    0.1000
61     H61   -10.0485   -0.8249    3.1744 H        1 ZINC000004102171    0.1000
62     H62    -9.3957    1.4710    4.6842 H        1 ZINC000004102171    0.4200
63     H63   -11.6332    2.0430    6.0731 H        1 ZINC000004102171    0.1000
64     H64   -11.2846    3.3754    4.9455 H        1 ZINC000004102171    0.1000
65     H65   -13.7186    2.1691    4.1727 H        1 ZINC000004102171    0.4100
66     H66   -15.9007    3.6195    7.4733 H        1 ZINC000004102171    0.3500
67     H67   -15.5469    5.1552    6.9423 H        1 ZINC000004102171    0.3500
68     H68   -15.2119    5.6666    4.5882 H        1 ZINC000004102171    0.0800
69     H69   -15.1074    4.3173    3.4320 H        1 ZINC000004102171    0.0800
70     H70   -17.1132    3.2030    2.6381 H        1 ZINC000004102171    0.1300
71     H71   -19.5235    3.4029    2.1805 H        1 ZINC000004102171    0.1300
72     H72   -21.6873    4.6170    3.8640 H        1 ZINC000004102171    0.3900
73     H73   -19.7707    6.6546    4.9427 H        1 ZINC000004102171    0.1300
74     H74   -17.3610    6.4449    5.3987 H        1 ZINC000004102171    0.1300
@<TRIPOS>BOND
1     1     2     1
2     1     44    1
3     1     45    1
4     1     46    1
5     2     3     1
6     3     4     1
7     3     47    1
8     3     48    1
9     4     5     1
10    4     49    1
11    4     50    1
12    5     6     1
13    5     7     1
14    5     41    1
15    7     8     am
16    7     51    1
17    8     9     2
18    8     10    1
19    10    11    1
20    10    12    1
21    10    19    1
22    12    13    1
23    12    52    1
24    12    53    1
25    13    18    ar
26    13    14    ar
27    14    15    ar
28    14    54    1
29    15    16    ar
30    15    55    1
31    16    17    ar
32    16    56    1
33    17    18    ar
34    17    57    1
35    18    58    1
36    19    20    am
37    19    59    1
38    20    21    2
39    20    22    1
40    22    23    1
41    22    60    1
42    22    61    1
43    23    24    am
44    23    62    1
45    24    25    2
46    24    26    1
47    26    27    1
48    26    63    1
49    26    64    1
50    27    28    am
51    27    65    1
52    28    29    2
53    28    30    1
54    30    31    1
55    30    32    1
56    30    33    1
57    32    66    1
58    32    67    1
59    33    34    1
60    33    68    1
61    33    69    1
62    34    40    ar
63    34    35    ar
64    35    36    ar
65    35    70    1
66    36    37    ar
67    36    71    1
68    37    38    1
69    37    39    ar
70    38    72    1
71    39    40    ar
72    39    73    1
73    40    74    1
74    41    42    ar
75    41    43    ar
@<TRIPOS>SUBSTRUCTURE
1   ZINC000004102171 1     RESIDUE    1   A     ZIN   1
