@<TRIPOS>MOLECULE
ZINC000000006094
39    42    1     0     0
SMALL
USER_CHARGES
@<TRIPOS>ATOM
1      O1      0.3001    0.2096    1.0413 O.2      1 ZINC000000006094   -0.5500
2      C2      0.2258    1.3888    0.7585 C.2      1 ZINC000000006094    0.5400
3      N3     -0.9117    2.0766    0.5531 N.pl3    1 ZINC000000006094   -0.7200
4      C4     -0.6534    3.3631    0.2572 C.2      1 ZINC000000006094    0.5400
5      O5     -1.4848    4.2177    0.0242 O.2      1 ZINC000000006094   -0.5500
6      C6      0.8086    3.5628    0.2637 C.ar     1 ZINC000000006094   -0.1600
7      C7      1.6353    4.6517    0.0352 C.ar     1 ZINC000000006094   -0.1000
8      C8      3.0151    4.5009    0.1216 C.ar     1 ZINC000000006094    0.1300
9      N9      3.8491    5.5946   -0.1073 N.pl3    1 ZINC000000006094   -0.6900
10     C10     3.3011    6.8695   -0.2659 C.ar     1 ZINC000000006094    0.1800
11     C11     2.2494    7.2810    0.5435 C.ar     1 ZINC000000006094   -0.1500
12     C12     1.7103    8.5424    0.3843 C.ar     1 ZINC000000006094   -0.0900
13     C13     2.2157    9.3955   -0.5797 C.ar     1 ZINC000000006094   -0.1500
14     C14     3.2621    8.9890   -1.3874 C.ar     1 ZINC000000006094   -0.1000
15     C15     3.8101    7.7313   -1.2296 C.ar     1 ZINC000000006094   -0.1600
16     C16     3.5689    3.2575    0.4373 C.ar     1 ZINC000000006094    0.1300
17     N17     4.9533    3.1150    0.5218 N.pl3    1 ZINC000000006094   -0.6800
18     C18     5.5153    1.8491    0.7023 C.ar     1 ZINC000000006094    0.1800
19     C19     4.9910    0.7521    0.0300 C.ar     1 ZINC000000006094   -0.1500
20     C20     5.5495   -0.4979    0.2104 C.ar     1 ZINC000000006094   -0.0900
21     C21     6.6291   -0.6586    1.0595 C.ar     1 ZINC000000006094   -0.1500
22     C22     7.1533    0.4310    1.7307 C.ar     1 ZINC000000006094   -0.1000
23     C23     6.6037    1.6850    1.5502 C.ar     1 ZINC000000006094   -0.1600
24     C24     2.7443    2.1616    0.6680 C.ar     1 ZINC000000006094   -0.1000
25     C25     1.3681    2.3074    0.5891 C.ar     1 ZINC000000006094   -0.1600
26     H26     1.2095    5.6137   -0.2093 H        1 ZINC000000006094    0.1400
27     H27     4.8098    5.4701   -0.1564 H        1 ZINC000000006094    0.4000
28     H28     1.8538    6.6151    1.2961 H        1 ZINC000000006094    0.1300
29     H29     0.8929    8.8629    1.0131 H        1 ZINC000000006094    0.1300
30     H30     1.7920   10.3813   -0.7024 H        1 ZINC000000006094    0.1200
31     H31     3.6539    9.6575   -2.1398 H        1 ZINC000000006094    0.1200
32     H32     4.6275    7.4146   -1.8604 H        1 ZINC000000006094    0.1200
33     H33     5.5261    3.8950    0.4553 H        1 ZINC000000006094    0.4000
34     H34     4.1474    0.8768   -0.6328 H        1 ZINC000000006094    0.1300
35     H35     5.1424   -1.3510   -0.3119 H        1 ZINC000000006094    0.1300
36     H36     7.0637   -1.6374    1.1990 H        1 ZINC000000006094    0.1200
37     H37     7.9961    0.3018    2.3936 H        1 ZINC000000006094    0.1200
38     H38     7.0138    2.5355    2.0744 H        1 ZINC000000006094    0.1200
39     H39     3.1745    1.2015    0.9123 H        1 ZINC000000006094    0.1400
@<TRIPOS>BOND
1     1     2     2
2     2     25    1
3     2     3     1
4     3     4     1
5     4     5     2
6     4     6     1
7     6     25    ar
8     6     7     ar
9     7     8     ar
10    7     26    1
11    8     9     1
12    8     16    ar
13    9     10    1
14    9     27    1
15    10    15    ar
16    10    11    ar
17    11    12    ar
18    11    28    1
19    12    13    ar
20    12    29    1
21    13    14    ar
22    13    30    1
23    14    15    ar
24    14    31    1
25    15    32    1
26    16    17    1
27    16    24    ar
28    17    18    1
29    17    33    1
30    18    23    ar
31    18    19    ar
32    19    20    ar
33    19    34    1
34    20    21    ar
35    20    35    1
36    21    22    ar
37    21    36    1
38    22    23    ar
39    22    37    1
40    23    38    1
41    24    25    ar
42    24    39    1
@<TRIPOS>SUBSTRUCTURE
1   ZINC000000006094 1     RESIDUE    1   A     ZIN   1
