@<TRIPOS>MOLECULE
ZINC000001532934
60    63    1     0     0
SMALL
USER_CHARGES
@<TRIPOS>ATOM
1      C1      2.1456   -9.9035   -4.3257 C.3      1 ZINC000001532934   -0.1500
2      C2      1.4528   -8.9697   -3.3313 C.3      1 ZINC000001532934    0.0400
3      O3      0.0959   -8.7692   -3.7321 O.3      1 ZINC000001532934   -0.3700
4      C4     -0.6448   -7.9073   -2.8657 C.3      1 ZINC000001532934    0.2700
5      N5     -0.3255   -6.5116   -3.1758 N.am     1 ZINC000001532934   -0.5400
6      C6      0.8786   -5.9867   -2.7828 C.2      1 ZINC000001532934    0.1300
7      C7      1.1718   -4.6993   -3.0695 C.2      1 ZINC000001532934   -0.0600
8      F8      2.3536   -4.1655   -2.6905 F        1 ZINC000001532934   -0.0900
9      C9      0.2234   -3.9171   -3.7732 C.2      1 ZINC000001532934    0.5300
10     O10     0.4651   -2.7547   -4.0433 O.2      1 ZINC000001532934   -0.4300
11     N11    -0.9491   -4.4714   -4.1416 N.am     1 ZINC000001532934   -0.5300
12     C12    -1.8578   -3.7352   -4.8115 C.2      1 ZINC000001532934    0.5700
13     O13    -1.6595   -2.5520   -5.0024 O.2      1 ZINC000001532934   -0.4100
14     C14    -3.0950   -4.3671   -5.3137 C.ar     1 ZINC000001532934   -0.1100
15     C15    -4.2288   -4.4316   -4.4992 C.ar     1 ZINC000001532934   -0.0300
16     C16    -5.3863   -5.0216   -4.9673 C.ar     1 ZINC000001532934   -0.1200
17     C17    -5.4322   -5.5517   -6.2411 C.ar     1 ZINC000001532934   -0.0500
18     C18    -4.3057   -5.4942   -7.0666 C.ar     1 ZINC000001532934   -0.1100
19     C19    -4.3569   -6.0615   -8.4295 C.2      1 ZINC000001532934    0.4800
20     O20    -3.3771   -6.0108   -9.1457 O.2      1 ZINC000001532934   -0.3800
21     O21    -5.4908   -6.6356   -8.8784 O.3      1 ZINC000001532934   -0.2700
22     C22    -5.4703   -7.1363  -10.1378 C.ar     1 ZINC000001532934    0.3800
23     N23    -4.3668   -7.0512  -10.8596 N.ar     1 ZINC000001532934   -0.4900
24     C24    -4.3031   -7.5272  -12.0930 C.ar     1 ZINC000001532934    0.3600
25     O25    -3.1468   -7.4150  -12.7925 O.3      1 ZINC000001532934   -0.2700
26     C26    -2.1128   -6.8122  -12.1728 C.2      1 ZINC000001532934    0.4800
27     O27    -2.2424   -6.3984  -11.0381 O.2      1 ZINC000001532934   -0.3900
28     C28    -0.8221   -6.6546  -12.8734 C.ar     1 ZINC000001532934   -0.1200
29     C29    -0.6714   -7.1239  -14.1800 C.ar     1 ZINC000001532934   -0.0700
30     C30     0.5366   -6.9731  -14.8285 C.ar     1 ZINC000001532934   -0.1300
31     C31     1.5976   -6.3584  -14.1875 C.ar     1 ZINC000001532934   -0.0800
32     C32     1.4554   -5.8915  -12.8927 C.ar     1 ZINC000001532934   -0.1300
33     C33     0.2513   -6.0306  -12.2344 C.ar     1 ZINC000001532934   -0.0500
34     C34    -5.4027   -8.1409  -12.6828 C.ar     1 ZINC000001532934   -0.1900
35     C35    -6.5795   -8.2544  -11.9694 C.ar     1 ZINC000001532934    0.0300
36     C36    -6.6192   -7.7465  -10.6637 C.ar     1 ZINC000001532934   -0.1000
37     C37    -7.8156   -7.8402   -9.8825 C.1      1 ZINC000001532934    0.2600
38     N38    -8.7648   -7.9145   -9.2628 N.1      1 ZINC000001532934   -0.4000
39     C39    -3.1361   -4.8952   -6.6030 C.ar     1 ZINC000001532934   -0.0100
40     C40    -1.2141   -5.7579   -3.8484 C.2      1 ZINC000001532934    0.7000
41     O41    -2.2757   -6.2432   -4.1878 O.2      1 ZINC000001532934   -0.4800
42     H42     1.6273  -10.8621   -4.3456 H        1 ZINC000001532934    0.0700
43     H43     2.1226   -9.4572   -5.3199 H        1 ZINC000001532934    0.0700
44     H44     3.1806  -10.0564   -4.0200 H        1 ZINC000001532934    0.0800
45     H45     1.4758   -9.4159   -2.3371 H        1 ZINC000001532934    0.0600
46     H46     1.9711   -8.0110   -3.3113 H        1 ZINC000001532934    0.0500
47     H47    -1.7118   -8.0766   -3.0102 H        1 ZINC000001532934    0.1500
48     H48    -0.3804   -8.1190   -1.8297 H        1 ZINC000001532934    0.1000
49     H49     1.5887   -6.5989   -2.2468 H        1 ZINC000001532934    0.1900
50     H50    -4.1996   -4.0195   -3.5014 H        1 ZINC000001532934    0.1300
51     H51    -6.2596   -5.0687   -4.3336 H        1 ZINC000001532934    0.1400
52     H52    -6.3406   -6.0123   -6.6005 H        1 ZINC000001532934    0.1400
53     H53    -1.4987   -7.6042  -14.6813 H        1 ZINC000001532934    0.1400
54     H54     0.6546   -7.3359  -15.8389 H        1 ZINC000001532934    0.1300
55     H55     2.5413   -6.2429  -14.6999 H        1 ZINC000001532934    0.1300
56     H56     2.2879   -5.4133  -12.3980 H        1 ZINC000001532934    0.1300
57     H57     0.1415   -5.6653  -11.2240 H        1 ZINC000001532934    0.1400
58     H58    -5.3370   -8.5250  -13.6901 H        1 ZINC000001532934    0.1600
59     H59    -7.4473   -8.7265  -12.4056 H        1 ZINC000001532934    0.1700
60     H60    -2.2628   -4.8481   -7.2367 H        1 ZINC000001532934    0.1400
@<TRIPOS>BOND
1     1     2     1
2     1     42    1
3     1     43    1
4     1     44    1
5     2     3     1
6     2     45    1
7     2     46    1
8     3     4     1
9     4     5     1
10    4     47    1
11    4     48    1
12    5     40    am
13    5     6     1
14    6     7     2
15    6     49    1
16    7     8     1
17    7     9     1
18    9     10    2
19    9     11    am
20    11    12    am
21    11    40    am
22    12    13    2
23    12    14    1
24    14    39    ar
25    14    15    ar
26    15    16    ar
27    15    50    1
28    16    17    ar
29    16    51    1
30    17    18    ar
31    17    52    1
32    18    19    1
33    18    39    ar
34    19    20    2
35    19    21    1
36    21    22    1
37    22    36    ar
38    22    23    ar
39    23    24    ar
40    24    25    1
41    24    34    ar
42    25    26    1
43    26    27    2
44    26    28    1
45    28    33    ar
46    28    29    ar
47    29    30    ar
48    29    53    1
49    30    31    ar
50    30    54    1
51    31    32    ar
52    31    55    1
53    32    33    ar
54    32    56    1
55    33    57    1
56    34    35    ar
57    34    58    1
58    35    36    ar
59    35    59    1
60    36    37    1
61    37    38    3
62    39    60    1
63    40    41    2
@<TRIPOS>SUBSTRUCTURE
1   ZINC000001532934 1     RESIDUE    1   A     ZIN   1
