@<TRIPOS>MOLECULE
ZINC000001490807
71    75    1     0     0
SMALL
USER_CHARGES
@<TRIPOS>ATOM
1      C1     -0.0242    1.8951    0.2323 C.3      1 ZINC000001490807    0.0200
2      O2     -0.0604    0.4684    0.3039 O.3      1 ZINC000001490807   -0.3000
3      C3      0.4985   -0.2147   -0.7269 C.ar     1 ZINC000001490807    0.1600
4      C4      0.4961   -1.6044   -0.7300 C.ar     1 ZINC000001490807   -0.1200
5      C5      1.0587   -2.3075   -1.7676 C.ar     1 ZINC000001490807    0.0500
6      C6      1.0429   -3.8143   -1.7468 C.3      1 ZINC000001490807   -0.0900
7      C7      1.7901   -4.3150   -0.5091 C.3      1 ZINC000001490807   -0.1400
8      C8     -0.4044   -4.3085   -1.7035 C.3      1 ZINC000001490807   -0.1400
9      C9      1.6491   -1.6296   -2.8497 C.ar     1 ZINC000001490807   -0.1600
10     C10     2.3012   -2.1603   -4.0517 C.2      1 ZINC000001490807    0.5500
11     O11     2.3965   -3.3586   -4.2344 O.2      1 ZINC000001490807   -0.4600
12     N12     2.7884   -1.2855   -4.9430 N.am     1 ZINC000001490807   -0.9300
13     C13     3.4711   -1.5953   -6.2017 C.3      1 ZINC000001490807    0.3100
14     O14     2.5091   -1.6925   -7.2539 O.3      1 ZINC000001490807   -0.2800
15     C15     2.0645   -0.5308   -7.7897 C.2      1 ZINC000001490807    0.3800
16     C16     1.1237   -0.5507   -8.8132 C.2      1 ZINC000001490807   -0.3400
17     C17     0.6830    0.6602   -9.3461 C.2      1 ZINC000001490807    0.5300
18     O18    -0.1431    0.6765  -10.2458 O.2      1 ZINC000001490807   -0.5300
19     N19     1.1814    1.8143   -8.8539 N.am     1 ZINC000001490807   -0.4100
20     C20     0.7567    3.0037   -9.3682 C.2      1 ZINC000001490807    0.0600
21     C21     1.2380    4.1745   -8.8960 C.2      1 ZINC000001490807   -0.1300
22     C22     2.1870    4.1827   -7.8640 C.2      1 ZINC000001490807   -0.1600
23     C23     2.6208    2.9985   -7.3392 C.2      1 ZINC000001490807    0.1300
24     O24     3.5407    2.9874   -6.3386 O.3      1 ZINC000001490807   -0.2600
25     C25     4.0153    4.2547   -5.8795 C.3      1 ZINC000001490807    0.0600
26     C26     5.0362    4.0419   -4.7600 C.3      1 ZINC000001490807    0.0500
27     N27     6.2037    3.3261   -5.2915 N.3      1 ZINC000001490807   -0.5200
28     C28     7.0927    2.8906   -4.2069 C.3      1 ZINC000001490807    0.0600
29     C29     8.2170    2.0267   -4.7828 C.3      1 ZINC000001490807   -0.1200
30     C30     9.0017    2.8407   -5.8153 C.3      1 ZINC000001490807   -0.1200
31     C31     8.0440    3.3230   -6.9083 C.3      1 ZINC000001490807   -0.1200
32     C32     6.9247    4.1493   -6.2708 C.3      1 ZINC000001490807    0.0500
33     C33     2.1046    1.7855   -7.8468 C.2      1 ZINC000001490807    0.4400
34     N34     2.5222    0.6306   -7.3346 N.2      1 ZINC000001490807   -0.5700
35     S35     2.4564    0.2315   -4.3241 S.o2     1 ZINC000001490807    2.6600
36     O36     3.6959    0.8299   -3.9706 O.2      1 ZINC000001490807   -0.9000
37     O37     1.4921    0.8382   -5.1734 O.2      1 ZINC000001490807   -0.9000
38     C38     1.6380   -0.2272   -2.8216 C.ar     1 ZINC000001490807   -0.5800
39     C39     1.0749    0.4716   -1.7944 C.ar     1 ZINC000001490807   -0.0900
40     H40     1.0120    2.2304    0.1864 H        1 ZINC000001490807    0.0600
41     H41    -0.5535    2.2277   -0.6606 H        1 ZINC000001490807    0.0600
42     H42    -0.5033    2.3156    1.1164 H        1 ZINC000001490807    0.1100
43     H43     0.0465   -2.1386    0.0939 H        1 ZINC000001490807    0.1500
44     H44     1.5302   -4.1952   -2.6442 H        1 ZINC000001490807    0.1200
45     H45     1.3027   -3.9341    0.3884 H        1 ZINC000001490807    0.0600
46     H46     1.7786   -5.4049   -0.4940 H        1 ZINC000001490807    0.0700
47     H47     2.8212   -3.9629   -0.5399 H        1 ZINC000001490807    0.0600
48     H48    -0.9367   -3.9518   -2.5852 H        1 ZINC000001490807    0.0600
49     H49    -0.4159   -5.3984   -1.6884 H        1 ZINC000001490807    0.0700
50     H50    -0.8918   -3.9276   -0.8060 H        1 ZINC000001490807    0.0600
51     H51     4.1838   -0.8037   -6.4329 H        1 ZINC000001490807    0.1200
52     H52     4.0001   -2.5434   -6.1043 H        1 ZINC000001490807    0.1500
53     H53     0.7411   -1.4879   -9.1893 H        1 ZINC000001490807    0.1700
54     H54     0.0262    3.0099  -10.1636 H        1 ZINC000001490807    0.1900
55     H55     0.8909    5.1072   -9.3152 H        1 ZINC000001490807    0.1600
56     H56     2.5724    5.1185   -7.4869 H        1 ZINC000001490807    0.1500
57     H57     4.4873    4.7868   -6.7054 H        1 ZINC000001490807    0.0700
58     H58     3.1778    4.8408   -5.5009 H        1 ZINC000001490807    0.0700
59     H59     5.3508    5.0085   -4.3666 H        1 ZINC000001490807    0.0600
60     H60     4.5827    3.4548   -3.9614 H        1 ZINC000001490807    0.1000
61     H61     7.5212    3.7642   -3.7156 H        1 ZINC000001490807    0.0300
62     H62     6.5231    2.3093   -3.4817 H        1 ZINC000001490807    0.0800
63     H63     8.8854    1.7165   -3.9796 H        1 ZINC000001490807    0.0700
64     H64     7.7899    1.1458   -5.2621 H        1 ZINC000001490807    0.0700
65     H65     9.4612    3.7007   -5.3282 H        1 ZINC000001490807    0.0600
66     H66     9.7763    2.2156   -6.2595 H        1 ZINC000001490807    0.0600
67     H67     8.5888    3.9389   -7.6237 H        1 ZINC000001490807    0.0600
68     H68     7.6142    2.4625   -7.4211 H        1 ZINC000001490807    0.0700
69     H69     6.2331    4.4822   -7.0447 H        1 ZINC000001490807    0.0700
70     H70     7.3540    5.0170   -5.7699 H        1 ZINC000001490807    0.0300
71     H71     1.0779    1.5515   -1.8070 H        1 ZINC000001490807    0.1500
@<TRIPOS>BOND
1     1     2     1
2     1     40    1
3     1     41    1
4     1     42    1
5     2     3     1
6     3     39    ar
7     3     4     ar
8     4     5     ar
9     4     43    1
10    5     6     1
11    5     9     ar
12    6     7     1
13    6     8     1
14    6     44    1
15    7     45    1
16    7     46    1
17    7     47    1
18    8     48    1
19    8     49    1
20    8     50    1
21    9     38    ar
22    9     10    1
23    10    11    2
24    10    12    am
25    12    13    1
26    12    35    am
27    13    14    1
28    13    51    1
29    13    52    1
30    14    15    1
31    15    34    1
32    15    16    2
33    16    17    1
34    16    53    1
35    17    18    2
36    17    19    am
37    19    33    1
38    19    20    1
39    20    21    2
40    20    54    1
41    21    22    1
42    21    55    1
43    22    23    2
44    22    56    1
45    23    24    1
46    23    33    1
47    24    25    1
48    25    26    1
49    25    57    1
50    25    58    1
51    26    27    1
52    26    59    1
53    26    60    1
54    27    32    1
55    27    28    1
56    28    29    1
57    28    61    1
58    28    62    1
59    29    30    1
60    29    63    1
61    29    64    1
62    30    31    1
63    30    65    1
64    30    66    1
65    31    32    1
66    31    67    1
67    31    68    1
68    32    69    1
69    32    70    1
70    33    34    2
71    35    36    2
72    35    37    2
73    35    38    1
74    38    39    ar
75    39    71    1
@<TRIPOS>SUBSTRUCTURE
1   ZINC000001490807 1     RESIDUE    1   A     ZIN   1
