@<TRIPOS>MOLECULE
ZINC000003797383
  36   38    0    0    0
SMALL
USER_CHARGES
NO_NAME
@<TRIPOS>ATOM
    1 O1       -0.0189    -0.0033     0.0320 O.co2  1 <0>      -0.6800
    2 C2       -0.0303     1.2209     0.0313 C.2    1 <0>       0.5400
    3 O3        1.0242     1.8429     0.0214 O.co2  1 <0>      -0.6400
    4 C4       -1.3074     1.9425     0.0361 C.2    1 <0>       0.0900
    5 C5       -1.4538     3.3255     0.0302 C.2    1 <0>      -0.1500
    6 C6       -0.3793     4.3245     0.0182 C.2    1 <0>       0.0300
    7 C7        0.6329     4.2383     0.9084 C.2    1 <0>      -0.1800
    8 C8        1.7056     5.2356     0.8964 C.2    1 <0>       0.5600
    9 O9        1.6849     6.1418     0.0843 O.2    1 <0>      -0.5400
   10 N10       2.7156     5.1497     1.7846 N.am   1 <0>      -0.6700
   11 C11       3.7883     6.0432     1.7120 C.ar   1 <0>       0.1600
   12 C12       5.0721     5.6166     2.0272 C.ar   1 <0>      -0.1500
   13 C13       6.1296     6.5019     1.9544 C.ar   1 <0>      -0.1000
   14 C14       5.9114     7.8118     1.5687 C.ar   1 <0>      -0.1500
   15 C15       4.6345     8.2399     1.2546 C.ar   1 <0>      -0.1000
   16 C16       3.5736     7.3581     1.3189 C.ar   1 <0>      -0.1200
   17 C17      -2.8998     3.5861     0.0379 C.ar   1 <0>      -0.0800
   18 C18      -3.6684     4.7531     0.0374 C.ar   1 <0>       0.0200
   19 Cl19     -2.8947     6.3070     0.0243 Cl     1 <0>      -0.0600
   20 C20      -5.0426     4.6645     0.0467 C.ar   1 <0>      -0.1300
   21 C21      -5.6653     3.4222     0.0572 C.ar   1 <0>      -0.0200
   22 Cl22     -7.3989     3.3304     0.0689 Cl     1 <0>      -0.0700
   23 C23      -4.9212     2.2625     0.0579 C.ar   1 <0>      -0.1100
   24 C24      -3.5296     2.3277     0.0480 C.ar   1 <0>       0.1100
   25 N25      -2.5515     1.3618     0.0412 N.pl3  1 <0>      -0.5500
   26 H26      -0.3976     5.1287    -0.7024 H      1 <0>       0.1300
   27 H27       0.6513     3.4341     1.6290 H      1 <0>       0.1300
   28 H28       2.6982     4.4678     2.4743 H      1 <0>       0.4100
   29 H29       5.2431     4.5939     2.3292 H      1 <0>       0.1300
   30 H30       7.1280     6.1709     2.1993 H      1 <0>       0.1200
   31 H31       6.7401     8.5022     1.5129 H      1 <0>       0.1200
   32 H32       4.4675     9.2637     0.9541 H      1 <0>       0.1200
   33 H33       2.5767     7.6929     1.0731 H      1 <0>       0.1400
   34 H34      -5.6392     5.5647     0.0463 H      1 <0>       0.1400
   35 H35      -5.4168     1.3029     0.0664 H      1 <0>       0.1400
   36 H36      -2.7168     0.4059     0.0417 H      1 <0>       0.4300
@<TRIPOS>BOND
   1    1    2 ar
   2    2    3 ar
   3    2    4 1
   4    4   25 1
   5    4    5 2
   6    5    6 1
   7    5   17 1
   8    6    7 2
   9    6   26 1
  10    7    8 1
  11    7   27 1
  12    8    9 2
  13    8   10 am
  14   10   11 1
  15   10   28 1
  16   11   16 ar
  17   11   12 ar
  18   12   13 ar
  19   12   29 1
  20   13   14 ar
  21   13   30 1
  22   14   15 ar
  23   14   31 1
  24   15   16 ar
  25   15   32 1
  26   16   33 1
  27   17   24 ar
  28   17   18 ar
  29   18   19 1
  30   18   20 ar
  31   20   21 ar
  32   20   34 1
  33   21   22 1
  34   21   23 ar
  35   23   24 ar
  36   23   35 1
  37   24   25 1
  38   25   36 1
