@<TRIPOS>MOLECULE
ZINC000003795847
  45   48    0    0    0
SMALL
USER_CHARGES
NO_NAME
@<TRIPOS>ATOM
    1 C1       -0.0178     1.4648     0.0101 C.3    1 <0>       0.0200
    2 N2        0.0021    -0.0041     0.0020 N.3    1 <0>      -0.5400
    3 C3        0.5938    -0.5155    -1.2408 C.3    1 <0>       0.0500
    4 C4        0.4661    -2.0401    -1.2786 C.3    1 <0>      -0.1200
    5 C5        1.1844    -2.6377    -0.0656 C.3    1 <0>      -0.1000
    6 C6        0.5815    -2.0522     1.2144 C.3    1 <0>      -0.1000
    7 H7       -0.4703    -2.3301     1.2814 H      1 <0>       0.1300
    8 C8        1.3216    -2.5912     2.4114 C.2    1 <0>       0.5400
    9 O9        2.2408    -3.3672     2.2571 O.2    1 <0>      -0.5000
   10 N10       0.9619    -2.2109     3.6534 N.am   1 <0>      -0.5200
   11 C11       1.6488    -2.7030     4.7730 C.ar   1 <0>       0.1100
   12 C12       1.6482    -4.0689     5.0192 C.ar   1 <0>      -0.0700
   13 C13       2.2892    -4.5736     6.1351 C.ar   1 <0>      -0.1200
   14 C14       2.9303    -3.7170     7.0101 C.ar   1 <0>      -0.0900
   15 C15       2.9465    -2.3579     6.7642 C.ar   1 <0>      -0.1300
   16 C16       2.3194    -1.8421     5.6349 C.ar   1 <0>       0.1400
   17 N17       2.4220    -0.4787     5.3704 N.am   1 <0>      -0.6500
   18 C18       1.4785     0.3107     4.8823 C.2    1 <0>       0.5700
   19 O19       1.7567     1.4860     4.7441 O.2    1 <0>      -0.5200
   20 C20       0.1277    -0.1058     4.4939 C.ar   1 <0>      -0.1900
   21 C21      -0.9677     0.7215     4.7673 C.ar   1 <0>       0.0000
   22 C22      -2.2219     0.3126     4.3480 C.ar   1 <0>      -0.1800
   23 C23      -2.3554    -0.8868     3.6724 C.ar   1 <0>       0.1600
   24 N24      -1.3114    -1.6580     3.4381 N.ar   1 <0>      -0.4900
   25 C25      -0.0906    -1.3217     3.8396 C.ar   1 <0>       0.3800
   26 C26       0.7059    -0.5273     1.1798 C.3    1 <0>       0.0600
   27 H27       1.0047     1.8421     0.0024 H      1 <0>       0.0300
   28 H28      -0.5450     1.8259    -0.8730 H      1 <0>       0.0700
   29 H29      -0.5280     1.8163     0.9069 H      1 <0>       0.0700
   30 H30       0.0712    -0.0860    -2.0955 H      1 <0>       0.0800
   31 H31       1.6471    -0.2382    -1.2826 H      1 <0>       0.0400
   32 H32      -0.5876    -2.3178    -1.2508 H      1 <0>       0.0800
   33 H33       0.9193    -2.4207    -2.1939 H      1 <0>       0.0800
   34 H34       1.0591    -3.7205    -0.0650 H      1 <0>       0.0800
   35 H35       2.2455    -2.3930    -0.1135 H      1 <0>       0.0700
   36 H36       1.1455    -4.7390     4.3376 H      1 <0>       0.1300
   37 H37       2.2888    -5.6371     6.3233 H      1 <0>       0.1400
   38 H38       3.4195    -4.1114     7.8884 H      1 <0>       0.1400
   39 H39       3.4482    -1.6929     7.4517 H      1 <0>       0.1400
   40 H40       3.2765    -0.0630     5.5652 H      1 <0>       0.4200
   41 H41      -0.8376     1.6560     5.2929 H      1 <0>       0.1500
   42 H42      -3.0890     0.9251     4.5464 H      1 <0>       0.1500
   43 H43      -3.3316    -1.1971     3.3303 H      1 <0>       0.1700
   44 H44       1.7587    -0.2499     1.1267 H      1 <0>       0.0400
   45 H45       0.2647    -0.1064     2.0833 H      1 <0>       0.0700
@<TRIPOS>BOND
   1    1    2 1
   2    1   27 1
   3    1   28 1
   4    1   29 1
   5    2   26 1
   6    2    3 1
   7    3    4 1
   8    3   30 1
   9    3   31 1
  10    4    5 1
  11    4   32 1
  12    4   33 1
  13    5    6 1
  14    5   34 1
  15    5   35 1
  16    6    7 1
  17    6    8 1
  18    6   26 1
  19    8    9 2
  20    8   10 am
  21   10   25 1
  22   10   11 1
  23   11   16 ar
  24   11   12 ar
  25   12   13 ar
  26   12   36 1
  27   13   14 ar
  28   13   37 1
  29   14   15 ar
  30   14   38 1
  31   15   16 ar
  32   15   39 1
  33   16   17 1
  34   17   18 am
  35   17   40 1
  36   18   19 2
  37   18   20 1
  38   20   25 ar
  39   20   21 ar
  40   21   22 ar
  41   21   41 1
  42   22   23 ar
  43   22   42 1
  44   23   24 ar
  45   23   43 1
  46   24   25 ar
  47   26   44 1
  48   26   45 1
