@<TRIPOS>MOLECULE
ZINC000033963533
18    18    1     0     0
SMALL
USER_CHARGES
@<TRIPOS>ATOM
1      N1     -0.0162    1.3436    0.0094 N.am     1 ZINC000033963533   -0.8400
2      C2      0.0021   -0.0041    0.0020 C.2      1 ZINC000033963533    0.5700
3      O3      1.0629   -0.5975   -0.0113 O.2      1 ZINC000033963533   -0.5200
4      C4     -1.2678   -0.7605    0.0101 C.ar     1 ZINC000033963533   -0.1200
5      C5     -2.4876   -0.0820    0.0196 C.ar     1 ZINC000033963533   -0.0300
6      C6     -3.6693   -0.7937    0.0271 C.ar     1 ZINC000033963533   -0.0900
7      C7     -3.6471   -2.1776    0.0253 C.ar     1 ZINC000033963533   -0.0500
8      I8     -5.4469   -3.2497    0.0368 I        1 ZINC000033963533    0.0500
9      C9     -2.4404   -2.8565    0.0154 C.ar     1 ZINC000033963533   -0.0300
10     N10    -2.4257   -4.3366    0.0130 N.pl3    1 ZINC000033963533    0.0200
11     O11    -1.3649   -4.9351    0.0043 O.2      1 ZINC000033963533   -0.1400
12     O12    -3.4743   -4.9561    0.0197 O.2      1 ZINC000033963533   -0.1300
13     C13    -1.2522   -2.1566    0.0024 C.ar     1 ZINC000033963533    0.0100
14     H14     0.8172    1.8399    0.0041 H        1 ZINC000033963533    0.4100
15     H15    -0.8627    1.8171    0.0160 H        1 ZINC000033963533    0.4000
16     H16    -2.5062    0.9978    0.0214 H        1 ZINC000033963533    0.1600
17     H17    -4.6137   -0.2699    0.0349 H        1 ZINC000033963533    0.1600
18     H18    -0.3116   -2.6872   -0.0057 H        1 ZINC000033963533    0.1700
@<TRIPOS>BOND
1     1     2     am
2     1     14    1
3     1     15    1
4     2     3     2
5     2     4     1
6     4     13    ar
7     4     5     ar
8     5     6     ar
9     5     16    1
10    6     7     ar
11    6     17    1
12    7     8     1
13    7     9     ar
14    9     10    1
15    9     13    ar
16    10    11    2
17    10    12    2
18    13    18    1
@<TRIPOS>SUBSTRUCTURE
1   ZINC000033963533 1     RESIDUE    1   A     ZIN   1
