@<TRIPOS>MOLECULE
ZINC000068250462
60    65    1     0     0
SMALL
USER_CHARGES
@<TRIPOS>ATOM
1      C1     -0.6149   -1.9433    2.5890 C.3      1 ZINC000068250462   -0.1100
2      C2     -0.4290   -1.2592    1.2591 C.ar     1 ZINC000068250462   -0.0800
3      C3     -0.8338   -1.8865    0.0979 C.ar     1 ZINC000068250462   -0.0700
4      C4     -0.6629   -1.2555   -1.1278 C.ar     1 ZINC000068250462    0.1300
5      N5     -1.0734   -1.8907   -2.3056 N.pl3    1 ZINC000068250462   -0.6400
6      C6     -0.9371   -3.2575   -2.4359 C.ar     1 ZINC000068250462    0.4600
7      C7     -1.3946   -3.9269   -3.5973 C.ar     1 ZINC000068250462   -0.1600
8      C8     -2.0001   -3.2438   -4.6571 C.ar     1 ZINC000068250462   -0.1100
9      C9     -2.4251   -3.9514   -5.7629 C.ar     1 ZINC000068250462    0.1600
10     N10    -3.0315   -3.2755   -6.8277 N.pl3    1 ZINC000068250462   -0.6300
11     C11    -2.8303   -3.7048   -8.1182 C.2      1 ZINC000068250462    0.5300
12     N12    -3.4131   -3.1639   -9.1435 N.2      1 ZINC000068250462   -0.5800
13     C13    -2.9604   -3.8650  -10.3609 C.3      1 ZINC000068250462    0.0600
14     C14    -4.0344   -4.8299  -10.8672 C.3      1 ZINC000068250462   -0.1400
15     C15    -2.5677   -2.8671  -11.4521 C.3      1 ZINC000068250462   -0.1300
16     C16    -1.7218   -4.6375   -9.8451 C.3      1 ZINC000068250462    0.0300
17     O17    -2.0050   -4.7225   -8.4349 O.3      1 ZINC000068250462   -0.3500
18     C18    -2.2550   -5.3377   -5.8292 C.ar     1 ZINC000068250462   -0.0900
19     C19    -1.6679   -6.0211   -4.8082 C.ar     1 ZINC000068250462   -0.0800
20     C20    -1.2253   -5.3312   -3.6710 C.ar     1 ZINC000068250462    0.1700
21     N21    -0.6412   -5.9639   -2.6419 N.ar     1 ZINC000068250462   -0.5400
22     C22    -0.2366   -5.2919   -1.5906 C.ar     1 ZINC000068250462    0.3400
23     N23    -0.3689   -3.9797   -1.4794 N.ar     1 ZINC000068250462   -0.5800
24     C24    -0.0848    0.0059   -1.1840 C.ar     1 ZINC000068250462   -0.1100
25     C25     0.3196    0.6321   -0.0215 C.ar     1 ZINC000068250462   -0.1700
26     C26     0.1437    0.0036    1.2027 C.ar     1 ZINC000068250462    0.1000
27     O27     0.5421    0.6207    2.3467 O.3      1 ZINC000068250462   -0.2500
28     C28     1.2136    1.7949    2.2367 C.2      1 ZINC000068250462    0.1500
29     C29     0.5619    2.9825    2.4295 C.2      1 ZINC000068250462   -0.1100
30     C30     1.2779    4.1844    2.3107 C.2      1 ZINC000068250462    0.2900
31     N31     0.9288    5.4609    2.4378 N.2      1 ZINC000068250462   -0.5400
32     C32     1.9841    6.2348    2.2258 C.2      1 ZINC000068250462    0.2400
33     N33     3.0309    5.4905    1.9593 N.2      1 ZINC000068250462   -0.3400
34     N34     2.6100    4.1537    2.0057 N.pl3    1 ZINC000068250462   -0.2900
35     C35     3.2521    2.9700    1.8148 C.2      1 ZINC000068250462    0.1400
36     C36     2.5876    1.8004    1.9289 C.2      1 ZINC000068250462   -0.1700
37     H37    -1.5906   -1.6821    2.9987 H        1 ZINC000068250462    0.0700
38     H38    -0.5550   -3.0232    2.4535 H        1 ZINC000068250462    0.0700
39     H39     0.1665   -1.6195    3.2765 H        1 ZINC000068250462    0.0700
40     H40    -1.2830   -2.8676    0.1423 H        1 ZINC000068250462    0.1500
41     H41    -1.4538   -1.3700   -3.0302 H        1 ZINC000068250462    0.4200
42     H42    -2.1340   -2.1732   -4.6103 H        1 ZINC000068250462    0.1300
43     H43    -3.5937   -2.5041   -6.6552 H        1 ZINC000068250462    0.4400
44     H44    -4.9334   -4.2700  -11.1252 H        1 ZINC000068250462    0.0700
45     H45    -3.6662   -5.3527  -11.7499 H        1 ZINC000068250462    0.0700
46     H46    -4.2689   -5.5543  -10.0872 H        1 ZINC000068250462    0.0600
47     H47    -1.7750   -2.2170  -11.0818 H        1 ZINC000068250462    0.0600
48     H48    -2.2134   -3.4086  -12.3292 H        1 ZINC000068250462    0.0700
49     H49    -3.4348   -2.2647  -11.7228 H        1 ZINC000068250462    0.0700
50     H50    -1.6630   -5.6284  -10.2954 H        1 ZINC000068250462    0.1200
51     H51    -0.8064   -4.0733  -10.0236 H        1 ZINC000068250462    0.0900
52     H52    -2.5945   -5.8742   -6.7029 H        1 ZINC000068250462    0.1400
53     H53    -1.5433   -7.0918   -4.8746 H        1 ZINC000068250462    0.1500
54     H54     0.2291   -5.8335   -0.7805 H        1 ZINC000068250462    0.2000
55     H55     0.0487    0.4969   -2.1366 H        1 ZINC000068250462    0.1300
56     H56     0.7694    1.6129   -0.0651 H        1 ZINC000068250462    0.1300
57     H57    -0.4910    2.9952    2.6698 H        1 ZINC000068250462    0.1700
58     H58     1.9821    7.3141    2.2657 H        1 ZINC000068250462    0.2300
59     H59     4.3050    2.9655    1.5741 H        1 ZINC000068250462    0.1800
60     H60     3.1090    0.8672    1.7749 H        1 ZINC000068250462    0.1700
@<TRIPOS>BOND
1     1     2     1
2     1     37    1
3     1     38    1
4     1     39    1
5     2     26    ar
6     2     3     ar
7     3     4     ar
8     3     40    1
9     4     5     1
10    4     24    ar
11    5     6     1
12    5     41    1
13    6     23    ar
14    6     7     ar
15    7     20    ar
16    7     8     ar
17    8     9     ar
18    8     42    1
19    9     10    1
20    9     18    ar
21    10    11    1
22    10    43    1
23    11    17    1
24    11    12    2
25    12    13    1
26    13    14    1
27    13    15    1
28    13    16    1
29    14    44    1
30    14    45    1
31    14    46    1
32    15    47    1
33    15    48    1
34    15    49    1
35    16    17    1
36    16    50    1
37    16    51    1
38    18    19    ar
39    18    52    1
40    19    20    ar
41    19    53    1
42    20    21    ar
43    21    22    ar
44    22    23    ar
45    22    54    1
46    24    25    ar
47    24    55    1
48    25    26    ar
49    25    56    1
50    26    27    1
51    27    28    1
52    28    36    1
53    28    29    2
54    29    30    1
55    29    57    1
56    30    34    1
57    30    31    2
58    31    32    1
59    32    33    2
60    32    58    1
61    33    34    1
62    34    35    1
63    35    36    2
64    35    59    1
65    36    60    1
@<TRIPOS>SUBSTRUCTURE
1   ZINC000068250462 1     RESIDUE    1   A     ZIN   1
