@<TRIPOS>MOLECULE
ZINC000003817327
63    69    1     0     0
SMALL
USER_CHARGES
@<TRIPOS>ATOM
1      O1      1.3444    2.7865   -0.1232 O.2      1 ZINC000003817327   -0.5700
2      C2      0.3634    2.0695   -0.0796 C.2      1 ZINC000003817327    0.7100
3      N3      0.4911    0.7732    0.2666 N.am     1 ZINC000003817327   -0.6300
4      C4      1.7882    0.0925    0.1535 C.3      1 ZINC000003817327    0.1300
5      C5      2.1303   -0.5442    1.5042 C.3      1 ZINC000003817327   -0.1400
6      C6      0.9793   -1.4534    1.9412 C.3      1 ZINC000003817327   -0.1200
7      C7     -0.2947   -0.6219    2.1079 C.3      1 ZINC000003817327   -0.1400
8      C8     -0.6628    0.0156    0.7698 C.3      1 ZINC000003817327    0.0800
9      N9     -0.8524    2.5723   -0.3720 N.am     1 ZINC000003817327   -0.6200
10     C10    -1.9984    1.6734   -0.4374 C.3      1 ZINC000003817327    0.0800
11     C11    -3.0448    2.1184   -1.4483 C.3      1 ZINC000003817327    0.1000
12     N12    -2.4181    2.3416   -2.7594 N.pl3    1 ZINC000003817327   -0.4700
13     C13    -2.6391    1.6731   -3.9203 C.2      1 ZINC000003817327    0.1200
14     C14    -1.9918    2.3018   -4.9451 C.2      1 ZINC000003817327   -0.1500
15     C15    -2.0099    1.9129   -6.3670 C.2      1 ZINC000003817327   -0.0100
16     C16    -3.0535    2.1001   -7.2751 C.2      1 ZINC000003817327   -0.0400
17     C17    -4.3506    2.7212   -7.0104 C.2      1 ZINC000003817327   -0.0500
18     C18    -4.5756    4.0082   -6.5407 C.2      1 ZINC000003817327    0.1100
19     N19    -5.8834    4.1873   -6.4350 N.2      1 ZINC000003817327   -0.4900
20     C20    -6.5220    3.0814   -6.8123 C.2      1 ZINC000003817327    0.2400
21     C21    -7.8902    2.7664   -6.8830 C.2      1 ZINC000003817327   -0.0800
22     C22    -8.2712    1.5306   -7.3158 C.2      1 ZINC000003817327   -0.0900
23     C23    -7.2959    0.5928   -7.6836 C.2      1 ZINC000003817327   -0.1300
24     C24    -5.9839    0.9121   -7.6091 C.2      1 ZINC000003817327    0.0600
25     N25    -5.5935    2.1458   -7.1837 N.pl3    1 ZINC000003817327   -0.3400
26     C26    -2.5788    1.5413   -8.5603 C.2      1 ZINC000003817327    0.5600
27     O27    -3.2076    1.5173   -9.5993 O.2      1 ZINC000003817327   -0.4500
28     N28    -1.3345    1.0652   -8.3846 N.am     1 ZINC000003817327   -0.6900
29     C29    -0.9288    1.2545   -7.1180 C.2      1 ZINC000003817327    0.5500
30     O30     0.1508    0.9279   -6.6644 O.2      1 ZINC000003817327   -0.4400
31     C31    -1.2730    3.4431   -4.3558 C.ar     1 ZINC000003817327   -0.0400
32     C32    -0.5047    4.4926   -4.8571 C.ar     1 ZINC000003817327   -0.1100
33     C33     0.0430    5.4125   -3.9849 C.ar     1 ZINC000003817327    0.0900
34     F34     0.7703    6.4419   -4.4714 F        1 ZINC000003817327   -0.1400
35     C35    -0.1450    5.2929   -2.6115 C.ar     1 ZINC000003817327   -0.1200
36     C36    -0.8916    4.2519   -2.1065 C.ar     1 ZINC000003817327   -0.0800
37     C37    -1.4963    3.3610   -2.9758 C.ar     1 ZINC000003817327    0.1000
38     C38    -0.9944    4.0164   -0.6120 C.3      1 ZINC000003817327    0.1800
39     H39     1.7290   -0.6821   -0.6110 H        1 ZINC000003817327    0.0600
40     H40     2.5583    0.8157   -0.1150 H        1 ZINC000003817327    0.0900
41     H41     3.0426   -1.1330    1.4083 H        1 ZINC000003817327    0.0800
42     H42     2.2783    0.2384    2.2483 H        1 ZINC000003817327    0.0700
43     H43     0.8156   -2.2209    1.1848 H        1 ZINC000003817327    0.0600
44     H44     1.2307   -1.9268    2.8902 H        1 ZINC000003817327    0.0700
45     H45    -1.1083   -1.2659    2.4417 H        1 ZINC000003817327    0.0800
46     H46    -0.1238    0.1615    2.8463 H        1 ZINC000003817327    0.0700
47     H47    -1.5110    0.6866    0.9058 H        1 ZINC000003817327    0.1100
48     H48    -0.9219   -0.7634    0.0529 H        1 ZINC000003817327    0.0700
49     H49    -1.6484    0.6777   -0.7098 H        1 ZINC000003817327    0.1000
50     H50    -2.4615    1.6228    0.5480 H        1 ZINC000003817327    0.0900
51     H51    -3.8098    1.3473   -1.5399 H        1 ZINC000003817327    0.1100
52     H52    -3.5069    3.0445   -1.1063 H        1 ZINC000003817327    0.0900
53     H53    -3.2365    0.7788   -4.0183 H        1 ZINC000003817327    0.1700
54     H54    -3.8153    4.7374   -6.3027 H        1 ZINC000003817327    0.1900
55     H55    -8.6329    3.4964   -6.5969 H        1 ZINC000003817327    0.1600
56     H56    -9.3190    1.2754   -7.3746 H        1 ZINC000003817327    0.1500
57     H57    -7.5931   -0.3871   -8.0269 H        1 ZINC000003817327    0.1600
58     H58    -5.2389    0.1839   -7.8939 H        1 ZINC000003817327    0.1600
59     H59    -0.8010    0.6462   -9.0780 H        1 ZINC000003817327    0.4300
60     H60    -0.3386    4.5855   -5.9202 H        1 ZINC000003817327    0.1300
61     H61     0.2949    6.0165   -1.9413 H        1 ZINC000003817327    0.1400
62     H62    -1.9649    4.3577   -0.2517 H        1 ZINC000003817327    0.0900
63     H63    -0.1997    4.5579   -0.0988 H        1 ZINC000003817327    0.1100
@<TRIPOS>BOND
1     1     2     2
2     2     3     am
3     2     9     am
4     3     8     1
5     3     4     1
6     4     5     1
7     4     39    1
8     4     40    1
9     5     6     1
10    5     41    1
11    5     42    1
12    6     7     1
13    6     43    1
14    6     44    1
15    7     8     1
16    7     45    1
17    7     46    1
18    8     47    1
19    8     48    1
20    9     38    1
21    9     10    1
22    10    11    1
23    10    49    1
24    10    50    1
25    11    12    1
26    11    51    1
27    11    52    1
28    12    37    1
29    12    13    1
30    13    14    2
31    13    53    1
32    14    15    1
33    14    31    1
34    15    29    1
35    15    16    2
36    16    17    1
37    16    26    1
38    17    25    1
39    17    18    2
40    18    19    1
41    18    54    1
42    19    20    2
43    20    25    1
44    20    21    1
45    21    22    2
46    21    55    1
47    22    23    1
48    22    56    1
49    23    24    2
50    23    57    1
51    24    25    1
52    24    58    1
53    26    27    2
54    26    28    am
55    28    29    am
56    28    59    1
57    29    30    2
58    31    37    ar
59    31    32    ar
60    32    33    ar
61    32    60    1
62    33    34    1
63    33    35    ar
64    35    36    ar
65    35    61    1
66    36    37    ar
67    36    38    1
68    38    62    1
69    38    63    1
@<TRIPOS>SUBSTRUCTURE
1   ZINC000003817327 1     RESIDUE    1   A     ZIN   1
