@<TRIPOS>MOLECULE
ZINC000096270862
74    76    1     0     0
SMALL
USER_CHARGES
@<TRIPOS>ATOM
1      C1     -0.4880    2.1649   -0.1677 C.3      1 ZINC000096270862   -0.1500
2      C2     -0.4569    0.6383   -0.0712 C.3      1 ZINC000096270862   -0.1200
3      C3     -1.8866    0.0952   -0.1153 C.3      1 ZINC000096270862   -0.1200
4      C4     -1.8555   -1.4314   -0.0188 C.3      1 ZINC000096270862   -0.1100
5      C5     -3.2852   -1.9745   -0.0629 C.3      1 ZINC000096270862    0.1300
6      C6     -4.0389   -1.4992    1.1808 C.3      1 ZINC000096270862   -0.1200
7      C7     -3.2534   -1.8910    2.4340 C.3      1 ZINC000096270862   -0.1600
8      C8     -3.2400   -3.4826   -0.0642 C.3      1 ZINC000096270862   -0.6400
9      S9     -4.7581   -4.0727   -0.8735 S.o2     1 ZINC000096270862    2.4900
10     O10    -4.9999   -5.4353   -0.5508 O.2      1 ZINC000096270862   -0.9400
11     O11    -5.7894   -3.1003   -0.7723 O.2      1 ZINC000096270862   -0.9300
12     C12    -4.3427   -4.0963   -2.5867 C.ar     1 ZINC000096270862   -0.6900
13     C13    -4.6509   -5.2295   -3.3236 C.ar     1 ZINC000096270862    0.0000
14     C14    -4.3832   -5.2823   -4.6757 C.ar     1 ZINC000096270862   -0.1100
15     C15    -4.7096   -6.5211   -5.4692 C.3      1 ZINC000096270862    0.1100
16     N16    -5.9078   -6.2792   -6.2840 N.3      1 ZINC000096270862   -0.6500
17     C17    -6.1932   -7.4276   -7.1544 C.3      1 ZINC000096270862    0.1400
18     C18    -7.0896   -8.4203   -6.4114 C.3      1 ZINC000096270862   -0.2100
19     C19    -7.2564   -9.6662   -7.2427 C.2      1 ZINC000096270862    0.5000
20     O20    -6.6250   -9.7976   -8.2775 O.co2    1 ZINC000096270862   -0.6800
21     O21    -8.0226  -10.5426   -6.8806 O.co2    1 ZINC000096270862   -0.7200
22     C22    -6.9061   -6.9444   -8.4190 C.3      1 ZINC000096270862   -0.1600
23     C23    -5.9772   -6.0630   -9.2136 C.2      1 ZINC000096270862    0.5000
24     O24    -4.8495   -5.8420   -8.8062 O.co2    1 ZINC000096270862   -0.6800
25     O25    -6.3533   -5.5711  -10.2638 O.co2    1 ZINC000096270862   -0.7400
26     C26    -3.8105   -4.1819   -5.2970 C.ar     1 ZINC000096270862    0.2200
27     O27    -3.5635   -4.2068   -6.6331 O.3      1 ZINC000096270862   -0.2400
28     C28    -2.9722   -3.0384   -7.2054 C.3      1 ZINC000096270862    0.0300
29     C29    -3.4920   -3.0604   -4.5550 C.ar     1 ZINC000096270862   -0.2400
30     C30    -3.7322   -3.0163   -3.1821 C.ar     1 ZINC000096270862    0.0100
31     C31    -3.2003   -1.7886   -2.4728 C.3      1 ZINC000096270862    0.1400
32     H32    -2.1612   -1.9657   -2.1955 H        1 ZINC000096270862    0.1100
33     C33    -3.2565   -0.6180   -3.4202 C.ar     1 ZINC000096270862   -0.0500
34     C34    -4.4487    0.0526   -3.6203 C.ar     1 ZINC000096270862   -0.0900
35     C35    -4.5002    1.1264   -4.4893 C.ar     1 ZINC000096270862   -0.1200
36     C36    -3.3595    1.5299   -5.1578 C.ar     1 ZINC000096270862   -0.1200
37     C37    -2.1672    0.8599   -4.9570 C.ar     1 ZINC000096270862   -0.1200
38     C38    -2.1147   -0.2112   -4.0847 C.ar     1 ZINC000096270862   -0.1200
39     N39    -3.9618   -1.4532   -1.2651 N.3      1 ZINC000096270862   -0.6800
40     H40     0.5305    2.5518   -0.1363 H        1 ZINC000096270862    0.0500
41     H41    -0.9600    2.4601   -1.1048 H        1 ZINC000096270862    0.0600
42     H42    -1.0567    2.5704    0.6691 H        1 ZINC000096270862    0.0500
43     H43     0.1118    0.2328   -0.9080 H        1 ZINC000096270862    0.0600
44     H44     0.0152    0.3430    0.8659 H        1 ZINC000096270862    0.0500
45     H45    -2.4553    0.5007    0.7215 H        1 ZINC000096270862    0.0600
46     H46    -2.3586    0.3905   -1.0524 H        1 ZINC000096270862    0.0800
47     H47    -1.2868   -1.8369   -0.8556 H        1 ZINC000096270862    0.0600
48     H48    -1.3834   -1.7266    0.9183 H        1 ZINC000096270862    0.0700
49     H49    -4.1506   -0.4155    1.1460 H        1 ZINC000096270862    0.0900
50     H50    -5.0239   -1.9653    1.2089 H        1 ZINC000096270862    0.0700
51     H51    -3.0634   -2.9643    2.4229 H        1 ZINC000096270862    0.0500
52     H52    -2.3049   -1.3542    2.4508 H        1 ZINC000096270862    0.0600
53     H53    -3.8323   -1.6336    3.3209 H        1 ZINC000096270862    0.0600
54     H54    -2.3669   -3.8265   -0.6189 H        1 ZINC000096270862    0.1400
55     H55    -3.1985   -3.8528    0.9602 H        1 ZINC000096270862    0.1500
56     H56    -5.1044   -6.0788   -2.8344 H        1 ZINC000096270862    0.1400
57     H57    -3.8709   -6.7669   -6.1206 H        1 ZINC000096270862    0.0900
58     H58    -4.8954   -7.3509   -4.7873 H        1 ZINC000096270862    0.0200
59     H59    -6.7025   -6.0601   -5.7022 H        1 ZINC000096270862    0.3100
60     H60    -5.2586   -7.9169   -7.4286 H        1 ZINC000096270862    0.0800
61     H61    -6.6317   -8.6792   -5.4567 H        1 ZINC000096270862    0.0400
62     H62    -8.0654   -7.9676   -6.2355 H        1 ZINC000096270862    0.0500
63     H63    -7.1969   -7.8038   -9.0231 H        1 ZINC000096270862    0.0800
64     H64    -7.7950   -6.3781   -8.1410 H        1 ZINC000096270862    0.0300
65     H65    -2.8289   -3.1906   -8.2752 H        1 ZINC000096270862    0.1100
66     H66    -3.6286   -2.1832   -7.0447 H        1 ZINC000096270862    0.0500
67     H67    -2.0082   -2.8504   -6.7328 H        1 ZINC000096270862    0.0400
68     H68    -3.0506   -2.2055   -5.0456 H        1 ZINC000096270862    0.1400
69     H69    -5.3398   -0.2627   -3.0981 H        1 ZINC000096270862    0.1200
70     H70    -5.4317    1.6499   -4.6462 H        1 ZINC000096270862    0.1200
71     H71    -3.3999    2.3684   -5.8373 H        1 ZINC000096270862    0.1200
72     H72    -1.2761    1.1750   -5.4795 H        1 ZINC000096270862    0.1200
73     H73    -1.1831   -0.7347   -3.9278 H        1 ZINC000096270862    0.1200
74     H74    -4.9079   -1.7986   -1.3266 H        1 ZINC000096270862    0.3800
@<TRIPOS>BOND
1     1     2     1
2     1     40    1
3     1     41    1
4     1     42    1
5     2     3     1
6     2     43    1
7     2     44    1
8     3     4     1
9     3     45    1
10    3     46    1
11    4     5     1
12    4     47    1
13    4     48    1
14    5     39    1
15    5     6     1
16    5     8     1
17    6     7     1
18    6     49    1
19    6     50    1
20    7     51    1
21    7     52    1
22    7     53    1
23    8     9     1
24    8     54    1
25    8     55    1
26    9     10    2
27    9     11    2
28    9     12    1
29    12    30    ar
30    12    13    ar
31    13    14    ar
32    13    56    1
33    14    15    1
34    14    26    ar
35    15    16    1
36    15    57    1
37    15    58    1
38    16    17    1
39    16    59    1
40    17    18    1
41    17    22    1
42    17    60    1
43    18    19    1
44    18    61    1
45    18    62    1
46    19    20    ar
47    19    21    ar
48    22    23    1
49    22    63    1
50    22    64    1
51    23    24    ar
52    23    25    ar
53    26    27    1
54    26    29    ar
55    27    28    1
56    28    65    1
57    28    66    1
58    28    67    1
59    29    30    ar
60    29    68    1
61    30    31    1
62    31    32    1
63    31    33    1
64    31    39    1
65    33    38    ar
66    33    34    ar
67    34    35    ar
68    34    69    1
69    35    36    ar
70    35    70    1
71    36    37    ar
72    36    71    1
73    37    38    ar
74    37    72    1
75    38    73    1
76    39    74    1
@<TRIPOS>SUBSTRUCTURE
1   ZINC000096270862 1     RESIDUE    1   A     ZIN   1
