@<TRIPOS>MOLECULE
ZINC000238855217
80    81    1     0     0
SMALL
USER_CHARGES
@<TRIPOS>ATOM
1      C1     -0.0131   -0.0994   -0.2067 C.3      1 ZINC000238855217    0.0200
2      O2      0.0692   -1.4012    0.3769 O.3      1 ZINC000238855217   -0.3500
3      C3      0.6888   -1.4229    1.6647 C.3      1 ZINC000238855217    0.1100
4      H4      1.4197   -0.6164    1.7267 H        1 ZINC000238855217    0.1000
5      C5     -0.3611   -1.2470    2.7303 C.2      1 ZINC000238855217   -0.1400
6      C6     -0.5639   -0.0238    3.2595 C.2      1 ZINC000238855217   -0.1300
7      C7      0.2322    1.0883    2.7660 C.2      1 ZINC000238855217   -0.0500
8      C8      0.3598    2.2913    3.3789 C.2      1 ZINC000238855217   -0.1700
9      C9     -0.3546    2.6186    4.6635 C.3      1 ZINC000238855217   -0.1200
10     C10     1.2446    3.2440    2.7276 C.2      1 ZINC000238855217    0.5600
11     O11     1.6692    2.9055    1.6321 O.2      1 ZINC000238855217   -0.4900
12     N12     1.6083    4.4494    3.1684 N.am     1 ZINC000238855217   -0.6600
13     C13     2.8756    4.8954    2.8339 C.2      1 ZINC000238855217    0.1700
14     C14     3.1569    6.2137    2.7715 C.2      1 ZINC000238855217   -0.2500
15     C15     4.4205    6.6859    2.3916 C.2      1 ZINC000238855217    0.3800
16     O16     4.6306    7.8780    2.4762 O.2      1 ZINC000238855217   -0.4500
17     C17     5.5199    5.8193    1.8755 C.3      1 ZINC000238855217    0.0900
18     O18     6.7418    6.1806    2.5211 O.3      1 ZINC000238855217   -0.3600
19     C19     7.4808    7.1965    1.8399 C.3      1 ZINC000238855217    0.0200
20     C20     5.2661    4.3503    2.1226 C.2      1 ZINC000238855217   -0.2100
21     C21     6.2995    3.5386    1.9316 C.2      1 ZINC000238855217    0.0100
22     C22     6.3525    2.0589    2.1103 C.3      1 ZINC000238855217   -0.0800
23     H23     7.3919    1.7488    1.8682 H        1 ZINC000238855217    0.0800
24     C24     6.1127    1.6560    3.5634 C.3      1 ZINC000238855217   -0.1500
25     C25     5.4310    1.3043    1.1649 C.3      1 ZINC000238855217   -0.1100
26     C26     5.8461   -0.1751    1.0854 C.3      1 ZINC000238855217    0.1000
27     H27     5.5735   -0.6574    2.0184 H        1 ZINC000238855217    0.0800
28     O28     7.2633   -0.2503    0.9032 O.3      1 ZINC000238855217   -0.3800
29     C29     7.9639   -0.8055    2.0181 C.3      1 ZINC000238855217    0.0100
30     C30     5.1512   -0.8349   -0.0986 C.3      1 ZINC000238855217    0.1100
31     H31     5.7991   -0.7301   -0.9830 H        1 ZINC000238855217    0.0600
32     O32     3.9239   -0.1469   -0.3738 O.3      1 ZINC000238855217   -0.5500
33     C33     4.8591   -2.3153    0.1119 C.3      1 ZINC000238855217   -0.0900
34     H34     4.9460   -2.7823   -0.9069 H        1 ZINC000238855217    0.0700
35     C35     5.8949   -3.0156    0.9698 C.3      1 ZINC000238855217   -0.1500
36     C36     3.4451   -2.5427    0.5375 C.2      1 ZINC000238855217   -0.1200
37     C37     2.9157   -2.5017    1.7207 C.2      1 ZINC000238855217   -0.1400
38     C38     3.6702   -2.2053    2.9906 C.3      1 ZINC000238855217   -0.1200
39     C39     1.4204   -2.7514    1.8517 C.3      1 ZINC000238855217    0.1500
40     H40     1.2138   -3.1470    2.8434 H        1 ZINC000238855217    0.1000
41     O41     0.9962   -3.6978    0.8412 O.3      1 ZINC000238855217   -0.3400
42     C42     1.0346   -5.0026    1.1712 C.2      1 ZINC000238855217    0.6500
43     N43     0.6530   -5.9355    0.2764 N.am     1 ZINC000238855217   -0.8300
44     O44     1.4132   -5.3390    2.2757 O.2      1 ZINC000238855217   -0.5700
45     C45     3.9434    3.9004    2.5486 C.2      1 ZINC000238855217    0.4200
46     O46     3.6913    2.7224    2.6927 O.2      1 ZINC000238855217   -0.3900
47     H47     0.9903    0.3095   -0.3256 H        1 ZINC000238855217    0.0500
48     H48    -0.4954   -0.1682   -1.1817 H        1 ZINC000238855217    0.0900
49     H49    -0.5969    0.5534    0.4422 H        1 ZINC000238855217    0.0400
50     H50    -0.9477   -2.0950    3.0706 H        1 ZINC000238855217    0.1300
51     H51    -1.3126    0.1146    4.0343 H        1 ZINC000238855217    0.1300
52     H52     0.7485    0.9652    1.8214 H        1 ZINC000238855217    0.1400
53     H53    -0.9489    1.7605    4.9775 H        1 ZINC000238855217    0.0800
54     H54     0.3771    2.8559    5.4358 H        1 ZINC000238855217    0.0700
55     H55    -1.0089    3.4762    4.5070 H        1 ZINC000238855217    0.0700
56     H56     1.0037    5.0051    3.7070 H        1 ZINC000238855217    0.4200
57     H57     2.3856    6.9210    3.0244 H        1 ZINC000238855217    0.1500
58     H58     5.6255    5.9694    0.8034 H        1 ZINC000238855217    0.1100
59     H59     8.3943    7.4140    2.3933 H        1 ZINC000238855217    0.0900
60     H60     7.7363    6.8502    0.8385 H        1 ZINC000238855217    0.0500
61     H61     6.8754    8.1001    1.7685 H        1 ZINC000238855217    0.0600
62     H62     7.2337    4.0273    1.5960 H        1 ZINC000238855217    0.1300
63     H63     5.1295    2.0044    3.8796 H        1 ZINC000238855217    0.0700
64     H64     6.1593    0.5706    3.6519 H        1 ZINC000238855217    0.0600
65     H65     6.8782    2.1052    4.1961 H        1 ZINC000238855217    0.0500
66     H66     4.3992    1.3568    1.5001 H        1 ZINC000238855217    0.1100
67     H67     5.5026    1.7387    0.1637 H        1 ZINC000238855217    0.0600
68     H68     7.7074   -0.2513    2.9210 H        1 ZINC000238855217    0.0500
69     H69     7.6812   -1.8510    2.1408 H        1 ZINC000238855217    0.0500
70     H70     9.0376   -0.7376    1.8428 H        1 ZINC000238855217    0.0900
71     H71     3.4260   -0.5130   -1.1176 H        1 ZINC000238855217    0.3800
72     H72     6.0180   -2.4724    1.9068 H        1 ZINC000238855217    0.0600
73     H73     5.5647   -4.0329    1.1802 H        1 ZINC000238855217    0.0600
74     H74     6.8465   -3.0449    0.4391 H        1 ZINC000238855217    0.0600
75     H75     2.7375   -2.7748   -0.2849 H        1 ZINC000238855217    0.1100
76     H76     4.6999   -1.9420    2.7485 H        1 ZINC000238855217    0.0700
77     H77     3.1949   -1.3731    3.5099 H        1 ZINC000238855217    0.0700
78     H78     3.6618   -3.0864    3.6323 H        1 ZINC000238855217    0.0700
79     H79     0.3508   -5.6669   -0.6053 H        1 ZINC000238855217    0.4100
80     H80     0.6807   -6.8755    0.5142 H        1 ZINC000238855217    0.4300
@<TRIPOS>BOND
1     1     2     1
2     1     47    1
3     1     48    1
4     1     49    1
5     2     3     1
6     3     4     1
7     3     39    1
8     3     5     1
9     5     6     2
10    5     50    1
11    6     7     1
12    6     51    1
13    7     8     2
14    7     52    1
15    8     9     1
16    8     10    1
17    9     53    1
18    9     54    1
19    9     55    1
20    10    11    2
21    10    12    am
22    12    13    1
23    12    56    1
24    13    45    1
25    13    14    2
26    14    15    1
27    14    57    1
28    15    16    2
29    15    17    1
30    17    18    1
31    17    20    1
32    17    58    1
33    18    19    1
34    19    59    1
35    19    60    1
36    19    61    1
37    20    21    2
38    20    45    1
39    21    22    1
40    21    62    1
41    22    23    1
42    22    24    1
43    22    25    1
44    24    63    1
45    24    64    1
46    24    65    1
47    25    26    1
48    25    66    1
49    25    67    1
50    26    27    1
51    26    28    1
52    26    30    1
53    28    29    1
54    29    68    1
55    29    69    1
56    29    70    1
57    30    31    1
58    30    32    1
59    30    33    1
60    32    71    1
61    33    34    1
62    33    35    1
63    33    36    1
64    35    72    1
65    35    73    1
66    35    74    1
67    36    37    2
68    36    75    1
69    37    38    1
70    37    39    1
71    38    76    1
72    38    77    1
73    38    78    1
74    39    40    1
75    39    41    1
76    41    42    1
77    42    43    am
78    42    44    2
79    43    79    1
80    43    80    1
81    45    46    2
@<TRIPOS>SUBSTRUCTURE
1   ZINC000238855217 1     RESIDUE    1   A     ZIN   1
