@<TRIPOS>MOLECULE
ZINC000035953488
69    72    1     0     0
SMALL
USER_CHARGES
@<TRIPOS>ATOM
1      C1      1.8042    0.7056    0.3124 C.3      1 ZINC000035953488    0.0700
2      N2      1.5525   -0.7288    0.1530 N.am     1 ZINC000035953488   -0.7300
3      C3      0.4386   -1.1516   -0.4770 C.2      1 ZINC000035953488    0.4900
4      O4     -0.3554   -0.3445   -0.9119 O.2      1 ZINC000035953488   -0.4600
5      C5      0.1797   -2.6271   -0.6411 C.3      1 ZINC000035953488    0.0600
6      H6      0.3533   -3.1342    0.3081 H        1 ZINC000035953488    0.1600
7      C7     -1.2486   -2.8417   -1.0713 C.ar     1 ZINC000035953488   -0.1200
8      C8     -1.6638   -2.4242   -2.3220 C.ar     1 ZINC000035953488   -0.1000
9      C9     -2.9739   -2.6211   -2.7166 C.ar     1 ZINC000035953488   -0.1000
10     C10    -3.8687   -3.2358   -1.8608 C.ar     1 ZINC000035953488   -0.0800
11     C11    -3.4532   -3.6540   -0.6104 C.ar     1 ZINC000035953488   -0.1000
12     C12    -2.1420   -3.4610   -0.2174 C.ar     1 ZINC000035953488   -0.0900
13     N13     1.0855   -3.1728   -1.6607 N.4      1 ZINC000035953488   -0.3700
14     H14     0.8185   -2.8261   -2.5699 H        1 ZINC000035953488    0.4300
15     C15     2.4661   -2.7619   -1.3632 C.3      1 ZINC000035953488   -0.0400
16     C16     3.3393   -3.0698   -2.5802 C.3      1 ZINC000035953488   -0.1000
17     C17     3.1283   -4.4991   -3.0112 C.ar     1 ZINC000035953488   -0.0800
18     C18     4.0583   -5.0797   -3.8595 C.ar     1 ZINC000035953488   -0.1700
19     C19     3.8988   -6.3883   -4.2810 C.ar     1 ZINC000035953488    0.1300
20     O20     4.8135   -6.9545   -5.1129 O.3      1 ZINC000035953488   -0.3000
21     C21     5.9173   -6.1404   -5.5139 C.3      1 ZINC000035953488    0.0200
22     C22     2.7980   -7.1219   -3.8490 C.ar     1 ZINC000035953488    0.1200
23     O23     2.6314   -8.4079   -4.2585 O.3      1 ZINC000035953488   -0.2900
24     C24     1.4780   -9.0987   -3.7743 C.3      1 ZINC000035953488    0.0200
25     C25     1.8738   -6.5378   -3.0009 C.ar     1 ZINC000035953488   -0.1600
26     C26     2.0385   -5.2264   -2.5800 C.ar     1 ZINC000035953488   -0.1200
27     C27     1.0089   -4.6364   -1.6520 C.3      1 ZINC000035953488    0.0900
28     H28     1.1882   -4.9983   -0.6396 H        1 ZINC000035953488    0.1400
29     C29    -0.3863   -5.0726   -2.1038 C.3      1 ZINC000035953488   -0.1900
30     C30    -0.7573   -6.3877   -1.4155 C.3      1 ZINC000035953488   -0.0800
31     C31    -2.2122   -6.6917   -1.6641 C.ar     1 ZINC000035953488   -0.0600
32     C32    -3.1545   -6.4001   -0.6957 C.ar     1 ZINC000035953488   -0.1100
33     C33    -4.4891   -6.6790   -0.9237 C.ar     1 ZINC000035953488   -0.0700
34     C34    -4.8814   -7.2491   -2.1204 C.ar     1 ZINC000035953488   -0.1700
35     C35    -6.3363   -7.5537   -2.3687 C.3      1 ZINC000035953488    0.5000
36     F36    -6.9494   -6.4463   -2.9647 F        1 ZINC000035953488   -0.1700
37     F37    -6.4427   -8.6594   -3.2192 F        1 ZINC000035953488   -0.1700
38     F38    -6.9674   -7.8380   -1.1530 F        1 ZINC000035953488   -0.1700
39     C39    -3.9393   -7.5395   -3.0893 C.ar     1 ZINC000035953488   -0.0600
40     C40    -2.6052   -7.2571   -2.8628 C.ar     1 ZINC000035953488   -0.1100
41     H41     1.8625    1.1756   -0.6693 H        1 ZINC000035953488    0.0700
42     H42     0.9920    1.1557    0.8832 H        1 ZINC000035953488    0.0700
43     H43     2.7455    0.8526    0.8421 H        1 ZINC000035953488    0.0900
44     H44     2.1876   -1.3743    0.5008 H        1 ZINC000035953488    0.4100
45     H45    -0.9648   -1.9440   -2.9906 H        1 ZINC000035953488    0.1200
46     H46    -3.2985   -2.2943   -3.6935 H        1 ZINC000035953488    0.1400
47     H47    -4.8924   -3.3889   -2.1688 H        1 ZINC000035953488    0.1400
48     H48    -4.1524   -4.1339    0.0584 H        1 ZINC000035953488    0.1400
49     H49    -1.8174   -3.7878    0.7594 H        1 ZINC000035953488    0.1400
50     H50     2.4928   -1.6924   -1.1549 H        1 ZINC000035953488    0.1500
51     H51     2.8344   -3.3150   -0.4992 H        1 ZINC000035953488    0.1400
52     H52     3.0701   -2.4012   -3.3978 H        1 ZINC000035953488    0.1000
53     H53     4.3875   -2.9204   -2.3212 H        1 ZINC000035953488    0.1300
54     H54     4.9116   -4.5080   -4.1934 H        1 ZINC000035953488    0.1500
55     H55     5.5475   -5.2606   -6.0406 H        1 ZINC000035953488    0.0600
56     H56     6.4772   -5.8276   -4.6325 H        1 ZINC000035953488    0.0600
57     H57     6.5693   -6.7119   -6.1745 H        1 ZINC000035953488    0.1100
58     H58     1.5094   -9.1398   -2.6856 H        1 ZINC000035953488    0.0600
59     H59     0.5786   -8.5713   -4.0922 H        1 ZINC000035953488    0.0600
60     H60     1.4661  -10.1120   -4.1759 H        1 ZINC000035953488    0.1100
61     H61     1.0191   -7.1061   -2.6650 H        1 ZINC000035953488    0.1500
62     H62    -1.1118   -4.3047   -1.8353 H        1 ZINC000035953488    0.1400
63     H63    -0.3904   -5.2143   -3.1845 H        1 ZINC000035953488    0.1000
64     H64    -0.1438   -7.1939   -1.8176 H        1 ZINC000035953488    0.0900
65     H65    -0.5828   -6.2984   -0.3433 H        1 ZINC000035953488    0.0900
66     H66    -2.8480   -5.9547    0.2392 H        1 ZINC000035953488    0.1300
67     H67    -5.2252   -6.4519   -0.1668 H        1 ZINC000035953488    0.1400
68     H68    -4.2458   -7.9846   -4.0244 H        1 ZINC000035953488    0.1400
69     H69    -1.8691   -7.4839   -3.6199 H        1 ZINC000035953488    0.1300
@<TRIPOS>BOND
1     1     2     1
2     1     41    1
3     1     42    1
4     1     43    1
5     2     3     am
6     2     44    1
7     3     4     2
8     3     5     1
9     5     6     1
10    5     7     1
11    5     13    1
12    7     12    ar
13    7     8     ar
14    8     9     ar
15    8     45    1
16    9     10    ar
17    9     46    1
18    10    11    ar
19    10    47    1
20    11    12    ar
21    11    48    1
22    12    49    1
23    13    14    1
24    13    27    1
25    13    15    1
26    15    16    1
27    15    50    1
28    15    51    1
29    16    17    1
30    16    52    1
31    16    53    1
32    17    26    ar
33    17    18    ar
34    18    19    ar
35    18    54    1
36    19    20    1
37    19    22    ar
38    20    21    1
39    21    55    1
40    21    56    1
41    21    57    1
42    22    23    1
43    22    25    ar
44    23    24    1
45    24    58    1
46    24    59    1
47    24    60    1
48    25    26    ar
49    25    61    1
50    26    27    1
51    27    28    1
52    27    29    1
53    29    30    1
54    29    62    1
55    29    63    1
56    30    31    1
57    30    64    1
58    30    65    1
59    31    40    ar
60    31    32    ar
61    32    33    ar
62    32    66    1
63    33    34    ar
64    33    67    1
65    34    35    1
66    34    39    ar
67    35    36    1
68    35    37    1
69    35    38    1
70    39    40    ar
71    39    68    1
72    40    69    1
@<TRIPOS>SUBSTRUCTURE
1   ZINC000035953488 1     RESIDUE    1   A     ZIN   1
