@<TRIPOS>MOLECULE
ZINC000034356159
65    68    1     0     0
SMALL
USER_CHARGES
@<TRIPOS>ATOM
1      O1      0.0021   -0.0041    0.0020 O.2      1 ZINC000034356159   -0.5000
2      C2     -0.0144    1.2114    0.0087 C.2      1 ZINC000034356159    0.5500
3      N3      1.1435    1.9011    0.0014 N.am     1 ZINC000034356159   -0.7200
4      C4      2.4220    1.1860   -0.0147 C.3      1 ZINC000034356159    0.1300
5      C5      3.5713    2.1959   -0.0202 C.3      1 ZINC000034356159   -0.0600
6      C6      3.4902    3.0676    1.2345 C.3      1 ZINC000034356159   -0.1000
7      C7      4.6395    4.0776    1.2290 C.3      1 ZINC000034356159   -0.0900
8      C8      4.5346    4.9627   -0.0146 C.3      1 ZINC000034356159   -0.1100
9      C9      4.6156    4.0910   -1.2694 C.3      1 ZINC000034356159   -0.0900
10     C10     5.9509    3.3441   -1.2861 C.3      1 ZINC000034356159   -0.1100
11     C11     6.0557    2.4590   -0.0426 C.3      1 ZINC000034356159   -0.0900
12     C12     5.9747    3.3307    1.2122 C.3      1 ZINC000034356159   -0.1100
13     C13     4.9065    1.4490   -0.0370 C.3      1 ZINC000034356159   -0.1000
14     C14     3.4664    3.0811   -1.2638 C.3      1 ZINC000034356159   -0.1000
15     C15    -1.3040    1.9328    0.0187 C.ar     1 ZINC000034356159   -0.1200
16     C16    -1.3268    3.3285    0.0206 C.ar     1 ZINC000034356159   -0.0700
17     C17    -2.5340    3.9958    0.0295 C.ar     1 ZINC000034356159   -0.1100
18     C18    -2.5597    5.5025    0.0310 C.3      1 ZINC000034356159   -0.0700
19     C19    -2.5783    6.0137   -1.4109 C.3      1 ZINC000034356159   -0.1500
20     C20    -2.6044    7.5435   -1.4094 C.3      1 ZINC000034356159   -0.0100
21     N21    -2.6223    8.0343   -2.7939 N.4      1 ZINC000034356159   -0.5100
22     H22    -1.7962    7.7125   -3.2755 H        1 ZINC000034356159    0.4300
23     H23    -3.4436    7.6844   -3.2642 H        1 ZINC000034356159    0.4300
24     C24    -2.6474    9.5031   -2.7924 C.3      1 ZINC000034356159   -0.0100
25     C25    -2.6660   10.0143   -4.2344 C.3      1 ZINC000034356159   -0.1500
26     C26    -2.6921   11.5441   -4.2328 C.3      1 ZINC000034356159    0.0800
27     O27    -2.7095   12.0216   -5.5796 O.3      1 ZINC000034356159   -0.5700
28     C28    -3.7215    3.2854    0.0366 C.ar     1 ZINC000034356159   -0.0800
29     C29    -3.7078    1.9024    0.0353 C.ar     1 ZINC000034356159   -0.1100
30     C30    -2.5065    1.2210    0.0206 C.ar     1 ZINC000034356159    0.0200
31     Cl31   -2.4904   -0.5149    0.0183 Cl       1 ZINC000034356159   -0.0200
32     H32     1.1303    2.8710    0.0067 H        1 ZINC000034356159    0.3900
33     H33     2.4967    0.5554    0.8712 H        1 ZINC000034356159    0.0700
34     H34     2.4797    0.5649   -0.9086 H        1 ZINC000034356159    0.0700
35     H35     2.5390    3.5997    1.2465 H        1 ZINC000034356159    0.0600
36     H36     3.5649    2.4371    2.1205 H        1 ZINC000034356159    0.0700
37     H37     4.5818    4.6986    2.1229 H        1 ZINC000034356159    0.0700
38     H38     3.5834    5.4948   -0.0026 H        1 ZINC000034356159    0.0600
39     H39     5.3534    5.6822   -0.0185 H        1 ZINC000034356159    0.0600
40     H40     4.5409    4.7216   -2.1553 H        1 ZINC000034356159    0.0700
41     H41     6.0086    2.7231   -2.1800 H        1 ZINC000034356159    0.0600
42     H42     6.7696    4.0637   -1.2901 H        1 ZINC000034356159    0.0600
43     H43     7.0070    1.9269   -0.0545 H        1 ZINC000034356159    0.0700
44     H44     6.7935    4.0502    1.2083 H        1 ZINC000034356159    0.0600
45     H45     6.0494    2.7001    2.0981 H        1 ZINC000034356159    0.0600
46     H46     4.9812    0.8185    0.8489 H        1 ZINC000034356159    0.0700
47     H47     4.9642    0.8280   -0.9309 H        1 ZINC000034356159    0.0700
48     H48     3.5241    2.4600   -2.1577 H        1 ZINC000034356159    0.0700
49     H49     2.5151    3.6131   -1.2519 H        1 ZINC000034356159    0.0500
50     H50    -0.4011    3.8847    0.0154 H        1 ZINC000034356159    0.1300
51     H51    -3.4522    5.8502    0.5513 H        1 ZINC000034356159    0.0900
52     H52    -1.6725    5.8806    0.5391 H        1 ZINC000034356159    0.0900
53     H53    -1.6858    5.6661   -1.9312 H        1 ZINC000034356159    0.0900
54     H54    -3.4655    5.6357   -1.9190 H        1 ZINC000034356159    0.0900
55     H55    -3.4969    7.8912   -0.8891 H        1 ZINC000034356159    0.1300
56     H56    -1.7173    7.9215   -0.9014 H        1 ZINC000034356159    0.1300
57     H57    -3.5399    9.8508   -2.2721 H        1 ZINC000034356159    0.1300
58     H58    -1.7602    9.8811   -2.2843 H        1 ZINC000034356159    0.1300
59     H59    -1.7735    9.6667   -4.7547 H        1 ZINC000034356159    0.1000
60     H60    -3.5532    9.6363   -4.7424 H        1 ZINC000034356159    0.1000
61     H61    -3.5846   11.8917   -3.7125 H        1 ZINC000034356159    0.0600
62     H62    -1.8049   11.9221   -3.7248 H        1 ZINC000034356159    0.0600
63     H63    -2.7265   12.9855   -5.6550 H        1 ZINC000034356159    0.4000
64     H64    -4.6636    3.8135    0.0436 H        1 ZINC000034356159    0.1400
65     H65    -4.6383    1.3542    0.0412 H        1 ZINC000034356159    0.1500
@<TRIPOS>BOND
1     1     2     2
2     2     3     am
3     2     15    1
4     3     4     1
5     3     32    1
6     4     5     1
7     4     33    1
8     4     34    1
9     5     13    1
10    5     14    1
11    5     6     1
12    6     7     1
13    6     35    1
14    6     36    1
15    7     12    1
16    7     8     1
17    7     37    1
18    8     9     1
19    8     38    1
20    8     39    1
21    9     10    1
22    9     14    1
23    9     40    1
24    10    11    1
25    10    41    1
26    10    42    1
27    11    12    1
28    11    13    1
29    11    43    1
30    12    44    1
31    12    45    1
32    13    46    1
33    13    47    1
34    14    48    1
35    14    49    1
36    15    30    ar
37    15    16    ar
38    16    17    ar
39    16    50    1
40    17    18    1
41    17    28    ar
42    18    19    1
43    18    51    1
44    18    52    1
45    19    20    1
46    19    53    1
47    19    54    1
48    20    21    1
49    20    55    1
50    20    56    1
51    21    22    1
52    21    23    1
53    21    24    1
54    24    25    1
55    24    57    1
56    24    58    1
57    25    26    1
58    25    59    1
59    25    60    1
60    26    27    1
61    26    61    1
62    26    62    1
63    27    63    1
64    28    29    ar
65    28    64    1
66    29    30    ar
67    29    65    1
68    30    31    1
@<TRIPOS>SUBSTRUCTURE
1   ZINC000034356159 1     RESIDUE    1   A     ZIN   1
