@<TRIPOS>MOLECULE
ZINC000003795331
64    68    1     0     0
SMALL
USER_CHARGES
@<TRIPOS>ATOM
1      C1     -2.2856   -7.6429    2.4392 C.3      1 ZINC000003795331    0.0200
2      O2     -2.1911   -6.2310    2.6387 O.3      1 ZINC000003795331   -0.3300
3      C3     -1.8471   -5.4773    1.5614 C.ar     1 ZINC000003795331    0.1400
4      C4     -1.6111   -6.0835    0.3363 C.ar     1 ZINC000003795331   -0.2000
5      C5     -1.2620   -5.3149   -0.7575 C.ar     1 ZINC000003795331   -0.0600
6      C6     -1.1474   -3.9430   -0.6316 C.ar     1 ZINC000003795331   -0.1400
7      C7     -1.3817   -3.3364    0.5888 C.ar     1 ZINC000003795331   -0.0600
8      C8     -1.7370   -4.0996    1.6838 C.ar     1 ZINC000003795331   -0.1500
9      C9     -1.9927   -3.4378    3.0134 C.3      1 ZINC000003795331   -0.0600
10     C10    -0.7687   -3.5678    3.8829 C.cat    1 ZINC000003795331    0.5500
11     N11    -0.5917   -4.6325    4.5953 N.pl3    1 ZINC000003795331   -0.7300
12     H12     0.1961   -4.7161    5.1549 H        1 ZINC000003795331    0.4200
13     H13    -1.2468   -5.3474    4.5700 H        1 ZINC000003795331    0.4500
14     N14     0.1564   -2.5580    3.9186 N.pl3    1 ZINC000003795331   -0.5600
15     C15     0.0210   -1.2579    3.2512 C.3      1 ZINC000003795331    0.0900
16     C16     1.2681   -0.4263    3.5932 C.3      1 ZINC000003795331   -0.1500
17     H17     0.9846    0.5877    3.8752 H        1 ZINC000003795331    0.1400
18     C18     2.2000   -0.4022    2.4078 C.2      1 ZINC000003795331    0.3700
19     O19     1.8741   -0.8486    1.3342 O.2      1 ZINC000003795331   -0.4300
20     C20     3.5618    0.2099    2.6337 C.3      1 ZINC000003795331   -0.1700
21     C21     4.2598   -0.4895    3.7779 C.3      1 ZINC000003795331   -0.1100
22     C22     3.4155   -1.0881    4.8470 C.3      1 ZINC000003795331    0.0400
23     C23     3.9050   -2.4992    5.0473 C.ar     1 ZINC000003795331   -0.0900
24     C24     4.3455   -3.2382    3.9653 C.ar     1 ZINC000003795331   -0.1300
25     C25     4.7946   -4.5326    4.1491 C.ar     1 ZINC000003795331   -0.1100
26     C26     4.8034   -5.0879    5.4150 C.ar     1 ZINC000003795331   -0.1100
27     C27     4.3637   -4.3487    6.4971 C.ar     1 ZINC000003795331   -0.1200
28     C28     3.9187   -3.0528    6.3140 C.ar     1 ZINC000003795331   -0.1100
29     C29     3.7379   -0.3483    6.1197 C.ar     1 ZINC000003795331   -0.0900
30     C30     4.9549   -0.5462    6.7448 C.ar     1 ZINC000003795331   -0.1100
31     C31     5.2506    0.1323    7.9122 C.ar     1 ZINC000003795331   -0.1100
32     C32     4.3296    1.0092    8.4543 C.ar     1 ZINC000003795331   -0.1100
33     C33     3.1131    1.2077    7.8287 C.ar     1 ZINC000003795331   -0.1100
34     C34     2.8190    0.5324    6.6590 C.ar     1 ZINC000003795331   -0.1300
35     C35     1.9185   -1.1460    4.7715 C.3      1 ZINC000003795331   -0.0700
36     H36     1.5115   -0.7515    5.7025 H        1 ZINC000003795331    0.1200
37     C37     1.4367   -2.6036    4.6359 C.3      1 ZINC000003795331    0.0600
38     H38    -2.5669   -8.1242    3.3758 H        1 ZINC000003795331    0.1100
39     H39    -3.0406   -7.8530    1.6816 H        1 ZINC000003795331    0.0700
40     H40    -1.3213   -8.0283    2.1079 H        1 ZINC000003795331    0.0600
41     H41    -1.6998   -7.1553    0.2376 H        1 ZINC000003795331    0.1400
42     H42    -1.0781   -5.7864   -1.7116 H        1 ZINC000003795331    0.1400
43     H43    -0.8740   -3.3440   -1.4877 H        1 ZINC000003795331    0.1400
44     H44    -1.2912   -2.2645    0.6848 H        1 ZINC000003795331    0.1400
45     H45    -2.2169   -2.3826    2.8569 H        1 ZINC000003795331    0.1300
46     H46    -2.8389   -3.9203    3.5026 H        1 ZINC000003795331    0.1400
47     H47    -0.0432   -1.4012    2.1725 H        1 ZINC000003795331    0.1200
48     H48    -0.8729   -0.7489    3.6114 H        1 ZINC000003795331    0.1100
49     H49     4.1594    0.1068    1.7280 H        1 ZINC000003795331    0.1000
50     H50     3.4480    1.2676    2.8716 H        1 ZINC000003795331    0.1100
51     H51     4.8750   -1.2843    3.3560 H        1 ZINC000003795331    0.0900
52     H52     4.9305    0.2298    4.2477 H        1 ZINC000003795331    0.0900
53     H53     4.3386   -2.8043    2.9763 H        1 ZINC000003795331    0.1300
54     H54     5.1381   -5.1101    3.3037 H        1 ZINC000003795331    0.1300
55     H55     5.1536   -6.0994    5.5585 H        1 ZINC000003795331    0.1300
56     H56     4.3703   -4.7826    7.4861 H        1 ZINC000003795331    0.1300
57     H57     3.5752   -2.4752    7.1594 H        1 ZINC000003795331    0.1300
58     H58     5.6744   -1.2313    6.3213 H        1 ZINC000003795331    0.1200
59     H59     6.2011   -0.0228    8.4010 H        1 ZINC000003795331    0.1300
60     H60     4.5604    1.5388    9.3668 H        1 ZINC000003795331    0.1300
61     H61     2.3934    1.8925    8.2525 H        1 ZINC000003795331    0.1300
62     H62     1.8685    0.6875    6.1702 H        1 ZINC000003795331    0.1300
63     H63     1.3168   -3.0508    5.6227 H        1 ZINC000003795331    0.1000
64     H64     2.1512   -3.1801    4.0484 H        1 ZINC000003795331    0.1100
@<TRIPOS>BOND
1     1     2     1
2     1     38    1
3     1     39    1
4     1     40    1
5     2     3     1
6     3     8     ar
7     3     4     ar
8     4     5     ar
9     4     41    1
10    5     6     ar
11    5     42    1
12    6     7     ar
13    6     43    1
14    7     8     ar
15    7     44    1
16    8     9     1
17    9     10    1
18    9     45    1
19    9     46    1
20    10    11    ar
21    10    14    ar
22    11    12    1
23    11    13    1
24    14    37    1
25    14    15    1
26    15    16    1
27    15    47    1
28    15    48    1
29    16    17    1
30    16    35    1
31    16    18    1
32    18    19    2
33    18    20    1
34    20    21    1
35    20    49    1
36    20    50    1
37    21    22    1
38    21    51    1
39    21    52    1
40    22    23    1
41    22    29    1
42    22    35    1
43    23    28    ar
44    23    24    ar
45    24    25    ar
46    24    53    1
47    25    26    ar
48    25    54    1
49    26    27    ar
50    26    55    1
51    27    28    ar
52    27    56    1
53    28    57    1
54    29    34    ar
55    29    30    ar
56    30    31    ar
57    30    58    1
58    31    32    ar
59    31    59    1
60    32    33    ar
61    32    60    1
62    33    34    ar
63    33    61    1
64    34    62    1
65    35    36    1
66    35    37    1
67    37    63    1
68    37    64    1
@<TRIPOS>SUBSTRUCTURE
1   ZINC000003795331 1     RESIDUE    1   A     ZIN   1
