@<TRIPOS>MOLECULE
ZINC000058660990
59    63    1     0     0
SMALL
USER_CHARGES
@<TRIPOS>ATOM
1      O1      0.6346   -0.2693   -1.0757 O.co2    1 ZINC000058660990   -0.6700
2      C2      0.7309    0.9342   -1.2451 C.2      1 ZINC000058660990    0.5000
3      O3      1.8294    1.4441   -1.3858 O.co2    1 ZINC000058660990   -0.6900
4      C4     -0.5083    1.7908   -1.2868 C.3      1 ZINC000058660990    0.0600
5      H5     -0.4802    2.4277   -2.1709 H        1 ZINC000058660990    0.0900
6      C6     -0.5676    2.6634   -0.0314 C.3      1 ZINC000058660990    0.1300
7      N7     -1.8293    3.4077   -0.0131 N.am     1 ZINC000058660990   -0.7200
8      C8     -2.1023    4.2464    1.0059 C.2      1 ZINC000058660990    0.5800
9      O9     -1.3006    4.3855    1.9110 O.2      1 ZINC000058660990   -0.5300
10     C10    -3.3647    4.9911    1.0242 C.2      1 ZINC000058660990   -0.2600
11     C11    -3.7519    5.8713    1.9951 C.2      1 ZINC000058660990   -0.0600
12     C12    -4.9861    6.4298    1.7618 C.2      1 ZINC000058660990   -0.1500
13     C13    -5.5905    6.0226    0.6394 C.2      1 ZINC000058660990   -0.2300
14     S14    -4.6201    4.9007   -0.2036 S.3      1 ZINC000058660990    0.2000
15     N15    -1.6939    0.9320   -1.3410 N.am     1 ZINC000058660990   -0.6800
16     C16    -2.1338    0.4646   -2.5262 C.2      1 ZINC000058660990    0.5700
17     O17    -1.5466    0.7555   -3.5501 O.2      1 ZINC000058660990   -0.5200
18     C18    -3.3291   -0.4012   -2.5809 C.ar     1 ZINC000058660990   -0.0900
19     C19    -4.5989    0.1604   -2.7374 C.ar     1 ZINC000058660990    0.0000
20     Cl20   -4.7827    1.8812   -2.8747 Cl       1 ZINC000058660990   -0.0400
21     C21    -5.7046   -0.6613   -2.7824 C.ar     1 ZINC000058660990   -0.1000
22     C22    -5.5701   -2.0398   -2.6725 C.ar     1 ZINC000058660990   -0.0700
23     C23    -6.8292   -2.8703   -2.7037 C.3      1 ZINC000058660990    0.1400
24     N24    -6.4827   -4.2892   -2.8367 N.am     1 ZINC000058660990   -0.6100
25     C25    -7.1407   -5.0938   -3.6947 C.2      1 ZINC000058660990    0.5700
26     O26    -6.7645   -6.2373   -3.8657 O.2      1 ZINC000058660990   -0.5200
27     C27    -8.3178   -4.5869   -4.4268 C.ar     1 ZINC000058660990   -0.1100
28     C28    -8.5678   -5.0258   -5.7336 C.ar     1 ZINC000058660990   -0.0800
29     C29    -9.6523   -4.5631   -6.4185 C.ar     1 ZINC000058660990   -0.0800
30     C30   -10.5183   -3.6484   -5.8156 C.ar     1 ZINC000058660990   -0.1100
31     C31   -11.7408   -2.9634   -6.2455 C.2      1 ZINC000058660990   -0.2200
32     C32   -12.1231   -2.1957   -5.2135 C.2      1 ZINC000058660990    0.0200
33     O33   -11.2643   -2.3343   -4.1898 O.3      1 ZINC000058660990   -0.1900
34     C34   -10.2786   -3.1999   -4.5034 C.ar     1 ZINC000058660990    0.0400
35     C35    -9.1779   -3.6783   -3.8122 C.ar     1 ZINC000058660990   -0.0800
36     C36    -5.3871   -4.7992   -1.9959 C.3      1 ZINC000058660990    0.1100
37     C37    -4.1018   -4.0897   -2.4187 C.3      1 ZINC000058660990   -0.1000
38     C38    -4.3203   -2.6032   -2.5269 C.ar     1 ZINC000058660990   -0.0600
39     C39    -3.1989   -1.7861   -2.4825 C.ar     1 ZINC000058660990    0.0000
40     Cl40   -1.6243   -2.4928   -2.2958 Cl       1 ZINC000058660990    0.0000
41     H41    -0.5062    2.0307    0.8541 H        1 ZINC000058660990    0.0800
42     H42     0.2675    3.3639   -0.0360 H        1 ZINC000058660990    0.0900
43     H43    -2.4683    3.2968   -0.7345 H        1 ZINC000058660990    0.4000
44     H44    -3.1484    6.1046    2.8599 H        1 ZINC000058660990    0.1500
45     H45    -5.4354    7.1447    2.4352 H        1 ZINC000058660990    0.1400
46     H46    -6.5611    6.3621    0.3092 H        1 ZINC000058660990    0.1700
47     H47    -2.1624    0.6999   -0.5240 H        1 ZINC000058660990    0.3900
48     H48    -6.6866   -0.2288   -2.9042 H        1 ZINC000058660990    0.1500
49     H49    -7.3868   -2.7183   -1.7795 H        1 ZINC000058660990    0.0900
50     H50    -7.4435   -2.5660   -3.5511 H        1 ZINC000058660990    0.1100
51     H51    -7.8986   -5.7333   -6.2006 H        1 ZINC000058660990    0.1400
52     H52    -9.8412   -4.9034   -7.4259 H        1 ZINC000058660990    0.1400
53     H53   -12.2348   -3.0575   -7.2014 H        1 ZINC000058660990    0.1600
54     H54   -12.9950   -1.5585   -5.2068 H        1 ZINC000058660990    0.2100
55     H55    -8.9850   -3.3463   -2.8028 H        1 ZINC000058660990    0.1400
56     H56    -5.5975   -4.5876   -0.9475 H        1 ZINC000058660990    0.0800
57     H57    -5.2800   -5.8741   -2.1416 H        1 ZINC000058660990    0.1100
58     H58    -3.3248   -4.2849   -1.6796 H        1 ZINC000058660990    0.1000
59     H59    -3.7806   -4.4761   -3.3859 H        1 ZINC000058660990    0.0900
@<TRIPOS>BOND
1     1     2     ar
2     2     3     ar
3     2     4     1
4     4     5     1
5     4     6     1
6     4     15    1
7     6     7     1
8     6     41    1
9     6     42    1
10    7     8     am
11    7     43    1
12    8     9     2
13    8     10    1
14    10    14    1
15    10    11    2
16    11    12    1
17    11    44    1
18    12    13    2
19    12    45    1
20    13    14    1
21    13    46    1
22    15    16    am
23    15    47    1
24    16    17    2
25    16    18    1
26    18    39    ar
27    18    19    ar
28    19    20    1
29    19    21    ar
30    21    22    ar
31    21    48    1
32    22    38    ar
33    22    23    1
34    23    24    1
35    23    49    1
36    23    50    1
37    24    25    am
38    24    36    1
39    25    26    2
40    25    27    1
41    27    35    ar
42    27    28    ar
43    28    29    ar
44    28    51    1
45    29    30    ar
46    29    52    1
47    30    34    ar
48    30    31    1
49    31    32    2
50    31    53    1
51    32    33    1
52    32    54    1
53    33    34    1
54    34    35    ar
55    35    55    1
56    36    37    1
57    36    56    1
58    36    57    1
59    37    38    1
60    37    58    1
61    37    59    1
62    38    39    ar
63    39    40    1
@<TRIPOS>SUBSTRUCTURE
1   ZINC000058660990 1     RESIDUE    1   A     ZIN   1
