@<TRIPOS>MOLECULE
ZINC000003776592
  58   60    0    0    0
SMALL
USER_CHARGES
NO_NAME
@<TRIPOS>ATOM
    1 C1       -0.0179     1.4678     0.0101 C.3    1 <0>      -0.0400
    2 C2        0.0021    -0.0041     0.0020 C.1    1 <0>      -0.2000
    3 C3        0.0180    -1.1779    -0.0044 C.1    1 <0>      -0.1800
    4 C4        0.0380    -2.6498    -0.0125 C.3    1 <0>       0.0000
    5 C5       -1.3974    -3.1794    -0.0017 C.3    1 <0>      -0.1100
    6 H6       -1.9342    -2.7566     0.8476 H      1 <0>       0.0800
    7 C7       -2.0993    -2.7769    -1.3002 C.3    1 <0>      -0.1500
    8 C8       -1.3774    -4.7047     0.1157 C.3    1 <0>       0.1400
    9 H9       -0.8773    -4.9914     1.0408 H      1 <0>       0.1100
   10 O10      -0.6736    -5.2589    -0.9977 O.3    1 <0>      -0.5600
   11 C11      -2.7912    -5.2263     0.1264 C.2    1 <0>      -0.1800
   12 C12      -3.1616    -6.1325    -0.7441 C.2    1 <0>      -0.1400
   13 C13      -4.5754    -6.6542    -0.7334 C.3    1 <0>      -0.0400
   14 H14      -5.1503    -6.1617     0.0509 H      1 <0>       0.0900
   15 C15      -5.2357    -6.4181    -2.0996 C.3    1 <0>       0.1100
   16 H16      -4.4712    -6.2301    -2.8535 H      1 <0>       0.0600
   17 O17      -6.1271    -5.3038    -2.0228 O.3    1 <0>      -0.5600
   18 C18      -6.0156    -7.6921    -2.4529 C.3    1 <0>      -0.1600
   19 C19      -5.8139    -8.6877    -1.3040 C.3    1 <0>       0.0800
   20 H20      -5.6911    -9.7108    -1.6594 H      1 <0>       0.1000
   21 O21      -6.8819    -8.5632    -0.3526 O.3    1 <0>      -0.2900
   22 C22      -6.3766    -8.6935     0.9051 C.ar   1 <0>       0.1100
   23 C23      -7.0211    -9.0090     2.0983 C.ar   1 <0>      -0.0900
   24 C24      -8.5048    -9.2732     2.1032 C.3    1 <0>      -0.0800
   25 C25      -8.7631   -10.7382     1.7456 C.3    1 <0>      -0.0800
   26 C26     -10.2694   -11.0064     1.7506 C.3    1 <0>      -0.1800
   27 C27     -10.5238   -12.4495     1.3984 C.2    1 <0>       0.4900
   28 O28      -9.5872   -13.1943     1.1651 O.co2  1 <0>      -0.7000
   29 O29     -11.6663   -12.8721     1.3469 O.co2  1 <0>      -0.7100
   30 C30      -6.3061    -9.0810     3.2761 C.ar   1 <0>      -0.0800
   31 C31      -4.9446    -8.8412     3.2826 C.ar   1 <0>      -0.1500
   32 C32      -4.2958    -8.5311     2.1001 C.ar   1 <0>      -0.0800
   33 C33      -5.0069    -8.4622     0.9230 C.ar   1 <0>      -0.1700
   34 C34      -4.5759    -8.1781    -0.5127 C.3    1 <0>      -0.0600
   35 H35      -3.6420    -8.6677    -0.7888 H      1 <0>       0.1100
   36 H36       1.0047     1.8451     0.0024 H      1 <0>       0.0800
   37 H37      -0.5451     1.8289    -0.8729 H      1 <0>       0.0800
   38 H38      -0.5281     1.8193     0.9069 H      1 <0>       0.0800
   39 H39       0.5481    -3.0013    -0.9093 H      1 <0>       0.0900
   40 H40       0.5651    -3.0109     0.8705 H      1 <0>       0.0900
   41 H41      -3.1219    -3.1542    -1.2925 H      1 <0>       0.0600
   42 H42      -2.1136    -1.6902    -1.3838 H      1 <0>       0.0600
   43 H43      -1.5625    -3.1997    -2.1495 H      1 <0>       0.0500
   44 H44      -1.0636    -5.0439    -1.8561 H      1 <0>       0.3700
   45 H45      -3.4990    -4.8531     0.8517 H      1 <0>       0.1200
   46 H46      -2.4538    -6.5058    -1.4694 H      1 <0>       0.1200
   47 H47      -6.5769    -5.1020    -2.8547 H      1 <0>       0.3800
   48 H48      -7.0752    -7.4598    -2.5597 H      1 <0>       0.0900
   49 H49      -5.6322    -8.1154    -3.3813 H      1 <0>       0.0900
   50 H50      -8.9077    -9.0646     3.0943 H      1 <0>       0.0700
   51 H51      -8.9909    -8.6292     1.3704 H      1 <0>       0.0700
   52 H52      -8.3602   -10.9468     0.7546 H      1 <0>       0.0600
   53 H53      -8.2769   -11.3822     2.4784 H      1 <0>       0.0600
   54 H54     -10.6723   -10.7979     2.7417 H      1 <0>       0.0600
   55 H55     -10.7556   -10.3624     1.0179 H      1 <0>       0.0600
   56 H56      -6.8127    -9.3257     4.1980 H      1 <0>       0.1300
   57 H57      -4.3891    -8.8961     4.2071 H      1 <0>       0.1200
   58 H58      -3.2323    -8.3431     2.1005 H      1 <0>       0.1200
@<TRIPOS>BOND
   1    1    2 1
   2    1   36 1
   3    1   37 1
   4    1   38 1
   5    2    3 3
   6    3    4 1
   7    4    5 1
   8    4   39 1
   9    4   40 1
  10    5    6 1
  11    5    7 1
  12    5    8 1
  13    7   41 1
  14    7   42 1
  15    7   43 1
  16    8    9 1
  17    8   10 1
  18    8   11 1
  19   10   44 1
  20   11   12 2
  21   11   45 1
  22   12   13 1
  23   12   46 1
  24   13   14 1
  25   13   34 1
  26   13   15 1
  27   15   16 1
  28   15   17 1
  29   15   18 1
  30   17   47 1
  31   18   19 1
  32   18   48 1
  33   18   49 1
  34   19   20 1
  35   19   34 1
  36   19   21 1
  37   21   22 1
  38   22   33 ar
  39   22   23 ar
  40   23   24 1
  41   23   30 ar
  42   24   25 1
  43   24   50 1
  44   24   51 1
  45   25   26 1
  46   25   52 1
  47   25   53 1
  48   26   27 1
  49   26   54 1
  50   26   55 1
  51   27   28 ar
  52   27   29 ar
  53   30   31 ar
  54   30   56 1
  55   31   32 ar
  56   31   57 1
  57   32   33 ar
  58   32   58 1
  59   33   34 1
  60   34   35 1
