@<TRIPOS>MOLECULE
ZINC000090650484
49    52    1     0     0
SMALL
USER_CHARGES
@<TRIPOS>ATOM
1      C1     -0.0186    1.5195    0.0104 C.3      1 ZINC000090650484   -0.1700
2      C2      0.0021   -0.0041    0.0020 C.3      1 ZINC000090650484   -0.0700
3      H3      0.4390   -0.3390   -0.9505 H        1 ZINC000090650484    0.0700
4      C4     -1.4573   -0.4993    0.0026 C.3      1 ZINC000090650484   -0.1000
5      C5     -2.0603   -0.1564    1.3514 C.2      1 ZINC000090650484   -0.0200
6      C6     -3.1939    0.5458    1.3647 C.2      1 ZINC000090650484   -0.2500
7      C7     -3.8224    0.8840    2.6476 C.2      1 ZINC000090650484    0.3900
8      O8     -4.5671    1.8302    2.7703 O.2      1 ZINC000090650484   -0.4600
9      C9     -3.4790   -0.0279    3.8116 C.3      1 ZINC000090650484   -0.1700
10     C10    -1.9509   -0.0958    3.8799 C.3      1 ZINC000090650484   -0.1100
11     C11    -1.3604   -0.6299    2.5863 C.3      1 ZINC000090650484   -0.0600
12     H12    -1.4860   -1.7245    2.6156 H        1 ZINC000090650484    0.0800
13     C13     0.1391   -0.3608    2.5294 C.3      1 ZINC000090650484   -0.0600
14     H14     0.6124   -1.0923    3.2291 H        1 ZINC000090650484    0.0700
15     C15     0.5033    1.0224    3.0397 C.3      1 ZINC000090650484   -0.1100
16     C16     2.0116    1.1824    3.1259 C.3      1 ZINC000090650484   -0.0900
17     C17     2.8127    0.6785    1.9583 C.3      1 ZINC000090650484   -0.0400
18     C18     4.1516    0.1698    2.5661 C.3      1 ZINC000090650484   -0.1500
19     C19     3.2077    1.7812    0.9706 C.3      1 ZINC000090650484    0.1100
20     H20     4.2371    2.1034    1.1899 H        1 ZINC000090650484    0.0500
21     O21     2.3433    2.9094    1.0708 O.3      1 ZINC000090650484   -0.5500
22     C22     3.1629    1.1645   -0.4349 C.3      1 ZINC000090650484   -0.1600
23     C23     2.7835   -0.3174   -0.2747 C.3      1 ZINC000090650484   -0.1200
24     C24     2.2418   -0.4851    1.1604 C.3      1 ZINC000090650484   -0.0600
25     H25     2.6761   -1.4382    1.5869 H        1 ZINC000090650484    0.0700
26     C26     0.7349   -0.6347    1.1616 C.3      1 ZINC000090650484   -0.0600
27     H27     0.5710   -1.7497    1.0188 H        1 ZINC000090650484    0.0500
28     H28     1.0032    1.8965    0.0531 H        1 ZINC000090650484    0.0900
29     H29    -0.5017    1.8813   -0.8972 H        1 ZINC000090650484    0.0400
30     H30    -0.5721    1.8705    0.8813 H        1 ZINC000090650484    0.0600
31     H31    -2.0063    0.0035   -0.7895 H        1 ZINC000090650484    0.0800
32     H32    -1.4716   -1.5753   -0.1499 H        1 ZINC000090650484    0.0800
33     H33    -3.6465    0.8643    0.4395 H        1 ZINC000090650484    0.1300
34     H34    -3.8725    0.3859    4.7374 H        1 ZINC000090650484    0.0900
35     H35    -3.8866   -1.0219    3.6366 H        1 ZINC000090650484    0.1000
36     H36    -1.5773    0.9092    4.0657 H        1 ZINC000090650484    0.0800
37     H37    -1.6624   -0.7501    4.7002 H        1 ZINC000090650484    0.0800
38     H38     0.0487    1.8200    2.4694 H        1 ZINC000090650484    0.0800
39     H39     0.1154    1.1232    4.0755 H        1 ZINC000090650484    0.0500
40     H40     2.2429    2.2457    3.2793 H        1 ZINC000090650484    0.0700
41     H41     2.3618    0.6623    4.0316 H        1 ZINC000090650484    0.0500
42     H42     3.9474   -0.6341    3.2733 H        1 ZINC000090650484    0.0600
43     H43     4.7944   -0.2026    1.7684 H        1 ZINC000090650484    0.0500
44     H44     4.6510    0.9897    3.0822 H        1 ZINC000090650484    0.0600
45     H45     2.5618    3.6277    0.4613 H        1 ZINC000090650484    0.3800
46     H46     2.4453    1.6840   -1.0668 H        1 ZINC000090650484    0.0800
47     H47     4.1543    1.2390   -0.8996 H        1 ZINC000090650484    0.0600
48     H48     2.0677   -0.6267   -1.0319 H        1 ZINC000090650484    0.0800
49     H49     3.6873   -0.9382   -0.4049 H        1 ZINC000090650484    0.0600
@<TRIPOS>BOND
1     1     2     1
2     1     28    1
3     1     29    1
4     1     30    1
5     2     3     1
6     2     26    1
7     2     4     1
8     4     5     1
9     4     31    1
10    4     32    1
11    5     11    1
12    5     6     2
13    6     7     1
14    6     33    1
15    7     8     2
16    7     9     1
17    9     10    1
18    9     34    1
19    9     35    1
20    10    11    1
21    10    36    1
22    10    37    1
23    11    12    1
24    11    13    1
25    13    14    1
26    13    26    1
27    13    15    1
28    15    16    1
29    15    38    1
30    15    39    1
31    16    17    1
32    16    40    1
33    16    41    1
34    17    24    1
35    17    18    1
36    17    19    1
37    18    42    1
38    18    43    1
39    18    44    1
40    19    20    1
41    19    21    1
42    19    22    1
43    21    45    1
44    22    23    1
45    22    46    1
46    22    47    1
47    23    24    1
48    23    48    1
49    23    49    1
50    24    25    1
51    24    26    1
52    26    27    1
@<TRIPOS>SUBSTRUCTURE
1   ZINC000090650484 1     RESIDUE    1   A     ZIN   1
