@<TRIPOS>MOLECULE
ZINC000003930890
76    79    1     0     0
SMALL
USER_CHARGES
@<TRIPOS>ATOM
1      C1      0.3375   -2.1264    0.3106 C.3      1 ZINC000003930890   -0.1500
2      C2      0.6766   -2.7767   -1.0321 C.3      1 ZINC000003930890    0.0500
3      O3     -0.4812   -2.7716   -1.8697 O.3      1 ZINC000003930890   -0.3800
4      C4     -0.2440   -3.2584   -3.1921 C.3      1 ZINC000003930890    0.2200
5      C5     -1.5338   -3.8607   -3.7529 C.3      1 ZINC000003930890    0.1300
6      N6     -2.5767   -2.8325   -3.7907 N.am     1 ZINC000003930890   -0.5400
7      C7     -3.4226   -2.5860   -2.7762 C.2      1 ZINC000003930890    0.5300
8      O8     -3.4516   -3.1582   -1.7072 O.2      1 ZINC000003930890   -0.4400
9      C9     -4.3323   -1.4594   -3.2180 C.3      1 ZINC000003930890    0.2400
10     C10    -4.1699   -0.2473   -2.2986 C.3      1 ZINC000003930890   -0.1400
11     C11    -5.1930    0.7984   -2.6605 C.2      1 ZINC000003930890    0.5300
12     O12    -6.0680    0.5397   -3.4595 O.2      1 ZINC000003930890   -0.5100
13     N13    -5.1355    2.0210   -2.0962 N.am     1 ZINC000003930890   -0.6700
14     C14    -6.1532    2.9509   -2.3364 C.ar     1 ZINC000003930890    0.1400
15     C15    -7.4620    2.5205   -2.5105 C.ar     1 ZINC000003930890   -0.1100
16     C16    -8.4642    3.4408   -2.7474 C.ar     1 ZINC000003930890   -0.1000
17     C17    -8.1655    4.7895   -2.8117 C.ar     1 ZINC000003930890   -0.1000
18     C18    -9.2614    5.7909   -3.0709 C.3      1 ZINC000003930890   -0.1100
19     C19    -6.8633    5.2212   -2.6383 C.ar     1 ZINC000003930890   -0.1000
20     C20    -5.8574    4.3064   -2.3954 C.ar     1 ZINC000003930890   -0.1400
21     N21    -5.7280   -1.9041   -3.2372 N.am     1 ZINC000003930890   -0.7100
22     C22    -6.3032   -2.3673   -2.1098 C.2      1 ZINC000003930890    0.7000
23     O23    -5.6960   -2.3282   -1.0572 O.2      1 ZINC000003930890   -0.5400
24     N24    -7.5516   -2.8738   -2.1492 N.am     1 ZINC000003930890   -0.6900
25     C25    -8.1987   -3.2333   -0.9616 C.ar     1 ZINC000003930890    0.1700
26     C26    -7.9690   -2.5110    0.2020 C.ar     1 ZINC000003930890   -0.1100
27     C27    -8.6096   -2.8680    1.3724 C.ar     1 ZINC000003930890   -0.1000
28     C28    -9.4788   -3.9434    1.3863 C.ar     1 ZINC000003930890   -0.1100
29     C29   -10.1761   -4.3301    2.6651 C.3      1 ZINC000003930890   -0.1100
30     C30    -9.7100   -4.6643    0.2291 C.ar     1 ZINC000003930890   -0.1000
31     C31    -9.0762   -4.3094   -0.9456 C.ar     1 ZINC000003930890   -0.1500
32     C32    -3.8588   -1.1313   -4.6153 C.ar     1 ZINC000003930890   -0.1600
33     C33    -4.2697   -0.2089   -5.5506 C.ar     1 ZINC000003930890   -0.0500
34     C34    -3.6305   -0.1371   -6.7765 C.ar     1 ZINC000003930890   -0.1500
35     C35    -2.5813   -0.9929   -7.0562 C.ar     1 ZINC000003930890   -0.0700
36     C36    -2.1677   -1.9188   -6.1205 C.ar     1 ZINC000003930890   -0.1300
37     C37    -2.8018   -1.9928   -4.8821 C.ar     1 ZINC000003930890    0.1800
38     O38     0.1806   -2.1797   -4.0277 O.3      1 ZINC000003930890   -0.3800
39     C39     1.5241   -1.7546   -3.7902 C.3      1 ZINC000003930890    0.0500
40     C40     1.9239   -0.7167   -4.8408 C.3      1 ZINC000003930890   -0.1500
41     H41     1.2206   -2.1302    0.9495 H        1 ZINC000003930890    0.0700
42     H42     0.0132   -1.0990    0.1452 H        1 ZINC000003930890    0.0600
43     H43    -0.4629   -2.6867    0.7938 H        1 ZINC000003930890    0.0700
44     H44     1.4770   -2.2163   -1.5153 H        1 ZINC000003930890    0.0500
45     H45     1.0009   -3.8041   -0.8667 H        1 ZINC000003930890    0.0500
46     H46     0.5320   -4.0234   -3.1640 H        1 ZINC000003930890    0.0700
47     H47    -1.3529   -4.2319   -4.7616 H        1 ZINC000003930890    0.1100
48     H48    -1.8577   -4.6834   -3.1155 H        1 ZINC000003930890    0.1100
49     H49    -4.3153   -0.5548   -1.2630 H        1 ZINC000003930890    0.1300
50     H50    -3.1689    0.1674   -2.4174 H        1 ZINC000003930890    0.1000
51     H51    -4.3888    2.2564   -1.5237 H        1 ZINC000003930890    0.4100
52     H52    -7.6959    1.4673   -2.4611 H        1 ZINC000003930890    0.1300
53     H53    -9.4823    3.1068   -2.8829 H        1 ZINC000003930890    0.1200
54     H54    -9.6879    6.1165   -2.1221 H        1 ZINC000003930890    0.0700
55     H55    -8.8500    6.6513   -3.5987 H        1 ZINC000003930890    0.0700
56     H56   -10.0390    5.3291   -3.6794 H        1 ZINC000003930890    0.0700
57     H57    -6.6331    6.2752   -2.6891 H        1 ZINC000003930890    0.1300
58     H58    -4.8406    4.6442   -2.2601 H        1 ZINC000003930890    0.1200
59     H59    -6.2381   -1.8652   -4.0613 H        1 ZINC000003930890    0.4100
60     H60    -8.0015   -2.9892   -3.0008 H        1 ZINC000003930890    0.4100
61     H61    -7.2900   -1.6713    0.1919 H        1 ZINC000003930890    0.1300
62     H62    -8.4311   -2.3069    2.2778 H        1 ZINC000003930890    0.1200
63     H63   -11.1236   -3.7963    2.7380 H        1 ZINC000003930890    0.0700
64     H64   -10.3629   -5.4040    2.6666 H        1 ZINC000003930890    0.0600
65     H65    -9.5460   -4.0698    3.5155 H        1 ZINC000003930890    0.0600
66     H66   -10.3897   -5.5034    0.2431 H        1 ZINC000003930890    0.1200
67     H67    -9.2574   -4.8726   -1.8491 H        1 ZINC000003930890    0.1200
68     H68    -5.0899    0.4577   -5.3286 H        1 ZINC000003930890    0.1400
69     H69    -3.9509    0.5854   -7.5126 H        1 ZINC000003930890    0.1300
70     H70    -2.0829   -0.9367   -8.0127 H        1 ZINC000003930890    0.1300
71     H71    -1.3478   -2.5843   -6.3468 H        1 ZINC000003930890    0.1300
72     H72     1.5948   -1.3118   -2.7967 H        1 ZINC000003930890    0.0600
73     H73     2.1934   -2.6126   -3.8541 H        1 ZINC000003930890    0.0500
74     H74     2.9486   -0.3924   -4.6596 H        1 ZINC000003930890    0.0700
75     H75     1.8532   -1.1594   -5.8343 H        1 ZINC000003930890    0.0600
76     H76     1.2546    0.1413   -4.7769 H        1 ZINC000003930890    0.0600
@<TRIPOS>BOND
1     1     2     1
2     1     41    1
3     1     42    1
4     1     43    1
5     2     3     1
6     2     44    1
7     2     45    1
8     3     4     1
9     4     5     1
10    4     38    1
11    4     46    1
12    5     6     1
13    5     47    1
14    5     48    1
15    6     37    1
16    6     7     am
17    7     8     2
18    7     9     1
19    9     10    1
20    9     21    1
21    9     32    1
22    10    11    1
23    10    49    1
24    10    50    1
25    11    12    2
26    11    13    am
27    13    14    1
28    13    51    1
29    14    20    ar
30    14    15    ar
31    15    16    ar
32    15    52    1
33    16    17    ar
34    16    53    1
35    17    18    1
36    17    19    ar
37    18    54    1
38    18    55    1
39    18    56    1
40    19    20    ar
41    19    57    1
42    20    58    1
43    21    22    am
44    21    59    1
45    22    23    2
46    22    24    am
47    24    25    1
48    24    60    1
49    25    31    ar
50    25    26    ar
51    26    27    ar
52    26    61    1
53    27    28    ar
54    27    62    1
55    28    29    1
56    28    30    ar
57    29    63    1
58    29    64    1
59    29    65    1
60    30    31    ar
61    30    66    1
62    31    67    1
63    32    37    ar
64    32    33    ar
65    33    34    ar
66    33    68    1
67    34    35    ar
68    34    69    1
69    35    36    ar
70    35    70    1
71    36    37    ar
72    36    71    1
73    38    39    1
74    39    40    1
75    39    72    1
76    39    73    1
77    40    74    1
78    40    75    1
79    40    76    1
@<TRIPOS>SUBSTRUCTURE
1   ZINC000003930890 1     RESIDUE    1   A     ZIN   1
