@<TRIPOS>MOLECULE
ZINC000072107957
  31   32    0    0    0
SMALL
USER_CHARGES
NO_NAME
@<TRIPOS>ATOM
    1 O1       -0.0173     1.4248     0.0099 O.3    1 <0>      -0.5600
    2 C2        0.0021    -0.0041     0.0020 C.3    1 <0>       0.0500
    3 C3       -1.4333    -0.5336     0.0129 C.3    1 <0>       0.0900
    4 H4       -1.9701    -0.1109     0.8621 H      1 <0>       0.1100
    5 O5       -2.0889    -0.1578    -1.2000 O.3    1 <0>      -0.5400
    6 C6       -1.4133    -2.0590     0.1302 C.3    1 <0>       0.0500
    7 H7       -0.8764    -2.4817    -0.7190 H      1 <0>       0.1200
    8 O8       -0.7577    -2.4349     1.3431 O.3    1 <0>      -0.5400
    9 C9       -2.8486    -2.5886     0.1411 C.3    1 <0>       0.1600
   10 H10      -3.3204    -2.3794    -0.8190 H      1 <0>       0.1400
   11 O11      -3.5854    -1.9465     1.1837 O.3    1 <0>      -0.5400
   12 C12      -2.8333    -4.0765     0.3797 C.2    1 <0>      -0.0300
   13 C13      -2.6700    -5.0375    -0.5541 C.2    1 <0>       0.0000
   14 N14      -2.7157    -6.2272     0.0536 N.2    1 <0>      -0.4500
   15 C15      -2.9028    -6.0487     1.3420 C.2    1 <0>       0.2800
   16 C16      -3.0092    -7.1192     2.3586 C.2    1 <0>       0.0900
   17 N17      -3.2007    -6.9669     3.6469 N.2    1 <0>      -0.3600
   18 O18      -3.2427    -8.0330     4.2156 O.3    1 <0>       0.1100
   19 C19      -3.0819    -9.0584     3.3671 C.2    1 <0>      -0.0500
   20 C20      -2.9305    -8.5234     2.1347 C.2    1 <0>      -0.1900
   21 N21      -2.9762    -4.7082     1.5834 N.pl3  1 <0>      -0.5400
   22 H22       0.8606     1.8301     0.0037 H      1 <0>       0.3800
   23 H23       0.5123    -0.3556    -0.8948 H      1 <0>       0.0500
   24 H24       0.5293    -0.3651     0.8851 H      1 <0>       0.0600
   25 H25      -1.6646    -0.4999    -1.9987 H      1 <0>       0.3700
   26 H26      -1.1820    -2.0928     2.1418 H      1 <0>       0.3700
   27 H27      -3.2216    -2.0900     2.0681 H      1 <0>       0.3700
   28 H28      -2.5268    -4.8732    -1.6118 H      1 <0>       0.1800
   29 H29      -3.0784   -10.1087     3.6186 H      1 <0>       0.2300
   30 H30      -2.7784    -9.0405     1.1988 H      1 <0>       0.1800
   31 H31      -3.1100    -4.2837     2.4452 H      1 <0>       0.4200
@<TRIPOS>BOND
   1    1    2 1
   2    1   22 1
   3    2    3 1
   4    2   23 1
   5    2   24 1
   6    3    4 1
   7    3    5 1
   8    3    6 1
   9    5   25 1
  10    6    7 1
  11    6    8 1
  12    6    9 1
  13    8   26 1
  14    9   10 1
  15    9   11 1
  16    9   12 1
  17   11   27 1
  18   12   21 1
  19   12   13 2
  20   13   14 1
  21   13   28 1
  22   14   15 2
  23   15   16 1
  24   15   21 1
  25   16   20 1
  26   16   17 2
  27   17   18 1
  28   18   19 1
  29   19   20 2
  30   19   29 1
  31   20   30 1
  32   21   31 1
