@<TRIPOS>MOLECULE
ZINC000008554292
  10   10    0    0    0
SMALL
USER_CHARGES
NO_NAME
@<TRIPOS>ATOM
    1 O1        0.0021    -0.0041     0.0020 O.2    1 <0>      -0.4600
    2 C2       -0.0144     1.2082     0.0087 C.2    1 <0>       0.5300
    3 C3       -1.2928     2.0171     0.0317 C.3    1 <0>      -0.1400
    4 S4       -0.6893     3.7391     0.0327 S.3    1 <0>      -0.1100
    5 C5        1.0225     3.2787     0.0053 C.2    1 <0>       0.5400
    6 O6        1.9701     4.0402    -0.0041 O.2    1 <0>      -0.4300
    7 N7        1.0835     1.9454     0.0022 N.am   1 <0>      -0.6800
    8 H8       -1.8906     1.8187    -0.8579 H      1 <0>       0.1600
    9 H9       -1.8646     1.8086     0.9360 H      1 <0>       0.1600
   10 H10       1.9496     1.5088    -0.0117 H      1 <0>       0.4200
@<TRIPOS>BOND
   1    1    2 2
   2    2    7 am
   3    2    3 1
   4    3    4 1
   5    3    8 1
   6    3    9 1
   7    4    5 1
   8    5    6 2
   9    5    7 am
  10    7   10 1
