@<TRIPOS>MOLECULE
ZINC000003784909
  38   40    0    0    0
SMALL
USER_CHARGES
NO_NAME
@<TRIPOS>ATOM
    1 C1       -0.0184     1.5028     0.0103 C.3    1 <0>      -0.0700
    2 C2        0.0021    -0.0041     0.0020 C.ar   1 <0>      -0.2800
    3 C3        0.0058    -0.6914    -1.2052 C.ar   1 <0>       0.3300
    4 O4       -0.0054     0.0009    -2.3720 O.3    1 <0>      -0.6800
    5 C5        0.0214    -2.0804    -1.2302 C.ar   1 <0>      -0.2700
    6 C6        0.0241    -2.8080    -2.5499 C.3    1 <0>      -0.0600
    7 C7        0.0348    -2.7977    -0.0474 C.ar   1 <0>       0.2200
    8 O8        0.0378    -4.1511    -0.0776 O.3    1 <0>      -0.3100
    9 C9        0.5269    -4.8602     1.0606 C.3    1 <0>       0.1500
   10 H10       1.5982    -4.6876     1.1640 H      1 <0>       0.0800
   11 C11       0.2698    -6.3345     0.8833 C.ar   1 <0>      -0.0700
   12 C12      -0.8720    -6.7619     0.2324 C.ar   1 <0>      -0.0800
   13 C13      -1.1127    -8.1137     0.0675 C.ar   1 <0>      -0.1300
   14 C14      -0.2081    -9.0427     0.5548 C.ar   1 <0>       0.0800
   15 O15      -0.4430   -10.3724     0.3932 O.3    1 <0>      -0.4900
   16 C16       0.9422    -8.6122     1.2100 C.ar   1 <0>       0.0800
   17 O17       1.8335    -9.5204     1.6897 O.3    1 <0>      -0.4900
   18 C18       1.1797    -7.2566     1.3672 C.ar   1 <0>      -0.1200
   19 C19      -0.1965    -4.3611     2.3199 C.3    1 <0>      -0.1900
   20 C20       0.0684    -2.8702     2.4291 C.2    1 <0>       0.4100
   21 O21       0.2934    -2.3387     3.4968 O.2    1 <0>      -0.4800
   22 C22       0.0391    -2.1049     1.1778 C.ar   1 <0>      -0.4000
   23 C23       0.0229    -0.7016     1.1968 C.ar   1 <0>       0.2200
   24 O24       0.0224    -0.0344     2.3775 O.3    1 <0>      -0.4900
   25 H25       1.0042     1.8801     0.0026 H      1 <0>       0.0400
   26 H26      -0.5455     1.8639    -0.8728 H      1 <0>       0.0600
   27 H27      -0.5286     1.8543     0.9071 H      1 <0>       0.0500
   28 H28       1.0524    -2.9718    -2.8723 H      1 <0>       0.0400
   29 H29      -0.4784    -3.7685    -2.4363 H      1 <0>       0.0400
   30 H30      -0.4995    -2.2098    -3.2957 H      1 <0>       0.0600
   31 H31      -1.5781    -6.0386    -0.1480 H      1 <0>       0.1400
   32 H32      -2.0061    -8.4450    -0.4409 H      1 <0>       0.1400
   33 H33      -0.0784   -10.7397    -0.4237 H      1 <0>       0.3900
   34 H34       2.5235    -9.7658     1.0583 H      1 <0>       0.3900
   35 H35       2.0714    -6.9200     1.8751 H      1 <0>       0.1400
   36 H36      -1.2675    -4.5420     2.2289 H      1 <0>       0.1000
   37 H37       0.1938    -4.8728     3.1996 H      1 <0>       0.1000
   38 H38       0.9056     0.1694     2.7145 H      1 <0>       0.3800
@<TRIPOS>BOND
   1    1    2 1
   2    1   25 1
   3    1   26 1
   4    1   27 1
   5    2   23 ar
   6    2    3 ar
   7    3    4 1
   8    3    5 ar
   9    5    6 1
  10    5    7 ar
  11    6   28 1
  12    6   29 1
  13    6   30 1
  14    7   22 ar
  15    7    8 1
  16    8    9 1
  17    9   10 1
  18    9   11 1
  19    9   19 1
  20   11   18 ar
  21   11   12 ar
  22   12   13 ar
  23   12   31 1
  24   13   14 ar
  25   13   32 1
  26   14   15 1
  27   14   16 ar
  28   15   33 1
  29   16   17 1
  30   16   18 ar
  31   17   34 1
  32   18   35 1
  33   19   20 1
  34   19   36 1
  35   19   37 1
  36   20   21 2
  37   20   22 1
  38   22   23 ar
  39   23   24 1
  40   24   38 1
