@<TRIPOS>MOLECULE
ZINC000253476137
85    86    1     0     0
SMALL
USER_CHARGES
@<TRIPOS>ATOM
1      C1      1.7435   -2.7526    0.6160 C.2      1 ZINC000253476137   -0.1600
2      C2      1.5751   -3.8988    0.0044 C.2      1 ZINC000253476137   -0.1900
3      C3      0.2041   -4.5203   -0.0673 C.3      1 ZINC000253476137    0.1400
4      N4     -0.1389   -4.7865   -1.4665 N.pl3    1 ZINC000253476137   -0.6900
5      C5     -1.3504   -5.3559   -1.7810 C.2      1 ZINC000253476137    0.2000
6      C6     -1.6912   -5.6100   -3.0656 C.2      1 ZINC000253476137   -0.2900
7      C7     -0.7631   -5.2632   -4.2059 C.3      1 ZINC000253476137   -0.0400
8      C8     -1.3778   -4.1204   -5.0182 C.3      1 ZINC000253476137   -0.0800
9      H9     -2.4597   -4.1434   -4.9015 H        1 ZINC000253476137    0.0900
10     C10    -0.8372   -2.7854   -4.4994 C.3      1 ZINC000253476137   -0.1500
11     C11    -1.0037   -4.2826   -6.4893 C.3      1 ZINC000253476137   -0.1200
12     C12    -1.9550   -3.4706   -7.3734 C.3      1 ZINC000253476137    0.1000
13     H13    -1.6664   -2.4194   -7.3520 H        1 ZINC000253476137    0.0700
14     O14    -3.2976   -3.6059   -6.9021 O.3      1 ZINC000253476137   -0.3600
15     C15    -3.8967   -2.3749   -6.4926 C.3      1 ZINC000253476137    0.0300
16     C16    -1.8693   -3.9850   -8.8120 C.3      1 ZINC000253476137    0.1000
17     H17    -1.9413   -5.0711   -8.8148 H        1 ZINC000253476137    0.0600
18     O18    -0.6236   -3.5866   -9.3846 O.3      1 ZINC000253476137   -0.5600
19     C19    -3.0174   -3.3969   -9.6425 C.3      1 ZINC000253476137   -0.0900
20     H20    -3.3729   -2.4927   -9.1563 H        1 ZINC000253476137    0.0900
21     C21    -2.4804   -3.0555  -11.0367 C.3      1 ZINC000253476137   -0.1500
22     C22    -4.1174   -4.4165   -9.7598 C.2      1 ZINC000253476137   -0.0900
23     C23    -5.3601   -4.0921  -10.0008 C.2      1 ZINC000253476137   -0.1600
24     C24    -5.7835   -2.6560  -10.1653 C.3      1 ZINC000253476137   -0.1100
25     C25    -6.3963   -5.1816  -10.1355 C.3      1 ZINC000253476137    0.1600
26     H26    -5.8953   -6.1504  -10.1470 H        1 ZINC000253476137    0.1000
27     O27    -7.1189   -5.0006  -11.3822 O.3      1 ZINC000253476137   -0.3500
28     C28    -6.6221   -5.6165  -12.4715 C.2      1 ZINC000253476137    0.6500
29     N29    -7.2447   -5.4895  -13.6601 N.am     1 ZINC000253476137   -0.8300
30     O30    -5.6125   -6.2868  -12.3831 O.2      1 ZINC000253476137   -0.5700
31     C31    -7.3776   -5.1274   -8.9643 C.3      1 ZINC000253476137    0.1300
32     H32    -7.7033   -4.1001   -8.7984 H        1 ZINC000253476137    0.0800
33     O33    -8.5204   -5.9339   -9.2629 O.3      1 ZINC000253476137   -0.3700
34     C34    -9.7293   -5.4777   -8.6526 C.3      1 ZINC000253476137    0.0300
35     C35    -6.7061   -5.6411   -7.7151 C.2      1 ZINC000253476137   -0.1500
36     C36    -6.9404   -6.8689   -7.2726 C.2      1 ZINC000253476137   -0.1100
37     C37    -6.3535   -7.4391   -6.0761 C.2      1 ZINC000253476137   -0.0100
38     C38    -6.1838   -6.8202   -4.8927 C.2      1 ZINC000253476137   -0.1700
39     C39    -6.7124   -5.4287   -4.6509 C.3      1 ZINC000253476137   -0.1200
40     C40    -5.4759   -7.4802   -3.8328 C.2      1 ZINC000253476137    0.5900
41     O41    -5.1216   -8.6206   -4.1205 O.2      1 ZINC000253476137   -0.4800
42     N42    -5.1257   -7.1113   -2.6161 N.am     1 ZINC000253476137   -0.6900
43     C43    -3.9094   -6.5479   -2.3001 C.2      1 ZINC000253476137    0.2000
44     C44    -3.5958   -6.2946   -1.0057 C.2      1 ZINC000253476137   -0.3000
45     C45    -2.2997   -5.6944   -0.6838 C.2      1 ZINC000253476137    0.4300
46     O46    -1.9966   -5.4734    0.4726 O.2      1 ZINC000253476137   -0.4400
47     C47    -2.9384   -6.2113   -3.3749 C.2      1 ZINC000253476137    0.4200
48     O48    -3.2028   -6.4521   -4.5369 O.2      1 ZINC000253476137   -0.4200
49     H49     2.7260   -2.3072    0.6673 H        1 ZINC000253476137    0.1100
50     H50     0.8990   -2.2510    1.0650 H        1 ZINC000253476137    0.1000
51     H51     2.4188   -4.3982   -0.4485 H        1 ZINC000253476137    0.1200
52     H52     0.1996   -5.4558    0.4922 H        1 ZINC000253476137    0.0900
53     H53    -0.5278   -3.8364    0.3624 H        1 ZINC000253476137    0.0800
54     H54     0.4886   -4.5611   -2.1710 H        1 ZINC000253476137    0.4100
55     H55     0.2140   -4.9634   -3.8384 H        1 ZINC000253476137    0.0600
56     H56    -0.6479   -6.1377   -4.8526 H        1 ZINC000253476137    0.0800
57     H57     0.2475   -2.7668   -4.6052 H        1 ZINC000253476137    0.0500
58     H58    -1.2725   -1.9687   -5.0753 H        1 ZINC000253476137    0.0500
59     H59    -1.1018   -2.6701   -3.4483 H        1 ZINC000253476137    0.0500
60     H60     0.0185   -3.9292   -6.6418 H        1 ZINC000253476137    0.0700
61     H61    -1.0604   -5.3361   -6.7672 H        1 ZINC000253476137    0.0700
62     H62    -3.3701   -1.9869   -5.6207 H        1 ZINC000253476137    0.0400
63     H63    -3.8343   -1.6521   -7.3061 H        1 ZINC000253476137    0.0400
64     H64    -4.9427   -2.5467   -6.2386 H        1 ZINC000253476137    0.0800
65     H65    -0.4994   -3.8785  -10.2981 H        1 ZINC000253476137    0.3800
66     H66    -2.1019   -3.9605  -11.5120 H        1 ZINC000253476137    0.0600
67     H67    -3.2834   -2.6356  -11.6425 H        1 ZINC000253476137    0.0600
68     H68    -1.6740   -2.3276  -10.9472 H        1 ZINC000253476137    0.0700
69     H69    -3.8725   -5.4709   -9.6403 H        1 ZINC000253476137    0.1100
70     H70    -4.9159   -2.0061  -10.0514 H        1 ZINC000253476137    0.0700
71     H71    -6.2151   -2.5157  -11.1563 H        1 ZINC000253476137    0.0700
72     H72    -6.5260   -2.4071   -9.4071 H        1 ZINC000253476137    0.0600
73     H73    -8.0507   -4.9544  -13.7308 H        1 ZINC000253476137    0.4100
74     H74    -6.8868   -5.9332  -14.4450 H        1 ZINC000253476137    0.4300
75     H75    -9.6112   -5.4759   -7.5691 H        1 ZINC000253476137    0.0400
76     H76    -9.9505   -4.4670   -8.9957 H        1 ZINC000253476137    0.0400
77     H77   -10.5485   -6.1421   -8.9277 H        1 ZINC000253476137    0.0900
78     H78    -6.0098   -4.9955   -7.1942 H        1 ZINC000253476137    0.1300
79     H79    -7.6207   -7.4991   -7.8498 H        1 ZINC000253476137    0.1300
80     H80    -6.0176   -8.4810   -6.1388 H        1 ZINC000253476137    0.1300
81     H81    -7.2114   -5.0682   -5.5504 H        1 ZINC000253476137    0.0700
82     H82    -7.4228   -5.4485   -3.8244 H        1 ZINC000253476137    0.0700
83     H83    -5.8851   -4.7637   -4.4031 H        1 ZINC000253476137    0.0700
84     H84    -5.7704   -7.2443   -1.8860 H        1 ZINC000253476137    0.4200
85     H85    -4.2985   -6.5361   -0.2223 H        1 ZINC000253476137    0.1500
@<TRIPOS>BOND
1     1     2     2
2     1     49    1
3     1     50    1
4     2     3     1
5     2     51    1
6     3     4     1
7     3     52    1
8     3     53    1
9     4     5     1
10    4     54    1
11    5     45    1
12    5     6     2
13    6     47    1
14    6     7     1
15    7     8     1
16    7     55    1
17    7     56    1
18    8     9     1
19    8     10    1
20    8     11    1
21    10    57    1
22    10    58    1
23    10    59    1
24    11    12    1
25    11    60    1
26    11    61    1
27    12    13    1
28    12    14    1
29    12    16    1
30    14    15    1
31    15    62    1
32    15    63    1
33    15    64    1
34    16    17    1
35    16    18    1
36    16    19    1
37    18    65    1
38    19    20    1
39    19    21    1
40    19    22    1
41    21    66    1
42    21    67    1
43    21    68    1
44    22    23    2
45    22    69    1
46    23    24    1
47    23    25    1
48    24    70    1
49    24    71    1
50    24    72    1
51    25    26    1
52    25    27    1
53    25    31    1
54    27    28    1
55    28    29    am
56    28    30    2
57    29    73    1
58    29    74    1
59    31    32    1
60    31    33    1
61    31    35    1
62    33    34    1
63    34    75    1
64    34    76    1
65    34    77    1
66    35    36    2
67    35    78    1
68    36    37    1
69    36    79    1
70    37    38    2
71    37    80    1
72    38    39    1
73    38    40    1
74    39    81    1
75    39    82    1
76    39    83    1
77    40    41    2
78    40    42    am
79    42    43    1
80    42    84    1
81    43    44    2
82    43    47    1
83    44    45    1
84    44    85    1
85    45    46    2
86    47    48    2
@<TRIPOS>SUBSTRUCTURE
1   ZINC000253476137 1     RESIDUE    1   A     ZIN   1
