@<TRIPOS>MOLECULE
ZINC000044308337
71    75    1     0     0
SMALL
USER_CHARGES
@<TRIPOS>ATOM
1      C1      1.5146    0.7839   -0.4159 C.2      1 ZINC000044308337   -0.0600
2      C2      1.2502   -0.5169   -0.2875 C.2      1 ZINC000044308337   -0.2400
3      C3     -0.1325   -1.0460   -0.2739 C.2      1 ZINC000044308337    0.4300
4      O4     -0.9988   -0.5623   -0.9771 O.2      1 ZINC000044308337   -0.4100
5      C5     -0.4240   -2.1903    0.6300 C.2      1 ZINC000044308337   -0.0700
6      C6      0.5786   -2.8326    1.2472 C.2      1 ZINC000044308337   -0.1300
7      C7      1.9801   -2.4165    1.0440 C.2      1 ZINC000044308337    0.4000
8      O8      2.8357   -2.7624    1.8305 O.2      1 ZINC000044308337   -0.4100
9      C9      2.3483   -1.5603   -0.1514 C.3      1 ZINC000044308337    0.1000
10     O10     2.4165   -2.3675   -1.3286 O.3      1 ZINC000044308337   -0.3500
11     C11     3.3496   -1.8964   -2.3031 C.3      1 ZINC000044308337    0.0300
12     C12     0.3236   -3.9856    2.1785 C.3      1 ZINC000044308337    0.1000
13     H13     0.4144   -3.6372    3.2073 H        1 ZINC000044308337    0.0900
14     C14     1.3726   -5.0705    1.9265 C.3      1 ZINC000044308337    0.1100
15     N15     1.2167   -5.5941    0.5671 N.am     1 ZINC000044308337   -0.6900
16     C16     2.0895   -6.5042    0.0914 C.2      1 ZINC000044308337    0.4700
17     O17     3.0046   -6.8901    0.7891 O.2      1 ZINC000044308337   -0.5100
18     C18     1.9309   -7.0371   -1.2919 C.2      1 ZINC000044308337    0.3500
19     C19     2.9068   -8.0548   -1.8239 C.3      1 ZINC000044308337   -0.1900
20     O20     1.0202   -6.6532   -1.9863 O.2      1 ZINC000044308337   -0.4100
21     N21    -1.0161   -4.5633    1.9853 N.3      1 ZINC000044308337   -0.4800
22     C22    -1.2385   -5.5680    3.0375 C.3      1 ZINC000044308337    0.1400
23     H23    -0.5290   -6.3843    2.9023 H        1 ZINC000044308337    0.1400
24     C24    -1.0032   -4.9444    4.3500 C.1      1 ZINC000044308337    0.1600
25     N25    -0.8217   -4.4632    5.3629 N.1      1 ZINC000044308337   -0.4000
26     C26    -2.6457   -6.1299    3.0077 C.3      1 ZINC000044308337    0.0900
27     H27    -2.7796   -6.7448    3.8977 H        1 ZINC000044308337    0.1100
28     C28    -2.8968   -7.0063    1.7934 C.3      1 ZINC000044308337   -0.0600
29     C29    -3.2125   -6.1842    0.5723 C.2      1 ZINC000044308337   -0.0700
30     C30    -3.4962   -4.8753    0.6426 C.2      1 ZINC000044308337   -0.1100
31     C31    -3.8630   -4.1117   -0.5636 C.2      1 ZINC000044308337    0.4000
32     O32    -4.4565   -3.0596   -0.4591 O.2      1 ZINC000044308337   -0.4200
33     C33    -3.4976   -4.6421   -1.9310 C.3      1 ZINC000044308337    0.1000
34     O34    -2.1159   -4.3937   -2.1983 O.3      1 ZINC000044308337   -0.3500
35     C35    -1.8157   -4.2102   -3.5833 C.3      1 ZINC000044308337    0.0300
36     C36    -3.7611   -6.1394   -1.9054 C.2      1 ZINC000044308337   -0.2300
37     C37    -4.4574   -6.7553   -2.8616 C.2      1 ZINC000044308337   -0.0700
38     C38    -3.1934   -6.8680   -0.7485 C.2      1 ZINC000044308337    0.4300
39     O39    -2.7281   -7.9846   -0.8735 O.2      1 ZINC000044308337   -0.4200
40     C40    -3.4356   -4.1277    1.9545 C.3      1 ZINC000044308337    0.1300
41     H41    -4.1986   -3.3495    1.9681 H        1 ZINC000044308337    0.1300
42     C42    -2.0351   -3.4997    2.0342 C.3      1 ZINC000044308337    0.0400
43     H43    -1.9239   -2.9246    2.9535 H        1 ZINC000044308337    0.0800
44     C44    -1.8598   -2.5984    0.8072 C.3      1 ZINC000044308337   -0.0800
45     N45    -3.6395   -5.0516    3.0524 N.3      1 ZINC000044308337   -0.5100
46     C46    -3.5707   -4.3566    4.3449 C.3      1 ZINC000044308337    0.0000
47     H47     2.5381    1.1285   -0.4258 H        1 ZINC000044308337    0.1200
48     H48     0.7054    1.4923   -0.5145 H        1 ZINC000044308337    0.1200
49     H49     3.3062   -1.0699    0.0220 H        1 ZINC000044308337    0.1100
50     H50     3.0695   -0.8912   -2.6181 H        1 ZINC000044308337    0.0500
51     H51     4.3491   -1.8758   -1.8688 H        1 ZINC000044308337    0.0500
52     H52     3.3417   -2.5628   -3.1655 H        1 ZINC000044308337    0.1000
53     H53     2.3697   -4.6450    2.0398 H        1 ZINC000044308337    0.1100
54     H54     1.2388   -5.8792    2.6449 H        1 ZINC000044308337    0.0800
55     H55     0.4854   -5.2857    0.0095 H        1 ZINC000044308337    0.4200
56     H56     3.6525   -8.2767   -1.0606 H        1 ZINC000044308337    0.1000
57     H57     2.3725   -8.9680   -2.0863 H        1 ZINC000044308337    0.1000
58     H58     3.4011   -7.6558   -2.7097 H        1 ZINC000044308337    0.1000
59     H59    -2.0084   -7.6069    1.5981 H        1 ZINC000044308337    0.1000
60     H60    -3.7354   -7.6709    2.0015 H        1 ZINC000044308337    0.1100
61     H61    -4.1155   -4.1665   -2.6926 H        1 ZINC000044308337    0.1100
62     H62    -2.0943   -5.1066   -4.1373 H        1 ZINC000044308337    0.0500
63     H63    -2.3758   -3.3573   -3.9666 H        1 ZINC000044308337    0.0500
64     H64    -0.7478   -4.0268   -3.7023 H        1 ZINC000044308337    0.1000
65     H65    -4.8555   -6.1883   -3.6901 H        1 ZINC000044308337    0.1200
66     H66    -4.6232   -7.8212   -2.8075 H        1 ZINC000044308337    0.1200
67     H67    -2.4564   -1.6959    0.9392 H        1 ZINC000044308337    0.1000
68     H68    -2.2088   -3.1294   -0.0784 H        1 ZINC000044308337    0.1100
69     H69    -4.4548   -3.7312    4.4686 H        1 ZINC000044308337    0.0800
70     H70    -3.5290   -5.0902    5.1500 H        1 ZINC000044308337    0.0800
71     H71    -2.6773   -3.7329    4.3749 H        1 ZINC000044308337    0.0400
@<TRIPOS>BOND
1     1     2     2
2     1     47    1
3     1     48    1
4     2     9     1
5     2     3     1
6     3     4     2
7     3     5     1
8     5     44    1
9     5     6     2
10    6     7     1
11    6     12    1
12    7     8     2
13    7     9     1
14    9     10    1
15    9     49    1
16    10    11    1
17    11    50    1
18    11    51    1
19    11    52    1
20    12    13    1
21    12    14    1
22    12    21    1
23    14    15    1
24    14    53    1
25    14    54    1
26    15    16    am
27    15    55    1
28    16    17    2
29    16    18    1
30    18    19    1
31    18    20    2
32    19    56    1
33    19    57    1
34    19    58    1
35    21    42    1
36    21    22    1
37    22    23    1
38    22    24    1
39    22    26    1
40    24    25    3
41    26    27    1
42    26    45    1
43    26    28    1
44    28    29    1
45    28    59    1
46    28    60    1
47    29    38    1
48    29    30    2
49    30    31    1
50    30    40    1
51    31    32    2
52    31    33    1
53    33    34    1
54    33    36    1
55    33    61    1
56    34    35    1
57    35    62    1
58    35    63    1
59    35    64    1
60    36    37    2
61    36    38    1
62    37    65    1
63    37    66    1
64    38    39    2
65    40    41    1
66    40    42    1
67    40    45    1
68    42    43    1
69    42    44    1
70    44    67    1
71    44    68    1
72    45    46    1
73    46    69    1
74    46    70    1
75    46    71    1
@<TRIPOS>SUBSTRUCTURE
1   ZINC000044308337 1     RESIDUE    1   A     ZIN   1
