@<TRIPOS>MOLECULE
ZINC000003842798
85    89    1     0     0
SMALL
USER_CHARGES
@<TRIPOS>ATOM
1      C1      0.5527   -1.7389    1.1321 C.3      1 ZINC000003842798   -0.1500
2      C2     -0.6364   -1.8098    0.1719 C.3      1 ZINC000003842798    0.0500
3      N3     -1.3302   -0.5151    0.1554 N.3      1 ZINC000003842798   -0.5300
4      C4     -2.2239   -0.4116   -1.0059 C.3      1 ZINC000003842798    0.0400
5      C5     -1.3920   -0.3951   -2.2898 C.3      1 ZINC000003842798   -0.1500
6      C6     -2.0666   -0.2964    1.4075 C.3      1 ZINC000003842798    0.0300
7      C7     -2.4402    1.1824    1.5279 C.3      1 ZINC000003842798    0.1000
8      N8     -3.1502    1.4055    2.7898 N.am     1 ZINC000003842798   -0.6000
9      C9     -2.4010    1.7488    4.0010 C.3      1 ZINC000003842798    0.1600
10     C10    -2.2686    3.2466    4.1023 C.ar     1 ZINC000003842798   -0.1000
11     C11    -1.1856    3.8832    3.5233 C.ar     1 ZINC000003842798   -0.1000
12     C12    -1.0594    5.2547    3.6130 C.ar     1 ZINC000003842798   -0.1100
13     C13    -2.0253    5.9980    4.2882 C.ar     1 ZINC000003842798   -0.0500
14     C14    -1.8951    7.4729    4.3875 C.ar     1 ZINC000003842798   -0.0100
15     C15    -0.8095    8.1201    3.8009 C.ar     1 ZINC000003842798   -0.1100
16     C16    -0.6934    9.4920    3.8963 C.ar     1 ZINC000003842798   -0.0700
17     C17    -1.6523   10.2244    4.5727 C.ar     1 ZINC000003842798   -0.1800
18     C18    -1.5203   11.7223    4.6731 C.3      1 ZINC000003842798    0.5100
19     F19    -2.1652   12.3212    3.5856 F        1 ZINC000003842798   -0.1800
20     F20    -2.1073   12.1633    5.8640 F        1 ZINC000003842798   -0.1800
21     F21    -0.1660   12.0728    4.6630 F        1 ZINC000003842798   -0.1800
22     C22    -2.7320    9.5871    5.1569 C.ar     1 ZINC000003842798   -0.0700
23     C23    -2.8611    8.2162    5.0627 C.ar     1 ZINC000003842798   -0.1100
24     C24    -3.1141    5.3515    4.8695 C.ar     1 ZINC000003842798   -0.1000
25     C25    -3.2333    3.9801    4.7689 C.ar     1 ZINC000003842798   -0.0900
26     C26    -4.4926    1.2951    2.8364 C.2      1 ZINC000003842798    0.5000
27     O27    -5.0804    1.4798    3.8810 O.2      1 ZINC000003842798   -0.5100
28     C28    -5.2633    0.9420    1.5904 C.3      1 ZINC000003842798    0.0600
29     N29    -6.6937    0.8837    1.9011 N.pl3    1 ZINC000003842798   -0.4600
30     C30    -7.2511   -0.2955    2.3129 C.2      1 ZINC000003842798    0.1400
31     C31    -8.5685   -0.3358    2.5964 C.2      1 ZINC000003842798   -0.2500
32     C32    -8.9713   -1.7276    3.0294 C.3      1 ZINC000003842798   -0.0600
33     C33    -7.8166   -2.6413    2.5632 C.3      1 ZINC000003842798   -0.1100
34     C34    -6.6269   -1.6570    2.5254 C.3      1 ZINC000003842798   -0.0800
35     C35    -9.3380    0.8499    2.4580 C.2      1 ZINC000003842798    0.5300
36     O36   -10.5334    0.8389    2.7096 O.2      1 ZINC000003842798   -0.5100
37     N37    -8.7464    1.9802    2.0508 N.2      1 ZINC000003842798   -0.5800
38     C38    -7.4557    2.0035    1.7831 C.2      1 ZINC000003842798    0.4000
39     S39    -6.7086    3.5075    1.2501 S.3      1 ZINC000003842798    0.0000
40     C40    -8.1525    4.5988    1.2661 C.3      1 ZINC000003842798   -0.0500
41     C41    -7.7416    5.9821    0.8319 C.ar     1 ZINC000003842798   -0.1000
42     C42    -7.3169    6.9032    1.7712 C.ar     1 ZINC000003842798   -0.0700
43     C43    -6.9398    8.1721    1.3741 C.ar     1 ZINC000003842798   -0.1500
44     C44    -6.9871    8.5205    0.0349 C.ar     1 ZINC000003842798    0.1100
45     F45    -6.6183    9.7605   -0.3544 F        1 ZINC000003842798   -0.1400
46     C46    -7.4123    7.5970   -0.9050 C.ar     1 ZINC000003842798   -0.1500
47     C47    -7.7843    6.3272   -0.5061 C.ar     1 ZINC000003842798   -0.0700
48     H48     1.0672   -2.6998    1.1449 H        1 ZINC000003842798    0.0600
49     H49     1.2418   -0.9622    0.8004 H        1 ZINC000003842798    0.0600
50     H50     0.1963   -1.5043    2.1351 H        1 ZINC000003842798    0.0500
51     H51    -0.2799   -2.0438   -0.8312 H        1 ZINC000003842798    0.0800
52     H52    -1.3251   -2.5869    0.5033 H        1 ZINC000003842798    0.0300
53     H53    -2.8996   -1.2667   -1.0217 H        1 ZINC000003842798    0.0300
54     H54    -2.8041    0.5086   -0.9370 H        1 ZINC000003842798    0.0700
55     H55    -0.7163    0.4600   -2.2740 H        1 ZINC000003842798    0.0700
56     H56    -0.8119   -1.3154   -2.3587 H        1 ZINC000003842798    0.0600
57     H57    -2.0551   -0.3183   -3.1515 H        1 ZINC000003842798    0.0600
58     H58    -2.9734   -0.9013    1.4061 H        1 ZINC000003842798    0.0300
59     H59    -1.4401   -0.5829    2.2523 H        1 ZINC000003842798    0.0900
60     H60    -1.5345    1.7886    1.5085 H        1 ZINC000003842798    0.1000
61     H61    -3.0836    1.4636    0.6943 H        1 ZINC000003842798    0.0800
62     H62    -2.9310    1.3710    4.8754 H        1 ZINC000003842798    0.1000
63     H63    -1.4093    1.2987    3.9547 H        1 ZINC000003842798    0.0900
64     H64    -0.4373    3.3061    3.0005 H        1 ZINC000003842798    0.1300
65     H65    -0.2132    5.7508    3.1609 H        1 ZINC000003842798    0.1300
66     H66    -0.0601    7.5491    3.2728 H        1 ZINC000003842798    0.1400
67     H67     0.1478    9.9947    3.4423 H        1 ZINC000003842798    0.1400
68     H68    -3.4776   10.1637    5.6842 H        1 ZINC000003842798    0.1400
69     H69    -3.7045    7.7196    5.5192 H        1 ZINC000003842798    0.1400
70     H70    -3.8654    5.9228    5.3944 H        1 ZINC000003842798    0.1300
71     H71    -4.0770    3.4780    5.2188 H        1 ZINC000003842798    0.1300
72     H72    -5.0878    1.7004    0.8275 H        1 ZINC000003842798    0.1300
73     H73    -4.9318   -0.0285    1.2210 H        1 ZINC000003842798    0.1300
74     H74    -9.0753   -1.7718    4.1135 H        1 ZINC000003842798    0.0800
75     H75    -9.9039   -2.0195    2.5465 H        1 ZINC000003842798    0.0800
76     H76    -7.6379   -3.4409    3.2821 H        1 ZINC000003842798    0.0900
77     H77    -8.0174   -3.0481    1.5721 H        1 ZINC000003842798    0.0800
78     H78    -5.9597   -1.9010    1.6987 H        1 ZINC000003842798    0.0800
79     H79    -6.0847   -1.6818    3.4707 H        1 ZINC000003842798    0.1000
80     H80    -8.9076    4.2123    0.5815 H        1 ZINC000003842798    0.1200
81     H81    -8.5642    4.6418    2.2745 H        1 ZINC000003842798    0.1200
82     H82    -7.2800    6.6312    2.8157 H        1 ZINC000003842798    0.1400
83     H83    -6.6087    8.8917    2.1082 H        1 ZINC000003842798    0.1400
84     H84    -7.4499    7.8678   -1.9498 H        1 ZINC000003842798    0.1400
85     H85    -8.1156    5.6065   -1.2391 H        1 ZINC000003842798    0.1400
@<TRIPOS>BOND
1     1     2     1
2     1     48    1
3     1     49    1
4     1     50    1
5     2     3     1
6     2     51    1
7     2     52    1
8     3     4     1
9     3     6     1
10    4     5     1
11    4     53    1
12    4     54    1
13    5     55    1
14    5     56    1
15    5     57    1
16    6     7     1
17    6     58    1
18    6     59    1
19    7     8     1
20    7     60    1
21    7     61    1
22    8     9     1
23    8     26    am
24    9     10    1
25    9     62    1
26    9     63    1
27    10    25    ar
28    10    11    ar
29    11    12    ar
30    11    64    1
31    12    13    ar
32    12    65    1
33    13    14    1
34    13    24    ar
35    14    23    ar
36    14    15    ar
37    15    16    ar
38    15    66    1
39    16    17    ar
40    16    67    1
41    17    18    1
42    17    22    ar
43    18    19    1
44    18    20    1
45    18    21    1
46    22    23    ar
47    22    68    1
48    23    69    1
49    24    25    ar
50    24    70    1
51    25    71    1
52    26    27    2
53    26    28    1
54    28    29    1
55    28    72    1
56    28    73    1
57    29    38    1
58    29    30    1
59    30    34    1
60    30    31    2
61    31    32    1
62    31    35    1
63    32    33    1
64    32    74    1
65    32    75    1
66    33    34    1
67    33    76    1
68    33    77    1
69    34    78    1
70    34    79    1
71    35    36    2
72    35    37    1
73    37    38    2
74    38    39    1
75    39    40    1
76    40    41    1
77    40    80    1
78    40    81    1
79    41    47    ar
80    41    42    ar
81    42    43    ar
82    42    82    1
83    43    44    ar
84    43    83    1
85    44    45    1
86    44    46    ar
87    46    47    ar
88    46    84    1
89    47    85    1
@<TRIPOS>SUBSTRUCTURE
1   ZINC000003842798 1     RESIDUE    1   A     ZIN   1
