@<TRIPOS>MOLECULE
ZINC000253497435
101   106   1     0     0
SMALL
USER_CHARGES
@<TRIPOS>ATOM
1      C1     -2.1426    2.3464   -0.2017 C.3      1 ZINC000253497435   -0.1600
2      C2     -1.6534    0.9351   -0.0021 C.2      1 ZINC000253497435    0.4600
3      O3     -1.7591    0.4063    1.0791 O.2      1 ZINC000253497435   -0.4700
4      O4     -1.1002    0.2654   -1.0255 O.3      1 ZINC000253497435   -0.3400
5      C5     -0.8369   -1.1460   -0.8231 C.3      1 ZINC000253497435    0.0700
6      H6     -1.2872   -1.4998    0.1017 H        1 ZINC000253497435    0.1300
7      C7      0.6903   -1.4323   -0.8417 C.3      1 ZINC000253497435    0.0200
8      H8      0.9262   -2.2638   -0.1793 H        1 ZINC000253497435    0.1500
9      N9      1.4326   -0.2333   -0.4302 N.4      1 ZINC000253497435   -0.2500
10     C10     1.2938    0.8043   -1.4608 C.3      1 ZINC000253497435   -0.0900
11     C11     0.8888    0.2656    0.8386 C.3      1 ZINC000253497435   -0.0700
12     C12     1.6042    1.5602    1.2306 C.3      1 ZINC000253497435   -0.1400
13     C13     3.1016    1.2813    1.3897 C.3      1 ZINC000253497435   -0.1400
14     C14     3.6426    0.6918    0.0840 C.3      1 ZINC000253497435   -0.1400
15     C15     2.8516   -0.5706   -0.2656 C.3      1 ZINC000253497435   -0.0100
16     C16     1.0439   -1.7999   -2.3056 C.3      1 ZINC000253497435   -0.1300
17     C17    -0.2640   -1.6437   -3.0761 C.3      1 ZINC000253497435   -0.0800
18     H18    -0.3677   -0.5914   -3.3765 H        1 ZINC000253497435    0.0900
19     C19    -0.4535   -2.5151   -4.3008 C.3      1 ZINC000253497435   -0.0700
20     H20    -0.4042   -3.5663   -4.0344 H        1 ZINC000253497435    0.0800
21     C21     0.6582   -2.1917   -5.3016 C.3      1 ZINC000253497435   -0.1200
22     C22     0.1835   -2.3386   -6.7407 C.3      1 ZINC000253497435   -0.1200
23     C23    -0.8514   -3.4660   -6.8389 C.3      1 ZINC000253497435   -0.0700
24     H24    -1.0949   -3.6158   -7.9016 H        1 ZINC000253497435    0.0800
25     C25    -0.2285   -4.7476   -6.2984 C.3      1 ZINC000253497435   -0.1300
26     C26    -1.2629   -5.8670   -6.2072 C.3      1 ZINC000253497435    0.0700
27     H27    -0.7927   -6.7643   -5.7998 H        1 ZINC000253497435    0.1100
28     O28    -1.7924   -6.1590   -7.5266 O.3      1 ZINC000253497435   -0.3500
29     C29    -1.1516   -7.0926   -8.2475 C.2      1 ZINC000253497435    0.4600
30     C30    -1.6438   -7.4488   -9.6266 C.3      1 ZINC000253497435   -0.1500
31     O31    -0.1803   -7.6473   -7.7906 O.2      1 ZINC000253497435   -0.4900
32     C32    -2.3963   -5.4321   -5.2838 C.3      1 ZINC000253497435    0.0400
33     H33    -1.9931   -5.2225   -4.2947 H        1 ZINC000253497435    0.1400
34     N34    -3.3850   -6.5143   -5.1879 N.4      1 ZINC000253497435   -0.2600
35     C35    -4.3202   -6.2255   -4.0924 C.3      1 ZINC000253497435   -0.0600
36     C36    -4.1286   -6.6089   -6.4499 C.3      1 ZINC000253497435   -0.0300
37     C37    -5.2143   -7.6802   -6.3275 C.3      1 ZINC000253497435   -0.1500
38     C38    -4.5598   -9.0293   -6.0165 C.3      1 ZINC000253497435   -0.1400
39     C39    -3.7266   -8.8987   -4.7382 C.3      1 ZINC000253497435   -0.1400
40     C40    -2.6960   -7.7822   -4.9195 C.3      1 ZINC000253497435   -0.0100
41     C41    -3.0687   -4.1864   -5.8248 C.3      1 ZINC000253497435   -0.1400
42     C42    -2.1170   -3.0559   -6.1161 C.3      1 ZINC000253497435   -0.0300
43     C43    -2.8750   -2.1457   -7.1017 C.3      1 ZINC000253497435   -0.1600
44     C44    -1.8254   -2.1870   -4.8994 C.3      1 ZINC000253497435   -0.0700
45     H45    -1.8059   -1.1384   -5.2276 H        1 ZINC000253497435    0.0800
46     C46    -2.9434   -2.3327   -3.8721 C.3      1 ZINC000253497435   -0.1200
47     C47    -2.6786   -1.5336   -2.5900 C.3      1 ZINC000253497435   -0.1100
48     C48    -1.3447   -1.9730   -2.0196 C.3      1 ZINC000253497435   -0.0600
49     C49    -1.3597   -3.4539   -1.6406 C.3      1 ZINC000253497435   -0.1500
50     H50    -1.3348    3.0451    0.0160 H        1 ZINC000253497435    0.1200
51     H51    -2.4666    2.4760   -1.2344 H        1 ZINC000253497435    0.1100
52     H52    -2.9801    2.5389    0.4688 H        1 ZINC000253497435    0.1200
53     H53     0.2370    0.9683   -1.6713 H        1 ZINC000253497435    0.1600
54     H54     1.7416    1.7322   -1.1048 H        1 ZINC000253497435    0.1200
55     H55     1.7999    0.4824   -2.3710 H        1 ZINC000253497435    0.1200
56     H56    -0.1776    0.4605    0.7247 H        1 ZINC000253497435    0.1500
57     H57     1.0394   -0.4823    1.6170 H        1 ZINC000253497435    0.1200
58     H58     1.4541    2.3089    0.4529 H        1 ZINC000253497435    0.0900
59     H59     1.2003    1.9280    2.1738 H        1 ZINC000253497435    0.1100
60     H60     3.6238    2.2115    1.6136 H        1 ZINC000253497435    0.1000
61     H61     3.2558    0.5709    2.2019 H        1 ZINC000253497435    0.0800
62     H62     3.5347    1.4225   -0.7176 H        1 ZINC000253497435    0.0900
63     H63     4.6957    0.4389    0.2076 H        1 ZINC000253497435    0.1100
64     H64     2.9604   -1.3007    0.5364 H        1 ZINC000253497435    0.1200
65     H65     3.2343   -0.9930   -1.1947 H        1 ZINC000253497435    0.1300
66     H66     1.7928   -1.1083   -2.6944 H        1 ZINC000253497435    0.0900
67     H67     1.4073   -2.8229   -2.3676 H        1 ZINC000253497435    0.1000
68     H68     0.9915   -1.1640   -5.1384 H        1 ZINC000253497435    0.0700
69     H69     1.5012   -2.8624   -5.1271 H        1 ZINC000253497435    0.0600
70     H70    -0.2449   -1.3994   -7.0872 H        1 ZINC000253497435    0.0700
71     H71     1.0399   -2.5864   -7.3775 H        1 ZINC000253497435    0.0700
72     H72     0.5711   -5.0669   -6.9819 H        1 ZINC000253497435    0.0900
73     H73     0.2175   -4.5786   -5.3208 H        1 ZINC000253497435    0.0900
74     H74    -1.1577   -6.8082  -10.3625 H        1 ZINC000253497435    0.1200
75     H75    -1.4064   -8.4912   -9.8391 H        1 ZINC000253497435    0.1100
76     H76    -2.7231   -7.3046   -9.6758 H        1 ZINC000253497435    0.1000
77     H77    -4.8305   -5.2827   -4.2894 H        1 ZINC000253497435    0.1200
78     H78    -5.0544   -7.0279   -4.0203 H        1 ZINC000253497435    0.1300
79     H79    -3.7696   -6.1515   -3.1546 H        1 ZINC000253497435    0.1200
80     H80    -4.5912   -5.6471   -6.6715 H        1 ZINC000253497435    0.1300
81     H81    -3.4443   -6.8761   -7.2551 H        1 ZINC000253497435    0.1500
82     H82    -5.8994   -7.4139   -5.5226 H        1 ZINC000253497435    0.0900
83     H83    -5.7641   -7.7502   -7.2661 H        1 ZINC000253497435    0.1100
84     H84    -5.3323   -9.7847   -5.8724 H        1 ZINC000253497435    0.1000
85     H85    -3.9136   -9.3205   -6.8446 H        1 ZINC000253497435    0.0800
86     H86    -4.3808   -8.6577   -3.9004 H        1 ZINC000253497435    0.0900
87     H87    -3.2129   -9.8397   -4.5408 H        1 ZINC000253497435    0.1100
88     H88    -2.0422   -8.0244   -5.7574 H        1 ZINC000253497435    0.1200
89     H89    -2.1009   -7.6867   -4.0113 H        1 ZINC000253497435    0.1300
90     H90    -3.5611   -4.4566   -6.7674 H        1 ZINC000253497435    0.1000
91     H91    -3.8416   -3.8618   -5.1403 H        1 ZINC000253497435    0.1000
92     H92    -3.7934   -1.7898   -6.6347 H        1 ZINC000253497435    0.0600
93     H93    -2.2479   -1.2940   -7.3654 H        1 ZINC000253497435    0.0700
94     H94    -3.1198   -2.7092   -8.0019 H        1 ZINC000253497435    0.0600
95     H95    -3.8752   -1.9678   -4.3154 H        1 ZINC000253497435    0.0700
96     H96    -3.0759   -3.3824   -3.6213 H        1 ZINC000253497435    0.0600
97     H97    -2.6541   -0.4663   -2.8213 H        1 ZINC000253497435    0.0800
98     H98    -3.4733   -1.7266   -1.8656 H        1 ZINC000253497435    0.0700
99     H99    -1.5589   -4.0542   -2.5284 H        1 ZINC000253497435    0.0700
100    H100   -0.3918   -3.7321   -1.2236 H        1 ZINC000253497435    0.0600
101    H101   -2.1391   -3.6315   -0.8996 H        1 ZINC000253497435    0.0700
@<TRIPOS>BOND
1     1     2     1
2     1     50    1
3     1     51    1
4     1     52    1
5     2     3     2
6     2     4     1
7     4     5     1
8     5     6     1
9     5     48    1
10    5     7     1
11    7     8     1
12    7     9     1
13    7     16    1
14    9     15    1
15    9     10    1
16    9     11    1
17    10    53    1
18    10    54    1
19    10    55    1
20    11    12    1
21    11    56    1
22    11    57    1
23    12    13    1
24    12    58    1
25    12    59    1
26    13    14    1
27    13    60    1
28    13    61    1
29    14    15    1
30    14    62    1
31    14    63    1
32    15    64    1
33    15    65    1
34    16    17    1
35    16    66    1
36    16    67    1
37    17    18    1
38    17    48    1
39    17    19    1
40    19    20    1
41    19    44    1
42    19    21    1
43    21    22    1
44    21    68    1
45    21    69    1
46    22    23    1
47    22    70    1
48    22    71    1
49    23    24    1
50    23    42    1
51    23    25    1
52    25    26    1
53    25    72    1
54    25    73    1
55    26    27    1
56    26    28    1
57    26    32    1
58    28    29    1
59    29    30    1
60    29    31    2
61    30    74    1
62    30    75    1
63    30    76    1
64    32    33    1
65    32    34    1
66    32    41    1
67    34    40    1
68    34    35    1
69    34    36    1
70    35    77    1
71    35    78    1
72    35    79    1
73    36    37    1
74    36    80    1
75    36    81    1
76    37    38    1
77    37    82    1
78    37    83    1
79    38    39    1
80    38    84    1
81    38    85    1
82    39    40    1
83    39    86    1
84    39    87    1
85    40    88    1
86    40    89    1
87    41    42    1
88    41    90    1
89    41    91    1
90    42    43    1
91    42    44    1
92    43    92    1
93    43    93    1
94    43    94    1
95    44    45    1
96    44    46    1
97    46    47    1
98    46    95    1
99    46    96    1
100   47    48    1
101   47    97    1
102   47    98    1
103   48    49    1
104   49    99    1
105   49    100   1
106   49    101   1
@<TRIPOS>SUBSTRUCTURE
1   ZINC000253497435 1     RESIDUE    1   A     ZIN   1
