@<TRIPOS>MOLECULE
ZINC000003872013
28    31    1     0     0
SMALL
USER_CHARGES
@<TRIPOS>ATOM
1      N1     -0.0166    1.3709    0.0096 N.pl3    1 ZINC000003872013   -0.8100
2      C2      0.0021   -0.0041    0.0020 C.2      1 ZINC000003872013    0.6600
3      N3     -1.1376   -0.6454    0.0041 N.2      1 ZINC000003872013   -0.5500
4      C4     -1.1997   -1.9991   -0.0029 C.ar     1 ZINC000003872013    0.1900
5      C5     -2.4242   -2.6720   -0.0011 C.ar     1 ZINC000003872013   -0.1000
6      C6     -2.4479   -4.0482   -0.0087 C.ar     1 ZINC000003872013   -0.0600
7      C7     -1.2669   -4.7799   -0.0178 C.ar     1 ZINC000003872013   -0.0600
8      Cl8    -1.3286   -6.5148   -0.0272 Cl       1 ZINC000003872013   -0.0500
9      C9     -0.0459   -4.1388   -0.0198 C.ar     1 ZINC000003872013   -0.0300
10     C10    -0.0000   -2.7469   -0.0127 C.ar     1 ZINC000003872013   -0.1100
11     C11     1.2696   -2.0104   -0.0150 C.2      1 ZINC000003872013    0.3600
12     N12     2.5362   -2.3631   -0.0228 N.2      1 ZINC000003872013   -0.5000
13     C13     3.3081   -1.2690   -0.0210 C.2      1 ZINC000003872013    0.3400
14     C14     4.7860   -1.2640   -0.0288 C.2      1 ZINC000003872013    0.0400
15     C15     5.5801   -0.1606   -0.0216 C.2      1 ZINC000003872013   -0.1400
16     C16     6.9123   -0.6193   -0.0334 C.2      1 ZINC000003872013   -0.2200
17     C17     6.8661   -1.9659   -0.0471 C.2      1 ZINC000003872013    0.0000
18     O18     5.5801   -2.3520   -0.0384 O.3      1 ZINC000003872013   -0.1500
19     N19     2.5400   -0.1958   -0.0119 N.2      1 ZINC000003872013   -0.2900
20     N20     1.2116   -0.6421   -0.0130 N.pl3    1 ZINC000003872013   -0.3700
21     H21     0.8168    1.8673    0.0043 H        1 ZINC000003872013    0.4200
22     H22    -0.8631    1.8445    0.0162 H        1 ZINC000003872013    0.4300
23     H23    -3.3490   -2.1142    0.0067 H        1 ZINC000003872013    0.1500
24     H24    -3.3960   -4.5655   -0.0073 H        1 ZINC000003872013    0.1500
25     H25     0.8690   -4.7125   -0.0269 H        1 ZINC000003872013    0.1500
26     H26     5.2530    0.8686   -0.0097 H        1 ZINC000003872013    0.1600
27     H27     7.8022   -0.0073   -0.0321 H        1 ZINC000003872013    0.1600
28     H28     7.7214   -2.6253   -0.0584 H        1 ZINC000003872013    0.2200
@<TRIPOS>BOND
1     1     2     1
2     1     21    1
3     1     22    1
4     2     20    1
5     2     3     2
6     3     4     1
7     4     10    ar
8     4     5     ar
9     5     6     ar
10    5     23    1
11    6     7     ar
12    6     24    1
13    7     8     1
14    7     9     ar
15    9     10    ar
16    9     25    1
17    10    11    1
18    11    20    1
19    11    12    2
20    12    13    1
21    13    14    1
22    13    19    2
23    14    18    1
24    14    15    2
25    15    16    1
26    15    26    1
27    16    17    2
28    16    27    1
29    17    18    1
30    17    28    1
31    19    20    1
@<TRIPOS>SUBSTRUCTURE
1   ZINC000003872013 1     RESIDUE    1   A     ZIN   1
