@<TRIPOS>MOLECULE
ZINC000034962340
36    39    1     0     0
SMALL
USER_CHARGES
@<TRIPOS>ATOM
1      N1     -0.0165    1.3678    0.0096 N.pl3    1 ZINC000034962340   -0.8400
2      C2      0.0021   -0.0041    0.0020 C.2      1 ZINC000034962340    0.5700
3      N3     -1.1381   -0.6613    0.0039 N.2      1 ZINC000034962340   -0.6800
4      C4     -1.1621   -1.9994   -0.0030 C.2      1 ZINC000034962340    0.3500
5      C5      0.0320   -2.7067   -0.0095 C.2      1 ZINC000034962340   -0.1000
6      N6      0.0192   -4.1189   -0.0102 N.pl3    1 ZINC000034962340   -0.7000
7      C7     -1.2346   -4.8094   -0.3511 C.3      1 ZINC000034962340    0.1700
8      H8     -1.3992   -4.7700   -1.4279 H        1 ZINC000034962340    0.0600
9      C9     -2.3840   -4.1015    0.3796 C.3      1 ZINC000034962340    0.3200
10     H10    -3.3348   -4.5505    0.0924 H        1 ZINC000034962340    0.0800
11     N11    -2.3689   -2.6817   -0.0048 N.pl3    1 ZINC000034962340   -0.7100
12     O12    -2.2002   -4.2222    1.7913 O.3      1 ZINC000034962340   -0.3600
13     C13    -2.1780   -5.5689    2.2657 C.3      1 ZINC000034962340    0.0200
14     H14    -3.1058   -6.0627    1.9769 H        1 ZINC000034962340    0.0800
15     C15    -2.0592   -5.5828    3.7885 C.3      1 ZINC000034962340    0.1100
16     O16    -0.8659   -4.8762    4.1750 O.3      1 ZINC000034962340   -0.7200
17     P17     0.5506   -5.3006    3.5010 P.3      1 ZINC000034962340    2.1600
18     O18     1.5580   -4.1332    3.5973 O.co2    1 ZINC000034962340   -1.0400
19     O19     1.1200   -6.5544    4.2016 O.co2    1 ZINC000034962340   -1.0900
20     O20     0.2175   -5.6269    1.9450 O.3      1 ZINC000034962340   -0.6800
21     C21    -0.9992   -6.3085    1.6275 C.3      1 ZINC000034962340    0.0500
22     H22    -0.9536   -7.3401    1.9763 H        1 ZINC000034962340    0.0700
23     C23    -1.1452   -6.2665    0.1095 C.3      1 ZINC000034962340    0.3000
24     O24    -2.3515   -6.9299   -0.2738 O.3      1 ZINC000034962340   -0.5700
25     O25    -0.0259   -6.9156   -0.4971 O.3      1 ZINC000034962340   -0.5400
26     C26     1.2404   -2.0018   -0.0136 C.2      1 ZINC000034962340    0.5200
27     O27     2.3089   -2.5940   -0.0223 O.2      1 ZINC000034962340   -0.6200
28     N28     1.1992   -0.6515   -0.0129 N.pl3    1 ZINC000034962340   -0.7100
29     H29     0.8168    1.8642    0.0043 H        1 ZINC000034962340    0.4000
30     H30    -0.8631    1.8413    0.0162 H        1 ZINC000034962340    0.3900
31     H31     0.8189   -4.6222    0.2088 H        1 ZINC000034962340    0.4100
32     H32    -3.1901   -2.2300   -0.2548 H        1 ZINC000034962340    0.3900
33     H33    -2.9297   -5.0944    4.2263 H        1 ZINC000034962340    0.0900
34     H34    -2.0027   -6.6129    4.1401 H        1 ZINC000034962340    0.0700
35     H35    -2.3901   -7.8594   -0.0099 H        1 ZINC000034962340    0.3700
36     H36     0.0735   -7.8442   -0.2465 H        1 ZINC000034962340    0.3700
@<TRIPOS>BOND
1     1     2     1
2     1     29    1
3     1     30    1
4     2     28    1
5     2     3     2
6     3     4     1
7     4     11    1
8     4     5     2
9     5     6     1
10    5     26    1
11    6     7     1
12    6     31    1
13    7     8     1
14    7     23    1
15    7     9     1
16    9     10    1
17    9     11    1
18    9     12    1
19    11    32    1
20    12    13    1
21    13    14    1
22    13    21    1
23    13    15    1
24    15    16    1
25    15    33    1
26    15    34    1
27    16    17    1
28    17    18    ar
29    17    19    ar
30    17    20    1
31    20    21    1
32    21    22    1
33    21    23    1
34    23    24    1
35    23    25    1
36    24    35    1
37    25    36    1
38    26    27    2
39    26    28    1
@<TRIPOS>SUBSTRUCTURE
1   ZINC000034962340 1     RESIDUE    1   A     ZIN   1
