@<TRIPOS>MOLECULE
ZINC000037866089
  44   48    0    0    0
SMALL
USER_CHARGES
NO_NAME
@<TRIPOS>ATOM
    1 C1       -0.0187     1.5258     0.0104 C.3    1 <0>      -0.1600
    2 C2        0.0021    -0.0041     0.0020 C.3    1 <0>      -0.1400
    3 C3       -1.4333    -0.5336     0.0129 C.3    1 <0>       0.1400
    4 O4       -2.1047    -0.0705     1.1862 O.3    1 <0>      -0.5200
    5 C5       -2.1627    -0.0421    -1.2161 C.2    1 <0>       0.4700
    6 O6       -2.9322     0.8881    -1.1671 O.2    1 <0>      -0.4300
    7 O7       -1.9117    -0.6956    -2.3736 O.3    1 <0>      -0.3700
    8 C8       -2.2563    -2.1056    -2.3621 C.3    1 <0>       0.1400
    9 C9       -1.7816    -2.7580    -1.0908 C.2    1 <0>      -0.2300
   10 C10      -1.4146    -2.0415     0.0046 C.2    1 <0>       0.0400
   11 C11      -1.0011    -2.7151     1.1620 C.2    1 <0>      -0.1400
   12 C12      -0.9587    -4.0925     1.1860 C.2    1 <0>       0.1900
   13 C13      -0.5655    -5.0228     2.2707 C.ar   1 <0>       0.1800
   14 C14      -0.6959    -6.3360     1.7905 C.ar   1 <0>      -0.1700
   15 C15      -0.3969    -7.3964     2.5898 C.ar   1 <0>      -0.0100
   16 C16       0.0437    -7.1368     3.9000 C.ar   1 <0>      -0.1400
   17 C17       0.3713    -8.1859     4.7836 C.ar   1 <0>       0.2400
   18 N18       0.2628    -9.5113     4.3719 N.pl3  1 <0>      -0.8600
   19 C19       0.8007    -7.8859     6.0601 C.ar   1 <0>      -0.2100
   20 C20       0.9116    -6.5634     6.4779 C.ar   1 <0>      -0.0400
   21 C21       0.6018    -5.5320     5.6452 C.ar   1 <0>      -0.1500
   22 C22       0.1591    -5.7917     4.3350 C.ar   1 <0>       0.1800
   23 N23      -0.1499    -4.7926     3.5069 N.ar   1 <0>      -0.4400
   24 C24      -1.1823    -6.2344     0.3679 C.3    1 <0>       0.1500
   25 N25      -1.3201    -4.8015     0.0756 N.am   1 <0>      -0.4900
   26 C26      -1.7205    -4.1664    -1.0423 C.2    1 <0>       0.5500
   27 O27      -2.0353    -4.8174    -2.0253 O.2    1 <0>      -0.5300
   28 H28       1.0039     1.9031     0.0027 H      1 <0>       0.0700
   29 H29      -0.5459     1.8868    -0.8726 H      1 <0>       0.0600
   30 H30      -0.5289     1.8773     0.9072 H      1 <0>       0.0600
   31 H31       0.5123    -0.3556    -0.8948 H      1 <0>       0.0900
   32 H32       0.5293    -0.3651     0.8851 H      1 <0>       0.1000
   33 H33      -2.1560     0.8927     1.2557 H      1 <0>       0.3900
   34 H34      -3.3385    -2.2115    -2.4377 H      1 <0>       0.1000
   35 H35      -1.7876    -2.5970    -3.2147 H      1 <0>       0.1300
   36 H36      -0.7141    -2.1527     2.0383 H      1 <0>       0.1600
   37 H37      -0.4955    -8.4092     2.2279 H      1 <0>       0.1400
   38 H38      -0.0393    -9.7169     3.4733 H      1 <0>       0.4000
   39 H39       0.4894   -10.2293     4.9835 H      1 <0>       0.4100
   40 H40       1.0529    -8.6851     6.7414 H      1 <0>       0.1300
   41 H41       1.2500    -6.3511     7.4814 H      1 <0>       0.1400
   42 H42       0.6956    -4.5131     5.9908 H      1 <0>       0.1400
   43 H43      -0.4564    -6.6857    -0.3085 H      1 <0>       0.1200
   44 H44      -2.1473    -6.7310     0.2664 H      1 <0>       0.1200
@<TRIPOS>BOND
   1    1    2 1
   2    1   28 1
   3    1   29 1
   4    1   30 1
   5    2    3 1
   6    2   31 1
   7    2   32 1
   8    3   10 1
   9    3    4 1
  10    3    5 1
  11    4   33 1
  12    5    6 2
  13    5    7 1
  14    7    8 1
  15    8    9 1
  16    8   34 1
  17    8   35 1
  18    9   26 1
  19    9   10 2
  20   10   11 1
  21   11   12 2
  22   11   36 1
  23   12   25 1
  24   12   13 1
  25   13   23 ar
  26   13   14 ar
  27   14   15 ar
  28   14   24 1
  29   15   16 ar
  30   15   37 1
  31   16   22 ar
  32   16   17 ar
  33   17   18 1
  34   17   19 ar
  35   18   38 1
  36   18   39 1
  37   19   20 ar
  38   19   40 1
  39   20   21 ar
  40   20   41 1
  41   21   22 ar
  42   21   42 1
  43   22   23 ar
  44   24   25 1
  45   24   43 1
  46   24   44 1
  47   25   26 am
  48   26   27 2
