@<TRIPOS>MOLECULE
ZINC000004215852
35    36    1     0     0
SMALL
USER_CHARGES
@<TRIPOS>ATOM
1      C1     -0.0187    1.5258    0.0104 C.3      1 ZINC000004215852   -0.1500
2      C2      0.0021   -0.0041    0.0020 C.3      1 ZINC000004215852    0.0500
3      O3      0.6932   -0.4774    1.1597 O.3      1 ZINC000004215852   -0.3100
4      C4      0.8019   -1.8234    1.3056 C.ar     1 ZINC000004215852    0.1400
5      C5      0.2576   -2.6700    0.3477 C.ar     1 ZINC000004215852   -0.2100
6      C6      0.3657   -4.0358    0.4911 C.ar     1 ZINC000004215852   -0.0300
7      C7      1.0245   -4.5697    1.6027 C.ar     1 ZINC000004215852    0.0300
8      N8      1.1346   -5.9236    1.7490 N.2      1 ZINC000004215852   -0.2600
9      N9      1.7428   -6.4141    2.7754 N.2      1 ZINC000004215852   -0.2000
10     C10     1.8526   -7.7638    2.9212 C.ar     1 ZINC000004215852   -0.0800
11     C11     1.3118   -8.6208    1.9566 C.ar     1 ZINC000004215852    0.0000
12     C12     1.4245   -9.9838    2.1072 C.ar     1 ZINC000004215852   -0.2500
13     C13     2.0755  -10.5163    3.2180 C.ar     1 ZINC000004215852    0.3000
14     N14     2.1843  -11.8973    3.3620 N.pl3    1 ZINC000004215852   -0.8600
15     C15     2.6169   -9.6756    4.1821 C.ar     1 ZINC000004215852   -0.3000
16     C16     2.5152   -8.3018    4.0393 C.ar     1 ZINC000004215852    0.3300
17     N17     3.0571   -7.4573    5.0034 N.pl3    1 ZINC000004215852   -0.8500
18     C18     1.5706   -3.7139    2.5640 C.ar     1 ZINC000004215852   -0.0800
19     C19     1.4621   -2.3493    2.4093 C.ar     1 ZINC000004215852   -0.1500
20     H20     1.0039    1.9031    0.0027 H        1 ZINC000004215852    0.0700
21     H21    -0.5459    1.8868   -0.8726 H        1 ZINC000004215852    0.0800
22     H22    -0.5289    1.8773    0.9072 H        1 ZINC000004215852    0.0700
23     H23    -1.0205   -0.3814    0.0098 H        1 ZINC000004215852    0.0600
24     H24     0.5123   -0.3556   -0.8948 H        1 ZINC000004215852    0.0600
25     H25    -0.2514   -2.2566   -0.5105 H        1 ZINC000004215852    0.1300
26     H26    -0.0580   -4.6930   -0.2538 H        1 ZINC000004215852    0.1400
27     H27     0.8057   -8.2126    1.0943 H        1 ZINC000004215852    0.1400
28     H28     1.0063  -10.6436    1.3614 H        1 ZINC000004215852    0.1200
29     H29     1.8072  -12.4862    2.6898 H        1 ZINC000004215852    0.4000
30     H30     2.6371  -12.2702    4.1346 H        1 ZINC000004215852    0.4000
31     H31     3.1205  -10.0932    5.0414 H        1 ZINC000004215852    0.1300
32     H32     3.5071   -7.8305    5.7774 H        1 ZINC000004215852    0.4000
33     H33     2.9848   -6.4954    4.9014 H        1 ZINC000004215852    0.4100
34     H34     2.0803   -4.1218    3.4243 H        1 ZINC000004215852    0.1400
35     H35     1.8836   -1.6873    3.1513 H        1 ZINC000004215852    0.1300
@<TRIPOS>BOND
1     1     2     1
2     1     20    1
3     1     21    1
4     1     22    1
5     2     3     1
6     2     23    1
7     2     24    1
8     3     4     1
9     4     19    ar
10    4     5     ar
11    5     6     ar
12    5     25    1
13    6     7     ar
14    6     26    1
15    7     8     1
16    7     18    ar
17    8     9     2
18    9     10    1
19    10    16    ar
20    10    11    ar
21    11    12    ar
22    11    27    1
23    12    13    ar
24    12    28    1
25    13    14    1
26    13    15    ar
27    14    29    1
28    14    30    1
29    15    16    ar
30    15    31    1
31    16    17    1
32    17    32    1
33    17    33    1
34    18    19    ar
35    18    34    1
36    19    35    1
@<TRIPOS>SUBSTRUCTURE
1   ZINC000004215852 1     RESIDUE    1   A     ZIN   1
