@<TRIPOS>MOLECULE
ZINC000001703948
33    34    1     0     0
SMALL
USER_CHARGES
@<TRIPOS>ATOM
1      O1      0.0021   -0.0041    0.0020 O.2      1 ZINC000001703948   -0.5800
2      C2     -0.0144    1.2117    0.0087 C.2      1 ZINC000001703948    0.7200
3      N3     -1.1995    1.8396    0.0289 N.am     1 ZINC000001703948   -0.7500
4      C4     -1.2867    3.3007    0.0509 C.3      1 ZINC000001703948    0.3200
5      H5     -1.3139    3.6485    1.0835 H        1 ZINC000001703948    0.0700
6      O6     -2.4744    3.7184   -0.6252 O.3      1 ZINC000001703948   -0.5600
7      C7     -0.0602    3.8882   -0.6554 C.3      1 ZINC000001703948   -0.1500
8      C8      1.2011    3.3346    0.0161 C.3      1 ZINC000001703948    0.1200
9      N9      1.1533    1.8717    0.0011 N.am     1 ZINC000001703948   -0.6100
10     C10     2.4061    1.1131   -0.0319 C.3      1 ZINC000001703948    0.3300
11     H11     3.2574    1.7848   -0.1428 H        1 ZINC000001703948    0.1100
12     O12     2.3836    0.1404   -1.0987 O.3      1 ZINC000001703948   -0.3400
13     C13     3.3565   -0.8654   -0.7702 C.3      1 ZINC000001703948    0.0600
14     H14     4.3140   -0.6188   -1.2291 H        1 ZINC000001703948    0.0900
15     C15     2.8793   -2.2322   -1.2652 C.3      1 ZINC000001703948    0.0800
16     O16     2.8481   -2.2371   -2.6938 O.3      1 ZINC000001703948   -0.5600
17     C17     3.4994   -0.8808    0.7641 C.3      1 ZINC000001703948    0.0400
18     H18     3.1824   -1.8427    1.1671 H        1 ZINC000001703948    0.0800
19     O19     4.8483   -0.6008    1.1437 O.3      1 ZINC000001703948   -0.5400
20     C20     2.5552    0.2496    1.2466 C.3      1 ZINC000001703948    0.0800
21     H21     1.5908   -0.1542    1.5548 H        1 ZINC000001703948    0.1000
22     O22     3.1547    0.9970    2.3068 O.3      1 ZINC000001703948   -0.5400
23     H23    -2.0154    1.3149    0.0287 H        1 ZINC000001703948    0.4100
24     H24    -3.2903    3.3785   -0.2331 H        1 ZINC000001703948    0.3900
25     H25    -0.0710    3.6014   -1.7069 H        1 ZINC000001703948    0.0900
26     H26    -0.0738    4.9747   -0.5694 H        1 ZINC000001703948    0.1100
27     H27     2.0826    3.6777   -0.5256 H        1 ZINC000001703948    0.0900
28     H28     1.2476    3.6835    1.0477 H        1 ZINC000001703948    0.0800
29     H29     3.5632   -3.0049   -0.9140 H        1 ZINC000001703948    0.0600
30     H30     1.8792   -2.4295   -0.8792 H        1 ZINC000001703948    0.0600
31     H31     2.5540   -3.0744   -3.0779 H        1 ZINC000001703948    0.3800
32     H32     5.4905   -1.2465    0.8185 H        1 ZINC000001703948    0.3800
33     H33     3.3484    0.4735    3.0965 H        1 ZINC000001703948    0.3900
@<TRIPOS>BOND
1     1     2     2
2     2     9     am
3     2     3     am
4     3     4     1
5     3     23    1
6     4     5     1
7     4     6     1
8     4     7     1
9     6     24    1
10    7     8     1
11    7     25    1
12    7     26    1
13    8     9     1
14    8     27    1
15    8     28    1
16    9     10    1
17    10    11    1
18    10    20    1
19    10    12    1
20    12    13    1
21    13    14    1
22    13    15    1
23    13    17    1
24    15    16    1
25    15    29    1
26    15    30    1
27    16    31    1
28    17    18    1
29    17    19    1
30    17    20    1
31    19    32    1
32    20    21    1
33    20    22    1
34    22    33    1
@<TRIPOS>SUBSTRUCTURE
1   ZINC000001703948 1     RESIDUE    1   A     ZIN   1
