@<TRIPOS>MOLECULE
ZINC000000009005
  28   29    0    0    0
SMALL
USER_CHARGES
NO_NAME
@<TRIPOS>ATOM
    1 N1       -0.0162     1.3436     0.0094 N.am   1 <0>      -0.8600
    2 C2        0.0021    -0.0041     0.0020 C.2    1 <0>       0.5100
    3 O3        1.0605    -0.5961    -0.0113 O.2    1 <0>      -0.5300
    4 C4       -1.2926    -0.7753     0.0102 C.3    1 <0>       0.0400
    5 N5       -1.0046    -2.2157    -0.0002 N.3    1 <0>      -0.6600
    6 C6       -2.2462    -3.0009     0.0074 C.3    1 <0>       0.0900
    7 C7       -2.6964    -3.3294    -1.4319 C.3    1 <0>      -0.1100
    8 C8       -3.3040    -4.7134    -1.3508 C.ar   1 <0>      -0.1000
    9 C9       -4.1379    -5.3803    -2.2321 C.ar   1 <0>      -0.1100
   10 C10      -4.5739    -6.6591    -1.9440 C.ar   1 <0>      -0.1200
   11 C11      -4.1769    -7.2756    -0.7724 C.ar   1 <0>      -0.1200
   12 C12      -3.3448    -6.6118     0.1082 C.ar   1 <0>      -0.1100
   13 C13      -2.9068    -5.3301    -0.1788 C.ar   1 <0>      -0.0900
   14 C14      -2.0053    -4.4024     0.6073 C.3    1 <0>      -0.0700
   15 H15       0.8172     1.8399     0.0041 H      1 <0>       0.4000
   16 H16      -0.8627     1.8171     0.0160 H      1 <0>       0.4000
   17 H17      -1.8592    -0.5245     0.9070 H      1 <0>       0.1100
   18 H18      -1.8762    -0.5150    -0.8728 H      1 <0>       0.0600
   19 H19      -0.4253    -2.4629    -0.7885 H      1 <0>       0.3500
   20 H20      -3.0312    -2.4761     0.5519 H      1 <0>       0.0900
   21 H21      -3.4413    -2.6085    -1.7690 H      1 <0>       0.0800
   22 H22      -1.8392    -3.3314    -2.1052 H      1 <0>       0.0800
   23 H23      -4.4488    -4.8991    -3.1476 H      1 <0>       0.1200
   24 H24      -5.2240    -7.1768    -2.6337 H      1 <0>       0.1200
   25 H25      -4.5171    -8.2751    -0.5454 H      1 <0>       0.1200
   26 H26      -3.0350    -7.0941     1.0235 H      1 <0>       0.1200
   27 H27      -0.9622    -4.6927     0.4819 H      1 <0>       0.0900
   28 H28      -2.2779    -4.4147     1.6626 H      1 <0>       0.0800
@<TRIPOS>BOND
   1    1    2 am
   2    1   15 1
   3    1   16 1
   4    2    3 2
   5    2    4 1
   6    4    5 1
   7    4   17 1
   8    4   18 1
   9    5    6 1
  10    5   19 1
  11    6   14 1
  12    6    7 1
  13    6   20 1
  14    7    8 1
  15    7   21 1
  16    7   22 1
  17    8   13 ar
  18    8    9 ar
  19    9   10 ar
  20    9   23 1
  21   10   11 ar
  22   10   24 1
  23   11   12 ar
  24   11   25 1
  25   12   13 ar
  26   12   26 1
  27   13   14 1
  28   14   27 1
  29   14   28 1
