@<TRIPOS>MOLECULE
ZINC000003938673
57    60    1     0     0
SMALL
USER_CHARGES
@<TRIPOS>ATOM
1      C1      0.4007    1.5765    0.4705 C.3      1 ZINC000003938673   -0.1400
2      C2      0.3171    0.0636    0.2581 C.3      1 ZINC000003938673   -0.1200
3      H3      0.8853   -0.2216   -0.6273 H        1 ZINC000003938673    0.0900
4      C4     -1.1656   -0.3719    0.1031 C.3      1 ZINC000003938673   -0.1100
5      C5     -1.5476   -0.8001    1.5244 C.3      1 ZINC000003938673   -0.0800
6      H6     -1.7005    0.0750    2.1559 H        1 ZINC000003938673    0.0900
7      C7     -2.7321   -1.7427    1.6341 C.3      1 ZINC000003938673   -0.1000
8      H8     -2.5400   -2.6442    1.0524 H        1 ZINC000003938673    0.1200
9      C9     -3.9950   -1.0525    1.1147 C.3      1 ZINC000003938673   -0.1400
10     C10    -5.1799   -2.0206    1.1901 C.3      1 ZINC000003938673    0.1300
11     H11    -5.0104   -2.8627    0.5191 H        1 ZINC000003938673    0.1100
12     F12    -6.3563   -1.3564    0.8264 F        1 ZINC000003938673   -0.1900
13     C13    -5.2925   -2.5186    2.6188 C.2      1 ZINC000003938673   -0.0800
14     C14    -6.4625   -2.4372    3.2371 C.2      1 ZINC000003938673   -0.1900
15     C15    -6.6062   -2.8910    4.6289 C.2      1 ZINC000003938673    0.4200
16     O16    -7.6868   -2.8539    5.1871 O.2      1 ZINC000003938673   -0.4200
17     C17    -5.4118   -3.3918    5.3318 C.2      1 ZINC000003938673   -0.1300
18     Cl18   -5.5210   -3.8785    6.9945 Cl       1 ZINC000003938673   -0.0400
19     C19    -4.2546   -3.4702    4.6917 C.2      1 ZINC000003938673   -0.0600
20     C20    -4.0631   -3.0858    3.2648 C.3      1 ZINC000003938673   -0.0200
21     C21    -3.6659   -4.3441    2.4903 C.3      1 ZINC000003938673   -0.1400
22     C22    -2.8946   -2.1079    3.1183 C.3      1 ZINC000003938673    0.1600
23     F23    -3.1799   -0.9396    3.8332 F        1 ZINC000003938673   -0.1900
24     C24    -1.6336   -2.7360    3.7039 C.3      1 ZINC000003938673    0.0900
25     H25    -1.7717   -2.8774    4.7758 H        1 ZINC000003938673    0.0800
26     O26    -1.4183   -4.0083    3.0900 O.3      1 ZINC000003938673   -0.5400
27     C27    -0.3978   -1.8526    3.4699 C.3      1 ZINC000003938673   -0.1300
28     C28    -0.2792   -1.5758    1.9707 C.3      1 ZINC000003938673   -0.0400
29     C29    -0.2645   -2.8969    1.1991 C.3      1 ZINC000003938673   -0.1700
30     C30     0.8640   -0.6790    1.5028 C.3      1 ZINC000003938673    0.1100
31     O31     1.2364    0.2305    2.5402 O.3      1 ZINC000003938673   -0.5300
32     C32     2.0480   -1.5149    1.0900 C.2      1 ZINC000003938673    0.3300
33     O33     2.1653   -1.8705   -0.0581 O.2      1 ZINC000003938673   -0.4100
34     C34     3.0857   -1.9072    2.1100 C.3      1 ZINC000003938673    0.0300
35     O35     4.1003   -2.6917    1.4799 O.3      1 ZINC000003938673   -0.5600
36     H36     1.4413    1.8659    0.6168 H        1 ZINC000003938673    0.0500
37     H37     0.0007    2.0888   -0.4046 H        1 ZINC000003938673    0.0600
38     H38    -0.1805    1.8525    1.3503 H        1 ZINC000003938673    0.0700
39     H39    -1.7811    0.4654   -0.2259 H        1 ZINC000003938673    0.0800
40     H40    -1.2512   -1.2101   -0.5884 H        1 ZINC000003938673    0.0800
41     H41    -4.2051   -0.1738    1.7245 H        1 ZINC000003938673    0.0900
42     H42    -3.8416   -0.7468    0.0797 H        1 ZINC000003938673    0.1000
43     H43    -7.3173   -2.0340    2.7145 H        1 ZINC000003938673    0.1600
44     H44    -3.3972   -3.8352    5.2377 H        1 ZINC000003938673    0.1400
45     H45    -4.5604   -4.9151    2.2415 H        1 ZINC000003938673    0.0600
46     H46    -3.1503   -4.0587    1.5734 H        1 ZINC000003938673    0.0800
47     H47    -3.0041   -4.9549    3.1043 H        1 ZINC000003938673    0.1100
48     H48    -0.6326   -4.4718    3.4107 H        1 ZINC000003938673    0.3800
49     H49    -0.5277   -0.8926    3.9695 H        1 ZINC000003938673    0.0900
50     H50     0.4932   -2.3524    3.8498 H        1 ZINC000003938673    0.0800
51     H51    -1.2285   -3.3934    1.3103 H        1 ZINC000003938673    0.1100
52     H52    -0.0773   -2.6992    0.1437 H        1 ZINC000003938673    0.0600
53     H53     0.5227   -3.5393    1.5937 H        1 ZINC000003938673    0.0500
54     H54     1.9591    0.8264    2.3002 H        1 ZINC000003938673    0.3800
55     H55     3.5331   -1.0096    2.5369 H        1 ZINC000003938673    0.0800
56     H56     2.6149   -2.4902    2.9016 H        1 ZINC000003938673    0.0800
57     H57     4.8030   -2.9801    2.0784 H        1 ZINC000003938673    0.3900
@<TRIPOS>BOND
1     1     2     1
2     1     36    1
3     1     37    1
4     1     38    1
5     2     3     1
6     2     30    1
7     2     4     1
8     4     5     1
9     4     39    1
10    4     40    1
11    5     6     1
12    5     28    1
13    5     7     1
14    7     8     1
15    7     22    1
16    7     9     1
17    9     10    1
18    9     41    1
19    9     42    1
20    10    11    1
21    10    12    1
22    10    13    1
23    13    20    1
24    13    14    2
25    14    15    1
26    14    43    1
27    15    16    2
28    15    17    1
29    17    18    1
30    17    19    2
31    19    20    1
32    19    44    1
33    20    21    1
34    20    22    1
35    21    45    1
36    21    46    1
37    21    47    1
38    22    23    1
39    22    24    1
40    24    25    1
41    24    26    1
42    24    27    1
43    26    48    1
44    27    28    1
45    27    49    1
46    27    50    1
47    28    29    1
48    28    30    1
49    29    51    1
50    29    52    1
51    29    53    1
52    30    31    1
53    30    32    1
54    31    54    1
55    32    33    2
56    32    34    1
57    34    35    1
58    34    55    1
59    34    56    1
60    35    57    1
@<TRIPOS>SUBSTRUCTURE
1   ZINC000003938673 1     RESIDUE    1   A     ZIN   1
