@<TRIPOS>MOLECULE
ZINC000000000825
27    26    1     0     0
SMALL
USER_CHARGES
@<TRIPOS>ATOM
1      C1      1.4033    0.4567   -0.7517 C.3      1 ZINC000000000825   -0.1500
2      C2      0.7219   -0.8930   -0.5176 C.3      1 ZINC000000000825   -0.1200
3      C3     -0.7632   -0.6704   -0.2243 C.3      1 ZINC000000000825   -0.0800
4      H4     -0.8688    0.0206    0.6120 H        1 ZINC000000000825    0.0900
5      C5     -1.4448   -0.0821   -1.4612 C.3      1 ZINC000000000825   -0.1500
6      C6     -1.4184   -2.0063    0.1322 C.3      1 ZINC000000000825   -0.1100
7      H7     -1.3128   -2.6974   -0.7041 H        1 ZINC000000000825    0.0900
8      C8     -2.9034   -1.7837    0.4255 C.3      1 ZINC000000000825   -0.1100
9      C9     -3.0521   -0.7889    1.5783 C.3      1 ZINC000000000825   -0.1600
10     C10    -0.7471   -2.5858    1.3506 C.2      1 ZINC000000000825    0.5200
11     N11    -0.6429   -3.9222    1.4911 N.am     1 ZINC000000000825   -0.8600
12     O12    -0.3005   -1.8497    2.2047 O.2      1 ZINC000000000825   -0.5400
13     H13     2.4613    0.2982   -0.9607 H        1 ZINC000000000825    0.0500
14     H14     0.9364    0.9571   -1.6001 H        1 ZINC000000000825    0.0600
15     H15     1.2977    1.0764    0.1388 H        1 ZINC000000000825    0.0600
16     H16     0.8275   -1.5127   -1.4081 H        1 ZINC000000000825    0.0600
17     H17     1.1888   -1.3934    0.3308 H        1 ZINC000000000825    0.0600
18     H18    -1.3392   -0.7731   -2.2975 H        1 ZINC000000000825    0.0500
19     H19    -2.5027    0.0765   -1.2523 H        1 ZINC000000000825    0.0600
20     H20    -0.9780    0.8696   -1.7152 H        1 ZINC000000000825    0.0600
21     H21    -3.3937   -1.3861   -0.4631 H        1 ZINC000000000825    0.0800
22     H22    -3.3653   -2.7316    0.7018 H        1 ZINC000000000825    0.0600
23     H23    -4.1054   -0.6928    1.8418 H        1 ZINC000000000825    0.0500
24     H24    -2.4927   -1.1477    2.4423 H        1 ZINC000000000825    0.0600
25     H25    -2.6640    0.1826    1.2722 H        1 ZINC000000000825    0.0600
26     H26    -1.0634   -4.5119    0.8459 H        1 ZINC000000000825    0.4000
27     H27    -0.1474   -4.2943    2.2374 H        1 ZINC000000000825    0.4000
@<TRIPOS>BOND
1     1     2     1
2     1     13    1
3     1     14    1
4     1     15    1
5     2     3     1
6     2     16    1
7     2     17    1
8     3     4     1
9     3     5     1
10    3     6     1
11    5     18    1
12    5     19    1
13    5     20    1
14    6     7     1
15    6     8     1
16    6     10    1
17    8     9     1
18    8     21    1
19    8     22    1
20    9     23    1
21    9     24    1
22    9     25    1
23    10    11    am
24    10    12    2
25    11    26    1
26    11    27    1
@<TRIPOS>SUBSTRUCTURE
1   ZINC000000000825 1     RESIDUE    1   A     ZIN   1
