@<TRIPOS>MOLECULE
ZINC000003937467
93    94    1     0     0
SMALL
USER_CHARGES
@<TRIPOS>ATOM
1      C1      2.9154    5.3185   -4.4246 C.3      1 ZINC000003937467   -0.1500
2      C2      4.3942    5.0657   -4.1244 C.3      1 ZINC000003937467   -0.0200
3      C3      5.2138    6.2923   -4.5299 C.3      1 ZINC000003937467   -0.1400
4      C4      4.5733    4.8046   -2.6275 C.3      1 ZINC000003937467   -0.1400
5      C5      4.8669    3.8656   -4.9037 C.ar     1 ZINC000003937467   -0.0800
6      C6      3.9887    3.1860   -5.7245 C.ar     1 ZINC000003937467   -0.0900
7      C7      4.4249    2.0800   -6.4431 C.ar     1 ZINC000003937467   -0.0900
8      S8      3.3057    1.2122   -7.4914 S.3      1 ZINC000003937467   -0.0800
9      C9      4.3627   -0.0400   -8.2694 C.3      1 ZINC000003937467   -0.0500
10     C10     3.5189   -0.9122   -9.2011 C.3      1 ZINC000003937467   -0.1500
11     C11     5.4634    0.6517   -9.0762 C.3      1 ZINC000003937467   -0.1500
12     S12     5.1152   -1.0781   -6.9861 S.3      1 ZINC000003937467   -0.0900
13     C13     3.7205   -1.6684   -6.0855 C.ar     1 ZINC000003937467   -0.0900
14     C14     2.4388   -1.2797   -6.4553 C.ar     1 ZINC000003937467   -0.1200
15     C15     1.3467   -1.7428   -5.7490 C.ar     1 ZINC000003937467   -0.0500
16     C16    -0.0435   -1.3214   -6.1498 C.3      1 ZINC000003937467   -0.0300
17     C17     0.0267   -0.4791   -7.4252 C.3      1 ZINC000003937467   -0.1400
18     C18    -0.8992   -2.5636   -6.4055 C.3      1 ZINC000003937467   -0.1400
19     C19    -0.6694   -0.4935   -5.0257 C.3      1 ZINC000003937467   -0.1500
20     C20     1.5287   -2.5965   -4.6706 C.ar     1 ZINC000003937467    0.1000
21     O21     0.4522   -3.0524   -3.9757 O.3      1 ZINC000003937467   -0.2900
22     C22     0.0144   -2.2904   -2.9610 C.2      1 ZINC000003937467    0.4600
23     O23     0.5755   -1.2529   -2.6990 O.2      1 ZINC000003937467   -0.4900
24     C24    -1.1767   -2.7290   -2.1487 C.3      1 ZINC000003937467   -0.0900
25     C25    -1.4647   -1.6895   -1.0636 C.3      1 ZINC000003937467   -0.1700
26     C26    -2.6558   -2.1281   -0.2513 C.2      1 ZINC000003937467    0.4900
27     O27    -3.2220   -3.1750   -0.5158 O.co2    1 ZINC000003937467   -0.7000
28     O28    -3.0534   -1.4360    0.6703 O.co2    1 ZINC000003937467   -0.7000
29     C29     2.8079   -2.9857   -4.3007 C.ar     1 ZINC000003937467   -0.0500
30     C30     3.0039   -3.9138   -3.1297 C.3      1 ZINC000003937467   -0.0300
31     C31     4.4804   -4.3017   -3.0279 C.3      1 ZINC000003937467   -0.1400
32     C32     2.5718   -3.2088   -1.8423 C.3      1 ZINC000003937467   -0.1400
33     C33     2.1583   -5.1731   -3.3299 C.3      1 ZINC000003937467   -0.1500
34     C34     3.9012   -2.5276   -5.0086 C.ar     1 ZINC000003937467   -0.0900
35     C35     5.7444    1.6590   -6.3350 C.ar     1 ZINC000003937467   -0.1200
36     C36     6.6208    2.3401   -5.5136 C.ar     1 ZINC000003937467   -0.0800
37     C37     8.0522    1.8836   -5.3961 C.3      1 ZINC000003937467   -0.0200
38     C38     8.2600    0.6315   -6.2504 C.3      1 ZINC000003937467   -0.1500
39     C39     8.9836    2.9947   -5.8848 C.3      1 ZINC000003937467   -0.1400
40     C40     8.3663    1.5612   -3.9338 C.3      1 ZINC000003937467   -0.1400
41     C41     6.1855    3.4475   -4.8006 C.ar     1 ZINC000003937467    0.1100
42     O42     7.0496    4.1176   -3.9918 O.3      1 ZINC000003937467   -0.4800
43     H43     2.7877    5.5044   -5.4910 H        1 ZINC000003937467    0.0600
44     H44     2.3314    4.4446   -4.1357 H        1 ZINC000003937467    0.0600
45     H45     2.5734    6.1865   -3.8609 H        1 ZINC000003937467    0.0600
46     H46     4.8719    7.1603   -3.9662 H        1 ZINC000003937467    0.0600
47     H47     6.2674    6.1122   -4.3160 H        1 ZINC000003937467    0.0600
48     H48     5.0862    6.4783   -5.5963 H        1 ZINC000003937467    0.0500
49     H49     3.9431    3.9678   -2.3266 H        1 ZINC000003937467    0.0500
50     H50     5.6169    4.5656   -2.4227 H        1 ZINC000003937467    0.0700
51     H51     4.2876    5.6946   -2.0667 H        1 ZINC000003937467    0.0500
52     H52     2.9631    3.5139   -5.8075 H        1 ZINC000003937467    0.1300
53     H53     3.0758   -0.2902   -9.9787 H        1 ZINC000003937467    0.0800
54     H54     4.1519   -1.6717   -9.6600 H        1 ZINC000003937467    0.0900
55     H55     2.7279   -1.3963   -8.6282 H        1 ZINC000003937467    0.0800
56     H56     6.0662    1.2709   -8.4119 H        1 ZINC000003937467    0.0800
57     H57     6.0969   -0.1008   -9.5459 H        1 ZINC000003937467    0.0800
58     H58     5.0112    1.2776   -9.8455 H        1 ZINC000003937467    0.0900
59     H59     2.2970   -0.6152   -7.2948 H        1 ZINC000003937467    0.1500
60     H60     0.4314   -1.0828   -8.2375 H        1 ZINC000003937467    0.0500
61     H61    -0.9737   -0.1370   -7.6902 H        1 ZINC000003937467    0.0600
62     H62     0.6725    0.3826   -7.2564 H        1 ZINC000003937467    0.0600
63     H63    -1.0577   -3.0951   -5.4672 H        1 ZINC000003937467    0.0700
64     H64    -1.8615   -2.2630   -6.8198 H        1 ZINC000003937467    0.0600
65     H65    -0.3880   -3.2179   -7.1118 H        1 ZINC000003937467    0.0500
66     H66     0.0846    0.1672   -4.5978 H        1 ZINC000003937467    0.0700
67     H67    -1.4893    0.1025   -5.4266 H        1 ZINC000003937467    0.0600
68     H68    -1.0496   -1.1603   -4.2518 H        1 ZINC000003937467    0.0600
69     H69    -2.0454   -2.8245   -2.8001 H        1 ZINC000003937467    0.1000
70     H70    -0.9644   -3.6913   -1.6828 H        1 ZINC000003937467    0.1000
71     H71    -0.5960   -1.5940   -0.4123 H        1 ZINC000003937467    0.0700
72     H72    -1.6770   -0.7272   -1.5295 H        1 ZINC000003937467    0.0700
73     H73     5.0827   -3.4045   -2.8852 H        1 ZINC000003937467    0.0600
74     H74     4.6221   -4.9730   -2.1809 H        1 ZINC000003937467    0.0600
75     H75     4.7882   -4.8039   -3.9450 H        1 ZINC000003937467    0.0600
76     H76     1.4933   -3.0521   -1.8583 H        1 ZINC000003937467    0.0600
77     H77     2.8367   -3.8258   -0.9837 H        1 ZINC000003937467    0.0600
78     H78     3.0777   -2.2462   -1.7679 H        1 ZINC000003937467    0.0600
79     H79     2.4951   -5.6985   -4.2236 H        1 ZINC000003937467    0.0500
80     H80     2.2662   -5.8248   -2.4629 H        1 ZINC000003937467    0.0600
81     H81     1.1113   -4.8930   -3.4460 H        1 ZINC000003937467    0.0800
82     H82     4.8969   -2.8310   -4.7207 H        1 ZINC000003937467    0.1300
83     H83     6.0845    0.7991   -6.8930 H        1 ZINC000003937467    0.1600
84     H84     7.9595    0.8385   -7.2775 H        1 ZINC000003937467    0.0500
85     H85     9.3123    0.3480   -6.2298 H        1 ZINC000003937467    0.0600
86     H86     7.6561   -0.1841   -5.8526 H        1 ZINC000003937467    0.0600
87     H87     8.9487    3.8313   -5.1869 H        1 ZINC000003937467    0.0600
88     H88    10.0032    2.6140   -5.9449 H        1 ZINC000003937467    0.0600
89     H89     8.6625    3.3305   -6.8708 H        1 ZINC000003937467    0.0500
90     H90     7.6421    0.8388   -3.5573 H        1 ZINC000003937467    0.0500
91     H91     9.3696    1.1411   -3.8618 H        1 ZINC000003937467    0.0500
92     H92     8.3112    2.4739   -3.3406 H        1 ZINC000003937467    0.0700
93     H93     7.5421    4.8197   -4.4384 H        1 ZINC000003937467    0.3800
@<TRIPOS>BOND
1     1     2     1
2     1     43    1
3     1     44    1
4     1     45    1
5     2     3     1
6     2     4     1
7     2     5     1
8     3     46    1
9     3     47    1
10    3     48    1
11    4     49    1
12    4     50    1
13    4     51    1
14    5     41    ar
15    5     6     ar
16    6     7     ar
17    6     52    1
18    7     8     1
19    7     35    ar
20    8     9     1
21    9     10    1
22    9     11    1
23    9     12    1
24    10    53    1
25    10    54    1
26    10    55    1
27    11    56    1
28    11    57    1
29    11    58    1
30    12    13    1
31    13    34    ar
32    13    14    ar
33    14    15    ar
34    14    59    1
35    15    16    1
36    15    20    ar
37    16    17    1
38    16    18    1
39    16    19    1
40    17    60    1
41    17    61    1
42    17    62    1
43    18    63    1
44    18    64    1
45    18    65    1
46    19    66    1
47    19    67    1
48    19    68    1
49    20    21    1
50    20    29    ar
51    21    22    1
52    22    23    2
53    22    24    1
54    24    25    1
55    24    69    1
56    24    70    1
57    25    26    1
58    25    71    1
59    25    72    1
60    26    27    ar
61    26    28    ar
62    29    30    1
63    29    34    ar
64    30    31    1
65    30    32    1
66    30    33    1
67    31    73    1
68    31    74    1
69    31    75    1
70    32    76    1
71    32    77    1
72    32    78    1
73    33    79    1
74    33    80    1
75    33    81    1
76    34    82    1
77    35    36    ar
78    35    83    1
79    36    37    1
80    36    41    ar
81    37    38    1
82    37    39    1
83    37    40    1
84    38    84    1
85    38    85    1
86    38    86    1
87    39    87    1
88    39    88    1
89    39    89    1
90    40    90    1
91    40    91    1
92    40    92    1
93    41    42    1
94    42    93    1
@<TRIPOS>SUBSTRUCTURE
1   ZINC000003937467 1     RESIDUE    1   A     ZIN   1
