@<TRIPOS>MOLECULE
ZINC000000006387
  42   44    0    0    0
SMALL
USER_CHARGES
NO_NAME
@<TRIPOS>ATOM
    1 C1       -0.0184     1.5028     0.0103 C.3    1 <0>      -0.1200
    2 C2        0.0021    -0.0041     0.0020 C.ar   1 <0>      -0.0800
    3 C3        0.0057    -0.6857    -1.2017 C.ar   1 <0>      -0.1100
    4 C4        0.0245    -2.0703    -1.2165 C.ar   1 <0>      -0.0800
    5 C5        0.0400    -2.7709    -0.0317 C.ar   1 <0>      -0.0700
    6 C6        0.0369    -2.0941     1.1883 C.ar   1 <0>      -0.0300
    7 C7        0.0228    -0.6967     1.1947 C.ar   1 <0>      -0.1100
    8 C8        0.0559    -3.0775     2.2926 C.2    1 <0>       0.0400
    9 C9        0.0705    -4.3414     1.7904 C.2    1 <0>      -0.1400
   10 C10       0.0880    -5.2316     2.8743 C.2    1 <0>      -0.1400
   11 C11       0.0838    -4.4954     4.0067 C.2    1 <0>      -0.0400
   12 N12       0.0641    -3.1766     3.6645 N.pl3  1 <0>      -0.4600
   13 C13       0.0536    -2.0511     4.6022 C.3    1 <0>       0.0800
   14 C14      -1.3884    -1.5979     4.8388 C.3    1 <0>       0.0100
   15 H15      -1.8596    -1.3712     3.8824 H      1 <0>       0.1500
   16 C16      -1.3918    -0.3460     5.7183 C.3    1 <0>      -0.1800
   17 N17      -2.1348    -2.6702     5.5104 N.4    1 <0>      -0.6400
   18 H18      -1.6986    -2.8800     6.3958 H      1 <0>       0.4300
   19 H19      -3.0858    -2.3713     5.6665 H      1 <0>       0.4400
   20 H20      -2.1326    -3.4958     4.9304 H      1 <0>       0.4400
   21 C21       0.0616    -4.2463     0.2846 C.3    1 <0>       0.0400
   22 C22      -1.1872    -4.9261    -0.2803 C.3    1 <0>      -0.1300
   23 C23       1.3227    -4.8920    -0.2930 C.3    1 <0>      -0.1300
   24 H24       1.0042     1.8801     0.0026 H      1 <0>       0.0800
   25 H25      -0.5455     1.8639    -0.8728 H      1 <0>       0.0700
   26 H26      -0.5286     1.8543     0.9071 H      1 <0>       0.0600
   27 H27      -0.0064    -0.1370    -2.1318 H      1 <0>       0.1300
   28 H28       0.0266    -2.6004    -2.1575 H      1 <0>       0.1300
   29 H29       0.0207    -0.1600     2.1319 H      1 <0>       0.1100
   30 H30       0.1024    -6.3099     2.8142 H      1 <0>       0.1500
   31 H31       0.0938    -4.8860     5.0135 H      1 <0>       0.1800
   32 H32       0.4966    -2.3622     5.5483 H      1 <0>       0.1200
   33 H33       0.6302    -1.2254     4.1851 H      1 <0>       0.1300
   34 H34      -0.9206    -0.5726     6.6747 H      1 <0>       0.0900
   35 H35      -0.8380     0.4497     5.2200 H      1 <0>       0.1100
   36 H36      -2.4191    -0.0231     5.8869 H      1 <0>       0.0900
   37 H37      -2.0775    -4.4356     0.1134 H      1 <0>       0.0500
   38 H38      -1.1816    -4.8506    -1.3677 H      1 <0>       0.0600
   39 H39      -1.1923    -5.9765     0.0109 H      1 <0>       0.0700
   40 H40       1.3593    -5.9418    -0.0020 H      1 <0>       0.0700
   41 H41       1.3041    -4.8168    -1.3802 H      1 <0>       0.0600
   42 H42       2.2032    -4.3775     0.0918 H      1 <0>       0.0600
@<TRIPOS>BOND
   1    1    2 1
   2    1   24 1
   3    1   25 1
   4    1   26 1
   5    2    7 ar
   6    2    3 ar
   7    3    4 ar
   8    3   27 1
   9    4    5 ar
  10    4   28 1
  11    5   21 1
  12    5    6 ar
  13    6    7 ar
  14    6    8 1
  15    7   29 1
  16    8   12 1
  17    8    9 2
  18    9   10 1
  19    9   21 1
  20   10   11 2
  21   10   30 1
  22   11   12 1
  23   11   31 1
  24   12   13 1
  25   13   14 1
  26   13   32 1
  27   13   33 1
  28   14   15 1
  29   14   16 1
  30   14   17 1
  31   16   34 1
  32   16   35 1
  33   16   36 1
  34   17   18 1
  35   17   19 1
  36   17   20 1
  37   21   22 1
  38   21   23 1
  39   22   37 1
  40   22   38 1
  41   22   39 1
  42   23   40 1
  43   23   41 1
  44   23   42 1
