@<TRIPOS>MOLECULE
ZINC000085537149
109   115   1     0     0
SMALL
USER_CHARGES
@<TRIPOS>ATOM
1      C1      4.1124    1.3860   -0.2997 C.2      1 ZINC000085537149   -0.2100
2      C2      3.4991    0.2600   -0.0309 C.2      1 ZINC000085537149   -0.1000
3      C3      4.2013   -0.8089    0.7662 C.3      1 ZINC000085537149   -0.1100
4      H4      5.2900   -0.7936    0.7163 H        1 ZINC000085537149    0.1100
5      C5      3.5181   -2.1737    0.8734 C.3      1 ZINC000085537149   -0.1400
6      C6      3.5605   -1.2412    2.0866 C.3      1 ZINC000085537149    0.1300
7      N7      4.4572   -1.6033    3.1871 N.am     1 ZINC000085537149   -0.6700
8      C8      4.2288   -2.7229    3.9018 C.2      1 ZINC000085537149    0.5200
9      O9      3.3362   -3.4775    3.5780 O.2      1 ZINC000085537149   -0.5000
10     C10     5.0826   -3.0372    5.1032 C.3      1 ZINC000085537149    0.1200
11     H11     5.0046   -2.2322    5.8339 H        1 ZINC000085537149    0.1100
12     C12     6.5535   -3.2125    4.6704 C.3      1 ZINC000085537149   -0.1200
13     C13     6.6960   -4.7519    4.5390 C.3      1 ZINC000085537149    0.0700
14     H14     6.3278   -5.0973    3.5729 H        1 ZINC000085537149    0.1000
15     O15     8.0499   -5.1603    4.7439 O.3      1 ZINC000085537149   -0.2800
16     C16     8.4197   -6.3533    4.2160 C.ar     1 ZINC000085537149    0.2100
17     C17     9.7162   -6.8741    4.4333 C.ar     1 ZINC000085537149   -0.1500
18     C18    10.6588   -6.1745    5.2012 C.ar     1 ZINC000085537149   -0.0300
19     C19    11.8993   -6.6991    5.3948 C.ar     1 ZINC000085537149   -0.2100
20     C20    12.2501   -7.9319    4.8360 C.ar     1 ZINC000085537149    0.1600
21     O21    13.4951   -8.4336    5.0443 O.3      1 ZINC000085537149   -0.3100
22     C22    14.3858   -7.6491    5.8401 C.3      1 ZINC000085537149    0.0200
23     C23    11.3483   -8.6431    4.0778 C.ar     1 ZINC000085537149   -0.1500
24     C24    10.0603   -8.1245    3.8627 C.ar     1 ZINC000085537149    0.2100
25     N25     9.1656   -8.7956    3.1306 N.ar     1 ZINC000085537149   -0.5000
26     C26     7.9509   -8.3222    2.9193 C.ar     1 ZINC000085537149    0.2500
27     C27     6.9994   -9.1102    2.0987 C.ar     1 ZINC000085537149   -0.0600
28     C28     5.7146   -8.6257    1.8590 C.ar     1 ZINC000085537149   -0.0900
29     C29     4.8336   -9.3630    1.0943 C.ar     1 ZINC000085537149   -0.1200
30     C30     5.2232  -10.5808    0.5665 C.ar     1 ZINC000085537149   -0.1000
31     C31     6.4968  -11.0668    0.8016 C.ar     1 ZINC000085537149   -0.1300
32     C32     7.3884  -10.3352    1.5596 C.ar     1 ZINC000085537149   -0.0700
33     C33     7.5389   -7.0970    3.4554 C.ar     1 ZINC000085537149   -0.2800
34     C34     5.7853   -5.2479    5.6898 C.3      1 ZINC000085537149    0.0500
35     N35     4.6480   -4.3050    5.7076 N.am     1 ZINC000085537149   -0.6000
36     C36     3.4188   -4.5661    6.1947 C.2      1 ZINC000085537149    0.5400
37     O37     2.5299   -3.7509    6.0665 O.2      1 ZINC000085537149   -0.4900
38     C38     3.1487   -5.8709    6.8987 C.3      1 ZINC000085537149   -0.0800
39     H39     4.0599   -6.2150    7.3881 H        1 ZINC000085537149    0.1000
40     C40     2.0525   -5.6677    7.9466 C.3      1 ZINC000085537149   -0.1300
41     C41     2.1672   -6.7328    9.0065 C.2      1 ZINC000085537149    0.5200
42     O42     3.1206   -7.4824    9.0123 O.2      1 ZINC000085537149   -0.5400
43     N43     1.2102   -6.8523    9.9480 N.am     1 ZINC000085537149   -0.6100
44     C44     0.0463   -5.9556    9.9505 C.3      1 ZINC000085537149    0.1000
45     C45    -1.2294   -6.8036    9.9657 C.3      1 ZINC000085537149   -0.1400
46     C46    -1.1794   -7.7718   11.1499 C.3      1 ZINC000085537149   -0.1200
47     C47     0.0212   -8.7082   10.9951 C.3      1 ZINC000085537149   -0.1300
48     C48     1.3080   -7.8857   10.9878 C.3      1 ZINC000085537149    0.1100
49     C49     2.6919   -6.9157    5.8787 C.3      1 ZINC000085537149   -0.0500
50     C50     3.8360   -7.2153    4.9081 C.3      1 ZINC000085537149   -0.1600
51     C51     2.2924   -8.2000    6.6081 C.3      1 ZINC000085537149   -0.1300
52     C52     1.4903   -6.3768    5.0998 C.3      1 ZINC000085537149   -0.1500
53     C53     2.2753   -0.5658    2.4904 C.2      1 ZINC000085537149    0.5600
54     O54     1.3888   -0.4133    1.6769 O.2      1 ZINC000085537149   -0.6300
55     N55     2.1110   -0.1312    3.7555 N.pl3    1 ZINC000085537149   -1.1100
56     S56     0.6986    0.6109    4.1993 S.o2     1 ZINC000085537149    2.5900
57     O57     0.6644    1.7961    3.4160 O.2      1 ZINC000085537149   -1.0200
58     O58    -0.2905   -0.3976    4.0455 O.2      1 ZINC000085537149   -1.0100
59     C59     0.9303    1.0133    5.9528 C.3      1 ZINC000085537149   -0.6400
60     C60     1.0563    2.4912    6.3278 C.3      1 ZINC000085537149   -0.1300
61     C61    -0.2194    1.7205    6.6732 C.3      1 ZINC000085537149   -0.1500
62     H62     5.1213    1.5481    0.0500 H        1 ZINC000085537149    0.0900
63     H63     3.6108    2.1502   -0.8747 H        1 ZINC000085537149    0.1000
64     H64     2.4902    0.0979   -0.3806 H        1 ZINC000085537149    0.1200
65     H65     2.5607   -2.2984    0.3674 H        1 ZINC000085537149    0.1100
66     H66     4.1574   -3.0563    0.8945 H        1 ZINC000085537149    0.0900
67     H67     5.2152   -1.0373    3.4014 H        1 ZINC000085537149    0.3900
68     H68     6.7342   -2.7253    3.7122 H        1 ZINC000085537149    0.1000
69     H69     7.2288   -2.8264    5.4340 H        1 ZINC000085537149    0.1000
70     H70    10.4005   -5.2210    5.6376 H        1 ZINC000085537149    0.1400
71     H71    12.6217   -6.1566    5.9867 H        1 ZINC000085537149    0.1400
72     H72    14.5365   -6.6786    5.3673 H        1 ZINC000085537149    0.0600
73     H73    13.9574   -7.5074    6.8323 H        1 ZINC000085537149    0.0600
74     H74    15.3431   -8.1631    5.9277 H        1 ZINC000085537149    0.1000
75     H75    11.6292   -9.5942    3.6503 H        1 ZINC000085537149    0.1400
76     H76     5.4091   -7.6753    2.2711 H        1 ZINC000085537149    0.1300
77     H77     3.8378   -8.9886    0.9079 H        1 ZINC000085537149    0.1300
78     H78     4.5303  -11.1546   -0.0310 H        1 ZINC000085537149    0.1200
79     H79     6.7955  -12.0186    0.3876 H        1 ZINC000085537149    0.1200
80     H80     8.3826  -10.7154    1.7422 H        1 ZINC000085537149    0.1400
81     H81     6.5400   -6.7311    3.2687 H        1 ZINC000085537149    0.1500
82     H82     5.4359   -6.2603    5.4876 H        1 ZINC000085537149    0.1100
83     H83     6.3202   -5.2127    6.6389 H        1 ZINC000085537149    0.0800
84     H84     2.1657   -4.6853    8.4049 H        1 ZINC000085537149    0.1000
85     H85     1.0755   -5.7350    7.4680 H        1 ZINC000085537149    0.1100
86     H86     0.0748   -5.3224   10.8372 H        1 ZINC000085537149    0.0700
87     H87     0.0616   -5.3346    9.0548 H        1 ZINC000085537149    0.0900
88     H88    -2.0979   -6.1524   10.0646 H        1 ZINC000085537149    0.0800
89     H89    -1.3017   -7.3687    9.0365 H        1 ZINC000085537149    0.0700
90     H90    -1.0821   -7.2069   12.0770 H        1 ZINC000085537149    0.0600
91     H91    -2.0970   -8.3594   11.1775 H        1 ZINC000085537149    0.0600
92     H92     0.0427   -9.4126   11.8266 H        1 ZINC000085537149    0.0700
93     H93    -0.0630   -9.2554   10.0561 H        1 ZINC000085537149    0.0700
94     H94     2.1567   -8.5370   10.7789 H        1 ZINC000085537149    0.0900
95     H95     1.4417   -7.4078   11.9583 H        1 ZINC000085537149    0.0600
96     H96     4.6712   -7.6528    5.4549 H        1 ZINC000085537149    0.0600
97     H97     3.4928   -7.9163    4.1472 H        1 ZINC000085537149    0.0600
98     H98     4.1591   -6.2902    4.4306 H        1 ZINC000085537149    0.0700
99     H99     1.4932   -7.9819    7.3164 H        1 ZINC000085537149    0.0500
100    H100    1.9448   -8.9363    5.8835 H        1 ZINC000085537149    0.0500
101    H101    3.1547   -8.5966    7.1441 H        1 ZINC000085537149    0.0700
102    H102    1.7748   -5.4619    4.5802 H        1 ZINC000085537149    0.0800
103    H103    1.1648   -7.1211    4.3732 H        1 ZINC000085537149    0.0500
104    H104    0.6752   -6.1634    5.7913 H        1 ZINC000085537149    0.0500
105    H105    1.5182    0.2964    6.5260 H        1 ZINC000085537149    0.1500
106    H106    1.7274    2.7470    7.1478 H        1 ZINC000085537149    0.1000
107    H107    1.0001    3.2218    5.5209 H        1 ZINC000085537149    0.1100
108    H108   -1.1150    1.9440    6.0935 H        1 ZINC000085537149    0.1000
109    H109   -0.3876    1.4691    7.7204 H        1 ZINC000085537149    0.1000
@<TRIPOS>BOND
1     1     2     2
2     1     62    1
3     1     63    1
4     2     3     1
5     2     64    1
6     3     4     1
7     3     6     1
8     3     5     1
9     5     6     1
10    5     65    1
11    5     66    1
12    6     7     1
13    6     53    1
14    7     8     am
15    7     67    1
16    8     9     2
17    8     10    1
18    10    11    1
19    10    35    1
20    10    12    1
21    12    13    1
22    12    68    1
23    12    69    1
24    13    14    1
25    13    15    1
26    13    34    1
27    15    16    1
28    16    33    ar
29    16    17    ar
30    17    24    ar
31    17    18    ar
32    18    19    ar
33    18    70    1
34    19    20    ar
35    19    71    1
36    20    21    1
37    20    23    ar
38    21    22    1
39    22    72    1
40    22    73    1
41    22    74    1
42    23    24    ar
43    23    75    1
44    24    25    ar
45    25    26    ar
46    26    27    1
47    26    33    ar
48    27    32    ar
49    27    28    ar
50    28    29    ar
51    28    76    1
52    29    30    ar
53    29    77    1
54    30    31    ar
55    30    78    1
56    31    32    ar
57    31    79    1
58    32    80    1
59    33    81    1
60    34    35    1
61    34    82    1
62    34    83    1
63    35    36    am
64    36    37    2
65    36    38    1
66    38    39    1
67    38    40    1
68    38    49    1
69    40    41    1
70    40    84    1
71    40    85    1
72    41    42    2
73    41    43    am
74    43    48    1
75    43    44    1
76    44    45    1
77    44    86    1
78    44    87    1
79    45    46    1
80    45    88    1
81    45    89    1
82    46    47    1
83    46    90    1
84    46    91    1
85    47    48    1
86    47    92    1
87    47    93    1
88    48    94    1
89    48    95    1
90    49    50    1
91    49    51    1
92    49    52    1
93    50    96    1
94    50    97    1
95    50    98    1
96    51    99    1
97    51    100   1
98    51    101   1
99    52    102   1
100   52    103   1
101   52    104   1
102   53    54    2
103   53    55    1
104   55    56    1
105   56    57    2
106   56    58    2
107   56    59    1
108   59    61    1
109   59    60    1
110   59    105   1
111   60    61    1
112   60    106   1
113   60    107   1
114   61    108   1
115   61    109   1
@<TRIPOS>SUBSTRUCTURE
1   ZINC000085537149 1     RESIDUE    1   A     ZIN   1
