@<TRIPOS>MOLECULE
ZINC000003875481
62    66    1     0     0
SMALL
USER_CHARGES
@<TRIPOS>ATOM
1      C1      0.2745    1.6835    1.9413 C.3      1 ZINC000003875481   -0.1900
2      C2      0.1349    0.1821    1.6822 C.3      1 ZINC000003875481    0.2400
3      C3     -1.3206   -0.2555    1.8583 C.3      1 ZINC000003875481   -0.1400
4      O4      0.6048   -0.1459    0.3581 O.3      1 ZINC000003875481   -0.3600
5      C5      2.0420   -0.1897    0.4717 C.3      1 ZINC000003875481    0.0600
6      H6      2.5147    0.7264    0.1174 H        1 ZINC000003875481    0.1100
7      C7      2.5441   -1.4465   -0.2902 C.3      1 ZINC000003875481   -0.1100
8      C8      2.4817   -2.5467    0.7746 C.3      1 ZINC000003875481   -0.0800
9      H9      1.4501   -2.8590    0.9373 H        1 ZINC000003875481    0.0900
10     C10     3.3658   -3.7555    0.5252 C.3      1 ZINC000003875481   -0.1000
11     H11     4.4042   -3.4383    0.4299 H        1 ZINC000003875481    0.1100
12     C12     2.9236   -4.4663   -0.7553 C.3      1 ZINC000003875481   -0.1200
13     C13     3.8403   -5.6640   -1.0240 C.3      1 ZINC000003875481   -0.0900
14     C14     3.8313   -6.5503    0.2073 C.2      1 ZINC000003875481   -0.0300
15     C15     3.5743   -7.8432    0.0668 C.2      1 ZINC000003875481   -0.2200
16     C16     3.5359   -8.7300    1.2399 C.2      1 ZINC000003875481    0.4100
17     O17     3.3386   -9.9239    1.1113 O.2      1 ZINC000003875481   -0.4600
18     C18     3.7421   -8.1402    2.5735 C.2      1 ZINC000003875481   -0.2100
19     C19     4.0044   -6.8479    2.6893 C.2      1 ZINC000003875481   -0.0700
20     C20     4.1185   -5.9128    1.5346 C.3      1 ZINC000003875481   -0.0300
21     C21     5.5544   -5.3857    1.4984 C.3      1 ZINC000003875481   -0.1400
22     C22     3.2181   -4.6911    1.7355 C.3      1 ZINC000003875481    0.1600
23     F23     1.8853   -5.1094    1.8120 F        1 ZINC000003875481   -0.1900
24     C24     3.5841   -4.0044    3.0479 C.3      1 ZINC000003875481    0.0900
25     H25     3.3662   -4.6795    3.8755 H        1 ZINC000003875481    0.0800
26     O26     4.9818   -3.7071    3.0447 O.3      1 ZINC000003875481   -0.5400
27     C27     2.7958   -2.6999    3.2439 C.3      1 ZINC000003875481   -0.1300
28     C28     3.0277   -1.8063    2.0245 C.3      1 ZINC000003875481   -0.0500
29     C29     4.5289   -1.6058    1.8073 C.3      1 ZINC000003875481   -0.1700
30     C30     2.3072   -0.4496    1.9843 C.3      1 ZINC000003875481    0.0500
31     C31     3.1485    0.6490    2.5813 C.2      1 ZINC000003875481    0.3600
32     O32     3.8784    1.3022    1.8749 O.2      1 ZINC000003875481   -0.4100
33     C33     3.0789    0.9325    4.0597 C.3      1 ZINC000003875481    0.0300
34     O34     3.8686    2.0846    4.3615 O.3      1 ZINC000003875481   -0.5500
35     O35     0.9958   -0.5641    2.5691 O.3      1 ZINC000003875481   -0.3400
36     H36     1.3189    1.9756    1.8316 H        1 ZINC000003875481    0.0600
37     H37    -0.3340    2.2342    1.2239 H        1 ZINC000003875481    0.0800
38     H38    -0.0619    1.9105    2.9529 H        1 ZINC000003875481    0.0800
39     H39    -1.9525    0.2958    1.1620 H        1 ZINC000003875481    0.0800
40     H40    -1.4055   -1.3237    1.6585 H        1 ZINC000003875481    0.0800
41     H41    -1.6406   -0.0504    2.8799 H        1 ZINC000003875481    0.0800
42     H42     1.8833   -1.6804   -1.1248 H        1 ZINC000003875481    0.0900
43     H43     3.5677   -1.3034   -0.6365 H        1 ZINC000003875481    0.0900
44     H44     1.8968   -4.8140   -0.6411 H        1 ZINC000003875481    0.0800
45     H45     2.9794   -3.7716   -1.5934 H        1 ZINC000003875481    0.0800
46     H46     3.4718   -6.2241   -1.8834 H        1 ZINC000003875481    0.0900
47     H47     4.8544   -5.3149   -1.2188 H        1 ZINC000003875481    0.0900
48     H48     3.3913   -8.2489   -0.9173 H        1 ZINC000003875481    0.1400
49     H49     3.6798   -8.7608    3.4551 H        1 ZINC000003875481    0.1400
50     H50     4.1435   -6.4462    3.6821 H        1 ZINC000003875481    0.1300
51     H51     6.1973   -6.1164    1.0076 H        1 ZINC000003875481    0.0500
52     H52     5.5830   -4.4469    0.9453 H        1 ZINC000003875481    0.0800
53     H53     5.9058   -5.2185    2.5165 H        1 ZINC000003875481    0.1000
54     H54     5.2924   -3.2681    3.8484 H        1 ZINC000003875481    0.3800
55     H55     1.7283   -2.9149    3.2918 H        1 ZINC000003875481    0.0900
56     H56     3.1173   -2.2061    4.1610 H        1 ZINC000003875481    0.0800
57     H57     4.9893   -2.5595    1.5495 H        1 ZINC000003875481    0.1100
58     H58     4.6869   -0.8950    0.9962 H        1 ZINC000003875481    0.0600
59     H59     4.9799   -1.2199    2.7215 H        1 ZINC000003875481    0.0500
60     H60     2.0434    1.1166    4.3460 H        1 ZINC000003875481    0.0900
61     H61     3.4617    0.0747    4.6126 H        1 ZINC000003875481    0.0800
62     H62     3.8701    2.3262    5.2978 H        1 ZINC000003875481    0.3900
@<TRIPOS>BOND
1     1     2     1
2     1     36    1
3     1     37    1
4     1     38    1
5     2     35    1
6     2     3     1
7     2     4     1
8     3     39    1
9     3     40    1
10    3     41    1
11    4     5     1
12    5     6     1
13    5     30    1
14    5     7     1
15    7     8     1
16    7     42    1
17    7     43    1
18    8     9     1
19    8     28    1
20    8     10    1
21    10    11    1
22    10    22    1
23    10    12    1
24    12    13    1
25    12    44    1
26    12    45    1
27    13    14    1
28    13    46    1
29    13    47    1
30    14    20    1
31    14    15    2
32    15    16    1
33    15    48    1
34    16    17    2
35    16    18    1
36    18    19    2
37    18    49    1
38    19    20    1
39    19    50    1
40    20    21    1
41    20    22    1
42    21    51    1
43    21    52    1
44    21    53    1
45    22    23    1
46    22    24    1
47    24    25    1
48    24    26    1
49    24    27    1
50    26    54    1
51    27    28    1
52    27    55    1
53    27    56    1
54    28    29    1
55    28    30    1
56    29    57    1
57    29    58    1
58    29    59    1
59    30    31    1
60    30    35    1
61    31    32    2
62    31    33    1
63    33    34    1
64    33    60    1
65    33    61    1
66    34    62    1
@<TRIPOS>SUBSTRUCTURE
1   ZINC000003875481 1     RESIDUE    1   A     ZIN   1
