@<TRIPOS>MOLECULE
ZINC000001894982
58    61    1     0     0
SMALL
USER_CHARGES
@<TRIPOS>ATOM
1      O1      0.6131   -1.8680   -1.0425 O.2      1 ZINC000001894982   -0.5800
2      C2      0.5300   -0.6552   -1.0650 C.2      1 ZINC000001894982    0.7100
3      N3      0.9912    0.0323   -2.1286 N.am     1 ZINC000001894982   -0.7500
4      C4      1.6337   -0.6779   -3.2372 C.3      1 ZINC000001894982    0.1400
5      C5      2.0621    0.3282   -4.3073 C.3      1 ZINC000001894982   -0.1300
6      C6      2.7331   -0.4135   -5.4652 C.3      1 ZINC000001894982    0.0600
7      O7      3.1332    0.5262   -6.4647 O.3      1 ZINC000001894982   -0.3100
8      C8      3.7496    0.0276   -7.5692 C.ar     1 ZINC000001894982    0.1000
9      C9      3.9632   -1.3438   -7.6839 C.ar     1 ZINC000001894982   -0.1500
10     C10     4.5864   -1.8668   -8.7956 C.ar     1 ZINC000001894982   -0.1200
11     C11     5.0085   -1.0226   -9.8169 C.ar     1 ZINC000001894982    0.1500
12     N12     5.6343   -1.5270  -10.9389 N.am     1 ZINC000001894982   -0.6300
13     C13     6.0432   -0.7129  -11.9276 C.2      1 ZINC000001894982    0.5300
14     O14     6.5933   -1.1933  -12.9036 O.2      1 ZINC000001894982   -0.5400
15     C15     5.8521    0.6839  -11.8638 C.2      1 ZINC000001894982   -0.2100
16     C16     5.2429    1.2414  -10.7884 C.2      1 ZINC000001894982   -0.0200
17     C17     4.7942    0.3643   -9.7053 C.ar     1 ZINC000001894982   -0.0900
18     C18     4.1557    0.8827   -8.5742 C.ar     1 ZINC000001894982   -0.0900
19     N19    -0.0232    0.0018   -0.0263 N.am     1 ZINC000001894982   -0.5900
20     C20    -0.3608   -0.7218    1.2020 C.3      1 ZINC000001894982    0.0900
21     C21     0.2642   -2.1039    1.4022 C.3      1 ZINC000001894982   -0.1900
22     C22    -1.2234   -1.9782    1.0673 C.3      1 ZINC000001894982   -0.1900
23     C23    -0.2870    1.4394   -0.1256 C.3      1 ZINC000001894982    0.1500
24     H24    -0.8224    1.7728    0.7634 H        1 ZINC000001894982    0.1000
25     C25    -1.1369    1.7174   -1.3671 C.3      1 ZINC000001894982   -0.1400
26     C26    -1.4124    3.2188   -1.4708 C.3      1 ZINC000001894982   -0.1200
27     C27    -0.0864    3.9742   -1.5809 C.3      1 ZINC000001894982   -0.1200
28     C28     0.7635    3.6962   -0.3394 C.3      1 ZINC000001894982   -0.1500
29     C29     1.0390    2.1948   -0.2357 C.3      1 ZINC000001894982    0.0800
30     H30     1.5744    1.8614   -1.1247 H        1 ZINC000001894982    0.0600
31     O31     1.8328    1.9351    0.9238 O.3      1 ZINC000001894982   -0.5500
32     H32     0.8978    0.9972   -2.1600 H        1 ZINC000001894982    0.4000
33     H33     2.5099   -1.2110   -2.8681 H        1 ZINC000001894982    0.0700
34     H34     0.9303   -1.3900   -3.6688 H        1 ZINC000001894982    0.0700
35     H35     1.1859    0.8613   -4.6764 H        1 ZINC000001894982    0.0800
36     H36     2.7655    1.0403   -3.8757 H        1 ZINC000001894982    0.0800
37     H37     3.6093   -0.9466   -5.0961 H        1 ZINC000001894982    0.0700
38     H38     2.0297   -1.1256   -5.8968 H        1 ZINC000001894982    0.0700
39     H39     3.6373   -2.0037   -6.8935 H        1 ZINC000001894982    0.1400
40     H40     4.7475   -2.9318   -8.8737 H        1 ZINC000001894982    0.1400
41     H41     5.7816   -2.4827  -11.0151 H        1 ZINC000001894982    0.4200
42     H42     6.1921    1.3111  -12.6746 H        1 ZINC000001894982    0.1600
43     H43     5.0926    2.3094  -10.7315 H        1 ZINC000001894982    0.1500
44     H44     3.9853    1.9454   -8.4854 H        1 ZINC000001894982    0.1500
45     H45    -0.5081   -0.1027    2.0869 H        1 ZINC000001894982    0.1300
46     H46     0.9266   -2.4748    0.6200 H        1 ZINC000001894982    0.1300
47     H47     0.5284   -2.3942    2.4190 H        1 ZINC000001894982    0.0900
48     H48    -1.9379   -2.1859    1.8639 H        1 ZINC000001894982    0.0900
49     H49    -1.5397   -2.2665    0.0649 H        1 ZINC000001894982    0.1000
50     H50    -0.6015    1.3840   -2.2561 H        1 ZINC000001894982    0.0800
51     H51    -2.0815    1.1793   -1.2887 H        1 ZINC000001894982    0.0800
52     H52    -2.0179    3.4169   -2.3552 H        1 ZINC000001894982    0.0700
53     H53    -1.9478    3.5523   -0.5818 H        1 ZINC000001894982    0.0700
54     H54     0.4490    3.6408   -2.4698 H        1 ZINC000001894982    0.0600
55     H55    -0.2827    5.0439   -1.6547 H        1 ZINC000001894982    0.0700
56     H56     1.7081    4.2344   -0.4178 H        1 ZINC000001894982    0.0700
57     H57     0.2281    4.0296    0.5496 H        1 ZINC000001894982    0.0800
58     H58     2.6898    2.3830    0.9221 H        1 ZINC000001894982    0.3800
@<TRIPOS>BOND
1     1     2     2
2     2     3     am
3     2     19    am
4     3     4     1
5     3     32    1
6     4     5     1
7     4     33    1
8     4     34    1
9     5     6     1
10    5     35    1
11    5     36    1
12    6     7     1
13    6     37    1
14    6     38    1
15    7     8     1
16    8     18    ar
17    8     9     ar
18    9     10    ar
19    9     39    1
20    10    11    ar
21    10    40    1
22    11    17    ar
23    11    12    1
24    12    13    am
25    12    41    1
26    13    14    2
27    13    15    1
28    15    16    2
29    15    42    1
30    16    17    1
31    16    43    1
32    17    18    ar
33    18    44    1
34    19    20    1
35    19    23    1
36    20    22    1
37    20    21    1
38    20    45    1
39    21    22    1
40    21    46    1
41    21    47    1
42    22    48    1
43    22    49    1
44    23    24    1
45    23    29    1
46    23    25    1
47    25    26    1
48    25    50    1
49    25    51    1
50    26    27    1
51    26    52    1
52    26    53    1
53    27    28    1
54    27    54    1
55    27    55    1
56    28    29    1
57    28    56    1
58    28    57    1
59    29    30    1
60    29    31    1
61    31    58    1
@<TRIPOS>SUBSTRUCTURE
1   ZINC000001894982 1     RESIDUE    1   A     ZIN   1
