@<TRIPOS>MOLECULE
ZINC000022034135
65    68    1     0     0
SMALL
USER_CHARGES
@<TRIPOS>ATOM
1      F1      5.3191    0.0415    4.3028 F        1 ZINC000022034135   -0.1400
2      C2      5.2085    1.2035    3.6225 C.ar     1 ZINC000022034135    0.1000
3      C3      5.0872    1.1899    2.2433 C.ar     1 ZINC000022034135   -0.1500
4      C4      4.9737    2.3791    1.5484 C.ar     1 ZINC000022034135   -0.0800
5      C5      4.9812    3.5819    2.2299 C.ar     1 ZINC000022034135   -0.1200
6      C6      4.8569    4.8780    1.4711 C.3      1 ZINC000022034135    0.1800
7      O7      4.1080    5.8148    2.2480 O.3      1 ZINC000022034135   -0.3600
8      C8      2.6989    5.7684    2.0148 C.3      1 ZINC000022034135    0.0200
9      C9      2.0018    6.8079    2.8948 C.3      1 ZINC000022034135    0.0600
10     N10     2.4110    8.1558    2.4781 N.3      1 ZINC000022034135   -0.5300
11     C11     2.3256    8.3045    1.0186 C.3      1 ZINC000022034135    0.0500
12     C12     2.6825    9.7420    0.6332 C.3      1 ZINC000022034135    0.0600
13     N13     4.0362   10.0534    1.1130 N.3      1 ZINC000022034135   -0.5400
14     C14     4.4454   11.4013    0.6963 C.3      1 ZINC000022034135    0.0600
15     C15     5.9337   11.5968    0.9923 C.3      1 ZINC000022034135   -0.1100
16     C16     6.3599   13.0007    0.5583 C.3      1 ZINC000022034135   -0.0800
17     C17     7.8258   13.1932    0.8498 C.ar     1 ZINC000022034135   -0.0800
18     C18     8.2270   13.6951    2.0738 C.ar     1 ZINC000022034135   -0.1200
19     C19     9.5717   13.8717    2.3412 C.ar     1 ZINC000022034135   -0.1200
20     C20    10.5152   13.5461    1.3848 C.ar     1 ZINC000022034135   -0.1300
21     C21    10.1141   13.0434    0.1612 C.ar     1 ZINC000022034135   -0.1200
22     C22     8.7696   12.8627   -0.1046 C.ar     1 ZINC000022034135   -0.1200
23     C23     4.1216    9.9047    2.5726 C.3      1 ZINC000022034135    0.0500
24     C24     3.7647    8.4672    2.9580 C.3      1 ZINC000022034135    0.0500
25     C25     6.2306    5.4349    1.1996 C.ar     1 ZINC000022034135   -0.0900
26     C26     6.9088    6.1155    2.1937 C.ar     1 ZINC000022034135   -0.0600
27     C27     8.1686    6.6267    1.9459 C.ar     1 ZINC000022034135   -0.1500
28     C28     8.7517    6.4566    0.7016 C.ar     1 ZINC000022034135    0.1100
29     F29     9.9834    6.9556    0.4584 F        1 ZINC000022034135   -0.1400
30     C30     8.0717    5.7745   -0.2930 C.ar     1 ZINC000022034135   -0.1500
31     C31     6.8140    5.2600   -0.0414 C.ar     1 ZINC000022034135   -0.0800
32     C32     5.1023    3.5967    3.6070 C.ar     1 ZINC000022034135   -0.0600
33     C33     5.2106    2.4085    4.3044 C.ar     1 ZINC000022034135   -0.1600
34     H34     5.0817    0.2504    1.7107 H        1 ZINC000022034135    0.1400
35     H35     4.8794    2.3688    0.4726 H        1 ZINC000022034135    0.1300
36     H36     4.3445    4.6980    0.5260 H        1 ZINC000022034135    0.0800
37     H37     2.4968    5.9860    0.9660 H        1 ZINC000022034135    0.0600
38     H38     2.3228    4.7749    2.2588 H        1 ZINC000022034135    0.0600
39     H39     0.9216    6.7073    2.7896 H        1 ZINC000022034135    0.0900
40     H40     2.2818    6.6489    3.9362 H        1 ZINC000022034135    0.0800
41     H41     3.0233    7.6162    0.5415 H        1 ZINC000022034135    0.0500
42     H42     1.3110    8.0808    0.6890 H        1 ZINC000022034135    0.0800
43     H43     2.6480    9.8470   -0.4512 H        1 ZINC000022034135    0.0800
44     H44     1.9685   10.4285    1.0882 H        1 ZINC000022034135    0.0400
45     H45     4.2688   11.5204   -0.3727 H        1 ZINC000022034135    0.0700
46     H46     3.8653   12.1431    1.2453 H        1 ZINC000022034135    0.0300
47     H47     6.1103   11.4777    2.0613 H        1 ZINC000022034135    0.0600
48     H48     6.5138   10.8550    0.4434 H        1 ZINC000022034135    0.0700
49     H49     6.1833   13.1198   -0.5107 H        1 ZINC000022034135    0.0700
50     H50     5.7798   13.7425    1.1072 H        1 ZINC000022034135    0.0700
51     H51     7.4899   13.9495    2.8210 H        1 ZINC000022034135    0.1200
52     H52     9.8851   14.2644    3.2972 H        1 ZINC000022034135    0.1200
53     H53    11.5658   13.6847    1.5935 H        1 ZINC000022034135    0.1200
54     H54    10.8512   12.7893   -0.5861 H        1 ZINC000022034135    0.1200
55     H55     8.4562   12.4700   -1.0606 H        1 ZINC000022034135    0.1200
56     H56     5.1362   10.1284    2.9021 H        1 ZINC000022034135    0.0800
57     H57     3.4239   10.5930    3.0497 H        1 ZINC000022034135    0.0400
58     H58     3.7992    8.3622    4.0424 H        1 ZINC000022034135    0.0700
59     H59     4.4787    7.7807    2.5030 H        1 ZINC000022034135    0.0800
60     H60     6.4537    6.2480    3.1641 H        1 ZINC000022034135    0.1300
61     H61     8.6979    7.1589    2.7224 H        1 ZINC000022034135    0.1400
62     H62     8.5255    5.6415   -1.2640 H        1 ZINC000022034135    0.1400
63     H63     6.2835    4.7275   -0.8170 H        1 ZINC000022034135    0.1300
64     H64     5.1084    4.5369    4.1383 H        1 ZINC000022034135    0.1400
65     H65     5.3051    2.4203    5.3802 H        1 ZINC000022034135    0.1400
@<TRIPOS>BOND
1     1     2     1
2     2     33    ar
3     2     3     ar
4     3     4     ar
5     3     34    1
6     4     5     ar
7     4     35    1
8     5     6     1
9     5     32    ar
10    6     7     1
11    6     25    1
12    6     36    1
13    7     8     1
14    8     9     1
15    8     37    1
16    8     38    1
17    9     10    1
18    9     39    1
19    9     40    1
20    10    24    1
21    10    11    1
22    11    12    1
23    11    41    1
24    11    42    1
25    12    13    1
26    12    43    1
27    12    44    1
28    13    14    1
29    13    23    1
30    14    15    1
31    14    45    1
32    14    46    1
33    15    16    1
34    15    47    1
35    15    48    1
36    16    17    1
37    16    49    1
38    16    50    1
39    17    22    ar
40    17    18    ar
41    18    19    ar
42    18    51    1
43    19    20    ar
44    19    52    1
45    20    21    ar
46    20    53    1
47    21    22    ar
48    21    54    1
49    22    55    1
50    23    24    1
51    23    56    1
52    23    57    1
53    24    58    1
54    24    59    1
55    25    31    ar
56    25    26    ar
57    26    27    ar
58    26    60    1
59    27    28    ar
60    27    61    1
61    28    29    1
62    28    30    ar
63    30    31    ar
64    30    62    1
65    31    63    1
66    32    33    ar
67    32    64    1
68    33    65    1
@<TRIPOS>SUBSTRUCTURE
1   ZINC000022034135 1     RESIDUE    1   A     ZIN   1
