@<TRIPOS>MOLECULE
ZINC000013470184
26    28    1     0     0
SMALL
USER_CHARGES
@<TRIPOS>ATOM
1      N1     -0.0167    1.3817    0.0096 N.pl3    1 ZINC000013470184   -0.8200
2      C2      0.0021   -0.0041    0.0020 C.ar     1 ZINC000013470184    0.6100
3      N3     -1.1515   -0.6601    0.0041 N.ar     1 ZINC000013470184   -0.6100
4      C4     -1.1850   -1.9879   -0.0030 C.ar     1 ZINC000013470184    0.4500
5      O5     -2.3677   -2.6496   -0.0012 O.3      1 ZINC000013470184   -0.3000
6      C6     -3.5555   -1.8551    0.0084 C.3      1 ZINC000013470184    0.1500
7      C7     -4.7629   -2.7568    0.0090 C.2      1 ZINC000013470184   -0.2000
8      C8     -5.3773   -3.2186    1.0994 C.2      1 ZINC000013470184   -0.0900
9      C9     -6.4693   -4.0334    0.8527 C.2      1 ZINC000013470184   -0.1100
10     Br10   -7.4975   -4.8042    2.2400 Br       1 ZINC000013470184   -0.0200
11     C11    -6.7412   -4.2330   -0.4383 C.2      1 ZINC000013470184   -0.1700
12     S12    -5.5821   -3.3551   -1.4278 S.3      1 ZINC000013470184    0.1700
13     C13     0.0207   -2.6872   -0.0126 C.ar     1 ZINC000013470184   -0.1300
14     N14     0.3795   -4.0209   -0.0216 N.pl3    1 ZINC000013470184   -0.5700
15     C15     1.7303   -4.0700   -0.0285 C.2      1 ZINC000013470184    0.3100
16     N16     2.2235   -2.8628   -0.0244 N.2      1 ZINC000013470184   -0.5000
17     C17     1.2237   -1.9612   -0.0146 C.ar     1 ZINC000013470184    0.3600
18     N18     1.1680   -0.6258   -0.0125 N.ar     1 ZINC000013470184   -0.5600
19     H19     0.8166    1.8781    0.0043 H        1 ZINC000013470184    0.4200
20     H20    -0.8633    1.8552    0.0162 H        1 ZINC000013470184    0.4200
21     H21    -3.5678   -1.2309    0.9019 H        1 ZINC000013470184    0.1000
22     H22    -3.5758   -1.2212   -0.8780 H        1 ZINC000013470184    0.0900
23     H23    -5.0477   -2.9755    2.0987 H        1 ZINC000013470184    0.1500
24     H24    -7.5519   -4.8374   -0.8175 H        1 ZINC000013470184    0.1800
25     H25    -0.2245   -4.7798   -0.0223 H        1 ZINC000013470184    0.4300
26     H26     2.3161   -4.9774   -0.0363 H        1 ZINC000013470184    0.2300
@<TRIPOS>BOND
1     1     2     1
2     1     19    1
3     1     20    1
4     2     18    ar
5     2     3     ar
6     3     4     ar
7     4     5     1
8     4     13    ar
9     5     6     1
10    6     7     1
11    6     21    1
12    6     22    1
13    7     12    1
14    7     8     2
15    8     9     1
16    8     23    1
17    9     10    1
18    9     11    2
19    11    12    1
20    11    24    1
21    13    17    ar
22    13    14    1
23    14    15    1
24    14    25    1
25    15    16    2
26    15    26    1
27    16    17    1
28    17    18    ar
@<TRIPOS>SUBSTRUCTURE
1   ZINC000013470184 1     RESIDUE    1   A     ZIN   1
