@<TRIPOS>MOLECULE
ZINC000003778181
48    51    1     0     0
SMALL
USER_CHARGES
@<TRIPOS>ATOM
1      C1      0.5926    1.8797    0.5196 C.3      1 ZINC000003778181   -0.1400
2      C2      0.7288    0.3578    0.4403 C.3      1 ZINC000003778181   -0.1200
3      C3     -0.6333   -0.2658    0.2053 C.3      1 ZINC000003778181   -0.1000
4      C4     -1.5659    0.2548    1.3101 C.3      1 ZINC000003778181   -0.1200
5      C5     -1.0303   -0.0698    2.7017 C.3      1 ZINC000003778181   -0.0700
6      H6     -1.0301   -1.1528    2.8257 H        1 ZINC000003778181    0.0700
7      C7      0.4044    0.4397    2.8950 C.3      1 ZINC000003778181   -0.0700
8      H8      0.4298    1.5277    2.8346 H        1 ZINC000003778181    0.0900
9      C9      0.8960   -0.0265    4.2701 C.3      1 ZINC000003778181   -0.0800
10     C10    -0.0572    0.4548    5.3248 C.2      1 ZINC000003778181   -0.1600
11     C11    -1.3127    0.6989    5.0878 C.2      1 ZINC000003778181   -0.1000
12     C12    -2.1832    1.1727    6.2395 C.3      1 ZINC000003778181   -0.0900
13     C13    -3.4299    0.2851    6.3003 C.3      1 ZINC000003778181   -0.1200
14     C14    -4.1341    0.3022    4.9425 C.3      1 ZINC000003778181   -0.1200
15     C15    -3.2207   -0.3133    3.8806 C.3      1 ZINC000003778181   -0.1100
16     C16    -1.9437    0.5322    3.7566 C.3      1 ZINC000003778181   -0.0100
17     C17    -2.3415    1.9257    3.2657 C.3      1 ZINC000003778181   -0.1500
18     C18     1.2570   -0.1914    1.7925 C.3      1 ZINC000003778181   -0.0800
19     H19     1.1850   -1.2784    1.8300 H        1 ZINC000003778181    0.0900
20     C20     2.7260    0.2493    1.7567 C.3      1 ZINC000003778181   -0.1400
21     C21     3.1218   -0.0185    0.2788 C.3      1 ZINC000003778181    0.0300
22     H22     3.7937    0.7633   -0.0752 H        1 ZINC000003778181    0.1100
23     F23     3.7405   -1.2683    0.1674 F        1 ZINC000003778181   -0.1900
24     C24     1.8113   -0.0032   -0.5337 C.2      1 ZINC000003778181    0.3600
25     O25     1.6830   -0.2378   -1.7113 O.2      1 ZINC000003778181   -0.4100
26     H26     1.5661    2.3209    0.7332 H        1 ZINC000003778181    0.0600
27     H27     0.2215    2.2613   -0.4316 H        1 ZINC000003778181    0.0600
28     H28    -0.1069    2.1410    1.3137 H        1 ZINC000003778181    0.0900
29     H29    -1.0138    0.0305   -0.7722 H        1 ZINC000003778181    0.0700
30     H30    -0.5595   -1.3518    0.2627 H        1 ZINC000003778181    0.0700
31     H31    -1.6655    1.3357    1.2109 H        1 ZINC000003778181    0.0800
32     H32    -2.5478   -0.2035    1.1914 H        1 ZINC000003778181    0.0700
33     H33     0.9418   -1.1154    4.2904 H        1 ZINC000003778181    0.0700
34     H34     1.8875    0.3840    4.4607 H        1 ZINC000003778181    0.0700
35     H35     0.3167    0.6059    6.3267 H        1 ZINC000003778181    0.1000
36     H36    -1.6297    1.0926    7.1751 H        1 ZINC000003778181    0.0700
37     H37    -2.4782    2.2090    6.0746 H        1 ZINC000003778181    0.0700
38     H38    -3.1374   -0.7360    6.5451 H        1 ZINC000003778181    0.0600
39     H39    -4.1077    0.6625    7.0660 H        1 ZINC000003778181    0.0600
40     H40    -5.0571   -0.2741    5.0053 H        1 ZINC000003778181    0.0600
41     H41    -4.3675    1.3309    4.6679 H        1 ZINC000003778181    0.0700
42     H42    -2.9468   -1.3253    4.1790 H        1 ZINC000003778181    0.0600
43     H43    -3.7441   -0.3449    2.9249 H        1 ZINC000003778181    0.0700
44     H44    -2.9172    2.4330    4.0399 H        1 ZINC000003778181    0.0600
45     H45    -1.4438    2.5027    3.0436 H        1 ZINC000003778181    0.0500
46     H46    -2.9470    1.8341    2.3639 H        1 ZINC000003778181    0.0600
47     H47     2.8182    1.3086    1.9962 H        1 ZINC000003778181    0.1000
48     H48     3.3283   -0.3558    2.4344 H        1 ZINC000003778181    0.0900
@<TRIPOS>BOND
1     1     2     1
2     1     26    1
3     1     27    1
4     1     28    1
5     2     18    1
6     2     24    1
7     2     3     1
8     3     4     1
9     3     29    1
10    3     30    1
11    4     5     1
12    4     31    1
13    4     32    1
14    5     6     1
15    5     16    1
16    5     7     1
17    7     8     1
18    7     9     1
19    7     18    1
20    9     10    1
21    9     33    1
22    9     34    1
23    10    11    2
24    10    35    1
25    11    16    1
26    11    12    1
27    12    13    1
28    12    36    1
29    12    37    1
30    13    14    1
31    13    38    1
32    13    39    1
33    14    15    1
34    14    40    1
35    14    41    1
36    15    16    1
37    15    42    1
38    15    43    1
39    16    17    1
40    17    44    1
41    17    45    1
42    17    46    1
43    18    19    1
44    18    20    1
45    20    21    1
46    20    47    1
47    20    48    1
48    21    22    1
49    21    23    1
50    21    24    1
51    24    25    2
@<TRIPOS>SUBSTRUCTURE
1   ZINC000003778181 1     RESIDUE    1   A     ZIN   1
