@<TRIPOS>MOLECULE
ZINC000001549989
  47   49    0    0    0
SMALL
USER_CHARGES
NO_NAME
@<TRIPOS>ATOM
    1 C1       -0.0184     1.5028     0.0103 C.3    1 <0>      -0.0800
    2 C2        0.0021    -0.0041     0.0020 C.2    1 <0>       0.0900
    3 C3        0.0060    -0.7080    -1.1350 C.2    1 <0>      -0.2000
    4 C4       -0.0081    -0.1351    -2.5288 C.3    1 <0>      -0.0300
    5 S5        1.6963     0.1174    -3.0961 S.3    1 <0>      -0.1100
    6 C6        1.4812     0.7803    -4.7144 C.ar   1 <0>      -0.1400
    7 C7        0.2028     0.9798    -5.2195 C.ar   1 <0>      -0.0900
    8 C8        0.0354     1.4999    -6.4880 C.ar   1 <0>      -0.2000
    9 C9        1.1433     1.8225    -7.2575 C.ar   1 <0>       0.1400
   10 O10       0.9773     2.3346    -8.5064 O.3    1 <0>      -0.2700
   11 C11      -0.3656     2.5135    -8.9611 C.3    1 <0>      -0.0100
   12 C12      -0.3519     3.0862   -10.3550 C.2    1 <0>       0.5000
   13 O13       0.7094     3.3195   -10.9078 O.co2  1 <0>      -0.6700
   14 O14      -1.4022     3.3162   -10.9298 O.co2  1 <0>      -0.6900
   15 C15       2.4206     1.6237    -6.7540 C.ar   1 <0>      -0.1100
   16 C16       3.6234     1.9752    -7.5911 C.3    1 <0>      -0.1100
   17 C17       2.5903     1.1092    -5.4840 C.ar   1 <0>      -0.0600
   18 S18       0.0313    -2.4213    -0.7222 S.3    1 <0>       0.1300
   19 C19       0.0340    -2.0038     0.9894 C.2    1 <0>       0.1000
   20 C20       0.0526    -2.9703     2.1083 C.ar   1 <0>       0.0100
   21 C21       0.0758    -4.3414     1.8497 C.ar   1 <0>      -0.1000
   22 C22       0.0935    -5.2379     2.8982 C.ar   1 <0>      -0.0700
   23 C23       0.0879    -4.7801     4.2038 C.ar   1 <0>      -0.1700
   24 C24       0.1074    -5.7651     5.3442 C.3    1 <0>       0.5100
   25 F25       1.4322    -6.0467     5.6946 F      1 <0>      -0.1700
   26 F26      -0.5597    -5.2172     6.4451 F      1 <0>      -0.1800
   27 F27      -0.5322    -6.9458     4.9517 F      1 <0>      -0.1800
   28 C28       0.0650    -3.4221     4.4670 C.ar   1 <0>      -0.0700
   29 C29       0.0529    -2.5150     3.4275 C.ar   1 <0>      -0.0700
   30 N30       0.0226    -0.7073     1.1107 N.2    1 <0>      -0.4500
   31 H31       1.0042     1.8801     0.0026 H      1 <0>       0.0800
   32 H32      -0.5455     1.8639    -0.8728 H      1 <0>       0.0800
   33 H33      -0.5286     1.8543     0.9071 H      1 <0>       0.0800
   34 H34      -0.5160    -0.8269    -3.2008 H      1 <0>       0.1000
   35 H35      -0.5346     0.8193    -2.5240 H      1 <0>       0.1100
   36 H36      -0.6600     0.7279    -4.6208 H      1 <0>       0.1200
   37 H37      -0.9585     1.6551    -6.8810 H      1 <0>       0.1300
   38 H38      -0.8778     1.5514    -8.9686 H      1 <0>       0.0600
   39 H39      -0.8875     3.1978    -8.2922 H      1 <0>       0.0600
   40 H40       3.9074     3.0105    -7.4024 H      1 <0>       0.0700
   41 H41       4.4526     1.3176    -7.3300 H      1 <0>       0.0600
   42 H42       3.3802     1.8517    -8.6464 H      1 <0>       0.0800
   43 H43       3.5848     0.9545    -5.0922 H      1 <0>       0.1300
   44 H44       0.0794    -4.6999     0.8310 H      1 <0>       0.1400
   45 H45       0.1114    -6.2993     2.6994 H      1 <0>       0.1400
   46 H46       0.0608    -3.0712     5.4884 H      1 <0>       0.1400
   47 H47       0.0354    -1.4551     3.6342 H      1 <0>       0.1500
@<TRIPOS>BOND
   1    1    2 1
   2    1   31 1
   3    1   32 1
   4    1   33 1
   5    2   30 1
   6    2    3 2
   7    3    4 1
   8    3   18 1
   9    4    5 1
  10    4   34 1
  11    4   35 1
  12    5    6 1
  13    6   17 ar
  14    6    7 ar
  15    7    8 ar
  16    7   36 1
  17    8    9 ar
  18    8   37 1
  19    9   10 1
  20    9   15 ar
  21   10   11 1
  22   11   12 1
  23   11   38 1
  24   11   39 1
  25   12   13 ar
  26   12   14 ar
  27   15   16 1
  28   15   17 ar
  29   16   40 1
  30   16   41 1
  31   16   42 1
  32   17   43 1
  33   18   19 1
  34   19   20 1
  35   19   30 2
  36   20   29 ar
  37   20   21 ar
  38   21   22 ar
  39   21   44 1
  40   22   23 ar
  41   22   45 1
  42   23   24 1
  43   23   28 ar
  44   24   25 1
  45   24   26 1
  46   24   27 1
  47   28   29 ar
  48   28   46 1
  49   29   47 1
