@<TRIPOS>MOLECULE
ZINC000003816408
  39   41    0    0    0
SMALL
USER_CHARGES
NO_NAME
@<TRIPOS>ATOM
    1 N1        0.8782    -0.0875     0.9710 N.am   1 <0>      -0.8500
    2 C2       -0.0143     0.0207    -0.0331 C.2    1 <0>       0.5400
    3 O3        0.1688     0.8238    -0.9232 O.2    1 <0>      -0.5200
    4 C4       -1.2397    -0.8563    -0.0497 C.3    1 <0>       0.0600
    5 C5       -0.8266    -2.2994     0.0843 C.ar   1 <0>      -0.0900
    6 C6       -1.3493    -3.0764     1.1011 C.ar   1 <0>      -0.1100
    7 C7       -0.9703    -4.4000     1.2241 C.ar   1 <0>      -0.1200
    8 C8       -0.0691    -4.9469     0.3299 C.ar   1 <0>      -0.1100
    9 C9        0.4529    -4.1701    -0.6875 C.ar   1 <0>      -0.1200
   10 C10       0.0707    -2.8476    -0.8130 C.ar   1 <0>      -0.1000
   11 C11      -2.1404    -0.4828     1.0994 C.ar   1 <0>      -0.0900
   12 C12      -1.7125     0.4323     2.0431 C.ar   1 <0>      -0.1000
   13 C13      -2.5375     0.7756     3.0973 C.ar   1 <0>      -0.1500
   14 C14      -3.7933     0.2029     3.2078 C.ar   1 <0>       0.1100
   15 F15      -4.6008     0.5380     4.2377 F      1 <0>      -0.1400
   16 C16      -4.2209    -0.7132     2.2618 C.ar   1 <0>      -0.1500
   17 C17      -3.3960    -1.0514     1.2058 C.ar   1 <0>      -0.0700
   18 C18      -1.9777    -0.6637    -1.3495 C.ar   1 <0>      -0.0800
   19 C19      -2.2779    -1.7561    -2.1417 C.ar   1 <0>      -0.0800
   20 C20      -2.9546    -1.5807    -3.3339 C.ar   1 <0>      -0.1600
   21 C21      -3.3322    -0.3102    -3.7345 C.ar   1 <0>       0.1100
   22 F22      -3.9942    -0.1376    -4.8995 F      1 <0>      -0.1400
   23 C23      -3.0314     0.7831    -2.9400 C.ar   1 <0>      -0.1600
   24 C24      -2.3588     0.6047    -1.7459 C.ar   1 <0>      -0.0400
   25 H25       1.7022     0.4236     0.9447 H      1 <0>       0.4100
   26 H26       0.6948    -0.6735     1.7219 H      1 <0>       0.4000
   27 H27      -2.0534    -2.6491     1.7997 H      1 <0>       0.1300
   28 H28      -1.3782    -5.0069     2.0189 H      1 <0>       0.1300
   29 H29       0.2275    -5.9809     0.4263 H      1 <0>       0.1300
   30 H30       1.1573    -4.5973    -1.3859 H      1 <0>       0.1300
   31 H31       0.4785    -2.2408    -1.6079 H      1 <0>       0.1200
   32 H32      -0.7330     0.8789     1.9566 H      1 <0>       0.1400
   33 H33      -2.2028     1.4900     3.8348 H      1 <0>       0.1400
   34 H34      -5.2001    -1.1608     2.3472 H      1 <0>       0.1400
   35 H35      -3.7295    -1.7656     0.4676 H      1 <0>       0.1400
   36 H36      -1.9833    -2.7469    -1.8290 H      1 <0>       0.1400
   37 H37      -3.1885    -2.4342    -3.9529 H      1 <0>       0.1400
   38 H38      -3.3252     1.7745    -3.2516 H      1 <0>       0.1400
   39 H39      -2.1243     1.4573    -1.1259 H      1 <0>       0.1300
@<TRIPOS>BOND
   1    1    2 am
   2    1   25 1
   3    1   26 1
   4    2    3 2
   5    2    4 1
   6    4    5 1
   7    4   11 1
   8    4   18 1
   9    5   10 ar
  10    5    6 ar
  11    6    7 ar
  12    6   27 1
  13    7    8 ar
  14    7   28 1
  15    8    9 ar
  16    8   29 1
  17    9   10 ar
  18    9   30 1
  19   10   31 1
  20   11   17 ar
  21   11   12 ar
  22   12   13 ar
  23   12   32 1
  24   13   14 ar
  25   13   33 1
  26   14   15 1
  27   14   16 ar
  28   16   17 ar
  29   16   34 1
  30   17   35 1
  31   18   24 ar
  32   18   19 ar
  33   19   20 ar
  34   19   36 1
  35   20   21 ar
  36   20   37 1
  37   21   22 1
  38   21   23 ar
  39   23   24 ar
  40   23   38 1
  41   24   39 1
