@<TRIPOS>MOLECULE
ZINC000003818418
  48   51    0    0    0
SMALL
USER_CHARGES
NO_NAME
@<TRIPOS>ATOM
    1 O1        0.0021    -0.0041     0.0020 O.2    1 <0>      -0.5200
    2 C2       -0.0144     1.2117     0.0087 C.2    1 <0>       0.5900
    3 N3        1.1435     1.9014     0.0014 N.am   1 <0>      -0.6000
    4 O4        2.3792     1.2102    -0.0142 O.3    1 <0>      -0.3100
    5 C5       -1.3022     1.9320     0.0187 C.ar   1 <0>      -0.3100
    6 C6       -1.3424     3.3325     0.0207 C.ar   1 <0>       0.2400
    7 N7       -2.5143     3.9391     0.0298 N.ar   1 <0>      -0.5700
    8 C8       -3.6426     3.2412     0.0370 C.ar   1 <0>       0.5900
    9 N9       -4.8464     3.9146     0.0464 N.pl3  1 <0>      -0.5700
   10 C10      -4.8817     5.3838     0.0423 C.3    1 <0>       0.1100
   11 C11      -5.7329     5.8503    -1.1452 C.3    1 <0>       0.1000
   12 N12      -7.0032     5.1113    -1.1313 N.am   1 <0>      -1.0000
   13 S13      -8.4484     5.9198    -1.1211 S.o2   1 <0>       2.6900
   14 O14      -9.4038     5.0268    -0.5651 O.2    1 <0>      -0.9500
   15 O15      -8.1837     7.2082    -0.5834 O.2    1 <0>      -0.9500
   16 C16      -8.9187     6.1687    -2.8009 C.ar   1 <0>      -0.6700
   17 C17      -8.5051     7.3213    -3.4657 C.ar   1 <0>      -0.0500
   18 C18      -8.8509     7.5442    -4.7633 C.ar   1 <0>      -0.1200
   19 C19      -9.6365     6.6000    -5.4454 C.ar   1 <0>      -0.0100
   20 C20     -10.0130     6.7950    -6.7854 C.ar   1 <0>      -0.1200
   21 C21     -10.7743     5.8583    -7.4140 C.ar   1 <0>      -0.0900
   22 C22     -11.1881     4.7055    -6.7489 C.ar   1 <0>      -0.1200
   23 C23     -10.8428     4.4828    -5.4515 C.ar   1 <0>      -0.0900
   24 C24     -10.0573     5.4275    -4.7691 C.ar   1 <0>      -0.0800
   25 C25      -9.6759     5.2295    -3.4314 C.ar   1 <0>       0.0200
   26 C26      -6.9680     3.6421    -1.1272 C.3    1 <0>       0.1000
   27 C27      -6.1168     3.1757     0.0546 C.3    1 <0>       0.1100
   28 N28      -3.6468     1.9146     0.0350 N.ar   1 <0>      -0.5700
   29 C29      -2.5166     1.2334     0.0207 C.ar   1 <0>       0.2700
   30 H30       1.1303     2.8713     0.0067 H      1 <0>       0.4100
   31 H31       3.1537     1.7891    -0.0184 H      1 <0>       0.3900
   32 H32      -0.4279     3.9071     0.0152 H      1 <0>       0.1700
   33 H33      -5.3236     5.7418     0.9722 H      1 <0>       0.0800
   34 H34      -3.8688     5.7738    -0.0582 H      1 <0>       0.1200
   35 H35      -5.9302     6.9186    -1.0566 H      1 <0>       0.1100
   36 H36      -5.2031     5.6495    -2.0763 H      1 <0>       0.0800
   37 H37      -7.9015     8.0488    -2.9435 H      1 <0>       0.1400
   38 H38      -8.5234     8.4424    -5.2657 H      1 <0>       0.1400
   39 H39      -9.7000     7.6836    -7.3134 H      1 <0>       0.1300
   40 H40     -11.0625     6.0108    -8.4436 H      1 <0>       0.1300
   41 H41     -11.7921     3.9781    -7.2709 H      1 <0>       0.1300
   42 H42     -11.1710     3.5850    -4.9489 H      1 <0>       0.1300
   43 H43      -9.9851     4.3386    -2.9049 H      1 <0>       0.1500
   44 H44      -7.9809     3.2522    -1.0267 H      1 <0>       0.1100
   45 H45      -6.5261     3.2842    -2.0570 H      1 <0>       0.0800
   46 H46      -5.9203     2.1073    -0.0351 H      1 <0>       0.1200
   47 H47      -6.6444     3.3760     0.9871 H      1 <0>       0.0800
   48 H48      -2.5276     0.1534     0.0188 H      1 <0>       0.1800
@<TRIPOS>BOND
   1    1    2 2
   2    2    3 am
   3    2    5 1
   4    3    4 1
   5    3   30 1
   6    4   31 1
   7    5   29 ar
   8    5    6 ar
   9    6    7 ar
  10    6   32 1
  11    7    8 ar
  12    8    9 1
  13    8   28 ar
  14    9   27 1
  15    9   10 1
  16   10   11 1
  17   10   33 1
  18   10   34 1
  19   11   12 1
  20   11   35 1
  21   11   36 1
  22   12   13 am
  23   12   26 1
  24   13   14 2
  25   13   15 2
  26   13   16 1
  27   16   25 ar
  28   16   17 ar
  29   17   18 ar
  30   17   37 1
  31   18   19 ar
  32   18   38 1
  33   19   24 ar
  34   19   20 ar
  35   20   21 ar
  36   20   39 1
  37   21   22 ar
  38   21   40 1
  39   22   23 ar
  40   22   41 1
  41   23   24 ar
  42   23   42 1
  43   24   25 ar
  44   25   43 1
  45   26   27 1
  46   26   44 1
  47   26   45 1
  48   27   46 1
  49   27   47 1
  50   28   29 ar
  51   29   48 1
