@<TRIPOS>MOLECULE
ZINC000013719688
70    73    1     0     0
SMALL
USER_CHARGES
@<TRIPOS>ATOM
1      C1     -1.0122    1.8599   -1.9501 C.3      1 ZINC000013719688   -0.1500
2      C2     -0.7558    0.4024   -1.5619 C.3      1 ZINC000013719688   -0.1200
3      C3     -2.0897   -0.2937   -1.2845 C.3      1 ZINC000013719688   -0.1100
4      C4     -1.8334   -1.7513   -0.8964 C.3      1 ZINC000013719688   -0.1100
5      C5     -3.1473   -2.4369   -0.6232 C.2      1 ZINC000013719688    0.4500
6      O6     -4.1825   -1.8228   -0.7281 O.2      1 ZINC000013719688   -0.4900
7      O7     -3.1675   -3.7299   -0.2632 O.3      1 ZINC000013719688   -0.3400
8      C8     -4.4615   -4.3042    0.0592 C.3      1 ZINC000013719688    0.1000
9      C9     -5.0777   -3.5782    1.2271 C.2      1 ZINC000013719688    0.3500
10     O10    -6.2731   -3.4132    1.2729 O.2      1 ZINC000013719688   -0.4000
11     C11    -4.2021   -3.0580    2.3379 C.3      1 ZINC000013719688    0.0300
12     O12    -4.9999   -2.3248    3.2696 O.3      1 ZINC000013719688   -0.5500
13     C13    -5.3995   -4.2382   -1.1716 C.3      1 ZINC000013719688   -0.1300
14     C14    -5.6941   -5.7080   -1.5774 C.3      1 ZINC000013719688   -0.1200
15     C15    -4.4922   -6.4688   -1.0062 C.3      1 ZINC000013719688   -0.0800
16     H16    -3.6106   -6.3025   -1.6252 H        1 ZINC000013719688    0.0900
17     C17    -4.7044   -7.9574   -0.7815 C.3      1 ZINC000013719688   -0.0700
18     H18    -5.5615   -8.1050   -0.1245 H        1 ZINC000013719688    0.0800
19     C19    -4.9783   -8.6211   -2.1269 C.3      1 ZINC000013719688   -0.1100
20     C20    -4.5782  -10.0909   -2.1374 C.3      1 ZINC000013719688   -0.1000
21     C21    -4.6051  -10.6221   -0.7251 C.2      1 ZINC000013719688   -0.0200
22     C22    -5.4160  -11.6207   -0.3927 C.2      1 ZINC000013719688   -0.2400
23     C23    -5.4574  -12.1346    0.9750 C.2      1 ZINC000013719688    0.3900
24     O24    -6.1901  -13.0605    1.2539 O.2      1 ZINC000013719688   -0.4600
25     C25    -4.5885  -11.5122    2.0393 C.3      1 ZINC000013719688   -0.1700
26     C26    -4.3293  -10.0468    1.6739 C.3      1 ZINC000013719688   -0.1100
27     C27    -3.6878   -9.9867    0.2865 C.3      1 ZINC000013719688   -0.0300
28     C28    -2.3531  -10.7344    0.3073 C.3      1 ZINC000013719688   -0.1400
29     C29    -3.4504   -8.5231   -0.1140 C.3      1 ZINC000013719688   -0.0600
30     H30    -2.6208   -8.4782   -0.8195 H        1 ZINC000013719688    0.0900
31     C31    -3.0727   -7.7504    1.1488 C.3      1 ZINC000013719688    0.1000
32     H32    -3.8245   -7.9381    1.9154 H        1 ZINC000013719688    0.0700
33     O33    -1.8074   -8.2206    1.6176 O.3      1 ZINC000013719688   -0.5600
34     C34    -2.9790   -6.2384    0.9049 C.3      1 ZINC000013719688   -0.1300
35     C35    -4.3161   -5.7895    0.3772 C.3      1 ZINC000013719688   -0.0400
36     C36    -5.4300   -6.2459    1.3216 C.3      1 ZINC000013719688   -0.1600
37     H37    -0.0618    2.3559   -2.1477 H        1 ZINC000013719688    0.0600
38     H38    -1.6327    1.8937   -2.8456 H        1 ZINC000013719688    0.0600
39     H39    -1.5246    2.3687   -1.1335 H        1 ZINC000013719688    0.0600
40     H40    -0.2434   -0.1063   -2.3785 H        1 ZINC000013719688    0.0600
41     H41    -0.1352    0.3686   -0.6665 H        1 ZINC000013719688    0.0600
42     H42    -2.6021    0.2150   -0.4680 H        1 ZINC000013719688    0.0700
43     H43    -2.7103   -0.2600   -2.1800 H        1 ZINC000013719688    0.0700
44     H44    -1.3210   -2.2600   -1.7129 H        1 ZINC000013719688    0.1100
45     H45    -1.2128   -1.7851   -0.0009 H        1 ZINC000013719688    0.1100
46     H46    -3.7258   -3.8955    2.8476 H        1 ZINC000013719688    0.0800
47     H47    -3.4367   -2.4035    1.9210 H        1 ZINC000013719688    0.0700
48     H48    -4.5007   -1.9598    4.0131 H        1 ZINC000013719688    0.3900
49     H49    -6.3270   -3.7297   -0.9083 H        1 ZINC000013719688    0.0900
50     H50    -4.9055   -3.7157   -1.9909 H        1 ZINC000013719688    0.0800
51     H51    -6.6219   -6.0552   -1.1226 H        1 ZINC000013719688    0.0800
52     H52    -5.7339   -5.8082   -2.6621 H        1 ZINC000013719688    0.0800
53     H53    -6.0425   -8.5428   -2.3495 H        1 ZINC000013719688    0.0700
54     H54    -4.4176   -8.0965   -2.9005 H        1 ZINC000013719688    0.0700
55     H55    -5.2797  -10.6549   -2.7521 H        1 ZINC000013719688    0.0800
56     H56    -3.5725  -10.1916   -2.5453 H        1 ZINC000013719688    0.0800
57     H57    -6.0550  -12.0593   -1.1449 H        1 ZINC000013719688    0.1300
58     H58    -5.0969  -11.5640    3.0020 H        1 ZINC000013719688    0.0900
59     H59    -3.6406  -12.0475    2.0958 H        1 ZINC000013719688    0.1000
60     H60    -5.2727   -9.5009    1.6636 H        1 ZINC000013719688    0.0700
61     H61    -3.6563   -9.6015    2.4067 H        1 ZINC000013719688    0.0900
62     H62    -2.5238  -11.7750    0.5833 H        1 ZINC000013719688    0.0500
63     H63    -1.8969  -10.6910   -0.6817 H        1 ZINC000013719688    0.0600
64     H64    -1.6877  -10.2699    1.0350 H        1 ZINC000013719688    0.0900
65     H65    -1.4958   -7.7784    2.4192 H        1 ZINC000013719688    0.3800
66     H66    -2.7685   -5.7223    1.8417 H        1 ZINC000013719688    0.0700
67     H67    -2.1957   -6.0262    0.1773 H        1 ZINC000013719688    0.0900
68     H68    -5.2913   -5.7818    2.2981 H        1 ZINC000013719688    0.0600
69     H69    -6.3965   -5.9508    0.9130 H        1 ZINC000013719688    0.0700
70     H70    -5.3957   -7.3303    1.4266 H        1 ZINC000013719688    0.0800
@<TRIPOS>BOND
1     1     2     1
2     1     37    1
3     1     38    1
4     1     39    1
5     2     3     1
6     2     40    1
7     2     41    1
8     3     4     1
9     3     42    1
10    3     43    1
11    4     5     1
12    4     44    1
13    4     45    1
14    5     6     2
15    5     7     1
16    7     8     1
17    8     35    1
18    8     9     1
19    8     13    1
20    9     10    2
21    9     11    1
22    11    12    1
23    11    46    1
24    11    47    1
25    12    48    1
26    13    14    1
27    13    49    1
28    13    50    1
29    14    15    1
30    14    51    1
31    14    52    1
32    15    16    1
33    15    35    1
34    15    17    1
35    17    18    1
36    17    29    1
37    17    19    1
38    19    20    1
39    19    53    1
40    19    54    1
41    20    21    1
42    20    55    1
43    20    56    1
44    21    27    1
45    21    22    2
46    22    23    1
47    22    57    1
48    23    24    2
49    23    25    1
50    25    26    1
51    25    58    1
52    25    59    1
53    26    27    1
54    26    60    1
55    26    61    1
56    27    28    1
57    27    29    1
58    28    62    1
59    28    63    1
60    28    64    1
61    29    30    1
62    29    31    1
63    31    32    1
64    31    33    1
65    31    34    1
66    33    65    1
67    34    35    1
68    34    66    1
69    34    67    1
70    35    36    1
71    36    68    1
72    36    69    1
73    36    70    1
@<TRIPOS>SUBSTRUCTURE
1   ZINC000013719688 1     RESIDUE    1   A     ZIN   1
