@<TRIPOS>MOLECULE
ZINC000003925433
  79   81    0    0    0
SMALL
NO_CHARGES
@<TRIPOS>ATOM
   1 C1            -0.0160     1.3287     0.0093 C.2     
   2 C2             0.0021    -0.0041     0.0020 C.2     
   3 C3            -1.2458    -0.7957     0.0034 C.2     
   4 C4            -2.2888    -0.4702     0.7946 C.2     
   5 C5            -2.2010     0.6928     1.6807 C.2     
   6 C6            -3.2315     1.0144     2.4625 C.2     
   7 C7            -4.5223     0.2081     2.4828 C.3     
   8 C8            -4.9173    -0.1433     3.9158 C.3     
   9 C9            -4.8665     1.0854     4.8394 C.3     
  10 C10           -3.4543     1.6214     4.8074 C.3     
  11 C11           -2.4723     0.4739     5.0518 C.3     
  12 C12           -3.1997     2.1930     3.3895 C.3     
  13 H13           -3.9666     2.9189     3.1192 H       
  14 C14           -1.8466     2.8812     3.5834 C.3     
  15 C15           -2.0103     3.5773     4.9641 C.3     
  16 C16           -3.1032     2.7859     5.7205 C.3     
  17 H17           -3.9793     3.4131     5.8852 H       
  18 C18           -2.5598     2.2722     7.0553 C.3     
  19 H19           -1.6924     1.6375     6.8744 H       
  20 C20           -3.6439     1.4628     7.7697 C.3     
  21 C21           -2.1562     3.4412     7.9165 C.2     
  22 C22           -0.8979     3.5614     8.3261 C.2     
  23 C23           -0.5038     4.7025     9.1669 C.2     
  24 C24            0.7545     4.8227     9.5765 C.2     
  25 C25            1.1581     5.9916    10.4377 C.3     
  26 O26            0.0209     6.8237    10.6749 O.3     
  27 C27            1.7015     5.4780    11.7725 C.3     
  28 C28            0.6629     4.5664    12.4291 C.3     
  29 C29            2.2422     6.8011     9.7233 C.3     
  30 C30            2.7405     7.9137    10.6478 C.3     
  31 C31           -1.2973    -1.9907    -0.9275 C.3     
  32 C32            0.0043    -2.7830    -0.7683 C.3     
  33 H33            0.0799    -3.1542     0.2537 H       
  34 O34            0.0024    -3.8870    -1.6757 O.3     
  35 C35            1.2007    -1.8801    -1.0710 C.3     
  36 C36            1.3034    -0.7809    -0.0146 C.3     
  37 H37            2.1291    -0.1126    -0.2591 H       
  38 O38            1.5228    -1.3669     1.2701 O.3     
  39 H39            0.9119     1.8814     0.0035 H       
  40 H40           -0.9585     1.8559     0.0167 H       
  41 H41           -3.1886    -1.0672     0.7747 H       
  42 H42           -1.3011     1.2898     1.7006 H       
  43 H43           -5.3188     0.7941     2.0243 H       
  44 H44           -4.3805    -0.7108     1.9139 H       
  45 H45           -5.9300    -0.5464     3.9164 H       
  46 H46           -4.2341    -0.9024     4.2966 H       
  47 H47           -5.5594     1.8466     4.4810 H       
  48 H48           -5.1288     0.7946     5.8566 H       
  49 H49           -2.6026    -0.2861     4.2815 H       
  50 H50           -1.4518     0.8554     5.0169 H       
  51 H51           -2.6628     0.0350     6.0312 H       
  52 H52           -1.0410     2.1477     3.6138 H       
  53 H53           -1.6714     3.6168     2.7984 H       
  54 H54           -1.0707     3.5406     5.5155 H       
  55 H55           -2.3241     4.6121     4.8268 H       
  56 H56           -3.2568     1.0968     8.7207 H       
  57 H57           -4.5114     2.0975     7.9506 H       
  58 H58           -3.9359     0.6173     7.1468 H       
  59 H59           -2.8896     4.1812     8.2008 H       
  60 H60           -0.1644     2.8213     8.0418 H       
  61 H61           -1.2373     5.4425     9.4512 H       
  62 H62            1.4879     4.0826     9.2922 H       
  63 H63           -0.3764     7.1854     9.8709 H       
  64 H64            2.6198     4.9168    11.5993 H       
  65 H65            1.9104     6.3227    12.4290 H       
  66 H66            1.0500     4.2004    13.3801 H       
  67 H67           -0.2553     5.1275    12.6024 H       
  68 H68            0.4541     3.7216    11.7727 H       
  69 H69            3.0732     6.1454     9.4632 H       
  70 H70            1.8286     7.2408     8.8157 H       
  71 H71            3.1541     7.4739    11.5554 H       
  72 H72            3.5128     8.4904    10.1389 H       
  73 H73            1.9095     8.5693    10.9079 H       
  74 H74           -2.1462    -2.6229    -0.6668 H       
  75 H75           -1.3958    -1.6495    -1.9580 H       
  76 H76           -0.7277    -4.5064    -1.5400 H       
  77 H77            2.1140    -2.4751    -1.0663 H       
  78 H78            1.0715    -1.4243    -2.0527 H       
  79 H79            1.5977    -0.7237     1.9883 H       
@<TRIPOS>BOND
   1    1    2 2
   2    1   39 1
   3    1   40 1
   4    2   36 1
   5    2    3 1
   6    3    4 2
   7    3   31 1
   8    4    5 1
   9    4   41 1
  10    5    6 2
  11    5   42 1
  12    6   12 1
  13    6    7 1
  14    7    8 1
  15    7   43 1
  16    7   44 1
  17    8    9 1
  18    8   45 1
  19    8   46 1
  20    9   10 1
  21    9   47 1
  22    9   48 1
  23   10   16 1
  24   10   11 1
  25   10   12 1
  26   11   49 1
  27   11   50 1
  28   11   51 1
  29   12   13 1
  30   12   14 1
  31   14   15 1
  32   14   52 1
  33   14   53 1
  34   15   16 1
  35   15   54 1
  36   15   55 1
  37   16   17 1
  38   16   18 1
  39   18   19 1
  40   18   20 1
  41   18   21 1
  42   20   56 1
  43   20   57 1
  44   20   58 1
  45   21   22 2
  46   21   59 1
  47   22   23 1
  48   22   60 1
  49   23   24 2
  50   23   61 1
  51   24   25 1
  52   24   62 1
  53   25   26 1
  54   25   27 1
  55   25   29 1
  56   26   63 1
  57   27   28 1
  58   27   64 1
  59   27   65 1
  60   28   66 1
  61   28   67 1
  62   28   68 1
  63   29   30 1
  64   29   69 1
  65   29   70 1
  66   30   71 1
  67   30   72 1
  68   30   73 1
  69   31   32 1
  70   31   74 1
  71   31   75 1
  72   32   33 1
  73   32   34 1
  74   32   35 1
  75   34   76 1
  76   35   36 1
  77   35   77 1
  78   35   78 1
  79   36   37 1
  80   36   38 1
  81   38   79 1
