@<TRIPOS>MOLECULE
ZINC000005751767
56    58    1     0     0
SMALL
USER_CHARGES
@<TRIPOS>ATOM
1      C1     -0.0184    1.5041    0.0103 C.3      1 ZINC000005751767   -0.1300
2      C2      0.0021   -0.0041    0.0020 C.2      1 ZINC000005751767   -0.0200
3      C3     -0.0384   -0.6585   -1.1537 C.2      1 ZINC000005751767   -0.2100
4      C4      0.0305   -2.1266   -1.1983 C.2      1 ZINC000005751767    0.5000
5      O5      0.7656   -2.7087   -0.4313 O.2      1 ZINC000005751767   -0.4900
6      O6     -0.7438   -2.8023   -2.0597 O.3      1 ZINC000005751767   -0.3500
7      C7     -0.6320   -4.2391   -2.1823 C.3      1 ZINC000005751767    0.1000
8      H8     -1.5943   -4.6216   -2.5490 H        1 ZINC000005751767    0.1100
9      C9     -0.3346   -4.8922   -0.8362 C.3      1 ZINC000005751767   -0.1800
10     C10     1.1332   -5.3107   -0.7725 C.3      1 ZINC000005751767    0.1100
11     H11     1.7780   -4.4530   -0.9557 H        1 ZINC000005751767    0.0800
12     C12     1.4574   -5.9170    0.5939 C.3      1 ZINC000005751767   -0.1100
13     C13     1.0998   -4.9811    1.7369 C.3      1 ZINC000005751767   -0.1000
14     C14     2.1692   -3.9155    1.9743 C.3      1 ZINC000005751767   -0.0600
15     H15     2.3023   -3.3104    1.0850 H        1 ZINC000005751767    0.1000
16     C16     3.5004   -4.5838    2.3372 C.3      1 ZINC000005751767   -0.1500
17     C17     1.7492   -3.0562    3.1397 C.2      1 ZINC000005751767   -0.1400
18     C18     1.4436   -1.7965    3.0394 C.2      1 ZINC000005751767   -0.1600
19     C19     1.4639   -1.0319    1.7432 C.3      1 ZINC000005751767   -0.0800
20     C20     0.0247   -0.7580    1.3046 C.3      1 ZINC000005751767   -0.0900
21     O21     1.3816   -6.3047   -1.7699 O.3      1 ZINC000005751767   -0.3900
22     C22     0.8964   -6.0287   -3.0758 C.3      1 ZINC000005751767    0.3000
23     O23     1.9487   -6.2746   -4.0213 O.3      1 ZINC000005751767   -0.5400
24     C24    -0.2725   -6.9638   -3.4009 C.3      1 ZINC000005751767    0.1400
25     H25    -1.0736   -6.7944   -2.6813 H        1 ZINC000005751767    0.1100
26     C26     0.2032   -8.4180   -3.2871 C.3      1 ZINC000005751767   -0.0900
27     S27    -0.0866   -9.1054   -4.9479 S.3      1 ZINC000005751767   -0.1600
28     C28    -0.7468   -7.6233   -5.6478 C.2      1 ZINC000005751767    0.5500
29     O29    -1.1296   -7.5000   -6.7956 O.2      1 ZINC000005751767   -0.4800
30     N30    -0.7602   -6.6652   -4.7284 N.am     1 ZINC000005751767   -0.7100
31     C31     0.4517   -4.5754   -3.2040 C.3      1 ZINC000005751767   -0.2000
32     H32     1.0042    1.8813    0.0026 H        1 ZINC000005751767    0.0800
33     H33    -0.5456    1.8651   -0.8728 H        1 ZINC000005751767    0.0700
34     H34    -0.5286    1.8556    0.9071 H        1 ZINC000005751767    0.0800
35     H35    -0.1204   -0.0997   -2.0770 H        1 ZINC000005751767    0.1400
36     H36    -0.5704   -4.2025   -0.0285 H        1 ZINC000005751767    0.1100
37     H37    -0.9630   -5.7828   -0.7233 H        1 ZINC000005751767    0.0800
38     H38     0.8759   -6.8456    0.6990 H        1 ZINC000005751767    0.0700
39     H39     2.5104   -6.1955    0.6192 H        1 ZINC000005751767    0.0800
40     H40     0.1447   -4.4901    1.5399 H        1 ZINC000005751767    0.0700
41     H41     0.9854   -5.5702    2.6576 H        1 ZINC000005751767    0.0600
42     H42     3.8154   -5.2334    1.5206 H        1 ZINC000005751767    0.0600
43     H43     4.2576   -3.8179    2.5049 H        1 ZINC000005751767    0.0500
44     H44     3.3747   -5.1751    3.2442 H        1 ZINC000005751767    0.0500
45     H45     1.6987   -3.5202    4.1250 H        1 ZINC000005751767    0.1000
46     H46     1.1531   -1.2630    3.9466 H        1 ZINC000005751767    0.1000
47     H47     1.9754   -0.0777    1.9011 H        1 ZINC000005751767    0.0600
48     H48     1.9916   -1.5860    0.9747 H        1 ZINC000005751767    0.0900
49     H49    -0.4778   -0.1643    2.0729 H        1 ZINC000005751767    0.0700
50     H50    -0.5110   -1.7014    1.1919 H        1 ZINC000005751767    0.0700
51     H51     2.7370   -5.7320   -3.8824 H        1 ZINC000005751767    0.3900
52     H52     1.2636   -8.4550   -3.0377 H        1 ZINC000005751767    0.1300
53     H53    -0.3846   -8.9554   -2.5429 H        1 ZINC000005751767    0.1200
54     H54    -1.0935   -5.7798   -4.9424 H        1 ZINC000005751767    0.4100
55     H55     0.0544   -4.4121   -4.2122 H        1 ZINC000005751767    0.1000
56     H56     1.3081   -3.9158   -3.0588 H        1 ZINC000005751767    0.0900
@<TRIPOS>BOND
1     1     2     1
2     1     32    1
3     1     33    1
4     1     34    1
5     2     20    1
6     2     3     2
7     3     4     1
8     3     35    1
9     4     5     2
10    4     6     1
11    6     7     1
12    7     8     1
13    7     31    1
14    7     9     1
15    9     10    1
16    9     36    1
17    9     37    1
18    10    11    1
19    10    12    1
20    10    21    1
21    12    13    1
22    12    38    1
23    12    39    1
24    13    14    1
25    13    40    1
26    13    41    1
27    14    15    1
28    14    16    1
29    14    17    1
30    16    42    1
31    16    43    1
32    16    44    1
33    17    18    2
34    17    45    1
35    18    19    1
36    18    46    1
37    19    20    1
38    19    47    1
39    19    48    1
40    20    49    1
41    20    50    1
42    21    22    1
43    22    23    1
44    22    24    1
45    22    31    1
46    23    51    1
47    24    25    1
48    24    30    1
49    24    26    1
50    26    27    1
51    26    52    1
52    26    53    1
53    27    28    1
54    28    29    2
55    28    30    am
56    30    54    1
57    31    55    1
58    31    56    1
@<TRIPOS>SUBSTRUCTURE
1   ZINC000005751767 1     RESIDUE    1   A     ZIN   1
