@<TRIPOS>MOLECULE
ZINC000005115799
  53   56    0    0    0
SMALL
USER_CHARGES
NO_NAME
@<TRIPOS>ATOM
    1 C1       -0.0173     1.4248     0.0099 C.3    1 <0>       0.0200
    2 O2        0.0021    -0.0041     0.0020 O.3    1 <0>      -0.3100
    3 C3        0.6063    -0.6076    -1.0566 C.ar   1 <0>       0.1300
    4 C4        1.1726     0.1582    -2.0616 C.ar   1 <0>      -0.2000
    5 C5        1.7872    -0.4569    -3.1374 C.ar   1 <0>      -0.0700
    6 C6        1.8378    -1.8360    -3.2133 C.ar   1 <0>      -0.1500
    7 C7        1.2748    -2.6079    -2.2139 C.ar   1 <0>      -0.0800
    8 C8        0.6620    -1.9981    -1.1294 C.ar   1 <0>       0.1100
    9 N9        0.0916    -2.7773    -0.1162 N.pl3  1 <0>      -0.6600
   10 C10      -1.3138    -3.2053    -0.1916 C.3    1 <0>       0.1200
   11 C11      -1.3750    -4.7166     0.0534 C.3    1 <0>      -0.0200
   12 N12      -0.7126    -5.0326     1.3252 N.4    1 <0>      -0.3700
   13 H13      -1.1367    -4.4952     2.0665 H      1 <0>       0.4300
   14 C14      -0.8655    -6.4652     1.6122 C.3    1 <0>      -0.0200
   15 C15      -0.2856    -6.7731     2.9942 C.3    1 <0>       0.0900
   16 N16      -0.4380    -8.2018     3.2803 N.am   1 <0>      -0.5600
   17 C17      -1.5529    -8.6359     3.8886 C.2    1 <0>       0.7100
   18 O18      -2.4077    -7.8238     4.1851 O.2    1 <0>      -0.5400
   19 N19      -1.7652    -9.9300     4.1835 N.am   1 <0>      -0.6400
   20 C20      -0.8183   -10.8925     3.8643 C.ar   1 <0>       0.1900
   21 C21      -1.0167   -12.2323     4.1587 C.ar   1 <0>      -0.1600
   22 C22      -0.0488   -13.1585     3.8234 C.ar   1 <0>      -0.0400
   23 C23       1.1210   -12.7618     3.1945 C.ar   1 <0>      -0.1500
   24 C24       1.3363   -11.4328     2.8940 C.ar   1 <0>      -0.0100
   25 C25       0.3680   -10.4889     3.2263 C.ar   1 <0>      -0.2000
   26 C26       0.5438    -9.0575     2.9221 C.2    1 <0>       0.5700
   27 O27       1.5485    -8.6567     2.3668 O.2    1 <0>      -0.4900
   28 C28       0.7159    -4.7037     1.2403 C.3    1 <0>      -0.0300
   29 C29       0.8823    -3.1965     1.0514 C.3    1 <0>       0.1200
   30 H30       1.0053     1.8021     0.0021 H      1 <0>       0.0600
   31 H31      -0.5445     1.7859    -0.8732 H      1 <0>       0.0600
   32 H32      -0.5275     1.7763     0.9067 H      1 <0>       0.1000
   33 H33       1.1341     1.2361    -2.0057 H      1 <0>       0.1300
   34 H34       2.2283     0.1421    -3.9203 H      1 <0>       0.1300
   35 H35       2.3181    -2.3119    -4.0555 H      1 <0>       0.1300
   36 H36       1.3158    -3.6854    -2.2756 H      1 <0>       0.1300
   37 H37      -1.8959    -2.6869     0.5703 H      1 <0>       0.0800
   38 H38      -1.7134    -2.9780    -1.1798 H      1 <0>       0.1200
   39 H39      -2.4163    -5.0359     0.0968 H      1 <0>       0.1400
   40 H40      -0.8687    -5.2374    -0.7593 H      1 <0>       0.1300
   41 H41      -1.9231    -6.7283     1.5951 H      1 <0>       0.1400
   42 H42      -0.3344    -7.0455     0.8577 H      1 <0>       0.1300
   43 H43       0.7720    -6.5100     3.0113 H      1 <0>       0.1200
   44 H44      -0.8167    -6.1928     3.7486 H      1 <0>       0.1200
   45 H45      -2.5883   -10.1935     4.6240 H      1 <0>       0.4400
   46 H46      -1.9249   -12.5507     4.6489 H      1 <0>       0.1500
   47 H47      -0.2046   -14.2021     4.0537 H      1 <0>       0.1500
   48 H48       1.8688   -13.4978     2.9385 H      1 <0>       0.1400
   49 H49       2.2489   -11.1266     2.4043 H      1 <0>       0.1500
   50 H50       1.2154    -5.0135     2.1583 H      1 <0>       0.1400
   51 H51       1.1590    -5.2249     0.3916 H      1 <0>       0.1300
   52 H52       1.9340    -2.9619     0.8868 H      1 <0>       0.1200
   53 H53       0.5219    -2.6743     1.9376 H      1 <0>       0.0800
@<TRIPOS>BOND
   1    1    2 1
   2    1   30 1
   3    1   31 1
   4    1   32 1
   5    2    3 1
   6    3    8 ar
   7    3    4 ar
   8    4    5 ar
   9    4   33 1
  10    5    6 ar
  11    5   34 1
  12    6    7 ar
  13    6   35 1
  14    7    8 ar
  15    7   36 1
  16    8    9 1
  17    9   29 1
  18    9   10 1
  19   10   11 1
  20   10   37 1
  21   10   38 1
  22   11   12 1
  23   11   39 1
  24   11   40 1
  25   12   13 1
  26   12   14 1
  27   12   28 1
  28   14   15 1
  29   14   41 1
  30   14   42 1
  31   15   16 1
  32   15   43 1
  33   15   44 1
  34   16   26 am
  35   16   17 am
  36   17   18 2
  37   17   19 am
  38   19   20 1
  39   19   45 1
  40   20   25 ar
  41   20   21 ar
  42   21   22 ar
  43   21   46 1
  44   22   23 ar
  45   22   47 1
  46   23   24 ar
  47   23   48 1
  48   24   25 ar
  49   24   49 1
  50   25   26 1
  51   26   27 2
  52   28   29 1
  53   28   50 1
  54   28   51 1
  55   29   52 1
  56   29   53 1
