@<TRIPOS>MOLECULE
ZINC000003974230
  49   54    0    0    0
SMALL
NO_CHARGES
@<TRIPOS>ATOM
   1 O1            -0.0841     0.0353    -0.1953 O.2     
   2 C2            -0.1292     1.2338    -0.3723 C.2     
   3 C3            -1.3356     2.0347    -0.6560 C.ar    
   4 C4            -2.6717     1.6526    -0.7912 C.ar    
   5 C5            -3.6397     2.6003    -1.0643 C.ar    
   6 C6            -3.2955     3.9330    -1.2047 C.ar    
   7 C7            -1.9790     4.3328    -1.0736 C.ar    
   8 C8            -0.9850     3.3920    -0.7983 C.ar    
   9 C9             0.4705     3.5535    -0.6141 C.2     
  10 O10            1.0938     4.5918    -0.6701 O.2     
  11 C11            1.0322     2.1873    -0.3381 C.3     
  12 O12            1.7084     2.1476     0.9270 O.3     
  13 C13            2.5688     0.9880     0.8612 C.3     
  14 H14            1.9945     0.0797     1.0437 H       
  15 C15            3.6876     1.1088     1.8636 C.ar    
  16 C16            4.2118     2.3512     2.1679 C.ar    
  17 C17            5.2380     2.4621     3.0873 C.ar    
  18 C18            5.7398     1.3306     3.7028 C.ar    
  19 C19            5.2150     0.0883     3.3993 C.ar    
  20 C20            4.1858    -0.0221     2.4830 C.ar    
  21 C21            3.1319     0.9866    -0.5766 C.3     
  22 H22            3.2924    -0.0178    -0.9682 H       
  23 C23            4.3764     1.8431    -0.6253 C.2     
  24 O24            5.4368     1.5675    -0.1064 O.2     
  25 N25            4.1260     2.9525    -1.3304 N.am    
  26 C26            5.0933     3.9426    -1.5553 C.ar    
  27 C27            4.9517     5.1966    -0.9773 C.ar    
  28 C28            5.9057     6.1707    -1.1995 C.ar    
  29 C29            7.0020     5.8978    -1.9978 C.ar    
  30 Cl30           8.1988     7.1242    -2.2755 Cl      
  31 C31            7.1463     4.6472    -2.5756 C.ar    
  32 Cl32           8.5234     4.3075    -3.5766 Cl      
  33 C33            6.1968     3.6681    -2.3517 C.ar    
  34 C34            2.8775     3.0396    -1.8042 C.2     
  35 O35            2.4423     3.9572    -2.4662 O.2     
  36 C36            2.0837     1.7994    -1.3897 C.3     
  37 H37            1.6656     1.2594    -2.2392 H       
  38 H38           -2.9491     0.6145    -0.6825 H       
  39 H39           -4.6714     2.2987    -1.1692 H       
  40 H40           -4.0601     4.6652    -1.4184 H       
  41 H41           -1.7187     5.3751    -1.1844 H       
  42 H42            3.8198     3.2352     1.6869 H       
  43 H43            5.6480     3.4327     3.3245 H       
  44 H44            6.5421     1.4172     4.4207 H       
  45 H45            5.6072    -0.7957     3.8799 H       
  46 H46            3.7758    -0.9927     2.2458 H       
  47 H47            4.0958     5.4108    -0.3544 H       
  48 H48            5.7954     7.1464    -0.7497 H       
  49 H49            6.3093     2.6930    -2.8021 H       
@<TRIPOS>BOND
   1    1    2 2
   2    2   11 1
   3    2    3 1
   4    3    8 ar
   5    3    4 ar
   6    4    5 ar
   7    4   38 1
   8    5    6 ar
   9    5   39 1
  10    6    7 ar
  11    6   40 1
  12    7    8 ar
  13    7   41 1
  14    8    9 1
  15    9   10 2
  16    9   11 1
  17   11   36 1
  18   11   12 1
  19   12   13 1
  20   13   14 1
  21   13   15 1
  22   13   21 1
  23   15   20 ar
  24   15   16 ar
  25   16   17 ar
  26   16   42 1
  27   17   18 ar
  28   17   43 1
  29   18   19 ar
  30   18   44 1
  31   19   20 ar
  32   19   45 1
  33   20   46 1
  34   21   22 1
  35   21   36 1
  36   21   23 1
  37   23   24 2
  38   23   25 am
  39   25   26 1
  40   25   34 am
  41   26   33 ar
  42   26   27 ar
  43   27   28 ar
  44   27   47 1
  45   28   29 ar
  46   28   48 1
  47   29   30 1
  48   29   31 ar
  49   31   32 1
  50   31   33 ar
  51   33   49 1
  52   34   35 2
  53   34   36 1
  54   36   37 1
