@<TRIPOS>MOLECULE
ZINC000001544795
  28   28    0    0    0
SMALL
USER_CHARGES
NO_NAME
@<TRIPOS>ATOM
    1 O1        0.0021    -0.0041     0.0020 O.2    1 <0>      -0.5000
    2 C2       -0.0144     1.2086     0.0087 C.2    1 <0>       0.5000
    3 N3        1.1435     1.8983     0.0013 N.am   1 <0>      -0.7000
    4 C4        2.4220     1.1832    -0.0147 C.3    1 <0>       0.1200
    5 C5        3.5713     2.1931    -0.0203 C.3    1 <0>       0.0600
    6 O6        3.5649     2.9287     1.2049 O.3    1 <0>      -0.5700
    7 C7       -1.3296     1.9443     0.0189 C.3    1 <0>       0.2700
    8 F8       -1.6742     2.2651     1.3363 F      1 <0>      -0.1700
    9 F9       -1.2126     3.1190    -0.7318 F      1 <0>      -0.1700
   10 C10      -2.4158     1.0556    -0.5904 C.3    1 <0>       0.0700
   11 N11      -3.6943     1.7708    -0.5804 N.pl3  1 <0>      -0.4300
   12 C12      -4.6650     1.6859     0.3809 C.2    1 <0>       0.0200
   13 C13      -5.6647     2.5031    -0.0016 C.2    1 <0>       0.0000
   14 N14      -5.3140     3.0715    -1.1647 N.2    1 <0>      -0.3900
   15 C15      -4.1328     2.6414    -1.5150 C.2    1 <0>       0.2400
   16 N16      -3.3988     3.0359    -2.7385 N.pl3  1 <0>       0.0700
   17 O17      -3.8970     3.8272    -3.5190 O.2    1 <0>      -0.0900
   18 O18      -2.2968     2.5691    -2.9648 O.2    1 <0>      -0.1500
   19 H19       1.1304     2.8682     0.0067 H      1 <0>       0.4100
   20 H20       2.4967     0.5526     0.8712 H      1 <0>       0.0900
   21 H21       2.4797     0.5621    -0.9086 H      1 <0>       0.0900
   22 H22       4.5191     1.6645    -0.1217 H      1 <0>       0.0700
   23 H23       3.4471     2.8802    -0.8572 H      1 <0>       0.0600
   24 H24       4.2684     3.5889     1.2709 H      1 <0>       0.3900
   25 H25      -2.1473     0.8056    -1.6168 H      1 <0>       0.1500
   26 H26      -2.5069     0.1404    -0.0055 H      1 <0>       0.1500
   27 H27      -4.6351     1.0797     1.2742 H      1 <0>       0.2100
   28 H28      -6.5872     2.6713     0.5343 H      1 <0>       0.2000
@<TRIPOS>BOND
   1    1    2 2
   2    2    3 am
   3    2    7 1
   4    3    4 1
   5    3   19 1
   6    4    5 1
   7    4   20 1
   8    4   21 1
   9    5    6 1
  10    5   22 1
  11    5   23 1
  12    6   24 1
  13    7    8 1
  14    7    9 1
  15    7   10 1
  16   10   11 1
  17   10   25 1
  18   10   26 1
  19   11   15 1
  20   11   12 1
  21   12   13 2
  22   12   27 1
  23   13   14 1
  24   13   28 1
  25   14   15 2
  26   15   16 1
  27   16   17 2
  28   16   18 2
