@<TRIPOS>MOLECULE
ZINC000003875026
32    34    1     0     0
SMALL
USER_CHARGES
@<TRIPOS>ATOM
1      C1      1.1782    1.2604   -0.2844 C.3      1 ZINC000003875026   -0.0900
2      C2      0.5775   -0.1131   -0.1306 C.2      1 ZINC000003875026    0.0700
3      C3     -0.2823   -0.6990   -1.0007 C.2      1 ZINC000003875026   -0.2100
4      C4     -0.6048   -1.9626   -0.5024 C.2      1 ZINC000003875026   -0.0900
5      C5     -1.5282   -2.9682   -1.1404 C.3      1 ZINC000003875026   -0.0900
6      C6      0.0853   -2.1177    0.6900 C.2      1 ZINC000003875026   -0.0200
7      C7      0.0532   -3.2484    1.5320 C.2      1 ZINC000003875026    0.0900
8      C8      0.1609   -3.0937    2.9009 C.2      1 ZINC000003875026   -0.2100
9      C9      0.1566   -1.8371    3.6607 C.2      1 ZINC000003875026    0.5600
10     O10     0.0548   -0.7174    3.1916 O.2      1 ZINC000003875026   -0.5100
11     N11     0.2838   -2.1384    4.9642 N.am     1 ZINC000003875026   -0.6500
12     C12     0.3757   -3.5115    5.1598 C.ar     1 ZINC000003875026    0.1400
13     C13     0.5155   -4.2749    6.3132 C.ar     1 ZINC000003875026   -0.1200
14     C14     0.5837   -5.6510    6.2294 C.ar     1 ZINC000003875026   -0.0800
15     C15     0.5147   -6.2876    5.0004 C.ar     1 ZINC000003875026   -0.0500
16     Cl16    0.6029   -8.0192    4.9147 Cl       1 ZINC000003875026   -0.0600
17     C17     0.3753   -5.5456    3.8434 C.ar     1 ZINC000003875026   -0.0600
18     C18     0.2992   -4.1588    3.9188 C.ar     1 ZINC000003875026   -0.0800
19     N19     0.8138   -0.9661    0.8978 N.pl3    1 ZINC000003875026   -0.5100
20     H20     2.1141    1.1877   -0.8382 H        1 ZINC000003875026    0.0800
21     H21     0.4838    1.9020   -0.8269 H        1 ZINC000003875026    0.0900
22     H22     1.3710    1.6850    0.7008 H        1 ZINC000003875026    0.0700
23     H23    -0.6526   -0.2643   -1.9175 H        1 ZINC000003875026    0.1400
24     H24    -0.9568   -3.6149   -1.8063 H        1 ZINC000003875026    0.0700
25     H25    -2.0001   -3.5715   -0.3648 H        1 ZINC000003875026    0.0600
26     H26    -2.2956   -2.4458   -1.7115 H        1 ZINC000003875026    0.0700
27     H27    -0.0557   -4.2353    1.1070 H        1 ZINC000003875026    0.1500
28     H28     0.3087   -1.4815    5.6774 H        1 ZINC000003875026    0.4200
29     H29     0.5711   -3.7903    7.2768 H        1 ZINC000003875026    0.1400
30     H30     0.6923   -6.2371    7.1300 H        1 ZINC000003875026    0.1400
31     H31     0.3210   -6.0405    2.8850 H        1 ZINC000003875026    0.1400
32     H32     1.3933   -0.7919    1.6559 H        1 ZINC000003875026    0.4200
@<TRIPOS>BOND
1     1     2     1
2     1     20    1
3     1     21    1
4     1     22    1
5     2     19    1
6     2     3     2
7     3     4     1
8     3     23    1
9     4     5     1
10    4     6     2
11    5     24    1
12    5     25    1
13    5     26    1
14    6     7     1
15    6     19    1
16    7     8     2
17    7     27    1
18    8     18    1
19    8     9     1
20    9     10    2
21    9     11    am
22    11    12    1
23    11    28    1
24    12    18    ar
25    12    13    ar
26    13    14    ar
27    13    29    1
28    14    15    ar
29    14    30    1
30    15    16    1
31    15    17    ar
32    17    18    ar
33    17    31    1
34    19    32    1
@<TRIPOS>SUBSTRUCTURE
1   ZINC000003875026 1     RESIDUE    1   A     ZIN   1
