@<TRIPOS>MOLECULE
ZINC000053186993
39    39    1     0     0
SMALL
USER_CHARGES
@<TRIPOS>ATOM
1      C1     -0.0222   -1.1862    0.3786 C.3      1 ZINC000053186993   -0.1200
2      C2      0.5141   -0.0259   -0.4622 C.3      1 ZINC000053186993   -0.0800
3      C3      1.2917   -0.5709   -1.6324 C.2      1 ZINC000053186993   -0.1900
4      C4      2.6029   -0.7668   -1.5263 C.2      1 ZINC000053186993   -0.0200
5      C5      3.2666   -0.6065   -0.2256 C.2      1 ZINC000053186993   -0.1000
6      C6      4.7686   -0.6843   -0.1314 C.3      1 ZINC000053186993    0.1800
7      N7      5.3390   -0.7622   -1.4786 N.am     1 ZINC000053186993   -0.7200
8      C8      6.6620   -0.9629   -1.6397 C.2      1 ZINC000053186993    0.5500
9      O9      7.3819   -1.0793   -0.6672 O.2      1 ZINC000053186993   -0.5400
10     C10     7.2375   -1.0416   -2.9992 C.ar     1 ZINC000053186993   -0.1800
11     C11     8.6091   -1.2555   -3.1801 C.ar     1 ZINC000053186993   -0.0200
12     C12     9.0976   -1.3215   -4.4733 C.ar     1 ZINC000053186993   -0.1800
13     C13     8.2237   -1.1755   -5.5354 C.ar     1 ZINC000053186993    0.1100
14     N14     6.9351   -0.9743   -5.3346 N.ar     1 ZINC000053186993   -0.4900
15     C15     6.4218   -0.9096   -4.1238 C.ar     1 ZINC000053186993    0.1300
16     N16     2.5607   -0.3983    0.8405 N.2      1 ZINC000053186993   -0.2500
17     O17     3.2030   -0.1374    2.0752 O.3      1 ZINC000053186993   -0.5800
18     C18     0.5836   -0.8940   -2.9228 C.3      1 ZINC000053186993    0.0700
19     H19     1.3098   -1.2365   -3.6599 H        1 ZINC000053186993    0.1300
20     C20    -0.4501   -1.9947   -2.6757 C.3      1 ZINC000053186993   -0.1500
21     N21    -0.0913    0.3061   -3.4233 N.pl3    1 ZINC000053186993   -0.0100
22     O22     0.1992    0.7568   -4.5170 O.2      1 ZINC000053186993   -0.1900
23     O23    -0.9428    0.8533   -2.7458 O.2      1 ZINC000053186993   -0.1500
24     H24    -0.7542   -1.7477   -0.2019 H        1 ZINC000053186993    0.0300
25     H25     0.8013   -1.8434    0.6581 H        1 ZINC000053186993    0.0600
26     H26    -0.4957   -0.7941    1.2787 H        1 ZINC000053186993    0.0500
27     H27    -0.3196    0.5737   -0.8276 H        1 ZINC000053186993    0.0700
28     H28     1.1674    0.5953    0.1505 H        1 ZINC000053186993    0.1100
29     H29     3.1797   -1.0437   -2.3964 H        1 ZINC000053186993    0.1000
30     H30     5.1476    0.2047    0.3727 H        1 ZINC000053186993    0.0700
31     H31     5.0517   -1.5716    0.4349 H        1 ZINC000053186993    0.0700
32     H32     4.7645   -0.6694   -2.2546 H        1 ZINC000053186993    0.3900
33     H33     9.2690   -1.3658   -2.3324 H        1 ZINC000053186993    0.1500
34     H34    10.1502   -1.4850   -4.6513 H        1 ZINC000053186993    0.1400
35     H35     8.6022   -1.2265   -6.5456 H        1 ZINC000053186993    0.1600
36     H36     5.3618   -0.7439   -3.9999 H        1 ZINC000053186993    0.1600
37     H37    -1.2330   -1.6168   -2.0181 H        1 ZINC000053186993    0.0900
38     H38    -0.8893   -2.3005   -3.6252 H        1 ZINC000053186993    0.0700
39     H39     0.0357   -2.8508   -2.2076 H        1 ZINC000053186993    0.1000
@<TRIPOS>BOND
1     1     2     1
2     1     24    1
3     1     25    1
4     1     26    1
5     2     3     1
6     2     27    1
7     2     28    1
8     3     4     2
9     3     18    1
10    4     5     1
11    4     29    1
12    5     6     1
13    5     16    2
14    6     7     1
15    6     30    1
16    6     31    1
17    7     8     am
18    7     32    1
19    8     9     2
20    8     10    1
21    10    15    ar
22    10    11    ar
23    11    12    ar
24    11    33    1
25    12    13    ar
26    12    34    1
27    13    14    ar
28    13    35    1
29    14    15    ar
30    15    36    1
31    16    17    1
32    18    19    1
33    18    20    1
34    18    21    1
35    20    37    1
36    20    38    1
37    20    39    1
38    21    22    2
39    21    23    2
@<TRIPOS>SUBSTRUCTURE
1   ZINC000053186993 1     RESIDUE    1   A     ZIN   1
