@<TRIPOS>MOLECULE
ZINC000043206033
71    75    1     0     0
SMALL
USER_CHARGES
@<TRIPOS>ATOM
1      C1     -1.4284    1.4030   -5.4496 C.3      1 ZINC000043206033    0.0000
2      O2     -1.3058   -0.0207   -5.4637 O.3      1 ZINC000043206033   -0.1300
3      N3     -0.4406   -0.5342   -4.4674 N.am     1 ZINC000043206033   -0.6100
4      C4     -0.2368   -1.8630   -4.3715 C.2      1 ZINC000043206033    0.7200
5      O5     -0.7960   -2.6209   -5.1405 O.2      1 ZINC000043206033   -0.5500
6      N6      0.5868   -2.3518   -3.4232 N.am     1 ZINC000043206033   -0.6800
7      C7      0.7206   -3.7349   -3.2578 C.ar     1 ZINC000043206033    0.1700
8      C8      0.6767   -4.5730   -4.3656 C.ar     1 ZINC000043206033   -0.1200
9      C9      0.8081   -5.9358   -4.2064 C.ar     1 ZINC000043206033   -0.0600
10     C10     0.9856   -6.4740   -2.9304 C.ar     1 ZINC000043206033   -0.0400
11     C11     1.1274   -7.9349   -2.7559 C.2      1 ZINC000043206033   -0.1600
12     C12     1.9685   -8.7041   -3.4516 C.2      1 ZINC000043206033    0.0000
13     C13     2.8902   -8.1689   -4.5169 C.3      1 ZINC000043206033    0.1100
14     N14     2.1629   -8.0706   -5.7895 N.3      1 ZINC000043206033   -0.5300
15     C15     2.9726   -7.3875   -6.8072 C.3      1 ZINC000043206033    0.0200
16     C16     1.7389   -9.3970   -6.2573 C.3      1 ZINC000043206033    0.0200
17     C17     1.9081  -10.1039   -3.0818 C.2      1 ZINC000043206033   -0.2200
18     C18     0.9839  -10.3432   -2.0791 C.2      1 ZINC000043206033    0.0400
19     S19     0.2200   -8.8928   -1.6023 S.3      1 ZINC000043206033    0.3000
20     N20     0.8142  -11.6413   -1.6187 N.am     1 ZINC000043206033   -0.5000
21     C21    -0.1611  -11.9052   -0.5579 C.3      1 ZINC000043206033    0.1600
22     C22    -1.5022  -12.2114   -1.1733 C.ar     1 ZINC000043206033   -0.2100
23     C23    -2.3969  -11.1867   -1.4295 C.ar     1 ZINC000043206033    0.1500
24     F24    -2.0680   -9.9114   -1.1284 F        1 ZINC000043206033   -0.1200
25     C25    -3.6289  -11.4692   -1.9950 C.ar     1 ZINC000043206033   -0.1600
26     C26    -3.9654  -12.7737   -2.3036 C.ar     1 ZINC000043206033   -0.0400
27     C27    -3.0729  -13.7976   -2.0482 C.ar     1 ZINC000043206033   -0.1700
28     C28    -1.8381  -13.5168   -1.4880 C.ar     1 ZINC000043206033    0.1600
29     F29    -0.9657  -14.5178   -1.2389 F        1 ZINC000043206033   -0.1100
30     C30     1.5249  -12.6586   -2.1259 C.2      1 ZINC000043206033    0.7100
31     O31     1.3414  -13.7792   -1.6911 O.2      1 ZINC000043206033   -0.5100
32     N32     2.4326  -12.4796   -3.0992 N.am     1 ZINC000043206033   -0.5000
33     C33     3.1441  -13.5793   -3.5904 C.ar     1 ZINC000043206033    0.2600
34     C34     4.3013  -14.0088   -2.9427 C.ar     1 ZINC000043206033   -0.0600
35     C35     4.9709  -15.1023   -3.4663 C.ar     1 ZINC000043206033   -0.1200
36     C36     4.4463  -15.7049   -4.6076 C.ar     1 ZINC000043206033    0.2800
37     O37     5.0682  -16.7797   -5.1562 O.3      1 ZINC000043206033   -0.2900
38     C38     4.4737  -17.3461   -6.3257 C.3      1 ZINC000043206033    0.0300
39     N39     3.3411  -15.2279   -5.1552 N.ar     1 ZINC000043206033   -0.2800
40     N40     2.7173  -14.2177   -4.6675 N.ar     1 ZINC000043206033   -0.1800
41     C41     2.6669  -11.2556   -3.6083 C.2      1 ZINC000043206033    0.5900
42     O42     3.4911  -11.1010   -4.4908 O.2      1 ZINC000043206033   -0.4800
43     C43     1.0292   -5.6291   -1.8198 C.ar     1 ZINC000043206033   -0.0800
44     C44     0.9028   -4.2668   -1.9869 C.ar     1 ZINC000043206033   -0.1500
45     H45    -1.8218    1.7242   -4.4852 H        1 ZINC000043206033    0.0600
46     H46    -0.4490    1.8535   -5.6107 H        1 ZINC000043206033    0.0600
47     H47    -2.1077    1.7171   -6.2420 H        1 ZINC000043206033    0.1200
48     H48     0.0055    0.0704   -3.8538 H        1 ZINC000043206033    0.4000
49     H49     1.0867   -1.7448   -2.8552 H        1 ZINC000043206033    0.4100
50     H50     0.5390   -4.1560   -5.3523 H        1 ZINC000043206033    0.1400
51     H51     0.7735   -6.5865   -5.0676 H        1 ZINC000043206033    0.1600
52     H52     3.2476   -7.1813   -4.2255 H        1 ZINC000043206033    0.0900
53     H53     3.7392   -8.8424   -4.6347 H        1 ZINC000043206033    0.0600
54     H54     3.8939   -7.9457   -6.9734 H        1 ZINC000043206033    0.0300
55     H55     2.4105   -7.3283   -7.7392 H        1 ZINC000043206033    0.0700
56     H56     3.2142   -6.3815   -6.4641 H        1 ZINC000043206033    0.0700
57     H57     1.0524   -9.8354   -5.5330 H        1 ZINC000043206033    0.0600
58     H58     1.2376   -9.2995   -7.2203 H        1 ZINC000043206033    0.0700
59     H59     2.6121  -10.0403   -6.3658 H        1 ZINC000043206033    0.0400
60     H60     0.1694  -12.7576    0.0357 H        1 ZINC000043206033    0.1300
61     H61    -0.2473  -11.0277    0.0830 H        1 ZINC000043206033    0.1100
62     H62    -4.3272  -10.6699   -2.1947 H        1 ZINC000043206033    0.1500
63     H63    -4.9267  -12.9931   -2.7443 H        1 ZINC000043206033    0.1500
64     H64    -3.3371  -14.8166   -2.2895 H        1 ZINC000043206033    0.1500
65     H65     4.6647  -13.5040   -2.0598 H        1 ZINC000043206033    0.1600
66     H66     5.8726  -15.4762   -3.0040 H        1 ZINC000043206033    0.1700
67     H67     3.4622  -17.6796   -6.0940 H        1 ZINC000043206033    0.0700
68     H68     4.4367  -16.5949   -7.1147 H        1 ZINC000043206033    0.0700
69     H69     5.0687  -18.1957   -6.6606 H        1 ZINC000043206033    0.1100
70     H70     1.1664   -6.0422   -0.8314 H        1 ZINC000043206033    0.1300
71     H71     0.9368   -3.6126   -1.1282 H        1 ZINC000043206033    0.1300
@<TRIPOS>BOND
1     1     2     1
2     1     45    1
3     1     46    1
4     1     47    1
5     2     3     1
6     3     4     am
7     3     48    1
8     4     5     2
9     4     6     am
10    6     7     1
11    6     49    1
12    7     44    ar
13    7     8     ar
14    8     9     ar
15    8     50    1
16    9     10    ar
17    9     51    1
18    10    11    1
19    10    43    ar
20    11    19    1
21    11    12    2
22    12    13    1
23    12    17    1
24    13    14    1
25    13    52    1
26    13    53    1
27    14    15    1
28    14    16    1
29    15    54    1
30    15    55    1
31    15    56    1
32    16    57    1
33    16    58    1
34    16    59    1
35    17    41    1
36    17    18    2
37    18    19    1
38    18    20    1
39    20    21    1
40    20    30    am
41    21    22    1
42    21    60    1
43    21    61    1
44    22    28    ar
45    22    23    ar
46    23    24    1
47    23    25    ar
48    25    26    ar
49    25    62    1
50    26    27    ar
51    26    63    1
52    27    28    ar
53    27    64    1
54    28    29    1
55    30    31    2
56    30    32    am
57    32    33    1
58    32    41    am
59    33    40    ar
60    33    34    ar
61    34    35    ar
62    34    65    1
63    35    36    ar
64    35    66    1
65    36    37    1
66    36    39    ar
67    37    38    1
68    38    67    1
69    38    68    1
70    38    69    1
71    39    40    ar
72    41    42    2
73    43    44    ar
74    43    70    1
75    44    71    1
@<TRIPOS>SUBSTRUCTURE
1   ZINC000043206033 1     RESIDUE    1   A     ZIN   1
