@<TRIPOS>MOLECULE
ZINC000100014666
85    86    1     0     0
SMALL
USER_CHARGES
@<TRIPOS>ATOM
1      C1     -0.0157    1.3058    0.0092 C.2      1 ZINC000100014666   -0.1600
2      C2      0.0021   -0.0041    0.0020 C.2      1 ZINC000100014666   -0.1900
3      C3     -1.2926   -0.7753    0.0102 C.3      1 ZINC000100014666    0.1400
4      N4     -1.3176   -1.6997   -1.1260 N.pl3    1 ZINC000100014666   -0.6900
5      C5     -2.4066   -2.5137   -1.3257 C.2      1 ZINC000100014666    0.1700
6      C6     -2.4191   -3.3654   -2.3956 C.2      1 ZINC000100014666   -0.2700
7      C7     -1.2469   -3.2958   -3.3257 C.3      1 ZINC000100014666   -0.0500
8      C8     -1.3407   -4.2343   -4.5289 C.3      1 ZINC000100014666   -0.0800
9      H9     -1.6442   -5.2240   -4.1818 H        1 ZINC000100014666    0.0900
10     C10    -2.3619   -3.6851   -5.5236 C.3      1 ZINC000100014666   -0.1300
11     C11     0.0450   -4.3452   -5.1621 C.3      1 ZINC000100014666   -0.1300
12     C12     0.0622   -4.8352   -6.6018 C.3      1 ZINC000100014666    0.1000
13     H13     1.1383   -4.9816   -6.8603 H        1 ZINC000100014666    0.0600
14     O14    -0.4192   -3.8483   -7.5054 O.3      1 ZINC000100014666   -0.3700
15     C15     0.5969   -2.9836   -8.0172 C.3      1 ZINC000100014666    0.0300
16     C16    -0.6238   -6.1800   -6.7864 C.3      1 ZINC000100014666    0.1100
17     H17    -1.3427   -6.3700   -5.9909 H        1 ZINC000100014666    0.0700
18     O18     0.3747   -7.2208   -6.7438 O.3      1 ZINC000100014666   -0.5700
19     C19    -1.3454   -6.2634   -8.1408 C.3      1 ZINC000100014666   -0.0900
20     H20    -1.3945   -5.2899   -8.6138 H        1 ZINC000100014666    0.1100
21     C21    -0.5592   -7.2288   -9.0408 C.3      1 ZINC000100014666   -0.1300
22     C22    -2.7228   -6.8264   -7.9106 C.2      1 ZINC000100014666   -0.1000
23     C23    -3.7359   -6.6657   -8.7182 C.2      1 ZINC000100014666   -0.1600
24     C24    -3.6420   -5.8725   -9.9900 C.3      1 ZINC000100014666   -0.1100
25     C25    -5.0514   -7.3086   -8.3344 C.3      1 ZINC000100014666    0.1600
26     H26    -4.9615   -7.6778   -7.3101 H        1 ZINC000100014666    0.1000
27     O27    -5.3094   -8.4312   -9.2180 O.3      1 ZINC000100014666   -0.3400
28     C28    -4.8408   -9.6330   -8.8322 C.2      1 ZINC000100014666    0.6500
29     N29    -5.0461  -10.7167   -9.6068 N.am     1 ZINC000100014666   -0.8300
30     O30    -4.2327   -9.7406   -7.7857 O.2      1 ZINC000100014666   -0.5700
31     C31    -6.2001   -6.3121   -8.4296 C.3      1 ZINC000100014666    0.1300
32     H32    -5.8230   -5.2942   -8.4144 H        1 ZINC000100014666    0.0900
33     O33    -6.9270   -6.5264   -9.6435 O.3      1 ZINC000100014666   -0.3600
34     C34    -7.5304   -5.3455  -10.1758 C.3      1 ZINC000100014666    0.0300
35     C35    -7.1473   -6.4886   -7.2652 C.2      1 ZINC000100014666   -0.1500
36     C36    -6.8116   -6.0048   -6.0607 C.2      1 ZINC000100014666   -0.1400
37     C37    -7.7349   -6.1509   -4.9425 C.2      1 ZINC000100014666   -0.0200
38     C38    -7.4508   -5.7315   -3.6943 C.2      1 ZINC000100014666   -0.1800
39     C39    -8.4836   -5.9881   -2.6282 C.3      1 ZINC000100014666   -0.1200
40     C40    -6.2197   -5.0311   -3.3536 C.2      1 ZINC000100014666    0.5600
41     O41    -5.4463   -4.6915   -4.2355 O.2      1 ZINC000100014666   -0.4800
42     N42    -5.9354   -4.7238   -2.0688 N.am     1 ZINC000100014666   -0.6600
43     C43    -4.7650   -4.0500   -1.7642 C.2      1 ZINC000100014666    0.1600
44     C44    -4.7584   -3.2340   -0.6832 C.2      1 ZINC000100014666   -0.2600
45     C45    -3.5569   -2.4552   -0.3893 C.2      1 ZINC000100014666    0.4300
46     O46    -3.5045   -1.7584    0.6049 O.2      1 ZINC000100014666   -0.4300
47     C47    -3.5200   -4.2339   -2.5577 C.2      1 ZINC000100014666    0.4400
48     O48    -3.4552   -5.1955   -3.2986 O.2      1 ZINC000100014666   -0.4000
49     H49     0.9122    1.8585    0.0033 H        1 ZINC000100014666    0.1100
50     H50    -0.9582    1.8330    0.0166 H        1 ZINC000100014666    0.1000
51     H51     0.9446   -0.5313   -0.0098 H        1 ZINC000100014666    0.1200
52     H52    -1.3737   -1.3393    0.9394 H        1 ZINC000100014666    0.0900
53     H53    -2.1295   -0.0812   -0.0676 H        1 ZINC000100014666    0.0800
54     H54    -0.5655   -1.7372   -1.7373 H        1 ZINC000100014666    0.4100
55     H55    -1.1311   -2.2679   -3.6909 H        1 ZINC000100014666    0.0600
56     H56    -0.3383   -3.5488   -2.7617 H        1 ZINC000100014666    0.0600
57     H57    -2.0482   -2.6960   -5.8575 H        1 ZINC000100014666    0.0400
58     H58    -2.4292   -4.3538   -6.3818 H        1 ZINC000100014666    0.0600
59     H59    -3.3367   -3.6136   -5.0413 H        1 ZINC000100014666    0.0600
60     H60     0.5361   -3.3610   -5.1263 H        1 ZINC000100014666    0.0600
61     H61     0.6550   -5.0245   -4.5571 H        1 ZINC000100014666    0.0700
62     H62     1.0759   -2.4574   -7.1915 H        1 ZINC000100014666    0.0400
63     H63     1.3408   -3.5740   -8.5522 H        1 ZINC000100014666    0.0400
64     H64     0.1491   -2.2600   -8.6983 H        1 ZINC000100014666    0.0900
65     H65     0.0181   -8.1128   -6.8543 H        1 ZINC000100014666    0.3800
66     H66    -0.5225   -8.2128   -8.5733 H        1 ZINC000100014666    0.0500
67     H67    -1.0524   -7.3051  -10.0098 H        1 ZINC000100014666    0.0500
68     H68     0.4549   -6.8535   -9.1777 H        1 ZINC000100014666    0.0600
69     H69    -2.8702   -7.4149   -7.0009 H        1 ZINC000100014666    0.1100
70     H70    -2.6303   -5.4823  -10.1010 H        1 ZINC000100014666    0.0700
71     H71    -3.8784   -6.5156  -10.8376 H        1 ZINC000100014666    0.0700
72     H72    -4.3492   -5.0438   -9.9543 H        1 ZINC000100014666    0.0600
73     H73    -5.5315  -10.6308  -10.4422 H        1 ZINC000100014666    0.4100
74     H74    -4.7084  -11.5825   -9.3289 H        1 ZINC000100014666    0.4200
75     H75    -8.2320   -4.9366   -9.4487 H        1 ZINC000100014666    0.0400
76     H76    -6.7575   -4.6073  -10.3897 H        1 ZINC000100014666    0.0400
77     H77    -8.0620   -5.5918  -11.0950 H        1 ZINC000100014666    0.0900
78     H78    -8.0801   -6.9972   -7.3893 H        1 ZINC000100014666    0.1200
79     H79    -5.8554   -5.5194   -5.9514 H        1 ZINC000100014666    0.1500
80     H80    -8.7113   -6.5822   -5.1225 H        1 ZINC000100014666    0.1300
81     H81    -9.3397   -6.5002   -3.0675 H        1 ZINC000100014666    0.0800
82     H82    -8.0506   -6.6104   -1.8451 H        1 ZINC000100014666    0.0700
83     H83    -8.8079   -5.0393   -2.2007 H        1 ZINC000100014666    0.0700
84     H84    -6.5247   -4.9616   -1.3310 H        1 ZINC000100014666    0.4200
85     H85    -5.6290   -3.1596   -0.0455 H        1 ZINC000100014666    0.1600
@<TRIPOS>BOND
1     1     2     2
2     1     49    1
3     1     50    1
4     2     3     1
5     2     51    1
6     3     4     1
7     3     52    1
8     3     53    1
9     4     5     1
10    4     54    1
11    5     45    1
12    5     6     2
13    6     47    1
14    6     7     1
15    7     8     1
16    7     55    1
17    7     56    1
18    8     9     1
19    8     10    1
20    8     11    1
21    10    57    1
22    10    58    1
23    10    59    1
24    11    12    1
25    11    60    1
26    11    61    1
27    12    13    1
28    12    14    1
29    12    16    1
30    14    15    1
31    15    62    1
32    15    63    1
33    15    64    1
34    16    17    1
35    16    18    1
36    16    19    1
37    18    65    1
38    19    20    1
39    19    21    1
40    19    22    1
41    21    66    1
42    21    67    1
43    21    68    1
44    22    23    2
45    22    69    1
46    23    24    1
47    23    25    1
48    24    70    1
49    24    71    1
50    24    72    1
51    25    26    1
52    25    27    1
53    25    31    1
54    27    28    1
55    28    29    am
56    28    30    2
57    29    73    1
58    29    74    1
59    31    32    1
60    31    33    1
61    31    35    1
62    33    34    1
63    34    75    1
64    34    76    1
65    34    77    1
66    35    36    2
67    35    78    1
68    36    37    1
69    36    79    1
70    37    38    2
71    37    80    1
72    38    39    1
73    38    40    1
74    39    81    1
75    39    82    1
76    39    83    1
77    40    41    2
78    40    42    am
79    42    43    1
80    42    84    1
81    43    44    2
82    43    47    1
83    44    45    1
84    44    85    1
85    45    46    2
86    47    48    2
@<TRIPOS>SUBSTRUCTURE
1   ZINC000100014666 1     RESIDUE    1   A     ZIN   1
