@<TRIPOS>MOLECULE
ZINC000000411286
33    35    1     0     0
SMALL
USER_CHARGES
@<TRIPOS>ATOM
1      N1     -0.0464    1.3547   -0.2838 N.pl3    1 ZINC000000411286   -0.8300
2      C2     -0.0131   -0.0172   -0.1361 C.2      1 ZINC000000411286    0.1300
3      C3     -1.1116   -0.8032    0.1017 C.2      1 ZINC000000411286   -0.2900
4      C4     -2.4688   -0.2725    0.2285 C.2      1 ZINC000000411286    0.4800
5      O5     -3.1626   -0.1318   -0.7623 O.2      1 ZINC000000411286   -0.4400
6      C6     -2.9983    0.0932    1.5599 C.ar     1 ZINC000000411286   -0.1600
7      C7     -2.1696    0.0405    2.6822 C.ar     1 ZINC000000411286   -0.0500
8      C8     -2.6690    0.3827    3.9212 C.ar     1 ZINC000000411286   -0.1300
9      C9     -3.9900    0.7779    4.0535 C.ar     1 ZINC000000411286   -0.0100
10     Cl10   -4.6116    1.2071    5.6165 Cl       1 ZINC000000411286   -0.0600
11     C11    -4.8168    0.8325    2.9435 C.ar     1 ZINC000000411286   -0.1200
12     C12    -4.3272    0.4979    1.6986 C.ar     1 ZINC000000411286   -0.0500
13     C13    -0.7919   -2.2160    0.2144 C.2      1 ZINC000000411286   -0.0200
14     C14     0.5140   -2.4574    0.0621 C.2      1 ZINC000000411286   -0.2300
15     C15     1.1416   -3.8368    0.1280 C.3      1 ZINC000000411286   -0.0400
16     C16     0.1510   -4.7975    0.7911 C.3      1 ZINC000000411286   -0.1200
17     C17    -1.2130   -4.6581    0.1084 C.3      1 ZINC000000411286   -0.1200
18     C18    -1.8221   -3.3032    0.4763 C.3      1 ZINC000000411286   -0.0600
19     S19     1.3960   -0.9676   -0.2313 S.3      1 ZINC000000411286    0.1600
20     H20     0.7811    1.8532   -0.3714 H        1 ZINC000000411286    0.4100
21     H21    -0.8973    1.8198   -0.3039 H        1 ZINC000000411286    0.4100
22     H22    -1.1396   -0.2678    2.5804 H        1 ZINC000000411286    0.1400
23     H23    -2.0291    0.3420    4.7902 H        1 ZINC000000411286    0.1400
24     H24    -5.8459    1.1415    3.0528 H        1 ZINC000000411286    0.1400
25     H25    -4.9727    0.5408    0.8338 H        1 ZINC000000411286    0.1400
26     H26     1.3681   -4.1838   -0.8802 H        1 ZINC000000411286    0.0800
27     H27     2.0582   -3.7935    0.7163 H        1 ZINC000000411286    0.0800
28     H28     0.5092   -5.8214    0.6846 H        1 ZINC000000411286    0.0700
29     H29     0.0564   -4.5510    1.8487 H        1 ZINC000000411286    0.0700
30     H30    -1.0873   -4.7200   -0.9725 H        1 ZINC000000411286    0.0700
31     H31    -1.8726   -5.4576    0.4458 H        1 ZINC000000411286    0.0700
32     H32    -2.0969   -3.3004    1.5311 H        1 ZINC000000411286    0.0800
33     H33    -2.7068   -3.1225   -0.1343 H        1 ZINC000000411286    0.0700
@<TRIPOS>BOND
1     1     2     1
2     1     20    1
3     1     21    1
4     2     19    1
5     2     3     2
6     3     4     1
7     3     13    1
8     4     5     2
9     4     6     1
10    6     12    ar
11    6     7     ar
12    7     8     ar
13    7     22    1
14    8     9     ar
15    8     23    1
16    9     10    1
17    9     11    ar
18    11    12    ar
19    11    24    1
20    12    25    1
21    13    18    1
22    13    14    2
23    14    15    1
24    14    19    1
25    15    16    1
26    15    26    1
27    15    27    1
28    16    17    1
29    16    28    1
30    16    29    1
31    17    18    1
32    17    30    1
33    17    31    1
34    18    32    1
35    18    33    1
@<TRIPOS>SUBSTRUCTURE
1   ZINC000000411286 1     RESIDUE    1   A     ZIN   1
