@<TRIPOS>MOLECULE
ZINC000001555194
40    41    1     0     0
SMALL
USER_CHARGES
@<TRIPOS>ATOM
1      O1      0.0021   -0.0041    0.0020 O.co2    1 ZINC000001555194   -0.6700
2      C2     -0.0145    1.2150    0.0087 C.2      1 ZINC000001555194    0.5000
3      O3      1.0330    1.8389    0.0021 O.co2    1 ZINC000001555194   -0.6900
4      C4     -1.3296    1.9507    0.0190 C.3      1 ZINC000001555194    0.0000
5      O5     -2.4031    1.0074    0.0189 O.3      1 ZINC000001555194   -0.2900
6      C6     -3.6678    1.5105    0.0277 C.ar     1 ZINC000001555194    0.0400
7      C7     -4.3047    1.7658    1.2345 C.ar     1 ZINC000001555194    0.1300
8      F8     -3.6692    1.5148    2.3999 F        1 ZINC000001555194   -0.1100
9      C9     -5.5897    2.2774    1.2438 C.ar     1 ZINC000001555194   -0.1300
10     C10    -6.2430    2.5355    0.0455 C.ar     1 ZINC000001555194   -0.0500
11     S11    -7.8798    3.1878    0.0568 S.3      1 ZINC000001555194   -0.0700
12     C12    -8.2706    3.3400   -1.7081 C.3      1 ZINC000001555194   -0.1300
13     C13    -9.6839    3.9030   -1.8708 C.3      1 ZINC000001555194    0.1300
14     N14    -9.9996    4.0260   -3.2961 N.am     1 ZINC000001555194   -1.1100
15     S15   -11.5671    4.2502   -3.7807 S.o2     1 ZINC000001555194    2.7000
16     O16   -11.5369    4.3644   -5.1967 O.2      1 ZINC000001555194   -0.9500
17     O17   -12.3421    3.2756   -3.0959 O.2      1 ZINC000001555194   -0.9500
18     C18   -12.0839    5.8185   -3.1659 C.ar     1 ZINC000001555194   -0.6800
19     C19   -12.6671    5.9126   -1.9160 C.ar     1 ZINC000001555194   -0.0100
20     C20   -13.0726    7.1426   -1.4332 C.ar     1 ZINC000001555194   -0.1300
21     C21   -12.8948    8.2796   -2.2010 C.ar     1 ZINC000001555194    0.0200
22     Cl22  -13.4034    9.8249   -1.5951 Cl       1 ZINC000001555194   -0.0500
23     C23   -12.3110    8.1848   -3.4518 C.ar     1 ZINC000001555194   -0.1300
24     C24   -11.9008    6.9551   -3.9312 C.ar     1 ZINC000001555194    0.0000
25     C25    -5.6055    2.2794   -1.1619 C.ar     1 ZINC000001555194   -0.1700
26     C26    -4.3182    1.7735   -1.1702 C.ar     1 ZINC000001555194    0.1300
27     F27    -3.6981    1.5245   -2.3444 F        1 ZINC000001555194   -0.1200
28     H28    -1.3917    2.5717    0.9126 H        1 ZINC000001555194    0.0500
29     H29    -1.4001    2.5813   -0.8673 H        1 ZINC000001555194    0.0500
30     H30    -6.0851    2.4760    2.1827 H        1 ZINC000001555194    0.1500
31     H31    -7.5551    4.0120   -2.1820 H        1 ZINC000001555194    0.1000
32     H32    -8.2141    2.3585   -2.1787 H        1 ZINC000001555194    0.1000
33     H33   -10.3995    3.2311   -1.3968 H        1 ZINC000001555194    0.1000
34     H34    -9.7405    4.8845   -1.4001 H        1 ZINC000001555194    0.0800
35     H35    -9.2903    3.9760   -3.9559 H        1 ZINC000001555194    0.4200
36     H36   -12.8062    5.0249   -1.3169 H        1 ZINC000001555194    0.1500
37     H37   -13.5286    7.2159   -0.4569 H        1 ZINC000001555194    0.1500
38     H38   -12.1723    9.0720   -4.0517 H        1 ZINC000001555194    0.1500
39     H39   -11.4447    6.8810   -4.9074 H        1 ZINC000001555194    0.1500
40     H40    -6.1132    2.4796   -2.0938 H        1 ZINC000001555194    0.1400
@<TRIPOS>BOND
1     1     2     ar
2     2     3     ar
3     2     4     1
4     4     5     1
5     4     28    1
6     4     29    1
7     5     6     1
8     6     26    ar
9     6     7     ar
10    7     8     1
11    7     9     ar
12    9     10    ar
13    9     30    1
14    10    11    1
15    10    25    ar
16    11    12    1
17    12    13    1
18    12    31    1
19    12    32    1
20    13    14    1
21    13    33    1
22    13    34    1
23    14    15    am
24    14    35    1
25    15    16    2
26    15    17    2
27    15    18    1
28    18    24    ar
29    18    19    ar
30    19    20    ar
31    19    36    1
32    20    21    ar
33    20    37    1
34    21    22    1
35    21    23    ar
36    23    24    ar
37    23    38    1
38    24    39    1
39    25    26    ar
40    25    40    1
41    26    27    1
@<TRIPOS>SUBSTRUCTURE
1   ZINC000001555194 1     RESIDUE    1   A     ZIN   1
