@<TRIPOS>MOLECULE
ZINC000001531790
32    34    1     0     0
SMALL
USER_CHARGES
@<TRIPOS>ATOM
1      C1     -0.0187    1.5258    0.0104 C.3      1 ZINC000001531790   -0.1800
2      C2      0.0021   -0.0041    0.0020 C.3      1 ZINC000001531790    0.1100
3      C3     -1.4309   -0.5402   -0.0039 C.3      1 ZINC000001531790   -0.1400
4      C4      0.7495   -0.5056   -1.2412 C.3      1 ZINC000001531790   -0.1500
5      C5      2.1424    0.1266   -1.2404 C.3      1 ZINC000001531790   -0.0600
6      C6      2.7759   -0.0251    0.1230 C.2      1 ZINC000001531790   -0.3100
7      C7      2.0316   -0.3096    1.2241 C.2      1 ZINC000001531790    0.2400
8      O8      0.6909   -0.4829    1.1556 O.3      1 ZINC000001531790   -0.2900
9      C9      2.6602   -0.4459    2.5571 C.ar     1 ZINC000001531790   -0.0400
10     C10     1.8742   -0.7302    3.6708 C.ar     1 ZINC000001531790   -0.0800
11     C11     2.4664   -0.8588    4.9175 C.ar     1 ZINC000001531790   -0.0900
12     C12     3.8314   -0.7070    5.0674 C.ar     1 ZINC000001531790   -0.1100
13     C13     4.6296   -0.4232    3.9693 C.ar     1 ZINC000001531790   -0.0600
14     C14     4.0489   -0.2919    2.7138 C.ar     1 ZINC000001531790   -0.1400
15     C15     4.8696    0.0101    1.5223 C.2      1 ZINC000001531790    0.3600
16     O16     6.0717    0.1486    1.6096 O.2      1 ZINC000001531790   -0.3800
17     C17     4.1731    0.1401    0.2072 C.2      1 ZINC000001531790    0.3700
18     O18     4.8150    0.3887   -0.7960 O.2      1 ZINC000001531790   -0.4100
19     H19     1.0039    1.9031    0.0027 H        1 ZINC000001531790    0.0700
20     H20    -0.5459    1.8868   -0.8726 H        1 ZINC000001531790    0.0800
21     H21    -0.5289    1.8773    0.9072 H        1 ZINC000001531790    0.0700
22     H22    -1.9494   -0.1814   -0.8930 H        1 ZINC000001531790    0.0800
23     H23    -1.4111   -1.6300   -0.0099 H        1 ZINC000001531790    0.0700
24     H24    -1.9531   -0.1912    0.8869 H        1 ZINC000001531790    0.0700
25     H25     0.8374   -1.5914   -1.2054 H        1 ZINC000001531790    0.0800
26     H26     0.2101   -0.2082   -2.1405 H        1 ZINC000001531790    0.0900
27     H27     2.7649   -0.3682   -1.9859 H        1 ZINC000001531790    0.0900
28     H28     2.0595    1.1855   -1.4852 H        1 ZINC000001531790    0.0800
29     H29     0.8062   -0.8498    3.5636 H        1 ZINC000001531790    0.1500
30     H30     1.8549   -1.0794    5.7799 H        1 ZINC000001531790    0.1400
31     H31     4.2792   -0.8095    6.0448 H        1 ZINC000001531790    0.1400
32     H32     5.6963   -0.3045    4.0895 H        1 ZINC000001531790    0.1500
@<TRIPOS>BOND
1     1     2     1
2     1     19    1
3     1     20    1
4     1     21    1
5     2     8     1
6     2     3     1
7     2     4     1
8     3     22    1
9     3     23    1
10    3     24    1
11    4     5     1
12    4     25    1
13    4     26    1
14    5     6     1
15    5     27    1
16    5     28    1
17    6     17    1
18    6     7     2
19    7     8     1
20    7     9     1
21    9     14    ar
22    9     10    ar
23    10    11    ar
24    10    29    1
25    11    12    ar
26    11    30    1
27    12    13    ar
28    12    31    1
29    13    14    ar
30    13    32    1
31    14    15    1
32    15    16    2
33    15    17    1
34    17    18    2
@<TRIPOS>SUBSTRUCTURE
1   ZINC000001531790 1     RESIDUE    1   A     ZIN   1
