@<TRIPOS>MOLECULE
ZINC000096258164
63    66    1     0     0
SMALL
USER_CHARGES
@<TRIPOS>ATOM
1      C1     -0.3218    0.3952   -0.6171 C.3      1 ZINC000096258164   -0.1800
2      C2     -0.0993   -1.0938   -0.3444 C.3      1 ZINC000096258164    0.1200
3      H3      0.4929   -1.5264   -1.1508 H        1 ZINC000096258164    0.1000
4      O4      0.5949   -1.2527    0.8945 O.3      1 ZINC000096258164   -0.2800
5      C5      1.9524   -1.2762    0.8423 C.ar     1 ZINC000096258164    0.0800
6      C6      2.6273   -1.0340   -0.3461 C.ar     1 ZINC000096258164   -0.1300
7      C7      4.0264   -1.0741   -0.3251 C.ar     1 ZINC000096258164   -0.0100
8      C8      4.7935   -0.8227   -1.5636 C.2      1 ZINC000096258164    0.5900
9      O9      4.2094   -0.5809   -2.6018 O.2      1 ZINC000096258164   -0.5100
10     N10     6.1405   -0.8618   -1.5416 N.am     1 ZINC000096258164   -0.6600
11     C11     6.8662   -0.5207   -2.6812 C.ar     1 ZINC000096258164    0.1900
12     C12     6.3980    0.4785   -3.5291 C.ar     1 ZINC000096258164   -0.1200
13     C13     7.1125    0.8178   -4.6558 C.ar     1 ZINC000096258164   -0.0400
14     C14     8.3092    0.1576   -4.9476 C.ar     1 ZINC000096258164   -0.1700
15     C15     9.0780    0.5192   -6.1545 C.2      1 ZINC000096258164    0.5800
16     O16     9.1747    1.6847   -6.4871 O.2      1 ZINC000096258164   -0.5000
17     N17     9.6728   -0.4425   -6.8878 N.am     1 ZINC000096258164   -0.6300
18     C18     9.4653   -1.8659   -6.5796 C.3      1 ZINC000096258164    0.0800
19     C19     9.0683   -2.5895   -7.8706 C.3      1 ZINC000096258164   -0.0200
20     N20    10.0794   -2.3344   -8.9043 N.4      1 ZINC000096258164   -0.3900
21     H21    10.9871   -2.6101   -8.5606 H        1 ZINC000096258164    0.4300
22     C22     9.7556   -3.1139  -10.1066 C.3      1 ZINC000096258164   -0.0500
23     C23    10.0995   -0.9056   -9.2425 C.3      1 ZINC000096258164   -0.0200
24     C24    10.5430   -0.0987   -8.0230 C.3      1 ZINC000096258164    0.0900
25     C25     8.7766   -0.8454   -4.0940 C.ar     1 ZINC000096258164   -0.0700
26     C26     8.0603   -1.1760   -2.9659 C.ar     1 ZINC000096258164   -0.1500
27     N27     4.6629   -1.3380    0.8100 N.ar     1 ZINC000096258164   -0.1900
28     N28     4.0389   -1.5620    1.9087 N.ar     1 ZINC000096258164   -0.2800
29     C29     2.7151   -1.5401    1.9879 C.ar     1 ZINC000096258164    0.3700
30     N30     2.0867   -1.7888    3.1996 N.pl3    1 ZINC000096258164   -0.8200
31     C31    -1.4311   -1.7948   -0.2674 C.ar     1 ZINC000096258164   -0.0500
32     C32    -2.2303   -1.6405    0.8509 C.ar     1 ZINC000096258164   -0.0200
33     Cl33   -1.6985   -0.6397    2.1659 Cl       1 ZINC000096258164   -0.0300
34     C34    -3.4537   -2.2831    0.9220 C.ar     1 ZINC000096258164   -0.0700
35     C35    -3.8782   -3.0801   -0.1241 C.ar     1 ZINC000096258164   -0.1200
36     C36    -3.0793   -3.2359   -1.2440 C.ar     1 ZINC000096258164    0.1200
37     F37    -3.4939   -4.0150   -2.2668 F        1 ZINC000096258164   -0.1100
38     C38    -1.8569   -2.5880   -1.3175 C.ar     1 ZINC000096258164   -0.0600
39     Cl39   -0.8540   -2.7824   -2.7211 Cl       1 ZINC000096258164   -0.0300
40     H40     0.6415    0.9022   -0.6728 H        1 ZINC000096258164    0.0800
41     H41    -0.8513    0.5163   -1.5621 H        1 ZINC000096258164    0.0800
42     H42    -0.9140    0.8277    0.1893 H        1 ZINC000096258164    0.0800
43     H43     2.0898   -0.8215   -1.2585 H        1 ZINC000096258164    0.1700
44     H44     6.6049   -1.1273   -0.7324 H        1 ZINC000096258164    0.4300
45     H45     5.4729    0.9880   -3.3032 H        1 ZINC000096258164    0.1500
46     H46     6.7484    1.5931   -5.3137 H        1 ZINC000096258164    0.1400
47     H47    10.3881   -2.2943   -6.1885 H        1 ZINC000096258164    0.1000
48     H48     8.6690   -1.9687   -5.8424 H        1 ZINC000096258164    0.1400
49     H49     9.0041   -3.6611   -7.6816 H        1 ZINC000096258164    0.1500
50     H50     8.1002   -2.2216   -8.2105 H        1 ZINC000096258164    0.1300
51     H51     8.7738   -2.8192  -10.4771 H        1 ZINC000096258164    0.1200
52     H52    10.5055   -2.9254  -10.8748 H        1 ZINC000096258164    0.1300
53     H53     9.7471   -4.1756   -9.8598 H        1 ZINC000096258164    0.1300
54     H54    10.7951   -0.7363  -10.0644 H        1 ZINC000096258164    0.1500
55     H55     9.1001   -0.5887   -9.5409 H        1 ZINC000096258164    0.1300
56     H56    10.4617    0.9666   -8.2393 H        1 ZINC000096258164    0.1400
57     H57    11.5749   -0.3473   -7.7748 H        1 ZINC000096258164    0.1000
58     H58     9.7009   -1.3576   -4.3169 H        1 ZINC000096258164    0.1300
59     H59     8.4209   -1.9510   -2.3058 H        1 ZINC000096258164    0.1400
60     H60     2.6156   -1.9790    3.9902 H        1 ZINC000096258164    0.4200
61     H61     1.1185   -1.7725    3.2562 H        1 ZINC000096258164    0.4200
62     H62    -4.0770   -2.1620    1.7956 H        1 ZINC000096258164    0.1600
63     H63    -4.8330   -3.5816   -0.0679 H        1 ZINC000096258164    0.1600
@<TRIPOS>BOND
1     1     2     1
2     1     40    1
3     1     41    1
4     1     42    1
5     2     3     1
6     2     4     1
7     2     31    1
8     4     5     1
9     5     29    ar
10    5     6     ar
11    6     7     ar
12    6     43    1
13    7     8     1
14    7     27    ar
15    8     9     2
16    8     10    am
17    10    11    1
18    10    44    1
19    11    26    ar
20    11    12    ar
21    12    13    ar
22    12    45    1
23    13    14    ar
24    13    46    1
25    14    15    1
26    14    25    ar
27    15    16    2
28    15    17    am
29    17    24    1
30    17    18    1
31    18    19    1
32    18    47    1
33    18    48    1
34    19    20    1
35    19    49    1
36    19    50    1
37    20    21    1
38    20    22    1
39    20    23    1
40    22    51    1
41    22    52    1
42    22    53    1
43    23    24    1
44    23    54    1
45    23    55    1
46    24    56    1
47    24    57    1
48    25    26    ar
49    25    58    1
50    26    59    1
51    27    28    ar
52    28    29    ar
53    29    30    1
54    30    60    1
55    30    61    1
56    31    38    ar
57    31    32    ar
58    32    33    1
59    32    34    ar
60    34    35    ar
61    34    62    1
62    35    36    ar
63    35    63    1
64    36    37    1
65    36    38    ar
66    38    39    1
@<TRIPOS>SUBSTRUCTURE
1   ZINC000096258164 1     RESIDUE    1   A     ZIN   1
