@<TRIPOS>MOLECULE
ZINC000001547195
28    29    1     0     0
SMALL
USER_CHARGES
@<TRIPOS>ATOM
1      C1     -0.0187    1.5258    0.0104 C.3      1 ZINC000001547195   -0.1500
2      C2      0.0021   -0.0041    0.0020 C.3      1 ZINC000001547195   -0.1200
3      C3      0.7421   -0.5109    1.2415 C.3      1 ZINC000001547195   -0.1200
4      C4      0.7628   -2.0407    1.2331 C.3      1 ZINC000001547195   -0.1200
5      C5      1.5028   -2.5476    2.4727 C.3      1 ZINC000001547195    0.1200
6      H6      2.4932   -2.0956    2.5275 H        1 ZINC000001547195    0.1300
7      O7      0.7431   -2.2314    3.6713 O.3      1 ZINC000001547195   -0.3100
8      C8      0.4221   -3.3742    4.3003 C.2      1 ZINC000001547195    0.5200
9      O9     -0.2129   -3.4440    5.3335 O.2      1 ZINC000001547195   -0.4500
10     C10     0.9511   -4.5314    3.5557 C.ar     1 ZINC000001547195   -0.2000
11     C11     0.8920   -5.9073    3.7831 C.ar     1 ZINC000001547195   -0.0300
12     C12     1.4926   -6.7755    2.8945 C.ar     1 ZINC000001547195   -0.1300
13     C13     2.1529   -6.2886    1.7805 C.ar     1 ZINC000001547195   -0.0800
14     C14     2.2158   -4.9244    1.5481 C.ar     1 ZINC000001547195   -0.1000
15     C15     1.6216   -4.0501    2.4260 C.ar     1 ZINC000001547195   -0.1000
16     H16     1.0039    1.9031    0.0027 H        1 ZINC000001547195    0.0500
17     H17    -0.5459    1.8868   -0.8726 H        1 ZINC000001547195    0.0500
18     H18    -0.5289    1.8773    0.9072 H        1 ZINC000001547195    0.0600
19     H19    -1.0205   -0.3814    0.0098 H        1 ZINC000001547195    0.0600
20     H20     0.5123   -0.3556   -0.8948 H        1 ZINC000001547195    0.0600
21     H21     1.7647   -0.1336    1.2338 H        1 ZINC000001547195    0.0700
22     H22     0.2319   -0.1594    2.1383 H        1 ZINC000001547195    0.0700
23     H23    -0.2598   -2.4180    1.2409 H        1 ZINC000001547195    0.0800
24     H24     1.2730   -2.3923    0.3363 H        1 ZINC000001547195    0.0900
25     H25     0.3781   -6.2911    4.6519 H        1 ZINC000001547195    0.1400
26     H26     1.4474   -7.8402    3.0698 H        1 ZINC000001547195    0.1400
27     H27     2.6212   -6.9744    1.0900 H        1 ZINC000001547195    0.1400
28     H28     2.7319   -4.5477    0.6774 H        1 ZINC000001547195    0.1400
@<TRIPOS>BOND
1     1     2     1
2     1     16    1
3     1     17    1
4     1     18    1
5     2     3     1
6     2     19    1
7     2     20    1
8     3     4     1
9     3     21    1
10    3     22    1
11    4     5     1
12    4     23    1
13    4     24    1
14    5     6     1
15    5     15    1
16    5     7     1
17    7     8     1
18    8     9     2
19    8     10    1
20    10    15    ar
21    10    11    ar
22    11    12    ar
23    11    25    1
24    12    13    ar
25    12    26    1
26    13    14    ar
27    13    27    1
28    14    15    ar
29    14    28    1
@<TRIPOS>SUBSTRUCTURE
1   ZINC000001547195 1     RESIDUE    1   A     ZIN   1
